
     RDKit          3D

 45 50  0  0  1  0  0  0  0  0999 V2000
   37.9590   26.3790   36.4750 C   0  0  1  0  0  0  0  0  0  0  0  0
   38.7120   27.3550   35.6540 C   0  0  0  0  0  0  0  0  0  0  0  0
   37.4550   26.7460   35.1330 C   0  0  1  0  0  0  0  0  0  0  0  0
   37.5930   26.0550   33.9150 N   0  0  0  0  0  0  0  0  0  0  0  0
   37.6800   24.7310   33.7210 C   0  0  0  0  0  0  0  0  0  0  0  0
   37.8130   24.1210   32.5010 C   0  0  0  0  0  0  0  0  0  0  0  0
   37.8610   24.9290   31.3570 C   0  0  0  0  0  0  0  0  0  0  0  0
   37.9810   24.4220   30.2160 O   0  0  0  0  0  0  0  0  0  0  0  0
   37.7750   26.2790   31.4770 N   0  0  0  0  0  0  0  0  0  0  0  0
   37.6480   26.7690   32.7280 C   0  0  0  0  0  0  0  0  0  0  0  0
   37.5690   28.0440   32.8130 O   0  0  0  0  0  0  0  0  0  0  0  0
   37.1120   28.5310   28.7830 N   0  0  0  0  0  0  0  0  0  0  0  0
   36.7350   27.7850   29.7960 N   0  0  0  0  0  0  0  0  0  0  0  0
   37.7970   27.1640   30.3620 C   0  0  0  0  0  0  0  0  0  0  0  0
   38.8940   27.5560   29.6500 C   0  0  0  0  0  0  0  0  0  0  0  0
   38.4580   28.4110   28.6630 C   0  0  0  0  0  0  0  0  0  0  0  0
   38.5460   25.0490   36.7880 C   0  0  0  0  0  0  0  0  0  0  0  0
   38.0530   24.3990   37.9150 C   0  0  0  0  0  0  0  0  0  0  0  0
   38.5400   23.1640   38.2770 C   0  0  0  0  0  0  0  0  0  0  0  0
   39.5020   22.6410   37.4830 N   0  0  0  0  0  0  0  0  0  0  0  0
   39.9630   23.2920   36.3960 C   0  0  0  0  0  0  0  0  0  0  0  0
   39.5040   24.4840   36.0340 N   0  0  0  0  0  0  0  0  0  0  0  0
   40.9830   22.7540   35.5420 N   0  0  0  0  0  0  0  0  0  0  0  0
   41.3330   23.0580   34.2730 C   0  0  0  0  0  0  0  0  0  0  0  0
   42.3670   22.2550   33.9250 N   0  0  0  0  0  0  0  0  0  0  0  0
   42.6550   21.4640   34.9610 C   0  0  0  0  0  0  0  0  0  0  0  0
   43.6140   20.4750   35.1260 C   0  0  0  0  0  0  0  0  0  0  0  0
   43.7070   19.7980   36.3030 N   0  0  0  0  0  0  0  0  0  0  0  0
   42.8430   20.1110   37.3100 C   0  0  0  0  0  0  0  0  0  0  0  0
   41.9080   21.0710   37.1580 N   0  0  0  0  0  0  0  0  0  0  0  0
   41.7930   21.7600   36.0000 C   0  0  0  0  0  0  0  0  0  0  0  0
   37.5078   26.3689   37.4782 H   0  0  0  0  0  0  0  0  0  0  0  0
   38.7319   28.4168   35.9409 H   0  0  0  0  0  0  0  0  0  0  0  0
   39.7478   27.4344   35.2923 H   0  0  0  0  0  0  0  0  0  0  0  0
   36.4334   27.0094   34.8215 H   0  0  0  0  0  0  0  0  0  0  0  0
   37.6416   24.0844   34.6100 H   0  0  0  0  0  0  0  0  0  0  0  0
   37.8803   23.0259   32.4218 H   0  0  0  0  0  0  0  0  0  0  0  0
   36.4970   29.1036   28.1874 H   0  0  0  0  0  0  0  0  0  0  0  0
   39.9337   27.2461   29.8314 H   0  0  0  0  0  0  0  0  0  0  0  0
   39.0885   28.9082   27.9112 H   0  0  0  0  0  0  0  0  0  0  0  0
   37.2684   24.8757   38.5209 H   0  0  0  0  0  0  0  0  0  0  0  0
   38.1671   22.6310   39.1640 H   0  0  0  0  0  0  0  0  0  0  0  0
   40.8623   23.8214   33.6360 H   0  0  0  0  0  0  0  0  0  0  0  0
   44.3024   20.2370   34.3017 H   0  0  0  0  0  0  0  0  0  0  0  0
   42.9098   19.5699   38.2654 H   0  0  0  0  0  0  0  0  0  0  0  0
  1 17  1  0
  2  1  1  0
  3  2  1  0
  3  1  1  0
  4  3  1  0
  5  4  1  0
  6  5  2  0
  7  9  1  0
  7  6  1  0
  8  7  2  0
  9 10  1  0
 10 11  2  0
 10  4  1  0
 12 13  1  0
 13 14  2  0
 14  9  1  0
 15 14  1  0
 16 12  1  0
 16 15  2  0
 17 18  2  0
 18 19  1  0
 20 19  2  0
 21 20  1  0
 22 21  2  0
 22 17  1  0
 23 31  1  0
 23 21  1  0
 24 23  1  0
 25 24  2  0
 25 26  1  0
 26 27  2  0
 26 31  1  0
 27 28  1  0
 28 29  2  0
 30 29  1  0
 31 30  2  0
  1 32  1  1
  2 33  1  0
  2 34  1  0
  3 35  1  1
  5 36  1  0
  6 37  1  0
 12 38  1  0
 15 39  1  0
 16 40  1  0
 18 41  1  0
 19 42  1  0
 24 43  1  0
 27 44  1  0
 29 45  1  0
M  ISO  8  32  13  33  13  34  13  35  13  36  14  37  14  38   9  39  14
M  ISO  6  40  14  41  14  42  14  43  14  44  14  45  14
M  END
>  <minimizedAffinity>  (1) 
-6.58047771

>  <minimizedRMSD>  (1) 
0.138969064

$$$$
