
     RDKit          3D

 40 44  0  0  1  0  0  0  0  0999 V2000
   37.9770   26.3700   36.4910 C   0  0  1  0  0  0  0  0  0  0  0  0
   38.7400   27.3380   35.6700 C   0  0  0  0  0  0  0  0  0  0  0  0
   37.4750   26.7370   35.1480 C   0  0  1  0  0  0  0  0  0  0  0  0
   37.6090   26.0470   33.9300 N   0  0  0  0  0  0  0  0  0  0  0  0
   37.7030   24.7220   33.7340 C   0  0  0  0  0  0  0  0  0  0  0  0
   37.8370   24.1080   32.5220 C   0  0  0  0  0  0  0  0  0  0  0  0
   37.8780   24.9120   31.3740 C   0  0  0  0  0  0  0  0  0  0  0  0
   38.0000   24.4020   30.2350 O   0  0  0  0  0  0  0  0  0  0  0  0
   37.7860   26.2640   31.4900 N   0  0  0  0  0  0  0  0  0  0  0  0
   37.6590   26.7550   32.7400 C   0  0  0  0  0  0  0  0  0  0  0  0
   37.5750   28.0290   32.8240 O   0  0  0  0  0  0  0  0  0  0  0  0
   37.1150   28.5030   28.7940 N   0  0  0  0  0  0  0  0  0  0  0  0
   36.7360   27.7630   29.8080 N   0  0  0  0  0  0  0  0  0  0  0  0
   37.8020   27.1440   30.3730 C   0  0  0  0  0  0  0  0  0  0  0  0
   38.8940   27.5330   29.6550 C   0  0  0  0  0  0  0  0  0  0  0  0
   38.4530   28.3850   28.6670 C   0  0  0  0  0  0  0  0  0  0  0  0
   38.5510   25.0330   36.8060 C   0  0  0  0  0  0  0  0  0  0  0  0
   38.0270   24.3740   37.9140 C   0  0  0  0  0  0  0  0  0  0  0  0
   38.5020   23.1340   38.2710 C   0  0  0  0  0  0  0  0  0  0  0  0
   39.4820   22.6100   37.5000 N   0  0  0  0  0  0  0  0  0  0  0  0
   39.9740   23.2760   36.4250 C   0  0  0  0  0  0  0  0  0  0  0  0
   39.5280   24.4730   36.0670 N   0  0  0  0  0  0  0  0  0  0  0  0
   41.0500   22.6830   35.5920 C   0  0  0  0  0  0  0  0  0  0  0  0
   41.5210   23.1240   34.2890 C   0  0  0  0  0  0  0  0  0  0  0  0
   42.7970   21.9470   33.9340 S   0  0  0  0  0  0  0  0  0  0  0  0
   42.5360   21.0190   35.5720 C   0  0  0  0  0  0  0  0  0  0  0  0
   41.6480   21.6260   36.1010 N   0  0  0  0  0  0  0  0  0  0  0  0
   37.5263   26.3672   37.4944 H   0  0  0  0  0  0  0  0  0  0  0  0
   38.7688   28.4000   35.9551 H   0  0  0  0  0  0  0  0  0  0  0  0
   39.7769   27.4081   35.3095 H   0  0  0  0  0  0  0  0  0  0  0  0
   36.4546   27.0051   34.8368 H   0  0  0  0  0  0  0  0  0  0  0  0
   37.6692   24.0772   34.6246 H   0  0  0  0  0  0  0  0  0  0  0  0
   37.9108   23.0130   32.4481 H   0  0  0  0  0  0  0  0  0  0  0  0
   36.4989   29.0745   28.1985 H   0  0  0  0  0  0  0  0  0  0  0  0
   39.9346   27.2235   29.8322 H   0  0  0  0  0  0  0  0  0  0  0  0
   39.0791   28.8803   27.9103 H   0  0  0  0  0  0  0  0  0  0  0  0
   37.2298   24.8468   38.5064 H   0  0  0  0  0  0  0  0  0  0  0  0
   38.1038   22.5937   39.1425 H   0  0  0  0  0  0  0  0  0  0  0  0
   41.1740   23.9715   33.6796 H   0  0  0  0  0  0  0  0  0  0  0  0
   43.0726   20.1346   35.9459 H   0  0  0  0  0  0  0  0  0  0  0  0
  1 17  1  0
  2  1  1  0
  3  2  1  0
  3  1  1  0
  4  3  1  0
  5  4  1  0
  6  5  2  0
  7  9  1  0
  7  6  1  0
  8  7  2  0
  9 10  1  0
 10 11  2  0
 10  4  1  0
 12 13  1  0
 13 14  2  0
 14  9  1  0
 15 14  1  0
 16 12  1  0
 16 15  2  0
 17 18  2  0
 18 19  1  0
 20 19  2  0
 21 20  1  0
 22 21  2  0
 22 17  1  0
 23 27  1  0
 23 21  1  0
 24 23  2  0
 25 24  1  0
 25 26  1  0
 26 27  2  0
  1 28  1  1
  2 29  1  0
  2 30  1  0
  3 31  1  1
  5 32  1  0
  6 33  1  0
 12 34  1  0
 15 35  1  0
 16 36  1  0
 18 37  1  0
 19 38  1  0
 24 39  1  0
 26 40  1  0
M  ISO  8  28  13  29  13  30  13  31  13  32  14  33  14  34   9  35  14
M  ISO  5  36  14  37  14  38  14  39  14  40  14
M  END
>  <minimizedAffinity>  (1) 
-5.61761761

>  <minimizedRMSD>  (1) 
0.111703865

$$$$
