
     RDKit          3D

 40 43  0  0  1  0  0  0  0  0999 V2000
   37.6040   26.0280   33.9170 N   0  0  0  0  0  0  0  0  0  0  0  0
   37.7040   24.7040   33.7160 C   0  0  0  0  0  0  0  0  0  0  0  0
   37.8450   24.0980   32.4970 C   0  0  0  0  0  0  0  0  0  0  0  0
   37.8870   24.9100   31.3540 C   0  0  0  0  0  0  0  0  0  0  0  0
   38.0150   24.4040   30.2140 O   0  0  0  0  0  0  0  0  0  0  0  0
   37.7890   26.2620   31.4800 N   0  0  0  0  0  0  0  0  0  0  0  0
   37.6560   26.7460   32.7300 C   0  0  0  0  0  0  0  0  0  0  0  0
   37.5650   28.0170   32.8220 O   0  0  0  0  0  0  0  0  0  0  0  0
   37.1130   28.5100   28.7920 N   0  0  0  0  0  0  0  0  0  0  0  0
   36.7370   27.7620   29.8030 N   0  0  0  0  0  0  0  0  0  0  0  0
   37.8060   27.1470   30.3670 C   0  0  0  0  0  0  0  0  0  0  0  0
   38.8980   27.5470   29.6540 C   0  0  0  0  0  0  0  0  0  0  0  0
   38.4530   28.4010   28.6690 C   0  0  0  0  0  0  0  0  0  0  0  0
   37.9850   26.3510   36.4760 C   0  0  1  0  0  0  0  0  0  0  0  0
   38.7160   27.3420   35.6540 C   0  0  0  0  0  0  0  0  0  0  0  0
   37.4630   26.7090   35.1380 C   0  0  1  0  0  0  0  0  0  0  0  0
   38.5990   25.0330   36.7770 C   0  0  0  0  0  0  0  0  0  0  0  0
   38.0180   24.3160   37.8350 C   0  0  0  0  0  0  0  0  0  0  0  0
   38.5350   23.0740   38.1750 C   0  0  0  0  0  0  0  0  0  0  0  0
   39.5880   22.6240   37.4500 N   0  0  0  0  0  0  0  0  0  0  0  0
   40.1190   23.3490   36.4350 C   0  0  0  0  0  0  0  0  0  0  0  0
   39.6440   24.5390   36.0910 N   0  0  0  0  0  0  0  0  0  0  0  0
   41.2840   22.8430   35.6380 C   0  0  0  0  0  0  0  0  0  0  0  0
   42.5250   22.7290   36.5020 C   0  0  0  0  0  0  0  0  0  0  0  0
   37.6698   24.0540   34.6028 H   0  0  0  0  0  0  0  0  0  0  0  0
   37.9233   23.0038   32.4158 H   0  0  0  0  0  0  0  0  0  0  0  0
   36.4946   29.0798   28.1972 H   0  0  0  0  0  0  0  0  0  0  0  0
   39.9403   27.2439   29.8325 H   0  0  0  0  0  0  0  0  0  0  0  0
   39.0779   28.9043   27.9165 H   0  0  0  0  0  0  0  0  0  0  0  0
   37.5409   26.3321   37.4822 H   0  0  0  0  0  0  0  0  0  0  0  0
   38.7184   28.4033   35.9432 H   0  0  0  0  0  0  0  0  0  0  0  0
   39.7481   27.4412   35.2867 H   0  0  0  0  0  0  0  0  0  0  0  0
   36.4336   26.9509   34.8349 H   0  0  0  0  0  0  0  0  0  0  0  0
   37.1635   24.7336   38.3876 H   0  0  0  0  0  0  0  0  0  0  0  0
   38.1088   22.4805   38.9972 H   0  0  0  0  0  0  0  0  0  0  0  0
   41.0374   21.8516   35.2301 H   0  0  0  0  0  0  0  0  0  0  0  0
   41.4876   23.5547   34.8244 H   0  0  0  0  0  0  0  0  0  0  0  0
   42.2367   22.7555   37.5632 H   0  0  0  0  0  0  0  0  0  0  0  0
   43.0371   21.7800   36.2848 H   0  0  0  0  0  0  0  0  0  0  0  0
   43.2014   23.5688   36.2848 H   0  0  0  0  0  0  0  0  0  0  0  0
  1 16  1  0
  2  1  1  0
  3  2  2  0
  4  6  1  0
  4  3  1  0
  5  4  2  0
  6  7  1  0
  7  8  2  0
  7  1  1  0
  9 10  1  0
 10 11  2  0
 11  6  1  0
 12 11  1  0
 13  9  1  0
 13 12  2  0
 14 17  1  0
 15 14  1  0
 16 15  1  0
 16 14  1  0
 17 18  2  0
 18 19  1  0
 20 19  2  0
 21 20  1  0
 22 21  2  0
 22 17  1  0
 23 21  1  0
 23 24  1  0
  2 25  1  0
  3 26  1  0
  9 27  1  0
 12 28  1  0
 13 29  1  0
 14 30  1  1
 15 31  1  0
 15 32  1  0
 16 33  1  1
 18 34  1  0
 19 35  1  0
 23 36  1  0
 23 37  1  0
 24 38  1  0
 24 39  1  0
 24 40  1  0
M  ISO  8  25  14  26  14  27   9  28  14  29  14  30  13  31  13  32  13
M  ISO  8  33  13  34  14  35  14  36   8  37   8  38   8  39   8  40   8
M  END
>  <minimizedAffinity>  (1) 
-5.40414381

>  <minimizedRMSD>  (1) 
0.0841919184

$$$$
