
     RDKit          3D

 37 40  0  0  1  0  0  0  0  0999 V2000
   37.9880   26.3950   36.5050 C   0  0  1  0  0  0  0  0  0  0  0  0
   38.7890   27.3320   35.6830 C   0  0  0  0  0  0  0  0  0  0  0  0
   37.5110   26.7650   35.1550 C   0  0  1  0  0  0  0  0  0  0  0  0
   37.6270   26.0640   33.9420 N   0  0  0  0  0  0  0  0  0  0  0  0
   37.7060   24.7360   33.7610 C   0  0  0  0  0  0  0  0  0  0  0  0
   37.8240   24.1110   32.5520 C   0  0  0  0  0  0  0  0  0  0  0  0
   37.8670   24.9030   31.3960 C   0  0  0  0  0  0  0  0  0  0  0  0
   37.9750   24.3870   30.2580 O   0  0  0  0  0  0  0  0  0  0  0  0
   37.7910   26.2530   31.4980 N   0  0  0  0  0  0  0  0  0  0  0  0
   37.6780   26.7600   32.7450 C   0  0  0  0  0  0  0  0  0  0  0  0
   37.6070   28.0370   32.8180 O   0  0  0  0  0  0  0  0  0  0  0  0
   37.1260   28.4840   28.7880 N   0  0  0  0  0  0  0  0  0  0  0  0
   36.7480   27.7540   29.8100 N   0  0  0  0  0  0  0  0  0  0  0  0
   37.8080   27.1260   30.3750 C   0  0  0  0  0  0  0  0  0  0  0  0
   38.8990   27.4980   29.6470 C   0  0  0  0  0  0  0  0  0  0  0  0
   38.4620   28.3490   28.6560 C   0  0  0  0  0  0  0  0  0  0  0  0
   38.5200   25.0450   36.8280 C   0  0  0  0  0  0  0  0  0  0  0  0
   37.9430   24.3880   37.9130 C   0  0  0  0  0  0  0  0  0  0  0  0
   38.3700   23.1360   38.2900 C   0  0  0  0  0  0  0  0  0  0  0  0
   39.3670   22.6030   37.5470 N   0  0  0  0  0  0  0  0  0  0  0  0
   39.9100   23.2530   36.5070 C   0  0  0  0  0  0  0  0  0  0  0  0
   39.5110   24.4630   36.1280 N   0  0  0  0  0  0  0  0  0  0  0  0
   40.9960   22.5000   35.8180 C   0  0  0  0  0  0  0  0  0  0  0  0
   41.2290   21.3290   36.5530 F   0  0  0  0  0  0  0  0  0  0  0  0
   42.1510   23.2260   35.7160 F   0  0  0  0  0  0  0  0  0  0  0  0
   40.5100   22.1470   34.5550 F   0  0  0  0  0  0  0  0  0  0  0  0
   37.5279   26.4154   37.5039 H   0  0  0  0  0  0  0  0  0  0  0  0
   38.8478   28.3952   35.9589 H   0  0  0  0  0  0  0  0  0  0  0  0
   39.8309   27.3671   35.3319 H   0  0  0  0  0  0  0  0  0  0  0  0
   36.5019   27.0608   34.8321 H   0  0  0  0  0  0  0  0  0  0  0  0
   37.6731   24.1003   34.6581 H   0  0  0  0  0  0  0  0  0  0  0  0
   37.8837   23.0145   32.4872 H   0  0  0  0  0  0  0  0  0  0  0  0
   36.5123   29.0580   28.1923 H   0  0  0  0  0  0  0  0  0  0  0  0
   39.9371   27.1776   29.8193 H   0  0  0  0  0  0  0  0  0  0  0  0
   39.0901   28.8323   27.8931 H   0  0  0  0  0  0  0  0  0  0  0  0
   37.1346   24.8775   38.4759 H   0  0  0  0  0  0  0  0  0  0  0  0
   37.9279   22.6009   39.1434 H   0  0  0  0  0  0  0  0  0  0  0  0
  1 17  1  0
  2  1  1  0
  3  2  1  0
  3  1  1  0
  4  3  1  0
  5  4  1  0
  6  5  2  0
  7  9  1  0
  7  6  1  0
  8  7  2  0
  9 10  1  0
 10 11  2  0
 10  4  1  0
 12 13  1  0
 13 14  2  0
 14  9  1  0
 15 14  1  0
 16 12  1  0
 16 15  2  0
 17 18  2  0
 18 19  1  0
 20 19  2  0
 21 20  1  0
 22 21  2  0
 22 17  1  0
 23 21  1  0
 23 24  1  0
 25 23  1  0
 26 23  1  0
  1 27  1  1
  2 28  1  0
  2 29  1  0
  3 30  1  1
  5 31  1  0
  6 32  1  0
 12 33  1  0
 15 34  1  0
 16 35  1  0
 18 36  1  0
 19 37  1  0
M  ISO  8  27  13  28  13  29  13  30  13  31  14  32  14  33   9  34  14
M  ISO  3  35  14  36  14  37  14
M  END
>  <minimizedAffinity>  (1) 
-5.58296013

>  <minimizedRMSD>  (1) 
0.331332654

$$$$
