
     RDKit          3D

 37 39  0  0  0  0  0  0  0  0999 V2000
   38.6010   24.1270   34.2810 N   0  0  0  0  0  0  0  0  0  0  0  0
   38.7700   23.3100   33.2570 N   0  0  0  0  0  0  0  0  0  0  0  0
   38.6580   23.9450   32.0960 C   0  0  0  0  0  0  0  0  0  0  0  0
   38.3970   25.2730   32.4390 C   0  0  0  0  0  0  0  0  0  0  0  0
   38.3650   25.3680   33.8240 C   0  0  0  0  0  0  0  0  0  0  0  0
   38.2110   26.2820   31.4520 N   0  0  0  0  0  0  0  0  0  0  0  0
   39.1720   27.0440   30.8750 C   0  0  0  0  0  0  0  0  0  0  0  0
   38.8290   27.9870   29.9270 C   0  0  0  0  0  0  0  0  0  0  0  0
   39.8840   28.8030   29.3140 C   0  0  0  0  0  0  0  0  0  0  0  0
   37.5190   28.1780   29.5470 C   0  0  0  0  0  0  0  0  0  0  0  0
   37.1630   29.0250   28.6880 O   0  0  0  0  0  0  0  0  0  0  0  0
   36.5760   27.4140   30.1290 N   0  0  0  0  0  0  0  0  0  0  0  0
   36.9270   26.5050   31.0450 C   0  0  0  0  0  0  0  0  0  0  0  0
   35.9780   25.8250   31.5450 O   0  0  0  0  0  0  0  0  0  0  0  0
   37.5220   23.8210   36.4380 C   0  0  0  0  0  0  0  0  0  0  0  0
   38.6630   23.7400   35.6370 C   0  0  0  0  0  0  0  0  0  0  0  0
   39.8630   23.2740   36.1820 C   0  0  0  0  0  0  0  0  0  0  0  0
   39.8230   22.9200   37.5130 N   0  0  0  0  0  0  0  0  0  0  0  0
   38.7270   23.0050   38.2590 C   0  0  0  0  0  0  0  0  0  0  0  0
   37.5740   23.4550   37.7230 N   0  0  0  0  0  0  0  0  0  0  0  0
   38.1240   26.5690   34.5480 N   0  0  0  0  0  0  0  0  0  0  0  0
   39.0880   27.1380   35.4430 C   0  0  0  0  0  0  0  0  0  0  0  0
   40.3480   27.0290   35.0640 N   0  0  0  0  0  0  0  0  0  0  0  0
   38.5800   27.7620   36.6470 N   0  0  0  0  0  0  0  0  0  0  0  0
   41.0240   27.4530   35.7330 H   0  0  0  0  0  0  0  0  0  0  0  0
   38.7505   23.5185   31.0863 H   0  0  0  0  0  0  0  0  0  0  0  0
   40.2255   26.9110   31.1622 H   0  0  0  0  0  0  0  0  0  0  0  0
   40.4901   29.2718   30.1032 H   0  0  0  0  0  0  0  0  0  0  0  0
   40.5257   28.1639   28.6897 H   0  0  0  0  0  0  0  0  0  0  0  0
   39.4267   29.5848   28.6897 H   0  0  0  0  0  0  0  0  0  0  0  0
   35.5859   27.5292   29.8694 H   0  0  0  0  0  0  0  0  0  0  0  0
   36.5770   24.1872   36.0103 H   0  0  0  0  0  0  0  0  0  0  0  0
   40.7832   23.1947   35.5846 H   0  0  0  0  0  0  0  0  0  0  0  0
   38.7600   22.7074   39.3175 H   0  0  0  0  0  0  0  0  0  0  0  0
   37.2209   27.0485   34.4239 H   0  0  0  0  0  0  0  0  0  0  0  0
   39.2324   28.1854   37.3222 H   0  0  0  0  0  0  0  0  0  0  0  0
   37.5663   27.7824   36.8281 H   0  0  0  0  0  0  0  0  0  0  0  0
  1 16  1  0
  2  1  1  0
  3  4  1  0
  3  2  2  0
  4  5  2  0
  5  1  1  0
  5 21  1  0
  6  4  1  0
  7  6  1  0
  8  7  2  0
  9  8  1  0
 10  8  1  0
 10 12  1  0
 11 10  2  0
 12 13  1  0
 13  6  1  0
 13 14  2  0
 15 20  2  0
 16 17  2  0
 16 15  1  0
 17 18  1  0
 18 19  2  0
 20 19  1  0
 21 22  1  0
 22 24  1  0
 23 22  2  0
 23 25  1  0
  3 26  1  0
  7 27  1  0
  9 28  1  0
  9 29  1  0
  9 30  1  0
 12 31  1  0
 15 32  1  0
 17 33  1  0
 19 34  1  0
 21 35  1  0
 24 36  1  0
 24 37  1  0
M  ISO  8  26  14  27  14  28   8  29   8  30   8  31   9  32  14  33  14
M  ISO  1  34  14
M  END
>  <minimizedAffinity>  (1) 
-5.46646118

>  <minimizedRMSD>  (1) 
1.33461463

$$$$
