
     RDKit          3D

 31 33  0  0  0  0  0  0  0  0999 V2000
   38.1960   23.9140   34.7030 N   0  0  0  0  0  0  0  0  0  0  0  0
   38.2190   23.0050   33.7280 N   0  0  0  0  0  0  0  0  0  0  0  0
   37.9420   23.5610   32.5500 C   0  0  0  0  0  0  0  0  0  0  0  0
   37.7330   24.9000   32.8130 C   0  0  0  0  0  0  0  0  0  0  0  0
   37.8940   25.1180   34.1720 C   0  0  0  0  0  0  0  0  0  0  0  0
   37.4640   23.8980   37.0100 C   0  0  0  0  0  0  0  0  0  0  0  0
   38.4450   23.6410   36.0530 C   0  0  0  0  0  0  0  0  0  0  0  0
   39.6760   23.1110   36.4490 C   0  0  0  0  0  0  0  0  0  0  0  0
   39.8370   22.8740   37.7950 N   0  0  0  0  0  0  0  0  0  0  0  0
   38.8890   23.1250   38.6990 C   0  0  0  0  0  0  0  0  0  0  0  0
   37.7020   23.6360   38.3120 N   0  0  0  0  0  0  0  0  0  0  0  0
   37.7590   26.3800   34.8370 N   0  0  0  0  0  0  0  0  0  0  0  0
   38.8600   27.0680   35.4200 C   0  0  0  0  0  0  0  0  0  0  0  0
   40.0020   26.9670   34.7660 N   0  0  0  0  0  0  0  0  0  0  0  0
   38.6340   27.7890   36.6310 N   0  0  0  0  0  0  0  0  0  0  0  0
   40.7980   27.4770   35.2040 H   0  0  0  0  0  0  0  0  0  0  0  0
   37.4070   25.8930   31.8440 N   0  0  0  0  0  0  0  0  0  0  0  0
   36.1810   26.2640   31.5030 N   0  0  0  0  0  0  0  0  0  0  0  0
   36.2460   27.2360   30.5490 C   0  0  0  0  0  0  0  0  0  0  0  0
   37.5960   27.4840   30.2830 C   0  0  0  0  0  0  0  0  0  0  0  0
   38.2660   26.6140   31.1230 C   0  0  0  0  0  0  0  0  0  0  0  0
   37.8905   23.0588   31.5727 H   0  0  0  0  0  0  0  0  0  0  0  0
   36.4937   24.3153   36.7028 H   0  0  0  0  0  0  0  0  0  0  0  0
   40.4739   22.8948   35.7233 H   0  0  0  0  0  0  0  0  0  0  0  0
   39.0755   22.9149   39.7625 H   0  0  0  0  0  0  0  0  0  0  0  0
   36.8240   26.8081   34.8957 H   0  0  0  0  0  0  0  0  0  0  0  0
   39.4090   28.2980   37.0796 H   0  0  0  0  0  0  0  0  0  0  0  0
   37.6960   27.8002   37.0563 H   0  0  0  0  0  0  0  0  0  0  0  0
   35.3892   27.7358   30.0735 H   0  0  0  0  0  0  0  0  0  0  0  0
   38.0253   28.2041   29.5708 H   0  0  0  0  0  0  0  0  0  0  0  0
   39.3607   26.5282   31.1878 H   0  0  0  0  0  0  0  0  0  0  0  0
  1  7  1  0
  2  1  1  0
  3  4  1  0
  3  2  2  0
  4  5  2  0
  5  1  1  0
  5 12  1  0
  6 11  2  0
  7  8  2  0
  7  6  1  0
  8  9  1  0
  9 10  2  0
 11 10  1  0
 12 13  1  0
 13 15  1  0
 14 16  1  0
 14 13  2  0
 17  4  1  0
 18 17  1  0
 19 18  2  0
 20 19  1  0
 20 21  2  0
 21 17  1  0
  3 22  1  0
  6 23  1  0
  8 24  1  0
 10 25  1  0
 12 26  1  0
 15 27  1  0
 15 28  1  0
 19 29  1  0
 20 30  1  0
 21 31  1  0
M  ISO  7  22  14  23  14  24  14  25  14  29  14  30  14  31  14
M  END
>  <minimizedAffinity>  (1) 
-4.74885654

>  <minimizedRMSD>  (1) 
0.685895383

$$$$
