
     RDKit          3D

 32 34  0  0  0  0  0  0  0  0999 V2000
   38.3580   23.8720   34.6280 N   0  0  0  0  0  0  0  0  0  0  0  0
   38.4650   22.9880   33.6390 N   0  0  0  0  0  0  0  0  0  0  0  0
   38.2480   23.5540   32.4440 C   0  0  0  0  0  0  0  0  0  0  0  0
   37.9890   24.8790   32.7230 C   0  0  0  0  0  0  0  0  0  0  0  0
   38.0570   25.0840   34.0950 C   0  0  0  0  0  0  0  0  0  0  0  0
   37.4780   23.7280   36.8730 C   0  0  0  0  0  0  0  0  0  0  0  0
   38.5270   23.5880   35.9840 C   0  0  0  0  0  0  0  0  0  0  0  0
   39.7750   23.1540   36.4550 C   0  0  0  0  0  0  0  0  0  0  0  0
   39.8670   22.8950   37.7950 N   0  0  0  0  0  0  0  0  0  0  0  0
   38.8440   23.0360   38.6380 C   0  0  0  0  0  0  0  0  0  0  0  0
   37.6420   23.4560   38.1740 N   0  0  0  0  0  0  0  0  0  0  0  0
   37.8480   26.3280   34.7660 N   0  0  0  0  0  0  0  0  0  0  0  0
   38.8990   27.0540   35.3930 C   0  0  0  0  0  0  0  0  0  0  0  0
   40.0630   27.0080   34.7790 N   0  0  0  0  0  0  0  0  0  0  0  0
   38.5880   27.7440   36.6050 N   0  0  0  0  0  0  0  0  0  0  0  0
   40.8220   27.5450   35.2500 H   0  0  0  0  0  0  0  0  0  0  0  0
   37.6910   25.9190   31.7450 C   0  0  0  0  0  0  0  0  0  0  0  0
   38.6690   26.3810   30.8960 C   0  0  0  0  0  0  0  0  0  0  0  0
   38.4350   27.3610   29.9560 C   0  0  0  0  0  0  0  0  0  0  0  0
   37.1820   27.8570   29.9030 N   0  0  0  0  0  0  0  0  0  0  0  0
   36.1940   27.4230   30.7260 C   0  0  0  0  0  0  0  0  0  0  0  0
   36.4760   26.4500   31.6410 N   0  0  0  0  0  0  0  0  0  0  0  0
   38.2714   23.0682   31.4573 H   0  0  0  0  0  0  0  0  0  0  0  0
   36.4972   24.0667   36.5077 H   0  0  0  0  0  0  0  0  0  0  0  0
   40.6355   23.0284   35.7814 H   0  0  0  0  0  0  0  0  0  0  0  0
   38.9751   22.8121   39.7070 H   0  0  0  0  0  0  0  0  0  0  0  0
   36.8945   26.7164   34.7972 H   0  0  0  0  0  0  0  0  0  0  0  0
   39.3180   28.2823   37.0930 H   0  0  0  0  0  0  0  0  0  0  0  0
   37.6338   27.7031   36.9906 H   0  0  0  0  0  0  0  0  0  0  0  0
   39.6787   25.9510   30.9702 H   0  0  0  0  0  0  0  0  0  0  0  0
   39.2285   27.7199   29.2841 H   0  0  0  0  0  0  0  0  0  0  0  0
   35.1820   27.8485   30.6568 H   0  0  0  0  0  0  0  0  0  0  0  0
  1  7  1  0
  2  1  1  0
  3  4  1  0
  3  2  2  0
  4  5  2  0
  5  1  1  0
  5 12  1  0
  6 11  2  0
  7  8  2  0
  7  6  1  0
  8  9  1  0
  9 10  2  0
 11 10  1  0
 12 13  1  0
 13 15  1  0
 14 16  1  0
 14 13  2  0
 17  4  1  0
 18 17  2  0
 19 18  1  0
 20 19  2  0
 20 21  1  0
 21 22  2  0
 22 17  1  0
  3 23  1  0
  6 24  1  0
  8 25  1  0
 10 26  1  0
 12 27  1  0
 15 28  1  0
 15 29  1  0
 18 30  1  0
 19 31  1  0
 21 32  1  0
M  ISO  7  23  14  24  14  25  14  26  14  30  14  31  14  32  14
M  END
>  <minimizedAffinity>  (1) 
-4.8542099

>  <minimizedRMSD>  (1) 
0.601975143

$$$$
