
     RDKit          3D

 25 26  0  0  0  0  0  0  0  0999 V2000
   38.1460   23.7080   34.7330 N   0  0  0  0  0  0  0  0  0  0  0  0
   38.1090   22.7170   33.8420 N   0  0  0  0  0  0  0  0  0  0  0  0
   37.8090   23.1670   32.6290 C   0  0  0  0  0  0  0  0  0  0  0  0
   37.6430   24.5400   32.7650 C   0  0  0  0  0  0  0  0  0  0  0  0
   37.8600   24.8780   34.1070 C   0  0  0  0  0  0  0  0  0  0  0  0
   37.4800   23.9190   37.0530 C   0  0  0  0  0  0  0  0  0  0  0  0
   38.4350   23.5540   36.0970 C   0  0  0  0  0  0  0  0  0  0  0  0
   39.6660   23.0390   36.5030 C   0  0  0  0  0  0  0  0  0  0  0  0
   39.8570   22.9250   37.8550 N   0  0  0  0  0  0  0  0  0  0  0  0
   38.9390   23.2770   38.7590 C   0  0  0  0  0  0  0  0  0  0  0  0
   37.7420   23.7780   38.3600 N   0  0  0  0  0  0  0  0  0  0  0  0
   37.7830   26.1910   34.6520 N   0  0  0  0  0  0  0  0  0  0  0  0
   38.9100   26.8680   35.1910 C   0  0  0  0  0  0  0  0  0  0  0  0
   40.0490   26.6570   34.5830 N   0  0  0  0  0  0  0  0  0  0  0  0
   38.6850   27.7050   36.3360 N   0  0  0  0  0  0  0  0  0  0  0  0
   40.8590   27.1610   34.9910 H   0  0  0  0  0  0  0  0  0  0  0  0
   37.2240   25.7530   31.4930 S   0  0  0  0  0  0  0  0  0  0  0  0
   37.7120   22.5751   31.7069 H   0  0  0  0  0  0  0  0  0  0  0  0
   36.5094   24.3237   36.7301 H   0  0  0  0  0  0  0  0  0  0  0  0
   40.4391   22.7414   35.7793 H   0  0  0  0  0  0  0  0  0  0  0  0
   39.1538   23.1605   39.8315 H   0  0  0  0  0  0  0  0  0  0  0  0
   36.8715   26.6706   34.6557 H   0  0  0  0  0  0  0  0  0  0  0  0
   39.4708   28.2164   36.7625 H   0  0  0  0  0  0  0  0  0  0  0  0
   37.7378   27.7940   36.7307 H   0  0  0  0  0  0  0  0  0  0  0  0
   36.8212   26.9190   32.0889 H   0  0  0  0  0  0  0  0  0  0  0  0
  1  7  1  0
  2  1  1  0
  3  4  1  0
  3  2  2  0
  4  5  2  0
  5 12  1  0
  5  1  1  0
  6 11  2  0
  7  8  2  0
  7  6  1  0
  8  9  1  0
  9 10  2  0
 11 10  1  0
 12 13  1  0
 13 15  1  0
 14 16  1  0
 14 13  2  0
 17  4  1  0
  3 18  1  0
  6 19  1  0
  8 20  1  0
 10 21  1  0
 12 22  1  0
 15 23  1  0
 15 24  1  0
 17 25  1  0
M  ISO  5  18  14  19  14  20  14  21  14  25  11
M  END
>  <minimizedAffinity>  (1) 
-4.60869026

>  <minimizedRMSD>  (1) 
0.0407821573

$$$$
