
     RDKit          3D

 40 42  0  0  0  0  0  0  0  0999 V2000
   39.0420   23.7990   34.5630 N   0  0  0  0  0  0  0  0  0  0  0  0
   39.3900   22.8890   33.6610 N   0  0  0  0  0  0  0  0  0  0  0  0
   39.4030   23.4130   32.4340 C   0  0  0  0  0  0  0  0  0  0  0  0
   39.0370   24.7460   32.6020 C   0  0  0  0  0  0  0  0  0  0  0  0
   38.8110   24.9800   33.9500 C   0  0  0  0  0  0  0  0  0  0  0  0
   37.7240   23.7760   36.5950 C   0  0  0  0  0  0  0  0  0  0  0  0
   38.9370   23.5580   35.9460 C   0  0  0  0  0  0  0  0  0  0  0  0
   40.0330   23.1050   36.6790 C   0  0  0  0  0  0  0  0  0  0  0  0
   39.8390   22.8980   38.0170 N   0  0  0  0  0  0  0  0  0  0  0  0
   38.6720   23.1110   38.6230 C   0  0  0  0  0  0  0  0  0  0  0  0
   37.6010   23.5530   37.9120 N   0  0  0  0  0  0  0  0  0  0  0  0
   38.4180   26.2350   34.5000 N   0  0  0  0  0  0  0  0  0  0  0  0
   39.2800   26.9950   35.3630 C   0  0  0  0  0  0  0  0  0  0  0  0
   40.5640   26.9550   35.0660 N   0  0  0  0  0  0  0  0  0  0  0  0
   38.6600   27.7060   36.4380 N   0  0  0  0  0  0  0  0  0  0  0  0
   41.1570   27.5230   35.7040 H   0  0  0  0  0  0  0  0  0  0  0  0
   38.9420   25.6320   31.4870 N   0  0  0  0  0  0  0  0  0  0  0  0
   39.8260   26.1420   30.6010 C   0  0  0  0  0  0  0  0  0  0  0  0
   39.1170   26.9580   29.7350 C   0  0  0  0  0  0  0  0  0  0  0  0
   37.8250   26.9290   30.1100 N   0  0  0  0  0  0  0  0  0  0  0  0
   37.7260   26.1230   31.1720 C   0  0  0  0  0  0  0  0  0  0  0  0
   36.3830   25.9200   31.7830 C   0  0  0  0  0  0  0  0  0  0  0  0
   35.6270   24.8800   30.9470 C   0  0  0  0  0  0  0  0  0  0  0  0
   35.6100   27.2130   31.6340 C   0  0  0  0  0  0  0  0  0  0  0  0
   39.6499   22.9017   31.4919 H   0  0  0  0  0  0  0  0  0  0  0  0
   36.8571   24.1351   36.0210 H   0  0  0  0  0  0  0  0  0  0  0  0
   41.0080   22.9226   36.2036 H   0  0  0  0  0  0  0  0  0  0  0  0
   38.5746   22.9284   39.7034 H   0  0  0  0  0  0  0  0  0  0  0  0
   37.4860   26.6093   34.2715 H   0  0  0  0  0  0  0  0  0  0  0  0
   39.2345   28.2654   37.0845 H   0  0  0  0  0  0  0  0  0  0  0  0
   37.6390   27.6586   36.5657 H   0  0  0  0  0  0  0  0  0  0  0  0
   40.9079   25.9455   30.5728 H   0  0  0  0  0  0  0  0  0  0  0  0
   39.5351   27.5276   28.8919 H   0  0  0  0  0  0  0  0  0  0  0  0
   36.4845   25.6088   32.8332 H   0  0  0  0  0  0  0  0  0  0  0  0
   35.1138   24.1741   31.6166 H   0  0  0  0  0  0  0  0  0  0  0  0
   34.8860   25.3881   30.3124 H   0  0  0  0  0  0  0  0  0  0  0  0
   36.3389   24.3319   30.3124 H   0  0  0  0  0  0  0  0  0  0  0  0
   35.3704   27.6138   32.6300 H   0  0  0  0  0  0  0  0  0  0  0  0
   36.2198   27.9432   31.0819 H   0  0  0  0  0  0  0  0  0  0  0  0
   34.6781   27.0215   31.0819 H   0  0  0  0  0  0  0  0  0  0  0  0
  1  7  1  0
  2  1  1  0
  3  4  1  0
  3  2  2  0
  4  5  2  0
  5 12  1  0
  5  1  1  0
  6 11  2  0
  7  6  1  0
  7  8  2  0
  8  9  1  0
  9 10  2  0
 11 10  1  0
 12 13  1  0
 13 15  1  0
 14 13  2  0
 14 16  1  0
 17  4  1  0
 18 17  1  0
 19 20  1  0
 19 18  2  0
 20 21  2  0
 21 17  1  0
 21 22  1  0
 23 22  1  0
 24 22  1  0
  3 25  1  0
  6 26  1  0
  8 27  1  0
 10 28  1  0
 12 29  1  0
 15 30  1  0
 15 31  1  0
 18 32  1  0
 19 33  1  0
 22 34  1  0
 23 35  1  0
 23 36  1  0
 23 37  1  0
 24 38  1  0
 24 39  1  0
 24 40  1  0
M  ISO  8  25  14  26  14  27  14  28  14  32  14  33  14  34   8  35   8
M  ISO  5  36   8  37   8  38   8  39   8  40   8
M  END
>  <minimizedAffinity>  (1) 
-5.12298059

>  <minimizedRMSD>  (1) 
1.8355664

$$$$
