
     RDKit          3D

 34 36  0  0  0  0  0  0  0  0999 V2000
   39.1050   23.9990   34.1780 N   0  0  0  0  0  0  0  0  0  0  0  0
   39.4670   23.1960   33.1820 N   0  0  0  0  0  0  0  0  0  0  0  0
   39.4780   23.8470   32.0090 C   0  0  0  0  0  0  0  0  0  0  0  0
   39.0950   25.1350   32.3210 C   0  0  0  0  0  0  0  0  0  0  0  0
   38.8580   25.2450   33.6800 C   0  0  0  0  0  0  0  0  0  0  0  0
   37.7430   23.5840   36.1400 C   0  0  0  0  0  0  0  0  0  0  0  0
   38.9970   23.6240   35.5250 C   0  0  0  0  0  0  0  0  0  0  0  0
   40.1360   23.2880   36.2620 C   0  0  0  0  0  0  0  0  0  0  0  0
   39.9440   22.9340   37.5660 N   0  0  0  0  0  0  0  0  0  0  0  0
   38.7370   22.8990   38.1460 C   0  0  0  0  0  0  0  0  0  0  0  0
   37.6250   23.2280   37.4280 N   0  0  0  0  0  0  0  0  0  0  0  0
   38.4470   26.4270   34.3610 N   0  0  0  0  0  0  0  0  0  0  0  0
   39.2760   27.0740   35.3410 C   0  0  0  0  0  0  0  0  0  0  0  0
   40.5760   27.0520   35.0840 N   0  0  0  0  0  0  0  0  0  0  0  0
   38.6280   27.6680   36.4740 N   0  0  0  0  0  0  0  0  0  0  0  0
   41.1380   27.5390   35.8080 H   0  0  0  0  0  0  0  0  0  0  0  0
   38.9900   26.1370   31.3100 N   0  0  0  0  0  0  0  0  0  0  0  0
   39.8450   26.9740   30.6910 C   0  0  0  0  0  0  0  0  0  0  0  0
   39.1300   27.7310   29.7780 C   0  0  0  0  0  0  0  0  0  0  0  0
   37.8520   27.3470   29.8510 N   0  0  0  0  0  0  0  0  0  0  0  0
   37.7650   26.3770   30.7830 C   0  0  0  0  0  0  0  0  0  0  0  0
   36.4490   25.7980   31.0420 C   0  0  0  0  0  0  0  0  0  0  0  0
   36.0960   25.0670   32.0030 O   0  0  0  0  0  0  0  0  0  0  0  0
   35.3430   25.9670   30.2440 O   0  0  0  0  0  0  0  0  0  0  0  0
   39.7352   23.4434   31.0186 H   0  0  0  0  0  0  0  0  0  0  0  0
   36.8443   23.8468   35.5627 H   0  0  0  0  0  0  0  0  0  0  0  0
   41.1397   23.3079   35.8123 H   0  0  0  0  0  0  0  0  0  0  0  0
   38.6427   22.6048   39.2017 H   0  0  0  0  0  0  0  0  0  0  0  0
   37.5250   26.8315   34.1438 H   0  0  0  0  0  0  0  0  0  0  0  0
   39.1876   28.1409   37.1980 H   0  0  0  0  0  0  0  0  0  0  0  0
   37.6030   27.6217   36.5638 H   0  0  0  0  0  0  0  0  0  0  0  0
   40.9266   27.0442   30.8787 H   0  0  0  0  0  0  0  0  0  0  0  0
   39.5392   28.5067   29.1140 H   0  0  0  0  0  0  0  0  0  0  0  0
   34.4848   25.5394   30.4904 H   0  0  0  0  0  0  0  0  0  0  0  0
  1  7  1  0
  2  1  1  0
  3  4  1  0
  3  2  2  0
  4  5  2  0
  5  1  1  0
  5 12  1  0
  6 11  2  0
  7  6  1  0
  7  8  2  0
  8  9  1  0
  9 10  2  0
 11 10  1  0
 12 13  1  0
 13 15  1  0
 14 13  2  0
 14 16  1  0
 17  4  1  0
 18 17  1  0
 19 20  1  0
 19 18  2  0
 20 21  2  0
 21 22  1  0
 21 17  1  0
 22 23  2  0
 24 22  1  0
  3 25  1  0
  6 26  1  0
  8 27  1  0
 10 28  1  0
 12 29  1  0
 15 30  1  0
 15 31  1  0
 18 32  1  0
 19 33  1  0
 24 34  1  0
M  ISO  7  25  14  26  14  27  14  28  14  32  14  33  14  34   3
M  END
>  <minimizedAffinity>  (1) 
-4.9306798

>  <minimizedRMSD>  (1) 
1.87633801

$$$$
