
     RDKit          3D

 44 47  0  0  0  0  0  0  0  0999 V2000
   39.5050   23.0780   33.8640 N   0  0  0  0  0  0  0  0  0  0  0  0
   39.7080   22.4820   32.6960 N   0  0  0  0  0  0  0  0  0  0  0  0
   38.7950   22.8700   31.7910 C   0  0  0  0  0  0  0  0  0  0  0  0
   37.9800   23.7660   32.4640 C   0  0  0  0  0  0  0  0  0  0  0  0
   38.4310   23.8950   33.7710 C   0  0  0  0  0  0  0  0  0  0  0  0
   39.8090   22.0970   36.0660 C   0  0  0  0  0  0  0  0  0  0  0  0
   40.2820   22.8890   35.0110 C   0  0  0  0  0  0  0  0  0  0  0  0
   41.5340   23.4760   35.1400 C   0  0  0  0  0  0  0  0  0  0  0  0
   42.2340   23.2450   36.2900 N   0  0  0  0  0  0  0  0  0  0  0  0
   41.7590   22.4830   37.2840 C   0  0  0  0  0  0  0  0  0  0  0  0
   40.5410   21.9060   37.1710 N   0  0  0  0  0  0  0  0  0  0  0  0
   37.8360   24.7350   34.7630 N   0  0  0  0  0  0  0  0  0  0  0  0
   38.3600   26.0320   35.0920 C   0  0  0  0  0  0  0  0  0  0  0  0
   38.8510   26.7140   34.0660 N   0  0  0  0  0  0  0  0  0  0  0  0
   38.3040   26.4490   36.4520 N   0  0  0  0  0  0  0  0  0  0  0  0
   39.2080   27.6540   34.3290 H   0  0  0  0  0  0  0  0  0  0  0  0
   36.8800   24.3970   31.8180 N   0  0  0  0  0  0  0  0  0  0  0  0
   36.6450   25.6300   31.3200 C   0  0  0  0  0  0  0  0  0  0  0  0
   35.3400   25.6210   30.8010 C   0  0  0  0  0  0  0  0  0  0  0  0
   34.8220   24.3870   30.9980 N   0  0  0  0  0  0  0  0  0  0  0  0
   35.7610   23.6570   31.6130 C   0  0  0  0  0  0  0  0  0  0  0  0
   35.3840   22.2450   31.9250 C   0  0  0  0  0  0  0  0  0  0  0  0
   36.0370   21.2910   30.9250 C   0  0  0  0  0  0  0  0  0  0  0  0
   36.0490   19.9720   31.6700 C   0  0  0  0  0  0  0  0  0  0  0  0
   35.7620   20.2640   33.1190 C   0  0  0  0  0  0  0  0  0  0  0  0
   35.9810   21.7610   33.2050 C   0  0  0  0  0  0  0  0  0  0  0  0
   38.7121   22.5467   30.7429 H   0  0  0  0  0  0  0  0  0  0  0  0
   38.8192   21.6240   35.9850 H   0  0  0  0  0  0  0  0  0  0  0  0
   41.9492   24.1075   34.3407 H   0  0  0  0  0  0  0  0  0  0  0  0
   42.3596   22.3265   38.1922 H   0  0  0  0  0  0  0  0  0  0  0  0
   36.9998   24.3977   35.2609 H   0  0  0  0  0  0  0  0  0  0  0  0
   38.6706   27.3726   36.7230 H   0  0  0  0  0  0  0  0  0  0  0  0
   37.8969   25.8271   37.1650 H   0  0  0  0  0  0  0  0  0  0  0  0
   37.3431   26.4801   31.3207 H   0  0  0  0  0  0  0  0  0  0  0  0
   34.8293   26.4679   30.3194 H   0  0  0  0  0  0  0  0  0  0  0  0
   34.2840   22.2485   31.9308 H   0  0  0  0  0  0  0  0  0  0  0  0
   37.0589   21.6152   30.6787 H   0  0  0  0  0  0  0  0  0  0  0  0
   35.5054   21.2408   29.9633 H   0  0  0  0  0  0  0  0  0  0  0  0
   35.2763   19.3039   31.2620 H   0  0  0  0  0  0  0  0  0  0  0  0
   37.0252   19.4766   31.5621 H   0  0  0  0  0  0  0  0  0  0  0  0
   34.7269   19.9986   33.3800 H   0  0  0  0  0  0  0  0  0  0  0  0
   36.3920   19.6893   33.8139 H   0  0  0  0  0  0  0  0  0  0  0  0
   37.0523   22.0041   33.2617 H   0  0  0  0  0  0  0  0  0  0  0  0
   35.5354   22.2202   34.0997 H   0  0  0  0  0  0  0  0  0  0  0  0
  1  7  1  0
  2  1  1  0
  3  4  1  0
  3  2  2  0
  4  5  2  0
  5  1  1  0
  5 12  1  0
  6 11  2  0
  7  8  2  0
  7  6  1  0
  8  9  1  0
  9 10  2  0
 11 10  1  0
 12 13  1  0
 13 15  1  0
 14 16  1  0
 14 13  2  0
 17  4  1  0
 18 17  1  0
 19 20  1  0
 19 18  2  0
 20 21  2  0
 21 17  1  0
 21 22  1  0
 22 26  1  0
 23 24  1  0
 23 22  1  0
 24 25  1  0
 25 26  1  0
  3 27  1  0
  6 28  1  0
  8 29  1  0
 10 30  1  0
 12 31  1  0
 15 32  1  0
 15 33  1  0
 18 34  1  0
 19 35  1  0
 22 36  1  0
 23 37  1  0
 23 38  1  0
 24 39  1  0
 24 40  1  0
 25 41  1  0
 25 42  1  0
 26 43  1  0
 26 44  1  0
M  ISO  8  27  14  28  14  29  14  30  14  34  14  35  14  36  13  37  13
M  ISO  7  38  13  39  13  40  13  41  13  42  13  43  13  44  13
M  END
>  <minimizedAffinity>  (1) 
-4.82567739

>  <minimizedRMSD>  (1) 
1.94213879

$$$$
