
     RDKit          3D

 33 35  0  0  0  0  0  0  0  0999 V2000
   37.9180   21.8410   34.7270 C   0  0  0  0  0  0  0  0  0  0  0  0
   36.6710   21.4230   34.5020 C   0  0  0  0  0  0  0  0  0  0  0  0
   36.1490   20.8970   33.3830 C   0  0  0  0  0  0  0  0  0  0  0  0
   37.2220   20.8360   32.3570 C   0  0  0  0  0  0  0  0  0  0  0  0
   38.7930   21.5350   33.1360 S   0  0  0  0  0  0  0  0  0  0  0  0
   39.9470   22.7340   37.5630 C   0  0  0  0  0  0  0  0  0  0  0  0
   39.0210   23.3600   38.4330 C   0  0  0  0  0  0  0  0  0  0  0  0
   37.6970   23.4770   38.0460 C   0  0  0  0  0  0  0  0  0  0  0  0
   37.3310   22.9770   36.8220 N   0  0  0  0  0  0  0  0  0  0  0  0
   38.2500   22.3790   36.0080 C   0  0  0  0  0  0  0  0  0  0  0  0
   39.5320   22.2620   36.3760 N   0  0  0  0  0  0  0  0  0  0  0  0
   37.3950   20.4070   30.9690 C   0  0  0  0  0  0  0  0  0  0  0  0
   36.7130   19.1090   30.6520 C   0  0  0  0  0  0  0  0  0  0  0  0
   36.6130   19.0360   29.1400 C   0  0  0  0  0  0  0  0  0  0  0  0
   37.9190   19.2210   28.4430 C   0  0  0  0  0  0  0  0  0  0  0  0
   38.8080   20.2760   29.0150 C   0  0  0  0  0  0  0  0  0  0  0  0
   38.8300   20.2650   30.5380 C   0  0  0  0  0  0  0  0  0  0  0  0
   35.9762   21.5231   35.3489 H   0  0  0  0  0  0  0  0  0  0  0  0
   35.1079   20.5682   33.2488 H   0  0  0  0  0  0  0  0  0  0  0  0
   41.0020   22.6348   37.8584 H   0  0  0  0  0  0  0  0  0  0  0  0
   39.3509   23.7497   39.4073 H   0  0  0  0  0  0  0  0  0  0  0  0
   36.9576   23.9584   38.7029 H   0  0  0  0  0  0  0  0  0  0  0  0
   36.9247   21.2305   30.4116 H   0  0  0  0  0  0  0  0  0  0  0  0
   37.3048   18.2647   31.0354 H   0  0  0  0  0  0  0  0  0  0  0  0
   35.7192   19.0558   31.1205 H   0  0  0  0  0  0  0  0  0  0  0  0
   36.2096   18.0500   28.8658 H   0  0  0  0  0  0  0  0  0  0  0  0
   35.9587   19.8606   28.8209 H   0  0  0  0  0  0  0  0  0  0  0  0
   37.7101   19.4848   27.3957 H   0  0  0  0  0  0  0  0  0  0  0  0
   38.4618   18.2715   28.5606 H   0  0  0  0  0  0  0  0  0  0  0  0
   39.8315   20.1109   28.6472 H   0  0  0  0  0  0  0  0  0  0  0  0
   38.4130   21.2518   28.6958 H   0  0  0  0  0  0  0  0  0  0  0  0
   39.2494   19.3179   30.9083 H   0  0  0  0  0  0  0  0  0  0  0  0
   39.4559   21.0753   30.9401 H   0  0  0  0  0  0  0  0  0  0  0  0
  1 10  1  0
  2  1  2  0
  3  2  1  0
  4  5  1  0
  4  3  2  0
  5  1  1  0
  6  7  2  0
  8  7  1  0
  9  8  2  0
 10 11  2  0
 10  9  1  0
 11  6  1  0
 12  4  1  0
 13 12  1  0
 14 13  1  0
 15 16  1  0
 15 14  1  0
 16 17  1  0
 17 12  1  0
  2 18  1  0
  3 19  1  0
  6 20  1  0
  7 21  1  0
  8 22  1  0
 12 23  1  0
 13 24  1  0
 13 25  1  0
 14 26  1  0
 14 27  1  0
 15 28  1  0
 15 29  1  0
 16 30  1  0
 16 31  1  0
 17 32  1  0
 17 33  1  0
M  ISO  8  18  14  19  14  20  14  21  14  22  14  23  13  24  13  25  13
M  ISO  8  26  13  27  13  28  13  29  13  30  13  31  13  32  13  33  13
M  END
>  <minimizedAffinity>  (1) 
-4.45144176

>  <minimizedRMSD>  (1) 
1.26254332

$$$$
