
     RDKit          3D

 26 27  0  0  0  0  0  0  0  0999 V2000
   37.4350   21.9520   35.3550 C   0  0  0  0  0  0  0  0  0  0  0  0
   36.3510   21.2020   35.5410 C   0  0  0  0  0  0  0  0  0  0  0  0
   35.5970   20.5700   34.6390 C   0  0  0  0  0  0  0  0  0  0  0  0
   36.1780   20.8340   33.2930 C   0  0  0  0  0  0  0  0  0  0  0  0
   37.6980   21.9400   33.5560 S   0  0  0  0  0  0  0  0  0  0  0  0
   40.0310   22.7620   37.7300 C   0  0  0  0  0  0  0  0  0  0  0  0
   39.3980   23.6090   38.6400 C   0  0  0  0  0  0  0  0  0  0  0  0
   38.0510   23.9200   38.4500 C   0  0  0  0  0  0  0  0  0  0  0  0
   37.4130   23.3690   37.3640 N   0  0  0  0  0  0  0  0  0  0  0  0
   38.0710   22.5430   36.4960 C   0  0  0  0  0  0  0  0  0  0  0  0
   39.3620   22.2490   36.6840 N   0  0  0  0  0  0  0  0  0  0  0  0
   35.8560   20.4500   31.8750 C   0  0  0  0  0  0  0  0  0  0  0  0
   34.5930   19.5860   31.8740 C   0  0  0  0  0  0  0  0  0  0  0  0
   35.5260   21.6790   31.0410 C   0  0  0  0  0  0  0  0  0  0  0  0
   36.0311   21.0867   36.5871 H   0  0  0  0  0  0  0  0  0  0  0  0
   34.7052   19.9623   34.8518 H   0  0  0  0  0  0  0  0  0  0  0  0
   41.0926   22.5107   37.8709 H   0  0  0  0  0  0  0  0  0  0  0  0
   39.9522   24.0253   39.4942 H   0  0  0  0  0  0  0  0  0  0  0  0
   37.5174   24.5839   39.1460 H   0  0  0  0  0  0  0  0  0  0  0  0
   36.7287   19.9247   31.4597 H   0  0  0  0  0  0  0  0  0  0  0  0
   34.2898   19.3786   32.9109 H   0  0  0  0  0  0  0  0  0  0  0  0
   33.7835   20.1205   31.3552 H   0  0  0  0  0  0  0  0  0  0  0  0
   34.7978   18.6379   31.3552 H   0  0  0  0  0  0  0  0  0  0  0  0
   35.2991   22.5242   31.7074 H   0  0  0  0  0  0  0  0  0  0  0  0
   36.3876   21.9336   30.4063 H   0  0  0  0  0  0  0  0  0  0  0  0
   34.6528   21.4678   30.4063 H   0  0  0  0  0  0  0  0  0  0  0  0
  1  2  2  0
  1 10  1  0
  3  2  1  0
  4  5  1  0
  4  3  2  0
  5  1  1  0
  6  7  2  0
  8  7  1  0
  9  8  2  0
 10 11  2  0
 10  9  1  0
 11  6  1  0
 12  4  1  0
 13 12  1  0
 14 12  1  0
  2 15  1  0
  3 16  1  0
  6 17  1  0
  7 18  1  0
  8 19  1  0
 12 20  1  0
 13 21  1  0
 13 22  1  0
 13 23  1  0
 14 24  1  0
 14 25  1  0
 14 26  1  0
M  ISO  8  15  14  16  14  17  14  18  14  19  14  20   8  21   8  22   8
M  ISO  4  23   8  24   8  25   8  26   8
M  END
>  <minimizedAffinity>  (1) 
-4.36302185

>  <minimizedRMSD>  (1) 
0.445987403

$$$$
