
     RDKit          3D

 24 26  0  0  0  0  0  0  0  0999 V2000
   37.8450   21.8700   34.9470 C   0  0  0  0  0  0  0  0  0  0  0  0
   36.6100   21.3890   34.8090 C   0  0  0  0  0  0  0  0  0  0  0  0
   36.0460   20.8040   33.7480 C   0  0  0  0  0  0  0  0  0  0  0  0
   37.0630   20.7590   32.6610 C   0  0  0  0  0  0  0  0  0  0  0  0
   38.6460   21.5580   33.3350 S   0  0  0  0  0  0  0  0  0  0  0  0
   39.9260   22.7980   37.7460 C   0  0  0  0  0  0  0  0  0  0  0  0
   39.0470   23.5550   38.5570 C   0  0  0  0  0  0  0  0  0  0  0  0
   37.7190   23.7600   38.1510 C   0  0  0  0  0  0  0  0  0  0  0  0
   37.3550   23.1980   36.9680 N   0  0  0  0  0  0  0  0  0  0  0  0
   38.2170   22.4710   36.2000 C   0  0  0  0  0  0  0  0  0  0  0  0
   39.4750   22.2830   36.5960 N   0  0  0  0  0  0  0  0  0  0  0  0
   37.1420   20.2890   31.3080 N   0  0  0  0  0  0  0  0  0  0  0  0
   36.1790   19.4760   30.8380 C   0  0  0  0  0  0  0  0  0  0  0  0
   36.5310   19.2040   29.5340 C   0  0  0  0  0  0  0  0  0  0  0  0
   37.6790   19.8690   29.3060 N   0  0  0  0  0  0  0  0  0  0  0  0
   38.0810   20.5480   30.3830 C   0  0  0  0  0  0  0  0  0  0  0  0
   35.9633   21.4873   35.6934 H   0  0  0  0  0  0  0  0  0  0  0  0
   35.0155   20.4239   33.6883 H   0  0  0  0  0  0  0  0  0  0  0  0
   40.9683   22.6348   38.0575 H   0  0  0  0  0  0  0  0  0  0  0  0
   39.4045   23.9826   39.5053 H   0  0  0  0  0  0  0  0  0  0  0  0
   37.0110   24.3440   38.7575 H   0  0  0  0  0  0  0  0  0  0  0  0
   35.2964   19.1062   31.3804 H   0  0  0  0  0  0  0  0  0  0  0  0
   35.9832   18.5699   28.8214 H   0  0  0  0  0  0  0  0  0  0  0  0
   38.9774   21.1767   30.4888 H   0  0  0  0  0  0  0  0  0  0  0  0
  1 10  1  0
  2  1  2  0
  3  2  1  0
  4  5  1  0
  4  3  2  0
  5  1  1  0
  6  7  2  0
  8  7  1  0
  9  8  2  0
 10 11  2  0
 10  9  1  0
 11  6  1  0
 12  4  1  0
 13 12  1  0
 14 13  2  0
 15 14  1  0
 15 16  2  0
 16 12  1  0
  2 17  1  0
  3 18  1  0
  6 19  1  0
  7 20  1  0
  8 21  1  0
 13 22  1  0
 14 23  1  0
 16 24  1  0
M  ISO  8  17  14  18  14  19  14  20  14  21  14  22  14  23  14  24  14
M  END
>  <minimizedAffinity>  (1) 
-4.15345526

>  <minimizedRMSD>  (1) 
1.10198998

$$$$
