
     RDKit          3D

 38 39  0  0  0  0  0  0  0  0999 V2000
   38.2270   23.6430   36.9810 C   0  0  0  0  0  0  0  0  0  0  0  0
   41.5870   21.9600   37.0210 C   0  0  0  0  0  0  0  0  0  0  0  0
   40.2540   22.2210   37.3440 C   0  0  0  0  0  0  0  0  0  0  0  0
   39.6120   23.3040   36.7010 C   0  0  0  0  0  0  0  0  0  0  0  0
   40.3120   24.0330   35.8100 N   0  0  0  0  0  0  0  0  0  0  0  0
   41.6000   23.7500   35.5240 C   0  0  0  0  0  0  0  0  0  0  0  0
   42.2430   22.7300   36.1140 N   0  0  0  0  0  0  0  0  0  0  0  0
   42.2030   20.7940   37.7440 C   0  0  0  0  0  0  0  0  0  0  0  0
   43.0700   19.9870   36.8280 C   0  0  0  0  0  0  0  0  0  0  0  0
   38.1550   24.2900   38.3440 C   0  0  0  0  0  0  0  0  0  0  0  0
   37.5920   24.5370   35.9460 C   0  0  0  0  0  0  0  0  0  0  0  0
   37.3870   22.3670   37.0250 C   0  0  0  0  0  0  0  0  0  0  0  0
   37.0780   21.8390   35.6940 C   0  0  0  0  0  0  0  0  0  0  0  0
   35.9190   21.0910   35.5780 C   0  0  0  0  0  0  0  0  0  0  0  0
   35.5490   20.5540   34.3570 C   0  0  0  0  0  0  0  0  0  0  0  0
   36.3780   20.7860   33.2540 C   0  0  0  0  0  0  0  0  0  0  0  0
   37.5530   21.5350   33.3320 C   0  0  0  0  0  0  0  0  0  0  0  0
   37.8640   22.0420   34.5790 C   0  0  0  0  0  0  0  0  0  0  0  0
   39.7183   21.6013   38.0782 H   0  0  0  0  0  0  0  0  0  0  0  0
   42.1358   24.3698   34.7900 H   0  0  0  0  0  0  0  0  0  0  0  0
   42.8141   21.1706   38.5775 H   0  0  0  0  0  0  0  0  0  0  0  0
   41.3944   20.1485   38.1174 H   0  0  0  0  0  0  0  0  0  0  0  0
   43.7467   19.3571   37.4241 H   0  0  0  0  0  0  0  0  0  0  0  0
   42.4382   19.3481   36.1935 H   0  0  0  0  0  0  0  0  0  0  0  0
   43.6620   20.6629   36.1935 H   0  0  0  0  0  0  0  0  0  0  0  0
   38.2410   23.5170   39.1218 H   0  0  0  0  0  0  0  0  0  0  0  0
   38.9784   25.0114   38.4514 H   0  0  0  0  0  0  0  0  0  0  0  0
   37.1931   24.8128   38.4514 H   0  0  0  0  0  0  0  0  0  0  0  0
   37.0254   25.3347   36.4485 H   0  0  0  0  0  0  0  0  0  0  0  0
   38.3759   24.9843   35.3172 H   0  0  0  0  0  0  0  0  0  0  0  0
   36.9115   23.9441   35.3172 H   0  0  0  0  0  0  0  0  0  0  0  0
   37.9425   21.6008   37.5858 H   0  0  0  0  0  0  0  0  0  0  0  0
   36.4318   22.6184   37.5092 H   0  0  0  0  0  0  0  0  0  0  0  0
   35.2874   20.9221   36.4626 H   0  0  0  0  0  0  0  0  0  0  0  0
   34.6281   19.9609   34.2566 H   0  0  0  0  0  0  0  0  0  0  0  0
   36.0908   20.3589   32.2818 H   0  0  0  0  0  0  0  0  0  0  0  0
   38.1924   21.7109   32.4544 H   0  0  0  0  0  0  0  0  0  0  0  0
   38.7831   22.6364   34.6879 H   0  0  0  0  0  0  0  0  0  0  0  0
  1 12  1  0
  1 10  1  0
  2  3  2  0
  2  8  1  0
  4  1  1  0
  4  3  1  0
  5  4  2  0
  6  5  1  0
  6  7  2  0
  7  2  1  0
  9  8  1  0
 11  1  1  0
 13 12  1  0
 14 13  2  0
 15 14  1  0
 16 17  1  0
 16 15  2  0
 17 18  2  0
 18 13  1  0
  3 19  1  0
  6 20  1  0
  8 21  1  0
  8 22  1  0
  9 23  1  0
  9 24  1  0
  9 25  1  0
 10 26  1  0
 10 27  1  0
 10 28  1  0
 11 29  1  0
 11 30  1  0
 11 31  1  0
 12 32  1  0
 12 33  1  0
 14 34  1  0
 15 35  1  0
 16 36  1  0
 17 37  1  0
 18 38  1  0
M  ISO  8  19  14  20  14  21   8  22   8  23   8  24   8  25   8  26   8
M  ISO  8  27   8  28   8  29   8  30   8  31   8  32   8  33   8  34  14
M  ISO  4  35  14  36  14  37  14  38  14
M  END
>  <minimizedAffinity>  (1) 
-4.40865135

>  <minimizedRMSD>  (1) 
1.08252776

$$$$
