
     RDKit          3D

 18 19  0  0  0  0  0  0  0  0999 V2000
   39.9420   22.7200   37.5350 C   0  0  0  0  0  0  0  0  0  0  0  0
   39.2190   23.4220   38.4970 C   0  0  0  0  0  0  0  0  0  0  0  0
   37.8610   23.6130   38.3120 C   0  0  0  0  0  0  0  0  0  0  0  0
   37.2690   23.1000   37.1810 N   0  0  0  0  0  0  0  0  0  0  0  0
   38.0110   22.4160   36.2590 C   0  0  0  0  0  0  0  0  0  0  0  0
   39.3170   22.2430   36.4540 N   0  0  0  0  0  0  0  0  0  0  0  0
   37.4530   21.8690   35.0670 C   0  0  0  0  0  0  0  0  0  0  0  0
   36.3310   21.1600   35.1360 C   0  0  0  0  0  0  0  0  0  0  0  0
   35.6130   20.5610   34.1960 C   0  0  0  0  0  0  0  0  0  0  0  0
   36.3040   20.8110   32.9070 C   0  0  0  0  0  0  0  0  0  0  0  0
   37.8450   21.8570   33.2950 S   0  0  0  0  0  0  0  0  0  0  0  0
   35.9920   20.3340   31.0570 S   0  0  0  0  0  0  0  0  0  0  0  0
   41.0224   22.5590   37.6645 H   0  0  0  0  0  0  0  0  0  0  0  0
   39.7209   23.8191   39.3916 H   0  0  0  0  0  0  0  0  0  0  0  0
   37.2662   24.1645   39.0550 H   0  0  0  0  0  0  0  0  0  0  0  0
   35.9264   21.0508   36.1530 H   0  0  0  0  0  0  0  0  0  0  0  0
   34.6848   19.9894   34.3432 H   0  0  0  0  0  0  0  0  0  0  0  0
   35.2427   19.1884   31.0009 H   0  0  0  0  0  0  0  0  0  0  0  0
  1  2  2  0
  3  2  1  0
  4  3  2  0
  5  6  2  0
  5  4  1  0
  6  1  1  0
  7  8  2  0
  7  5  1  0
  9  8  1  0
 10 11  1  0
 10  9  2  0
 11  7  1  0
 12 10  1  0
  1 13  1  0
  2 14  1  0
  3 15  1  0
  8 16  1  0
  9 17  1  0
 12 18  1  0
M  ISO  6  13  14  14  14  15  14  16  14  17  14  18  11
M  END
>  <minimizedAffinity>  (1) 
-3.91660333

>  <minimizedRMSD>  (1) 
0.121933341

$$$$
