
     RDKit          3D

 35 38  0  0  0  0  0  0  0  0999 V2000
   38.0330   20.6930   30.8750 N   0  0  0  0  0  0  0  0  0  0  0  0
   38.8790   21.4900   29.9580 C   0  0  0  0  0  0  0  0  0  0  0  0
   39.5200   20.4420   29.1090 C   0  0  0  0  0  0  0  0  0  0  0  0
   38.4580   19.9570   28.3190 O   0  0  0  0  0  0  0  0  0  0  0  0
   37.6340   19.1260   29.0760 C   0  0  0  0  0  0  0  0  0  0  0  0
   37.3730   19.4700   30.5130 C   0  0  0  0  0  0  0  0  0  0  0  0
   38.2880   22.0420   34.6800 C   0  0  0  0  0  0  0  0  0  0  0  0
   37.0330   21.7690   34.3140 C   0  0  0  0  0  0  0  0  0  0  0  0
   36.6650   21.3290   33.1550 C   0  0  0  0  0  0  0  0  0  0  0  0
   37.8110   21.1520   32.2510 C   0  0  0  0  0  0  0  0  0  0  0  0
   39.3180   21.6640   33.2170 S   0  0  0  0  0  0  0  0  0  0  0  0
   40.0760   22.6630   37.7490 C   0  0  0  0  0  0  0  0  0  0  0  0
   39.1370   23.2750   38.5720 C   0  0  0  0  0  0  0  0  0  0  0  0
   37.8770   23.4950   38.0900 C   0  0  0  0  0  0  0  0  0  0  0  0
   37.6040   23.0960   36.8110 N   0  0  0  0  0  0  0  0  0  0  0  0
   38.5350   22.5000   36.0280 C   0  0  0  0  0  0  0  0  0  0  0  0
   39.7670   22.2870   36.4970 N   0  0  0  0  0  0  0  0  0  0  0  0
   36.5910   18.5200   31.2390 C   0  0  0  0  0  0  0  0  0  0  0  0
   36.6660   17.3600   31.9610 C   0  0  0  0  0  0  0  0  0  0  0  0
   35.5200   16.9420   32.5660 C   0  0  0  0  0  0  0  0  0  0  0  0
   34.6800   17.9110   32.1900 N   0  0  0  0  0  0  0  0  0  0  0  0
   35.2950   18.7850   31.4470 N   0  0  0  0  0  0  0  0  0  0  0  0
   38.2693   22.1748   29.3502 H   0  0  0  0  0  0  0  0  0  0  0  0
   39.6035   22.1325   30.4799 H   0  0  0  0  0  0  0  0  0  0  0  0
   40.3106   20.8764   28.4796 H   0  0  0  0  0  0  0  0  0  0  0  0
   40.0065   19.6526   29.7007 H   0  0  0  0  0  0  0  0  0  0  0  0
   37.1812   18.2302   28.6261 H   0  0  0  0  0  0  0  0  0  0  0  0
   36.2442   21.9325   35.0631 H   0  0  0  0  0  0  0  0  0  0  0  0
   35.6222   21.1135   32.8792 H   0  0  0  0  0  0  0  0  0  0  0  0
   41.0919   22.4832   38.1307 H   0  0  0  0  0  0  0  0  0  0  0  0
   39.4041   23.5775   39.5953 H   0  0  0  0  0  0  0  0  0  0  0  0
   37.1077   23.9773   38.7109 H   0  0  0  0  0  0  0  0  0  0  0  0
   37.6049   16.7936   32.0483 H   0  0  0  0  0  0  0  0  0  0  0  0
   35.3368   16.0547   33.1899 H   0  0  0  0  0  0  0  0  0  0  0  0
   33.6850   17.9594   32.4516 H   0  0  0  0  0  0  0  0  0  0  0  0
  1 10  1  0
  2  1  1  0
  3  2  1  0
  4  5  1  0
  4  3  1  0
  5  6  2  0
  6  1  1  0
  6 18  1  0
  7 16  1  0
  8  7  2  0
  9  8  1  0
 10  9  2  0
 10 11  1  0
 11  7  1  0
 12 13  2  0
 14 13  1  0
 15 14  2  0
 16 17  2  0
 16 15  1  0
 17 12  1  0
 18 22  2  0
 18 19  1  0
 19 20  2  0
 21 20  1  0
 22 21  1  0
  2 23  1  0
  2 24  1  0
  3 25  1  0
  3 26  1  0
  5 27  1  0
  8 28  1  0
  9 29  1  0
 12 30  1  0
 13 31  1  0
 14 32  1  0
 19 33  1  0
 20 34  1  0
 21 35  1  0
M  ISO  8  23  13  24  13  25  13  26  13  27  13  28  14  29  14  30  14
M  ISO  5  31  14  32  14  33  14  34  14  35   9
M  END
>  <minimizedAffinity>  (1) 
-4.96375132

>  <minimizedRMSD>  (1) 
0.738252223

$$$$
