
     RDKit          3D

 42 45  0  0  0  0  0  0  0  0999 V2000
   38.6150   21.7680   30.5220 N   0  0  0  0  0  0  0  0  0  0  0  0
   39.5200   22.3120   29.5360 C   0  0  0  0  0  0  0  0  0  0  0  0
   40.1590   21.1020   28.8890 C   0  0  0  0  0  0  0  0  0  0  0  0
   39.1490   20.4500   28.2160 O   0  0  0  0  0  0  0  0  0  0  0  0
   38.1620   19.9020   29.0140 C   0  0  0  0  0  0  0  0  0  0  0  0
   37.8530   20.6050   30.2850 C   0  0  0  0  0  0  0  0  0  0  0  0
   38.6230   22.8210   34.4250 C   0  0  0  0  0  0  0  0  0  0  0  0
   37.8860   23.6560   33.6640 C   0  0  0  0  0  0  0  0  0  0  0  0
   37.7080   23.5540   32.3900 C   0  0  0  0  0  0  0  0  0  0  0  0
   38.4230   22.3870   31.8400 C   0  0  0  0  0  0  0  0  0  0  0  0
   39.2790   21.5760   33.2790 S   0  0  0  0  0  0  0  0  0  0  0  0
   39.9030   22.7330   37.7990 C   0  0  0  0  0  0  0  0  0  0  0  0
   38.9170   23.4370   38.5340 C   0  0  0  0  0  0  0  0  0  0  0  0
   37.8140   23.9550   37.8860 C   0  0  0  0  0  0  0  0  0  0  0  0
   37.7420   23.7470   36.5410 N   0  0  0  0  0  0  0  0  0  0  0  0
   38.6950   23.0710   35.8540 C   0  0  0  0  0  0  0  0  0  0  0  0
   39.7770   22.5610   36.4700 N   0  0  0  0  0  0  0  0  0  0  0  0
   36.8490   19.9740   31.0550 N   0  0  0  0  0  0  0  0  0  0  0  0
   35.6600   20.8030   31.0240 C   0  0  0  0  0  0  0  0  0  0  0  0
   34.6370   20.2750   32.0340 C   0  0  0  0  0  0  0  0  0  0  0  0
   35.2900   19.4750   33.0500 N   0  0  0  0  0  0  0  0  0  0  0  0
   35.9280   18.3140   32.5190 C   0  0  0  0  0  0  0  0  0  0  0  0
   37.1130   18.6750   31.6920 C   0  0  0  0  0  0  0  0  0  0  0  0
   38.9700   22.9050   28.7905 H   0  0  0  0  0  0  0  0  0  0  0  0
   40.2654   22.9860   29.9834 H   0  0  0  0  0  0  0  0  0  0  0  0
   40.9454   21.4154   28.1866 H   0  0  0  0  0  0  0  0  0  0  0  0
   40.6302   20.4481   29.6376 H   0  0  0  0  0  0  0  0  0  0  0  0
   37.6291   18.9856   28.7204 H   0  0  0  0  0  0  0  0  0  0  0  0
   37.3938   24.4973   34.1739 H   0  0  0  0  0  0  0  0  0  0  0  0
   37.1008   24.2485   31.7908 H   0  0  0  0  0  0  0  0  0  0  0  0
   40.7806   22.3228   38.3201 H   0  0  0  0  0  0  0  0  0  0  0  0
   39.0306   23.5705   39.6199 H   0  0  0  0  0  0  0  0  0  0  0  0
   37.0324   24.5078   38.4278 H   0  0  0  0  0  0  0  0  0  0  0  0
   35.9288   21.8378   31.2826 H   0  0  0  0  0  0  0  0  0  0  0  0
   35.2232   20.7763   30.0148 H   0  0  0  0  0  0  0  0  0  0  0  0
   34.1304   21.1254   32.5137 H   0  0  0  0  0  0  0  0  0  0  0  0
   33.9062   19.6470   31.5034 H   0  0  0  0  0  0  0  0  0  0  0  0
   36.0006   20.0551   33.5184 H   0  0  0  0  0  0  0  0  0  0  0  0
   36.2543   17.6728   33.3511 H   0  0  0  0  0  0  0  0  0  0  0  0
   35.2069   17.7854   31.8782 H   0  0  0  0  0  0  0  0  0  0  0  0
   37.2765   17.9081   30.9205 H   0  0  0  0  0  0  0  0  0  0  0  0
   38.0124   18.7362   32.3223 H   0  0  0  0  0  0  0  0  0  0  0  0
  1 10  1  0
  2  1  1  0
  3  2  1  0
  4  3  1  0
  4  5  1  0
  5  6  2  0
  6  1  1  0
  6 18  1  0
  7 16  1  0
  8  7  2  0
  9  8  1  0
 10  9  2  0
 10 11  1  0
 11  7  1  0
 12 13  2  0
 14 13  1  0
 15 14  2  0
 16 17  2  0
 16 15  1  0
 17 12  1  0
 18 23  1  0
 19 18  1  0
 19 20  1  0
 20 21  1  0
 22 21  1  0
 23 22  1  0
  2 24  1  0
  2 25  1  0
  3 26  1  0
  3 27  1  0
  5 28  1  0
  8 29  1  0
  9 30  1  0
 12 31  1  0
 13 32  1  0
 14 33  1  0
 19 34  1  0
 19 35  1  0
 20 36  1  0
 20 37  1  0
 21 38  1  0
 22 39  1  0
 22 40  1  0
 23 41  1  0
 23 42  1  0
M  ISO  8  24  13  25  13  26  13  27  13  28  13  29  14  30  14  31  14
M  ISO  8  32  14  33  14  34  13  35  13  36  13  37  13  38   5  39  13
M  ISO  3  40  13  41  13  42  13
M  END
>  <minimizedAffinity>  (1) 
-4.68200588

>  <minimizedRMSD>  (1) 
1.83886635

$$$$
