
     RDKit          3D

 43 46  0  0  0  0  0  0  0  0999 V2000
   38.6390   21.6210   30.6940 N   0  0  0  0  0  0  0  0  0  0  0  0
   39.7240   21.9450   29.7920 C   0  0  0  0  0  0  0  0  0  0  0  0
   40.1480   20.6030   29.2360 C   0  0  0  0  0  0  0  0  0  0  0  0
   39.0970   20.1580   28.4640 O   0  0  0  0  0  0  0  0  0  0  0  0
   37.9500   19.8360   29.1730 C   0  0  0  0  0  0  0  0  0  0  0  0
   37.6680   20.6150   30.4020 C   0  0  0  0  0  0  0  0  0  0  0  0
   38.6080   22.8080   34.5600 C   0  0  0  0  0  0  0  0  0  0  0  0
   37.9360   23.6440   33.7610 C   0  0  0  0  0  0  0  0  0  0  0  0
   37.7850   23.5030   32.4890 C   0  0  0  0  0  0  0  0  0  0  0  0
   38.4470   22.2950   31.9790 C   0  0  0  0  0  0  0  0  0  0  0  0
   39.2260   21.4960   33.4640 S   0  0  0  0  0  0  0  0  0  0  0  0
   39.8780   22.8270   37.9410 C   0  0  0  0  0  0  0  0  0  0  0  0
   38.8870   23.5420   38.6540 C   0  0  0  0  0  0  0  0  0  0  0  0
   37.7860   24.0250   37.9910 C   0  0  0  0  0  0  0  0  0  0  0  0
   37.6920   23.7890   36.6400 N   0  0  0  0  0  0  0  0  0  0  0  0
   38.6750   23.0900   35.9800 C   0  0  0  0  0  0  0  0  0  0  0  0
   39.7480   22.6180   36.6190 N   0  0  0  0  0  0  0  0  0  0  0  0
   36.5010   20.2120   31.0890 N   0  0  0  0  0  0  0  0  0  0  0  0
   35.1500   20.8030   31.1410 C   0  0  0  0  0  0  0  0  0  0  0  0
   35.0550   21.5260   32.4810 C   0  0  0  0  0  0  0  0  0  0  0  0
   35.6680   20.6630   33.5730 C   0  0  0  0  0  0  0  0  0  0  0  0
   35.7120   19.2260   33.1280 C   0  0  0  0  0  0  0  0  0  0  0  0
   36.6210   19.0170   31.9320 C   0  0  0  0  0  0  0  0  0  0  0  0
   39.3784   22.6106   28.9872 H   0  0  0  0  0  0  0  0  0  0  0  0
   40.5472   22.4763   30.2921 H   0  0  0  0  0  0  0  0  0  0  0  0
   41.0531   20.7138   28.6208 H   0  0  0  0  0  0  0  0  0  0  0  0
   40.3837   19.8916   30.0412 H   0  0  0  0  0  0  0  0  0  0  0  0
   37.2760   19.0343   28.8368 H   0  0  0  0  0  0  0  0  0  0  0  0
   37.4735   24.5257   34.2288 H   0  0  0  0  0  0  0  0  0  0  0  0
   37.2241   24.2072   31.8570 H   0  0  0  0  0  0  0  0  0  0  0  0
   40.7604   22.4396   38.4714 H   0  0  0  0  0  0  0  0  0  0  0  0
   38.9982   23.7103   39.7354 H   0  0  0  0  0  0  0  0  0  0  0  0
   37.0030   24.5838   38.5246 H   0  0  0  0  0  0  0  0  0  0  0  0
   35.0124   21.5141   30.3131 H   0  0  0  0  0  0  0  0  0  0  0  0
   34.3707   20.0327   31.0442 H   0  0  0  0  0  0  0  0  0  0  0  0
   35.5984   22.4805   32.4209 H   0  0  0  0  0  0  0  0  0  0  0  0
   33.9980   21.7173   32.7179 H   0  0  0  0  0  0  0  0  0  0  0  0
   36.6903   21.0113   33.7820 H   0  0  0  0  0  0  0  0  0  0  0  0
   35.0545   20.7412   34.4827 H   0  0  0  0  0  0  0  0  0  0  0  0
   36.0785   18.6093   33.9619 H   0  0  0  0  0  0  0  0  0  0  0  0
   34.6937   18.9369   32.8290 H   0  0  0  0  0  0  0  0  0  0  0  0
   36.3071   18.1250   31.3700 H   0  0  0  0  0  0  0  0  0  0  0  0
   37.6624   18.8648   32.2518 H   0  0  0  0  0  0  0  0  0  0  0  0
  1 10  1  0
  2  1  1  0
  3  2  1  0
  4  5  1  0
  4  3  1  0
  5  6  2  0
  6  1  1  0
  6 18  1  0
  7 16  1  0
  8  7  2  0
  9  8  1  0
 10  9  2  0
 10 11  1  0
 11  7  1  0
 12 13  2  0
 14 13  1  0
 15 14  2  0
 16 17  2  0
 16 15  1  0
 17 12  1  0
 18 19  1  0
 18 23  1  0
 19 20  1  0
 20 21  1  0
 22 21  1  0
 23 22  1  0
  2 24  1  0
  2 25  1  0
  3 26  1  0
  3 27  1  0
  5 28  1  0
  8 29  1  0
  9 30  1  0
 12 31  1  0
 13 32  1  0
 14 33  1  0
 19 34  1  0
 19 35  1  0
 20 36  1  0
 20 37  1  0
 21 38  1  0
 21 39  1  0
 22 40  1  0
 22 41  1  0
 23 42  1  0
 23 43  1  0
M  ISO  8  24  13  25  13  26  13  27  13  28  13  29  14  30  14  31  14
M  ISO  8  32  14  33  14  34  13  35  13  36  13  37  13  38  13  39  13
M  ISO  4  40  13  41  13  42  13  43  13
M  END
>  <minimizedAffinity>  (1) 
-4.83813429

>  <minimizedRMSD>  (1) 
1.66675723

$$$$
