
     RDKit          3D

 31 33  0  0  0  0  0  0  0  0999 V2000
   37.8710   21.8600   34.9210 C   0  0  0  0  0  0  0  0  0  0  0  0
   36.6300   21.4370   34.7340 C   0  0  0  0  0  0  0  0  0  0  0  0
   36.1260   20.9080   33.6390 C   0  0  0  0  0  0  0  0  0  0  0  0
   37.1480   20.8340   32.5900 C   0  0  0  0  0  0  0  0  0  0  0  0
   38.7080   21.5460   33.3390 S   0  0  0  0  0  0  0  0  0  0  0  0
   37.2250   20.3760   31.2030 N   0  0  0  0  0  0  0  0  0  0  0  0
   37.8670   21.1780   30.1790 C   0  0  0  0  0  0  0  0  0  0  0  0
   38.5530   20.1630   29.2960 C   0  0  0  0  0  0  0  0  0  0  0  0
   37.5350   19.4590   28.6810 O   0  0  0  0  0  0  0  0  0  0  0  0
   36.8230   18.6400   29.5460 C   0  0  0  0  0  0  0  0  0  0  0  0
   36.6290   19.1040   30.9540 C   0  0  0  0  0  0  0  0  0  0  0  0
   35.9030   18.1670   31.7980 C   0  0  0  0  0  0  0  0  0  0  0  0
   36.7350   17.7020   32.8070 F   0  0  0  0  0  0  0  0  0  0  0  0
   34.6460   18.5140   32.1820 F   0  0  0  0  0  0  0  0  0  0  0  0
   35.6680   16.9510   31.0690 F   0  0  0  0  0  0  0  0  0  0  0  0
   39.9040   22.7970   37.7590 C   0  0  0  0  0  0  0  0  0  0  0  0
   39.0280   23.5290   38.5590 C   0  0  0  0  0  0  0  0  0  0  0  0
   37.7330   23.7130   38.1510 C   0  0  0  0  0  0  0  0  0  0  0  0
   37.3770   23.1520   36.9570 N   0  0  0  0  0  0  0  0  0  0  0  0
   38.2390   22.4440   36.1880 C   0  0  0  0  0  0  0  0  0  0  0  0
   39.4920   22.2710   36.5930 N   0  0  0  0  0  0  0  0  0  0  0  0
   35.9445   21.5390   35.5882 H   0  0  0  0  0  0  0  0  0  0  0  0
   35.0855   20.5694   33.5268 H   0  0  0  0  0  0  0  0  0  0  0  0
   37.1225   21.7527   29.6086 H   0  0  0  0  0  0  0  0  0  0  0  0
   38.5666   21.9169   30.5969 H   0  0  0  0  0  0  0  0  0  0  0  0
   39.1792   20.6675   28.5454 H   0  0  0  0  0  0  0  0  0  0  0  0
   39.2149   19.5012   29.8738 H   0  0  0  0  0  0  0  0  0  0  0  0
   36.4133   17.6775   29.2057 H   0  0  0  0  0  0  0  0  0  0  0  0
   40.9438   22.6483   38.0857 H   0  0  0  0  0  0  0  0  0  0  0  0
   39.3742   23.9562   39.5117 H   0  0  0  0  0  0  0  0  0  0  0  0
   37.0141   24.2851   38.7559 H   0  0  0  0  0  0  0  0  0  0  0  0
  1 20  1  0
  2  1  2  0
  3  2  1  0
  4  5  1  0
  4  3  2  0
  5  1  1  0
  6  4  1  0
  7  6  1  0
  8  7  1  0
  9  8  1  0
  9 10  1  0
 10 11  2  0
 11  6  1  0
 11 12  1  0
 12 14  1  0
 12 13  1  0
 15 12  1  0
 16 17  2  0
 18 17  1  0
 19 18  2  0
 20 21  2  0
 20 19  1  0
 21 16  1  0
  2 22  1  0
  3 23  1  0
  7 24  1  0
  7 25  1  0
  8 26  1  0
  8 27  1  0
 10 28  1  0
 16 29  1  0
 17 30  1  0
 18 31  1  0
M  ISO  8  22  14  23  14  24  13  25  13  26  13  27  13  28  13  29  14
M  ISO  2  30  14  31  14
M  END
>  <minimizedAffinity>  (1) 
-4.53944635

>  <minimizedRMSD>  (1) 
0.482813448

$$$$
