
     RDKit          3D

 36 39  0  0  0  0  0  0  0  0999 V2000
   38.4690   21.2700   30.3610 N   0  0  0  0  0  0  0  0  0  0  0  0
   39.4170   21.9090   29.4210 C   0  0  0  0  0  0  0  0  0  0  0  0
   39.9890   20.7450   28.6910 C   0  0  0  0  0  0  0  0  0  0  0  0
   38.9300   20.2510   27.9110 O   0  0  0  0  0  0  0  0  0  0  0  0
   38.0050   19.5680   28.7090 C   0  0  0  0  0  0  0  0  0  0  0  0
   37.7190   20.0730   30.0810 C   0  0  0  0  0  0  0  0  0  0  0  0
   38.4910   22.3500   34.2660 C   0  0  0  0  0  0  0  0  0  0  0  0
   37.5610   22.9670   33.5550 C   0  0  0  0  0  0  0  0  0  0  0  0
   37.2980   22.8380   32.2650 C   0  0  0  0  0  0  0  0  0  0  0  0
   38.2220   21.8570   31.6770 C   0  0  0  0  0  0  0  0  0  0  0  0
   39.3440   21.2640   33.0720 S   0  0  0  0  0  0  0  0  0  0  0  0
   40.0110   22.6310   37.5220 C   0  0  0  0  0  0  0  0  0  0  0  0
   39.0450   23.2640   38.2930 C   0  0  0  0  0  0  0  0  0  0  0  0
   37.8500   23.6010   37.7150 C   0  0  0  0  0  0  0  0  0  0  0  0
   37.6930   23.2850   36.4000 N   0  0  0  0  0  0  0  0  0  0  0  0
   38.6380   22.6700   35.6590 C   0  0  0  0  0  0  0  0  0  0  0  0
   39.7870   22.3500   36.2270 N   0  0  0  0  0  0  0  0  0  0  0  0
   36.8410   19.2990   30.8760 C   0  0  0  0  0  0  0  0  0  0  0  0
   37.2340   18.0880   31.3500 C   0  0  0  0  0  0  0  0  0  0  0  0
   36.4690   17.3400   32.2090 C   0  0  0  0  0  0  0  0  0  0  0  0
   35.2610   17.7840   32.6330 N   0  0  0  0  0  0  0  0  0  0  0  0
   34.8760   18.9800   32.1600 C   0  0  0  0  0  0  0  0  0  0  0  0
   35.6550   19.6550   31.3340 N   0  0  0  0  0  0  0  0  0  0  0  0
   38.8950   22.5907   28.7335 H   0  0  0  0  0  0  0  0  0  0  0  0
   40.1773   22.5271   29.9209 H   0  0  0  0  0  0  0  0  0  0  0  0
   40.8255   21.0626   28.0511 H   0  0  0  0  0  0  0  0  0  0  0  0
   40.3892   19.9829   29.3759 H   0  0  0  0  0  0  0  0  0  0  0  0
   37.4960   18.6703   28.3282 H   0  0  0  0  0  0  0  0  0  0  0  0
   36.9266   23.6767   34.1062 H   0  0  0  0  0  0  0  0  0  0  0  0
   36.5118   23.3794   31.7183 H   0  0  0  0  0  0  0  0  0  0  0  0
   40.9735   22.3556   37.9778 H   0  0  0  0  0  0  0  0  0  0  0  0
   39.2367   23.4913   39.3520 H   0  0  0  0  0  0  0  0  0  0  0  0
   37.0550   24.1030   38.2859 H   0  0  0  0  0  0  0  0  0  0  0  0
   38.2084   17.6896   31.0311 H   0  0  0  0  0  0  0  0  0  0  0  0
   36.8417   16.3659   32.5585 H   0  0  0  0  0  0  0  0  0  0  0  0
   33.9055   19.4005   32.4623 H   0  0  0  0  0  0  0  0  0  0  0  0
  1 10  1  0
  2  1  1  0
  3  2  1  0
  4  3  1  0
  4  5  1  0
  5  6  2  0
  6  1  1  0
  6 18  1  0
  7 16  1  0
  8  7  2  0
  9  8  1  0
 10  9  2  0
 10 11  1  0
 11  7  1  0
 12 13  2  0
 14 13  1  0
 15 14  2  0
 16 17  2  0
 16 15  1  0
 17 12  1  0
 18 23  1  0
 18 19  2  0
 19 20  1  0
 20 21  2  0
 22 21  1  0
 23 22  2  0
  2 24  1  0
  2 25  1  0
  3 26  1  0
  3 27  1  0
  5 28  1  0
  8 29  1  0
  9 30  1  0
 12 31  1  0
 13 32  1  0
 14 33  1  0
 19 34  1  0
 20 35  1  0
 22 36  1  0
M  ISO  8  24  13  25  13  26  13  27  13  28  13  29  14  30  14  31  14
M  ISO  5  32  14  33  14  34  14  35  14  36  14
M  END
>  <minimizedAffinity>  (1) 
-4.65326405

>  <minimizedRMSD>  (1) 
1.56642246

$$$$
