
     RDKit          3D

 34 35  0  0  0  0  0  0  0  0999 V2000
   38.6710   23.6500   36.7980 C   0  0  0  0  0  0  0  0  0  0  0  0
   41.9240   21.7620   36.8750 C   0  0  0  0  0  0  0  0  0  0  0  0
   40.6030   22.0960   37.1500 C   0  0  0  0  0  0  0  0  0  0  0  0
   40.0460   23.2460   36.5520 C   0  0  0  0  0  0  0  0  0  0  0  0
   40.8300   23.9750   35.7330 N   0  0  0  0  0  0  0  0  0  0  0  0
   42.1070   23.6290   35.4830 C   0  0  0  0  0  0  0  0  0  0  0  0
   42.6560   22.5330   36.0460 N   0  0  0  0  0  0  0  0  0  0  0  0
   42.4250   20.5220   37.5590 C   0  0  0  0  0  0  0  0  0  0  0  0
   43.4590   19.8270   36.7380 C   0  0  0  0  0  0  0  0  0  0  0  0
   38.3560   23.4230   38.2580 C   0  0  0  0  0  0  0  0  0  0  0  0
   38.3620   25.0620   36.3970 C   0  0  0  0  0  0  0  0  0  0  0  0
   37.7300   22.7530   35.9840 C   0  0  0  0  0  0  0  0  0  0  0  0
   38.0760   22.7450   34.5480 C   0  0  0  0  0  0  0  0  0  0  0  0
   37.7940   23.8560   33.6480 C   0  0  0  0  0  0  0  0  0  0  0  0
   38.4900   23.1740   32.0240 S   0  0  0  0  0  0  0  0  0  0  0  0
   39.0030   21.5760   32.8800 C   0  0  0  0  0  0  0  0  0  0  0  0
   38.6720   21.6750   34.0710 N   0  0  0  0  0  0  0  0  0  0  0  0
   39.9996   21.4716   37.8253 H   0  0  0  0  0  0  0  0  0  0  0  0
   42.7131   24.2509   34.8079 H   0  0  0  0  0  0  0  0  0  0  0  0
   42.8652   20.8008   38.5278 H   0  0  0  0  0  0  0  0  0  0  0  0
   41.5759   19.8367   37.6986 H   0  0  0  0  0  0  0  0  0  0  0  0
   44.1867   19.3379   37.4022 H   0  0  0  0  0  0  0  0  0  0  0  0
   42.9753   19.0700   36.1033 H   0  0  0  0  0  0  0  0  0  0  0  0
   43.9773   20.5608   36.1033 H   0  0  0  0  0  0  0  0  0  0  0  0
   39.0927   23.9539   38.8789 H   0  0  0  0  0  0  0  0  0  0  0  0
   37.3479   23.8036   38.4791 H   0  0  0  0  0  0  0  0  0  0  0  0
   38.3981   22.3463   38.4791 H   0  0  0  0  0  0  0  0  0  0  0  0
   38.2272   25.6780   37.2983 H   0  0  0  0  0  0  0  0  0  0  0  0
   39.1935   25.4637   35.7993 H   0  0  0  0  0  0  0  0  0  0  0  0
   37.4387   25.0797   35.7993 H   0  0  0  0  0  0  0  0  0  0  0  0
   37.7964   21.7254   36.3708 H   0  0  0  0  0  0  0  0  0  0  0  0
   36.7097   23.1516   36.0849 H   0  0  0  0  0  0  0  0  0  0  0  0
   37.3110   24.8224   33.8546 H   0  0  0  0  0  0  0  0  0  0  0  0
   39.5028   20.7157   32.4109 H   0  0  0  0  0  0  0  0  0  0  0  0
  1 10  1  0
  2  3  2  0
  2  8  1  0
  4  1  1  0
  4  3  1  0
  5  4  2  0
  6  5  1  0
  6  7  2  0
  7  2  1  0
  9  8  1  0
 11  1  1  0
 12  1  1  0
 13 12  1  0
 14 13  2  0
 15 16  1  0
 15 14  1  0
 16 17  2  0
 17 13  1  0
  3 18  1  0
  6 19  1  0
  8 20  1  0
  8 21  1  0
  9 22  1  0
  9 23  1  0
  9 24  1  0
 10 25  1  0
 10 26  1  0
 10 27  1  0
 11 28  1  0
 11 29  1  0
 11 30  1  0
 12 31  1  0
 12 32  1  0
 14 33  1  0
 16 34  1  0
M  ISO  8  18  14  19  14  20   8  21   8  22   8  23   8  24   8  25   8
M  ISO  8  26   8  27   8  28   8  29   8  30   8  31   8  32   8  33  14
M  ISO  1  34  14
M  END
>  <minimizedAffinity>  (1) 
-3.80762768

>  <minimizedRMSD>  (1) 
1.44096398

$$$$
