
     RDKit          3D

 35 38  0  0  0  0  0  0  0  0999 V2000
   37.8700   21.9610   35.0990 C   0  0  0  0  0  0  0  0  0  0  0  0
   36.6360   21.4960   34.9440 C   0  0  0  0  0  0  0  0  0  0  0  0
   36.1690   20.9420   33.8430 C   0  0  0  0  0  0  0  0  0  0  0  0
   37.1340   20.8780   32.7920 C   0  0  0  0  0  0  0  0  0  0  0  0
   38.6690   21.6470   33.5040 S   0  0  0  0  0  0  0  0  0  0  0  0
   37.2670   20.4070   31.4080 N   0  0  0  0  0  0  0  0  0  0  0  0
   37.6100   21.2610   30.2820 C   0  0  0  0  0  0  0  0  0  0  0  0
   38.4770   20.3640   29.4500 C   0  0  0  0  0  0  0  0  0  0  0  0
   37.6170   19.4030   28.9260 O   0  0  0  0  0  0  0  0  0  0  0  0
   37.2030   18.4980   29.9030 C   0  0  0  0  0  0  0  0  0  0  0  0
   37.0120   19.0030   31.2700 C   0  0  0  0  0  0  0  0  0  0  0  0
   36.6520   17.9430   32.1610 C   0  0  0  0  0  0  0  0  0  0  0  0
   35.2670   17.6380   32.5840 C   0  0  0  0  0  0  0  0  0  0  0  0
   35.9200   16.7270   31.5530 C   0  0  0  0  0  0  0  0  0  0  0  0
   39.9410   22.8730   37.9070 C   0  0  0  0  0  0  0  0  0  0  0  0
   39.0660   23.6020   38.7310 C   0  0  0  0  0  0  0  0  0  0  0  0
   37.7650   23.7930   38.3380 C   0  0  0  0  0  0  0  0  0  0  0  0
   37.4140   23.2460   37.1460 N   0  0  0  0  0  0  0  0  0  0  0  0
   38.2590   22.5450   36.3560 C   0  0  0  0  0  0  0  0  0  0  0  0
   39.5190   22.3600   36.7370 N   0  0  0  0  0  0  0  0  0  0  0  0
   35.9507   21.5796   35.8004 H   0  0  0  0  0  0  0  0  0  0  0  0
   35.1398   20.5668   33.7436 H   0  0  0  0  0  0  0  0  0  0  0  0
   36.7110   21.5704   29.7288 H   0  0  0  0  0  0  0  0  0  0  0  0
   38.1029   22.1993   30.5762 H   0  0  0  0  0  0  0  0  0  0  0  0
   38.9563   20.9342   28.6406 H   0  0  0  0  0  0  0  0  0  0  0  0
   39.2853   19.9108   30.0426 H   0  0  0  0  0  0  0  0  0  0  0  0
   37.0252   17.4404   29.6584 H   0  0  0  0  0  0  0  0  0  0  0  0
   37.5669   18.1426   32.7381 H   0  0  0  0  0  0  0  0  0  0  0  0
   35.0780   17.2627   33.6006 H   0  0  0  0  0  0  0  0  0  0  0  0
   34.3303   18.2138   32.6143 H   0  0  0  0  0  0  0  0  0  0  0  0
   35.5873   16.7451   30.5047 H   0  0  0  0  0  0  0  0  0  0  0  0
   36.1177   15.6487   31.4625 H   0  0  0  0  0  0  0  0  0  0  0  0
   40.9836   22.7201   38.2227 H   0  0  0  0  0  0  0  0  0  0  0  0
   39.4221   24.0170   39.6854 H   0  0  0  0  0  0  0  0  0  0  0  0
   37.0481   24.3566   38.9532 H   0  0  0  0  0  0  0  0  0  0  0  0
  1 19  1  0
  2  1  2  0
  3  2  1  0
  4  5  1  0
  4  3  2  0
  5  1  1  0
  6  4  1  0
  7  6  1  0
  8  7  1  0
  9  8  1  0
  9 10  1  0
 10 11  2  0
 11  6  1  0
 11 12  1  0
 12 13  1  0
 14 12  1  0
 14 13  1  0
 15 16  2  0
 17 16  1  0
 18 17  2  0
 19 20  2  0
 19 18  1  0
 20 15  1  0
  2 21  1  0
  3 22  1  0
  7 23  1  0
  7 24  1  0
  8 25  1  0
  8 26  1  0
 10 27  1  0
 12 28  1  0
 13 29  1  0
 13 30  1  0
 14 31  1  0
 14 32  1  0
 15 33  1  0
 16 34  1  0
 17 35  1  0
M  ISO  8  21  14  22  14  23  13  24  13  25  13  26  13  27  13  28  13
M  ISO  7  29  13  30  13  31  13  32  13  33  14  34  14  35  14
M  END
>  <minimizedAffinity>  (1) 
-4.42155361

>  <minimizedRMSD>  (1) 
0.998995483

$$$$
