
     RDKit          3D

 29 31  0  0  0  0  0  0  0  0999 V2000
   37.5430   26.2930   33.4810 C   0  0  0  0  0  0  0  0  0  0  0  0
   38.8980   25.9860   33.3680 C   0  0  0  0  0  0  0  0  0  0  0  0
   39.7700   26.4260   34.3460 C   0  0  0  0  0  0  0  0  0  0  0  0
   39.2500   27.1450   35.3800 N   0  0  0  0  0  0  0  0  0  0  0  0
   37.9370   27.4310   35.4710 C   0  0  0  0  0  0  0  0  0  0  0  0
   37.0880   27.0130   34.5340 N   0  0  0  0  0  0  0  0  0  0  0  0
   41.1590   26.2180   34.4080 N   0  0  0  0  0  0  0  0  0  0  0  0
   42.1660   27.1060   33.8330 C   0  0  0  0  0  0  0  0  0  0  0  0
   42.9700   26.3360   32.8140 C   0  0  0  0  0  0  0  0  0  0  0  0
   42.7370   24.9710   32.9290 O   0  0  0  0  0  0  0  0  0  0  0  0
   42.9420   24.5550   34.2420 C   0  0  0  0  0  0  0  0  0  0  0  0
   41.7720   25.0630   35.0670 C   0  0  0  0  0  0  0  0  0  0  0  0
   36.6680   25.8340   32.4710 N   0  0  0  0  0  0  0  0  0  0  0  0
   35.9180   26.5940   31.6850 C   0  0  0  0  0  0  0  0  0  0  0  0
   35.2120   25.8060   30.8400 N   0  0  0  0  0  0  0  0  0  0  0  0
   35.5370   24.5210   31.1160 C   0  0  0  0  0  0  0  0  0  0  0  0
   36.4250   24.5800   32.1130 N   0  0  0  0  0  0  0  0  0  0  0  0
   39.2681   25.4018   32.5126 H   0  0  0  0  0  0  0  0  0  0  0  0
   37.5632   28.0141   36.3255 H   0  0  0  0  0  0  0  0  0  0  0  0
   41.6714   27.9590   33.3454 H   0  0  0  0  0  0  0  0  0  0  0  0
   42.8296   27.4811   34.6261 H   0  0  0  0  0  0  0  0  0  0  0  0
   44.0400   26.5338   32.9751 H   0  0  0  0  0  0  0  0  0  0  0  0
   42.6670   26.6613   31.8078 H   0  0  0  0  0  0  0  0  0  0  0  0
   42.9845   23.4567   34.2862 H   0  0  0  0  0  0  0  0  0  0  0  0
   43.8922   24.9500   34.6309 H   0  0  0  0  0  0  0  0  0  0  0  0
   42.1306   25.3601   36.0636 H   0  0  0  0  0  0  0  0  0  0  0  0
   41.0235   24.2627   35.1633 H   0  0  0  0  0  0  0  0  0  0  0  0
   35.8759   27.6928   31.7147 H   0  0  0  0  0  0  0  0  0  0  0  0
   35.1507   23.6170   30.6225 H   0  0  0  0  0  0  0  0  0  0  0  0
  1  6  1  0
  2  1  2  0
  2  3  1  0
  3  7  1  0
  3  4  2  0
  4  5  1  0
  6  5  2  0
  7 12  1  0
  8  7  1  0
  9 10  1  0
  9  8  1  0
 10 11  1  0
 11 12  1  0
 13  1  1  0
 14 13  1  0
 15 16  1  0
 15 14  2  0
 16 17  2  0
 17 13  1  0
  2 18  1  0
  5 19  1  0
  8 20  1  0
  8 21  1  0
  9 22  1  0
  9 23  1  0
 11 24  1  0
 11 25  1  0
 12 26  1  0
 12 27  1  0
 14 28  1  0
 16 29  1  0
M  ISO  8  18  14  19  14  20  13  21  13  22  13  23  13  24  13  25  13
M  ISO  4  26  13  27  13  28  14  29  14
M  END
>  <minimizedAffinity>  (1) 
-4.06368685

>  <minimizedRMSD>  (1) 
6.50727797

$$$$
