
     RDKit          3D

 24 25  0  0  0  0  0  0  0  0999 V2000
   39.2880   23.1720   37.3810 C   0  0  0  0  0  0  0  0  0  0  0  0
   39.3130   24.0090   36.2590 C   0  0  0  0  0  0  0  0  0  0  0  0
   40.4680   24.0150   35.4690 C   0  0  0  0  0  0  0  0  0  0  0  0
   41.5020   23.2080   35.8350 N   0  0  0  0  0  0  0  0  0  0  0  0
   41.4380   22.4180   36.9200 C   0  0  0  0  0  0  0  0  0  0  0  0
   40.3440   22.3930   37.6920 N   0  0  0  0  0  0  0  0  0  0  0  0
   40.6840   24.7790   34.3100 N   0  0  0  0  0  0  0  0  0  0  0  0
   41.2690   26.1010   34.2730 C   0  0  0  0  0  0  0  0  0  0  0  0
   40.2700   27.0770   33.6770 C   0  0  0  0  0  0  0  0  0  0  0  0
   39.2270   26.3890   33.0700 O   0  0  0  0  0  0  0  0  0  0  0  0
   39.7450   25.4600   32.1620 C   0  0  0  0  0  0  0  0  0  0  0  0
   40.3330   24.3170   32.9630 C   0  0  0  0  0  0  0  0  0  0  0  0
   37.7350   23.2930   38.2680 S   0  0  0  0  0  0  0  0  0  0  0  0
   38.4504   24.6430   36.0060 H   0  0  0  0  0  0  0  0  0  0  0  0
   42.2975   21.7819   37.1781 H   0  0  0  0  0  0  0  0  0  0  0  0
   41.5266   26.4172   35.2946 H   0  0  0  0  0  0  0  0  0  0  0  0
   42.1792   26.0833   33.6556 H   0  0  0  0  0  0  0  0  0  0  0  0
   39.8665   27.7164   34.4760 H   0  0  0  0  0  0  0  0  0  0  0  0
   40.7792   27.6937   32.9218 H   0  0  0  0  0  0  0  0  0  0  0  0
   40.5280   25.9306   31.5492 H   0  0  0  0  0  0  0  0  0  0  0  0
   38.9549   25.0946   31.4895 H   0  0  0  0  0  0  0  0  0  0  0  0
   39.5940   23.5056   33.0369 H   0  0  0  0  0  0  0  0  0  0  0  0
   41.2392   23.9504   32.4587 H   0  0  0  0  0  0  0  0  0  0  0  0
   37.9766   23.2742   39.6164 H   0  0  0  0  0  0  0  0  0  0  0  0
  1  6  2  0
  1 13  1  0
  2  1  1  0
  3  4  1  0
  3  2  2  0
  4  5  2  0
  5  6  1  0
  7  3  1  0
  8  7  1  0
  9  8  1  0
 10  9  1  0
 11 12  1  0
 11 10  1  0
 12  7  1  0
  2 14  1  0
  5 15  1  0
  8 16  1  0
  8 17  1  0
  9 18  1  0
  9 19  1  0
 11 20  1  0
 11 21  1  0
 12 22  1  0
 12 23  1  0
 13 24  1  0
M  ISO  8  14  14  15  14  16  13  17  13  18  13  19  13  20  13  21  13
M  ISO  3  22  13  23  13  24  11
M  END
>  <minimizedAffinity>  (1) 
-3.22908568

>  <minimizedRMSD>  (1) 
1.98911738

$$$$
