
     RDKit          3D

 26 27  0  0  0  0  0  0  0  0999 V2000
   38.5230   23.8600   37.4440 C   0  0  0  0  0  0  0  0  0  0  0  0
   38.1400   24.5430   36.2850 C   0  0  0  0  0  0  0  0  0  0  0  0
   38.7110   24.1870   35.0770 C   0  0  0  0  0  0  0  0  0  0  0  0
   39.6210   23.1910   35.0720 N   0  0  0  0  0  0  0  0  0  0  0  0
   39.9810   22.5440   36.1910 C   0  0  0  0  0  0  0  0  0  0  0  0
   39.4370   22.8730   37.3730 N   0  0  0  0  0  0  0  0  0  0  0  0
   38.4400   24.7730   33.8120 N   0  0  0  0  0  0  0  0  0  0  0  0
   39.1780   25.9180   33.2660 C   0  0  0  0  0  0  0  0  0  0  0  0
   38.2000   27.0600   33.0330 C   0  0  0  0  0  0  0  0  0  0  0  0
   36.8810   26.5950   33.1050 O   0  0  0  0  0  0  0  0  0  0  0  0
   36.7100   25.5040   32.2700 C   0  0  0  0  0  0  0  0  0  0  0  0
   37.4090   24.3160   32.9080 C   0  0  0  0  0  0  0  0  0  0  0  0
   37.8730   24.2840   38.7320 C   0  0  0  0  0  0  0  0  0  0  0  0
   37.3956   25.3514   36.3338 H   0  0  0  0  0  0  0  0  0  0  0  0
   40.7276   21.7379   36.1392 H   0  0  0  0  0  0  0  0  0  0  0  0
   39.9530   26.2338   33.9799 H   0  0  0  0  0  0  0  0  0  0  0  0
   39.6598   25.6368   32.3180 H   0  0  0  0  0  0  0  0  0  0  0  0
   38.3781   27.4924   32.0374 H   0  0  0  0  0  0  0  0  0  0  0  0
   38.3520   27.8242   33.8094 H   0  0  0  0  0  0  0  0  0  0  0  0
   37.1527   25.7138   31.2851 H   0  0  0  0  0  0  0  0  0  0  0  0
   35.6398   25.2907   32.1313 H   0  0  0  0  0  0  0  0  0  0  0  0
   36.6738   23.7184   33.4669 H   0  0  0  0  0  0  0  0  0  0  0  0
   37.8682   23.7022   32.1191 H   0  0  0  0  0  0  0  0  0  0  0  0
   38.4585   23.9021   39.5813 H   0  0  0  0  0  0  0  0  0  0  0  0
   37.8332   25.3823   38.7784 H   0  0  0  0  0  0  0  0  0  0  0  0
   36.8518   23.8778   38.7784 H   0  0  0  0  0  0  0  0  0  0  0  0
  1 13  1  0
  2  1  2  0
  3  2  1  0
  4  3  2  0
  4  5  1  0
  5  6  2  0
  6  1  1  0
  7  3  1  0
  8  7  1  0
  9 10  1  0
  9  8  1  0
 11 12  1  0
 11 10  1  0
 12  7  1  0
  2 14  1  0
  5 15  1  0
  8 16  1  0
  8 17  1  0
  9 18  1  0
  9 19  1  0
 11 20  1  0
 11 21  1  0
 12 22  1  0
 12 23  1  0
 13 24  1  0
 13 25  1  0
 13 26  1  0
M  ISO  8  14  14  15  14  16  13  17  13  18  13  19  13  20  13  21  13
M  ISO  5  22  13  23  13  24   8  25   8  26   8
M  END
>  <minimizedAffinity>  (1) 
-3.75196314

>  <minimizedRMSD>  (1) 
1.61515498

$$$$
