
     RDKit          3D

 39 42  0  0  0  0  0  0  0  0999 V2000
   39.3450   22.9720   36.4750 C   0  0  0  0  0  0  0  0  0  0  0  0
   40.1470   23.7130   35.6230 C   0  0  0  0  0  0  0  0  0  0  0  0
   41.5030   23.4880   35.6430 C   0  0  0  0  0  0  0  0  0  0  0  0
   42.0140   22.5600   36.4870 N   0  0  0  0  0  0  0  0  0  0  0  0
   41.2140   21.8510   37.3080 C   0  0  0  0  0  0  0  0  0  0  0  0
   39.8940   22.0420   37.3150 N   0  0  0  0  0  0  0  0  0  0  0  0
   42.4870   24.1480   34.8440 N   0  0  0  0  0  0  0  0  0  0  0  0
   43.1840   25.3700   35.2040 C   0  0  0  0  0  0  0  0  0  0  0  0
   42.8640   26.4490   34.1760 C   0  0  0  0  0  0  0  0  0  0  0  0
   42.2780   25.8810   33.0480 O   0  0  0  0  0  0  0  0  0  0  0  0
   43.0750   24.8480   32.5830 C   0  0  0  0  0  0  0  0  0  0  0  0
   42.9290   23.6690   33.5300 C   0  0  0  0  0  0  0  0  0  0  0  0
   37.9270   23.2390   36.4220 C   0  0  0  0  0  0  0  0  0  0  0  0
   37.3980   24.3680   36.6930 O   0  0  0  0  0  0  0  0  0  0  0  0
   36.9810   22.1740   36.0330 C   0  0  0  0  0  0  0  0  0  0  0  0
   36.0840   21.4740   36.8140 C   0  0  0  0  0  0  0  0  0  0  0  0
   35.4590   20.6160   35.9880 N   0  0  0  0  0  0  0  0  0  0  0  0
   35.9280   20.7520   34.7280 C   0  0  0  0  0  0  0  0  0  0  0  0
   35.6030   20.1030   33.5470 C   0  0  0  0  0  0  0  0  0  0  0  0
   36.2860   20.4840   32.3910 C   0  0  0  0  0  0  0  0  0  0  0  0
   37.2610   21.4590   32.3390 C   0  0  0  0  0  0  0  0  0  0  0  0
   37.5700   22.0970   33.5360 C   0  0  0  0  0  0  0  0  0  0  0  0
   36.9110   21.7470   34.7140 C   0  0  0  0  0  0  0  0  0  0  0  0
   39.7099   24.4628   34.9472 H   0  0  0  0  0  0  0  0  0  0  0  0
   41.6566   21.1033   37.9826 H   0  0  0  0  0  0  0  0  0  0  0  0
   42.8555   25.7015   36.2001 H   0  0  0  0  0  0  0  0  0  0  0  0
   44.2684   25.1861   35.2224 H   0  0  0  0  0  0  0  0  0  0  0  0
   42.1688   27.1775   34.6186 H   0  0  0  0  0  0  0  0  0  0  0  0
   43.7972   26.9511   33.8809 H   0  0  0  0  0  0  0  0  0  0  0  0
   42.7529   24.5556   31.5727 H   0  0  0  0  0  0  0  0  0  0  0  0
   44.1257   25.1706   32.5388 H   0  0  0  0  0  0  0  0  0  0  0  0
   42.1856   22.9653   33.1273 H   0  0  0  0  0  0  0  0  0  0  0  0
   43.8985   23.1596   33.6329 H   0  0  0  0  0  0  0  0  0  0  0  0
   35.9144   21.5936   37.8942 H   0  0  0  0  0  0  0  0  0  0  0  0
   34.7273   19.9503   36.2749 H   0  0  0  0  0  0  0  0  0  0  0  0
   34.8347   19.3162   33.5218 H   0  0  0  0  0  0  0  0  0  0  0  0
   36.0283   19.9697   31.4534 H   0  0  0  0  0  0  0  0  0  0  0  0
   37.7685   21.7188   31.3983 H   0  0  0  0  0  0  0  0  0  0  0  0
   38.3394   22.8829   33.5533 H   0  0  0  0  0  0  0  0  0  0  0  0
  1  6  2  0
  2  3  2  0
  2  1  1  0
  3  4  1  0
  4  5  2  0
  5  6  1  0
  7  8  1  0
  7  3  1  0
  9  8  1  0
 10  9  1  0
 11 10  1  0
 11 12  1  0
 12  7  1  0
 13  1  1  0
 13 14  2  0
 15 13  1  0
 15 16  2  0
 17 16  1  0
 18 17  1  0
 19 18  2  0
 20 19  1  0
 21 20  2  0
 21 22  1  0
 22 23  2  0
 23 18  1  0
 23 15  1  0
  2 24  1  0
  5 25  1  0
  8 26  1  0
  8 27  1  0
  9 28  1  0
  9 29  1  0
 11 30  1  0
 11 31  1  0
 12 32  1  0
 12 33  1  0
 16 34  1  0
 17 35  1  0
 19 36  1  0
 20 37  1  0
 21 38  1  0
 22 39  1  0
M  ISO  8  24  14  25  14  26  13  27  13  28  13  29  13  30  13  31  13
M  ISO  8  32  13  33  13  34  14  35   9  36  14  37  14  38  14  39  14
M  END
>  <minimizedAffinity>  (1) 
-5.00454855

>  <minimizedRMSD>  (1) 
3.95304728

$$$$
