
     RDKit          3D

 48 51  0  0  0  0  0  0  0  0999 V2000
   39.9370   22.2870   34.5160 C   0  0  0  0  0  0  0  0  0  0  0  0
   38.6830   22.1070   33.9460 C   0  0  0  0  0  0  0  0  0  0  0  0
   38.5720   21.2480   32.8560 C   0  0  0  0  0  0  0  0  0  0  0  0
   39.6920   20.6230   32.4000 N   0  0  0  0  0  0  0  0  0  0  0  0
   40.8840   20.8260   32.9820 C   0  0  0  0  0  0  0  0  0  0  0  0
   41.0240   21.6400   34.0230 N   0  0  0  0  0  0  0  0  0  0  0  0
   37.3900   20.9330   32.1410 N   0  0  0  0  0  0  0  0  0  0  0  0
   36.9030   21.6560   30.9760 C   0  0  0  0  0  0  0  0  0  0  0  0
   35.5310   22.2130   31.2760 C   0  0  0  0  0  0  0  0  0  0  0  0
   35.0150   21.6430   32.4570 O   0  0  0  0  0  0  0  0  0  0  0  0
   35.0570   20.2740   32.3410 C   0  0  0  0  0  0  0  0  0  0  0  0
   36.4980   19.8260   32.4920 C   0  0  0  0  0  0  0  0  0  0  0  0
   40.0160   23.1790   35.6340 C   0  0  0  0  0  0  0  0  0  0  0  0
   40.4690   22.8590   36.7900 O   0  0  0  0  0  0  0  0  0  0  0  0
   39.5870   24.5680   35.5940 C   0  0  0  0  0  0  0  0  0  0  0  0
   38.3560   24.9600   36.1080 C   0  0  0  0  0  0  0  0  0  0  0  0
   37.9900   26.2960   36.0480 C   0  0  0  0  0  0  0  0  0  0  0  0
   38.8200   27.2560   35.4880 C   0  0  0  0  0  0  0  0  0  0  0  0
   40.0420   26.8690   34.9770 C   0  0  0  0  0  0  0  0  0  0  0  0
   40.3940   25.5260   35.0440 C   0  0  0  0  0  0  0  0  0  0  0  0
   41.6720   25.2360   34.4890 N   0  0  0  0  0  0  0  0  0  0  0  0
   42.7130   25.2350   35.3440 C   0  0  0  0  0  0  0  0  0  0  0  0
   43.9970   24.9660   34.9160 C   0  0  0  0  0  0  0  0  0  0  0  0
   45.2020   24.9480   35.8060 C   0  0  0  0  0  0  0  0  0  0  0  0
   44.1600   24.6960   33.5530 C   0  0  0  0  0  0  0  0  0  0  0  0
   45.3250   24.4460   33.1280 O   0  0  0  0  0  0  0  0  0  0  0  0
   43.1090   24.6980   32.6960 N   0  0  0  0  0  0  0  0  0  0  0  0
   41.8740   24.9670   33.1680 C   0  0  0  0  0  0  0  0  0  0  0  0
   40.8500   24.9820   32.4080 O   0  0  0  0  0  0  0  0  0  0  0  0
   37.8011   22.6293   34.3453 H   0  0  0  0  0  0  0  0  0  0  0  0
   41.7685   20.3049   32.5870 H   0  0  0  0  0  0  0  0  0  0  0  0
   36.8427   20.9717   30.1168 H   0  0  0  0  0  0  0  0  0  0  0  0
   37.5923   22.4792   30.7366 H   0  0  0  0  0  0  0  0  0  0  0  0
   35.6024   23.3035   31.4014 H   0  0  0  0  0  0  0  0  0  0  0  0
   34.8579   21.9710   30.4403 H   0  0  0  0  0  0  0  0  0  0  0  0
   34.4407   19.8152   33.1281 H   0  0  0  0  0  0  0  0  0  0  0  0
   34.6654   19.9651   31.3606 H   0  0  0  0  0  0  0  0  0  0  0  0
   36.6896   18.9739   31.8232 H   0  0  0  0  0  0  0  0  0  0  0  0
   36.6814   19.5218   33.5331 H   0  0  0  0  0  0  0  0  0  0  0  0
   37.6796   24.2181   36.5575 H   0  0  0  0  0  0  0  0  0  0  0  0
   37.0154   26.6028   36.4554 H   0  0  0  0  0  0  0  0  0  0  0  0
   38.5086   28.3104   35.4518 H   0  0  0  0  0  0  0  0  0  0  0  0
   40.7223   27.6068   34.5267 H   0  0  0  0  0  0  0  0  0  0  0  0
   42.5355   25.4536   36.4074 H   0  0  0  0  0  0  0  0  0  0  0  0
   44.8809   24.9528   36.8581 H   0  0  0  0  0  0  0  0  0  0  0  0
   45.7915   24.0409   35.6067 H   0  0  0  0  0  0  0  0  0  0  0  0
   45.8184   25.8370   35.6067 H   0  0  0  0  0  0  0  0  0  0  0  0
   43.2519   24.4964   31.6961 H   0  0  0  0  0  0  0  0  0  0  0  0
  1 13  1  0
  2  1  2  0
  3  2  1  0
  4  3  2  0
  4  5  1  0
  5  6  2  0
  6  1  1  0
  7 12  1  0
  7  3  1  0
  8  9  1  0
  8  7  1  0
  9 10  1  0
 11 10  1  0
 11 12  1  0
 13 14  2  0
 15 13  1  0
 15 16  2  0
 17 16  1  0
 18 17  2  0
 19 20  2  0
 19 18  1  0
 20 15  1  0
 21 20  1  0
 21 22  1  0
 23 22  2  0
 23 24  1  0
 25 23  1  0
 26 25  2  0
 27 28  1  0
 27 25  1  0
 28 21  1  0
 29 28  2  0
  2 30  1  0
  5 31  1  0
  8 32  1  0
  8 33  1  0
  9 34  1  0
  9 35  1  0
 11 36  1  0
 11 37  1  0
 12 38  1  0
 12 39  1  0
 16 40  1  0
 17 41  1  0
 18 42  1  0
 19 43  1  0
 22 44  1  0
 24 45  1  0
 24 46  1  0
 24 47  1  0
 27 48  1  0
M  ISO  8  30  14  31  14  32  13  33  13  34  13  35  13  36  13  37  13
M  ISO  8  38  13  39  13  40  14  41  14  42  14  43  14  44  14  45   8
M  ISO  3  46   8  47   8  48   9
M  END
>  <minimizedAffinity>  (1) 
-5.58951998

>  <minimizedRMSD>  (1) 
0.832443058

$$$$
