
     RDKit          3D

 44 47  0  0  1  0  0  0  0  0999 V2000
   39.8450   22.2460   34.5580 C   0  0  0  0  0  0  0  0  0  0  0  0
   38.6070   22.0580   33.9560 C   0  0  0  0  0  0  0  0  0  0  0  0
   38.5290   21.2320   32.8510 C   0  0  0  0  0  0  0  0  0  0  0  0
   39.6670   20.6350   32.3950 N   0  0  0  0  0  0  0  0  0  0  0  0
   40.8380   20.8430   33.0040 C   0  0  0  0  0  0  0  0  0  0  0  0
   40.9360   21.6300   34.0650 N   0  0  0  0  0  0  0  0  0  0  0  0
   37.3650   20.9110   32.1040 N   0  0  0  0  0  0  0  0  0  0  0  0
   36.8700   21.6390   30.9660 C   0  0  0  0  0  0  0  0  0  0  0  0
   35.4910   22.1550   31.2500 C   0  0  0  0  0  0  0  0  0  0  0  0
   34.9680   21.5410   32.4170 O   0  0  0  0  0  0  0  0  0  0  0  0
   35.0380   20.1710   32.2790 C   0  0  0  0  0  0  0  0  0  0  0  0
   36.4930   19.7640   32.4040 C   0  0  0  0  0  0  0  0  0  0  0  0
   39.8840   23.1140   35.6970 C   0  0  0  0  0  0  0  0  0  0  0  0
   40.2250   22.7350   36.8790 O   0  0  0  0  0  0  0  0  0  0  0  0
   39.5430   24.5220   35.6800 C   0  0  0  0  0  0  0  0  0  0  0  0
   38.3910   25.0140   36.2410 C   0  0  0  0  0  0  0  0  0  0  0  0
   38.0700   26.3630   36.1810 C   0  0  0  0  0  0  0  0  0  0  0  0
   38.9110   27.2490   35.5480 C   0  0  0  0  0  0  0  0  0  0  0  0
   40.0750   26.7760   34.9770 C   0  0  0  0  0  0  0  0  0  0  0  0
   40.3770   25.4070   35.0560 C   0  0  0  0  0  0  0  0  0  0  0  0
   41.7530   25.2520   34.5460 C   0  0  0  0  0  0  0  0  0  0  0  0
   42.9120   25.3290   35.3020 C   0  0  0  0  0  0  0  0  0  0  0  0
   44.1420   25.2650   34.7220 C   0  0  0  0  0  0  0  0  0  0  0  0
   44.1700   25.1190   33.3330 C   0  0  0  0  0  0  0  0  0  0  0  0
   42.3300   25.0770   32.8860 S   0  0  0  0  0  0  0  0  0  0  0  0
   37.7088   22.5557   34.3503 H   0  0  0  0  0  0  0  0  0  0  0  0
   41.7411   20.3495   32.6155 H   0  0  0  0  0  0  0  0  0  0  0  0
   36.8368   20.9714   30.0924 H   0  0  0  0  0  0  0  0  0  0  0  0
   37.5388   22.4878   30.7605 H   0  0  0  0  0  0  0  0  0  0  0  0
   35.5345   23.2437   31.4008 H   0  0  0  0  0  0  0  0  0  0  0  0
   34.8373   21.9194   30.3972 H   0  0  0  0  0  0  0  0  0  0  0  0
   34.6503   19.8743   31.2933 H   0  0  0  0  0  0  0  0  0  0  0  0
   34.4338   19.6764   33.0538 H   0  0  0  0  0  0  0  0  0  0  0  0
   36.7055   18.9499   31.6954 H   0  0  0  0  0  0  0  0  0  0  0  0
   36.6853   19.4239   33.4323 H   0  0  0  0  0  0  0  0  0  0  0  0
   38.8355   22.8678   35.9205 H   0  0  0  0  0  0  0  0  0  0  0  0
   39.7392   23.2750   37.5517 H   0  0  0  0  0  0  0  0  0  0  0  0
   37.7049   24.3218   36.7510 H   0  0  0  0  0  0  0  0  0  0  0  0
   37.1391   26.7254   36.6416 H   0  0  0  0  0  0  0  0  0  0  0  0
   38.6593   28.3186   35.4978 H   0  0  0  0  0  0  0  0  0  0  0  0
   40.7609   27.4662   34.4639 H   0  0  0  0  0  0  0  0  0  0  0  0
   42.8365   25.4442   36.3933 H   0  0  0  0  0  0  0  0  0  0  0  0
   45.0657   25.3251   35.3162 H   0  0  0  0  0  0  0  0  0  0  0  0
   45.0419   25.0466   32.6662 H   0  0  0  0  0  0  0  0  0  0  0  0
  1 13  1  0
  2  1  2  0
  3  2  1  0
  4  3  2  0
  4  5  1  0
  5  6  2  0
  6  1  1  0
  7 12  1  0
  7  3  1  0
  8  9  1  0
  8  7  1  0
  9 10  1  0
 11 12  1  0
 11 10  1  0
 13 14  1  0
 15 13  1  0
 15 16  2  0
 17 16  1  0
 18 17  2  0
 19 20  2  0
 19 18  1  0
 20 15  1  0
 21 20  1  0
 21 22  2  0
 23 22  1  0
 24 23  2  0
 25 24  1  0
 25 21  1  0
  2 26  1  0
  5 27  1  0
  8 28  1  0
  8 29  1  0
  9 30  1  0
  9 31  1  0
 11 32  1  0
 11 33  1  0
 12 34  1  0
 12 35  1  0
 13 36  1  0
 14 37  1  0
 16 38  1  0
 17 39  1  0
 18 40  1  0
 19 41  1  0
 22 42  1  0
 23 43  1  0
 24 44  1  0
M  ISO  8  26  14  27  14  28  13  29  13  30  13  31  13  32  13  33  13
M  ISO  8  34  13  35  13  36   8  37   3  38  14  39  14  40  14  41  14
M  ISO  3  42  14  43  14  44  14
M  END
>  <minimizedAffinity>  (1) 
-5.35418415

>  <minimizedRMSD>  (1) 
0.37698558

$$$$
