
     RDKit          3D

 36 38  0  0  0  0  0  0  0  0999 V2000
   39.6710   22.2390   34.6030 C   0  0  0  0  0  0  0  0  0  0  0  0
   38.4570   21.9800   33.9870 C   0  0  0  0  0  0  0  0  0  0  0  0
   38.4560   21.1760   32.8630 C   0  0  0  0  0  0  0  0  0  0  0  0
   39.6270   20.6760   32.4120 N   0  0  0  0  0  0  0  0  0  0  0  0
   40.7930   20.9480   33.0360 C   0  0  0  0  0  0  0  0  0  0  0  0
   40.8240   21.7210   34.1210 N   0  0  0  0  0  0  0  0  0  0  0  0
   37.3330   20.7970   32.1000 N   0  0  0  0  0  0  0  0  0  0  0  0
   36.8080   21.5260   30.9540 C   0  0  0  0  0  0  0  0  0  0  0  0
   35.3940   21.9570   31.2240 C   0  0  0  0  0  0  0  0  0  0  0  0
   34.8870   21.2990   32.3470 O   0  0  0  0  0  0  0  0  0  0  0  0
   35.0470   19.9370   32.1930 C   0  0  0  0  0  0  0  0  0  0  0  0
   36.5240   19.6160   32.3420 C   0  0  0  0  0  0  0  0  0  0  0  0
   39.6360   23.0830   35.7720 C   0  0  0  0  0  0  0  0  0  0  0  0
   39.8410   22.6750   36.9660 O   0  0  0  0  0  0  0  0  0  0  0  0
   39.3580   24.5210   35.7340 C   0  0  0  0  0  0  0  0  0  0  0  0
   38.2660   25.0600   36.3830 C   0  0  0  0  0  0  0  0  0  0  0  0
   38.0570   26.4310   36.3090 C   0  0  0  0  0  0  0  0  0  0  0  0
   38.9010   27.2680   35.6110 C   0  0  0  0  0  0  0  0  0  0  0  0
   39.9900   26.7270   34.9640 C   0  0  0  0  0  0  0  0  0  0  0  0
   40.2090   25.3530   35.0320 C   0  0  0  0  0  0  0  0  0  0  0  0
   41.3340   24.8940   34.3480 O   0  0  0  0  0  0  0  0  0  0  0  0
   37.5210   22.4023   34.3814 H   0  0  0  0  0  0  0  0  0  0  0  0
   41.7299   20.5259   32.6435 H   0  0  0  0  0  0  0  0  0  0  0  0
   36.8275   20.8748   30.0677 H   0  0  0  0  0  0  0  0  0  0  0  0
   37.4295   22.4160   30.7762 H   0  0  0  0  0  0  0  0  0  0  0  0
   35.3742   23.0425   31.4010 H   0  0  0  0  0  0  0  0  0  0  0  0
   34.7726   21.7030   30.3526 H   0  0  0  0  0  0  0  0  0  0  0  0
   34.6976   19.6308   31.1959 H   0  0  0  0  0  0  0  0  0  0  0  0
   34.4610   19.3962   32.9507 H   0  0  0  0  0  0  0  0  0  0  0  0
   36.7987   18.8354   31.6173 H   0  0  0  0  0  0  0  0  0  0  0  0
   36.7079   19.2657   33.3684 H   0  0  0  0  0  0  0  0  0  0  0  0
   37.5750   24.4167   36.9476 H   0  0  0  0  0  0  0  0  0  0  0  0
   37.1876   26.8641   36.8254 H   0  0  0  0  0  0  0  0  0  0  0  0
   38.7080   28.3502   35.5713 H   0  0  0  0  0  0  0  0  0  0  0  0
   40.6791   27.3727   34.3999 H   0  0  0  0  0  0  0  0  0  0  0  0
   41.5553   23.9290   34.3504 H   0  0  0  0  0  0  0  0  0  0  0  0
  1 13  1  0
  2  1  2  0
  3  2  1  0
  4  3  2  0
  4  5  1  0
  5  6  2  0
  6  1  1  0
  7 12  1  0
  7  3  1  0
  8  9  1  0
  8  7  1  0
  9 10  1  0
 11 12  1  0
 11 10  1  0
 13 14  2  0
 15 13  1  0
 15 16  2  0
 17 16  1  0
 18 17  2  0
 19 20  2  0
 19 18  1  0
 20 15  1  0
 21 20  1  0
  2 22  1  0
  5 23  1  0
  8 24  1  0
  8 25  1  0
  9 26  1  0
  9 27  1  0
 11 28  1  0
 11 29  1  0
 12 30  1  0
 12 31  1  0
 16 32  1  0
 17 33  1  0
 18 34  1  0
 19 35  1  0
 21 36  1  0
M  ISO  8  22  14  23  14  24  13  25  13  26  13  27  13  28  13  29  13
M  ISO  7  30  13  31  13  32  14  33  14  34  14  35  14  36   3
M  END
>  <minimizedAffinity>  (1) 
-5.0555954

>  <minimizedRMSD>  (1) 
0.112431578

$$$$
