
     RDKit          3D

 36 38  0  0  0  0  0  0  0  0999 V2000
   40.0410   22.2590   34.4970 C   0  0  0  0  0  0  0  0  0  0  0  0
   38.7790   22.1020   33.9450 C   0  0  0  0  0  0  0  0  0  0  0  0
   38.6270   21.2600   32.8650 C   0  0  0  0  0  0  0  0  0  0  0  0
   39.7220   20.6090   32.3730 N   0  0  0  0  0  0  0  0  0  0  0  0
   40.9290   20.7850   32.9320 C   0  0  0  0  0  0  0  0  0  0  0  0
   41.1010   21.5980   33.9830 N   0  0  0  0  0  0  0  0  0  0  0  0
   37.4270   20.9690   32.1670 N   0  0  0  0  0  0  0  0  0  0  0  0
   36.9290   21.6960   31.0220 C   0  0  0  0  0  0  0  0  0  0  0  0
   35.5820   22.2850   31.3190 C   0  0  0  0  0  0  0  0  0  0  0  0
   35.0690   21.7320   32.5190 O   0  0  0  0  0  0  0  0  0  0  0  0
   35.0770   20.3540   32.4040 C   0  0  0  0  0  0  0  0  0  0  0  0
   36.5180   19.8830   32.5080 C   0  0  0  0  0  0  0  0  0  0  0  0
   40.1520   23.1490   35.6240 C   0  0  0  0  0  0  0  0  0  0  0  0
   40.6850   22.8390   36.7330 O   0  0  0  0  0  0  0  0  0  0  0  0
   39.6570   24.5230   35.6170 C   0  0  0  0  0  0  0  0  0  0  0  0
   38.4540   24.8670   36.1910 C   0  0  0  0  0  0  0  0  0  0  0  0
   38.0290   26.1810   36.1590 C   0  0  0  0  0  0  0  0  0  0  0  0
   38.7810   27.1840   35.5580 C   0  0  0  0  0  0  0  0  0  0  0  0
   39.9770   26.8400   34.9860 C   0  0  0  0  0  0  0  0  0  0  0  0
   40.4010   25.5170   35.0220 C   0  0  0  0  0  0  0  0  0  0  0  0
   41.9750   25.1710   34.2500 S   0  0  0  0  0  0  0  0  0  0  0  0
   37.9147   22.6399   34.3617 H   0  0  0  0  0  0  0  0  0  0  0  0
   41.7965   20.2500   32.5183 H   0  0  0  0  0  0  0  0  0  0  0  0
   36.8434   21.0096   30.1667 H   0  0  0  0  0  0  0  0  0  0  0  0
   37.6293   22.5107   30.7858 H   0  0  0  0  0  0  0  0  0  0  0  0
   35.6770   23.3752   31.4309 H   0  0  0  0  0  0  0  0  0  0  0  0
   34.8951   22.0553   30.4911 H   0  0  0  0  0  0  0  0  0  0  0  0
   34.6567   20.0580   31.4315 H   0  0  0  0  0  0  0  0  0  0  0  0
   34.4681   19.9004   33.1999 H   0  0  0  0  0  0  0  0  0  0  0  0
   36.6773   19.0442   31.8144 H   0  0  0  0  0  0  0  0  0  0  0  0
   36.7165   19.5589   33.5402 H   0  0  0  0  0  0  0  0  0  0  0  0
   37.8331   24.0979   36.6737 H   0  0  0  0  0  0  0  0  0  0  0  0
   37.0664   26.4416   36.6231 H   0  0  0  0  0  0  0  0  0  0  0  0
   38.4254   28.2248   35.5423 H   0  0  0  0  0  0  0  0  0  0  0  0
   40.5986   27.6068   34.5007 H   0  0  0  0  0  0  0  0  0  0  0  0
   42.9223   24.9628   35.2176 H   0  0  0  0  0  0  0  0  0  0  0  0
  1 13  1  0
  2  1  2  0
  3  2  1  0
  4  3  2  0
  4  5  1  0
  5  6  2  0
  6  1  1  0
  7 12  1  0
  7  3  1  0
  8  9  1  0
  8  7  1  0
  9 10  1  0
 11 12  1  0
 11 10  1  0
 13 14  2  0
 15 13  1  0
 15 16  2  0
 17 16  1  0
 18 17  2  0
 19 20  2  0
 19 18  1  0
 20 15  1  0
 21 20  1  0
  2 22  1  0
  5 23  1  0
  8 24  1  0
  8 25  1  0
  9 26  1  0
  9 27  1  0
 11 28  1  0
 11 29  1  0
 12 30  1  0
 12 31  1  0
 16 32  1  0
 17 33  1  0
 18 34  1  0
 19 35  1  0
 21 36  1  0
M  ISO  8  22  14  23  14  24  13  25  13  26  13  27  13  28  13  29  13
M  ISO  7  30  13  31  13  32  14  33  14  34  14  35  14  36  11
M  END
>  <minimizedAffinity>  (1) 
-4.93647766

>  <minimizedRMSD>  (1) 
0.322066784

$$$$
