
     RDKit          3D

 17 18  0  0  0  0  0  0  0  0999 V2000
   41.8970   21.2720   37.4380 C   0  0  0  0  0  0  0  0  0  0  0  0
   40.9640   22.3210   37.3350 C   0  0  0  0  0  0  0  0  0  0  0  0
   40.6420   22.7660   36.0510 C   0  0  0  0  0  0  0  0  0  0  0  0
   41.2360   22.1750   34.9850 N   0  0  0  0  0  0  0  0  0  0  0  0
   42.1290   21.1680   35.1200 C   0  0  0  0  0  0  0  0  0  0  0  0
   42.4550   20.7210   36.3580 N   0  0  0  0  0  0  0  0  0  0  0  0
   39.6990   23.8320   35.8540 N   0  0  0  0  0  0  0  0  0  0  0  0
   38.3880   23.6450   36.1070 C   0  0  0  0  0  0  0  0  0  0  0  0
   37.7940   24.8450   35.8160 C   0  0  0  0  0  0  0  0  0  0  0  0
   38.7310   25.7170   35.4010 N   0  0  0  0  0  0  0  0  0  0  0  0
   39.9380   25.0850   35.4230 C   0  0  0  0  0  0  0  0  0  0  0  0
   42.1733   20.8967   38.4344 H   0  0  0  0  0  0  0  0  0  0  0  0
   40.5075   22.7715   38.2287 H   0  0  0  0  0  0  0  0  0  0  0  0
   42.5886   20.7139   34.2297 H   0  0  0  0  0  0  0  0  0  0  0  0
   37.9007   22.7276   36.4688 H   0  0  0  0  0  0  0  0  0  0  0  0
   36.7194   25.0616   35.9073 H   0  0  0  0  0  0  0  0  0  0  0  0
   40.9124   25.5128   35.1445 H   0  0  0  0  0  0  0  0  0  0  0  0
  2  1  2  0
  3  2  1  0
  4  5  1  0
  4  3  2  0
  5  6  2  0
  6  1  1  0
  7  3  1  0
  7  8  1  0
  9  8  2  0
 10 11  2  0
 10  9  1  0
 11  7  1  0
  1 12  1  0
  2 13  1  0
  5 14  1  0
  8 15  1  0
  9 16  1  0
 11 17  1  0
M  ISO  6  12  14  13  14  14  14  15  14  16  14  17  14
M  END
>  <minimizedAffinity>  (1) 
-2.7033267

>  <minimizedRMSD>  (1) 
3.87392521

$$$$
