
     RDKit          3D

 33 36  0  0  0  0  0  0  0  0999 V2000
   39.6660   22.8480   37.8970 C   0  0  0  0  0  0  0  0  0  0  0  0
   38.7510   23.5900   38.6440 C   0  0  0  0  0  0  0  0  0  0  0  0
   37.7570   24.3010   37.9340 C   0  0  0  0  0  0  0  0  0  0  0  0
   37.7750   24.2040   36.5650 N   0  0  0  0  0  0  0  0  0  0  0  0
   38.6770   23.4770   35.8970 C   0  0  0  0  0  0  0  0  0  0  0  0
   39.6200   22.8010   36.5660 N   0  0  0  0  0  0  0  0  0  0  0  0
   38.5620   23.4760   34.4720 N   0  0  0  0  0  0  0  0  0  0  0  0
   38.9550   22.4100   33.7050 C   0  0  0  0  0  0  0  0  0  0  0  0
   38.7240   22.7050   32.3990 N   0  0  0  0  0  0  0  0  0  0  0  0
   38.1910   23.9400   32.3110 C   0  0  0  0  0  0  0  0  0  0  0  0
   37.7480   24.7860   31.2910 C   0  0  0  0  0  0  0  0  0  0  0  0
   37.2540   25.9960   31.5680 N   0  0  0  0  0  0  0  0  0  0  0  0
   37.1860   26.3970   32.8470 C   0  0  0  0  0  0  0  0  0  0  0  0
   37.6000   25.6180   33.8660 N   0  0  0  0  0  0  0  0  0  0  0  0
   38.1000   24.4000   33.6200 C   0  0  0  0  0  0  0  0  0  0  0  0
   37.8990   24.1870   30.0030 N   0  0  0  0  0  0  0  0  0  0  0  0
   36.6460   27.7210   33.1570 C   0  0  0  0  0  0  0  0  0  0  0  0
   36.4520   28.1440   34.4390 C   0  0  0  0  0  0  0  0  0  0  0  0
   35.9460   29.3850   34.7760 C   0  0  0  0  0  0  0  0  0  0  0  0
   35.6140   30.2580   33.7520 C   0  0  0  0  0  0  0  0  0  0  0  0
   35.7980   29.8630   32.4450 C   0  0  0  0  0  0  0  0  0  0  0  0
   36.3060   28.6140   32.1450 C   0  0  0  0  0  0  0  0  0  0  0  0
   40.4502   22.2839   38.4232 H   0  0  0  0  0  0  0  0  0  0  0  0
   38.8011   23.6206   39.7424 H   0  0  0  0  0  0  0  0  0  0  0  0
   37.0013   24.9062   38.4562 H   0  0  0  0  0  0  0  0  0  0  0  0
   39.3859   21.4715   34.0840 H   0  0  0  0  0  0  0  0  0  0  0  0
   38.2962   23.2404   29.9186 H   0  0  0  0  0  0  0  0  0  0  0  0
   37.6107   24.7017   29.1587 H   0  0  0  0  0  0  0  0  0  0  0  0
   36.7145   27.4548   35.2551 H   0  0  0  0  0  0  0  0  0  0  0  0
   35.8103   29.6724   35.8291 H   0  0  0  0  0  0  0  0  0  0  0  0
   35.2083   31.2547   33.9802 H   0  0  0  0  0  0  0  0  0  0  0  0
   35.5366   30.5522   31.6285 H   0  0  0  0  0  0  0  0  0  0  0  0
   36.4435   28.3216   31.0935 H   0  0  0  0  0  0  0  0  0  0  0  0
  1  2  2  0
  3  2  1  0
  4  3  2  0
  5  4  1  0
  5  6  2  0
  6  1  1  0
  7  5  1  0
  8  7  1  0
  9  8  2  0
 10  9  1  0
 10 15  2  0
 11 12  2  0
 11 10  1  0
 12 13  1  0
 13 17  1  0
 13 14  2  0
 15 14  1  0
 15  7  1  0
 16 11  1  0
 17 18  2  0
 18 19  1  0
 20 19  2  0
 21 20  1  0
 22 21  2  0
 22 17  1  0
  1 23  1  0
  2 24  1  0
  3 25  1  0
  8 26  1  0
 16 27  1  0
 16 28  1  0
 18 29  1  0
 19 30  1  0
 20 31  1  0
 21 32  1  0
 22 33  1  0
M  ISO  8  23  14  24  14  25  14  26  14  29  14  30  14  31  14  32  14
M  ISO  1  33  14
M  END
>  <minimizedAffinity>  (1) 
-6.11381912

>  <minimizedRMSD>  (1) 
1.81876111

$$$$
