
     RDKit          3D

 33 36  0  0  0  0  0  0  0  0999 V2000
   39.6860   22.8230   37.8900 C   0  0  0  0  0  0  0  0  0  0  0  0
   38.7440   23.5670   38.6310 C   0  0  0  0  0  0  0  0  0  0  0  0
   37.7520   24.2710   37.9200 C   0  0  0  0  0  0  0  0  0  0  0  0
   37.7750   24.1810   36.5490 N   0  0  0  0  0  0  0  0  0  0  0  0
   38.7040   23.4510   35.8840 C   0  0  0  0  0  0  0  0  0  0  0  0
   39.6480   22.7810   36.5520 N   0  0  0  0  0  0  0  0  0  0  0  0
   38.5780   23.4690   34.4640 N   0  0  0  0  0  0  0  0  0  0  0  0
   38.9740   22.4090   33.6850 C   0  0  0  0  0  0  0  0  0  0  0  0
   38.7430   22.6880   32.3850 N   0  0  0  0  0  0  0  0  0  0  0  0
   38.2000   23.9230   32.2990 C   0  0  0  0  0  0  0  0  0  0  0  0
   37.7400   24.7850   31.2850 C   0  0  0  0  0  0  0  0  0  0  0  0
   37.2420   25.9890   31.5710 N   0  0  0  0  0  0  0  0  0  0  0  0
   37.1760   26.3860   32.8460 C   0  0  0  0  0  0  0  0  0  0  0  0
   37.6040   25.5940   33.8560 N   0  0  0  0  0  0  0  0  0  0  0  0
   38.1090   24.3830   33.6070 C   0  0  0  0  0  0  0  0  0  0  0  0
   37.8930   24.1800   30.0040 N   0  0  0  0  0  0  0  0  0  0  0  0
   36.6300   27.7030   33.1630 C   0  0  0  0  0  0  0  0  0  0  0  0
   36.4750   28.1190   34.4530 C   0  0  0  0  0  0  0  0  0  0  0  0
   35.9550   29.3770   34.7590 C   0  0  0  0  0  0  0  0  0  0  0  0
   35.5820   30.2320   33.7190 C   0  0  0  0  0  0  0  0  0  0  0  0
   35.7670   29.7480   32.4420 C   0  0  0  0  0  0  0  0  0  0  0  0
   36.2760   28.5140   32.0940 C   0  0  0  0  0  0  0  0  0  0  0  0
   40.4695   22.2647   38.4233 H   0  0  0  0  0  0  0  0  0  0  0  0
   38.7827   23.5966   39.7299 H   0  0  0  0  0  0  0  0  0  0  0  0
   36.9898   24.8686   38.4414 H   0  0  0  0  0  0  0  0  0  0  0  0
   39.4130   21.4742   34.0636 H   0  0  0  0  0  0  0  0  0  0  0  0
   38.2962   23.2354   29.9254 H   0  0  0  0  0  0  0  0  0  0  0  0
   37.6004   24.6872   29.1566 H   0  0  0  0  0  0  0  0  0  0  0  0
   36.7673   27.4458   35.2723 H   0  0  0  0  0  0  0  0  0  0  0  0
   35.8401   29.6919   35.8067 H   0  0  0  0  0  0  0  0  0  0  0  0
   35.1653   31.2323   33.9082 H   0  0  0  0  0  0  0  0  0  0  0  0
   35.4792   30.4141   31.6153 H   0  0  0  0  0  0  0  0  0  0  0  0
   36.3926   28.1965   31.0473 H   0  0  0  0  0  0  0  0  0  0  0  0
  1  2  2  0
  3  2  1  0
  4  3  2  0
  5  4  1  0
  5  6  2  0
  6  1  1  0
  7  5  1  0
  8  7  1  0
  9  8  2  0
 10  9  1  0
 10 15  2  0
 11 12  2  0
 11 10  1  0
 12 13  1  0
 13 17  1  0
 13 14  2  0
 15 14  1  0
 15  7  1  0
 16 11  1  0
 17 18  2  0
 18 19  1  0
 20 19  2  0
 21 20  1  0
 22 21  2  0
 22 17  1  0
  1 23  1  0
  2 24  1  0
  3 25  1  0
  8 26  1  0
 16 27  1  0
 16 28  1  0
 18 29  1  0
 19 30  1  0
 20 31  1  0
 21 32  1  0
 22 33  1  0
M  ISO  8  23  14  24  14  25  14  26  14  29  14  30  14  31  14  32  14
M  ISO  1  33  14
M  END
>  <minimizedAffinity>  (1) 
-6.10550356

>  <minimizedRMSD>  (1) 
1.77510774

$$$$
