
     RDKit          3D

 32 35  0  0  0  0  0  0  0  0999 V2000
   39.7180   22.7890   37.8620 C   0  0  0  0  0  0  0  0  0  0  0  0
   38.7500   23.5030   38.5970 C   0  0  0  0  0  0  0  0  0  0  0  0
   37.7380   24.1680   37.8740 C   0  0  0  0  0  0  0  0  0  0  0  0
   37.7790   24.0650   36.5120 N   0  0  0  0  0  0  0  0  0  0  0  0
   38.7180   23.3750   35.8470 C   0  0  0  0  0  0  0  0  0  0  0  0
   39.6980   22.7290   36.5210 N   0  0  0  0  0  0  0  0  0  0  0  0
   38.6120   23.3700   34.4300 N   0  0  0  0  0  0  0  0  0  0  0  0
   39.0620   22.3370   33.6550 C   0  0  0  0  0  0  0  0  0  0  0  0
   38.8310   22.6050   32.3510 N   0  0  0  0  0  0  0  0  0  0  0  0
   38.2330   23.8090   32.2570 C   0  0  0  0  0  0  0  0  0  0  0  0
   37.7420   24.6520   31.2430 C   0  0  0  0  0  0  0  0  0  0  0  0
   37.1840   25.8300   31.5220 N   0  0  0  0  0  0  0  0  0  0  0  0
   37.0880   26.2190   32.7950 C   0  0  0  0  0  0  0  0  0  0  0  0
   37.5420   25.4520   33.8000 N   0  0  0  0  0  0  0  0  0  0  0  0
   38.1070   24.2660   33.5620 C   0  0  0  0  0  0  0  0  0  0  0  0
   37.9420   24.0450   29.9530 N   0  0  0  0  0  0  0  0  0  0  0  0
   36.4790   27.5070   33.0990 C   0  0  0  0  0  0  0  0  0  0  0  0
   36.5890   28.0540   34.3780 C   0  0  0  0  0  0  0  0  0  0  0  0
   36.0180   29.2550   34.6560 C   0  0  0  0  0  0  0  0  0  0  0  0
   35.3290   29.9290   33.6650 C   0  0  0  0  0  0  0  0  0  0  0  0
   35.2190   29.3850   32.3900 C   0  0  0  0  0  0  0  0  0  0  0  0
   35.8010   28.1960   32.1670 N   0  0  0  0  0  0  0  0  0  0  0  0
   40.5168   22.2632   38.4056 H   0  0  0  0  0  0  0  0  0  0  0  0
   38.7828   23.5402   39.6959 H   0  0  0  0  0  0  0  0  0  0  0  0
   36.9512   24.7436   38.3835 H   0  0  0  0  0  0  0  0  0  0  0  0
   39.5410   21.4233   34.0367 H   0  0  0  0  0  0  0  0  0  0  0  0
   38.3912   23.1208   29.8828 H   0  0  0  0  0  0  0  0  0  0  0  0
   37.6359   24.5350   29.1003 H   0  0  0  0  0  0  0  0  0  0  0  0
   37.1386   27.5123   35.1619 H   0  0  0  0  0  0  0  0  0  0  0  0
   36.1034   29.6884   35.6634 H   0  0  0  0  0  0  0  0  0  0  0  0
   34.8650   30.9015   33.8864 H   0  0  0  0  0  0  0  0  0  0  0  0
   34.6741   29.9106   31.5920 H   0  0  0  0  0  0  0  0  0  0  0  0
  1  2  2  0
  3  2  1  0
  4  3  2  0
  5  4  1  0
  5  6  2  0
  6  1  1  0
  7  5  1  0
  8  7  1  0
  9  8  2  0
 10  9  1  0
 10 15  2  0
 11 12  2  0
 11 10  1  0
 12 13  1  0
 13 17  1  0
 13 14  2  0
 15 14  1  0
 15  7  1  0
 16 11  1  0
 17 18  2  0
 18 19  1  0
 20 19  2  0
 21 20  1  0
 22 21  2  0
 22 17  1  0
  1 23  1  0
  2 24  1  0
  3 25  1  0
  8 26  1  0
 16 27  1  0
 16 28  1  0
 18 29  1  0
 19 30  1  0
 20 31  1  0
 21 32  1  0
M  ISO  8  23  14  24  14  25  14  26  14  29  14  30  14  31  14  32  14
M  END
>  <minimizedAffinity>  (1) 
-5.90380859

>  <minimizedRMSD>  (1) 
1.92403316

$$$$
