
     RDKit          3D

 35 38  0  0  0  0  0  0  0  0999 V2000
   39.6290   22.8280   37.9880 C   0  0  0  0  0  0  0  0  0  0  0  0
   38.8070   23.6620   38.7470 C   0  0  0  0  0  0  0  0  0  0  0  0
   37.8480   24.4160   38.0540 C   0  0  0  0  0  0  0  0  0  0  0  0
   37.7860   24.2800   36.6870 N   0  0  0  0  0  0  0  0  0  0  0  0
   38.6050   23.4600   36.0020 C   0  0  0  0  0  0  0  0  0  0  0  0
   39.5360   22.7240   36.6530 N   0  0  0  0  0  0  0  0  0  0  0  0
   38.4190   23.4280   34.5940 N   0  0  0  0  0  0  0  0  0  0  0  0
   38.6920   22.3280   33.8360 C   0  0  0  0  0  0  0  0  0  0  0  0
   38.4220   22.5880   32.5370 N   0  0  0  0  0  0  0  0  0  0  0  0
   37.9670   23.8670   32.4370 C   0  0  0  0  0  0  0  0  0  0  0  0
   37.5310   24.7200   31.4240 C   0  0  0  0  0  0  0  0  0  0  0  0
   37.1390   25.9670   31.6860 N   0  0  0  0  0  0  0  0  0  0  0  0
   37.1640   26.4090   32.9520 C   0  0  0  0  0  0  0  0  0  0  0  0
   37.5760   25.6180   33.9590 N   0  0  0  0  0  0  0  0  0  0  0  0
   37.9800   24.3510   33.7270 C   0  0  0  0  0  0  0  0  0  0  0  0
   37.5740   24.0770   30.1390 N   0  0  0  0  0  0  0  0  0  0  0  0
   36.7470   27.7370   33.2490 N   0  0  0  0  0  0  0  0  0  0  0  0
   36.4170   28.2910   34.5700 C   0  0  0  0  0  0  0  0  0  0  0  0
   35.2190   29.1470   34.2260 C   0  0  0  0  0  0  0  0  0  0  0  0
   35.7240   29.8420   32.9650 C   0  0  0  0  0  0  0  0  0  0  0  0
   36.5670   28.8140   32.2780 C   0  0  0  0  0  0  0  0  0  0  0  0
   40.3894   22.2272   38.5085 H   0  0  0  0  0  0  0  0  0  0  0  0
   38.9066   23.7255   39.8406 H   0  0  0  0  0  0  0  0  0  0  0  0
   37.1667   25.0950   38.5877 H   0  0  0  0  0  0  0  0  0  0  0  0
   39.0746   21.3722   34.2233 H   0  0  0  0  0  0  0  0  0  0  0  0
   37.8980   23.1024   30.0614 H   0  0  0  0  0  0  0  0  0  0  0  0
   37.2808   24.5909   29.2959 H   0  0  0  0  0  0  0  0  0  0  0  0
   36.1563   27.4991   35.2876 H   0  0  0  0  0  0  0  0  0  0  0  0
   37.2412   28.8344   35.0552 H   0  0  0  0  0  0  0  0  0  0  0  0
   34.3279   28.5349   34.0228 H   0  0  0  0  0  0  0  0  0  0  0  0
   34.8988   29.8291   35.0274 H   0  0  0  0  0  0  0  0  0  0  0  0
   34.8821   30.1444   32.3249 H   0  0  0  0  0  0  0  0  0  0  0  0
   36.2875   30.7591   33.1919 H   0  0  0  0  0  0  0  0  0  0  0  0
   36.0569   28.4383   31.3788 H   0  0  0  0  0  0  0  0  0  0  0  0
   37.5309   29.2316   31.9516 H   0  0  0  0  0  0  0  0  0  0  0  0
  1  2  2  0
  3  2  1  0
  4  3  2  0
  5  6  2  0
  5  4  1  0
  6  1  1  0
  7  5  1  0
  8  7  1  0
  9  8  2  0
 10  9  1  0
 10 15  2  0
 11 12  2  0
 11 10  1  0
 12 13  1  0
 13 17  1  0
 13 14  2  0
 15 14  1  0
 15  7  1  0
 16 11  1  0
 17 18  1  0
 19 18  1  0
 20 19  1  0
 21 20  1  0
 21 17  1  0
  1 22  1  0
  2 23  1  0
  3 24  1  0
  8 25  1  0
 16 26  1  0
 16 27  1  0
 18 28  1  0
 18 29  1  0
 19 30  1  0
 19 31  1  0
 20 32  1  0
 20 33  1  0
 21 34  1  0
 21 35  1  0
M  ISO  8  22  14  23  14  24  14  25  14  28  13  29  13  30  13  31  13
M  ISO  4  32  13  33  13  34  13  35  13
M  END
>  <minimizedAffinity>  (1) 
-5.93513918

>  <minimizedRMSD>  (1) 
1.65576577

$$$$
