
     RDKit          3D

 39 42  0  0  0  0  0  0  0  0999 V2000
   39.5440   22.8150   37.9740 C   0  0  0  0  0  0  0  0  0  0  0  0
   38.7640   23.7340   38.7080 C   0  0  0  0  0  0  0  0  0  0  0  0
   37.8640   24.5490   37.9890 C   0  0  0  0  0  0  0  0  0  0  0  0
   37.8200   24.3820   36.6290 N   0  0  0  0  0  0  0  0  0  0  0  0
   38.5750   23.4990   35.9660 C   0  0  0  0  0  0  0  0  0  0  0  0
   39.4390   22.7140   36.6500 N   0  0  0  0  0  0  0  0  0  0  0  0
   38.4150   23.4430   34.5570 N   0  0  0  0  0  0  0  0  0  0  0  0
   38.6180   22.3130   33.8260 C   0  0  0  0  0  0  0  0  0  0  0  0
   38.3860   22.5820   32.5210 N   0  0  0  0  0  0  0  0  0  0  0  0
   38.0350   23.8720   32.3890 C   0  0  0  0  0  0  0  0  0  0  0  0
   37.6840   24.7230   31.3360 C   0  0  0  0  0  0  0  0  0  0  0  0
   37.3760   26.0140   31.5660 N   0  0  0  0  0  0  0  0  0  0  0  0
   37.4120   26.4790   32.8260 C   0  0  0  0  0  0  0  0  0  0  0  0
   37.7480   25.6860   33.8720 N   0  0  0  0  0  0  0  0  0  0  0  0
   38.0580   24.3930   33.6640 C   0  0  0  0  0  0  0  0  0  0  0  0
   37.6990   24.0590   30.0740 N   0  0  0  0  0  0  0  0  0  0  0  0
   37.0740   27.9040   33.0820 C   0  0  0  0  0  0  0  0  0  0  0  0
   36.0780   28.4120   32.0450 C   0  0  0  0  0  0  0  0  0  0  0  0
   36.1030   29.9350   32.2110 C   0  0  0  0  0  0  0  0  0  0  0  0
   35.3950   30.2260   33.5160 C   0  0  0  0  0  0  0  0  0  0  0  0
   35.2820   29.0380   34.4210 C   0  0  0  0  0  0  0  0  0  0  0  0
   36.4910   28.1460   34.4380 C   0  0  0  0  0  0  0  0  0  0  0  0
   40.2551   22.1672   38.5076 H   0  0  0  0  0  0  0  0  0  0  0  0
   38.8544   23.8122   39.8015 H   0  0  0  0  0  0  0  0  0  0  0  0
   37.2255   25.2863   38.4976 H   0  0  0  0  0  0  0  0  0  0  0  0
   38.9222   21.3369   34.2318 H   0  0  0  0  0  0  0  0  0  0  0  0
   37.9523   23.0621   30.0196 H   0  0  0  0  0  0  0  0  0  0  0  0
   37.4566   24.5763   29.2170 H   0  0  0  0  0  0  0  0  0  0  0  0
   38.0287   28.4466   33.0184 H   0  0  0  0  0  0  0  0  0  0  0  0
   35.0717   28.0147   32.2438 H   0  0  0  0  0  0  0  0  0  0  0  0
   36.3366   28.0961   31.0236 H   0  0  0  0  0  0  0  0  0  0  0  0
   37.1407   30.2978   32.2504 H   0  0  0  0  0  0  0  0  0  0  0  0
   35.6119   30.4397   31.3659 H   0  0  0  0  0  0  0  0  0  0  0  0
   35.9525   31.0130   34.0449 H   0  0  0  0  0  0  0  0  0  0  0  0
   34.3699   30.5339   33.2623 H   0  0  0  0  0  0  0  0  0  0  0  0
   35.1100   29.4019   35.4447 H   0  0  0  0  0  0  0  0  0  0  0  0
   34.4516   28.4294   34.0335 H   0  0  0  0  0  0  0  0  0  0  0  0
   36.2023   27.1768   34.8707 H   0  0  0  0  0  0  0  0  0  0  0  0
   37.2612   28.6569   35.0345 H   0  0  0  0  0  0  0  0  0  0  0  0
  1  2  2  0
  3  2  1  0
  4  3  2  0
  5  4  1  0
  5  6  2  0
  6  1  1  0
  7  5  1  0
  8  7  1  0
  9  8  2  0
 10  9  1  0
 10 15  2  0
 11 12  2  0
 11 10  1  0
 12 13  1  0
 13 17  1  0
 13 14  2  0
 15 14  1  0
 15  7  1  0
 16 11  1  0
 17 22  1  0
 18 19  1  0
 18 17  1  0
 19 20  1  0
 20 21  1  0
 21 22  1  0
  1 23  1  0
  2 24  1  0
  3 25  1  0
  8 26  1  0
 16 27  1  0
 16 28  1  0
 17 29  1  0
 18 30  1  0
 18 31  1  0
 19 32  1  0
 19 33  1  0
 20 34  1  0
 20 35  1  0
 21 36  1  0
 21 37  1  0
 22 38  1  0
 22 39  1  0
M  ISO  8  23  14  24  14  25  14  26  14  29  13  30  13  31  13  32  13
M  ISO  7  33  13  34  13  35  13  36  13  37  13  38  13  39  13
M  END
>  <minimizedAffinity>  (1) 
-5.97099113

>  <minimizedRMSD>  (1) 
2.09103441

$$$$
