
     RDKit          3D

 36 39  0  0  0  0  0  0  0  0999 V2000
   39.7650   23.6720   35.9790 C   0  0  0  0  0  0  0  0  0  0  0  0
   38.8930   23.8240   37.0690 C   0  0  0  0  0  0  0  0  0  0  0  0
   37.7100   24.5600   36.8630 C   0  0  0  0  0  0  0  0  0  0  0  0
   37.5070   25.0710   35.6060 N   0  0  0  0  0  0  0  0  0  0  0  0
   38.3620   24.9050   34.5870 C   0  0  0  0  0  0  0  0  0  0  0  0
   39.4960   24.2020   34.7770 N   0  0  0  0  0  0  0  0  0  0  0  0
   38.0010   25.5000   33.3470 N   0  0  0  0  0  0  0  0  0  0  0  0
   38.3880   24.9890   32.1420 C   0  0  0  0  0  0  0  0  0  0  0  0
   37.8980   25.7620   31.1460 N   0  0  0  0  0  0  0  0  0  0  0  0
   37.1960   26.7690   31.6880 C   0  0  0  0  0  0  0  0  0  0  0  0
   36.4630   27.8740   31.2280 C   0  0  0  0  0  0  0  0  0  0  0  0
   35.8580   28.7230   32.0910 N   0  0  0  0  0  0  0  0  0  0  0  0
   35.9690   28.4940   33.3990 C   0  0  0  0  0  0  0  0  0  0  0  0
   36.6570   27.4550   33.8920 N   0  0  0  0  0  0  0  0  0  0  0  0
   37.2720   26.5890   33.0640 C   0  0  0  0  0  0  0  0  0  0  0  0
   36.4570   27.9540   29.7980 N   0  0  0  0  0  0  0  0  0  0  0  0
   35.3390   29.3770   34.3190 N   0  0  0  0  0  0  0  0  0  0  0  0
   36.0820   30.3500   35.0960 C   0  0  0  0  0  0  0  0  0  0  0  0
   35.0800   31.4890   35.3390 C   0  0  0  0  0  0  0  0  0  0  0  0
   34.2760   31.7000   34.2130 O   0  0  0  0  0  0  0  0  0  0  0  0
   33.3640   30.6760   33.9940 C   0  0  0  0  0  0  0  0  0  0  0  0
   33.9040   29.3610   34.5380 C   0  0  0  0  0  0  0  0  0  0  0  0
   40.6957   23.1017   36.1151 H   0  0  0  0  0  0  0  0  0  0  0  0
   39.1257   23.3835   38.0497 H   0  0  0  0  0  0  0  0  0  0  0  0
   36.9823   24.7179   37.6726 H   0  0  0  0  0  0  0  0  0  0  0  0
   39.0032   24.0879   32.0024 H   0  0  0  0  0  0  0  0  0  0  0  0
   35.9542   28.7197   29.3271 H   0  0  0  0  0  0  0  0  0  0  0  0
   36.9555   27.2458   29.2405 H   0  0  0  0  0  0  0  0  0  0  0  0
   36.4152   29.9144   36.0495 H   0  0  0  0  0  0  0  0  0  0  0  0
   36.9908   30.6934   34.5801 H   0  0  0  0  0  0  0  0  0  0  0  0
   34.4394   31.2279   36.1943 H   0  0  0  0  0  0  0  0  0  0  0  0
   35.6423   32.4116   35.5453 H   0  0  0  0  0  0  0  0  0  0  0  0
   32.4186   30.9176   34.5017 H   0  0  0  0  0  0  0  0  0  0  0  0
   33.1955   30.5728   32.9119 H   0  0  0  0  0  0  0  0  0  0  0  0
   33.4484   28.5141   34.0039 H   0  0  0  0  0  0  0  0  0  0  0  0
   33.6680   29.2480   35.6064 H   0  0  0  0  0  0  0  0  0  0  0  0
  1  2  2  0
  3  2  1  0
  4  3  2  0
  5  6  2  0
  5  4  1  0
  6  1  1  0
  7  5  1  0
  8  7  1  0
  9 10  1  0
  9  8  2  0
 10 15  2  0
 11 10  1  0
 11 12  2  0
 12 13  1  0
 13 14  2  0
 13 17  1  0
 15  7  1  0
 15 14  1  0
 16 11  1  0
 17 22  1  0
 17 18  1  0
 18 19  1  0
 20 19  1  0
 21 20  1  0
 21 22  1  0
  1 23  1  0
  2 24  1  0
  3 25  1  0
  8 26  1  0
 16 27  1  0
 16 28  1  0
 18 29  1  0
 18 30  1  0
 19 31  1  0
 19 32  1  0
 21 33  1  0
 21 34  1  0
 22 35  1  0
 22 36  1  0
M  ISO  8  23  14  24  14  25  14  26  14  29  13  30  13  31  13  32  13
M  ISO  4  33  13  34  13  35  13  36  13
M  END
>  <minimizedAffinity>  (1) 
-5.44776917

>  <minimizedRMSD>  (1) 
1.64261401

$$$$
