
     RDKit          3D

 24 26  0  0  0  0  0  0  0  0999 V2000
   39.7500   22.7840   37.8400 C   0  0  0  0  0  0  0  0  0  0  0  0
   38.9030   23.4410   38.7450 C   0  0  0  0  0  0  0  0  0  0  0  0
   37.8650   24.2340   38.2120 C   0  0  0  0  0  0  0  0  0  0  0  0
   37.7650   24.3030   36.8460 N   0  0  0  0  0  0  0  0  0  0  0  0
   38.6050   23.6520   36.0150 C   0  0  0  0  0  0  0  0  0  0  0  0
   39.5880   22.9000   36.5230 N   0  0  0  0  0  0  0  0  0  0  0  0
   38.3610   23.8300   34.6240 N   0  0  0  0  0  0  0  0  0  0  0  0
   38.6690   22.8720   33.6930 C   0  0  0  0  0  0  0  0  0  0  0  0
   38.3280   23.3160   32.4630 N   0  0  0  0  0  0  0  0  0  0  0  0
   37.8020   24.5480   32.5740 C   0  0  0  0  0  0  0  0  0  0  0  0
   37.2730   25.5290   31.7230 C   0  0  0  0  0  0  0  0  0  0  0  0
   36.8160   26.6990   32.1910 N   0  0  0  0  0  0  0  0  0  0  0  0
   36.8690   26.9380   33.5050 C   0  0  0  0  0  0  0  0  0  0  0  0
   37.3660   26.0350   34.3700 N   0  0  0  0  0  0  0  0  0  0  0  0
   37.8330   24.8490   33.9320 C   0  0  0  0  0  0  0  0  0  0  0  0
   37.2940   25.1060   30.3590 N   0  0  0  0  0  0  0  0  0  0  0  0
   36.2730   28.4810   34.1680 S   0  0  0  0  0  0  0  0  0  0  0  0
   40.5675   22.1581   38.2273 H   0  0  0  0  0  0  0  0  0  0  0  0
   39.0432   23.3414   39.8315 H   0  0  0  0  0  0  0  0  0  0  0  0
   37.1646   24.7748   38.8654 H   0  0  0  0  0  0  0  0  0  0  0  0
   39.1229   21.8944   33.9129 H   0  0  0  0  0  0  0  0  0  0  0  0
   37.6709   24.1796   30.1128 H   0  0  0  0  0  0  0  0  0  0  0  0
   36.9323   25.7274   29.6215 H   0  0  0  0  0  0  0  0  0  0  0  0
   36.2934   28.4281   35.5368 H   0  0  0  0  0  0  0  0  0  0  0  0
  1  2  2  0
  3  2  1  0
  4  3  2  0
  5  6  2  0
  5  4  1  0
  6  1  1  0
  7  5  1  0
  8  7  1  0
  9 10  1  0
  9  8  2  0
 10 15  2  0
 11 12  2  0
 11 10  1  0
 12 13  1  0
 13 17  1  0
 13 14  2  0
 15 14  1  0
 15  7  1  0
 16 11  1  0
  1 18  1  0
  2 19  1  0
  3 20  1  0
  8 21  1  0
 16 22  1  0
 16 23  1  0
 17 24  1  0
M  ISO  5  18  14  19  14  20  14  21  14  24  11
M  END
>  <minimizedAffinity>  (1) 
-4.98311949

>  <minimizedRMSD>  (1) 
0.817386746

$$$$
