
     RDKit          3D

 29 32  0  0  0  0  0  0  0  0999 V2000
   37.3770   23.2020   37.0530 C   0  0  0  0  0  0  0  0  0  0  0  0
   38.4460   23.1190   36.1370 C   0  0  0  0  0  0  0  0  0  0  0  0
   39.7350   23.1170   36.6370 C   0  0  0  0  0  0  0  0  0  0  0  0
   39.9250   23.1930   37.9830 N   0  0  0  0  0  0  0  0  0  0  0  0
   38.8890   23.2710   38.8370 C   0  0  0  0  0  0  0  0  0  0  0  0
   37.6260   23.2750   38.3680 N   0  0  0  0  0  0  0  0  0  0  0  0
   40.8100   23.0340   35.7240 N   0  0  0  0  0  0  0  0  0  0  0  0
   41.4030   21.8780   35.3730 C   0  0  0  0  0  0  0  0  0  0  0  0
   42.3920   22.1470   34.4860 N   0  0  0  0  0  0  0  0  0  0  0  0
   42.4410   23.4750   34.2600 C   0  0  0  0  0  0  0  0  0  0  0  0
   43.2290   24.2630   33.4730 C   0  0  0  0  0  0  0  0  0  0  0  0
   43.0120   25.6040   33.4750 N   0  0  0  0  0  0  0  0  0  0  0  0
   42.0300   26.1080   34.2510 C   0  0  0  0  0  0  0  0  0  0  0  0
   41.2290   25.3560   35.0430 N   0  0  0  0  0  0  0  0  0  0  0  0
   41.4320   24.0240   35.0520 C   0  0  0  0  0  0  0  0  0  0  0  0
   44.2360   23.6120   32.6980 N   0  0  0  0  0  0  0  0  0  0  0  0
   38.1130   23.0450   34.7690 N   0  0  0  0  0  0  0  0  0  0  0  0
   37.9910   23.9790   33.7910 C   0  0  0  0  0  0  0  0  0  0  0  0
   37.6480   23.3940   32.6310 N   0  0  0  0  0  0  0  0  0  0  0  0
   37.5520   22.0500   32.8930 C   0  0  0  0  0  0  0  0  0  0  0  0
   37.8410   21.8670   34.2050 N   0  0  0  0  0  0  0  0  0  0  0  0
   36.3392   23.2068   36.6884 H   0  0  0  0  0  0  0  0  0  0  0  0
   39.0731   23.3316   39.9198 H   0  0  0  0  0  0  0  0  0  0  0  0
   41.1300   20.8793   35.7447 H   0  0  0  0  0  0  0  0  0  0  0  0
   41.8702   27.1963   34.2397 H   0  0  0  0  0  0  0  0  0  0  0  0
   44.3425   22.5887   32.7472 H   0  0  0  0  0  0  0  0  0  0  0  0
   44.8560   24.1657   32.0897 H   0  0  0  0  0  0  0  0  0  0  0  0
   38.1500   25.0587   33.9285 H   0  0  0  0  0  0  0  0  0  0  0  0
   37.2885   21.2641   32.1698 H   0  0  0  0  0  0  0  0  0  0  0  0
  1  6  2  0
  2  3  2  0
  2  1  1  0
  3  4  1  0
  4  5  2  0
  6  5  1  0
  7  3  1  0
  8  7  1  0
  9  8  2  0
 10  9  1  0
 10 15  2  0
 11 12  2  0
 11 10  1  0
 12 13  1  0
 13 14  2  0
 14 15  1  0
 15  7  1  0
 16 11  1  0
 17  2  1  0
 18 17  1  0
 19 20  1  0
 19 18  2  0
 20 21  2  0
 21 17  1  0
  1 22  1  0
  5 23  1  0
  8 24  1  0
 13 25  1  0
 16 26  1  0
 16 27  1  0
 18 28  1  0
 20 29  1  0
M  ISO  6  22  14  23  14  24  14  25  14  28  14  29  14
M  END
>  <minimizedAffinity>  (1) 
-4.01052523

>  <minimizedRMSD>  (1) 
2.38042903

$$$$
