
     RDKit          3D

 27 30  0  0  0  0  0  0  0  0999 V2000
   37.4080   23.2650   37.0580 C   0  0  0  0  0  0  0  0  0  0  0  0
   38.4310   23.0850   36.1180 C   0  0  0  0  0  0  0  0  0  0  0  0
   39.7390   22.9930   36.5600 C   0  0  0  0  0  0  0  0  0  0  0  0
   39.9760   23.0820   37.9000 N   0  0  0  0  0  0  0  0  0  0  0  0
   38.9770   23.2560   38.7880 C   0  0  0  0  0  0  0  0  0  0  0  0
   37.6960   23.3460   38.3590 N   0  0  0  0  0  0  0  0  0  0  0  0
   40.7610   22.8120   35.6180 N   0  0  0  0  0  0  0  0  0  0  0  0
   41.3830   21.7390   35.0870 C   0  0  0  0  0  0  0  0  0  0  0  0
   42.3230   22.0930   34.1950 N   0  0  0  0  0  0  0  0  0  0  0  0
   42.3090   23.4520   34.1500 C   0  0  0  0  0  0  0  0  0  0  0  0
   43.0870   24.3050   33.3870 C   0  0  0  0  0  0  0  0  0  0  0  0
   42.8930   25.6450   33.5090 N   0  0  0  0  0  0  0  0  0  0  0  0
   41.9480   26.0610   34.3720 C   0  0  0  0  0  0  0  0  0  0  0  0
   41.1740   25.2370   35.1280 N   0  0  0  0  0  0  0  0  0  0  0  0
   41.3420   23.8910   35.0300 C   0  0  0  0  0  0  0  0  0  0  0  0
   38.0370   23.0090   34.7640 N   0  0  0  0  0  0  0  0  0  0  0  0
   37.9460   23.9470   33.7720 C   0  0  0  0  0  0  0  0  0  0  0  0
   37.5140   23.3770   32.6340 N   0  0  0  0  0  0  0  0  0  0  0  0
   37.3300   22.0470   32.9200 C   0  0  0  0  0  0  0  0  0  0  0  0
   37.6570   21.8440   34.2360 N   0  0  0  0  0  0  0  0  0  0  0  0
   36.3630   23.3399   36.7227 H   0  0  0  0  0  0  0  0  0  0  0  0
   39.2027   23.3250   39.8624 H   0  0  0  0  0  0  0  0  0  0  0  0
   41.1483   20.6978   35.3529 H   0  0  0  0  0  0  0  0  0  0  0  0
   43.8458   23.9075   32.6969 H   0  0  0  0  0  0  0  0  0  0  0  0
   41.7903   27.1449   34.4732 H   0  0  0  0  0  0  0  0  0  0  0  0
   38.1909   25.0130   33.8889 H   0  0  0  0  0  0  0  0  0  0  0  0
   36.9808   21.2776   32.2156 H   0  0  0  0  0  0  0  0  0  0  0  0
  1  6  2  0
  2  3  2  0
  2  1  1  0
  3  4  1  0
  4  5  2  0
  6  5  1  0
  7  3  1  0
  8  7  1  0
  9  8  2  0
 10  9  1  0
 10 15  2  0
 11 12  2  0
 11 10  1  0
 12 13  1  0
 13 14  2  0
 15 14  1  0
 15  7  1  0
 16  2  1  0
 17 16  1  0
 18 19  1  0
 18 17  2  0
 19 20  2  0
 20 16  1  0
  1 21  1  0
  5 22  1  0
  8 23  1  0
 11 24  1  0
 13 25  1  0
 17 26  1  0
 19 27  1  0
M  ISO  7  21  14  22  14  23  14  24  14  25  14  26  14  27  14
M  END
>  <minimizedAffinity>  (1) 
-4.03653526

>  <minimizedRMSD>  (1) 
1.98672366

$$$$
