
     RDKit          3D

 24 26  0  0  0  0  0  0  0  0999 V2000
   37.4260   23.8210   37.1100 C   0  0  0  0  0  0  0  0  0  0  0  0
   38.4410   23.1660   36.3620 C   0  0  0  0  0  0  0  0  0  0  0  0
   39.6250   22.8130   36.9810 C   0  0  0  0  0  0  0  0  0  0  0  0
   39.7620   23.1240   38.3140 N   0  0  0  0  0  0  0  0  0  0  0  0
   38.8040   23.7410   39.0080 C   0  0  0  0  0  0  0  0  0  0  0  0
   37.6370   24.0900   38.4120 N   0  0  0  0  0  0  0  0  0  0  0  0
   38.1540   22.9690   35.0000 N   0  0  0  0  0  0  0  0  0  0  0  0
   38.3170   23.7760   33.8910 C   0  0  0  0  0  0  0  0  0  0  0  0
   37.8450   23.1170   32.8030 N   0  0  0  0  0  0  0  0  0  0  0  0
   37.3890   21.8990   33.2420 C   0  0  0  0  0  0  0  0  0  0  0  0
   37.5850   21.8250   34.5890 N   0  0  0  0  0  0  0  0  0  0  0  0
   40.6730   22.1010   36.3030 C   0  0  0  0  0  0  0  0  0  0  0  0
   41.5430   21.3660   37.0780 C   0  0  0  0  0  0  0  0  0  0  0  0
   42.6000   20.6250   36.6210 C   0  0  0  0  0  0  0  0  0  0  0  0
   42.8500   20.5820   35.3020 N   0  0  0  0  0  0  0  0  0  0  0  0
   42.0280   21.2830   34.5180 C   0  0  0  0  0  0  0  0  0  0  0  0
   41.0190   21.9820   35.0220 N   0  0  0  0  0  0  0  0  0  0  0  0
   36.4778   24.1053   36.6303 H   0  0  0  0  0  0  0  0  0  0  0  0
   38.9621   23.9685   40.0725 H   0  0  0  0  0  0  0  0  0  0  0  0
   38.7561   24.7845   33.8900 H   0  0  0  0  0  0  0  0  0  0  0  0
   36.9412   21.1153   32.6133 H   0  0  0  0  0  0  0  0  0  0  0  0
   41.3728   21.3752   38.1647 H   0  0  0  0  0  0  0  0  0  0  0  0
   43.2372   20.0712   37.3262 H   0  0  0  0  0  0  0  0  0  0  0  0
   42.1906   21.2812   33.4301 H   0  0  0  0  0  0  0  0  0  0  0  0
  1  6  2  0
  2  3  2  0
  2  1  1  0
  3  4  1  0
  4  5  2  0
  6  5  1  0
  7  2  1  0
  8  7  1  0
  9 10  1  0
  9  8  2  0
 10 11  2  0
 11  7  1  0
 12  3  1  0
 12 13  2  0
 14 13  1  0
 15 14  2  0
 16 17  2  0
 16 15  1  0
 17 12  1  0
  1 18  1  0
  5 19  1  0
  8 20  1  0
 10 21  1  0
 13 22  1  0
 14 23  1  0
 16 24  1  0
M  ISO  7  18  14  19  14  20  14  21  14  22  14  23  14  24  14
M  END
>  <minimizedAffinity>  (1) 
-4.08932161

>  <minimizedRMSD>  (1) 
1.58905315

$$$$
