
     RDKit          3D

 22 23  0  0  0  0  0  0  0  0999 V2000
   37.4770   23.9100   37.0720 C   0  0  0  0  0  0  0  0  0  0  0  0
   38.4020   23.2010   36.2730 C   0  0  0  0  0  0  0  0  0  0  0  0
   39.5560   22.7250   36.8670 C   0  0  0  0  0  0  0  0  0  0  0  0
   39.7600   22.9550   38.1920 N   0  0  0  0  0  0  0  0  0  0  0  0
   38.8770   23.6280   38.9360 C   0  0  0  0  0  0  0  0  0  0  0  0
   37.7590   24.0910   38.3690 N   0  0  0  0  0  0  0  0  0  0  0  0
   38.0610   23.0180   34.9310 N   0  0  0  0  0  0  0  0  0  0  0  0
   38.1930   23.7580   33.8240 C   0  0  0  0  0  0  0  0  0  0  0  0
   37.6960   23.1370   32.7470 N   0  0  0  0  0  0  0  0  0  0  0  0
   37.2190   21.9270   33.2030 C   0  0  0  0  0  0  0  0  0  0  0  0
   37.4550   21.8880   34.5280 N   0  0  0  0  0  0  0  0  0  0  0  0
   40.6460   22.0060   36.2200 C   0  0  0  0  0  0  0  0  0  0  0  0
   41.6120   21.4710   37.2350 C   0  0  0  0  0  0  0  0  0  0  0  0
   36.5461   24.3045   36.6386 H   0  0  0  0  0  0  0  0  0  0  0  0
   39.0688   23.7993   40.0055 H   0  0  0  0  0  0  0  0  0  0  0  0
   38.6543   24.7563   33.8015 H   0  0  0  0  0  0  0  0  0  0  0  0
   36.7376   21.1431   32.5998 H   0  0  0  0  0  0  0  0  0  0  0  0
   40.2309   21.1677   35.6412 H   0  0  0  0  0  0  0  0  0  0  0  0
   41.1818   22.7022   35.5581 H   0  0  0  0  0  0  0  0  0  0  0  0
   41.2342   21.6802   38.2467 H   0  0  0  0  0  0  0  0  0  0  0  0
   41.7200   20.3845   37.1014 H   0  0  0  0  0  0  0  0  0  0  0  0
   42.5903   21.9559   37.1014 H   0  0  0  0  0  0  0  0  0  0  0  0
  1  6  2  0
  2  3  2  0
  2  1  1  0
  3  4  1  0
  4  5  2  0
  6  5  1  0
  7  2  1  0
  8  7  1  0
  9 10  1  0
  9  8  2  0
 10 11  2  0
 11  7  1  0
 12  3  1  0
 12 13  1  0
  1 14  1  0
  5 15  1  0
  8 16  1  0
 10 17  1  0
 12 18  1  0
 12 19  1  0
 13 20  1  0
 13 21  1  0
 13 22  1  0
M  ISO  8  14  14  15  14  16  14  17  14  18   8  19   8  20   8  21   8
M  ISO  1  22   8
M  END
>  <minimizedAffinity>  (1) 
-3.71092725

>  <minimizedRMSD>  (1) 
1.48714447

$$$$
