
     RDKit          3D

 28 30  0  0  0  0  0  0  0  0999 V2000
   37.6020   23.3930   36.7300 C   0  0  0  0  0  0  0  0  0  0  0  0
   38.8390   23.0980   36.1140 C   0  0  0  0  0  0  0  0  0  0  0  0
   39.9900   22.9490   36.8830 C   0  0  0  0  0  0  0  0  0  0  0  0
   39.8700   23.1000   38.2280 N   0  0  0  0  0  0  0  0  0  0  0  0
   38.6950   23.3790   38.8060 C   0  0  0  0  0  0  0  0  0  0  0  0
   37.5740   23.5250   38.0730 N   0  0  0  0  0  0  0  0  0  0  0  0
   38.7940   22.9870   34.7000 N   0  0  0  0  0  0  0  0  0  0  0  0
   38.9990   23.9280   33.7170 C   0  0  0  0  0  0  0  0  0  0  0  0
   38.8360   23.3160   32.5090 N   0  0  0  0  0  0  0  0  0  0  0  0
   38.5360   22.0180   32.7530 C   0  0  0  0  0  0  0  0  0  0  0  0
   38.5190   21.8550   34.0920 N   0  0  0  0  0  0  0  0  0  0  0  0
   41.2060   22.6500   36.2040 N   0  0  0  0  0  0  0  0  0  0  0  0
   41.8900   21.4600   35.6720 C   0  0  0  0  0  0  0  0  0  0  0  0
   43.1980   21.5750   36.4510 C   0  0  0  0  0  0  0  0  0  0  0  0
   43.4810   23.0620   36.4520 C   0  0  0  0  0  0  0  0  0  0  0  0
   42.2120   23.6540   35.8250 C   0  0  0  0  0  0  0  0  0  0  0  0
   36.6868   23.5118   36.1314 H   0  0  0  0  0  0  0  0  0  0  0  0
   38.6439   23.4910   39.8991 H   0  0  0  0  0  0  0  0  0  0  0  0
   39.2500   24.9869   33.8772 H   0  0  0  0  0  0  0  0  0  0  0  0
   38.3421   21.2408   31.9991 H   0  0  0  0  0  0  0  0  0  0  0  0
   41.3486   20.5320   35.9080 H   0  0  0  0  0  0  0  0  0  0  0  0
   41.9909   21.4196   34.5774 H   0  0  0  0  0  0  0  0  0  0  0  0
   43.0787   21.1971   37.4771 H   0  0  0  0  0  0  0  0  0  0  0  0
   44.0134   20.9846   36.0075 H   0  0  0  0  0  0  0  0  0  0  0  0
   43.6278   23.4360   37.4760 H   0  0  0  0  0  0  0  0  0  0  0  0
   44.3991   23.3294   35.9083 H   0  0  0  0  0  0  0  0  0  0  0  0
   42.3047   23.7382   34.7321 H   0  0  0  0  0  0  0  0  0  0  0  0
   41.9779   24.6747   36.1617 H   0  0  0  0  0  0  0  0  0  0  0  0
  1  6  2  0
  2  1  1  0
  2  3  2  0
  3  4  1  0
  4  5  2  0
  6  5  1  0
  7  2  1  0
  8  7  1  0
  9 10  1  0
  9  8  2  0
 10 11  2  0
 11  7  1  0
 12  3  1  0
 13 12  1  0
 13 14  1  0
 14 15  1  0
 16 12  1  0
 16 15  1  0
  1 17  1  0
  5 18  1  0
  8 19  1  0
 10 20  1  0
 13 21  1  0
 13 22  1  0
 14 23  1  0
 14 24  1  0
 15 25  1  0
 15 26  1  0
 16 27  1  0
 16 28  1  0
M  ISO  8  17  14  18  14  19  14  20  14  21  13  22  13  23  13  24  13
M  ISO  4  25  13  26  13  27  13  28  13
M  END
>  <minimizedAffinity>  (1) 
-3.71457815

>  <minimizedRMSD>  (1) 
2.56679368

$$$$
