
     RDKit          3D

 22 24  0  0  0  0  0  0  0  0999 V2000
   37.4400   23.7880   37.0810 C   0  0  0  0  0  0  0  0  0  0  0  0
   38.4630   23.1460   36.3260 C   0  0  0  0  0  0  0  0  0  0  0  0
   39.6430   22.7880   36.9410 C   0  0  0  0  0  0  0  0  0  0  0  0
   39.7690   23.0840   38.2770 N   0  0  0  0  0  0  0  0  0  0  0  0
   38.8060   23.6890   38.9770 C   0  0  0  0  0  0  0  0  0  0  0  0
   37.6380   24.0410   38.3840 N   0  0  0  0  0  0  0  0  0  0  0  0
   38.1730   22.9610   34.9620 N   0  0  0  0  0  0  0  0  0  0  0  0
   38.3350   23.7650   33.8570 C   0  0  0  0  0  0  0  0  0  0  0  0
   37.8620   23.1120   32.7610 N   0  0  0  0  0  0  0  0  0  0  0  0
   37.4020   21.8920   33.1990 C   0  0  0  0  0  0  0  0  0  0  0  0
   37.6030   21.8250   34.5340 N   0  0  0  0  0  0  0  0  0  0  0  0
   40.7060   22.0820   36.2240 C   0  0  0  0  0  0  0  0  0  0  0  0
   41.6330   21.3460   36.9620 C   0  0  0  0  0  0  0  0  0  0  0  0
   42.7570   20.6410   35.7650 S   0  0  0  0  0  0  0  0  0  0  0  0
   41.7980   21.4610   34.3440 C   0  0  0  0  0  0  0  0  0  0  0  0
   41.0570   21.9390   34.9930 N   0  0  0  0  0  0  0  0  0  0  0  0
   36.4936   24.0746   36.5991 H   0  0  0  0  0  0  0  0  0  0  0  0
   38.9615   23.9039   40.0445 H   0  0  0  0  0  0  0  0  0  0  0  0
   38.7757   24.7728   33.8594 H   0  0  0  0  0  0  0  0  0  0  0  0
   36.9500   21.1086   32.5729 H   0  0  0  0  0  0  0  0  0  0  0  0
   41.6654   21.2247   38.0548 H   0  0  0  0  0  0  0  0  0  0  0  0
   41.9381   21.4569   33.2530 H   0  0  0  0  0  0  0  0  0  0  0  0
  1  6  2  0
  2  3  2  0
  2  1  1  0
  3  4  1  0
  4  5  2  0
  6  5  1  0
  7  2  1  0
  8  7  1  0
  9 10  1  0
  9  8  2  0
 10 11  2  0
 11  7  1  0
 12  3  1  0
 12 13  2  0
 14 13  1  0
 15 16  2  0
 15 14  1  0
 16 12  1  0
  1 17  1  0
  5 18  1  0
  8 19  1  0
 10 20  1  0
 13 21  1  0
 15 22  1  0
M  ISO  6  17  14  18  14  19  14  20  14  21  14  22  14
M  END
>  <minimizedAffinity>  (1) 
-3.801718

>  <minimizedRMSD>  (1) 
1.80028081

$$$$
