
     RDKit          3D

 29 31  0  0  0  0  0  0  0  0999 V2000
   37.4140   23.2470   37.0490 C   0  0  0  0  0  0  0  0  0  0  0  0
   38.4840   23.0910   36.1650 C   0  0  0  0  0  0  0  0  0  0  0  0
   39.7660   23.0370   36.6830 C   0  0  0  0  0  0  0  0  0  0  0  0
   39.9320   23.1390   38.0320 N   0  0  0  0  0  0  0  0  0  0  0  0
   38.8780   23.2900   38.8570 C   0  0  0  0  0  0  0  0  0  0  0  0
   37.6190   23.3440   38.3620 N   0  0  0  0  0  0  0  0  0  0  0  0
   38.1700   23.0000   34.7960 N   0  0  0  0  0  0  0  0  0  0  0  0
   38.0990   23.9370   33.8000 C   0  0  0  0  0  0  0  0  0  0  0  0
   37.7440   23.3260   32.6380 N   0  0  0  0  0  0  0  0  0  0  0  0
   37.5960   21.9930   32.9270 C   0  0  0  0  0  0  0  0  0  0  0  0
   37.8600   21.8260   34.2420 N   0  0  0  0  0  0  0  0  0  0  0  0
   40.8650   22.8750   35.7960 N   0  0  0  0  0  0  0  0  0  0  0  0
   41.5040   21.7010   35.1840 C   0  0  0  0  0  0  0  0  0  0  0  0
   42.9760   21.6620   35.5150 C   0  0  0  0  0  0  0  0  0  0  0  0
   43.4310   22.7660   36.1820 O   0  0  0  0  0  0  0  0  0  0  0  0
   42.9700   23.9850   35.8120 C   0  0  0  0  0  0  0  0  0  0  0  0
   41.5670   24.0870   35.3450 C   0  0  0  0  0  0  0  0  0  0  0  0
   36.3876   23.2904   36.6557 H   0  0  0  0  0  0  0  0  0  0  0  0
   39.0415   23.3701   39.9418 H   0  0  0  0  0  0  0  0  0  0  0  0
   38.2974   25.0122   33.9205 H   0  0  0  0  0  0  0  0  0  0  0  0
   37.3133   21.2024   32.2163 H   0  0  0  0  0  0  0  0  0  0  0  0
   41.3806   21.7508   34.0921 H   0  0  0  0  0  0  0  0  0  0  0  0
   41.0280   20.7921   35.5807 H   0  0  0  0  0  0  0  0  0  0  0  0
   43.1651   20.7781   36.1419 H   0  0  0  0  0  0  0  0  0  0  0  0
   43.5143   21.6283   34.5563 H   0  0  0  0  0  0  0  0  0  0  0  0
   43.0747   24.6516   36.6807 H   0  0  0  0  0  0  0  0  0  0  0  0
   43.5724   24.2502   34.9307 H   0  0  0  0  0  0  0  0  0  0  0  0
   41.5397   24.1510   34.2472 H   0  0  0  0  0  0  0  0  0  0  0  0
   41.0863   24.9889   35.7519 H   0  0  0  0  0  0  0  0  0  0  0  0
  1  6  2  0
  2  3  2  0
  2  1  1  0
  3  4  1  0
  4  5  2  0
  6  5  1  0
  7  2  1  0
  8  7  1  0
  9 10  1  0
  9  8  2  0
 10 11  2  0
 11  7  1  0
 12  3  1  0
 13 14  1  0
 13 12  1  0
 14 15  1  0
 16 15  1  0
 17 12  1  0
 17 16  1  0
  1 18  1  0
  5 19  1  0
  8 20  1  0
 10 21  1  0
 13 22  1  0
 13 23  1  0
 14 24  1  0
 14 25  1  0
 16 26  1  0
 16 27  1  0
 17 28  1  0
 17 29  1  0
M  ISO  8  18  14  19  14  20  14  21  14  22  13  23  13  24  13  25  13
M  ISO  4  26  13  27  13  28  13  29  13
M  END
>  <minimizedAffinity>  (1) 
-3.72589326

>  <minimizedRMSD>  (1) 
2.06093359

$$$$
