
     RDKit          3D

 48 51  0  0  0  0  0  0  0  0999 V2000
   38.6080   23.7610   36.8500 C   0  0  0  0  0  0  0  0  0  0  0  0
   41.8380   21.8340   36.9160 C   0  0  0  0  0  0  0  0  0  0  0  0
   40.5340   22.1830   37.1780 C   0  0  0  0  0  0  0  0  0  0  0  0
   39.9810   23.3340   36.6140 C   0  0  0  0  0  0  0  0  0  0  0  0
   40.7770   24.0850   35.8050 N   0  0  0  0  0  0  0  0  0  0  0  0
   42.0600   23.7320   35.5530 C   0  0  0  0  0  0  0  0  0  0  0  0
   42.5810   22.6030   36.1140 N   0  0  0  0  0  0  0  0  0  0  0  0
   42.3800   20.5950   37.5430 C   0  0  0  0  0  0  0  0  0  0  0  0
   43.1790   19.7650   36.6180 C   0  0  0  0  0  0  0  0  0  0  0  0
   38.2380   23.3360   38.2540 C   0  0  0  0  0  0  0  0  0  0  0  0
   38.3770   25.2270   36.6360 C   0  0  0  0  0  0  0  0  0  0  0  0
   37.6870   23.0130   35.8860 C   0  0  0  0  0  0  0  0  0  0  0  0
   37.9900   23.2910   34.5150 N   0  0  0  0  0  0  0  0  0  0  0  0
   38.4680   22.4690   33.5430 C   0  0  0  0  0  0  0  0  0  0  0  0
   38.6040   23.1710   32.3840 N   0  0  0  0  0  0  0  0  0  0  0  0
   38.2060   24.4270   32.6460 C   0  0  0  0  0  0  0  0  0  0  0  0
   37.8410   24.4850   33.9260 N   0  0  0  0  0  0  0  0  0  0  0  0
   38.2260   25.4230   31.6290 N   0  0  0  0  0  0  0  0  0  0  0  0
   39.1500   25.3760   30.6250 C   0  0  0  0  0  0  0  0  0  0  0  0
   38.9250   26.4430   29.8170 N   0  0  0  0  0  0  0  0  0  0  0  0
   37.8720   27.1500   30.3070 C   0  0  0  0  0  0  0  0  0  0  0  0
   37.1940   28.3020   29.9290 C   0  0  0  0  0  0  0  0  0  0  0  0
   37.5660   28.9140   28.8950 O   0  0  0  0  0  0  0  0  0  0  0  0
   36.1570   28.7490   30.6620 N   0  0  0  0  0  0  0  0  0  0  0  0
   35.7580   28.0930   31.7690 C   0  0  0  0  0  0  0  0  0  0  0  0
   34.6550   28.6370   32.4800 N   0  0  0  0  0  0  0  0  0  0  0  0
   36.4240   26.9610   32.1420 N   0  0  0  0  0  0  0  0  0  0  0  0
   37.4560   26.4960   31.4340 C   0  0  0  0  0  0  0  0  0  0  0  0
   39.9217   21.5502   37.8373 H   0  0  0  0  0  0  0  0  0  0  0  0
   42.6826   24.3563   34.8953 H   0  0  0  0  0  0  0  0  0  0  0  0
   43.0188   20.8848   38.3903 H   0  0  0  0  0  0  0  0  0  0  0  0
   41.5177   19.9888   37.8575 H   0  0  0  0  0  0  0  0  0  0  0  0
   43.8276   19.0912   37.1971 H   0  0  0  0  0  0  0  0  0  0  0  0
   42.5051   19.1700   35.9841 H   0  0  0  0  0  0  0  0  0  0  0  0
   43.7992   20.4158   35.9841 H   0  0  0  0  0  0  0  0  0  0  0  0
   38.7803   23.9589   38.9806 H   0  0  0  0  0  0  0  0  0  0  0  0
   37.1549   23.4598   38.4011 H   0  0  0  0  0  0  0  0  0  0  0  0
   38.5097   22.2803   38.4011 H   0  0  0  0  0  0  0  0  0  0  0  0
   38.2975   25.7317   37.6101 H   0  0  0  0  0  0  0  0  0  0  0  0
   39.2192   25.6522   36.0704 H   0  0  0  0  0  0  0  0  0  0  0  0
   37.4448   25.3726   36.0704 H   0  0  0  0  0  0  0  0  0  0  0  0
   37.7965   21.9324   36.0598 H   0  0  0  0  0  0  0  0  0  0  0  0
   36.6574   23.3498   36.0767 H   0  0  0  0  0  0  0  0  0  0  0  0
   38.7075   21.4032   33.6726 H   0  0  0  0  0  0  0  0  0  0  0  0
   39.9325   24.6139   30.4950 H   0  0  0  0  0  0  0  0  0  0  0  0
   35.6618   29.6044   30.3724 H   0  0  0  0  0  0  0  0  0  0  0  0
   34.3121   28.1721   33.3328 H   0  0  0  0  0  0  0  0  0  0  0  0
   34.1981   29.4963   32.1427 H   0  0  0  0  0  0  0  0  0  0  0  0
  1 10  1  0
  2  3  2  0
  2  8  1  0
  4  1  1  0
  4  3  1  0
  5  4  2  0
  6  5  1  0
  6  7  2  0
  7  2  1  0
  9  8  1  0
 11  1  1  0
 12  1  1  0
 13 12  1  0
 14 13  1  0
 15 16  1  0
 15 14  2  0
 16 17  2  0
 17 13  1  0
 18 16  1  0
 19 18  1  0
 20 21  1  0
 20 19  2  0
 21 28  2  0
 22 21  1  0
 22 24  1  0
 23 22  2  0
 24 25  1  0
 25 27  2  0
 25 26  1  0
 28 18  1  0
 28 27  1  0
  3 29  1  0
  6 30  1  0
  8 31  1  0
  8 32  1  0
  9 33  1  0
  9 34  1  0
  9 35  1  0
 10 36  1  0
 10 37  1  0
 10 38  1  0
 11 39  1  0
 11 40  1  0
 11 41  1  0
 12 42  1  0
 12 43  1  0
 14 44  1  0
 19 45  1  0
 24 46  1  0
 26 47  1  0
 26 48  1  0
M  ISO  8  29  14  30  14  31   8  32   8  33   8  34   8  35   8  36   8
M  ISO  8  37   8  38   8  39   8  40   8  41   8  42   8  43   8  44  14
M  ISO  2  45  14  46   9
M  END
>  <minimizedAffinity>  (1) 
-5.67603159

>  <minimizedRMSD>  (1) 
1.13703465

$$$$
