
     RDKit          3D

 17 18  0  0  0  0  0  0  0  0999 V2000
   37.1400   22.8420   37.1400 C   0  0  0  0  0  0  0  0  0  0  0  0
   37.9140   22.3440   36.0850 C   0  0  0  0  0  0  0  0  0  0  0  0
   39.3040   22.3690   36.1970 C   0  0  0  0  0  0  0  0  0  0  0  0
   39.8250   22.8870   37.3510 N   0  0  0  0  0  0  0  0  0  0  0  0
   39.0630   23.3570   38.3430 C   0  0  0  0  0  0  0  0  0  0  0  0
   37.7140   23.3330   38.2350 N   0  0  0  0  0  0  0  0  0  0  0  0
   37.2150   21.8440   34.9620 N   0  0  0  0  0  0  0  0  0  0  0  0
   37.3510   22.0350   33.6200 C   0  0  0  0  0  0  0  0  0  0  0  0
   36.4230   21.3190   32.9600 N   0  0  0  0  0  0  0  0  0  0  0  0
   35.6920   20.6660   33.9050 C   0  0  0  0  0  0  0  0  0  0  0  0
   36.1950   21.0010   35.1340 N   0  0  0  0  0  0  0  0  0  0  0  0
   40.0540   21.8730   35.1470 O   0  0  0  0  0  0  0  0  0  0  0  0
   36.0428   22.8271   37.0624 H   0  0  0  0  0  0  0  0  0  0  0  0
   39.5334   23.7646   39.2500 H   0  0  0  0  0  0  0  0  0  0  0  0
   38.1070   22.6788   33.1467 H   0  0  0  0  0  0  0  0  0  0  0  0
   34.8464   19.9887   33.7149 H   0  0  0  0  0  0  0  0  0  0  0  0
   41.0426   21.8781   35.1990 H   0  0  0  0  0  0  0  0  0  0  0  0
  1  6  2  0
  2  3  2  0
  2  1  1  0
  3  4  1  0
  4  5  2  0
  6  5  1  0
  7 11  1  0
  7  2  1  0
  8  7  1  0
  9  8  2  0
  9 10  1  0
 10 11  2  0
 12  3  1  0
  1 13  1  0
  5 14  1  0
  8 15  1  0
 10 16  1  0
 12 17  1  0
M  ISO  5  13  14  14  14  15  14  16  14  17   3
M  END
>  <minimizedAffinity>  (1) 
-3.3796494

>  <minimizedRMSD>  (1) 
0.141992912

$$$$
