
     RDKit          3D

 37 41  0  0  0  0  0  0  0  0999 V2000
   39.6820   22.1340   34.3420 N   0  0  0  0  0  0  0  0  0  0  0  0
   40.9540   21.7730   34.2700 N   0  0  0  0  0  0  0  0  0  0  0  0
   41.2320   21.1410   33.1410 C   0  0  0  0  0  0  0  0  0  0  0  0
   40.0760   21.0860   32.4370 C   0  0  0  0  0  0  0  0  0  0  0  0
   39.0870   21.7110   33.1870 C   0  0  0  0  0  0  0  0  0  0  0  0
   37.6870   21.8770   32.8280 C   0  0  0  0  0  0  0  0  0  0  0  0
   36.9370   20.8080   33.2300 N   0  0  0  0  0  0  0  0  0  0  0  0
   35.6160   20.7570   32.9980 C   0  0  0  0  0  0  0  0  0  0  0  0
   34.9830   21.7710   32.3510 N   0  0  0  0  0  0  0  0  0  0  0  0
   35.6850   22.8420   31.9390 C   0  0  0  0  0  0  0  0  0  0  0  0
   35.1500   23.9350   31.2640 C   0  0  0  0  0  0  0  0  0  0  0  0
   35.9590   24.9890   30.8740 C   0  0  0  0  0  0  0  0  0  0  0  0
   37.3310   25.0060   31.1330 C   0  0  0  0  0  0  0  0  0  0  0  0
   37.8690   23.9260   31.8020 C   0  0  0  0  0  0  0  0  0  0  0  0
   37.0390   22.8970   32.1770 C   0  0  0  0  0  0  0  0  0  0  0  0
   38.4170   24.8510   36.4720 C   0  0  0  0  0  0  0  0  0  0  0  0
   39.1700   24.1660   35.4930 C   0  0  0  0  0  0  0  0  0  0  0  0
   38.9130   22.8250   35.3350 C   0  0  0  0  0  0  0  0  0  0  0  0
   37.9630   22.2070   36.1050 N   0  0  0  0  0  0  0  0  0  0  0  0
   37.2720   22.8990   37.0230 C   0  0  0  0  0  0  0  0  0  0  0  0
   37.4960   24.2140   37.2070 N   0  0  0  0  0  0  0  0  0  0  0  0
   40.1090   24.9260   34.7790 N   0  0  0  0  0  0  0  0  0  0  0  0
   41.4610   25.0880   34.9640 C   0  0  0  0  0  0  0  0  0  0  0  0
   41.9170   25.9330   33.9990 N   0  0  0  0  0  0  0  0  0  0  0  0
   40.8580   26.2770   33.2430 C   0  0  0  0  0  0  0  0  0  0  0  0
   39.7510   25.6460   33.7400 N   0  0  0  0  0  0  0  0  0  0  0  0
   42.2092   20.7395   32.8346 H   0  0  0  0  0  0  0  0  0  0  0  0
   39.9434   20.6273   31.4460 H   0  0  0  0  0  0  0  0  0  0  0  0
   35.0385   19.8838   33.3356 H   0  0  0  0  0  0  0  0  0  0  0  0
   34.0738   23.9620   31.0380 H   0  0  0  0  0  0  0  0  0  0  0  0
   35.5065   25.8397   30.3434 H   0  0  0  0  0  0  0  0  0  0  0  0
   37.9604   25.8503   30.8150 H   0  0  0  0  0  0  0  0  0  0  0  0
   38.9442   23.8892   32.0313 H   0  0  0  0  0  0  0  0  0  0  0  0
   38.5897   25.9253   36.6336 H   0  0  0  0  0  0  0  0  0  0  0  0
   36.5134   22.3863   37.6327 H   0  0  0  0  0  0  0  0  0  0  0  0
   42.0674   24.6181   35.7523 H   0  0  0  0  0  0  0  0  0  0  0  0
   40.8792   26.9507   32.3737 H   0  0  0  0  0  0  0  0  0  0  0  0
  1 18  1  0
  2  1  1  0
  3  2  2  0
  4  3  1  0
  4  5  2  0
  5  1  1  0
  6  5  1  0
  6  7  2  0
  8  7  1  0
  9  8  2  0
 10 15  2  0
 10  9  1  0
 11 10  1  0
 12 13  1  0
 12 11  2  0
 13 14  2  0
 14 15  1  0
 15  6  1  0
 16 21  2  0
 17 16  1  0
 18 17  2  0
 18 19  1  0
 19 20  2  0
 20 21  1  0
 22 23  1  0
 22 17  1  0
 24 23  2  0
 25 26  2  0
 25 24  1  0
 26 22  1  0
  3 27  1  0
  4 28  1  0
  8 29  1  0
 11 30  1  0
 12 31  1  0
 13 32  1  0
 14 33  1  0
 16 34  1  0
 20 35  1  0
 23 36  1  0
 25 37  1  0
M  ISO  8  27  14  28  14  29  14  30  14  31  14  32  14  33  14  34  14
M  ISO  3  35  14  36  14  37  14
M  END
>  <minimizedAffinity>  (1) 
-5.04742813

>  <minimizedRMSD>  (1) 
5.26301575

$$$$
