
     RDKit          3D

 35 38  0  0  0  0  0  0  0  0999 V2000
   37.4470   23.0680   36.8520 C   0  0  0  0  0  0  0  0  0  0  0  0
   38.3360   22.8480   35.7910 C   0  0  0  0  0  0  0  0  0  0  0  0
   39.6890   22.8120   36.0680 C   0  0  0  0  0  0  0  0  0  0  0  0
   40.0940   22.9910   37.3570 N   0  0  0  0  0  0  0  0  0  0  0  0
   39.2320   23.1980   38.3450 C   0  0  0  0  0  0  0  0  0  0  0  0
   37.8930   23.2370   38.0960 N   0  0  0  0  0  0  0  0  0  0  0  0
   37.7560   22.6790   34.5210 N   0  0  0  0  0  0  0  0  0  0  0  0
   37.6850   23.5220   33.4470 C   0  0  0  0  0  0  0  0  0  0  0  0
   37.0140   22.8800   32.4480 N   0  0  0  0  0  0  0  0  0  0  0  0
   36.6790   21.6610   32.9090 C   0  0  0  0  0  0  0  0  0  0  0  0
   37.1420   21.5610   34.1740 N   0  0  0  0  0  0  0  0  0  0  0  0
   40.5810   22.6040   34.9700 N   0  0  0  0  0  0  0  0  0  0  0  0
   40.9740   21.5210   34.3140 N   0  0  0  0  0  0  0  0  0  0  0  0
   41.8290   21.8320   33.3520 C   0  0  0  0  0  0  0  0  0  0  0  0
   42.0010   23.1720   33.3800 C   0  0  0  0  0  0  0  0  0  0  0  0
   41.2040   23.6570   34.4120 C   0  0  0  0  0  0  0  0  0  0  0  0
   41.1650   25.0520   34.6830 N   0  0  0  0  0  0  0  0  0  0  0  0
   42.1120   26.1280   34.8000 C   0  0  0  0  0  0  0  0  0  0  0  0
   41.6030   27.1640   33.7960 C   0  0  0  0  0  0  0  0  0  0  0  0
   40.1030   26.8310   33.7220 C   0  0  0  0  0  0  0  0  0  0  0  0
   40.0160   25.9050   34.9450 C   0  0  0  0  0  0  0  0  0  0  0  0
   36.3654   23.1016   36.6547 H   0  0  0  0  0  0  0  0  0  0  0  0
   39.6011   23.3390   39.3716 H   0  0  0  0  0  0  0  0  0  0  0  0
   38.0972   24.5406   33.3972 H   0  0  0  0  0  0  0  0  0  0  0  0
   36.1279   20.8862   32.3558 H   0  0  0  0  0  0  0  0  0  0  0  0
   42.3110   21.1284   32.6573 H   0  0  0  0  0  0  0  0  0  0  0  0
   42.6465   23.7648   32.7152 H   0  0  0  0  0  0  0  0  0  0  0  0
   42.1161   26.5387   35.8205 H   0  0  0  0  0  0  0  0  0  0  0  0
   43.1464   25.8113   34.6009 H   0  0  0  0  0  0  0  0  0  0  0  0
   41.7670   28.1884   34.1615 H   0  0  0  0  0  0  0  0  0  0  0  0
   42.1136   27.1250   32.8225 H   0  0  0  0  0  0  0  0  0  0  0  0
   39.4735   27.7261   33.8340 H   0  0  0  0  0  0  0  0  0  0  0  0
   39.7550   26.4012   32.7711 H   0  0  0  0  0  0  0  0  0  0  0  0
   39.0761   25.3338   34.9611 H   0  0  0  0  0  0  0  0  0  0  0  0
   40.0241   26.4149   35.9197 H   0  0  0  0  0  0  0  0  0  0  0  0
  1  6  2  0
  2  3  2  0
  2  1  1  0
  3  4  1  0
  4  5  2  0
  6  5  1  0
  7  2  1  0
  8  7  1  0
  9 10  1  0
  9  8  2  0
 10 11  2  0
 11  7  1  0
 12  3  1  0
 13 12  1  0
 14 15  1  0
 14 13  2  0
 15 16  2  0
 16 17  1  0
 16 12  1  0
 17 18  1  0
 17 21  1  0
 19 18  1  0
 20 19  1  0
 20 21  1  0
  1 22  1  0
  5 23  1  0
  8 24  1  0
 10 25  1  0
 14 26  1  0
 15 27  1  0
 18 28  1  0
 18 29  1  0
 19 30  1  0
 19 31  1  0
 20 32  1  0
 20 33  1  0
 21 34  1  0
 21 35  1  0
M  ISO  8  22  14  23  14  24  14  25  14  26  14  27  14  28  13  29  13
M  ISO  6  30  13  31  13  32  13  33  13  34  13  35  13
M  END
>  <minimizedAffinity>  (1) 
-4.21818066

>  <minimizedRMSD>  (1) 
0.823207498

$$$$
