
     RDKit          3D

 28 31  0  0  0  0  0  0  0  0999 V2000
   37.3310   23.0880   36.8720 C   0  0  0  0  0  0  0  0  0  0  0  0
   38.3110   22.8190   35.8990 C   0  0  0  0  0  0  0  0  0  0  0  0
   39.6440   22.8000   36.2810 C   0  0  0  0  0  0  0  0  0  0  0  0
   39.9450   23.0430   37.5840 N   0  0  0  0  0  0  0  0  0  0  0  0
   38.9910   23.2980   38.4960 C   0  0  0  0  0  0  0  0  0  0  0  0
   37.6830   23.3200   38.1460 N   0  0  0  0  0  0  0  0  0  0  0  0
   37.8260   22.5870   34.5860 N   0  0  0  0  0  0  0  0  0  0  0  0
   37.7130   23.4220   33.5080 C   0  0  0  0  0  0  0  0  0  0  0  0
   37.1880   22.7300   32.4730 N   0  0  0  0  0  0  0  0  0  0  0  0
   36.9760   21.4560   32.9180 C   0  0  0  0  0  0  0  0  0  0  0  0
   37.3780   21.3950   34.2230 N   0  0  0  0  0  0  0  0  0  0  0  0
   40.6010   22.5260   35.2760 N   0  0  0  0  0  0  0  0  0  0  0  0
   41.1720   21.4180   34.8260 N   0  0  0  0  0  0  0  0  0  0  0  0
   42.0330   21.6870   33.8390 C   0  0  0  0  0  0  0  0  0  0  0  0
   42.0200   23.0280   33.6380 C   0  0  0  0  0  0  0  0  0  0  0  0
   41.1230   23.5510   34.5380 C   0  0  0  0  0  0  0  0  0  0  0  0
   40.8320   24.9800   34.6280 C   0  0  0  0  0  0  0  0  0  0  0  0
   39.8770   25.6780   35.3020 N   0  0  0  0  0  0  0  0  0  0  0  0
   40.0170   26.9470   35.0730 O   0  0  0  0  0  0  0  0  0  0  0  0
   41.0310   27.1420   34.2680 C   0  0  0  0  0  0  0  0  0  0  0  0
   41.5420   25.9280   33.9880 N   0  0  0  0  0  0  0  0  0  0  0  0
   36.2689   23.1083   36.5864 H   0  0  0  0  0  0  0  0  0  0  0  0
   39.2766   23.4914   39.5405 H   0  0  0  0  0  0  0  0  0  0  0  0
   38.0022   24.4831   33.4873 H   0  0  0  0  0  0  0  0  0  0  0  0
   36.5562   20.6263   32.3303 H   0  0  0  0  0  0  0  0  0  0  0  0
   42.6415   20.9535   33.2897 H   0  0  0  0  0  0  0  0  0  0  0  0
   42.6119   23.5878   32.8989 H   0  0  0  0  0  0  0  0  0  0  0  0
   41.3950   28.1100   33.8931 H   0  0  0  0  0  0  0  0  0  0  0  0
  1  6  2  0
  2  3  2  0
  2  1  1  0
  3  4  1  0
  4  5  2  0
  6  5  1  0
  7  2  1  0
  8  7  1  0
  9 10  1  0
  9  8  2  0
 10 11  2  0
 11  7  1  0
 12  3  1  0
 13 12  1  0
 14 13  2  0
 15 14  1  0
 15 16  2  0
 16 17  1  0
 16 12  1  0
 17 18  2  0
 19 18  1  0
 20 19  1  0
 21 20  2  0
 21 17  1  0
  1 22  1  0
  5 23  1  0
  8 24  1  0
 10 25  1  0
 14 26  1  0
 15 27  1  0
 20 28  1  0
M  ISO  7  22  14  23  14  24  14  25  14  26  14  27  14  28  14
M  END
>  <minimizedAffinity>  (1) 
-3.99939847

>  <minimizedRMSD>  (1) 
0.902232707

$$$$
