
     RDKit          3D

 30 33  0  0  0  0  0  0  0  0999 V2000
   37.3390   23.0400   36.8260 C   0  0  0  0  0  0  0  0  0  0  0  0
   38.3290   23.0200   35.8310 C   0  0  0  0  0  0  0  0  0  0  0  0
   39.6570   23.1390   36.2260 C   0  0  0  0  0  0  0  0  0  0  0  0
   39.9250   23.2700   37.5590 N   0  0  0  0  0  0  0  0  0  0  0  0
   38.9640   23.2860   38.4800 C   0  0  0  0  0  0  0  0  0  0  0  0
   37.6610   23.1710   38.1100 N   0  0  0  0  0  0  0  0  0  0  0  0
   37.8790   22.8780   34.5060 N   0  0  0  0  0  0  0  0  0  0  0  0
   37.7410   23.8130   33.5010 C   0  0  0  0  0  0  0  0  0  0  0  0
   37.2650   23.1770   32.3970 N   0  0  0  0  0  0  0  0  0  0  0  0
   37.1150   21.8710   32.7270 C   0  0  0  0  0  0  0  0  0  0  0  0
   37.4950   21.7170   34.0180 N   0  0  0  0  0  0  0  0  0  0  0  0
   40.6400   23.1160   35.2100 N   0  0  0  0  0  0  0  0  0  0  0  0
   41.2150   22.1510   34.5040 N   0  0  0  0  0  0  0  0  0  0  0  0
   42.1080   22.6430   33.6420 C   0  0  0  0  0  0  0  0  0  0  0  0
   42.1180   23.9920   33.7910 C   0  0  0  0  0  0  0  0  0  0  0  0
   41.1920   24.2790   34.7780 C   0  0  0  0  0  0  0  0  0  0  0  0
   40.9500   25.7060   35.1960 C   0  0  0  0  0  0  0  0  0  0  0  0
   39.8610   26.4790   34.5590 C   0  0  0  0  0  0  0  0  0  0  0  0
   41.3160   26.7790   34.2720 C   0  0  0  0  0  0  0  0  0  0  0  0
   36.2811   22.9459   36.5396 H   0  0  0  0  0  0  0  0  0  0  0  0
   39.2250   23.3926   39.5433 H   0  0  0  0  0  0  0  0  0  0  0  0
   37.9749   24.8850   33.5789 H   0  0  0  0  0  0  0  0  0  0  0  0
   36.7485   21.0749   32.0623 H   0  0  0  0  0  0  0  0  0  0  0  0
   42.7231   22.0614   32.9396 H   0  0  0  0  0  0  0  0  0  0  0  0
   42.7381   24.7127   33.2378 H   0  0  0  0  0  0  0  0  0  0  0  0
   41.2031   25.4655   36.2391 H   0  0  0  0  0  0  0  0  0  0  0  0
   39.2287   26.0138   33.7884 H   0  0  0  0  0  0  0  0  0  0  0  0
   38.9942   27.0558   34.9139 H   0  0  0  0  0  0  0  0  0  0  0  0
   41.7450   26.5369   33.2885 H   0  0  0  0  0  0  0  0  0  0  0  0
   41.9540   27.6733   34.3284 H   0  0  0  0  0  0  0  0  0  0  0  0
  1  6  2  0
  2  3  2  0
  2  1  1  0
  3  4  1  0
  4  5  2  0
  6  5  1  0
  7  2  1  0
  8  7  1  0
  9 10  1  0
  9  8  2  0
 10 11  2  0
 11  7  1  0
 12  3  1  0
 13 12  1  0
 14 15  1  0
 14 13  2  0
 15 16  2  0
 16 17  1  0
 16 12  1  0
 18 17  1  0
 19 18  1  0
 19 17  1  0
  1 20  1  0
  5 21  1  0
  8 22  1  0
 10 23  1  0
 14 24  1  0
 15 25  1  0
 17 26  1  0
 18 27  1  0
 18 28  1  0
 19 29  1  0
 19 30  1  0
M  ISO  8  20  14  21  14  22  14  23  14  24  14  25  14  26  13  27  13
M  ISO  3  28  13  29  13  30  13
M  END
>  <minimizedAffinity>  (1) 
-3.89683676

>  <minimizedRMSD>  (1) 
0.912320077

$$$$
