
     RDKit          3D

 29 32  0  0  0  0  0  0  0  0999 V2000
   37.3100   21.7940   35.2010 C   0  0  0  0  0  0  0  0  0  0  0  0
   37.4700   21.8790   33.8020 C   0  0  0  0  0  0  0  0  0  0  0  0
   38.5640   22.5560   33.3210 C   0  0  0  0  0  0  0  0  0  0  0  0
   39.4430   23.1130   34.2090 N   0  0  0  0  0  0  0  0  0  0  0  0
   39.2680   23.0160   35.5210 C   0  0  0  0  0  0  0  0  0  0  0  0
   38.1940   22.3520   36.0270 N   0  0  0  0  0  0  0  0  0  0  0  0
   36.4730   21.2530   33.0280 N   0  0  0  0  0  0  0  0  0  0  0  0
   35.3280   21.7750   32.4520 C   0  0  0  0  0  0  0  0  0  0  0  0
   34.6920   20.7590   31.8030 N   0  0  0  0  0  0  0  0  0  0  0  0
   35.4350   19.6520   31.9830 C   0  0  0  0  0  0  0  0  0  0  0  0
   36.5180   19.9840   32.7360 N   0  0  0  0  0  0  0  0  0  0  0  0
   38.7080   22.6420   31.8970 N   0  0  0  0  0  0  0  0  0  0  0  0
   39.0690   21.7380   30.9800 N   0  0  0  0  0  0  0  0  0  0  0  0
   39.0700   22.2550   29.7630 C   0  0  0  0  0  0  0  0  0  0  0  0
   38.6940   23.5470   29.9060 C   0  0  0  0  0  0  0  0  0  0  0  0
   38.4610   23.8070   31.2590 C   0  0  0  0  0  0  0  0  0  0  0  0
   38.0320   25.1050   31.8380 C   0  0  0  0  0  0  0  0  0  0  0  0
   36.6310   25.3460   32.0440 C   0  0  0  0  0  0  0  0  0  0  0  0
   36.7080   27.0760   32.7670 S   0  0  0  0  0  0  0  0  0  0  0  0
   38.6020   27.1140   32.6420 C   0  0  0  0  0  0  0  0  0  0  0  0
   38.8980   26.0420   32.1690 N   0  0  0  0  0  0  0  0  0  0  0  0
   36.4429   21.2593   35.6159 H   0  0  0  0  0  0  0  0  0  0  0  0
   39.9969   23.4760   36.2044 H   0  0  0  0  0  0  0  0  0  0  0  0
   34.9919   22.8209   32.5078 H   0  0  0  0  0  0  0  0  0  0  0  0
   35.2061   18.6508   31.5891 H   0  0  0  0  0  0  0  0  0  0  0  0
   39.3247   21.7397   28.8251 H   0  0  0  0  0  0  0  0  0  0  0  0
   38.5887   24.2755   29.0885 H   0  0  0  0  0  0  0  0  0  0  0  0
   35.7633   24.7022   31.8375 H   0  0  0  0  0  0  0  0  0  0  0  0
   39.2791   27.9299   32.9348 H   0  0  0  0  0  0  0  0  0  0  0  0
  1  6  2  0
  2  1  1  0
  3  2  2  0
  3  4  1  0
  4  5  2  0
  5  6  1  0
  7  2  1  0
  8  7  1  0
  9 10  1  0
  9  8  2  0
 10 11  2  0
 11  7  1  0
 12  3  1  0
 13 12  1  0
 14 15  1  0
 14 13  2  0
 15 16  2  0
 16 17  1  0
 16 12  1  0
 17 18  2  0
 17 21  1  0
 18 19  1  0
 20 19  1  0
 21 20  2  0
  1 22  1  0
  5 23  1  0
  8 24  1  0
 10 25  1  0
 14 26  1  0
 15 27  1  0
 18 28  1  0
 20 29  1  0
M  ISO  8  22  14  23  14  24  14  25  14  26  14  27  14  28  14  29  14
M  END
>  <minimizedAffinity>  (1) 
-3.84248805

>  <minimizedRMSD>  (1) 
4.25102425

$$$$
