
     RDKit          3D

 32 34  0  0  0  0  0  0  0  0999 V2000
   37.4750   22.4210   36.1370 C   0  0  0  0  0  0  0  0  0  0  0  0
   38.1220   23.0840   35.0860 C   0  0  0  0  0  0  0  0  0  0  0  0
   38.6260   24.3480   35.3140 C   0  0  0  0  0  0  0  0  0  0  0  0
   38.4700   24.8930   36.5560 N   0  0  0  0  0  0  0  0  0  0  0  0
   37.8490   24.2410   37.5410 C   0  0  0  0  0  0  0  0  0  0  0  0
   37.3480   23.0000   37.3340 N   0  0  0  0  0  0  0  0  0  0  0  0
   38.1980   22.3770   33.8610 N   0  0  0  0  0  0  0  0  0  0  0  0
   37.3500   22.3300   32.7920 C   0  0  0  0  0  0  0  0  0  0  0  0
   37.8930   21.4940   31.8640 N   0  0  0  0  0  0  0  0  0  0  0  0
   39.0620   21.0350   32.3640 C   0  0  0  0  0  0  0  0  0  0  0  0
   39.2230   21.5930   33.5880 N   0  0  0  0  0  0  0  0  0  0  0  0
   39.2780   25.0000   34.2330 N   0  0  0  0  0  0  0  0  0  0  0  0
   40.5330   24.9990   33.7790 N   0  0  0  0  0  0  0  0  0  0  0  0
   40.6520   25.7910   32.7120 C   0  0  0  0  0  0  0  0  0  0  0  0
   39.4250   26.3290   32.4610 C   0  0  0  0  0  0  0  0  0  0  0  0
   38.5680   25.8290   33.4200 C   0  0  0  0  0  0  0  0  0  0  0  0
   37.1240   26.1990   33.4640 C   0  0  0  0  0  0  0  0  0  0  0  0
   36.4590   26.1470   32.1210 C   0  0  0  0  0  0  0  0  0  0  0  0
   36.9950   27.5500   34.1330 C   0  0  0  0  0  0  0  0  0  0  0  0
   37.0671   21.4124   35.9746 H   0  0  0  0  0  0  0  0  0  0  0  0
   37.7433   24.7150   38.5280 H   0  0  0  0  0  0  0  0  0  0  0  0
   36.3972   22.8714   32.6971 H   0  0  0  0  0  0  0  0  0  0  0  0
   39.7541   20.3379   31.8690 H   0  0  0  0  0  0  0  0  0  0  0  0
   41.5726   25.9761   32.1391 H   0  0  0  0  0  0  0  0  0  0  0  0
   39.1677   27.0269   31.6506 H   0  0  0  0  0  0  0  0  0  0  0  0
   36.5830   25.4481   34.0585 H   0  0  0  0  0  0  0  0  0  0  0  0
   35.3704   26.0619   32.2539 H   0  0  0  0  0  0  0  0  0  0  0  0
   36.6894   27.0659   31.5619 H   0  0  0  0  0  0  0  0  0  0  0  0
   36.8294   25.2751   31.5619 H   0  0  0  0  0  0  0  0  0  0  0  0
   37.0073   27.4209   35.2253 H   0  0  0  0  0  0  0  0  0  0  0  0
   37.8360   28.1910   33.8300 H   0  0  0  0  0  0  0  0  0  0  0  0
   36.0479   28.0203   33.8300 H   0  0  0  0  0  0  0  0  0  0  0  0
  1  6  2  0
  2  3  2  0
  2  1  1  0
  3  4  1  0
  4  5  2  0
  6  5  1  0
  7  2  1  0
  8  7  1  0
  9 10  1  0
  9  8  2  0
 10 11  2  0
 11  7  1  0
 12  3  1  0
 13 12  1  0
 14 13  2  0
 15 14  1  0
 15 16  2  0
 16 17  1  0
 16 12  1  0
 17 19  1  0
 18 17  1  0
  1 20  1  0
  5 21  1  0
  8 22  1  0
 10 23  1  0
 14 24  1  0
 15 25  1  0
 17 26  1  0
 18 27  1  0
 18 28  1  0
 18 29  1  0
 19 30  1  0
 19 31  1  0
 19 32  1  0
M  ISO  8  20  14  21  14  22  14  23  14  24  14  25  14  26   8  27   8
M  ISO  5  28   8  29   8  30   8  31   8  32   8
M  END
>  <minimizedAffinity>  (1) 
-3.84303164

>  <minimizedRMSD>  (1) 
3.3663671

$$$$
