
     RDKit          3D

 40 43  0  0  1  0  0  0  0  0999 V2000
   39.2830   24.9450   34.1610 N   0  0  0  0  0  0  0  0  0  0  0  0
   40.5310   24.9070   33.6820 N   0  0  0  0  0  0  0  0  0  0  0  0
   40.6420   25.6910   32.6080 C   0  0  0  0  0  0  0  0  0  0  0  0
   39.4220   26.2610   32.3810 C   0  0  0  0  0  0  0  0  0  0  0  0
   38.5690   25.7820   33.3680 C   0  0  0  0  0  0  0  0  0  0  0  0
   37.4750   22.4390   36.1560 C   0  0  0  0  0  0  0  0  0  0  0  0
   38.1070   23.0650   35.0780 C   0  0  0  0  0  0  0  0  0  0  0  0
   38.6380   24.3120   35.2690 C   0  0  0  0  0  0  0  0  0  0  0  0
   38.5250   24.8860   36.5110 N   0  0  0  0  0  0  0  0  0  0  0  0
   37.9210   24.2730   37.5210 C   0  0  0  0  0  0  0  0  0  0  0  0
   37.3950   23.0450   37.3430 N   0  0  0  0  0  0  0  0  0  0  0  0
   38.1430   22.3400   33.8580 N   0  0  0  0  0  0  0  0  0  0  0  0
   37.2550   22.2750   32.8220 C   0  0  0  0  0  0  0  0  0  0  0  0
   37.7700   21.4270   31.8870 N   0  0  0  0  0  0  0  0  0  0  0  0
   38.9540   20.9810   32.3480 C   0  0  0  0  0  0  0  0  0  0  0  0
   39.1610   21.5560   33.5600 N   0  0  0  0  0  0  0  0  0  0  0  0
   37.1400   26.1820   33.4290 C   0  0  2  0  0  0  0  0  0  0  0  0
   36.4300   26.0930   32.1270 C   0  0  0  0  0  0  0  0  0  0  0  0
   37.0750   27.5730   34.0530 C   0  0  0  0  0  0  0  0  0  0  0  0
   36.4720   28.4470   33.0100 C   0  0  0  0  0  0  0  0  0  0  0  0
   35.1960   28.9520   33.2490 C   0  0  0  0  0  0  0  0  0  0  0  0
   34.5780   29.7780   32.3080 C   0  0  0  0  0  0  0  0  0  0  0  0
   35.1820   30.1140   31.1500 N   0  0  0  0  0  0  0  0  0  0  0  0
   36.4260   29.5980   30.9610 C   0  0  0  0  0  0  0  0  0  0  0  0
   37.0350   28.8100   31.8420 N   0  0  0  0  0  0  0  0  0  0  0  0
   41.5530   25.8497   32.0122 H   0  0  0  0  0  0  0  0  0  0  0  0
   39.1646   26.9627   31.5740 H   0  0  0  0  0  0  0  0  0  0  0  0
   37.0393   21.4375   36.0252 H   0  0  0  0  0  0  0  0  0  0  0  0
   37.8497   24.7662   38.5017 H   0  0  0  0  0  0  0  0  0  0  0  0
   36.2966   22.8106   32.7543 H   0  0  0  0  0  0  0  0  0  0  0  0
   39.6294   20.2795   31.8364 H   0  0  0  0  0  0  0  0  0  0  0  0
   36.5943   25.4626   34.0572 H   0  0  0  0  0  0  0  0  0  0  0  0
   35.3530   25.9580   32.3052 H   0  0  0  0  0  0  0  0  0  0  0  0
   36.5940   27.0187   31.5559 H   0  0  0  0  0  0  0  0  0  0  0  0
   36.8174   25.2364   31.5559 H   0  0  0  0  0  0  0  0  0  0  0  0
   36.4461   27.5609   34.9554 H   0  0  0  0  0  0  0  0  0  0  0  0
   38.0689   27.9298   34.3608 H   0  0  0  0  0  0  0  0  0  0  0  0
   34.6730   28.6990   34.1830 H   0  0  0  0  0  0  0  0  0  0  0  0
   33.5700   30.1656   32.5171 H   0  0  0  0  0  0  0  0  0  0  0  0
   36.9566   29.8457   30.0298 H   0  0  0  0  0  0  0  0  0  0  0  0
  1  8  1  0
  2  1  1  0
  3  2  2  0
  4  3  1  0
  4  5  2  0
  5 17  1  0
  5  1  1  0
  6 11  2  0
  7  8  2  0
  7  6  1  0
  8  9  1  0
  9 10  2  0
 11 10  1  0
 12  7  1  0
 13 12  1  0
 14 15  1  0
 14 13  2  0
 15 16  2  0
 16 12  1  0
 17 19  1  0
 18 17  1  0
 20 21  2  0
 20 19  1  0
 22 21  1  0
 23 22  2  0
 24 23  1  0
 24 25  2  0
 25 20  1  0
  3 26  1  0
  4 27  1  0
  6 28  1  0
 10 29  1  0
 13 30  1  0
 15 31  1  0
 17 32  1  1
 18 33  1  0
 18 34  1  0
 18 35  1  0
 19 36  1  0
 19 37  1  0
 21 38  1  0
 22 39  1  0
 24 40  1  0
M  ISO  8  26  14  27  14  28  14  29  14  30  14  31  14  32   8  33   8
M  ISO  7  34   8  35   8  36   8  37   8  38  14  39  14  40  14
M  END
>  <minimizedAffinity>  (1) 
-4.63420057

>  <minimizedRMSD>  (1) 
1.58131075

$$$$
