
     RDKit          3D

 46 49  0  0  1  0  0  0  0  0999 V2000
   39.2610   24.4120   33.5680 N   0  0  0  0  0  0  0  0  0  0  0  0
   40.4100   24.1810   32.9350 N   0  0  0  0  0  0  0  0  0  0  0  0
   40.4770   24.9050   31.8110 C   0  0  0  0  0  0  0  0  0  0  0  0
   39.3230   25.6300   31.7190 C   0  0  0  0  0  0  0  0  0  0  0  0
   38.5680   25.3170   32.8200 C   0  0  0  0  0  0  0  0  0  0  0  0
   37.4070   22.2540   35.9090 C   0  0  0  0  0  0  0  0  0  0  0  0
   37.9670   22.7490   34.7200 C   0  0  0  0  0  0  0  0  0  0  0  0
   38.6990   23.9190   34.7760 C   0  0  0  0  0  0  0  0  0  0  0  0
   38.8410   24.5380   35.9970 N   0  0  0  0  0  0  0  0  0  0  0  0
   38.2910   24.0360   37.1110 C   0  0  0  0  0  0  0  0  0  0  0  0
   37.5720   22.8890   37.0630 N   0  0  0  0  0  0  0  0  0  0  0  0
   37.7270   21.9940   33.5530 N   0  0  0  0  0  0  0  0  0  0  0  0
   36.6590   21.9660   32.6970 C   0  0  0  0  0  0  0  0  0  0  0  0
   36.9350   21.0560   31.7230 N   0  0  0  0  0  0  0  0  0  0  0  0
   38.1550   20.5360   31.9800 C   0  0  0  0  0  0  0  0  0  0  0  0
   38.6250   21.1290   33.1120 N   0  0  0  0  0  0  0  0  0  0  0  0
   37.2080   25.9150   33.0650 C   0  0  2  0  0  0  0  0  0  0  0  0
   36.2390   25.6000   31.9640 C   0  0  0  0  0  0  0  0  0  0  0  0
   37.3940   27.3980   33.3060 C   0  0  0  0  0  0  0  0  0  0  0  0
   36.4500   28.2540   32.7070 N   0  0  0  0  0  0  0  0  0  0  0  0
   36.8830   28.9750   31.5480 C   0  0  0  0  0  0  0  0  0  0  0  0
   36.0920   30.2240   31.3040 C   0  0  0  0  0  0  0  0  0  0  0  0
   34.7160   30.1750   31.6390 N   0  0  0  0  0  0  0  0  0  0  0  0
   34.3240   29.2700   32.6690 C   0  0  0  0  0  0  0  0  0  0  0  0
   35.5410   28.9630   33.5460 C   0  0  0  0  0  0  0  0  0  0  0  0
   41.3097   24.9144   31.0923 H   0  0  0  0  0  0  0  0  0  0  0  0
   39.0514   26.3306   30.9157 H   0  0  0  0  0  0  0  0  0  0  0  0
   36.8211   21.3234   35.8836 H   0  0  0  0  0  0  0  0  0  0  0  0
   38.4241   24.5583   38.0699 H   0  0  0  0  0  0  0  0  0  0  0  0
   35.7433   22.5697   32.7811 H   0  0  0  0  0  0  0  0  0  0  0  0
   38.6745   19.7720   31.3830 H   0  0  0  0  0  0  0  0  0  0  0  0
   36.7482   25.4645   33.9570 H   0  0  0  0  0  0  0  0  0  0  0  0
   35.2783   25.2877   32.3993 H   0  0  0  0  0  0  0  0  0  0  0  0
   36.0864   26.4948   31.3427 H   0  0  0  0  0  0  0  0  0  0  0  0
   36.6418   24.7865   31.3427 H   0  0  0  0  0  0  0  0  0  0  0  0
   37.3573   27.5675   34.3922 H   0  0  0  0  0  0  0  0  0  0  0  0
   38.3562   27.6513   32.8370 H   0  0  0  0  0  0  0  0  0  0  0  0
   37.9397   29.2501   31.6812 H   0  0  0  0  0  0  0  0  0  0  0  0
   36.7353   28.3178   30.6784 H   0  0  0  0  0  0  0  0  0  0  0  0
   36.5512   31.0312   31.8935 H   0  0  0  0  0  0  0  0  0  0  0  0
   36.1219   30.3803   30.2156 H   0  0  0  0  0  0  0  0  0  0  0  0
   34.4362   31.1209   31.9356 H   0  0  0  0  0  0  0  0  0  0  0  0
   33.5329   29.7272   33.2815 H   0  0  0  0  0  0  0  0  0  0  0  0
   33.9405   28.3403   32.2234 H   0  0  0  0  0  0  0  0  0  0  0  0
   35.2480   28.3422   34.4055 H   0  0  0  0  0  0  0  0  0  0  0  0
   35.9925   29.8807   33.9508 H   0  0  0  0  0  0  0  0  0  0  0  0
  1  8  1  0
  2  1  1  0
  3  2  2  0
  4  3  1  0
  4  5  2  0
  5 17  1  0
  5  1  1  0
  6 11  2  0
  7  8  2  0
  7  6  1  0
  8  9  1  0
  9 10  2  0
 11 10  1  0
 12  7  1  0
 13 12  1  0
 14 15  1  0
 14 13  2  0
 15 16  2  0
 16 12  1  0
 17 19  1  0
 18 17  1  0
 20 19  1  0
 20 25  1  0
 21 20  1  0
 22 21  1  0
 22 23  1  0
 23 24  1  0
 24 25  1  0
  3 26  1  0
  4 27  1  0
  6 28  1  0
 10 29  1  0
 13 30  1  0
 15 31  1  0
 17 32  1  1
 18 33  1  0
 18 34  1  0
 18 35  1  0
 19 36  1  0
 19 37  1  0
 21 38  1  0
 21 39  1  0
 22 40  1  0
 22 41  1  0
 23 42  1  0
 24 43  1  0
 24 44  1  0
 25 45  1  0
 25 46  1  0
M  ISO  8  26  14  27  14  28  14  29  14  30  14  31  14  32   8  33   8
M  ISO  8  34   8  35   8  36   8  37   8  38  13  39  13  40  13  41  13
M  ISO  5  42   5  43  13  44  13  45  13  46  13
M  END
>  <minimizedAffinity>  (1) 
-4.48186255

>  <minimizedRMSD>  (1) 
1.50027406

$$$$
