
     RDKit          3D

 47 50  0  0  1  0  0  0  0  0999 V2000
   38.7090   24.6130   34.6680 N   0  0  0  0  0  0  0  0  0  0  0  0
   37.9920   25.7230   34.8620 N   0  0  0  0  0  0  0  0  0  0  0  0
   37.2110   25.9710   33.8010 C   0  0  0  0  0  0  0  0  0  0  0  0
   37.4360   24.9840   32.8930 C   0  0  0  0  0  0  0  0  0  0  0  0
   38.3770   24.1350   33.4450 C   0  0  0  0  0  0  0  0  0  0  0  0
   41.9410   23.5330   36.0410 C   0  0  0  0  0  0  0  0  0  0  0  0
   40.9910   24.2100   35.2810 C   0  0  0  0  0  0  0  0  0  0  0  0
   39.6650   23.9090   35.4540 C   0  0  0  0  0  0  0  0  0  0  0  0
   39.3300   22.9470   36.3760 N   0  0  0  0  0  0  0  0  0  0  0  0
   40.2600   22.3090   37.0960 C   0  0  0  0  0  0  0  0  0  0  0  0
   41.5690   22.6010   36.9300 N   0  0  0  0  0  0  0  0  0  0  0  0
   41.4920   25.1770   34.3730 N   0  0  0  0  0  0  0  0  0  0  0  0
   42.0330   25.0490   33.1240 C   0  0  0  0  0  0  0  0  0  0  0  0
   42.3570   26.2970   32.6810 N   0  0  0  0  0  0  0  0  0  0  0  0
   42.0190   27.1740   33.6460 C   0  0  0  0  0  0  0  0  0  0  0  0
   41.4890   26.4740   34.6800 N   0  0  0  0  0  0  0  0  0  0  0  0
   38.8660   22.9450   32.7000 C   0  0  2  0  0  0  0  0  0  0  0  0
   38.8980   23.1190   31.2220 C   0  0  0  0  0  0  0  0  0  0  0  0
   38.0630   21.7360   33.1590 C   0  0  0  0  0  0  0  0  0  0  0  0
   37.1130   21.2950   32.1810 N   0  0  0  0  0  0  0  0  0  0  0  0
   37.2860   19.9240   31.7750 C   0  0  0  0  0  0  0  0  0  0  0  0
   35.9940   19.5490   31.0550 C   0  0  0  0  0  0  0  0  0  0  0  0
   35.0320   19.1110   32.1710 C   0  0  0  0  0  0  0  0  0  0  0  0
   35.3330   20.0160   33.3350 C   0  0  0  0  0  0  0  0  0  0  0  0
   35.8000   21.3520   32.8300 C   0  0  0  0  0  0  0  0  0  0  0  0
   36.5167   26.8164   33.6862 H   0  0  0  0  0  0  0  0  0  0  0  0
   36.9598   24.8808   31.9068 H   0  0  0  0  0  0  0  0  0  0  0  0
   43.0083   23.7653   35.9106 H   0  0  0  0  0  0  0  0  0  0  0  0
   39.9578   21.5437   37.8260 H   0  0  0  0  0  0  0  0  0  0  0  0
   42.1805   24.1074   32.5747 H   0  0  0  0  0  0  0  0  0  0  0  0
   42.1497   28.2654   33.6031 H   0  0  0  0  0  0  0  0  0  0  0  0
   39.9276   22.7885   32.9419 H   0  0  0  0  0  0  0  0  0  0  0  0
   39.0921   24.1746   30.9812 H   0  0  0  0  0  0  0  0  0  0  0  0
   39.6961   22.4930   30.7963 H   0  0  0  0  0  0  0  0  0  0  0  0
   37.9294   22.8179   30.7963 H   0  0  0  0  0  0  0  0  0  0  0  0
   38.7595   20.9109   33.3691 H   0  0  0  0  0  0  0  0  0  0  0  0
   37.5001   22.0341   34.0558 H   0  0  0  0  0  0  0  0  0  0  0  0
   38.1464   19.8292   31.0962 H   0  0  0  0  0  0  0  0  0  0  0  0
   37.4824   19.2647   32.6333 H   0  0  0  0  0  0  0  0  0  0  0  0
   35.5881   20.4153   30.5121 H   0  0  0  0  0  0  0  0  0  0  0  0
   36.1509   18.7562   30.3088 H   0  0  0  0  0  0  0  0  0  0  0  0
   33.9874   19.2329   31.8486 H   0  0  0  0  0  0  0  0  0  0  0  0
   35.1636   18.0506   32.4322 H   0  0  0  0  0  0  0  0  0  0  0  0
   34.4231   20.1508   33.9383 H   0  0  0  0  0  0  0  0  0  0  0  0
   36.1225   19.5640   33.9534 H   0  0  0  0  0  0  0  0  0  0  0  0
   35.8601   22.0463   33.6811 H   0  0  0  0  0  0  0  0  0  0  0  0
   35.0751   21.6883   32.0741 H   0  0  0  0  0  0  0  0  0  0  0  0
  1  2  1  0
  1  8  1  0
  3  2  2  0
  4  5  2  0
  4  3  1  0
  5  1  1  0
  6 11  2  0
  7  8  2  0
  7  6  1  0
  8  9  1  0
  9 10  2  0
 11 10  1  0
 12 16  1  0
 12  7  1  0
 13 12  1  0
 14 13  2  0
 14 15  1  0
 15 16  2  0
 17 19  1  0
 17  5  1  0
 18 17  1  0
 20 25  1  0
 20 19  1  0
 21 20  1  0
 22 21  1  0
 22 23  1  0
 23 24  1  0
 25 24  1  0
  3 26  1  0
  4 27  1  0
  6 28  1  0
 10 29  1  0
 13 30  1  0
 15 31  1  0
 17 32  1  1
 18 33  1  0
 18 34  1  0
 18 35  1  0
 19 36  1  0
 19 37  1  0
 21 38  1  0
 21 39  1  0
 22 40  1  0
 22 41  1  0
 23 42  1  0
 23 43  1  0
 24 44  1  0
 24 45  1  0
 25 46  1  0
 25 47  1  0
M  ISO  8  26  14  27  14  28  14  29  14  30  14  31  14  32   8  33   8
M  ISO  8  34   8  35   8  36   8  37   8  38  13  39  13  40  13  41  13
M  ISO  6  42  13  43  13  44  13  45  13  46  13  47  13
M  END
>  <minimizedAffinity>  (1) 
-4.66916943

>  <minimizedRMSD>  (1) 
5.37196636

$$$$
