
     RDKit          3D

 38 41  0  0  1  0  0  0  0  0999 V2000
   39.2300   24.7700   33.8510 N   0  0  0  0  0  0  0  0  0  0  0  0
   40.4370   24.6830   33.3100 N   0  0  0  0  0  0  0  0  0  0  0  0
   40.5140   25.4090   32.2010 C   0  0  0  0  0  0  0  0  0  0  0  0
   39.2980   25.9990   32.0070 C   0  0  0  0  0  0  0  0  0  0  0  0
   38.4880   25.5880   33.0590 C   0  0  0  0  0  0  0  0  0  0  0  0
   37.4420   22.4230   36.0480 C   0  0  0  0  0  0  0  0  0  0  0  0
   38.0360   22.9810   34.9090 C   0  0  0  0  0  0  0  0  0  0  0  0
   38.6290   24.2110   35.0130 C   0  0  0  0  0  0  0  0  0  0  0  0
   38.6090   24.8370   36.2380 N   0  0  0  0  0  0  0  0  0  0  0  0
   38.0340   24.2800   37.3090 C   0  0  0  0  0  0  0  0  0  0  0  0
   37.4470   23.0680   37.2170 N   0  0  0  0  0  0  0  0  0  0  0  0
   37.9710   22.2050   33.7210 N   0  0  0  0  0  0  0  0  0  0  0  0
   37.0080   22.1070   32.7610 C   0  0  0  0  0  0  0  0  0  0  0  0
   37.4350   21.2190   31.8260 N   0  0  0  0  0  0  0  0  0  0  0  0
   38.6530   20.7780   32.2130 C   0  0  0  0  0  0  0  0  0  0  0  0
   38.9610   21.3980   33.3810 N   0  0  0  0  0  0  0  0  0  0  0  0
   37.0730   26.0320   33.1700 C   0  0  2  0  0  0  0  0  0  0  0  0
   36.2920   25.9120   31.9120 C   0  0  0  0  0  0  0  0  0  0  0  0
   37.0720   27.4480   33.7430 C   0  0  0  0  0  0  0  0  0  0  0  0
   36.5680   28.3070   32.6870 N   0  0  0  0  0  0  0  0  0  0  0  0
   35.3090   28.8320   32.6950 C   0  0  0  0  0  0  0  0  0  0  0  0
   35.1440   29.5890   31.5740 N   0  0  0  0  0  0  0  0  0  0  0  0
   36.2970   29.5300   30.8780 C   0  0  0  0  0  0  0  0  0  0  0  0
   37.1410   28.7480   31.5750 N   0  0  0  0  0  0  0  0  0  0  0  0
   41.3979   25.5159   31.5551 H   0  0  0  0  0  0  0  0  0  0  0  0
   39.0151   26.6679   31.1808 H   0  0  0  0  0  0  0  0  0  0  0  0
   36.9626   21.4354   35.9782 H   0  0  0  0  0  0  0  0  0  0  0  0
   38.0394   24.8129   38.2713 H   0  0  0  0  0  0  0  0  0  0  0  0
   36.0524   22.6517   32.7462 H   0  0  0  0  0  0  0  0  0  0  0  0
   39.2804   20.0494   31.6787 H   0  0  0  0  0  0  0  0  0  0  0  0
   36.5432   25.3495   33.8509 H   0  0  0  0  0  0  0  0  0  0  0  0
   35.2312   25.7490   32.1531 H   0  0  0  0  0  0  0  0  0  0  0  0
   36.3969   26.8368   31.3257 H   0  0  0  0  0  0  0  0  0  0  0  0
   36.6696   25.0613   31.3257 H   0  0  0  0  0  0  0  0  0  0  0  0
   36.4173   27.5028   34.6253 H   0  0  0  0  0  0  0  0  0  0  0  0
   38.0788   27.7532   34.0643 H   0  0  0  0  0  0  0  0  0  0  0  0
   34.5522   28.6709   33.4769 H   0  0  0  0  0  0  0  0  0  0  0  0
   36.5080   30.0278   29.9201 H   0  0  0  0  0  0  0  0  0  0  0  0
  1  8  1  0
  2  1  1  0
  3  2  2  0
  4  3  1  0
  4  5  2  0
  5 17  1  0
  5  1  1  0
  6 11  2  0
  7  8  2  0
  7  6  1  0
  8  9  1  0
  9 10  2  0
 11 10  1  0
 12  7  1  0
 13 12  1  0
 14 15  1  0
 14 13  2  0
 15 16  2  0
 16 12  1  0
 17 19  1  0
 18 17  1  0
 20 21  1  0
 20 19  1  0
 22 21  2  0
 23 22  1  0
 23 24  2  0
 24 20  1  0
  3 25  1  0
  4 26  1  0
  6 27  1  0
 10 28  1  0
 13 29  1  0
 15 30  1  0
 17 31  1  1
 18 32  1  0
 18 33  1  0
 18 34  1  0
 19 35  1  0
 19 36  1  0
 21 37  1  0
 23 38  1  0
M  ISO  8  25  14  26  14  27  14  28  14  29  14  30  14  31   8  32   8
M  ISO  6  33   8  34   8  35   8  36   8  37  14  38  14
M  END
>  <minimizedAffinity>  (1) 
-4.38584232

>  <minimizedRMSD>  (1) 
1.51083601

$$$$
