
     RDKit          3D

 48 50  0  0  0  0  0  0  0  0999 V2000
   38.7240   23.5700   37.1170 C   0  0  0  0  0  0  0  0  0  0  0  0
   41.9520   21.6850   36.8970 C   0  0  0  0  0  0  0  0  0  0  0  0
   40.6710   22.0250   37.2910 C   0  0  0  0  0  0  0  0  0  0  0  0
   40.0580   23.1570   36.7520 C   0  0  0  0  0  0  0  0  0  0  0  0
   40.7580   23.8830   35.8540 N   0  0  0  0  0  0  0  0  0  0  0  0
   42.0080   23.5460   35.4740 C   0  0  0  0  0  0  0  0  0  0  0  0
   42.5990   22.4400   36.0040 N   0  0  0  0  0  0  0  0  0  0  0  0
   42.5730   20.4650   37.4980 C   0  0  0  0  0  0  0  0  0  0  0  0
   43.1830   19.5630   36.4900 C   0  0  0  0  0  0  0  0  0  0  0  0
   38.5650   23.3770   38.6240 C   0  0  0  0  0  0  0  0  0  0  0  0
   38.3800   24.9960   36.7560 C   0  0  0  0  0  0  0  0  0  0  0  0
   37.6940   22.6710   36.4270 C   0  0  0  0  0  0  0  0  0  0  0  0
   37.7970   22.7430   35.0010 N   0  0  0  0  0  0  0  0  0  0  0  0
   38.1680   21.8010   34.1010 C   0  0  0  0  0  0  0  0  0  0  0  0
   38.1180   22.3200   32.8370 N   0  0  0  0  0  0  0  0  0  0  0  0
   37.7120   23.5910   32.9780 C   0  0  0  0  0  0  0  0  0  0  0  0
   37.5230   23.8350   34.2720 N   0  0  0  0  0  0  0  0  0  0  0  0
   37.5230   24.5060   31.9050 N   0  0  0  0  0  0  0  0  0  0  0  0
   38.2690   25.7650   31.8080 C   0  0  0  0  0  0  0  0  0  0  0  0
   37.6290   26.5570   30.6900 C   0  0  0  0  0  0  0  0  0  0  0  0
   36.2010   26.6160   30.7640 N   0  0  0  0  0  0  0  0  0  0  0  0
   35.5380   25.3550   30.9030 C   0  0  0  0  0  0  0  0  0  0  0  0
   36.5730   24.2360   30.8450 C   0  0  0  0  0  0  0  0  0  0  0  0
   40.1370   21.4055   38.0266 H   0  0  0  0  0  0  0  0  0  0  0  0
   42.5471   24.1621   34.7393 H   0  0  0  0  0  0  0  0  0  0  0  0
   43.3558   20.7821   38.2027 H   0  0  0  0  0  0  0  0  0  0  0  0
   41.7709   19.9021   37.9977 H   0  0  0  0  0  0  0  0  0  0  0  0
   43.7284   18.7565   37.0020 H   0  0  0  0  0  0  0  0  0  0  0  0
   42.3924   19.1288   35.8604 H   0  0  0  0  0  0  0  0  0  0  0  0
   43.8804   20.1350   35.8604 H   0  0  0  0  0  0  0  0  0  0  0  0
   39.1774   24.1203   39.1555 H   0  0  0  0  0  0  0  0  0  0  0  0
   37.5084   23.5069   38.9008 H   0  0  0  0  0  0  0  0  0  0  0  0
   38.8948   22.3648   38.9008 H   0  0  0  0  0  0  0  0  0  0  0  0
   38.2384   25.5830   37.6754 H   0  0  0  0  0  0  0  0  0  0  0  0
   39.1987   25.4323   36.1649 H   0  0  0  0  0  0  0  0  0  0  0  0
   37.4525   25.0110   36.1649 H   0  0  0  0  0  0  0  0  0  0  0  0
   37.8599   21.6308   36.7440 H   0  0  0  0  0  0  0  0  0  0  0  0
   36.6903   23.0166   36.7155 H   0  0  0  0  0  0  0  0  0  0  0  0
   38.4653   20.7716   34.3500 H   0  0  0  0  0  0  0  0  0  0  0  0
   38.2014   26.3209   32.7548 H   0  0  0  0  0  0  0  0  0  0  0  0
   39.3348   25.5819   31.6068 H   0  0  0  0  0  0  0  0  0  0  0  0
   37.9071   26.0917   29.7329 H   0  0  0  0  0  0  0  0  0  0  0  0
   37.9960   27.5900   30.7802 H   0  0  0  0  0  0  0  0  0  0  0  0
   35.9492   27.1980   31.5757 H   0  0  0  0  0  0  0  0  0  0  0  0
   35.0120   25.3202   31.8685 H   0  0  0  0  0  0  0  0  0  0  0  0
   34.8100   25.2281   30.0882 H   0  0  0  0  0  0  0  0  0  0  0  0
   36.0895   23.2612   31.0060 H   0  0  0  0  0  0  0  0  0  0  0  0
   37.0684   24.1999   29.8635 H   0  0  0  0  0  0  0  0  0  0  0  0
  1 10  1  0
  2  3  2  0
  2  8  1  0
  4  1  1  0
  4  3  1  0
  5  4  2  0
  6  5  1  0
  6  7  2  0
  7  2  1  0
  9  8  1  0
 11  1  1  0
 12  1  1  0
 13 12  1  0
 14 13  1  0
 15 16  1  0
 15 14  2  0
 16 17  2  0
 17 13  1  0
 18 16  1  0
 19 18  1  0
 20 21  1  0
 20 19  1  0
 21 22  1  0
 23 22  1  0
 23 18  1  0
  3 24  1  0
  6 25  1  0
  8 26  1  0
  8 27  1  0
  9 28  1  0
  9 29  1  0
  9 30  1  0
 10 31  1  0
 10 32  1  0
 10 33  1  0
 11 34  1  0
 11 35  1  0
 11 36  1  0
 12 37  1  0
 12 38  1  0
 14 39  1  0
 19 40  1  0
 19 41  1  0
 20 42  1  0
 20 43  1  0
 21 44  1  0
 22 45  1  0
 22 46  1  0
 23 47  1  0
 23 48  1  0
M  ISO  8  24  14  25  14  26   8  27   8  28   8  29   8  30   8  31   8
M  ISO  8  32   8  33   8  34   8  35   8  36   8  37   8  38   8  39  14
M  ISO  8  40  13  41  13  42  13  43  13  44   5  45  13  46  13  47  13
M  ISO  1  48  13
M  END
>  <minimizedAffinity>  (1) 
-5.04807472

>  <minimizedRMSD>  (1) 
0.469921321

$$$$
