
     RDKit          3D

 31 33  0  0  0  0  0  0  0  0999 V2000
   43.6230   19.7290   37.0850 C   0  0  0  0  0  0  0  0  0  0  0  0
   42.4720   20.5040   37.2790 C   0  0  0  0  0  0  0  0  0  0  0  0
   41.9580   21.2310   36.2220 C   0  0  0  0  0  0  0  0  0  0  0  0
   42.6160   21.1540   35.0120 N   0  0  0  0  0  0  0  0  0  0  0  0
   43.7190   20.4000   34.8600 C   0  0  0  0  0  0  0  0  0  0  0  0
   44.2130   19.6920   35.9070 N   0  0  0  0  0  0  0  0  0  0  0  0
   44.4000   20.3190   33.6140 N   0  0  0  0  0  0  0  0  0  0  0  0
   44.5680   19.0590   32.9220 C   0  0  0  0  0  0  0  0  0  0  0  0
   45.9730   18.8960   32.3840 C   0  0  0  0  0  0  0  0  0  0  0  0
   46.7520   20.0340   32.6610 O   0  0  0  0  0  0  0  0  0  0  0  0
   46.0990   21.1120   32.0670 C   0  0  0  0  0  0  0  0  0  0  0  0
   44.9510   21.5020   32.9910 C   0  0  0  0  0  0  0  0  0  0  0  0
   40.7670   22.0600   36.3600 C   0  0  0  0  0  0  0  0  0  0  0  0
   39.9090   22.6590   35.4970 N   0  0  0  0  0  0  0  0  0  0  0  0
   38.9970   23.2960   36.1680 O   0  0  0  0  0  0  0  0  0  0  0  0
   39.2160   23.1430   37.4660 C   0  0  0  0  0  0  0  0  0  0  0  0
   40.2990   22.3870   37.5810 N   0  0  0  0  0  0  0  0  0  0  0  0
   38.4230   23.6970   38.5740 C   0  0  0  0  0  0  0  0  0  0  0  0
   39.2490   23.8780   39.6830 F   0  0  0  0  0  0  0  0  0  0  0  0
   37.3870   22.8650   38.9420 F   0  0  0  0  0  0  0  0  0  0  0  0
   37.9270   24.9400   38.2420 F   0  0  0  0  0  0  0  0  0  0  0  0
   44.0372   19.1473   37.9217 H   0  0  0  0  0  0  0  0  0  0  0  0
   41.9820   20.5335   38.2634 H   0  0  0  0  0  0  0  0  0  0  0  0
   44.3574   18.2373   33.6224 H   0  0  0  0  0  0  0  0  0  0  0  0
   43.8718   19.0412   32.0706 H   0  0  0  0  0  0  0  0  0  0  0  0
   45.9267   18.7477   31.2950 H   0  0  0  0  0  0  0  0  0  0  0  0
   46.4369   18.0256   32.8710 H   0  0  0  0  0  0  0  0  0  0  0  0
   46.7937   21.9568   31.9504 H   0  0  0  0  0  0  0  0  0  0  0  0
   45.7248   20.8423   31.0684 H   0  0  0  0  0  0  0  0  0  0  0  0
   45.3241   22.1843   33.7690 H   0  0  0  0  0  0  0  0  0  0  0  0
   44.1665   22.0023   32.4043 H   0  0  0  0  0  0  0  0  0  0  0  0
  1  2  2  0
  3 13  1  0
  3  2  1  0
  4  3  2  0
  5  4  1  0
  5  6  2  0
  6  1  1  0
  7  5  1  0
  8  7  1  0
  9 10  1  0
  9  8  1  0
 11 10  1  0
 11 12  1  0
 12  7  1  0
 13 17  1  0
 14 15  1  0
 14 13  2  0
 15 16  1  0
 16 17  2  0
 16 18  1  0
 18 20  1  0
 18 19  1  0
 21 18  1  0
  1 22  1  0
  2 23  1  0
  8 24  1  0
  8 25  1  0
  9 26  1  0
  9 27  1  0
 11 28  1  0
 11 29  1  0
 12 30  1  0
 12 31  1  0
M  ISO  8  22  14  23  14  24  13  25  13  26  13  27  13  28  13  29  13
M  ISO  2  30  13  31  13
M  END
>  <minimizedAffinity>  (1) 
-4.31773996

>  <minimizedRMSD>  (1) 
0.020205535

$$$$
