
     RDKit          3D

 30 32  0  0  0  0  0  0  0  0999 V2000
   43.6240   19.7060   37.0930 C   0  0  0  0  0  0  0  0  0  0  0  0
   42.4810   20.4750   37.3030 C   0  0  0  0  0  0  0  0  0  0  0  0
   41.9800   21.2190   36.2370 C   0  0  0  0  0  0  0  0  0  0  0  0
   42.6490   21.1460   35.0390 N   0  0  0  0  0  0  0  0  0  0  0  0
   43.7430   20.3950   34.8770 C   0  0  0  0  0  0  0  0  0  0  0  0
   44.2410   19.6660   35.9070 N   0  0  0  0  0  0  0  0  0  0  0  0
   44.3960   20.3560   33.6140 N   0  0  0  0  0  0  0  0  0  0  0  0
   44.6900   21.5110   32.7870 C   0  0  0  0  0  0  0  0  0  0  0  0
   46.0440   21.2130   32.2160 C   0  0  0  0  0  0  0  0  0  0  0  0
   46.1190   19.7170   32.1800 C   0  0  0  0  0  0  0  0  0  0  0  0
   44.8890   19.1870   32.9130 C   0  0  0  0  0  0  0  0  0  0  0  0
   40.7860   22.0460   36.3930 C   0  0  0  0  0  0  0  0  0  0  0  0
   39.9160   22.6290   35.5120 N   0  0  0  0  0  0  0  0  0  0  0  0
   39.0100   23.2680   36.1830 O   0  0  0  0  0  0  0  0  0  0  0  0
   39.2340   23.1390   37.4830 C   0  0  0  0  0  0  0  0  0  0  0  0
   40.3290   22.3860   37.6120 N   0  0  0  0  0  0  0  0  0  0  0  0
   38.4320   23.7140   38.5690 C   0  0  0  0  0  0  0  0  0  0  0  0
   39.2410   23.8720   39.6820 F   0  0  0  0  0  0  0  0  0  0  0  0
   37.4000   22.8620   38.9540 F   0  0  0  0  0  0  0  0  0  0  0  0
   37.9270   24.9350   38.2190 F   0  0  0  0  0  0  0  0  0  0  0  0
   44.0306   19.1148   37.9268 H   0  0  0  0  0  0  0  0  0  0  0  0
   41.9868   20.4941   38.2856 H   0  0  0  0  0  0  0  0  0  0  0  0
   43.9432   21.6191   31.9866 H   0  0  0  0  0  0  0  0  0  0  0  0
   44.6674   22.4539   33.3531 H   0  0  0  0  0  0  0  0  0  0  0  0
   46.1386   21.6309   31.2029 H   0  0  0  0  0  0  0  0  0  0  0  0
   46.8548   21.6568   32.8124 H   0  0  0  0  0  0  0  0  0  0  0  0
   46.1182   19.3643   31.1381 H   0  0  0  0  0  0  0  0  0  0  0  0
   47.0431   19.3601   32.6581 H   0  0  0  0  0  0  0  0  0  0  0  0
   44.1396   18.8067   32.2033 H   0  0  0  0  0  0  0  0  0  0  0  0
   45.1142   18.3439   33.5826 H   0  0  0  0  0  0  0  0  0  0  0  0
  1  2  2  0
  3 12  1  0
  3  2  1  0
  4  3  2  0
  5  4  1  0
  5  6  2  0
  6  1  1  0
  7  5  1  0
  8  7  1  0
  9  8  1  0
 10  9  1  0
 10 11  1  0
 11  7  1  0
 12 16  1  0
 13 14  1  0
 13 12  2  0
 14 15  1  0
 15 16  2  0
 15 17  1  0
 17 19  1  0
 17 18  1  0
 20 17  1  0
  1 21  1  0
  2 22  1  0
  8 23  1  0
  8 24  1  0
  9 25  1  0
  9 26  1  0
 10 27  1  0
 10 28  1  0
 11 29  1  0
 11 30  1  0
M  ISO  8  21  14  22  14  23  13  24  13  25  13  26  13  27  13  28  13
M  ISO  2  29  13  30  13
M  END
>  <minimizedAffinity>  (1) 
-4.30818033

>  <minimizedRMSD>  (1) 
0.051321011

$$$$
