
     RDKit          3D

 28 30  0  0  0  0  0  0  0  0999 V2000
   43.6630   19.7330   37.0970 C   0  0  0  0  0  0  0  0  0  0  0  0
   42.4860   20.4710   37.3060 C   0  0  0  0  0  0  0  0  0  0  0  0
   41.9710   21.2050   36.2430 C   0  0  0  0  0  0  0  0  0  0  0  0
   42.6590   21.1480   35.0680 N   0  0  0  0  0  0  0  0  0  0  0  0
   43.7740   20.4420   34.8890 C   0  0  0  0  0  0  0  0  0  0  0  0
   44.2750   19.7270   35.9280 N   0  0  0  0  0  0  0  0  0  0  0  0
   44.4680   20.4220   33.6040 C   0  0  0  0  0  0  0  0  0  0  0  0
   43.8390   20.9790   32.5050 C   0  0  0  0  0  0  0  0  0  0  0  0
   44.5150   20.9470   31.2970 C   0  0  0  0  0  0  0  0  0  0  0  0
   45.7680   20.3780   31.2130 C   0  0  0  0  0  0  0  0  0  0  0  0
   46.4060   19.8180   32.3000 C   0  0  0  0  0  0  0  0  0  0  0  0
   45.7210   19.8550   33.5010 C   0  0  0  0  0  0  0  0  0  0  0  0
   40.7560   21.9900   36.3930 C   0  0  0  0  0  0  0  0  0  0  0  0
   39.8250   22.4780   35.5180 N   0  0  0  0  0  0  0  0  0  0  0  0
   38.9160   23.1270   36.1740 O   0  0  0  0  0  0  0  0  0  0  0  0
   39.1960   23.0990   37.4730 C   0  0  0  0  0  0  0  0  0  0  0  0
   40.3340   22.3960   37.5980 N   0  0  0  0  0  0  0  0  0  0  0  0
   38.4310   23.7080   38.5630 C   0  0  0  0  0  0  0  0  0  0  0  0
   39.2510   23.8660   39.6630 F   0  0  0  0  0  0  0  0  0  0  0  0
   37.3800   22.8820   38.9710 F   0  0  0  0  0  0  0  0  0  0  0  0
   37.9580   24.9370   38.1950 F   0  0  0  0  0  0  0  0  0  0  0  0
   44.0841   19.1467   37.9270 H   0  0  0  0  0  0  0  0  0  0  0  0
   41.9847   20.4683   38.2851 H   0  0  0  0  0  0  0  0  0  0  0  0
   42.8393   21.4304   32.5877 H   0  0  0  0  0  0  0  0  0  0  0  0
   44.0493   21.3783   30.3986 H   0  0  0  0  0  0  0  0  0  0  0  0
   46.2797   20.3703   30.2393 H   0  0  0  0  0  0  0  0  0  0  0  0
   47.4055   19.3664   32.2163 H   0  0  0  0  0  0  0  0  0  0  0  0
   46.1878   19.4208   34.3974 H   0  0  0  0  0  0  0  0  0  0  0  0
  1  2  2  0
  3 13  1  0
  3  2  1  0
  4  3  2  0
  5  4  1  0
  5  6  2  0
  6  1  1  0
  7  5  1  0
  8  7  2  0
  9  8  1  0
 10  9  2  0
 10 11  1  0
 11 12  2  0
 12  7  1  0
 13 17  1  0
 14 15  1  0
 14 13  2  0
 15 16  1  0
 16 17  2  0
 16 18  1  0
 18 20  1  0
 18 19  1  0
 21 18  1  0
  1 22  1  0
  2 23  1  0
  8 24  1  0
  9 25  1  0
 10 26  1  0
 11 27  1  0
 12 28  1  0
M  ISO  7  22  14  23  14  24  14  25  14  26  14  27  14  28  14
M  END
>  <minimizedAffinity>  (1) 
-4.10061359

>  <minimizedRMSD>  (1) 
0.342299879

$$$$
