
     RDKit          3D

 26 28  0  0  0  0  0  0  0  0999 V2000
   43.6560   19.7390   37.0980 C   0  0  0  0  0  0  0  0  0  0  0  0
   42.4830   20.4730   37.3130 C   0  0  0  0  0  0  0  0  0  0  0  0
   41.9710   21.2020   36.2410 C   0  0  0  0  0  0  0  0  0  0  0  0
   42.6470   21.1490   35.0570 N   0  0  0  0  0  0  0  0  0  0  0  0
   43.7620   20.4400   34.8820 C   0  0  0  0  0  0  0  0  0  0  0  0
   44.2770   19.7250   35.9130 N   0  0  0  0  0  0  0  0  0  0  0  0
   44.4480   20.4160   33.5950 C   0  0  0  0  0  0  0  0  0  0  0  0
   45.7310   19.8970   33.5270 C   0  0  0  0  0  0  0  0  0  0  0  0
   46.3930   19.8720   32.2960 C   0  0  0  0  0  0  0  0  0  0  0  0
   45.8290   20.3360   31.1590 N   0  0  0  0  0  0  0  0  0  0  0  0
   44.5650   20.8330   31.2960 C   0  0  0  0  0  0  0  0  0  0  0  0
   43.8710   20.8840   32.4700 N   0  0  0  0  0  0  0  0  0  0  0  0
   40.7560   21.9900   36.3870 C   0  0  0  0  0  0  0  0  0  0  0  0
   39.8300   22.4820   35.5170 N   0  0  0  0  0  0  0  0  0  0  0  0
   38.9210   23.1320   36.1780 O   0  0  0  0  0  0  0  0  0  0  0  0
   39.2030   23.0970   37.4690 C   0  0  0  0  0  0  0  0  0  0  0  0
   40.3300   22.3950   37.5950 N   0  0  0  0  0  0  0  0  0  0  0  0
   38.4280   23.7100   38.5660 C   0  0  0  0  0  0  0  0  0  0  0  0
   39.2530   23.8710   39.6680 F   0  0  0  0  0  0  0  0  0  0  0  0
   37.3730   22.8890   38.9600 F   0  0  0  0  0  0  0  0  0  0  0  0
   37.9530   24.9350   38.1970 F   0  0  0  0  0  0  0  0  0  0  0  0
   44.0799   19.1560   37.9289 H   0  0  0  0  0  0  0  0  0  0  0  0
   41.9834   20.4742   38.2930 H   0  0  0  0  0  0  0  0  0  0  0  0
   46.2229   19.5091   34.4312 H   0  0  0  0  0  0  0  0  0  0  0  0
   47.4115   19.4590   32.2512 H   0  0  0  0  0  0  0  0  0  0  0  0
   44.0694   21.2209   30.3938 H   0  0  0  0  0  0  0  0  0  0  0  0
  1  2  2  0
  3 13  1  0
  3  2  1  0
  4  3  2  0
  5  4  1  0
  5  6  2  0
  6  1  1  0
  7  5  1  0
  8  7  2  0
  9  8  1  0
 10 11  1  0
 10  9  2  0
 11 12  2  0
 12  7  1  0
 13 17  1  0
 14 15  1  0
 14 13  2  0
 15 16  1  0
 16 17  2  0
 16 18  1  0
 18 20  1  0
 18 19  1  0
 21 18  1  0
  1 22  1  0
  2 23  1  0
  8 24  1  0
  9 25  1  0
 11 26  1  0
M  ISO  5  22  14  23  14  24  14  25  14  26  14
M  END
>  <minimizedAffinity>  (1) 
-4.09634829

>  <minimizedRMSD>  (1) 
0.27540648

$$$$
