
     RDKit          3D

 20 21  0  0  0  0  0  0  0  0999 V2000
   43.6240   19.7300   37.0700 C   0  0  0  0  0  0  0  0  0  0  0  0
   42.4790   20.5080   37.2730 C   0  0  0  0  0  0  0  0  0  0  0  0
   41.9570   21.2400   36.2050 C   0  0  0  0  0  0  0  0  0  0  0  0
   42.6210   21.1370   35.0130 N   0  0  0  0  0  0  0  0  0  0  0  0
   43.7180   20.3850   34.8370 C   0  0  0  0  0  0  0  0  0  0  0  0
   44.2210   19.6760   35.8790 N   0  0  0  0  0  0  0  0  0  0  0  0
   44.3260   20.3550   33.5530 N   0  0  0  0  0  0  0  0  0  0  0  0
   40.7670   22.0640   36.3640 C   0  0  0  0  0  0  0  0  0  0  0  0
   39.9090   22.6480   35.4920 N   0  0  0  0  0  0  0  0  0  0  0  0
   38.9990   23.2850   36.1630 O   0  0  0  0  0  0  0  0  0  0  0  0
   39.2210   23.1460   37.4650 C   0  0  0  0  0  0  0  0  0  0  0  0
   40.3100   22.3940   37.5720 N   0  0  0  0  0  0  0  0  0  0  0  0
   38.4230   23.7100   38.5780 C   0  0  0  0  0  0  0  0  0  0  0  0
   39.2480   23.8710   39.6800 F   0  0  0  0  0  0  0  0  0  0  0  0
   37.4080   22.8570   38.9540 F   0  0  0  0  0  0  0  0  0  0  0  0
   37.9290   24.9420   38.2220 F   0  0  0  0  0  0  0  0  0  0  0  0
   44.0395   19.1521   37.9087 H   0  0  0  0  0  0  0  0  0  0  0  0
   41.9965   20.5424   38.2609 H   0  0  0  0  0  0  0  0  0  0  0  0
   45.1689   19.7844   33.3955 H   0  0  0  0  0  0  0  0  0  0  0  0
   43.9238   20.9038   32.7798 H   0  0  0  0  0  0  0  0  0  0  0  0
  1  2  2  0
  3  8  1  0
  3  2  1  0
  4  3  2  0
  5  4  1  0
  5  6  2  0
  6  1  1  0
  7  5  1  0
  8 12  1  0
  9 10  1  0
  9  8  2  0
 10 11  1  0
 11 12  2  0
 11 13  1  0
 13 15  1  0
 13 14  1  0
 16 13  1  0
  1 17  1  0
  2 18  1  0
  7 19  1  0
  7 20  1  0
M  ISO  2  17  14  18  14
M  END
>  <minimizedAffinity>  (1) 
-4.21242142

>  <minimizedRMSD>  (1) 
0.0187496189

$$$$
