
     RDKit          3D

 44 46  0  0  0  0  0  0  0  0999 V2000
   38.5540   24.0060   36.0370 C   0  0  0  0  0  0  0  0  0  0  0  0
   41.6430   22.0620   36.9060 C   0  0  0  0  0  0  0  0  0  0  0  0
   40.3100   22.4210   36.8510 C   0  0  0  0  0  0  0  0  0  0  0  0
   39.9320   23.5640   36.1420 C   0  0  0  0  0  0  0  0  0  0  0  0
   40.9020   24.2880   35.5240 N   0  0  0  0  0  0  0  0  0  0  0  0
   42.2000   23.9210   35.5900 C   0  0  0  0  0  0  0  0  0  0  0  0
   42.5640   22.8040   36.2840 N   0  0  0  0  0  0  0  0  0  0  0  0
   42.0110   20.8400   37.6700 C   0  0  0  0  0  0  0  0  0  0  0  0
   43.0380   20.0030   36.9850 C   0  0  0  0  0  0  0  0  0  0  0  0
   37.7610   23.2950   37.1230 C   0  0  0  0  0  0  0  0  0  0  0  0
   38.3650   25.4980   36.1550 C   0  0  0  0  0  0  0  0  0  0  0  0
   37.9950   23.5720   34.6860 C   0  0  0  0  0  0  0  0  0  0  0  0
   38.1310   24.5890   33.6870 N   0  0  0  0  0  0  0  0  0  0  0  0
   39.0430   24.7090   32.6810 C   0  0  0  0  0  0  0  0  0  0  0  0
   38.7780   25.8400   31.9810 N   0  0  0  0  0  0  0  0  0  0  0  0
   37.7160   26.4160   32.5430 C   0  0  0  0  0  0  0  0  0  0  0  0
   37.3350   25.6440   33.5770 N   0  0  0  0  0  0  0  0  0  0  0  0
   37.0850   27.6710   32.1010 C   0  0  0  0  0  0  0  0  0  0  0  0
   36.4060   28.4140   33.0460 C   0  0  0  0  0  0  0  0  0  0  0  0
   35.8180   29.6010   32.5920 C   0  0  0  0  0  0  0  0  0  0  0  0
   35.9410   29.9650   31.2490 C   0  0  0  0  0  0  0  0  0  0  0  0
   36.6320   29.1800   30.3540 C   0  0  0  0  0  0  0  0  0  0  0  0
   37.2340   27.9890   30.7650 C   0  0  0  0  0  0  0  0  0  0  0  0
   39.5510   21.8107   37.3623 H   0  0  0  0  0  0  0  0  0  0  0  0
   42.9666   24.5248   35.0824 H   0  0  0  0  0  0  0  0  0  0  0  0
   42.4070   21.1466   38.6494 H   0  0  0  0  0  0  0  0  0  0  0  0
   41.1017   20.2282   37.7637 H   0  0  0  0  0  0  0  0  0  0  0  0
   43.6597   19.4963   37.7378 H   0  0  0  0  0  0  0  0  0  0  0  0
   42.5385   19.2515   36.3560 H   0  0  0  0  0  0  0  0  0  0  0  0
   43.6733   20.6439   36.3560 H   0  0  0  0  0  0  0  0  0  0  0  0
   38.1211   23.6179   38.1109 H   0  0  0  0  0  0  0  0  0  0  0  0
   36.6946   23.5452   37.0217 H   0  0  0  0  0  0  0  0  0  0  0  0
   37.8938   22.2078   37.0217 H   0  0  0  0  0  0  0  0  0  0  0  0
   38.3293   25.7802   37.2176 H   0  0  0  0  0  0  0  0  0  0  0  0
   39.2050   26.0138   35.6667 H   0  0  0  0  0  0  0  0  0  0  0  0
   37.4229   25.7880   35.6667 H   0  0  0  0  0  0  0  0  0  0  0  0
   38.5355   22.6741   34.3520 H   0  0  0  0  0  0  0  0  0  0  0  0
   36.9214   23.3709   34.8161 H   0  0  0  0  0  0  0  0  0  0  0  0
   39.8605   24.0036   32.4712 H   0  0  0  0  0  0  0  0  0  0  0  0
   36.3312   28.0921   34.0952 H   0  0  0  0  0  0  0  0  0  0  0  0
   35.2617   30.2440   33.2899 H   0  0  0  0  0  0  0  0  0  0  0  0
   35.4759   30.8985   30.8993 H   0  0  0  0  0  0  0  0  0  0  0  0
   36.7109   29.4945   29.3029 H   0  0  0  0  0  0  0  0  0  0  0  0
   37.7915   27.3449   30.0691 H   0  0  0  0  0  0  0  0  0  0  0  0
  1  4  1  0
  1 11  1  0
  1 10  1  0
  2  8  1  0
  3  2  2  0
  4  3  1  0
  5  6  1  0
  5  4  2  0
  6  7  2  0
  7  2  1  0
  9  8  1  0
 12  1  1  0
 13 12  1  0
 14 13  1  0
 15 16  1  0
 15 14  2  0
 16 17  2  0
 17 13  1  0
 18 16  1  0
 18 19  2  0
 20 19  1  0
 21 20  2  0
 22 23  2  0
 22 21  1  0
 23 18  1  0
  3 24  1  0
  6 25  1  0
  8 26  1  0
  8 27  1  0
  9 28  1  0
  9 29  1  0
  9 30  1  0
 10 31  1  0
 10 32  1  0
 10 33  1  0
 11 34  1  0
 11 35  1  0
 11 36  1  0
 12 37  1  0
 12 38  1  0
 14 39  1  0
 19 40  1  0
 20 41  1  0
 21 42  1  0
 22 43  1  0
 23 44  1  0
M  ISO  8  24  14  25  14  26   8  27   8  28   8  29   8  30   8  31   8
M  ISO  8  32   8  33   8  34   8  35   8  36   8  37   8  38   8  39  14
M  ISO  5  40  14  41  14  42  14  43  14  44  14
M  END
>  <minimizedAffinity>  (1) 
-5.00461864

>  <minimizedRMSD>  (1) 
2.67481041

$$$$
