
     RDKit          3D

 21 22  0  0  0  0  0  0  0  0999 V2000
   43.6210   19.7220   37.0940 C   0  0  0  0  0  0  0  0  0  0  0  0
   42.4730   20.4860   37.2870 C   0  0  0  0  0  0  0  0  0  0  0  0
   41.9770   21.2400   36.2230 C   0  0  0  0  0  0  0  0  0  0  0  0
   42.6600   21.1810   35.0350 N   0  0  0  0  0  0  0  0  0  0  0  0
   43.7630   20.4360   34.8810 C   0  0  0  0  0  0  0  0  0  0  0  0
   44.2430   19.6990   35.9330 N   0  0  0  0  0  0  0  0  0  0  0  0
   40.7780   22.0640   36.3700 C   0  0  0  0  0  0  0  0  0  0  0  0
   39.9200   22.6490   35.4980 N   0  0  0  0  0  0  0  0  0  0  0  0
   39.0070   23.2820   36.1660 O   0  0  0  0  0  0  0  0  0  0  0  0
   39.2230   23.1410   37.4640 C   0  0  0  0  0  0  0  0  0  0  0  0
   40.3120   22.3900   37.5870 N   0  0  0  0  0  0  0  0  0  0  0  0
   38.4270   23.6950   38.5690 C   0  0  0  0  0  0  0  0  0  0  0  0
   39.2490   23.8750   39.6800 F   0  0  0  0  0  0  0  0  0  0  0  0
   37.3930   22.8620   38.9360 F   0  0  0  0  0  0  0  0  0  0  0  0
   37.9360   24.9420   38.2290 F   0  0  0  0  0  0  0  0  0  0  0  0
   44.3410   20.5250   33.5010 C   0  0  0  0  0  0  0  0  0  0  0  0
   44.1200   21.7730   32.9510 F   0  0  0  0  0  0  0  0  0  0  0  0
   45.6740   20.2430   33.5580 F   0  0  0  0  0  0  0  0  0  0  0  0
   43.7670   19.5610   32.6590 F   0  0  0  0  0  0  0  0  0  0  0  0
   44.0169   19.1250   37.9287 H   0  0  0  0  0  0  0  0  0  0  0  0
   41.9652   20.4949   38.2628 H   0  0  0  0  0  0  0  0  0  0  0  0
  1  2  2  0
  3  7  1  0
  3  2  1  0
  4  3  2  0
  5  4  1  0
  5  6  2  0
  6  1  1  0
  7 11  1  0
  8  9  1  0
  8  7  2  0
  9 10  1  0
 10 11  2  0
 10 12  1  0
 12 14  1  0
 12 13  1  0
 15 12  1  0
 16 18  1  0
 16  5  1  0
 17 16  1  0
 19 16  1  0
  1 20  1  0
  2 21  1  0
M  ISO  2  20  14  21  14
M  END
>  <minimizedAffinity>  (1) 
-4.0983429

>  <minimizedRMSD>  (1) 
0.0418687575

$$$$
