
     RDKit          3D

 27 29  0  0  0  0  0  0  0  0999 V2000
   43.6320   19.7030   37.0900 C   0  0  0  0  0  0  0  0  0  0  0  0
   42.4850   20.4760   37.3140 C   0  0  0  0  0  0  0  0  0  0  0  0
   41.9830   21.2170   36.2360 C   0  0  0  0  0  0  0  0  0  0  0  0
   42.6490   21.1330   35.0420 N   0  0  0  0  0  0  0  0  0  0  0  0
   43.7390   20.3850   34.8700 C   0  0  0  0  0  0  0  0  0  0  0  0
   44.2380   19.6610   35.9040 N   0  0  0  0  0  0  0  0  0  0  0  0
   44.3810   20.3590   33.5570 C   0  0  0  0  0  0  0  0  0  0  0  0
   44.1960   19.3380   32.6650 C   0  0  0  0  0  0  0  0  0  0  0  0
   44.8600   19.4360   31.4590 C   0  0  0  0  0  0  0  0  0  0  0  0
   45.6720   20.4880   31.1380 C   0  0  0  0  0  0  0  0  0  0  0  0
   45.8390   21.5130   32.0700 C   0  0  0  0  0  0  0  0  0  0  0  0
   45.1820   21.4060   33.2500 N   0  0  0  0  0  0  0  0  0  0  0  0
   40.7980   22.0430   36.3880 C   0  0  0  0  0  0  0  0  0  0  0  0
   39.9350   22.6350   35.5090 N   0  0  0  0  0  0  0  0  0  0  0  0
   39.0220   23.2770   36.1670 O   0  0  0  0  0  0  0  0  0  0  0  0
   39.2280   23.1460   37.4700 C   0  0  0  0  0  0  0  0  0  0  0  0
   40.3230   22.3850   37.5910 N   0  0  0  0  0  0  0  0  0  0  0  0
   38.4350   23.7090   38.5700 C   0  0  0  0  0  0  0  0  0  0  0  0
   39.2470   23.8700   39.6770 F   0  0  0  0  0  0  0  0  0  0  0  0
   37.4060   22.8600   38.9450 F   0  0  0  0  0  0  0  0  0  0  0  0
   37.9310   24.9300   38.2150 F   0  0  0  0  0  0  0  0  0  0  0  0
   44.0456   19.1116   37.9202 H   0  0  0  0  0  0  0  0  0  0  0  0
   41.9968   20.5002   38.2995 H   0  0  0  0  0  0  0  0  0  0  0  0
   43.5487   18.4797   32.8981 H   0  0  0  0  0  0  0  0  0  0  0  0
   44.7298   18.6301   30.7217 H   0  0  0  0  0  0  0  0  0  0  0  0
   46.1833   20.5257   30.1648 H   0  0  0  0  0  0  0  0  0  0  0  0
   46.4824   22.3787   31.8539 H   0  0  0  0  0  0  0  0  0  0  0  0
  1  2  2  0
  3 13  1  0
  3  2  1  0
  4  3  2  0
  5  4  1  0
  5  6  2  0
  6  1  1  0
  7  5  1  0
  8  7  2  0
  9  8  1  0
 10  9  2  0
 10 11  1  0
 11 12  2  0
 12  7  1  0
 13 17  1  0
 14 15  1  0
 14 13  2  0
 15 16  1  0
 16 17  2  0
 16 18  1  0
 18 20  1  0
 18 19  1  0
 21 18  1  0
  1 22  1  0
  2 23  1  0
  8 24  1  0
  9 25  1  0
 10 26  1  0
 11 27  1  0
M  ISO  6  22  14  23  14  24  14  25  14  26  14  27  14
M  END
>  <minimizedAffinity>  (1) 
-4.09480762

>  <minimizedRMSD>  (1) 
0.0754271597

$$$$
