
     RDKit          3D

 28 30  0  0  0  0  0  0  0  0999 V2000
   43.6250   19.7090   37.0970 C   0  0  0  0  0  0  0  0  0  0  0  0
   42.4770   20.4890   37.3000 C   0  0  0  0  0  0  0  0  0  0  0  0
   41.9720   21.2210   36.2220 C   0  0  0  0  0  0  0  0  0  0  0  0
   42.6350   21.1290   35.0270 N   0  0  0  0  0  0  0  0  0  0  0  0
   43.7280   20.3790   34.8560 C   0  0  0  0  0  0  0  0  0  0  0  0
   44.2200   19.6660   35.9030 N   0  0  0  0  0  0  0  0  0  0  0  0
   44.3500   20.3550   33.5430 C   0  0  0  0  0  0  0  0  0  0  0  0
   44.1960   19.3000   32.6630 C   0  0  0  0  0  0  0  0  0  0  0  0
   44.8020   19.3320   31.4480 C   0  0  0  0  0  0  0  0  0  0  0  0
   45.5920   20.3870   31.0130 C   0  0  0  0  0  0  0  0  0  0  0  0
   45.7290   21.4380   31.9240 C   0  0  0  0  0  0  0  0  0  0  0  0
   45.1180   21.4310   33.1790 C   0  0  0  0  0  0  0  0  0  0  0  0
   40.7810   22.0530   36.3680 C   0  0  0  0  0  0  0  0  0  0  0  0
   39.9250   22.6480   35.5000 N   0  0  0  0  0  0  0  0  0  0  0  0
   39.0160   23.2840   36.1710 O   0  0  0  0  0  0  0  0  0  0  0  0
   39.2240   23.1430   37.4730 C   0  0  0  0  0  0  0  0  0  0  0  0
   40.3180   22.3820   37.5860 N   0  0  0  0  0  0  0  0  0  0  0  0
   38.4280   23.7030   38.5680 C   0  0  0  0  0  0  0  0  0  0  0  0
   39.2490   23.8720   39.6800 F   0  0  0  0  0  0  0  0  0  0  0  0
   37.4070   22.8580   38.9490 F   0  0  0  0  0  0  0  0  0  0  0  0
   37.9310   24.9440   38.2230 F   0  0  0  0  0  0  0  0  0  0  0  0
   44.0400   19.1256   37.9321 H   0  0  0  0  0  0  0  0  0  0  0  0
   41.9862   20.5237   38.2838 H   0  0  0  0  0  0  0  0  0  0  0  0
   43.5815   18.4331   32.9474 H   0  0  0  0  0  0  0  0  0  0  0  0
   44.6590   18.4758   30.7724 H   0  0  0  0  0  0  0  0  0  0  0  0
   46.0745   20.3953   30.0245 H   0  0  0  0  0  0  0  0  0  0  0  0
   46.3430   22.3056   31.6406 H   0  0  0  0  0  0  0  0  0  0  0  0
   45.2510   22.2784   33.8676 H   0  0  0  0  0  0  0  0  0  0  0  0
  1  2  2  0
  3 13  1  0
  3  2  1  0
  4  3  2  0
  5  4  1  0
  5  6  2  0
  6  1  1  0
  7  5  1  0
  8  7  2  0
  9  8  1  0
 10  9  2  0
 10 11  1  0
 11 12  2  0
 12  7  1  0
 13 17  1  0
 14 15  1  0
 14 13  2  0
 15 16  1  0
 16 17  2  0
 16 18  1  0
 18 20  1  0
 18 19  1  0
 21 18  1  0
  1 22  1  0
  2 23  1  0
  8 24  1  0
  9 25  1  0
 10 26  1  0
 11 27  1  0
 12 28  1  0
M  ISO  7  22  14  23  14  24  14  25  14  26  14  27  14  28  14
M  END
>  <minimizedAffinity>  (1) 
-4.08711386

>  <minimizedRMSD>  (1) 
0.12335255

$$$$
