
     RDKit          3D

 32 35  0  0  0  0  0  0  0  0999 V2000
   44.0450   20.1120   36.0460 C   0  0  0  0  0  0  0  0  0  0  0  0
   42.6910   20.4100   36.1800 C   0  0  0  0  0  0  0  0  0  0  0  0
   42.3210   21.7520   36.2910 C   0  0  0  0  0  0  0  0  0  0  0  0
   43.3240   22.7030   36.2600 N   0  0  0  0  0  0  0  0  0  0  0  0
   44.6120   22.3560   36.1290 C   0  0  0  0  0  0  0  0  0  0  0  0
   44.9790   21.0590   36.0210 N   0  0  0  0  0  0  0  0  0  0  0  0
   45.6470   23.4170   36.1080 C   0  0  0  0  0  0  0  0  0  0  0  0
   47.0200   23.1410   36.2500 C   0  0  0  0  0  0  0  0  0  0  0  0
   47.8660   24.2010   36.2240 C   0  0  0  0  0  0  0  0  0  0  0  0
   47.4300   25.5100   36.0660 C   0  0  0  0  0  0  0  0  0  0  0  0
   45.6030   25.2250   35.9360 S   0  0  0  0  0  0  0  0  0  0  0  0
   47.9080   26.8190   35.9880 C   0  0  0  0  0  0  0  0  0  0  0  0
   48.9350   27.2800   37.0450 C   0  0  0  0  0  0  0  0  0  0  0  0
   49.3500   27.1450   35.6260 C   0  0  0  0  0  0  0  0  0  0  0  0
   40.9240   22.1770   36.4390 C   0  0  0  0  0  0  0  0  0  0  0  0
   39.8310   22.1580   35.6550 N   0  0  0  0  0  0  0  0  0  0  0  0
   38.8280   22.6760   36.3040 O   0  0  0  0  0  0  0  0  0  0  0  0
   39.2340   23.0460   37.5180 C   0  0  0  0  0  0  0  0  0  0  0  0
   40.5150   22.7350   37.5910 N   0  0  0  0  0  0  0  0  0  0  0  0
   38.4120   23.6720   38.5650 C   0  0  0  0  0  0  0  0  0  0  0  0
   39.2230   23.8910   39.6910 F   0  0  0  0  0  0  0  0  0  0  0  0
   37.3650   22.8760   38.9410 F   0  0  0  0  0  0  0  0  0  0  0  0
   37.9840   24.9300   38.1540 F   0  0  0  0  0  0  0  0  0  0  0  0
   44.3520   19.0594   35.9580 H   0  0  0  0  0  0  0  0  0  0  0  0
   41.9349   19.6113   36.1979 H   0  0  0  0  0  0  0  0  0  0  0  0
   47.3899   22.1128   36.3763 H   0  0  0  0  0  0  0  0  0  0  0  0
   48.9448   24.0156   36.3328 H   0  0  0  0  0  0  0  0  0  0  0  0
   46.9314   27.1459   35.6015 H   0  0  0  0  0  0  0  0  0  0  0  0
   48.8459   28.2782   37.4985 H   0  0  0  0  0  0  0  0  0  0  0  0
   49.2984   26.8765   38.0016 H   0  0  0  0  0  0  0  0  0  0  0  0
   50.0347   26.3354   35.3331 H   0  0  0  0  0  0  0  0  0  0  0  0
   49.8245   27.8195   34.8980 H   0  0  0  0  0  0  0  0  0  0  0  0
  1  2  2  0
  2  3  1  0
  3 15  1  0
  4  3  2  0
  5  4  1  0
  6  1  1  0
  6  5  2  0
  7  5  1  0
  7  8  2  0
  9  8  1  0
 10  9  2  0
 11 10  1  0
 11  7  1  0
 12 10  1  0
 12 13  1  0
 14 12  1  0
 14 13  1  0
 15 19  1  0
 16 17  1  0
 16 15  2  0
 17 18  1  0
 18 19  2  0
 18 20  1  0
 20 22  1  0
 20 21  1  0
 23 20  1  0
  1 24  1  0
  2 25  1  0
  8 26  1  0
  9 27  1  0
 12 28  1  0
 13 29  1  0
 13 30  1  0
 14 31  1  0
 14 32  1  0
M  ISO  8  24  14  25  14  26  14  27  14  28  13  29  13  30  13  31  13
M  ISO  1  32  13
M  END
>  <minimizedAffinity>  (1) 
-4.93954468

>  <minimizedRMSD>  (1) 
4.70824718

$$$$
