
     RDKit          3D

 47 49  0  0  0  0  0  0  0  0999 V2000
   38.7260   23.5200   37.0740 C   0  0  0  0  0  0  0  0  0  0  0  0
   41.9850   21.6660   36.9010 C   0  0  0  0  0  0  0  0  0  0  0  0
   40.6850   21.9880   37.2750 C   0  0  0  0  0  0  0  0  0  0  0  0
   40.0780   23.1290   36.7260 C   0  0  0  0  0  0  0  0  0  0  0  0
   40.7870   23.8750   35.8490 N   0  0  0  0  0  0  0  0  0  0  0  0
   42.0500   23.5470   35.4970 C   0  0  0  0  0  0  0  0  0  0  0  0
   42.6410   22.4410   36.0270 N   0  0  0  0  0  0  0  0  0  0  0  0
   42.6070   20.4530   37.4960 C   0  0  0  0  0  0  0  0  0  0  0  0
   43.1840   19.5310   36.4850 C   0  0  0  0  0  0  0  0  0  0  0  0
   38.5530   23.3280   38.5710 C   0  0  0  0  0  0  0  0  0  0  0  0
   38.3820   24.9510   36.7070 C   0  0  0  0  0  0  0  0  0  0  0  0
   37.7280   22.6250   36.3560 C   0  0  0  0  0  0  0  0  0  0  0  0
   37.8030   22.7640   34.9350 N   0  0  0  0  0  0  0  0  0  0  0  0
   38.1460   21.8520   33.9740 C   0  0  0  0  0  0  0  0  0  0  0  0
   38.0750   22.4440   32.7460 N   0  0  0  0  0  0  0  0  0  0  0  0
   37.6930   23.7050   32.9540 C   0  0  0  0  0  0  0  0  0  0  0  0
   37.5330   23.8890   34.2600 N   0  0  0  0  0  0  0  0  0  0  0  0
   37.4930   24.6820   31.9350 N   0  0  0  0  0  0  0  0  0  0  0  0
   38.2170   25.9380   31.8390 C   0  0  0  0  0  0  0  0  0  0  0  0
   37.5620   26.7160   30.7160 C   0  0  0  0  0  0  0  0  0  0  0  0
   36.1950   26.8210   30.8540 O   0  0  0  0  0  0  0  0  0  0  0  0
   35.5290   25.6280   31.0190 C   0  0  0  0  0  0  0  0  0  0  0  0
   36.5110   24.4730   30.8840 C   0  0  0  0  0  0  0  0  0  0  0  0
   40.1391   21.3570   37.9918 H   0  0  0  0  0  0  0  0  0  0  0  0
   42.6012   24.1746   34.7812 H   0  0  0  0  0  0  0  0  0  0  0  0
   43.4103   20.7711   38.1768 H   0  0  0  0  0  0  0  0  0  0  0  0
   41.8114   19.9036   38.0206 H   0  0  0  0  0  0  0  0  0  0  0  0
   43.7010   18.7048   36.9950 H   0  0  0  0  0  0  0  0  0  0  0  0
   42.3778   19.1261   35.8556 H   0  0  0  0  0  0  0  0  0  0  0  0
   43.9005   20.0791   35.8556 H   0  0  0  0  0  0  0  0  0  0  0  0
   39.1953   24.0409   39.1088 H   0  0  0  0  0  0  0  0  0  0  0  0
   37.5020   23.5033   38.8441 H   0  0  0  0  0  0  0  0  0  0  0  0
   38.8364   22.3008   38.8441 H   0  0  0  0  0  0  0  0  0  0  0  0
   38.2402   25.5409   37.6246 H   0  0  0  0  0  0  0  0  0  0  0  0
   39.2014   25.3849   36.1151 H   0  0  0  0  0  0  0  0  0  0  0  0
   37.4549   24.9650   36.1151 H   0  0  0  0  0  0  0  0  0  0  0  0
   37.9365   21.5780   36.6210 H   0  0  0  0  0  0  0  0  0  0  0  0
   36.7177   22.9243   36.6718 H   0  0  0  0  0  0  0  0  0  0  0  0
   38.4335   20.8069   34.1615 H   0  0  0  0  0  0  0  0  0  0  0  0
   38.1414   26.4954   32.7843 H   0  0  0  0  0  0  0  0  0  0  0  0
   39.2863   25.7713   31.6419 H   0  0  0  0  0  0  0  0  0  0  0  0
   37.7794   26.2074   29.7652 H   0  0  0  0  0  0  0  0  0  0  0  0
   37.9726   27.7362   30.7421 H   0  0  0  0  0  0  0  0  0  0  0  0
   35.0672   25.6013   32.0170 H   0  0  0  0  0  0  0  0  0  0  0  0
   34.7481   25.5358   30.2498 H   0  0  0  0  0  0  0  0  0  0  0  0
   35.9962   23.5109   31.0230 H   0  0  0  0  0  0  0  0  0  0  0  0
   36.9758   24.4432   29.8875 H   0  0  0  0  0  0  0  0  0  0  0  0
  1 10  1  0
  2  3  2  0
  2  8  1  0
  4  1  1  0
  4  3  1  0
  5  4  2  0
  6  5  1  0
  6  7  2  0
  7  2  1  0
  9  8  1  0
 11  1  1  0
 12  1  1  0
 13 12  1  0
 14 13  1  0
 15 16  1  0
 15 14  2  0
 16 17  2  0
 17 13  1  0
 18 16  1  0
 19 18  1  0
 20 21  1  0
 20 19  1  0
 21 22  1  0
 23 22  1  0
 23 18  1  0
  3 24  1  0
  6 25  1  0
  8 26  1  0
  8 27  1  0
  9 28  1  0
  9 29  1  0
  9 30  1  0
 10 31  1  0
 10 32  1  0
 10 33  1  0
 11 34  1  0
 11 35  1  0
 11 36  1  0
 12 37  1  0
 12 38  1  0
 14 39  1  0
 19 40  1  0
 19 41  1  0
 20 42  1  0
 20 43  1  0
 22 44  1  0
 22 45  1  0
 23 46  1  0
 23 47  1  0
M  ISO  8  24  14  25  14  26   8  27   8  28   8  29   8  30   8  31   8
M  ISO  8  32   8  33   8  34   8  35   8  36   8  37   8  38   8  39  14
M  ISO  8  40  13  41  13  42  13  43  13  44  13  45  13  46  13  47  13
M  END
>  <minimizedAffinity>  (1) 
-4.96100616

>  <minimizedRMSD>  (1) 
0.560450912

$$$$
