
     RDKit          3D

 37 40  0  0  0  0  0  0  0  0999 V2000
   43.6590   19.7540   37.0790 C   0  0  0  0  0  0  0  0  0  0  0  0
   42.4850   20.4740   37.2980 C   0  0  0  0  0  0  0  0  0  0  0  0
   41.9570   21.2200   36.2340 C   0  0  0  0  0  0  0  0  0  0  0  0
   42.6330   21.1950   35.0380 N   0  0  0  0  0  0  0  0  0  0  0  0
   43.7470   20.4970   34.8710 C   0  0  0  0  0  0  0  0  0  0  0  0
   44.2720   19.7660   35.8990 N   0  0  0  0  0  0  0  0  0  0  0  0
   44.4360   20.4950   33.5670 C   0  0  0  0  0  0  0  0  0  0  0  0
   45.7280   19.9260   33.3820 C   0  0  0  0  0  0  0  0  0  0  0  0
   46.2710   19.9700   32.1380 C   0  0  0  0  0  0  0  0  0  0  0  0
   45.5800   20.5540   31.0770 C   0  0  0  0  0  0  0  0  0  0  0  0
   44.0130   21.0930   31.9260 S   0  0  0  0  0  0  0  0  0  0  0  0
   45.9030   20.7150   29.7520 N   0  0  0  0  0  0  0  0  0  0  0  0
   45.7010   19.7270   28.6820 C   0  0  0  0  0  0  0  0  0  0  0  0
   47.1510   19.5090   28.2650 C   0  0  0  0  0  0  0  0  0  0  0  0
   47.6040   20.9620   28.1350 C   0  0  0  0  0  0  0  0  0  0  0  0
   46.5030   21.7290   28.8850 C   0  0  0  0  0  0  0  0  0  0  0  0
   40.7260   22.0070   36.3770 C   0  0  0  0  0  0  0  0  0  0  0  0
   39.8080   22.4890   35.5100 N   0  0  0  0  0  0  0  0  0  0  0  0
   38.8960   23.1330   36.1740 O   0  0  0  0  0  0  0  0  0  0  0  0
   39.1810   23.0960   37.4720 C   0  0  0  0  0  0  0  0  0  0  0  0
   40.3130   22.3990   37.5920 N   0  0  0  0  0  0  0  0  0  0  0  0
   38.4040   23.7020   38.5620 C   0  0  0  0  0  0  0  0  0  0  0  0
   39.2530   23.8810   39.6660 F   0  0  0  0  0  0  0  0  0  0  0  0
   37.3580   22.8900   38.9540 F   0  0  0  0  0  0  0  0  0  0  0  0
   37.9610   24.9500   38.2070 F   0  0  0  0  0  0  0  0  0  0  0  0
   44.0879   19.1625   37.9013 H   0  0  0  0  0  0  0  0  0  0  0  0
   41.9866   20.4574   38.2785 H   0  0  0  0  0  0  0  0  0  0  0  0
   46.2697   19.4649   34.2210 H   0  0  0  0  0  0  0  0  0  0  0  0
   47.2684   19.5395   31.9652 H   0  0  0  0  0  0  0  0  0  0  0  0
   45.2388   18.8026   29.0587 H   0  0  0  0  0  0  0  0  0  0  0  0
   45.0237   20.0425   27.8747 H   0  0  0  0  0  0  0  0  0  0  0  0
   47.7218   18.9697   29.0353 H   0  0  0  0  0  0  0  0  0  0  0  0
   47.2889   18.8956   27.3624 H   0  0  0  0  0  0  0  0  0  0  0  0
   48.5857   21.1150   28.6071 H   0  0  0  0  0  0  0  0  0  0  0  0
   47.7293   21.2880   27.0919 H   0  0  0  0  0  0  0  0  0  0  0  0
   46.9317   22.5494   29.4793 H   0  0  0  0  0  0  0  0  0  0  0  0
   45.7731   22.1972   28.2083 H   0  0  0  0  0  0  0  0  0  0  0  0
  1  2  2  0
  3 17  1  0
  3  2  1  0
  4  3  2  0
  5  4  1  0
  5  6  2  0
  6  1  1  0
  7  5  1  0
  8  7  2  0
  9  8  1  0
 10 11  1  0
 10  9  2  0
 11  7  1  0
 12 10  1  0
 13 12  1  0
 14 13  1  0
 15 14  1  0
 15 16  1  0
 16 12  1  0
 17 21  1  0
 18 19  1  0
 18 17  2  0
 19 20  1  0
 20 21  2  0
 20 22  1  0
 22 24  1  0
 22 23  1  0
 25 22  1  0
  1 26  1  0
  2 27  1  0
  8 28  1  0
  9 29  1  0
 13 30  1  0
 13 31  1  0
 14 32  1  0
 14 33  1  0
 15 34  1  0
 15 35  1  0
 16 36  1  0
 16 37  1  0
M  ISO  8  26  14  27  14  28  14  29  14  30  13  31  13  32  13  33  13
M  ISO  4  34  13  35  13  36  13  37  13
M  END
>  <minimizedAffinity>  (1) 
-3.89201641

>  <minimizedRMSD>  (1) 
0.744208515

$$$$
