
     RDKit          3D

 31 33  0  0  0  0  0  0  0  0999 V2000
   43.6230   19.7150   37.0880 C   0  0  0  0  0  0  0  0  0  0  0  0
   42.4780   20.4990   37.3100 C   0  0  0  0  0  0  0  0  0  0  0  0
   41.9520   21.2270   36.2270 C   0  0  0  0  0  0  0  0  0  0  0  0
   42.5950   21.1250   35.0180 N   0  0  0  0  0  0  0  0  0  0  0  0
   43.6760   20.3730   34.8460 C   0  0  0  0  0  0  0  0  0  0  0  0
   44.1920   19.6640   35.8920 N   0  0  0  0  0  0  0  0  0  0  0  0
   44.3340   20.2950   33.5280 C   0  0  0  0  0  0  0  0  0  0  0  0
   45.7140   20.0210   33.3760 C   0  0  0  0  0  0  0  0  0  0  0  0
   46.2060   19.9680   32.1110 C   0  0  0  0  0  0  0  0  0  0  0  0
   45.3890   20.1760   31.0030 C   0  0  0  0  0  0  0  0  0  0  0  0
   43.7320   20.4820   31.8230 S   0  0  0  0  0  0  0  0  0  0  0  0
   45.5350   20.1980   29.6130 C   0  0  0  0  0  0  0  0  0  0  0  0
   46.9470   20.6520   29.2530 C   0  0  0  0  0  0  0  0  0  0  0  0
   40.7690   22.0540   36.3890 C   0  0  0  0  0  0  0  0  0  0  0  0
   39.9100   22.6460   35.5090 N   0  0  0  0  0  0  0  0  0  0  0  0
   38.9970   23.2890   36.1750 O   0  0  0  0  0  0  0  0  0  0  0  0
   39.2170   23.1460   37.4780 C   0  0  0  0  0  0  0  0  0  0  0  0
   40.3060   22.3880   37.6010 N   0  0  0  0  0  0  0  0  0  0  0  0
   38.4210   23.7110   38.5790 C   0  0  0  0  0  0  0  0  0  0  0  0
   39.2410   23.8780   39.6830 F   0  0  0  0  0  0  0  0  0  0  0  0
   37.3790   22.8650   38.9320 F   0  0  0  0  0  0  0  0  0  0  0  0
   37.9320   24.9450   38.2280 F   0  0  0  0  0  0  0  0  0  0  0  0
   44.0530   19.1356   37.9183 H   0  0  0  0  0  0  0  0  0  0  0  0
   42.0062   20.5423   38.3027 H   0  0  0  0  0  0  0  0  0  0  0  0
   46.3633   19.8572   34.2487 H   0  0  0  0  0  0  0  0  0  0  0  0
   47.2745   19.7559   31.9585 H   0  0  0  0  0  0  0  0  0  0  0  0
   45.3613   19.1890   29.2108 H   0  0  0  0  0  0  0  0  0  0  0  0
   44.8050   20.8980   29.1803 H   0  0  0  0  0  0  0  0  0  0  0  0
   47.5191   20.8359   30.1743 H   0  0  0  0  0  0  0  0  0  0  0  0
   47.4447   19.8686   28.6626 H   0  0  0  0  0  0  0  0  0  0  0  0
   46.8949   21.5787   28.6626 H   0  0  0  0  0  0  0  0  0  0  0  0
  1  2  2  0
  3 14  1  0
  3  2  1  0
  4  3  2  0
  5  4  1  0
  5  6  2  0
  6  1  1  0
  7  5  1  0
  8  7  2  0
  9  8  1  0
 10 11  1  0
 10  9  2  0
 11  7  1  0
 12 10  1  0
 13 12  1  0
 14 18  1  0
 15 16  1  0
 15 14  2  0
 16 17  1  0
 17 18  2  0
 17 19  1  0
 19 21  1  0
 19 20  1  0
 22 19  1  0
  1 23  1  0
  2 24  1  0
  8 25  1  0
  9 26  1  0
 12 27  1  0
 12 28  1  0
 13 29  1  0
 13 30  1  0
 13 31  1  0
M  ISO  8  23  14  24  14  25  14  26  14  27   8  28   8  29   8  30   8
M  ISO  1  31   8
M  END
>  <minimizedAffinity>  (1) 
-3.88795185

>  <minimizedRMSD>  (1) 
0.00639315369

$$$$
