
     RDKit          3D

 32 35  0  0  0  0  0  0  0  0999 V2000
   43.6190   19.7330   37.0840 C   0  0  0  0  0  0  0  0  0  0  0  0
   42.4780   20.5080   37.3020 C   0  0  0  0  0  0  0  0  0  0  0  0
   41.9490   21.2180   36.2320 C   0  0  0  0  0  0  0  0  0  0  0  0
   42.5910   21.1100   35.0170 N   0  0  0  0  0  0  0  0  0  0  0  0
   43.6750   20.3620   34.8500 C   0  0  0  0  0  0  0  0  0  0  0  0
   44.1970   19.6620   35.9010 N   0  0  0  0  0  0  0  0  0  0  0  0
   44.3350   20.2850   33.5130 C   0  0  0  0  0  0  0  0  0  0  0  0
   45.7110   20.0240   33.3760 C   0  0  0  0  0  0  0  0  0  0  0  0
   46.2060   19.9820   32.1130 C   0  0  0  0  0  0  0  0  0  0  0  0
   45.3880   20.1890   31.0020 C   0  0  0  0  0  0  0  0  0  0  0  0
   43.7280   20.4760   31.8120 S   0  0  0  0  0  0  0  0  0  0  0  0
   45.5740   20.2110   29.6290 N   0  0  0  0  0  0  0  0  0  0  0  0
   45.6110   21.3780   28.9810 N   0  0  0  0  0  0  0  0  0  0  0  0
   45.7980   21.1600   27.6690 C   0  0  0  0  0  0  0  0  0  0  0  0
   45.8780   19.7740   27.5300 C   0  0  0  0  0  0  0  0  0  0  0  0
   45.7330   19.1890   28.7880 C   0  0  0  0  0  0  0  0  0  0  0  0
   40.7540   22.0610   36.3610 C   0  0  0  0  0  0  0  0  0  0  0  0
   39.9140   22.6600   35.4970 N   0  0  0  0  0  0  0  0  0  0  0  0
   39.0030   23.3010   36.1660 O   0  0  0  0  0  0  0  0  0  0  0  0
   39.2140   23.1460   37.4710 C   0  0  0  0  0  0  0  0  0  0  0  0
   40.2980   22.3790   37.5930 N   0  0  0  0  0  0  0  0  0  0  0  0
   38.4130   23.7070   38.5710 C   0  0  0  0  0  0  0  0  0  0  0  0
   39.2440   23.8820   39.6880 F   0  0  0  0  0  0  0  0  0  0  0  0
   37.3850   22.8770   38.9240 F   0  0  0  0  0  0  0  0  0  0  0  0
   37.9500   24.9760   38.2320 F   0  0  0  0  0  0  0  0  0  0  0  0
   44.0478   19.1656   37.9231 H   0  0  0  0  0  0  0  0  0  0  0  0
   42.0099   20.5550   38.2963 H   0  0  0  0  0  0  0  0  0  0  0  0
   46.3558   19.8615   34.2523 H   0  0  0  0  0  0  0  0  0  0  0  0
   47.2767   19.7801   31.9619 H   0  0  0  0  0  0  0  0  0  0  0  0
   45.8724   21.9148   26.8723 H   0  0  0  0  0  0  0  0  0  0  0  0
   46.0302   19.2323   26.5848 H   0  0  0  0  0  0  0  0  0  0  0  0
   45.7469   18.1167   29.0330 H   0  0  0  0  0  0  0  0  0  0  0  0
  1  2  2  0
  3 17  1  0
  3  2  1  0
  4  3  2  0
  5  4  1  0
  5  6  2  0
  6  1  1  0
  7  5  1  0
  8  7  2  0
  9  8  1  0
 10 11  1  0
 10  9  2  0
 11  7  1  0
 12 10  1  0
 13 12  1  0
 14 13  2  0
 15 14  1  0
 15 16  2  0
 16 12  1  0
 17 21  1  0
 18 19  1  0
 18 17  2  0
 19 20  1  0
 20 21  2  0
 20 22  1  0
 22 24  1  0
 22 23  1  0
 25 22  1  0
  1 26  1  0
  2 27  1  0
  8 28  1  0
  9 29  1  0
 14 30  1  0
 15 31  1  0
 16 32  1  0
M  ISO  7  26  14  27  14  28  14  29  14  30  14  31  14  32  14
M  END
>  <minimizedAffinity>  (1) 
-3.88540006

>  <minimizedRMSD>  (1) 
0.00566894189

$$$$
