
     RDKit          3D

 31 34  0  0  0  0  0  0  0  0999 V2000
   42.8900   21.1200   36.5250 C   0  0  0  0  0  0  0  0  0  0  0  0
   41.5280   21.2960   36.8140 C   0  0  0  0  0  0  0  0  0  0  0  0
   41.0730   22.5880   36.9620 C   0  0  0  0  0  0  0  0  0  0  0  0
   41.9920   23.5610   36.8130 N   0  0  0  0  0  0  0  0  0  0  0  0
   43.2680   23.4270   36.5440 C   0  0  0  0  0  0  0  0  0  0  0  0
   43.7180   22.1610   36.3980 N   0  0  0  0  0  0  0  0  0  0  0  0
   44.3050   24.4240   36.3710 C   0  0  0  0  0  0  0  0  0  0  0  0
   45.4060   24.4620   37.1340 N   0  0  0  0  0  0  0  0  0  0  0  0
   46.3990   25.3500   37.0290 C   0  0  0  0  0  0  0  0  0  0  0  0
   46.3520   26.3290   36.0880 N   0  0  0  0  0  0  0  0  0  0  0  0
   45.2760   26.3900   35.2510 C   0  0  0  0  0  0  0  0  0  0  0  0
   45.2140   27.3750   34.2930 C   0  0  0  0  0  0  0  0  0  0  0  0
   44.1350   27.4530   33.4390 C   0  0  0  0  0  0  0  0  0  0  0  0
   43.1340   26.5060   33.5910 C   0  0  0  0  0  0  0  0  0  0  0  0
   43.2510   25.5440   34.5680 C   0  0  0  0  0  0  0  0  0  0  0  0
   44.3090   25.4330   35.4380 C   0  0  0  0  0  0  0  0  0  0  0  0
   39.6730   22.8460   37.2610 C   0  0  0  0  0  0  0  0  0  0  0  0
   38.6760   23.0910   36.3300 C   0  0  0  0  0  0  0  0  0  0  0  0
   37.5260   23.2790   37.0220 N   0  0  0  0  0  0  0  0  0  0  0  0
   37.8460   23.1450   38.3390 C   0  0  0  0  0  0  0  0  0  0  0  0
   39.1270   22.8840   38.5120 N   0  0  0  0  0  0  0  0  0  0  0  0
   43.2852   20.1011   36.4001 H   0  0  0  0  0  0  0  0  0  0  0  0
   40.8502   20.4360   36.9183 H   0  0  0  0  0  0  0  0  0  0  0  0
   47.2610   25.2879   37.7095 H   0  0  0  0  0  0  0  0  0  0  0  0
   46.0316   28.1059   34.2078 H   0  0  0  0  0  0  0  0  0  0  0  0
   44.0707   28.2350   32.6680 H   0  0  0  0  0  0  0  0  0  0  0  0
   42.2515   26.5235   32.9346 H   0  0  0  0  0  0  0  0  0  0  0  0
   42.4374   24.8094   34.6594 H   0  0  0  0  0  0  0  0  0  0  0  0
   38.7954   23.1262   35.2371 H   0  0  0  0  0  0  0  0  0  0  0  0
   37.1217   23.2429   39.1611 H   0  0  0  0  0  0  0  0  0  0  0  0
   39.6155   22.7386   39.4071 H   0  0  0  0  0  0  0  0  0  0  0  0
  1  2  2  0
  2  3  1  0
  3 17  1  0
  4  3  2  0
  5  4  1  0
  6  1  1  0
  6  5  2  0
  7  5  1  0
  7  8  2  0
  9  8  1  0
 10  9  2  0
 11 16  2  0
 11 10  1  0
 12 11  1  0
 13 14  1  0
 13 12  2  0
 14 15  2  0
 15 16  1  0
 16  7  1  0
 17 21  1  0
 18 19  1  0
 18 17  2  0
 19 20  2  0
 20 21  1  0
  1 22  1  0
  2 23  1  0
  9 24  1  0
 12 25  1  0
 13 26  1  0
 14 27  1  0
 15 28  1  0
 18 29  1  0
 20 30  1  0
 21 31  1  0
M  ISO  8  22  14  23  14  24  14  25  14  26  14  27  14  28  14  29  14
M  ISO  2  30  14  31   9
M  END
>  <minimizedAffinity>  (1) 
-5.10481596

>  <minimizedRMSD>  (1) 
5.31856585

$$$$
