
     RDKit          3D

 27 29  0  0  0  0  0  0  0  0999 V2000
   43.6190   19.7310   37.0840 C   0  0  0  0  0  0  0  0  0  0  0  0
   42.4790   20.5050   37.3060 C   0  0  0  0  0  0  0  0  0  0  0  0
   41.9470   21.2260   36.2230 C   0  0  0  0  0  0  0  0  0  0  0  0
   42.5810   21.1290   34.9980 N   0  0  0  0  0  0  0  0  0  0  0  0
   43.6720   20.3730   34.8390 C   0  0  0  0  0  0  0  0  0  0  0  0
   44.2000   19.6650   35.8850 N   0  0  0  0  0  0  0  0  0  0  0  0
   44.3110   20.3010   33.5110 C   0  0  0  0  0  0  0  0  0  0  0  0
   45.6890   20.0620   33.3610 C   0  0  0  0  0  0  0  0  0  0  0  0
   46.2280   20.0000   32.1160 C   0  0  0  0  0  0  0  0  0  0  0  0
   45.3940   20.1770   31.0000 C   0  0  0  0  0  0  0  0  0  0  0  0
   43.7460   20.4470   31.8110 S   0  0  0  0  0  0  0  0  0  0  0  0
   45.5470   20.1870   29.6340 C   0  0  0  0  0  0  0  0  0  0  0  0
   44.6340   20.6550   28.9050 O   0  0  0  0  0  0  0  0  0  0  0  0
   40.7550   22.0670   36.3570 C   0  0  0  0  0  0  0  0  0  0  0  0
   39.9150   22.6680   35.4970 N   0  0  0  0  0  0  0  0  0  0  0  0
   39.0030   23.3070   36.1630 O   0  0  0  0  0  0  0  0  0  0  0  0
   39.2150   23.1450   37.4700 C   0  0  0  0  0  0  0  0  0  0  0  0
   40.2970   22.3790   37.5900 N   0  0  0  0  0  0  0  0  0  0  0  0
   38.4120   23.7030   38.5690 C   0  0  0  0  0  0  0  0  0  0  0  0
   39.2460   23.8790   39.6840 F   0  0  0  0  0  0  0  0  0  0  0  0
   37.3960   22.8680   38.9430 F   0  0  0  0  0  0  0  0  0  0  0  0
   37.9340   24.9530   38.2270 F   0  0  0  0  0  0  0  0  0  0  0  0
   44.0498   19.1603   37.9199 H   0  0  0  0  0  0  0  0  0  0  0  0
   42.0102   20.5495   38.3001 H   0  0  0  0  0  0  0  0  0  0  0  0
   46.3265   19.9261   34.2471 H   0  0  0  0  0  0  0  0  0  0  0  0
   47.3039   19.8135   31.9834 H   0  0  0  0  0  0  0  0  0  0  0  0
   46.4652   19.7869   29.1791 H   0  0  0  0  0  0  0  0  0  0  0  0
  1  2  2  0
  3 14  1  0
  3  2  1  0
  4  3  2  0
  5  4  1  0
  5  6  2  0
  6  1  1  0
  7  5  1  0
  8  7  2  0
  9  8  1  0
 10 11  1  0
 10  9  2  0
 11  7  1  0
 12 10  1  0
 13 12  2  0
 14 18  1  0
 15 16  1  0
 15 14  2  0
 16 17  1  0
 17 18  2  0
 17 19  1  0
 19 21  1  0
 19 20  1  0
 22 19  1  0
  1 23  1  0
  2 24  1  0
  8 25  1  0
  9 26  1  0
 12 27  1  0
M  ISO  5  23  14  24  14  25  14  26  14  27   6
M  END
>  <minimizedAffinity>  (1) 
-3.88142061

>  <minimizedRMSD>  (1) 
0.0236380715

$$$$
