
     RDKit          3D

 30 32  0  0  0  0  0  0  0  0999 V2000
   42.5390   20.8050   37.0210 C   0  0  0  0  0  0  0  0  0  0  0  0
   41.4460   21.4860   37.5900 C   0  0  0  0  0  0  0  0  0  0  0  0
   40.5970   22.1600   36.7270 C   0  0  0  0  0  0  0  0  0  0  0  0
   40.8490   22.1400   35.3640 N   0  0  0  0  0  0  0  0  0  0  0  0
   41.9010   21.4760   34.8790 C   0  0  0  0  0  0  0  0  0  0  0  0
   42.7420   20.8140   35.6950 N   0  0  0  0  0  0  0  0  0  0  0  0
   42.1730   21.4450   33.4820 N   0  0  0  0  0  0  0  0  0  0  0  0
   43.2420   22.2260   32.8870 C   0  0  0  0  0  0  0  0  0  0  0  0
   42.9730   22.2930   31.4080 C   0  0  0  0  0  0  0  0  0  0  0  0
   41.6510   22.4280   31.0790 O   0  0  0  0  0  0  0  0  0  0  0  0
   40.8740   21.3230   31.4020 C   0  0  0  0  0  0  0  0  0  0  0  0
   41.3440   20.5970   32.6160 C   0  0  0  0  0  0  0  0  0  0  0  0
   39.4440   22.8840   37.2760 C   0  0  0  0  0  0  0  0  0  0  0  0
   38.5960   23.7050   36.5320 C   0  0  0  0  0  0  0  0  0  0  0  0
   37.6740   24.1730   37.4090 N   0  0  0  0  0  0  0  0  0  0  0  0
   37.9780   23.6420   38.6180 C   0  0  0  0  0  0  0  0  0  0  0  0
   39.0360   22.8650   38.5600 N   0  0  0  0  0  0  0  0  0  0  0  0
   43.2361   20.2580   37.6727 H   0  0  0  0  0  0  0  0  0  0  0  0
   41.2730   21.4831   38.6763 H   0  0  0  0  0  0  0  0  0  0  0  0
   43.2516   23.2394   33.3147 H   0  0  0  0  0  0  0  0  0  0  0  0
   44.2205   21.7644   33.0857 H   0  0  0  0  0  0  0  0  0  0  0  0
   43.5194   23.1551   30.9977 H   0  0  0  0  0  0  0  0  0  0  0  0
   43.3053   21.3336   30.9848 H   0  0  0  0  0  0  0  0  0  0  0  0
   39.8425   21.6625   31.5775 H   0  0  0  0  0  0  0  0  0  0  0  0
   40.9456   20.6207   30.5584 H   0  0  0  0  0  0  0  0  0  0  0  0
   40.4676   20.2568   33.1871 H   0  0  0  0  0  0  0  0  0  0  0  0
   41.9597   19.7477   32.2849 H   0  0  0  0  0  0  0  0  0  0  0  0
   38.6618   23.9267   35.4566 H   0  0  0  0  0  0  0  0  0  0  0  0
   37.4074   23.8379   39.5378 H   0  0  0  0  0  0  0  0  0  0  0  0
   39.4665   22.3462   39.3387 H   0  0  0  0  0  0  0  0  0  0  0  0
  1  2  2  0
  3 13  1  0
  3  2  1  0
  4  3  2  0
  5  4  1  0
  5  6  2  0
  6  1  1  0
  7  5  1  0
  8  7  1  0
  9  8  1  0
 10 11  1  0
 10  9  1  0
 11 12  1  0
 12  7  1  0
 13 17  1  0
 14 13  2  0
 14 15  1  0
 15 16  2  0
 17 16  1  0
  1 18  1  0
  2 19  1  0
  8 20  1  0
  8 21  1  0
  9 22  1  0
  9 23  1  0
 11 24  1  0
 11 25  1  0
 12 26  1  0
 12 27  1  0
 14 28  1  0
 16 29  1  0
 17 30  1  0
M  ISO  8  18  14  19  14  20  13  21  13  22  13  23  13  24  13  25  13
M  ISO  5  26  13  27  13  28  14  29  14  30   9
M  END
>  <minimizedAffinity>  (1) 
-3.97092819

>  <minimizedRMSD>  (1) 
0.0638248026

$$$$
