
     RDKit          3D

 32 34  0  0  0  0  0  0  0  0999 V2000
   42.5300   20.8040   37.0140 C   0  0  0  0  0  0  0  0  0  0  0  0
   41.4390   21.4810   37.5810 C   0  0  0  0  0  0  0  0  0  0  0  0
   40.6020   22.1680   36.7180 C   0  0  0  0  0  0  0  0  0  0  0  0
   40.8730   22.1540   35.3810 N   0  0  0  0  0  0  0  0  0  0  0  0
   41.9290   21.4920   34.8870 C   0  0  0  0  0  0  0  0  0  0  0  0
   42.7600   20.8180   35.6770 N   0  0  0  0  0  0  0  0  0  0  0  0
   42.1450   21.5250   33.4830 N   0  0  0  0  0  0  0  0  0  0  0  0
   41.8730   20.4220   32.5830 C   0  0  0  0  0  0  0  0  0  0  0  0
   40.7220   20.8850   31.7050 C   0  0  0  0  0  0  0  0  0  0  0  0
   41.2140   22.0320   30.8700 C   0  0  0  0  0  0  0  0  0  0  0  0
   42.4800   22.6600   31.3400 C   0  0  0  0  0  0  0  0  0  0  0  0
   42.6740   22.7010   32.8190 C   0  0  0  0  0  0  0  0  0  0  0  0
   39.4540   22.8840   37.2820 C   0  0  0  0  0  0  0  0  0  0  0  0
   38.6110   23.7140   36.5570 C   0  0  0  0  0  0  0  0  0  0  0  0
   37.6870   24.1770   37.4360 N   0  0  0  0  0  0  0  0  0  0  0  0
   37.9740   23.6410   38.6370 C   0  0  0  0  0  0  0  0  0  0  0  0
   39.0320   22.8610   38.5610 N   0  0  0  0  0  0  0  0  0  0  0  0
   43.2158   20.2481   37.6702 H   0  0  0  0  0  0  0  0  0  0  0  0
   41.2565   21.4664   38.6657 H   0  0  0  0  0  0  0  0  0  0  0  0
   42.7586   20.1997   31.9695 H   0  0  0  0  0  0  0  0  0  0  0  0
   41.6221   19.5019   33.1311 H   0  0  0  0  0  0  0  0  0  0  0  0
   40.3937   20.0617   31.0535 H   0  0  0  0  0  0  0  0  0  0  0  0
   39.8687   21.1988   32.3241 H   0  0  0  0  0  0  0  0  0  0  0  0
   40.4327   22.8063   30.8609 H   0  0  0  0  0  0  0  0  0  0  0  0
   41.4304   21.6152   29.8753 H   0  0  0  0  0  0  0  0  0  0  0  0
   43.3183   22.0961   30.9051 H   0  0  0  0  0  0  0  0  0  0  0  0
   42.4313   23.7100   31.0156 H   0  0  0  0  0  0  0  0  0  0  0  0
   43.7510   22.7711   33.0314 H   0  0  0  0  0  0  0  0  0  0  0  0
   42.1274   23.5750   33.2029 H   0  0  0  0  0  0  0  0  0  0  0  0
   38.6783   23.9494   35.4846 H   0  0  0  0  0  0  0  0  0  0  0  0
   37.4019   23.8292   39.5575 H   0  0  0  0  0  0  0  0  0  0  0  0
   39.4577   22.3318   39.3353 H   0  0  0  0  0  0  0  0  0  0  0  0
  1  2  2  0
  3 13  1  0
  3  2  1  0
  4  3  2  0
  5  4  1  0
  5  6  2  0
  6  1  1  0
  7  5  1  0
  8  7  1  0
  9  8  1  0
 10 11  1  0
 10  9  1  0
 11 12  1  0
 12  7  1  0
 13 17  1  0
 14 13  2  0
 14 15  1  0
 15 16  2  0
 17 16  1  0
  1 18  1  0
  2 19  1  0
  8 20  1  0
  8 21  1  0
  9 22  1  0
  9 23  1  0
 10 24  1  0
 10 25  1  0
 11 26  1  0
 11 27  1  0
 12 28  1  0
 12 29  1  0
 14 30  1  0
 16 31  1  0
 17 32  1  0
M  ISO  8  18  14  19  14  20  13  21  13  22  13  23  13  24  13  25  13
M  ISO  7  26  13  27  13  28  13  29  13  30  14  31  14  32   9
M  END
>  <minimizedAffinity>  (1) 
-3.97677493

>  <minimizedRMSD>  (1) 
0.0791260377

$$$$
