
     RDKit          3D

 28 30  0  0  0  0  0  0  0  0999 V2000
   42.7560   21.0450   36.8930 C   0  0  0  0  0  0  0  0  0  0  0  0
   41.4120   21.3030   37.2470 C   0  0  0  0  0  0  0  0  0  0  0  0
   40.9460   22.5940   37.0720 C   0  0  0  0  0  0  0  0  0  0  0  0
   41.8050   23.5580   36.5680 N   0  0  0  0  0  0  0  0  0  0  0  0
   43.0640   23.2510   36.2540 C   0  0  0  0  0  0  0  0  0  0  0  0
   43.5420   22.0190   36.4100 N   0  0  0  0  0  0  0  0  0  0  0  0
   43.7660   24.4000   35.7520 N   0  0  0  0  0  0  0  0  0  0  0  0
   44.6160   25.0770   36.5770 C   0  0  0  0  0  0  0  0  0  0  0  0
   45.3390   26.1980   36.1850 C   0  0  0  0  0  0  0  0  0  0  0  0
   45.1730   26.6300   34.8920 C   0  0  0  0  0  0  0  0  0  0  0  0
   45.9240   27.7730   34.5240 N   0  0  0  0  0  0  0  0  0  0  0  0
   44.3320   25.9520   34.0900 N   0  0  0  0  0  0  0  0  0  0  0  0
   43.6440   24.8740   34.4850 C   0  0  0  0  0  0  0  0  0  0  0  0
   42.8640   24.2620   33.7100 O   0  0  0  0  0  0  0  0  0  0  0  0
   39.5550   22.8960   37.4290 C   0  0  0  0  0  0  0  0  0  0  0  0
   38.5680   23.2280   36.4850 C   0  0  0  0  0  0  0  0  0  0  0  0
   37.4450   23.4270   37.2190 N   0  0  0  0  0  0  0  0  0  0  0  0
   37.7550   23.2260   38.5100 C   0  0  0  0  0  0  0  0  0  0  0  0
   39.0270   22.9030   38.6610 N   0  0  0  0  0  0  0  0  0  0  0  0
   43.1634   20.0306   37.0154 H   0  0  0  0  0  0  0  0  0  0  0  0
   40.7628   20.5094   37.6455 H   0  0  0  0  0  0  0  0  0  0  0  0
   44.7359   24.7160   37.6091 H   0  0  0  0  0  0  0  0  0  0  0  0
   46.0150   26.7167   36.8807 H   0  0  0  0  0  0  0  0  0  0  0  0
   45.8493   28.1530   33.5696 H   0  0  0  0  0  0  0  0  0  0  0  0
   46.5449   28.2243   35.2108 H   0  0  0  0  0  0  0  0  0  0  0  0
   38.6812   23.3085   35.3938 H   0  0  0  0  0  0  0  0  0  0  0  0
   37.0383   23.3188   39.3393 H   0  0  0  0  0  0  0  0  0  0  0  0
   39.5139   22.6983   39.5453 H   0  0  0  0  0  0  0  0  0  0  0  0
  1  2  2  0
  3  2  1  0
  3 15  1  0
  4  3  2  0
  5  6  2  0
  5  4  1  0
  6  1  1  0
  7  5  1  0
  7  8  1  0
  9  8  2  0
 10  9  1  0
 11 10  1  0
 12 13  1  0
 12 10  2  0
 13  7  1  0
 14 13  2  0
 15 19  1  0
 16 17  1  0
 16 15  2  0
 17 18  2  0
 18 19  1  0
  1 20  1  0
  2 21  1  0
  8 22  1  0
  9 23  1  0
 11 24  1  0
 11 25  1  0
 16 26  1  0
 18 27  1  0
 19 28  1  0
M  ISO  7  20  14  21  14  22  14  23  14  26  14  27  14  28   9
M  END
>  <minimizedAffinity>  (1) 
-5.03890228

>  <minimizedRMSD>  (1) 
3.93443704

$$$$
