
     RDKit          3D

 18 19  0  0  0  0  0  0  0  0999 V2000
   42.5420   20.7840   37.0800 C   0  0  0  0  0  0  0  0  0  0  0  0
   41.4310   21.4710   37.5790 C   0  0  0  0  0  0  0  0  0  0  0  0
   40.6020   22.1570   36.7050 C   0  0  0  0  0  0  0  0  0  0  0  0
   40.9090   22.1300   35.3750 N   0  0  0  0  0  0  0  0  0  0  0  0
   41.9900   21.4570   34.9240 C   0  0  0  0  0  0  0  0  0  0  0  0
   42.7830   20.8010   35.7660 N   0  0  0  0  0  0  0  0  0  0  0  0
   39.4550   22.8620   37.2560 C   0  0  0  0  0  0  0  0  0  0  0  0
   38.5960   23.6570   36.4850 C   0  0  0  0  0  0  0  0  0  0  0  0
   37.6610   24.1370   37.3560 N   0  0  0  0  0  0  0  0  0  0  0  0
   37.9590   23.6450   38.5770 C   0  0  0  0  0  0  0  0  0  0  0  0
   39.0300   22.8770   38.5460 N   0  0  0  0  0  0  0  0  0  0  0  0
   42.3050   21.4290   33.5710 O   0  0  0  0  0  0  0  0  0  0  0  0
   43.2096   20.2361   37.7612 H   0  0  0  0  0  0  0  0  0  0  0  0
   41.2163   21.4671   38.6578 H   0  0  0  0  0  0  0  0  0  0  0  0
   38.6615   23.8530   35.4046 H   0  0  0  0  0  0  0  0  0  0  0  0
   37.3790   23.8588   39.4869 H   0  0  0  0  0  0  0  0  0  0  0  0
   39.4597   22.3854   39.3426 H   0  0  0  0  0  0  0  0  0  0  0  0
   43.1012   20.9306   33.2583 H   0  0  0  0  0  0  0  0  0  0  0  0
  1  2  2  0
  3  7  1  0
  3  2  1  0
  4  3  2  0
  5  4  1  0
  5  6  2  0
  6  1  1  0
  7 11  1  0
  8  7  2  0
  8  9  1  0
  9 10  2  0
 11 10  1  0
 12  5  1  0
  1 13  1  0
  2 14  1  0
  8 15  1  0
 10 16  1  0
 11 17  1  0
 12 18  1  0
M  ISO  6  13  14  14  14  15  14  16  14  17   9  18   3
M  END
>  <minimizedAffinity>  (1) 
-3.78498268

>  <minimizedRMSD>  (1) 
0.0244775172

$$$$
