
     RDKit          3D

 24 26  0  0  0  0  0  0  0  0999 V2000
   42.5350   20.8040   37.0740 C   0  0  0  0  0  0  0  0  0  0  0  0
   41.4320   21.4910   37.5950 C   0  0  0  0  0  0  0  0  0  0  0  0
   40.5900   22.1600   36.7220 C   0  0  0  0  0  0  0  0  0  0  0  0
   40.8920   22.1080   35.3920 N   0  0  0  0  0  0  0  0  0  0  0  0
   41.9530   21.4440   34.9230 C   0  0  0  0  0  0  0  0  0  0  0  0
   42.7650   20.7990   35.7560 N   0  0  0  0  0  0  0  0  0  0  0  0
   42.1800   21.4520   33.5190 N   0  0  0  0  0  0  0  0  0  0  0  0
   41.2460   20.9580   32.7220 N   0  0  0  0  0  0  0  0  0  0  0  0
   41.6520   21.0580   31.4300 C   0  0  0  0  0  0  0  0  0  0  0  0
   42.8830   21.6420   31.5150 C   0  0  0  0  0  0  0  0  0  0  0  0
   43.2560   21.9080   32.8160 C   0  0  0  0  0  0  0  0  0  0  0  0
   39.4490   22.8680   37.2800 C   0  0  0  0  0  0  0  0  0  0  0  0
   38.5930   23.6780   36.5170 C   0  0  0  0  0  0  0  0  0  0  0  0
   37.6630   24.1590   37.3780 N   0  0  0  0  0  0  0  0  0  0  0  0
   37.9490   23.6590   38.6070 C   0  0  0  0  0  0  0  0  0  0  0  0
   39.0270   22.8760   38.5680 N   0  0  0  0  0  0  0  0  0  0  0  0
   43.2152   20.2662   37.7509 H   0  0  0  0  0  0  0  0  0  0  0  0
   41.2376   21.4994   38.6777 H   0  0  0  0  0  0  0  0  0  0  0  0
   41.1136   20.7416   30.5245 H   0  0  0  0  0  0  0  0  0  0  0  0
   43.5092   21.8750   30.6412 H   0  0  0  0  0  0  0  0  0  0  0  0
   44.1821   22.3689   33.1899 H   0  0  0  0  0  0  0  0  0  0  0  0
   38.6629   23.8813   35.4382 H   0  0  0  0  0  0  0  0  0  0  0  0
   37.3674   23.8720   39.5160 H   0  0  0  0  0  0  0  0  0  0  0  0
   39.4548   22.3758   39.3602 H   0  0  0  0  0  0  0  0  0  0  0  0
  1  2  2  0
  3 12  1  0
  3  2  1  0
  4  3  2  0
  5  4  1  0
  5  6  2  0
  6  1  1  0
  7  5  1  0
  8  7  1  0
  9 10  1  0
  9  8  2  0
 10 11  2  0
 11  7  1  0
 12 16  1  0
 13 12  2  0
 13 14  1  0
 14 15  2  0
 16 15  1  0
  1 17  1  0
  2 18  1  0
  9 19  1  0
 10 20  1  0
 11 21  1  0
 13 22  1  0
 15 23  1  0
 16 24  1  0
M  ISO  8  17  14  18  14  19  14  20  14  21  14  22  14  23  14  24   9
M  END
>  <minimizedAffinity>  (1) 
-3.9364388

>  <minimizedRMSD>  (1) 
0.131346494

$$$$
