
     RDKit          3D

 25 27  0  0  0  0  0  0  0  0999 V2000
   42.5410   20.7740   37.1110 C   0  0  0  0  0  0  0  0  0  0  0  0
   41.4310   21.4590   37.6250 C   0  0  0  0  0  0  0  0  0  0  0  0
   40.6120   22.1430   36.7380 C   0  0  0  0  0  0  0  0  0  0  0  0
   40.9250   22.1170   35.3910 N   0  0  0  0  0  0  0  0  0  0  0  0
   41.9980   21.4450   34.9610 C   0  0  0  0  0  0  0  0  0  0  0  0
   42.7980   20.7820   35.7970 N   0  0  0  0  0  0  0  0  0  0  0  0
   39.4520   22.8610   37.2570 C   0  0  0  0  0  0  0  0  0  0  0  0
   38.6040   23.6520   36.4830 C   0  0  0  0  0  0  0  0  0  0  0  0
   37.6600   24.1350   37.3440 N   0  0  0  0  0  0  0  0  0  0  0  0
   37.9530   23.6450   38.5600 C   0  0  0  0  0  0  0  0  0  0  0  0
   39.0230   22.8790   38.5290 N   0  0  0  0  0  0  0  0  0  0  0  0
   42.3030   21.4370   33.5340 C   0  0  0  0  0  0  0  0  0  0  0  0
   41.3310   21.3020   32.5700 C   0  0  0  0  0  0  0  0  0  0  0  0
   41.5480   21.2860   31.2080 C   0  0  0  0  0  0  0  0  0  0  0  0
   42.8520   21.4200   30.8360 N   0  0  0  0  0  0  0  0  0  0  0  0
   43.8260   21.5540   31.7400 C   0  0  0  0  0  0  0  0  0  0  0  0
   43.5840   21.5660   33.0790 N   0  0  0  0  0  0  0  0  0  0  0  0
   43.2067   20.2251   37.7933 H   0  0  0  0  0  0  0  0  0  0  0  0
   41.2149   21.4543   38.7036 H   0  0  0  0  0  0  0  0  0  0  0  0
   38.6795   23.8467   35.4030 H   0  0  0  0  0  0  0  0  0  0  0  0
   37.3709   23.8575   39.4689 H   0  0  0  0  0  0  0  0  0  0  0  0
   39.4494   22.3876   39.3275 H   0  0  0  0  0  0  0  0  0  0  0  0
   40.2917   21.1979   32.9149 H   0  0  0  0  0  0  0  0  0  0  0  0
   40.7320   21.1738   30.4789 H   0  0  0  0  0  0  0  0  0  0  0  0
   44.8632   21.6586   31.3888 H   0  0  0  0  0  0  0  0  0  0  0  0
  1  2  2  0
  3  7  1  0
  3  2  1  0
  4  3  2  0
  5  4  1  0
  5  6  2  0
  6  1  1  0
  7 11  1  0
  8  7  2  0
  8  9  1  0
  9 10  2  0
 11 10  1  0
 12  5  1  0
 13 12  2  0
 14 13  1  0
 15 14  2  0
 15 16  1  0
 16 17  2  0
 17 12  1  0
  1 18  1  0
  2 19  1  0
  8 20  1  0
 10 21  1  0
 11 22  1  0
 13 23  1  0
 14 24  1  0
 16 25  1  0
M  ISO  8  18  14  19  14  20  14  21  14  22   9  23  14  24  14  25  14
M  END
>  <minimizedAffinity>  (1) 
-3.7336607

>  <minimizedRMSD>  (1) 
0.0895821229

$$$$
