
     RDKit          3D

 41 43  0  0  0  0  0  0  0  0999 V2000
   38.6390   23.8830   36.2080 C   0  0  0  0  0  0  0  0  0  0  0  0
   41.7680   21.9500   36.9420 C   0  0  0  0  0  0  0  0  0  0  0  0
   40.4360   22.2990   36.9280 C   0  0  0  0  0  0  0  0  0  0  0  0
   40.0170   23.4550   36.2650 C   0  0  0  0  0  0  0  0  0  0  0  0
   40.9730   24.2000   35.6490 N   0  0  0  0  0  0  0  0  0  0  0  0
   42.2840   23.8490   35.6660 C   0  0  0  0  0  0  0  0  0  0  0  0
   42.6700   22.7180   36.3200 N   0  0  0  0  0  0  0  0  0  0  0  0
   42.1610   20.7100   37.6610 C   0  0  0  0  0  0  0  0  0  0  0  0
   43.1580   19.8890   36.9000 C   0  0  0  0  0  0  0  0  0  0  0  0
   37.9400   23.3720   37.4600 C   0  0  0  0  0  0  0  0  0  0  0  0
   38.4550   25.3790   36.0920 C   0  0  0  0  0  0  0  0  0  0  0  0
   37.9630   23.2470   35.0100 C   0  0  0  0  0  0  0  0  0  0  0  0
   38.1710   23.9950   33.8030 N   0  0  0  0  0  0  0  0  0  0  0  0
   39.0150   23.7710   32.7670 C   0  0  0  0  0  0  0  0  0  0  0  0
   38.8590   24.7610   31.8350 N   0  0  0  0  0  0  0  0  0  0  0  0
   37.9220   25.5790   32.3130 C   0  0  0  0  0  0  0  0  0  0  0  0
   37.5200   25.1100   33.4890 N   0  0  0  0  0  0  0  0  0  0  0  0
   37.4160   26.7870   31.6640 C   0  0  0  0  0  0  0  0  0  0  0  0
   37.0790   27.9760   32.2760 C   0  0  0  0  0  0  0  0  0  0  0  0
   36.6500   28.8680   31.3630 N   0  0  0  0  0  0  0  0  0  0  0  0
   36.7140   28.2470   30.1730 C   0  0  0  0  0  0  0  0  0  0  0  0
   37.1760   26.9970   30.3580 N   0  0  0  0  0  0  0  0  0  0  0  0
   39.6984   21.6645   37.4413 H   0  0  0  0  0  0  0  0  0  0  0  0
   43.0306   24.4743   35.1546 H   0  0  0  0  0  0  0  0  0  0  0  0
   42.6018   20.9898   38.6292 H   0  0  0  0  0  0  0  0  0  0  0  0
   41.2552   20.0986   37.7867 H   0  0  0  0  0  0  0  0  0  0  0  0
   43.8083   19.3535   37.6074 H   0  0  0  0  0  0  0  0  0  0  0  0
   42.6277   19.1622   36.2671 H   0  0  0  0  0  0  0  0  0  0  0  0
   43.7696   20.5488   36.2671 H   0  0  0  0  0  0  0  0  0  0  0  0
   38.4602   23.7523   38.3515 H   0  0  0  0  0  0  0  0  0  0  0  0
   36.8973   23.7223   37.4666 H   0  0  0  0  0  0  0  0  0  0  0  0
   37.9574   22.2722   37.4666 H   0  0  0  0  0  0  0  0  0  0  0  0
   38.4007   25.8208   37.0979 H   0  0  0  0  0  0  0  0  0  0  0  0
   39.3067   25.8120   35.5468 H   0  0  0  0  0  0  0  0  0  0  0  0
   37.5238   25.5927   35.5468 H   0  0  0  0  0  0  0  0  0  0  0  0
   38.3688   22.2339   34.8721 H   0  0  0  0  0  0  0  0  0  0  0  0
   36.8812   23.2246   35.2083 H   0  0  0  0  0  0  0  0  0  0  0  0
   39.7153   22.9264   32.6875 H   0  0  0  0  0  0  0  0  0  0  0  0
   37.1505   28.1684   33.3567 H   0  0  0  0  0  0  0  0  0  0  0  0
   36.4342   28.6887   29.2052 H   0  0  0  0  0  0  0  0  0  0  0  0
   37.3238   26.3041   29.6104 H   0  0  0  0  0  0  0  0  0  0  0  0
  1  4  1  0
  1 10  1  0
  2  8  1  0
  3  2  2  0
  4  3  1  0
  5  6  1  0
  5  4  2  0
  6  7  2  0
  7  2  1  0
  9  8  1  0
 11  1  1  0
 12  1  1  0
 13 12  1  0
 14 13  1  0
 15 16  1  0
 15 14  2  0
 16 17  2  0
 17 13  1  0
 18 19  2  0
 18 16  1  0
 20 19  1  0
 21 22  1  0
 21 20  2  0
 22 18  1  0
  3 23  1  0
  6 24  1  0
  8 25  1  0
  8 26  1  0
  9 27  1  0
  9 28  1  0
  9 29  1  0
 10 30  1  0
 10 31  1  0
 10 32  1  0
 11 33  1  0
 11 34  1  0
 11 35  1  0
 12 36  1  0
 12 37  1  0
 14 38  1  0
 19 39  1  0
 21 40  1  0
 22 41  1  0
M  ISO  8  23  14  24  14  25   8  26   8  27   8  28   8  29   8  30   8
M  ISO  8  31   8  32   8  33   8  34   8  35   8  36   8  37   8  38  14
M  ISO  3  39  14  40  14  41   9
M  END
>  <minimizedAffinity>  (1) 
-4.5630188

>  <minimizedRMSD>  (1) 
1.81042933

$$$$
