
     RDKit          3D

 24 26  0  0  0  0  0  0  0  0999 V2000
   42.5460   20.7850   37.1030 C   0  0  0  0  0  0  0  0  0  0  0  0
   41.4350   21.4820   37.5780 C   0  0  0  0  0  0  0  0  0  0  0  0
   40.5860   22.1610   36.7230 C   0  0  0  0  0  0  0  0  0  0  0  0
   40.8960   22.1090   35.3930 N   0  0  0  0  0  0  0  0  0  0  0  0
   41.9730   21.4300   34.9590 C   0  0  0  0  0  0  0  0  0  0  0  0
   42.7860   20.7790   35.7860 N   0  0  0  0  0  0  0  0  0  0  0  0
   39.4480   22.8660   37.2850 C   0  0  0  0  0  0  0  0  0  0  0  0
   38.6040   23.6690   36.5040 C   0  0  0  0  0  0  0  0  0  0  0  0
   37.6680   24.1520   37.3840 N   0  0  0  0  0  0  0  0  0  0  0  0
   37.9610   23.6550   38.5980 C   0  0  0  0  0  0  0  0  0  0  0  0
   39.0250   22.8790   38.5680 N   0  0  0  0  0  0  0  0  0  0  0  0
   42.2860   21.3870   33.5590 C   0  0  0  0  0  0  0  0  0  0  0  0
   43.3570   21.4530   32.7190 C   0  0  0  0  0  0  0  0  0  0  0  0
   43.2410   21.3670   31.3730 C   0  0  0  0  0  0  0  0  0  0  0  0
   41.9330   21.2010   30.8480 C   0  0  0  0  0  0  0  0  0  0  0  0
   40.8520   21.1690   32.3320 S   0  0  0  0  0  0  0  0  0  0  0  0
   43.2118   20.2508   37.7969 H   0  0  0  0  0  0  0  0  0  0  0  0
   41.2292   21.4918   38.6585 H   0  0  0  0  0  0  0  0  0  0  0  0
   38.6763   23.8678   35.4245 H   0  0  0  0  0  0  0  0  0  0  0  0
   37.3815   23.8705   39.5078 H   0  0  0  0  0  0  0  0  0  0  0  0
   39.4496   22.3815   39.3637 H   0  0  0  0  0  0  0  0  0  0  0  0
   44.3593   21.5817   33.1535 H   0  0  0  0  0  0  0  0  0  0  0  0
   44.1212   21.4233   30.7156 H   0  0  0  0  0  0  0  0  0  0  0  0
   41.6348   21.1119   29.7929 H   0  0  0  0  0  0  0  0  0  0  0  0
  1  2  2  0
  3  7  1  0
  3  2  1  0
  4  3  2  0
  5  4  1  0
  5  6  2  0
  6  1  1  0
  7 11  1  0
  8  7  2  0
  8  9  1  0
  9 10  2  0
 11 10  1  0
 12  5  1  0
 13 12  2  0
 14 13  1  0
 15 14  2  0
 15 16  1  0
 16 12  1  0
  1 17  1  0
  2 18  1  0
  8 19  1  0
 10 20  1  0
 11 21  1  0
 13 22  1  0
 14 23  1  0
 15 24  1  0
M  ISO  8  17  14  18  14  19  14  20  14  21   9  22  14  23  14  24  14
M  END
>  <minimizedAffinity>  (1) 
-3.72814202

>  <minimizedRMSD>  (1) 
0.144440755

$$$$
