
     RDKit          3D

 26 27  0  0  0  0  0  0  0  0999 V2000
   42.5400   20.7980   37.0470 C   0  0  0  0  0  0  0  0  0  0  0  0
   41.4400   21.4770   37.5800 C   0  0  0  0  0  0  0  0  0  0  0  0
   40.5980   22.1600   36.7190 C   0  0  0  0  0  0  0  0  0  0  0  0
   40.8920   22.1330   35.3820 N   0  0  0  0  0  0  0  0  0  0  0  0
   41.9500   21.4740   34.9060 C   0  0  0  0  0  0  0  0  0  0  0  0
   42.7750   20.8100   35.7110 N   0  0  0  0  0  0  0  0  0  0  0  0
   39.4460   22.8730   37.2700 C   0  0  0  0  0  0  0  0  0  0  0  0
   38.5920   23.6780   36.4940 C   0  0  0  0  0  0  0  0  0  0  0  0
   37.6600   24.1500   37.3800 N   0  0  0  0  0  0  0  0  0  0  0  0
   37.9640   23.6430   38.5950 C   0  0  0  0  0  0  0  0  0  0  0  0
   39.0320   22.8740   38.5500 N   0  0  0  0  0  0  0  0  0  0  0  0
   42.1820   21.5070   33.4340 C   0  0  0  0  0  0  0  0  0  0  0  0
   41.6770   22.8640   32.9370 C   0  0  0  0  0  0  0  0  0  0  0  0
   41.4480   20.4060   32.7090 C   0  0  0  0  0  0  0  0  0  0  0  0
   43.2199   20.2500   37.7160 H   0  0  0  0  0  0  0  0  0  0  0  0
   41.2473   21.4687   38.6630 H   0  0  0  0  0  0  0  0  0  0  0  0
   38.6581   23.8829   35.4153 H   0  0  0  0  0  0  0  0  0  0  0  0
   37.3893   23.8477   39.5103 H   0  0  0  0  0  0  0  0  0  0  0  0
   39.4648   22.3725   39.3387 H   0  0  0  0  0  0  0  0  0  0  0  0
   43.2533   21.3587   33.2330 H   0  0  0  0  0  0  0  0  0  0  0  0
   41.4386   23.5046   33.7989 H   0  0  0  0  0  0  0  0  0  0  0  0
   42.4565   23.3445   32.3275 H   0  0  0  0  0  0  0  0  0  0  0  0
   40.7730   22.7180   32.3275 H   0  0  0  0  0  0  0  0  0  0  0  0
   40.9932   19.7238   33.4423 H   0  0  0  0  0  0  0  0  0  0  0  0
   40.6605   20.8440   32.0781 H   0  0  0  0  0  0  0  0  0  0  0  0
   42.1551   19.8476   32.0781 H   0  0  0  0  0  0  0  0  0  0  0  0
  1  2  2  0
  3  7  1  0
  3  2  1  0
  4  3  2  0
  5  4  1  0
  5  6  2  0
  6  1  1  0
  7 11  1  0
  8  7  2  0
  8  9  1  0
  9 10  2  0
 11 10  1  0
 12  5  1  0
 13 12  1  0
 14 12  1  0
  1 15  1  0
  2 16  1  0
  8 17  1  0
 10 18  1  0
 11 19  1  0
 12 20  1  0
 13 21  1  0
 13 22  1  0
 13 23  1  0
 14 24  1  0
 14 25  1  0
 14 26  1  0
M  ISO  8  15  14  16  14  17  14  18  14  19   9  20   8  21   8  22   8
M  ISO  4  23   8  24   8  25   8  26   8
M  END
>  <minimizedAffinity>  (1) 
-3.71474385

>  <minimizedRMSD>  (1) 
0.0324772261

$$$$
