
     RDKit          3D

 49 53  0  0  1  0  0  0  0  0999 V2000
   43.3380   23.5560   34.3320 C   0  0  1  0  0  0  0  0  0  0  0  0
   42.4900   23.4210   33.1030 C   0  0  0  0  0  0  0  0  0  0  0  0
   42.9520   24.2650   31.9670 C   0  0  0  0  0  0  0  0  0  0  0  0
   43.3700   25.6230   32.4210 C   0  0  0  0  0  0  0  0  0  0  0  0
   42.8580   25.9310   33.7860 C   0  0  0  0  0  0  0  0  0  0  0  0
   43.4750   24.9900   34.8120 C   0  0  2  0  0  0  0  0  0  0  0  0
   44.8680   25.3920   35.0820 C   0  0  0  0  0  0  0  0  0  0  0  0
   45.7530   25.6340   34.0550 C   0  0  0  0  0  0  0  0  0  0  0  0
   47.0660   26.0120   34.2440 C   0  0  0  0  0  0  0  0  0  0  0  0
   47.5690   26.1710   35.5190 C   0  0  0  0  0  0  0  0  0  0  0  0
   46.7300   25.9440   36.5890 C   0  0  0  0  0  0  0  0  0  0  0  0
   47.2020   26.0990   37.8760 C   0  0  0  0  0  0  0  0  0  0  0  0
   46.3960   25.8860   38.9710 C   0  0  0  0  0  0  0  0  0  0  0  0
   45.0850   25.5080   38.7300 C   0  0  0  0  0  0  0  0  0  0  0  0
   44.6370   25.3600   37.4350 C   0  0  0  0  0  0  0  0  0  0  0  0
   45.4300   25.5690   36.3270 C   0  0  0  0  0  0  0  0  0  0  0  0
   42.5680   21.0690   36.9000 C   0  0  0  0  0  0  0  0  0  0  0  0
   41.3380   21.4740   37.3960 C   0  0  0  0  0  0  0  0  0  0  0  0
   40.7450   22.5990   36.8560 C   0  0  0  0  0  0  0  0  0  0  0  0
   41.4160   23.2510   35.8590 N   0  0  0  0  0  0  0  0  0  0  0  0
   42.6020   22.8280   35.4090 C   0  0  0  0  0  0  0  0  0  0  0  0
   43.1670   21.7500   35.9260 N   0  0  0  0  0  0  0  0  0  0  0  0
   39.4500   23.0210   37.3800 C   0  0  0  0  0  0  0  0  0  0  0  0
   38.4920   23.7090   36.6310 C   0  0  0  0  0  0  0  0  0  0  0  0
   37.4430   23.9140   37.4750 N   0  0  0  0  0  0  0  0  0  0  0  0
   37.7800   23.3680   38.6570 C   0  0  0  0  0  0  0  0  0  0  0  0
   38.9730   22.8260   38.6360 N   0  0  0  0  0  0  0  0  0  0  0  0
   44.3446   23.1743   34.1060 H   0  0  0  0  0  0  0  0  0  0  0  0
   42.5051   22.3685   32.7835 H   0  0  0  0  0  0  0  0  0  0  0  0
   41.4785   23.7619   33.3688 H   0  0  0  0  0  0  0  0  0  0  0  0
   42.1303   24.3687   31.2431 H   0  0  0  0  0  0  0  0  0  0  0  0
   43.8231   23.7743   31.5082 H   0  0  0  0  0  0  0  0  0  0  0  0
   44.4688   25.6720   32.4332 H   0  0  0  0  0  0  0  0  0  0  0  0
   42.9496   26.3618   31.7229 H   0  0  0  0  0  0  0  0  0  0  0  0
   43.1172   26.9684   34.0443 H   0  0  0  0  0  0  0  0  0  0  0  0
   41.7659   25.7997   33.7943 H   0  0  0  0  0  0  0  0  0  0  0  0
   42.9409   25.0541   35.7715 H   0  0  0  0  0  0  0  0  0  0  0  0
   45.3913   25.5190   33.0226 H   0  0  0  0  0  0  0  0  0  0  0  0
   47.7155   26.1876   33.3738 H   0  0  0  0  0  0  0  0  0  0  0  0
   48.6151   26.4719   35.6779 H   0  0  0  0  0  0  0  0  0  0  0  0
   48.2485   26.4003   38.0308 H   0  0  0  0  0  0  0  0  0  0  0  0
   46.7769   26.0107   39.9954 H   0  0  0  0  0  0  0  0  0  0  0  0
   44.4015   25.3260   39.5724 H   0  0  0  0  0  0  0  0  0  0  0  0
   43.5908   25.0590   37.2772 H   0  0  0  0  0  0  0  0  0  0  0  0
   43.0543   20.1745   37.3164 H   0  0  0  0  0  0  0  0  0  0  0  0
   40.8448   20.9114   38.2024 H   0  0  0  0  0  0  0  0  0  0  0  0
   38.5690   24.0203   35.5788 H   0  0  0  0  0  0  0  0  0  0  0  0
   37.1273   23.3755   39.5424 H   0  0  0  0  0  0  0  0  0  0  0  0
   39.4512   22.3493   39.4138 H   0  0  0  0  0  0  0  0  0  0  0  0
  1  6  1  0
  1 21  1  0
  2  1  1  0
  3  4  1  0
  3  2  1  0
  4  5  1  0
  5  6  1  0
  6  7  1  0
  7 16  2  0
  8  9  2  0
  8  7  1  0
  9 10  1  0
 10 11  2  0
 11 12  1  0
 12 13  2  0
 14 13  1  0
 15 14  2  0
 16 11  1  0
 16 15  1  0
 17 18  2  0
 19 23  1  0
 19 18  1  0
 20 19  2  0
 21 20  1  0
 21 22  2  0
 22 17  1  0
 23 27  1  0
 24 23  2  0
 24 25  1  0
 25 26  2  0
 27 26  1  0
  1 28  1  6
  2 29  1  0
  2 30  1  0
  3 31  1  0
  3 32  1  0
  4 33  1  0
  4 34  1  0
  5 35  1  0
  5 36  1  0
  6 37  1  1
  8 38  1  0
  9 39  1  0
 10 40  1  0
 12 41  1  0
 13 42  1  0
 14 43  1  0
 15 44  1  0
 17 45  1  0
 18 46  1  0
 24 47  1  0
 26 48  1  0
 27 49  1  0
M  ISO  8  28  13  29  13  30  13  31  13  32  13  33  13  34  13  35  13
M  ISO  8  36  13  37  13  38  14  39  14  40  14  41  14  42  14  43  14
M  ISO  6  44  14  45  14  46  14  47  14  48  14  49   9
M  END
>  <minimizedAffinity>  (1) 
-6.18824434

>  <minimizedRMSD>  (1) 
3.21509862

$$$$
