
     RDKit          3D

 41 44  0  0  1  0  0  0  0  0999 V2000
   44.0850   23.4140   35.3420 C   0  0  1  0  0  0  0  0  0  0  0  0
   43.5100   23.5880   33.9670 C   0  0  0  0  0  0  0  0  0  0  0  0
   44.2840   24.5360   33.1070 C   0  0  0  0  0  0  0  0  0  0  0  0
   44.7930   25.7160   33.8680 C   0  0  0  0  0  0  0  0  0  0  0  0
   44.0580   25.8860   35.1610 C   0  0  0  0  0  0  0  0  0  0  0  0
   44.3120   24.7250   36.0690 C   0  0  2  0  0  0  0  0  0  0  0  0
   42.5440   20.7040   37.2400 C   0  0  0  0  0  0  0  0  0  0  0  0
   41.2790   21.2020   37.5600 C   0  0  0  0  0  0  0  0  0  0  0  0
   40.9480   22.4720   37.1260 C   0  0  0  0  0  0  0  0  0  0  0  0
   41.8850   23.1740   36.4010 N   0  0  0  0  0  0  0  0  0  0  0  0
   43.0810   22.6520   36.1210 C   0  0  0  0  0  0  0  0  0  0  0  0
   43.4070   21.4400   36.5310 N   0  0  0  0  0  0  0  0  0  0  0  0
   39.6270   23.0170   37.4450 C   0  0  0  0  0  0  0  0  0  0  0  0
   38.8490   23.7820   36.5860 C   0  0  0  0  0  0  0  0  0  0  0  0
   37.7140   24.0690   37.2870 N   0  0  0  0  0  0  0  0  0  0  0  0
   37.8350   23.4950   38.4900 C   0  0  0  0  0  0  0  0  0  0  0  0
   38.9650   22.8540   38.6310 N   0  0  0  0  0  0  0  0  0  0  0  0
   45.6780   24.7210   36.6680 C   0  0  0  0  0  0  0  0  0  0  0  0
   46.1980   25.8240   37.3310 C   0  0  0  0  0  0  0  0  0  0  0  0
   47.4860   25.7200   37.8560 C   0  0  0  0  0  0  0  0  0  0  0  0
   48.2440   24.6120   37.7520 N   0  0  0  0  0  0  0  0  0  0  0  0
   47.7090   23.5660   37.1040 C   0  0  0  0  0  0  0  0  0  0  0  0
   46.4710   23.6160   36.5800 N   0  0  0  0  0  0  0  0  0  0  0  0
   45.0605   22.9147   35.2468 H   0  0  0  0  0  0  0  0  0  0  0  0
   43.4912   22.6060   33.4716 H   0  0  0  0  0  0  0  0  0  0  0  0
   42.5038   24.0149   34.0910 H   0  0  0  0  0  0  0  0  0  0  0  0
   43.6291   24.8937   32.2988 H   0  0  0  0  0  0  0  0  0  0  0  0
   45.1552   23.9927   32.7123 H   0  0  0  0  0  0  0  0  0  0  0  0
   45.8627   25.5717   34.0799 H   0  0  0  0  0  0  0  0  0  0  0  0
   44.6360   26.6175   33.2576 H   0  0  0  0  0  0  0  0  0  0  0  0
   44.3989   26.8096   35.6516 H   0  0  0  0  0  0  0  0  0  0  0  0
   42.9797   25.9417   34.9507 H   0  0  0  0  0  0  0  0  0  0  0  0
   43.5934   24.8348   36.8946 H   0  0  0  0  0  0  0  0  0  0  0  0
   42.8334   19.6968   37.5743 H   0  0  0  0  0  0  0  0  0  0  0  0
   40.5654   20.5999   38.1416 H   0  0  0  0  0  0  0  0  0  0  0  0
   39.0952   24.0908   35.5593 H   0  0  0  0  0  0  0  0  0  0  0  0
   37.0667   23.5562   39.2748 H   0  0  0  0  0  0  0  0  0  0  0  0
   39.2888   22.3355   39.4600 H   0  0  0  0  0  0  0  0  0  0  0  0
   45.6136   26.7496   37.4388 H   0  0  0  0  0  0  0  0  0  0  0  0
   47.9050   26.5897   38.3833 H   0  0  0  0  0  0  0  0  0  0  0  0
   48.2983   22.6432   36.9984 H   0  0  0  0  0  0  0  0  0  0  0  0
  1  6  1  0
  1 11  1  0
  2  1  1  0
  3  4  1  0
  3  2  1  0
  4  5  1  0
  5  6  1  0
  6 18  1  0
  7  8  2  0
  9 13  1  0
  9  8  1  0
 10  9  2  0
 11 10  1  0
 11 12  2  0
 12  7  1  0
 13 17  1  0
 14 15  1  0
 14 13  2  0
 15 16  2  0
 16 17  1  0
 18 19  2  0
 19 20  1  0
 21 20  2  0
 22 21  1  0
 23 18  1  0
 23 22  2  0
  1 24  1  6
  2 25  1  0
  2 26  1  0
  3 27  1  0
  3 28  1  0
  4 29  1  0
  4 30  1  0
  5 31  1  0
  5 32  1  0
  6 33  1  1
  7 34  1  0
  8 35  1  0
 14 36  1  0
 16 37  1  0
 17 38  1  0
 19 39  1  0
 20 40  1  0
 22 41  1  0
M  ISO  8  24  13  25  13  26  13  27  13  28  13  29  13  30  13  31  13
M  ISO  8  32  13  33  13  34  14  35  14  36  14  37  14  38   9  39  14
M  ISO  2  40  14  41  14
M  END
>  <minimizedAffinity>  (1) 
-5.16683865

>  <minimizedRMSD>  (1) 
3.63572192

$$$$
