
     RDKit          3D

 45 47  0  0  1  0  0  0  0  0999 V2000
   44.0160   23.4620   35.2600 C   0  0  1  0  0  0  0  0  0  0  0  0
   43.5160   23.4130   33.8460 C   0  0  0  0  0  0  0  0  0  0  0  0
   44.2080   24.3340   32.8990 C   0  0  0  0  0  0  0  0  0  0  0  0
   44.5840   25.6280   33.5440 C   0  0  0  0  0  0  0  0  0  0  0  0
   43.8020   25.8660   34.7750 C   0  0  0  0  0  0  0  0  0  0  0  0
   44.0820   24.8490   35.8380 C   0  0  2  0  0  0  0  0  0  0  0  0
   42.5430   20.7720   37.2440 C   0  0  0  0  0  0  0  0  0  0  0  0
   41.2870   21.2580   37.5720 C   0  0  0  0  0  0  0  0  0  0  0  0
   40.9180   22.5220   37.1100 C   0  0  0  0  0  0  0  0  0  0  0  0
   41.8360   23.2170   36.3490 N   0  0  0  0  0  0  0  0  0  0  0  0
   43.0370   22.6920   36.0660 C   0  0  0  0  0  0  0  0  0  0  0  0
   43.3820   21.4960   36.5040 N   0  0  0  0  0  0  0  0  0  0  0  0
   39.5980   23.0400   37.4490 C   0  0  0  0  0  0  0  0  0  0  0  0
   38.8200   23.8230   36.6070 C   0  0  0  0  0  0  0  0  0  0  0  0
   37.6800   24.0880   37.2980 N   0  0  0  0  0  0  0  0  0  0  0  0
   37.7950   23.4800   38.4920 C   0  0  0  0  0  0  0  0  0  0  0  0
   38.9300   22.8410   38.6220 N   0  0  0  0  0  0  0  0  0  0  0  0
   45.2800   25.1140   36.6720 C   0  0  0  0  0  0  0  0  0  0  0  0
   44.8460   25.4350   38.0810 C   0  0  0  0  0  0  0  0  0  0  0  0
   46.3250   24.0650   36.7400 C   0  0  0  0  0  0  0  0  0  0  0  0
   45.9470   26.3740   36.1450 C   0  0  0  0  0  0  0  0  0  0  0  0
   45.0406   23.0621   35.2759 H   0  0  0  0  0  0  0  0  0  0  0  0
   43.6420   22.3851   33.4752 H   0  0  0  0  0  0  0  0  0  0  0  0
   42.4664   23.7402   33.8803 H   0  0  0  0  0  0  0  0  0  0  0  0
   43.5367   24.5418   32.0527 H   0  0  0  0  0  0  0  0  0  0  0  0
   45.1332   23.8419   32.5645 H   0  0  0  0  0  0  0  0  0  0  0  0
   45.6537   25.6028   33.7992 H   0  0  0  0  0  0  0  0  0  0  0  0
   44.3698   26.4420   32.8359 H   0  0  0  0  0  0  0  0  0  0  0  0
   44.0538   26.8630   35.1656 H   0  0  0  0  0  0  0  0  0  0  0  0
   42.7361   25.7913   34.5135 H   0  0  0  0  0  0  0  0  0  0  0  0
   43.2762   24.9390   36.5813 H   0  0  0  0  0  0  0  0  0  0  0  0
   42.8507   19.7772   37.5986 H   0  0  0  0  0  0  0  0  0  0  0  0
   40.5956   20.6598   38.1837 H   0  0  0  0  0  0  0  0  0  0  0  0
   39.0737   24.1593   35.5909 H   0  0  0  0  0  0  0  0  0  0  0  0
   37.0211   23.5157   39.2729 H   0  0  0  0  0  0  0  0  0  0  0  0
   39.2513   22.3013   39.4383 H   0  0  0  0  0  0  0  0  0  0  0  0
   45.5192   24.9371   38.7944 H   0  0  0  0  0  0  0  0  0  0  0  0
   44.8853   26.5230   38.2379 H   0  0  0  0  0  0  0  0  0  0  0  0
   43.8171   25.0789   38.2379 H   0  0  0  0  0  0  0  0  0  0  0  0
   46.5499   23.8392   37.7928 H   0  0  0  0  0  0  0  0  0  0  0  0
   45.9640   23.1548   36.2388 H   0  0  0  0  0  0  0  0  0  0  0  0
   47.2366   24.4225   36.2388 H   0  0  0  0  0  0  0  0  0  0  0  0
   46.2761   26.9958   36.9906 H   0  0  0  0  0  0  0  0  0  0  0  0
   46.8176   26.0989   35.5315 H   0  0  0  0  0  0  0  0  0  0  0  0
   45.2300   26.9393   35.5315 H   0  0  0  0  0  0  0  0  0  0  0  0
  1  6  1  0
  1 11  1  0
  2  1  1  0
  3  4  1  0
  3  2  1  0
  4  5  1  0
  5  6  1  0
  6 18  1  0
  7  8  2  0
  9 13  1  0
  9  8  1  0
 10  9  2  0
 11 10  1  0
 11 12  2  0
 12  7  1  0
 13 17  1  0
 14 15  1  0
 14 13  2  0
 15 16  2  0
 16 17  1  0
 18 20  1  0
 18 19  1  0
 21 18  1  0
  1 22  1  6
  2 23  1  0
  2 24  1  0
  3 25  1  0
  3 26  1  0
  4 27  1  0
  4 28  1  0
  5 29  1  0
  5 30  1  0
  6 31  1  1
  7 32  1  0
  8 33  1  0
 14 34  1  0
 16 35  1  0
 17 36  1  0
 19 37  1  0
 19 38  1  0
 19 39  1  0
 20 40  1  0
 20 41  1  0
 20 42  1  0
 21 43  1  0
 21 44  1  0
 21 45  1  0
M  ISO  8  22  13  23  13  24  13  25  13  26  13  27  13  28  13  29  13
M  ISO  8  30  13  31  13  32  14  33  14  34  14  35  14  36   9  37   8
M  ISO  8  38   8  39   8  40   8  41   8  42   8  43   8  44   8  45   8
M  END
>  <minimizedAffinity>  (1) 
-5.2253623

>  <minimizedRMSD>  (1) 
3.11090088

$$$$
