
     RDKit          3D

 41 43  0  0  0  0  0  0  0  0999 V2000
   38.7030   23.5820   36.9470 C   0  0  0  0  0  0  0  0  0  0  0  0
   41.9490   21.7100   36.9030 C   0  0  0  0  0  0  0  0  0  0  0  0
   40.6460   22.0370   37.2140 C   0  0  0  0  0  0  0  0  0  0  0  0
   40.0610   23.1760   36.6680 C   0  0  0  0  0  0  0  0  0  0  0  0
   40.8170   23.9360   35.8310 N   0  0  0  0  0  0  0  0  0  0  0  0
   42.0950   23.6090   35.5300 C   0  0  0  0  0  0  0  0  0  0  0  0
   42.6550   22.4900   36.0740 N   0  0  0  0  0  0  0  0  0  0  0  0
   42.5300   20.4830   37.5110 C   0  0  0  0  0  0  0  0  0  0  0  0
   43.1770   19.5870   36.5130 C   0  0  0  0  0  0  0  0  0  0  0  0
   38.4160   23.2470   38.4050 C   0  0  0  0  0  0  0  0  0  0  0  0
   38.4290   25.0550   36.7040 C   0  0  0  0  0  0  0  0  0  0  0  0
   37.7420   22.7930   36.0770 C   0  0  0  0  0  0  0  0  0  0  0  0
   37.9020   23.0930   34.6920 N   0  0  0  0  0  0  0  0  0  0  0  0
   38.2250   22.2590   33.6510 C   0  0  0  0  0  0  0  0  0  0  0  0
   38.2660   22.9840   32.4960 N   0  0  0  0  0  0  0  0  0  0  0  0
   37.9710   24.2410   32.8260 C   0  0  0  0  0  0  0  0  0  0  0  0
   37.7520   24.3040   34.1500 N   0  0  0  0  0  0  0  0  0  0  0  0
   37.8830   25.4340   31.9130 C   0  0  0  0  0  0  0  0  0  0  0  0
   38.6860   26.1690   31.1900 C   0  0  0  0  0  0  0  0  0  0  0  0
   38.1700   27.2120   30.4730 C   0  0  0  0  0  0  0  0  0  0  0  0
   36.8380   27.4390   30.5470 C   0  0  0  0  0  0  0  0  0  0  0  0
   36.2730   26.0680   31.7220 S   0  0  0  0  0  0  0  0  0  0  0  0
   40.0673   21.3961   37.8954 H   0  0  0  0  0  0  0  0  0  0  0  0
   42.6808   24.2435   34.8487 H   0  0  0  0  0  0  0  0  0  0  0  0
   43.2846   20.7834   38.2529 H   0  0  0  0  0  0  0  0  0  0  0  0
   41.7031   19.9207   37.9693 H   0  0  0  0  0  0  0  0  0  0  0  0
   43.7432   18.8029   37.0370 H   0  0  0  0  0  0  0  0  0  0  0  0
   42.4047   19.1223   35.8824 H   0  0  0  0  0  0  0  0  0  0  0  0
   43.8610   20.1739   35.8824 H   0  0  0  0  0  0  0  0  0  0  0  0
   38.9927   23.9202   39.0563 H   0  0  0  0  0  0  0  0  0  0  0  0
   37.3419   23.3738   38.6058 H   0  0  0  0  0  0  0  0  0  0  0  0
   38.7061   22.2051   38.6058 H   0  0  0  0  0  0  0  0  0  0  0  0
   38.3324   25.5741   37.6690 H   0  0  0  0  0  0  0  0  0  0  0  0
   39.2610   25.4935   36.1334 H   0  0  0  0  0  0  0  0  0  0  0  0
   37.4950   25.1650   36.1334 H   0  0  0  0  0  0  0  0  0  0  0  0
   37.9245   21.7192   36.2307 H   0  0  0  0  0  0  0  0  0  0  0  0
   36.7176   23.0694   36.3672 H   0  0  0  0  0  0  0  0  0  0  0  0
   38.4195   21.1796   33.7345 H   0  0  0  0  0  0  0  0  0  0  0  0
   39.7637   25.9510   31.1588 H   0  0  0  0  0  0  0  0  0  0  0  0
   38.8189   27.8486   29.8536 H   0  0  0  0  0  0  0  0  0  0  0  0
   36.2393   28.2181   30.0525 H   0  0  0  0  0  0  0  0  0  0  0  0
  1 10  1  0
  2  3  2  0
  2  8  1  0
  4  1  1  0
  4  3  1  0
  5  4  2  0
  6  5  1  0
  6  7  2  0
  7  2  1  0
  9  8  1  0
 11  1  1  0
 12  1  1  0
 13 12  1  0
 14 13  1  0
 15 16  1  0
 15 14  2  0
 16 17  2  0
 17 13  1  0
 18 16  1  0
 19 18  2  0
 20 21  2  0
 20 19  1  0
 21 22  1  0
 22 18  1  0
  3 23  1  0
  6 24  1  0
  8 25  1  0
  8 26  1  0
  9 27  1  0
  9 28  1  0
  9 29  1  0
 10 30  1  0
 10 31  1  0
 10 32  1  0
 11 33  1  0
 11 34  1  0
 11 35  1  0
 12 36  1  0
 12 37  1  0
 14 38  1  0
 19 39  1  0
 20 40  1  0
 21 41  1  0
M  ISO  8  23  14  24  14  25   8  26   8  27   8  28   8  29   8  30   8
M  ISO  8  31   8  32   8  33   8  34   8  35   8  36   8  37   8  38  14
M  ISO  3  39  14  40  14  41  14
M  END
>  <minimizedAffinity>  (1) 
-4.45526981

>  <minimizedRMSD>  (1) 
0.819660008

$$$$
