
     RDKit          3D

 41 44  0  0  1  0  0  0  0  0999 V2000
   43.2960   23.1550   34.1730 C   0  0  1  0  0  0  0  0  0  0  0  0
   42.7650   22.4380   32.9670 C   0  0  0  0  0  0  0  0  0  0  0  0
   43.1640   23.0560   31.6650 C   0  0  0  0  0  0  0  0  0  0  0  0
   43.1840   24.5530   31.7260 C   0  0  0  0  0  0  0  0  0  0  0  0
   42.3760   25.0520   32.8770 C   0  0  0  0  0  0  0  0  0  0  0  0
   43.0040   24.6410   34.1780 C   0  0  2  0  0  0  0  0  0  0  0  0
   42.6160   20.9870   37.0290 C   0  0  0  0  0  0  0  0  0  0  0  0
   41.3920   21.4560   37.5060 C   0  0  0  0  0  0  0  0  0  0  0  0
   40.7890   22.5150   36.8590 C   0  0  0  0  0  0  0  0  0  0  0  0
   41.4340   23.0490   35.7730 N   0  0  0  0  0  0  0  0  0  0  0  0
   42.6100   22.5680   35.3460 C   0  0  0  0  0  0  0  0  0  0  0  0
   43.1890   21.5560   35.9630 N   0  0  0  0  0  0  0  0  0  0  0  0
   39.5050   23.0190   37.3440 C   0  0  0  0  0  0  0  0  0  0  0  0
   38.6180   23.7870   36.6000 C   0  0  0  0  0  0  0  0  0  0  0  0
   37.5670   24.0270   37.4380 N   0  0  0  0  0  0  0  0  0  0  0  0
   37.8420   23.4240   38.6080 C   0  0  0  0  0  0  0  0  0  0  0  0
   38.9940   22.8080   38.5950 N   0  0  0  0  0  0  0  0  0  0  0  0
   44.2170   25.4520   34.5170 C   0  0  0  0  0  0  0  0  0  0  0  0
   45.3760   24.8580   35.0270 C   0  0  0  0  0  0  0  0  0  0  0  0
   46.4610   25.6840   35.3180 C   0  0  0  0  0  0  0  0  0  0  0  0
   46.4420   27.0240   35.1310 N   0  0  0  0  0  0  0  0  0  0  0  0
   45.3100   27.5460   34.6420 C   0  0  0  0  0  0  0  0  0  0  0  0
   44.2330   26.7920   34.3430 N   0  0  0  0  0  0  0  0  0  0  0  0
   44.3899   23.0394   34.1818 H   0  0  0  0  0  0  0  0  0  0  0  0
   43.1389   21.4037   32.9875 H   0  0  0  0  0  0  0  0  0  0  0  0
   41.6678   22.4941   33.0219 H   0  0  0  0  0  0  0  0  0  0  0  0
   42.4473   22.7435   30.8912 H   0  0  0  0  0  0  0  0  0  0  0  0
   44.1836   22.7161   31.4307 H   0  0  0  0  0  0  0  0  0  0  0  0
   44.2233   24.8945   31.8411 H   0  0  0  0  0  0  0  0  0  0  0  0
   42.7496   24.9476   30.7956 H   0  0  0  0  0  0  0  0  0  0  0  0
   42.3215   26.1497   32.8322 H   0  0  0  0  0  0  0  0  0  0  0  0
   41.3664   24.6195   32.8170 H   0  0  0  0  0  0  0  0  0  0  0  0
   42.2774   24.8476   34.9776 H   0  0  0  0  0  0  0  0  0  0  0  0
   43.1127   20.1445   37.5324 H   0  0  0  0  0  0  0  0  0  0  0  0
   40.9163   20.9902   38.3817 H   0  0  0  0  0  0  0  0  0  0  0  0
   38.7367   24.1279   35.5609 H   0  0  0  0  0  0  0  0  0  0  0  0
   37.1713   23.4469   39.4795 H   0  0  0  0  0  0  0  0  0  0  0  0
   39.4260   22.2761   39.3640 H   0  0  0  0  0  0  0  0  0  0  0  0
   45.4299   23.7720   35.1935 H   0  0  0  0  0  0  0  0  0  0  0  0
   47.3764   25.2242   35.7188 H   0  0  0  0  0  0  0  0  0  0  0  0
   45.2567   28.6324   34.4778 H   0  0  0  0  0  0  0  0  0  0  0  0
  1  6  1  0
  1 11  1  0
  2  1  1  0
  3  4  1  0
  3  2  1  0
  4  5  1  0
  5  6  1  0
  6 18  1  0
  7  8  2  0
  9 13  1  0
  9  8  1  0
 10  9  2  0
 11 10  1  0
 11 12  2  0
 12  7  1  0
 13 17  1  0
 14 13  2  0
 14 15  1  0
 15 16  2  0
 17 16  1  0
 18 19  2  0
 19 20  1  0
 21 20  2  0
 22 21  1  0
 23 18  1  0
 23 22  2  0
  1 24  1  1
  2 25  1  0
  2 26  1  0
  3 27  1  0
  3 28  1  0
  4 29  1  0
  4 30  1  0
  5 31  1  0
  5 32  1  0
  6 33  1  1
  7 34  1  0
  8 35  1  0
 14 36  1  0
 16 37  1  0
 17 38  1  0
 19 39  1  0
 20 40  1  0
 22 41  1  0
M  ISO  8  24  13  25  13  26  13  27  13  28  13  29  13  30  13  31  13
M  ISO  8  32  13  33  13  34  14  35  14  36  14  37  14  38   9  39  14
M  ISO  2  40  14  41  14
M  END
>  <minimizedAffinity>  (1) 
-4.60945988

>  <minimizedRMSD>  (1) 
2.42049527

$$$$
