
     RDKit          3D

 40 43  0  0  1  0  0  0  0  0999 V2000
   42.3630   21.6720   33.5210 C   0  0  1  0  0  0  0  0  0  0  0  0
   41.0640   21.5130   32.7580 C   0  0  0  0  0  0  0  0  0  0  0  0
   41.2050   21.7560   31.2900 C   0  0  0  0  0  0  0  0  0  0  0  0
   42.1110   22.8960   30.9980 C   0  0  0  0  0  0  0  0  0  0  0  0
   42.2990   23.7690   32.2120 C   0  0  0  0  0  0  0  0  0  0  0  0
   43.0560   22.9710   33.2660 C   0  0  1  0  0  0  0  0  0  0  0  0
   42.5140   20.8220   37.0700 C   0  0  0  0  0  0  0  0  0  0  0  0
   41.4090   21.4720   37.6000 C   0  0  0  0  0  0  0  0  0  0  0  0
   40.5830   22.2130   36.7450 C   0  0  0  0  0  0  0  0  0  0  0  0
   40.9320   22.2440   35.4200 N   0  0  0  0  0  0  0  0  0  0  0  0
   41.9940   21.6110   34.9550 C   0  0  0  0  0  0  0  0  0  0  0  0
   42.7840   20.9030   35.7690 N   0  0  0  0  0  0  0  0  0  0  0  0
   39.4340   22.8930   37.3110 C   0  0  0  0  0  0  0  0  0  0  0  0
   38.5680   23.6930   36.5770 C   0  0  0  0  0  0  0  0  0  0  0  0
   37.6340   24.1400   37.4640 N   0  0  0  0  0  0  0  0  0  0  0  0
   37.9500   23.6180   38.6590 C   0  0  0  0  0  0  0  0  0  0  0  0
   39.0200   22.8660   38.6060 N   0  0  0  0  0  0  0  0  0  0  0  0
   43.4740   23.7580   34.4490 C   0  0  0  0  0  0  0  0  0  0  0  0
   42.8560   25.1740   34.5870 C   0  0  0  0  0  0  0  0  0  0  0  0
   44.2660   25.0450   34.1510 C   0  0  0  0  0  0  0  0  0  0  0  0
   43.0623   20.8851   33.2019 H   0  0  0  0  0  0  0  0  0  0  0  0
   40.6947   20.4878   32.9079 H   0  0  0  0  0  0  0  0  0  0  0  0
   40.3644   22.2676   33.1466 H   0  0  0  0  0  0  0  0  0  0  0  0
   41.6116   20.8496   30.8177 H   0  0  0  0  0  0  0  0  0  0  0  0
   40.2104   22.0021   30.8898 H   0  0  0  0  0  0  0  0  0  0  0  0
   43.0895   22.5047   30.6827 H   0  0  0  0  0  0  0  0  0  0  0  0
   41.6598   23.5032   30.1994 H   0  0  0  0  0  0  0  0  0  0  0  0
   42.8757   24.6651   31.9394 H   0  0  0  0  0  0  0  0  0  0  0  0
   41.3214   24.0835   32.6062 H   0  0  0  0  0  0  0  0  0  0  0  0
   44.0429   22.7007   32.8623 H   0  0  0  0  0  0  0  0  0  0  0  0
   43.1713   20.2359   37.7291 H   0  0  0  0  0  0  0  0  0  0  0  0
   41.1849   21.4066   38.6749 H   0  0  0  0  0  0  0  0  0  0  0  0
   38.6240   23.9193   35.5020 H   0  0  0  0  0  0  0  0  0  0  0  0
   37.3751   23.8012   39.5788 H   0  0  0  0  0  0  0  0  0  0  0  0
   39.4591   22.3572   39.3865 H   0  0  0  0  0  0  0  0  0  0  0  0
   43.5941   22.8800   35.1006 H   0  0  0  0  0  0  0  0  0  0  0  0
   42.0905   25.5091   33.8717 H   0  0  0  0  0  0  0  0  0  0  0  0
   42.3445   25.7176   35.3950 H   0  0  0  0  0  0  0  0  0  0  0  0
   45.0762   25.3554   34.8271 H   0  0  0  0  0  0  0  0  0  0  0  0
   44.8384   25.4110   33.2859 H   0  0  0  0  0  0  0  0  0  0  0  0
  1 11  1  0
  2  1  1  0
  3  2  1  0
  4  3  1  0
  4  5  1  0
  5  6  1  0
  6  1  1  0
  6 18  1  0
  7  8  2  0
  9 13  1  0
  9  8  1  0
 10  9  2  0
 11 10  1  0
 11 12  2  0
 12  7  1  0
 13 17  1  0
 14 13  2  0
 14 15  1  0
 15 16  2  0
 17 16  1  0
 18 19  1  0
 20 18  1  0
 20 19  1  0
  1 21  1  6
  2 22  1  0
  2 23  1  0
  3 24  1  0
  3 25  1  0
  4 26  1  0
  4 27  1  0
  5 28  1  0
  5 29  1  0
  6 30  1  6
  7 31  1  0
  8 32  1  0
 14 33  1  0
 16 34  1  0
 17 35  1  0
 18 36  1  0
 19 37  1  0
 19 38  1  0
 20 39  1  0
 20 40  1  0
M  ISO  8  21  13  22  13  23  13  24  13  25  13  26  13  27  13  28  13
M  ISO  8  29  13  30  13  31  14  32  14  33  14  34  14  35   9  36  13
M  ISO  4  37  13  38  13  39  13  40  13
M  END
>  <minimizedAffinity>  (1) 
-3.98356771

>  <minimizedRMSD>  (1) 
0.425364584

$$$$
