
     RDKit          3D

 42 44  0  0  0  0  0  0  0  0999 V2000
   38.6870   23.5350   37.0770 C   0  0  0  0  0  0  0  0  0  0  0  0
   41.9390   21.6860   36.9590 C   0  0  0  0  0  0  0  0  0  0  0  0
   40.6390   21.9980   37.2870 C   0  0  0  0  0  0  0  0  0  0  0  0
   40.0500   23.1540   36.7690 C   0  0  0  0  0  0  0  0  0  0  0  0
   40.7990   23.9350   35.9500 N   0  0  0  0  0  0  0  0  0  0  0  0
   42.0770   23.6200   35.6340 C   0  0  0  0  0  0  0  0  0  0  0  0
   42.6340   22.4960   36.1430 N   0  0  0  0  0  0  0  0  0  0  0  0
   42.5480   20.4460   37.5230 C   0  0  0  0  0  0  0  0  0  0  0  0
   43.1640   19.5700   36.5030 C   0  0  0  0  0  0  0  0  0  0  0  0
   38.3950   23.1230   38.5140 C   0  0  0  0  0  0  0  0  0  0  0  0
   38.3990   25.0120   36.9080 C   0  0  0  0  0  0  0  0  0  0  0  0
   37.7290   22.7970   36.1680 C   0  0  0  0  0  0  0  0  0  0  0  0
   37.8760   23.1720   34.7890 N   0  0  0  0  0  0  0  0  0  0  0  0
   38.1270   22.3930   33.7050 C   0  0  0  0  0  0  0  0  0  0  0  0
   38.1840   23.1880   32.5980 N   0  0  0  0  0  0  0  0  0  0  0  0
   37.9690   24.4370   33.0070 C   0  0  0  0  0  0  0  0  0  0  0  0
   37.7840   24.4170   34.3340 N   0  0  0  0  0  0  0  0  0  0  0  0
   37.9810   25.4790   31.9870 C   0  0  0  0  0  0  0  0  0  0  0  0
   36.9050   26.3540   32.0000 C   0  0  0  0  0  0  0  0  0  0  0  0
   36.8860   27.3530   31.0470 C   0  0  0  0  0  0  0  0  0  0  0  0
   37.8930   27.4640   30.1350 N   0  0  0  0  0  0  0  0  0  0  0  0
   38.9280   26.5990   30.1450 C   0  0  0  0  0  0  0  0  0  0  0  0
   38.9690   25.6160   31.0640 N   0  0  0  0  0  0  0  0  0  0  0  0
   40.0655   21.3388   37.9552 H   0  0  0  0  0  0  0  0  0  0  0  0
   42.6594   24.2733   34.9677 H   0  0  0  0  0  0  0  0  0  0  0  0
   43.3247   20.7379   38.2451 H   0  0  0  0  0  0  0  0  0  0  0  0
   41.7346   19.8722   37.9911 H   0  0  0  0  0  0  0  0  0  0  0  0
   43.7282   18.7677   37.0011 H   0  0  0  0  0  0  0  0  0  0  0  0
   42.3763   19.1287   35.8746 H   0  0  0  0  0  0  0  0  0  0  0  0
   43.8457   20.1620   35.8746 H   0  0  0  0  0  0  0  0  0  0  0  0
   38.8905   23.8221   39.2038 H   0  0  0  0  0  0  0  0  0  0  0  0
   37.3091   23.1440   38.6880 H   0  0  0  0  0  0  0  0  0  0  0  0
   38.7746   22.1053   38.6880 H   0  0  0  0  0  0  0  0  0  0  0  0
   38.3071   25.4832   37.8977 H   0  0  0  0  0  0  0  0  0  0  0  0
   39.2219   25.4847   36.3518 H   0  0  0  0  0  0  0  0  0  0  0  0
   37.4588   25.1409   36.3518 H   0  0  0  0  0  0  0  0  0  0  0  0
   37.9161   21.7171   36.2613 H   0  0  0  0  0  0  0  0  0  0  0  0
   36.7067   23.0599   36.4775 H   0  0  0  0  0  0  0  0  0  0  0  0
   38.2620   21.3014   33.7177 H   0  0  0  0  0  0  0  0  0  0  0  0
   36.0979   26.2559   32.7409 H   0  0  0  0  0  0  0  0  0  0  0  0
   36.0494   28.0668   31.0235 H   0  0  0  0  0  0  0  0  0  0  0  0
   39.7358   26.6964   29.4048 H   0  0  0  0  0  0  0  0  0  0  0  0
  1 10  1  0
  2  3  2  0
  2  8  1  0
  4  1  1  0
  4  3  1  0
  5  4  2  0
  6  5  1  0
  6  7  2  0
  7  2  1  0
  9  8  1  0
 11  1  1  0
 12  1  1  0
 13 12  1  0
 14 13  1  0
 15 16  1  0
 15 14  2  0
 16 17  2  0
 17 13  1  0
 18 19  2  0
 18 16  1  0
 20 19  1  0
 21 22  1  0
 21 20  2  0
 22 23  2  0
 23 18  1  0
  3 24  1  0
  6 25  1  0
  8 26  1  0
  8 27  1  0
  9 28  1  0
  9 29  1  0
  9 30  1  0
 10 31  1  0
 10 32  1  0
 10 33  1  0
 11 34  1  0
 11 35  1  0
 11 36  1  0
 12 37  1  0
 12 38  1  0
 14 39  1  0
 19 40  1  0
 20 41  1  0
 22 42  1  0
M  ISO  8  24  14  25  14  26   8  27   8  28   8  29   8  30   8  31   8
M  ISO  8  32   8  33   8  34   8  35   8  36   8  37   8  38   8  39  14
M  ISO  3  40  14  41  14  42  14
M  END
>  <minimizedAffinity>  (1) 
-4.43030262

>  <minimizedRMSD>  (1) 
1.12766385

$$$$
