
     RDKit          3D

 35 37  0  0  1  0  0  0  0  0999 V2000
   42.2300   21.4890   33.4390 C   0  0  1  0  0  0  0  0  0  0  0  0
   40.9700   21.0280   32.7670 C   0  0  0  0  0  0  0  0  0  0  0  0
   41.0040   21.1740   31.2800 C   0  0  0  0  0  0  0  0  0  0  0  0
   41.6850   22.4400   30.8520 C   0  0  0  0  0  0  0  0  0  0  0  0
   41.7460   23.4210   31.9680 C   0  0  0  0  0  0  0  0  0  0  0  0
   42.6250   22.9030   33.0640 C   0  0  2  0  0  0  0  0  0  0  0  0
   42.5230   20.8110   37.0190 C   0  0  0  0  0  0  0  0  0  0  0  0
   41.4240   21.4910   37.5710 C   0  0  0  0  0  0  0  0  0  0  0  0
   40.5810   22.1840   36.7240 C   0  0  0  0  0  0  0  0  0  0  0  0
   40.8620   22.1720   35.3700 N   0  0  0  0  0  0  0  0  0  0  0  0
   41.9280   21.5040   34.9030 C   0  0  0  0  0  0  0  0  0  0  0  0
   42.7430   20.8380   35.6980 N   0  0  0  0  0  0  0  0  0  0  0  0
   39.4390   22.8900   37.2950 C   0  0  0  0  0  0  0  0  0  0  0  0
   38.5830   23.7140   36.5760 C   0  0  0  0  0  0  0  0  0  0  0  0
   37.6650   24.1670   37.4770 N   0  0  0  0  0  0  0  0  0  0  0  0
   37.9850   23.6240   38.6600 C   0  0  0  0  0  0  0  0  0  0  0  0
   39.0380   22.8530   38.5980 N   0  0  0  0  0  0  0  0  0  0  0  0
   44.0030   22.8960   32.6070 N   0  0  0  0  0  0  0  0  0  0  0  0
   43.0510   20.8205   33.1405 H   0  0  0  0  0  0  0  0  0  0  0  0
   40.8133   19.9666   33.0099 H   0  0  0  0  0  0  0  0  0  0  0  0
   40.1525   21.6638   33.1376 H   0  0  0  0  0  0  0  0  0  0  0  0
   41.5459   20.3178   30.8520 H   0  0  0  0  0  0  0  0  0  0  0  0
   39.9653   21.2100   30.9197 H   0  0  0  0  0  0  0  0  0  0  0  0
   42.7085   22.2042   30.5251 H   0  0  0  0  0  0  0  0  0  0  0  0
   41.1078   22.8849   30.0280 H   0  0  0  0  0  0  0  0  0  0  0  0
   42.1535   24.3719   31.5941 H   0  0  0  0  0  0  0  0  0  0  0  0
   40.7319   23.5772   32.3646 H   0  0  0  0  0  0  0  0  0  0  0  0
   42.5134   23.5544   33.9433 H   0  0  0  0  0  0  0  0  0  0  0  0
   43.2067   20.2532   37.6758 H   0  0  0  0  0  0  0  0  0  0  0  0
   41.2389   21.4718   38.6551 H   0  0  0  0  0  0  0  0  0  0  0  0
   38.6347   23.9517   35.5032 H   0  0  0  0  0  0  0  0  0  0  0  0
   37.4203   23.8082   39.5859 H   0  0  0  0  0  0  0  0  0  0  0  0
   39.4733   22.3282   39.3700 H   0  0  0  0  0  0  0  0  0  0  0  0
   44.6345   22.8928   33.4207 H   0  0  0  0  0  0  0  0  0  0  0  0
   44.1718   22.0541   32.0381 H   0  0  0  0  0  0  0  0  0  0  0  0
  1 11  1  0
  2  1  1  0
  3  2  1  0
  4  3  1  0
  4  5  1  0
  5  6  1  0
  6  1  1  0
  7  8  2  0
  9 13  1  0
  9  8  1  0
 10  9  2  0
 11 10  1  0
 11 12  2  0
 12  7  1  0
 13 17  1  0
 14 13  2  0
 14 15  1  0
 15 16  2  0
 17 16  1  0
 18  6  1  0
  1 19  1  1
  2 20  1  0
  2 21  1  0
  3 22  1  0
  3 23  1  0
  4 24  1  0
  4 25  1  0
  5 26  1  0
  5 27  1  0
  6 28  1  1
  7 29  1  0
  8 30  1  0
 14 31  1  0
 16 32  1  0
 17 33  1  0
 18 34  1  0
 18 35  1  0
M  ISO  8  19  13  20  13  21  13  22  13  23  13  24  13  25  13  26  13
M  ISO  8  27  13  28  13  29  14  30  14  31  14  32  14  33   9  34   5
M  ISO  1  35   5
M  END
>  <minimizedAffinity>  (1) 
-3.86716413

>  <minimizedRMSD>  (1) 
0.0219378658

$$$$
