
     RDKit          3D

 37 38  0  0  0  0  0  0  0  0999 V2000
   38.5900   23.4910   36.4940 C   0  0  0  0  0  0  0  0  0  0  0  0
   41.8920   21.7640   36.9170 C   0  0  0  0  0  0  0  0  0  0  0  0
   40.5390   22.0190   37.0240 C   0  0  0  0  0  0  0  0  0  0  0  0
   39.9970   23.1570   36.4260 C   0  0  0  0  0  0  0  0  0  0  0  0
   40.8500   23.9750   35.7530 N   0  0  0  0  0  0  0  0  0  0  0  0
   42.1700   23.7190   35.6530 C   0  0  0  0  0  0  0  0  0  0  0  0
   42.6920   22.6040   36.2410 N   0  0  0  0  0  0  0  0  0  0  0  0
   42.4460   20.5400   37.5650 C   0  0  0  0  0  0  0  0  0  0  0  0
   43.2170   19.6720   36.6470 C   0  0  0  0  0  0  0  0  0  0  0  0
   38.1790   23.4410   37.9580 C   0  0  0  0  0  0  0  0  0  0  0  0
   38.2330   24.8280   35.8990 C   0  0  0  0  0  0  0  0  0  0  0  0
   37.7860   22.4290   35.7460 C   0  0  0  0  0  0  0  0  0  0  0  0
   38.0380   22.4550   34.3360 N   0  0  0  0  0  0  0  0  0  0  0  0
   38.9630   21.7780   33.5950 C   0  0  0  0  0  0  0  0  0  0  0  0
   38.8270   22.1280   32.2780 N   0  0  0  0  0  0  0  0  0  0  0  0
   37.8280   23.0080   32.2270 C   0  0  0  0  0  0  0  0  0  0  0  0
   37.3590   23.2010   33.4570 N   0  0  0  0  0  0  0  0  0  0  0  0
   37.3480   23.6490   30.9590 C   0  0  0  0  0  0  0  0  0  0  0  0
   37.3700   25.0360   31.0660 F   0  0  0  0  0  0  0  0  0  0  0  0
   38.1730   23.3060   29.9120 F   0  0  0  0  0  0  0  0  0  0  0  0
   36.0330   23.3220   30.7050 F   0  0  0  0  0  0  0  0  0  0  0  0
   39.8899   21.3262   37.5796 H   0  0  0  0  0  0  0  0  0  0  0  0
   42.8246   24.4076   35.0986 H   0  0  0  0  0  0  0  0  0  0  0  0
   43.1092   20.8523   38.3851 H   0  0  0  0  0  0  0  0  0  0  0  0
   41.5878   19.9491   37.9176 H   0  0  0  0  0  0  0  0  0  0  0  0
   43.8352   18.9760   37.2331 H   0  0  0  0  0  0  0  0  0  0  0  0
   42.5229   19.1010   36.0128 H   0  0  0  0  0  0  0  0  0  0  0  0
   43.8659   20.2939   36.0128 H   0  0  0  0  0  0  0  0  0  0  0  0
   39.0706   23.5495   38.5931 H   0  0  0  0  0  0  0  0  0  0  0  0
   37.4762   24.2603   38.1697 H   0  0  0  0  0  0  0  0  0  0  0  0
   37.6931   22.4771   38.1697 H   0  0  0  0  0  0  0  0  0  0  0  0
   38.0404   25.5492   36.7069 H   0  0  0  0  0  0  0  0  0  0  0  0
   39.0667   25.1873   35.2778 H   0  0  0  0  0  0  0  0  0  0  0  0
   37.3312   24.7239   35.2778 H   0  0  0  0  0  0  0  0  0  0  0  0
   38.0586   21.4375   36.1366 H   0  0  0  0  0  0  0  0  0  0  0  0
   36.7180   22.6404   35.9028 H   0  0  0  0  0  0  0  0  0  0  0  0
   39.7003   21.0649   33.9924 H   0  0  0  0  0  0  0  0  0  0  0  0
  1 10  1  0
  2  3  2  0
  2  8  1  0
  4  1  1  0
  4  3  1  0
  5  4  2  0
  6  5  1  0
  6  7  2  0
  7  2  1  0
  9  8  1  0
 11  1  1  0
 12  1  1  0
 13 12  1  0
 14 13  1  0
 15 14  2  0
 16 15  1  0
 16 17  2  0
 17 13  1  0
 18 19  1  0
 18 16  1  0
 20 18  1  0
 21 18  1  0
  3 22  1  0
  6 23  1  0
  8 24  1  0
  8 25  1  0
  9 26  1  0
  9 27  1  0
  9 28  1  0
 10 29  1  0
 10 30  1  0
 10 31  1  0
 11 32  1  0
 11 33  1  0
 11 34  1  0
 12 35  1  0
 12 36  1  0
 14 37  1  0
M  ISO  8  22  14  23  14  24   8  25   8  26   8  27   8  28   8  29   8
M  ISO  8  30   8  31   8  32   8  33   8  34   8  35   8  36   8  37  14
M  END
>  <minimizedAffinity>  (1) 
-4.33216047

>  <minimizedRMSD>  (1) 
0.630316913

$$$$
