
     RDKit          3D

 27 28  0  0  0  0  0  0  0  0999 V2000
   39.7290   23.0150   37.1430 C   0  0  0  0  0  0  0  0  0  0  0  0
   39.2260   23.8040   36.1000 C   0  0  0  0  0  0  0  0  0  0  0  0
   38.1810   24.6990   36.3920 C   0  0  0  0  0  0  0  0  0  0  0  0
   37.7220   24.7470   37.6590 N   0  0  0  0  0  0  0  0  0  0  0  0
   38.2330   23.9700   38.6450 C   0  0  0  0  0  0  0  0  0  0  0  0
   39.2330   23.1050   38.3900 N   0  0  0  0  0  0  0  0  0  0  0  0
   40.7770   22.1710   36.6780 N   0  0  0  0  0  0  0  0  0  0  0  0
   41.5160   21.3940   37.4860 C   0  0  0  0  0  0  0  0  0  0  0  0
   42.5240   20.5990   36.9340 C   0  0  0  0  0  0  0  0  0  0  0  0
   42.7200   20.6430   35.5550 C   0  0  0  0  0  0  0  0  0  0  0  0
   43.6090   19.9480   35.0280 O   0  0  0  0  0  0  0  0  0  0  0  0
   41.9420   21.4460   34.7960 N   0  0  0  0  0  0  0  0  0  0  0  0
   40.9620   22.2180   35.3480 C   0  0  0  0  0  0  0  0  0  0  0  0
   40.2920   22.9310   34.5540 O   0  0  0  0  0  0  0  0  0  0  0  0
   37.6280   25.5260   35.3750 N   0  0  0  0  0  0  0  0  0  0  0  0
   38.0680   26.8760   35.2670 C   0  0  0  0  0  0  0  0  0  0  0  0
   38.6310   27.5020   36.2580 N   0  0  0  0  0  0  0  0  0  0  0  0
   37.8580   27.5090   34.0030 N   0  0  0  0  0  0  0  0  0  0  0  0
   38.9500   28.4850   36.2240 H   0  0  0  0  0  0  0  0  0  0  0  0
   39.6364   23.7257   35.0825 H   0  0  0  0  0  0  0  0  0  0  0  0
   37.8265   24.0468   39.6643 H   0  0  0  0  0  0  0  0  0  0  0  0
   41.3301   21.3833   38.5701 H   0  0  0  0  0  0  0  0  0  0  0  0
   43.1470   19.9548   37.5719 H   0  0  0  0  0  0  0  0  0  0  0  0
   42.0924   21.4759   33.7775 H   0  0  0  0  0  0  0  0  0  0  0  0
   36.9198   25.1537   34.7264 H   0  0  0  0  0  0  0  0  0  0  0  0
   38.1540   28.4852   33.8604 H   0  0  0  0  0  0  0  0  0  0  0  0
   37.4106   26.9890   33.2346 H   0  0  0  0  0  0  0  0  0  0  0  0
  1  6  2  0
  2  3  2  0
  2  1  1  0
  3  4  1  0
  4  5  2  0
  6  5  1  0
  7  1  1  0
  7  8  1  0
  9  8  2  0
 10  9  1  0
 11 10  2  0
 12 13  1  0
 12 10  1  0
 13  7  1  0
 14 13  2  0
 15  3  1  0
 16 15  1  0
 16 17  2  0
 18 16  1  0
 19 17  1  0
  2 20  1  0
  5 21  1  0
  8 22  1  0
  9 23  1  0
 12 24  1  0
 15 25  1  0
 18 26  1  0
 18 27  1  0
M  ISO  5  20  14  21  14  22  14  23  14  24   9
M  END
>  <minimizedAffinity>  (1) 
-5.04356337

>  <minimizedRMSD>  (1) 
1.10731018

$$$$
