
     RDKit          3D

 30 31  0  0  0  0  0  0  0  0999 V2000
   40.2000   23.1930   36.9500 C   0  0  0  0  0  0  0  0  0  0  0  0
   39.5610   24.0120   36.0120 C   0  0  0  0  0  0  0  0  0  0  0  0
   38.3460   24.6020   36.3730 C   0  0  0  0  0  0  0  0  0  0  0  0
   37.8490   24.3500   37.6150 N   0  0  0  0  0  0  0  0  0  0  0  0
   38.4850   23.5570   38.4990 C   0  0  0  0  0  0  0  0  0  0  0  0
   39.6590   22.9830   38.1610 N   0  0  0  0  0  0  0  0  0  0  0  0
   41.4390   22.5640   36.6430 N   0  0  0  0  0  0  0  0  0  0  0  0
   41.6150   21.2820   37.0090 C   0  0  0  0  0  0  0  0  0  0  0  0
   42.8410   20.7170   36.6850 C   0  0  0  0  0  0  0  0  0  0  0  0
   43.0980   19.2950   37.0650 C   0  0  0  0  0  0  0  0  0  0  0  0
   43.8010   21.4560   36.0250 C   0  0  0  0  0  0  0  0  0  0  0  0
   44.9130   20.9460   35.7310 O   0  0  0  0  0  0  0  0  0  0  0  0
   43.5600   22.7360   35.6880 N   0  0  0  0  0  0  0  0  0  0  0  0
   42.3680   23.2950   35.9980 C   0  0  0  0  0  0  0  0  0  0  0  0
   42.2060   24.4940   35.6550 O   0  0  0  0  0  0  0  0  0  0  0  0
   37.6200   25.4510   35.4880 N   0  0  0  0  0  0  0  0  0  0  0  0
   37.9790   26.8270   35.3950 C   0  0  0  0  0  0  0  0  0  0  0  0
   38.5860   27.4330   36.3500 N   0  0  0  0  0  0  0  0  0  0  0  0
   37.6340   27.5080   34.1920 N   0  0  0  0  0  0  0  0  0  0  0  0
   38.8570   28.4250   36.3540 H   0  0  0  0  0  0  0  0  0  0  0  0
   40.0020   24.1864   35.0195 H   0  0  0  0  0  0  0  0  0  0  0  0
   38.0491   23.3779   39.4929 H   0  0  0  0  0  0  0  0  0  0  0  0
   40.8331   20.7141   37.5345 H   0  0  0  0  0  0  0  0  0  0  0  0
   43.1142   19.2056   38.1612 H   0  0  0  0  0  0  0  0  0  0  0  0
   42.3007   18.6565   36.6568 H   0  0  0  0  0  0  0  0  0  0  0  0
   44.0683   18.9760   36.6568 H   0  0  0  0  0  0  0  0  0  0  0  0
   44.2787   23.2868   35.1970 H   0  0  0  0  0  0  0  0  0  0  0  0
   36.8455   25.0748   34.9227 H   0  0  0  0  0  0  0  0  0  0  0  0
   37.8723   28.5035   34.0772 H   0  0  0  0  0  0  0  0  0  0  0  0
   37.1463   27.0048   33.4371 H   0  0  0  0  0  0  0  0  0  0  0  0
  1  6  2  0
  2  3  2  0
  2  1  1  0
  3  4  1  0
  4  5  2  0
  6  5  1  0
  7  1  1  0
  7  8  1  0
  9  8  2  0
  9 10  1  0
 11  9  1  0
 12 11  2  0
 13 14  1  0
 13 11  1  0
 14  7  1  0
 15 14  2  0
 16  3  1  0
 17 16  1  0
 17 18  2  0
 18 20  1  0
 19 17  1  0
  2 21  1  0
  5 22  1  0
  8 23  1  0
 10 24  1  0
 10 25  1  0
 10 26  1  0
 13 27  1  0
 16 28  1  0
 19 29  1  0
 19 30  1  0
M  ISO  7  21  14  22  14  23  14  24   8  25   8  26   8  27   9
M  END
>  <minimizedAffinity>  (1) 
-5.29471159

>  <minimizedRMSD>  (1) 
0.693082035

$$$$
