
     RDKit          3D

 30 31  0  0  0  0  0  0  0  0999 V2000
   39.8160   23.0710   36.9360 C   0  0  0  0  0  0  0  0  0  0  0  0
   39.2390   23.9210   35.9920 C   0  0  0  0  0  0  0  0  0  0  0  0
   38.1570   24.7230   36.4190 C   0  0  0  0  0  0  0  0  0  0  0  0
   37.7440   24.6260   37.7000 N   0  0  0  0  0  0  0  0  0  0  0  0
   38.3300   23.7900   38.5800 C   0  0  0  0  0  0  0  0  0  0  0  0
   39.3640   23.0170   38.1940 N   0  0  0  0  0  0  0  0  0  0  0  0
   40.9070   22.2510   36.5380 N   0  0  0  0  0  0  0  0  0  0  0  0
   41.5580   21.3420   37.4620 C   0  0  0  0  0  0  0  0  0  0  0  0
   42.8090   20.8280   36.7530 C   0  0  0  0  0  0  0  0  0  0  0  0
   43.5310   21.8590   36.2100 O   0  0  0  0  0  0  0  0  0  0  0  0
   42.8840   22.6150   35.2630 C   0  0  0  0  0  0  0  0  0  0  0  0
   41.4030   22.3030   35.1750 C   0  0  0  0  0  0  0  0  0  0  0  0
   37.5140   25.6170   35.5120 N   0  0  0  0  0  0  0  0  0  0  0  0
   37.9240   26.9690   35.4500 C   0  0  0  0  0  0  0  0  0  0  0  0
   38.5620   27.5420   36.4210 N   0  0  0  0  0  0  0  0  0  0  0  0
   37.5990   27.6830   34.2540 N   0  0  0  0  0  0  0  0  0  0  0  0
   38.8860   28.5170   36.4130 H   0  0  0  0  0  0  0  0  0  0  0  0
   39.6112   23.9650   34.9578 H   0  0  0  0  0  0  0  0  0  0  0  0
   37.9633   23.7386   39.6158 H   0  0  0  0  0  0  0  0  0  0  0  0
   41.8348   21.8720   38.3853 H   0  0  0  0  0  0  0  0  0  0  0  0
   40.8907   20.5139   37.7430 H   0  0  0  0  0  0  0  0  0  0  0  0
   43.4385   20.2928   37.4792 H   0  0  0  0  0  0  0  0  0  0  0  0
   42.4968   20.1559   35.9401 H   0  0  0  0  0  0  0  0  0  0  0  0
   43.0048   23.6780   35.5190 H   0  0  0  0  0  0  0  0  0  0  0  0
   43.3315   22.3775   34.2866 H   0  0  0  0  0  0  0  0  0  0  0  0
   40.8822   23.0913   34.6117 H   0  0  0  0  0  0  0  0  0  0  0  0
   41.2293   21.3501   34.6537 H   0  0  0  0  0  0  0  0  0  0  0  0
   36.7540   25.2790   34.9046 H   0  0  0  0  0  0  0  0  0  0  0  0
   37.8728   28.6708   34.1534 H   0  0  0  0  0  0  0  0  0  0  0  0
   37.0911   27.2093   33.4933 H   0  0  0  0  0  0  0  0  0  0  0  0
  1  6  2  0
  2  3  2  0
  2  1  1  0
  3  4  1  0
  4  5  2  0
  6  5  1  0
  7  1  1  0
  7  8  1  0
  9  8  1  0
 10  9  1  0
 11 10  1  0
 12 11  1  0
 12  7  1  0
 13  3  1  0
 14 13  1  0
 14 15  2  0
 16 14  1  0
 17 15  1  0
  2 18  1  0
  5 19  1  0
  8 20  1  0
  8 21  1  0
  9 22  1  0
  9 23  1  0
 11 24  1  0
 11 25  1  0
 12 26  1  0
 12 27  1  0
 13 28  1  0
 16 29  1  0
 16 30  1  0
M  ISO  8  18  14  19  14  20  13  21  13  22  13  23  13  24  13  25  13
M  ISO  2  26  13  27  13
M  END
>  <minimizedAffinity>  (1) 
-4.71629763

>  <minimizedRMSD>  (1) 
0.628345788

$$$$
