
     RDKit          3D

 23 24  0  0  0  0  0  0  0  0999 V2000
   39.7890   23.0450   36.9960 C   0  0  0  0  0  0  0  0  0  0  0  0
   39.2030   23.8730   36.0420 C   0  0  0  0  0  0  0  0  0  0  0  0
   38.1460   24.7070   36.3970 C   0  0  0  0  0  0  0  0  0  0  0  0
   37.7460   24.6550   37.6780 N   0  0  0  0  0  0  0  0  0  0  0  0
   38.3140   23.8500   38.6050 C   0  0  0  0  0  0  0  0  0  0  0  0
   39.3260   23.0510   38.2720 N   0  0  0  0  0  0  0  0  0  0  0  0
   37.5410   25.5620   35.4400 N   0  0  0  0  0  0  0  0  0  0  0  0
   37.9730   26.9270   35.3680 C   0  0  0  0  0  0  0  0  0  0  0  0
   38.6120   27.5160   36.3390 N   0  0  0  0  0  0  0  0  0  0  0  0
   37.6530   27.6010   34.1520 N   0  0  0  0  0  0  0  0  0  0  0  0
   38.9320   28.4900   36.2940 H   0  0  0  0  0  0  0  0  0  0  0  0
   40.9000   22.1590   36.6570 C   0  0  0  0  0  0  0  0  0  0  0  0
   41.3570   22.0630   35.3030 C   0  0  0  0  0  0  0  0  0  0  0  0
   42.7520   20.8430   35.3690 S   0  0  0  0  0  0  0  0  0  0  0  0
   42.4810   20.6700   37.2200 C   0  0  0  0  0  0  0  0  0  0  0  0
   41.6180   21.3700   37.4290 N   0  0  0  0  0  0  0  0  0  0  0  0
   39.5755   23.8682   35.0070 H   0  0  0  0  0  0  0  0  0  0  0  0
   37.9382   23.8554   39.6388 H   0  0  0  0  0  0  0  0  0  0  0  0
   36.8065   25.2092   34.8099 H   0  0  0  0  0  0  0  0  0  0  0  0
   37.9284   28.5848   34.0206 H   0  0  0  0  0  0  0  0  0  0  0  0
   37.1466   27.1039   33.4055 H   0  0  0  0  0  0  0  0  0  0  0  0
   40.9678   22.5939   34.4217 H   0  0  0  0  0  0  0  0  0  0  0  0
   43.0316   20.0375   37.9319 H   0  0  0  0  0  0  0  0  0  0  0  0
  1  6  2  0
  2  3  2  0
  2  1  1  0
  3  4  1  0
  4  5  2  0
  6  5  1  0
  7  3  1  0
  8  7  1  0
  8  9  2  0
 10  8  1  0
 11  9  1  0
 12  1  1  0
 12 16  1  0
 13 14  1  0
 13 12  2  0
 14 15  1  0
 15 16  2  0
  2 17  1  0
  5 18  1  0
  7 19  1  0
 10 20  1  0
 10 21  1  0
 13 22  1  0
 15 23  1  0
M  ISO  4  17  14  18  14  22  14  23  14
M  END
>  <minimizedAffinity>  (1) 
-4.47635984

>  <minimizedRMSD>  (1) 
0.734765351

$$$$
