
     RDKit          3D

 24 25  0  0  0  0  0  0  0  0999 V2000
   39.7760   23.0430   36.9680 C   0  0  0  0  0  0  0  0  0  0  0  0
   39.2110   23.8810   35.9980 C   0  0  0  0  0  0  0  0  0  0  0  0
   38.1600   24.7190   36.3890 C   0  0  0  0  0  0  0  0  0  0  0  0
   37.7550   24.6740   37.6710 N   0  0  0  0  0  0  0  0  0  0  0  0
   38.3120   23.8580   38.5920 C   0  0  0  0  0  0  0  0  0  0  0  0
   39.3200   23.0470   38.2350 N   0  0  0  0  0  0  0  0  0  0  0  0
   40.8430   22.1910   36.5690 N   0  0  0  0  0  0  0  0  0  0  0  0
   41.6240   21.4540   37.3940 C   0  0  0  0  0  0  0  0  0  0  0  0
   42.5720   20.7330   36.6840 C   0  0  0  0  0  0  0  0  0  0  0  0
   42.3470   21.0520   35.3960 N   0  0  0  0  0  0  0  0  0  0  0  0
   41.3160   21.9190   35.3400 C   0  0  0  0  0  0  0  0  0  0  0  0
   37.5100   25.6190   35.4780 N   0  0  0  0  0  0  0  0  0  0  0  0
   37.9470   26.9690   35.4220 C   0  0  0  0  0  0  0  0  0  0  0  0
   38.5760   27.5260   36.4090 N   0  0  0  0  0  0  0  0  0  0  0  0
   37.6670   27.6960   34.2290 N   0  0  0  0  0  0  0  0  0  0  0  0
   38.9070   28.5120   36.4250 H   0  0  0  0  0  0  0  0  0  0  0  0
   39.5813   23.8806   34.9622 H   0  0  0  0  0  0  0  0  0  0  0  0
   37.9419   23.8582   39.6279 H   0  0  0  0  0  0  0  0  0  0  0  0
   41.5196   21.4303   38.4888 H   0  0  0  0  0  0  0  0  0  0  0  0
   43.3375   20.0520   37.0843 H   0  0  0  0  0  0  0  0  0  0  0  0
   40.9142   22.3479   34.4102 H   0  0  0  0  0  0  0  0  0  0  0  0
   36.7409   25.2913   34.8763 H   0  0  0  0  0  0  0  0  0  0  0  0
   37.9647   28.6782   34.1426 H   0  0  0  0  0  0  0  0  0  0  0  0
   37.1669   27.2393   33.4530 H   0  0  0  0  0  0  0  0  0  0  0  0
  1  6  2  0
  2  3  2  0
  2  1  1  0
  3  4  1  0
  4  5  2  0
  6  5  1  0
  7  1  1  0
  7  8  1  0
  9  8  2  0
 10  9  1  0
 11 10  2  0
 11  7  1  0
 12  3  1  0
 13 12  1  0
 13 14  2  0
 14 16  1  0
 15 13  1  0
  2 17  1  0
  5 18  1  0
  8 19  1  0
  9 20  1  0
 11 21  1  0
 12 22  1  0
 15 23  1  0
 15 24  1  0
M  ISO  5  17  14  18  14  19  14  20  14  21  14
M  END
>  <minimizedAffinity>  (1) 
-4.5833497

>  <minimizedRMSD>  (1) 
0.702642739

$$$$
