
     RDKit          3D

 24 25  0  0  0  0  0  0  0  0999 V2000
   39.7720   23.0430   36.9780 C   0  0  0  0  0  0  0  0  0  0  0  0
   39.2220   23.8600   35.9860 C   0  0  0  0  0  0  0  0  0  0  0  0
   38.1660   24.7010   36.3860 C   0  0  0  0  0  0  0  0  0  0  0  0
   37.7580   24.6660   37.6890 N   0  0  0  0  0  0  0  0  0  0  0  0
   38.3240   23.8600   38.5990 C   0  0  0  0  0  0  0  0  0  0  0  0
   39.3310   23.0490   38.2410 N   0  0  0  0  0  0  0  0  0  0  0  0
   37.5140   25.5870   35.4720 N   0  0  0  0  0  0  0  0  0  0  0  0
   37.9690   26.9370   35.3700 C   0  0  0  0  0  0  0  0  0  0  0  0
   38.6160   27.5040   36.3350 N   0  0  0  0  0  0  0  0  0  0  0  0
   37.6730   27.6060   34.1630 N   0  0  0  0  0  0  0  0  0  0  0  0
   38.9640   28.4800   36.3150 H   0  0  0  0  0  0  0  0  0  0  0  0
   40.8630   22.1590   36.6050 C   0  0  0  0  0  0  0  0  0  0  0  0
   41.6340   21.3910   37.4530 C   0  0  0  0  0  0  0  0  0  0  0  0
   42.5850   20.6720   36.7340 C   0  0  0  0  0  0  0  0  0  0  0  0
   42.3500   21.0390   35.4460 N   0  0  0  0  0  0  0  0  0  0  0  0
   41.3480   21.9040   35.3770 N   0  0  0  0  0  0  0  0  0  0  0  0
   39.5935   23.8466   34.9507 H   0  0  0  0  0  0  0  0  0  0  0  0
   37.9630   23.8638   39.6381 H   0  0  0  0  0  0  0  0  0  0  0  0
   36.7273   25.2561   34.8954 H   0  0  0  0  0  0  0  0  0  0  0  0
   37.9741   28.5817   34.0277 H   0  0  0  0  0  0  0  0  0  0  0  0
   37.1559   27.1185   33.4174 H   0  0  0  0  0  0  0  0  0  0  0  0
   41.5140   21.3521   38.5457 H   0  0  0  0  0  0  0  0  0  0  0  0
   43.3445   19.9742   37.1163 H   0  0  0  0  0  0  0  0  0  0  0  0
   42.8792   20.6917   34.6335 H   0  0  0  0  0  0  0  0  0  0  0  0
  1  6  2  0
  2  3  2  0
  2  1  1  0
  3  4  1  0
  4  5  2  0
  6  5  1  0
  7  3  1  0
  8  7  1  0
  8  9  2  0
 10  8  1  0
 11  9  1  0
 12  1  1  0
 12 13  1  0
 14 13  2  0
 15 14  1  0
 16 15  1  0
 16 12  2  0
  2 17  1  0
  5 18  1  0
  7 19  1  0
 10 20  1  0
 10 21  1  0
 13 22  1  0
 14 23  1  0
 15 24  1  0
M  ISO  5  17  14  18  14  22  14  23  14  24   9
M  END
>  <minimizedAffinity>  (1) 
-4.49477243

>  <minimizedRMSD>  (1) 
0.706834316

$$$$
