
     RDKit          3D

 33 36  0  0  0  0  0  0  0  0999 V2000
   37.6520   27.2150   35.4340 N   0  0  0  0  0  0  0  0  0  0  0  0
   36.8990   28.0460   34.7100 N   0  0  0  0  0  0  0  0  0  0  0  0
   36.7130   27.5150   33.4740 C   0  0  0  0  0  0  0  0  0  0  0  0
   37.3730   26.3070   33.4220 C   0  0  0  0  0  0  0  0  0  0  0  0
   37.9460   26.1510   34.6590 C   0  0  0  0  0  0  0  0  0  0  0  0
   38.7390   25.0560   35.1090 N   0  0  0  0  0  0  0  0  0  0  0  0
   39.6750   24.3570   34.4040 C   0  0  0  0  0  0  0  0  0  0  0  0
   40.1900   23.3940   35.2230 N   0  0  0  0  0  0  0  0  0  0  0  0
   39.5810   23.4940   36.4190 C   0  0  0  0  0  0  0  0  0  0  0  0
   39.6290   22.8550   37.6390 C   0  0  0  0  0  0  0  0  0  0  0  0
   38.8610   23.1980   38.6920 N   0  0  0  0  0  0  0  0  0  0  0  0
   37.9820   24.2190   38.5960 C   0  0  0  0  0  0  0  0  0  0  0  0
   37.9120   24.8620   37.4170 N   0  0  0  0  0  0  0  0  0  0  0  0
   38.6600   24.5410   36.3640 C   0  0  0  0  0  0  0  0  0  0  0  0
   40.5380   21.7730   37.7940 N   0  0  0  0  0  0  0  0  0  0  0  0
   35.9580   28.1660   32.4850 O   0  0  0  0  0  0  0  0  0  0  0  0
   36.3170   28.0910   31.1400 C   0  0  0  0  0  0  0  0  0  0  0  0
   36.0580   27.0890   30.4480 O   0  0  0  0  0  0  0  0  0  0  0  0
   37.0170   29.2280   30.5340 C   0  0  0  0  0  0  0  0  0  0  0  0
   36.4980   30.5050   30.7660 C   0  0  0  0  0  0  0  0  0  0  0  0
   37.1650   31.6000   30.1880 C   0  0  0  0  0  0  0  0  0  0  0  0
   38.2550   31.3400   29.4540 N   0  0  0  0  0  0  0  0  0  0  0  0
   38.7290   30.1060   29.2490 C   0  0  0  0  0  0  0  0  0  0  0  0
   38.1220   29.0300   29.7830 N   0  0  0  0  0  0  0  0  0  0  0  0
   37.9538   27.3600   36.4080 H   0  0  0  0  0  0  0  0  0  0  0  0
   37.4289   25.6142   32.5694 H   0  0  0  0  0  0  0  0  0  0  0  0
   39.9641   24.5379   33.3582 H   0  0  0  0  0  0  0  0  0  0  0  0
   37.3496   24.5124   39.4469 H   0  0  0  0  0  0  0  0  0  0  0  0
   40.5974   21.2751   38.6937 H   0  0  0  0  0  0  0  0  0  0  0  0
   41.1372   21.4869   37.0066 H   0  0  0  0  0  0  0  0  0  0  0  0
   35.5972   30.6488   31.3807 H   0  0  0  0  0  0  0  0  0  0  0  0
   36.8057   32.6295   30.3330 H   0  0  0  0  0  0  0  0  0  0  0  0
   39.6302   29.9684   28.6335 H   0  0  0  0  0  0  0  0  0  0  0  0
  2  1  1  0
  3  2  2  0
  4  3  1  0
  4  5  2  0
  5  6  1  0
  5  1  1  0
  6 14  1  0
  7  6  1  0
  7  8  2  0
  8  9  1  0
  9 10  2  0
 10 15  1  0
 10 11  1  0
 12 11  2  0
 13 12  1  0
 14  9  1  0
 14 13  2  0
 16  3  1  0
 17 16  1  0
 18 17  2  0
 19 20  2  0
 19 17  1  0
 21 20  1  0
 22 21  2  0
 23 22  1  0
 23 24  2  0
 24 19  1  0
  1 25  1  0
  4 26  1  0
  7 27  1  0
 12 28  1  0
 15 29  1  0
 15 30  1  0
 20 31  1  0
 21 32  1  0
 23 33  1  0
M  ISO  7  25   9  26  14  27  14  28  14  31  14  32  14  33  14
M  END
>  <minimizedAffinity>  (1) 
-5.62650824

>  <minimizedRMSD>  (1) 
5.26098967

$$$$
