
     RDKit          3D

 36 38  0  0  0  0  0  0  0  0999 V2000
   39.2470   22.8260   37.7760 N   0  0  0  0  0  0  0  0  0  0  0  0
   38.2290   23.6670   37.6540 N   0  0  0  0  0  0  0  0  0  0  0  0
   38.3860   24.3830   36.4970 C   0  0  0  0  0  0  0  0  0  0  0  0
   39.5510   23.9730   35.8660 C   0  0  0  0  0  0  0  0  0  0  0  0
   40.0580   22.9960   36.7040 C   0  0  0  0  0  0  0  0  0  0  0  0
   41.3060   22.2500   36.4570 C   0  0  0  0  0  0  0  0  0  0  0  0
   41.6310   21.2770   37.5930 C   0  0  0  0  0  0  0  0  0  0  0  0
   42.7380   20.3690   37.1530 C   0  0  0  0  0  0  0  0  0  0  0  0
   43.6340   20.9770   36.1080 C   0  0  0  0  0  0  0  0  0  0  0  0
   43.7700   22.4700   36.2450 C   0  0  0  0  0  0  0  0  0  0  0  0
   42.4860   23.2060   36.3900 C   0  0  0  0  0  0  0  0  0  0  0  0
   37.4300   25.3490   36.1350 O   0  0  0  0  0  0  0  0  0  0  0  0
   37.7920   26.5500   35.5670 C   0  0  0  0  0  0  0  0  0  0  0  0
   38.7050   27.2430   36.0720 O   0  0  0  0  0  0  0  0  0  0  0  0
   37.1110   27.0220   34.3670 C   0  0  0  0  0  0  0  0  0  0  0  0
   37.1350   26.2280   33.2230 C   0  0  0  0  0  0  0  0  0  0  0  0
   36.4800   26.6840   32.0710 C   0  0  0  0  0  0  0  0  0  0  0  0
   35.8620   27.8780   32.1560 N   0  0  0  0  0  0  0  0  0  0  0  0
   35.8430   28.6360   33.2570 C   0  0  0  0  0  0  0  0  0  0  0  0
   36.4660   28.2160   34.3700 N   0  0  0  0  0  0  0  0  0  0  0  0
   39.3950   22.1613   38.5488 H   0  0  0  0  0  0  0  0  0  0  0  0
   39.9738   24.3396   34.9190 H   0  0  0  0  0  0  0  0  0  0  0  0
   41.1508   21.7061   35.5136 H   0  0  0  0  0  0  0  0  0  0  0  0
   41.9477   21.8409   38.4828 H   0  0  0  0  0  0  0  0  0  0  0  0
   40.7389   20.6834   37.8416 H   0  0  0  0  0  0  0  0  0  0  0  0
   43.3498   20.1151   38.0312 H   0  0  0  0  0  0  0  0  0  0  0  0
   42.2689   19.4827   36.7008 H   0  0  0  0  0  0  0  0  0  0  0  0
   43.2167   20.7528   35.1152 H   0  0  0  0  0  0  0  0  0  0  0  0
   44.6357   20.5422   36.2406 H   0  0  0  0  0  0  0  0  0  0  0  0
   44.3844   22.6768   37.1337 H   0  0  0  0  0  0  0  0  0  0  0  0
   44.2245   22.8251   35.3084 H   0  0  0  0  0  0  0  0  0  0  0  0
   42.5171   23.8022   37.3139 H   0  0  0  0  0  0  0  0  0  0  0  0
   42.3571   23.8557   35.5118 H   0  0  0  0  0  0  0  0  0  0  0  0
   37.6585   25.2606   33.2237 H   0  0  0  0  0  0  0  0  0  0  0  0
   36.4709   26.0952   31.1419 H   0  0  0  0  0  0  0  0  0  0  0  0
   35.3177   29.6025   33.2512 H   0  0  0  0  0  0  0  0  0  0  0  0
  2  1  1  0
  3  2  2  0
  4  3  1  0
  4  5  2  0
  5  1  1  0
  6  5  1  0
  6  7  1  0
  8  7  1  0
  9 10  1  0
  9  8  1  0
 10 11  1  0
 11  6  1  0
 12  3  1  0
 13 14  2  0
 13 12  1  0
 15 20  1  0
 15 13  1  0
 16 15  2  0
 17 18  2  0
 17 16  1  0
 18 19  1  0
 19 20  2  0
  1 21  1  0
  4 22  1  0
  6 23  1  0
  7 24  1  0
  7 25  1  0
  8 26  1  0
  8 27  1  0
  9 28  1  0
  9 29  1  0
 10 30  1  0
 10 31  1  0
 11 32  1  0
 11 33  1  0
 16 34  1  0
 17 35  1  0
 19 36  1  0
M  ISO  8  21   9  22  14  23  13  24  13  25  13  26  13  27  13  28  13
M  ISO  8  29  13  30  13  31  13  32  13  33  13  34  14  35  14  36  14
M  END
>  <minimizedAffinity>  (1) 
-5.29645872

>  <minimizedRMSD>  (1) 
1.28330457

$$$$
