
     RDKit          3D

 40 41  0  0  0  0  0  0  0  0999 V2000
   38.7090   23.5420   36.7250 C   0  0  0  0  0  0  0  0  0  0  0  0
   41.9700   21.6970   36.8960 C   0  0  0  0  0  0  0  0  0  0  0  0
   40.6410   22.0170   37.1170 C   0  0  0  0  0  0  0  0  0  0  0  0
   40.0950   23.1560   36.5290 C   0  0  0  0  0  0  0  0  0  0  0  0
   40.8960   23.9160   35.7540 N   0  0  0  0  0  0  0  0  0  0  0  0
   42.1880   23.6010   35.5420 C   0  0  0  0  0  0  0  0  0  0  0  0
   42.7220   22.4890   36.1160 N   0  0  0  0  0  0  0  0  0  0  0  0
   42.5290   20.4780   37.5330 C   0  0  0  0  0  0  0  0  0  0  0  0
   43.2300   19.5840   36.5790 C   0  0  0  0  0  0  0  0  0  0  0  0
   38.4040   23.4420   38.2110 C   0  0  0  0  0  0  0  0  0  0  0  0
   38.3840   24.9320   36.2100 C   0  0  0  0  0  0  0  0  0  0  0  0
   37.7980   22.5780   35.9900 C   0  0  0  0  0  0  0  0  0  0  0  0
   38.0090   22.5860   34.5740 N   0  0  0  0  0  0  0  0  0  0  0  0
   38.7570   21.7590   33.7960 C   0  0  0  0  0  0  0  0  0  0  0  0
   38.6540   22.1580   32.4920 N   0  0  0  0  0  0  0  0  0  0  0  0
   37.8430   23.2280   32.4840 C   0  0  0  0  0  0  0  0  0  0  0  0
   37.4660   23.4700   33.7430 N   0  0  0  0  0  0  0  0  0  0  0  0
   37.5270   23.9050   31.1970 C   0  0  0  0  0  0  0  0  0  0  0  0
   36.0240   24.1670   31.1230 C   0  0  0  0  0  0  0  0  0  0  0  0
   40.0178   21.3734   37.7553 H   0  0  0  0  0  0  0  0  0  0  0  0
   42.8125   24.2436   34.9039 H   0  0  0  0  0  0  0  0  0  0  0  0
   43.2431   20.7870   38.3105 H   0  0  0  0  0  0  0  0  0  0  0  0
   41.6827   19.9109   37.9479 H   0  0  0  0  0  0  0  0  0  0  0  0
   43.8148   18.8382   37.1374 H   0  0  0  0  0  0  0  0  0  0  0  0
   42.4907   19.0713   35.9461 H   0  0  0  0  0  0  0  0  0  0  0  0
   43.9043   20.1796   35.9461 H   0  0  0  0  0  0  0  0  0  0  0  0
   39.2937   23.7337   38.7884 H   0  0  0  0  0  0  0  0  0  0  0  0
   37.5690   24.1134   38.4599 H   0  0  0  0  0  0  0  0  0  0  0  0
   38.1286   22.4065   38.4599 H   0  0  0  0  0  0  0  0  0  0  0  0
   38.2253   25.6106   37.0611 H   0  0  0  0  0  0  0  0  0  0  0  0
   39.2201   25.3010   35.5978 H   0  0  0  0  0  0  0  0  0  0  0  0
   37.4710   24.8920   35.5978 H   0  0  0  0  0  0  0  0  0  0  0  0
   37.9839   21.5616   36.3674 H   0  0  0  0  0  0  0  0  0  0  0  0
   36.7613   22.8975   36.1723 H   0  0  0  0  0  0  0  0  0  0  0  0
   39.3499   20.9059   34.1575 H   0  0  0  0  0  0  0  0  0  0  0  0
   38.0701   24.8599   31.1406 H   0  0  0  0  0  0  0  0  0  0  0  0
   37.8320   23.2633   30.3573 H   0  0  0  0  0  0  0  0  0  0  0  0
   35.6137   24.2385   32.1411 H   0  0  0  0  0  0  0  0  0  0  0  0
   35.8422   25.1104   30.5873 H   0  0  0  0  0  0  0  0  0  0  0  0
   35.5337   23.3408   30.5873 H   0  0  0  0  0  0  0  0  0  0  0  0
  1 10  1  0
  2  3  2  0
  2  8  1  0
  4  1  1  0
  4  3  1  0
  5  4  2  0
  6  5  1  0
  6  7  2  0
  7  2  1  0
  9  8  1  0
 11  1  1  0
 12  1  1  0
 13 12  1  0
 14 13  1  0
 15 14  2  0
 16 15  1  0
 16 17  2  0
 17 13  1  0
 18 16  1  0
 19 18  1  0
  3 20  1  0
  6 21  1  0
  8 22  1  0
  8 23  1  0
  9 24  1  0
  9 25  1  0
  9 26  1  0
 10 27  1  0
 10 28  1  0
 10 29  1  0
 11 30  1  0
 11 31  1  0
 11 32  1  0
 12 33  1  0
 12 34  1  0
 14 35  1  0
 18 36  1  0
 18 37  1  0
 19 38  1  0
 19 39  1  0
 19 40  1  0
M  ISO  8  20  14  21  14  22   8  23   8  24   8  25   8  26   8  27   8
M  ISO  8  28   8  29   8  30   8  31   8  32   8  33   8  34   8  35  14
M  ISO  5  36   8  37   8  38   8  39   8  40   8
M  END
>  <minimizedAffinity>  (1) 
-4.10347366

>  <minimizedRMSD>  (1) 
0.388621181

$$$$
