
     RDKit          3D

 27 29  0  0  0  0  0  0  0  0999 V2000
   39.3630   22.7660   38.4260 N   0  0  0  0  0  0  0  0  0  0  0  0
   38.3850   23.6240   38.2050 N   0  0  0  0  0  0  0  0  0  0  0  0
   38.4070   24.0570   36.9210 C   0  0  0  0  0  0  0  0  0  0  0  0
   39.4630   23.4290   36.3060 C   0  0  0  0  0  0  0  0  0  0  0  0
   40.0450   22.6300   37.2600 C   0  0  0  0  0  0  0  0  0  0  0  0
   41.2110   21.7590   37.0880 C   0  0  0  0  0  0  0  0  0  0  0  0
   42.0430   21.7570   35.9870 C   0  0  0  0  0  0  0  0  0  0  0  0
   43.0030   20.8370   36.1640 N   0  0  0  0  0  0  0  0  0  0  0  0
   42.7440   20.2930   37.3660 C   0  0  0  0  0  0  0  0  0  0  0  0
   41.6630   20.8210   37.9670 N   0  0  0  0  0  0  0  0  0  0  0  0
   37.4710   24.9750   36.4340 O   0  0  0  0  0  0  0  0  0  0  0  0
   37.8760   26.1920   35.8970 C   0  0  0  0  0  0  0  0  0  0  0  0
   38.6830   26.9250   36.4790 O   0  0  0  0  0  0  0  0  0  0  0  0
   37.3200   26.6100   34.5940 C   0  0  0  0  0  0  0  0  0  0  0  0
   37.3660   25.7170   33.5350 C   0  0  0  0  0  0  0  0  0  0  0  0
   36.8330   26.1330   32.3090 C   0  0  0  0  0  0  0  0  0  0  0  0
   36.3120   27.3650   32.2310 N   0  0  0  0  0  0  0  0  0  0  0  0
   36.2780   28.2160   33.2720 C   0  0  0  0  0  0  0  0  0  0  0  0
   36.7810   27.8590   34.4760 N   0  0  0  0  0  0  0  0  0  0  0  0
   39.5699   22.2894   39.3154 H   0  0  0  0  0  0  0  0  0  0  0  0
   39.7793   23.5432   35.2587 H   0  0  0  0  0  0  0  0  0  0  0  0
   41.9361   22.4060   35.1053 H   0  0  0  0  0  0  0  0  0  0  0  0
   43.3555   19.4955   37.8133 H   0  0  0  0  0  0  0  0  0  0  0  0
   41.2663   20.5725   38.8845 H   0  0  0  0  0  0  0  0  0  0  0  0
   37.8061   24.7159   33.6537 H   0  0  0  0  0  0  0  0  0  0  0  0
   36.8417   25.4667   31.4338 H   0  0  0  0  0  0  0  0  0  0  0  0
   35.8356   29.2148   33.1427 H   0  0  0  0  0  0  0  0  0  0  0  0
  2  1  1  0
  3  2  2  0
  4  3  1  0
  4  5  2  0
  5  1  1  0
  6  5  1  0
  6 10  1  0
  7  8  1  0
  7  6  2  0
  8  9  2  0
  9 10  1  0
 11  3  1  0
 12 11  1  0
 12 13  2  0
 14 12  1  0
 15 14  2  0
 16 15  1  0
 17 16  2  0
 17 18  1  0
 18 19  2  0
 19 14  1  0
  1 20  1  0
  4 21  1  0
  7 22  1  0
  9 23  1  0
 10 24  1  0
 15 25  1  0
 16 26  1  0
 18 27  1  0
M  ISO  8  20   9  21  14  22  14  23  14  24   9  25  14  26  14  27  14
M  END
>  <minimizedAffinity>  (1) 
-5.26170635

>  <minimizedRMSD>  (1) 
1.08821785

$$$$
