
     RDKit          3D

 32 34  0  0  0  0  0  0  0  0999 V2000
   39.6980   22.6190   38.2400 N   0  0  0  0  0  0  0  0  0  0  0  0
   38.5730   23.2980   37.9960 N   0  0  0  0  0  0  0  0  0  0  0  0
   38.6780   23.8770   36.7600 C   0  0  0  0  0  0  0  0  0  0  0  0
   39.9090   23.5480   36.2130 C   0  0  0  0  0  0  0  0  0  0  0  0
   40.4970   22.7670   37.1760 C   0  0  0  0  0  0  0  0  0  0  0  0
   41.7920   22.1930   37.0470 N   0  0  0  0  0  0  0  0  0  0  0  0
   42.0850   20.8280   37.4590 C   0  0  0  0  0  0  0  0  0  0  0  0
   43.3190   20.4670   36.6600 C   0  0  0  0  0  0  0  0  0  0  0  0
   43.6280   21.6430   35.7710 C   0  0  0  0  0  0  0  0  0  0  0  0
   42.9960   22.7970   36.5200 C   0  0  0  0  0  0  0  0  0  0  0  0
   37.6100   24.6590   36.2620 O   0  0  0  0  0  0  0  0  0  0  0  0
   37.8020   25.9760   35.9230 C   0  0  0  0  0  0  0  0  0  0  0  0
   38.3960   26.7770   36.6840 O   0  0  0  0  0  0  0  0  0  0  0  0
   37.3090   26.4800   34.6450 C   0  0  0  0  0  0  0  0  0  0  0  0
   37.3750   25.6510   33.5250 C   0  0  0  0  0  0  0  0  0  0  0  0
   36.9140   26.1060   32.2930 C   0  0  0  0  0  0  0  0  0  0  0  0
   36.4180   27.3560   32.2620 N   0  0  0  0  0  0  0  0  0  0  0  0
   36.3550   28.1540   33.3430 C   0  0  0  0  0  0  0  0  0  0  0  0
   36.7970   27.7200   34.5250 N   0  0  0  0  0  0  0  0  0  0  0  0
   39.9114   22.0801   39.0914 H   0  0  0  0  0  0  0  0  0  0  0  0
   40.3184   23.8438   35.2358 H   0  0  0  0  0  0  0  0  0  0  0  0
   42.2893   20.7798   38.5388 H   0  0  0  0  0  0  0  0  0  0  0  0
   41.2457   20.1400   37.2798 H   0  0  0  0  0  0  0  0  0  0  0  0
   44.1640   20.2730   37.3370 H   0  0  0  0  0  0  0  0  0  0  0  0
   43.1486   19.5584   36.0638 H   0  0  0  0  0  0  0  0  0  0  0  0
   43.1747   21.5191   34.7764 H   0  0  0  0  0  0  0  0  0  0  0  0
   44.7032   21.7793   35.5831 H   0  0  0  0  0  0  0  0  0  0  0  0
   43.6504   23.1543   37.3287 H   0  0  0  0  0  0  0  0  0  0  0  0
   42.8097   23.6820   35.8939 H   0  0  0  0  0  0  0  0  0  0  0  0
   37.7917   24.6370   33.6155 H   0  0  0  0  0  0  0  0  0  0  0  0
   36.9532   25.4764   31.3919 H   0  0  0  0  0  0  0  0  0  0  0  0
   35.9377   29.1677   33.2524 H   0  0  0  0  0  0  0  0  0  0  0  0
  2  1  1  0
  3  2  2  0
  4  3  1  0
  4  5  2  0
  5  1  1  0
  6  5  1  0
  6  7  1  0
  8  7  1  0
  9 10  1  0
  9  8  1  0
 10  6  1  0
 11  3  1  0
 12 11  1  0
 12 13  2  0
 14 12  1  0
 15 14  2  0
 16 15  1  0
 17 16  2  0
 17 18  1  0
 18 19  2  0
 19 14  1  0
  1 20  1  0
  4 21  1  0
  7 22  1  0
  7 23  1  0
  8 24  1  0
  8 25  1  0
  9 26  1  0
  9 27  1  0
 10 28  1  0
 10 29  1  0
 15 30  1  0
 16 31  1  0
 18 32  1  0
M  ISO  8  20   9  21  14  22  13  23  13  24  13  25  13  26  13  27  13
M  ISO  5  28  13  29  13  30  14  31  14  32  14
M  END
>  <minimizedAffinity>  (1) 
-4.91809225

>  <minimizedRMSD>  (1) 
1.01069748

$$$$
