
     RDKit          3D

 35 36  0  0  0  0  0  0  0  0999 V2000
   38.6580   23.6110   36.8700 C   0  0  0  0  0  0  0  0  0  0  0  0
   41.9040   21.7430   36.8820 C   0  0  0  0  0  0  0  0  0  0  0  0
   40.5920   22.0740   37.1830 C   0  0  0  0  0  0  0  0  0  0  0  0
   40.0260   23.2040   36.5990 C   0  0  0  0  0  0  0  0  0  0  0  0
   40.7800   23.9390   35.7580 N   0  0  0  0  0  0  0  0  0  0  0  0
   42.0670   23.6060   35.4680 C   0  0  0  0  0  0  0  0  0  0  0  0
   42.6200   22.4970   36.0420 N   0  0  0  0  0  0  0  0  0  0  0  0
   42.4880   20.5300   37.5180 C   0  0  0  0  0  0  0  0  0  0  0  0
   43.2100   19.6480   36.5720 C   0  0  0  0  0  0  0  0  0  0  0  0
   38.4050   23.4420   38.3570 C   0  0  0  0  0  0  0  0  0  0  0  0
   38.3380   25.0320   36.4670 C   0  0  0  0  0  0  0  0  0  0  0  0
   37.7000   22.7160   36.1160 C   0  0  0  0  0  0  0  0  0  0  0  0
   37.9410   22.7150   34.7020 N   0  0  0  0  0  0  0  0  0  0  0  0
   38.4800   21.7500   33.9200 C   0  0  0  0  0  0  0  0  0  0  0  0
   38.5160   22.1870   32.6290 N   0  0  0  0  0  0  0  0  0  0  0  0
   37.9950   23.4240   32.6320 C   0  0  0  0  0  0  0  0  0  0  0  0
   37.6480   23.7420   33.8880 N   0  0  0  0  0  0  0  0  0  0  0  0
   37.8850   24.3110   31.0840 S   0  0  0  0  0  0  0  0  0  0  0  0
   40.0053   21.4516   37.8747 H   0  0  0  0  0  0  0  0  0  0  0  0
   42.6574   24.2252   34.7766 H   0  0  0  0  0  0  0  0  0  0  0  0
   43.1930   20.8528   38.2982 H   0  0  0  0  0  0  0  0  0  0  0  0
   41.6492   19.9458   37.9242 H   0  0  0  0  0  0  0  0  0  0  0  0
   43.8083   18.9172   37.1359 H   0  0  0  0  0  0  0  0  0  0  0  0
   42.4840   19.1170   35.9388 H   0  0  0  0  0  0  0  0  0  0  0  0
   43.8739   20.2548   35.9388 H   0  0  0  0  0  0  0  0  0  0  0  0
   39.1888   23.9655   38.9241 H   0  0  0  0  0  0  0  0  0  0  0  0
   37.4226   23.8658   38.6123 H   0  0  0  0  0  0  0  0  0  0  0  0
   38.4203   22.3721   38.6123 H   0  0  0  0  0  0  0  0  0  0  0  0
   38.1996   25.6465   37.3688 H   0  0  0  0  0  0  0  0  0  0  0  0
   39.1669   25.4392   35.8695 H   0  0  0  0  0  0  0  0  0  0  0  0
   37.4145   25.0445   35.8695 H   0  0  0  0  0  0  0  0  0  0  0  0
   37.8084   21.6881   36.4923 H   0  0  0  0  0  0  0  0  0  0  0  0
   36.6837   23.1038   36.2799 H   0  0  0  0  0  0  0  0  0  0  0  0
   38.8329   20.7689   34.2707 H   0  0  0  0  0  0  0  0  0  0  0  0
   37.7192   25.6477   31.3344 H   0  0  0  0  0  0  0  0  0  0  0  0
  1 10  1  0
  2  3  2  0
  2  8  1  0
  4  1  1  0
  4  3  1  0
  5  4  2  0
  6  5  1  0
  6  7  2  0
  7  2  1  0
  9  8  1  0
 11  1  1  0
 12  1  1  0
 13 12  1  0
 14 13  1  0
 15 16  1  0
 15 14  2  0
 16 17  2  0
 17 13  1  0
 18 16  1  0
  3 19  1  0
  6 20  1  0
  8 21  1  0
  8 22  1  0
  9 23  1  0
  9 24  1  0
  9 25  1  0
 10 26  1  0
 10 27  1  0
 10 28  1  0
 11 29  1  0
 11 30  1  0
 11 31  1  0
 12 32  1  0
 12 33  1  0
 14 34  1  0
 18 35  1  0
M  ISO  8  19  14  20  14  21   8  22   8  23   8  24   8  25   8  26   8
M  ISO  8  27   8  28   8  29   8  30   8  31   8  32   8  33   8  34  14
M  ISO  1  35  11
M  END
>  <minimizedAffinity>  (1) 
-4.00366735

>  <minimizedRMSD>  (1) 
0.0449252464

$$$$
