
     RDKit          3D

 27 29  0  0  0  0  0  0  0  0999 V2000
   37.5040   25.0880   36.4370 O   0  0  0  0  0  0  0  0  0  0  0  0
   39.4030   22.7260   38.2380 N   0  0  0  0  0  0  0  0  0  0  0  0
   38.4280   23.6070   38.1220 N   0  0  0  0  0  0  0  0  0  0  0  0
   38.4300   24.1190   36.8680 C   0  0  0  0  0  0  0  0  0  0  0  0
   39.4680   23.5220   36.1540 C   0  0  0  0  0  0  0  0  0  0  0  0
   40.0380   22.6640   37.0580 C   0  0  0  0  0  0  0  0  0  0  0  0
   41.1460   21.8200   36.8030 C   0  0  0  0  0  0  0  0  0  0  0  0
   41.8860   20.9940   37.6130 C   0  0  0  0  0  0  0  0  0  0  0  0
   42.9260   20.2700   37.1150 C   0  0  0  0  0  0  0  0  0  0  0  0
   43.1770   20.4490   35.6690 C   0  0  0  0  0  0  0  0  0  0  0  0
   41.8510   21.6790   35.1500 S   0  0  0  0  0  0  0  0  0  0  0  0
   37.9260   26.2750   35.8530 C   0  0  0  0  0  0  0  0  0  0  0  0
   38.7970   26.9970   36.3760 O   0  0  0  0  0  0  0  0  0  0  0  0
   37.3270   26.6840   34.5830 C   0  0  0  0  0  0  0  0  0  0  0  0
   37.3580   25.7640   33.5220 C   0  0  0  0  0  0  0  0  0  0  0  0
   36.7860   26.1430   32.2970 C   0  0  0  0  0  0  0  0  0  0  0  0
   36.2430   27.3800   32.2280 N   0  0  0  0  0  0  0  0  0  0  0  0
   36.2280   28.2270   33.2470 C   0  0  0  0  0  0  0  0  0  0  0  0
   36.7640   27.9120   34.4470 N   0  0  0  0  0  0  0  0  0  0  0  0
   39.6349   22.1836   39.0823 H   0  0  0  0  0  0  0  0  0  0  0  0
   39.7612   23.6985   35.1086 H   0  0  0  0  0  0  0  0  0  0  0  0
   41.6345   20.9161   38.6810 H   0  0  0  0  0  0  0  0  0  0  0  0
   43.5343   19.6015   37.7419 H   0  0  0  0  0  0  0  0  0  0  0  0
   43.9518   19.9771   35.0469 H   0  0  0  0  0  0  0  0  0  0  0  0
   37.8182   24.7728   33.6475 H   0  0  0  0  0  0  0  0  0  0  0  0
   36.7797   25.4640   31.4316 H   0  0  0  0  0  0  0  0  0  0  0  0
   35.7655   29.2159   33.1122 H   0  0  0  0  0  0  0  0  0  0  0  0
  1  4  1  0
  3  2  1  0
  4  3  2  0
  5  4  1  0
  5  6  2  0
  6  2  1  0
  7  6  1  0
  7  8  2  0
  9  8  1  0
 10  9  2  0
 11 10  1  0
 11  7  1  0
 12 13  2  0
 12  1  1  0
 14 12  1  0
 15 14  2  0
 16 15  1  0
 17 16  2  0
 17 18  1  0
 18 19  2  0
 19 14  1  0
  2 20  1  0
  5 21  1  0
  8 22  1  0
  9 23  1  0
 10 24  1  0
 15 25  1  0
 16 26  1  0
 18 27  1  0
M  ISO  8  20   9  21  14  22  14  23  14  24  14  25  14  26  14  27  14
M  END
>  <minimizedAffinity>  (1) 
-4.96920729

>  <minimizedRMSD>  (1) 
1.23315918

$$$$
