
     RDKit          3D

 28 30  0  0  0  0  0  0  0  0999 V2000
   39.5410   22.6590   38.1710 N   0  0  0  0  0  0  0  0  0  0  0  0
   38.5490   23.5550   38.1250 N   0  0  0  0  0  0  0  0  0  0  0  0
   38.4980   24.0670   36.8500 C   0  0  0  0  0  0  0  0  0  0  0  0
   39.4850   23.4640   36.1070 C   0  0  0  0  0  0  0  0  0  0  0  0
   40.1210   22.5900   36.9560 C   0  0  0  0  0  0  0  0  0  0  0  0
   41.2430   21.7120   36.6350 C   0  0  0  0  0  0  0  0  0  0  0  0
   41.9040   20.9960   37.5970 C   0  0  0  0  0  0  0  0  0  0  0  0
   42.9460   20.2080   37.1480 C   0  0  0  0  0  0  0  0  0  0  0  0
   43.3120   20.1260   35.8620 N   0  0  0  0  0  0  0  0  0  0  0  0
   42.6410   20.8420   34.9440 C   0  0  0  0  0  0  0  0  0  0  0  0
   41.6160   21.6290   35.3250 N   0  0  0  0  0  0  0  0  0  0  0  0
   37.5490   25.0350   36.5050 O   0  0  0  0  0  0  0  0  0  0  0  0
   37.9240   26.2090   35.8630 C   0  0  0  0  0  0  0  0  0  0  0  0
   38.7290   27.0180   36.3820 O   0  0  0  0  0  0  0  0  0  0  0  0
   37.3660   26.5100   34.5440 C   0  0  0  0  0  0  0  0  0  0  0  0
   37.4460   25.5240   33.5600 C   0  0  0  0  0  0  0  0  0  0  0  0
   36.9170   25.8000   32.2980 C   0  0  0  0  0  0  0  0  0  0  0  0
   36.3570   27.0160   32.1150 N   0  0  0  0  0  0  0  0  0  0  0  0
   36.2930   27.9390   33.0710 C   0  0  0  0  0  0  0  0  0  0  0  0
   36.7900   27.7250   34.3080 N   0  0  0  0  0  0  0  0  0  0  0  0
   39.8165   22.1116   38.9988 H   0  0  0  0  0  0  0  0  0  0  0  0
   39.7185   23.6445   35.0473 H   0  0  0  0  0  0  0  0  0  0  0  0
   41.6232   21.0452   38.6594 H   0  0  0  0  0  0  0  0  0  0  0  0
   43.5057   19.6156   37.8867 H   0  0  0  0  0  0  0  0  0  0  0  0
   42.9280   20.7857   33.8836 H   0  0  0  0  0  0  0  0  0  0  0  0
   37.9149   24.5521   33.7737 H   0  0  0  0  0  0  0  0  0  0  0  0
   36.9545   25.0585   31.4864 H   0  0  0  0  0  0  0  0  0  0  0  0
   35.8204   28.9067   32.8467 H   0  0  0  0  0  0  0  0  0  0  0  0
  2  1  1  0
  3  2  2  0
  4  3  1  0
  4  5  2  0
  5  1  1  0
  6  5  1  0
  6  7  2  0
  8  7  1  0
  9  8  2  0
 10 11  2  0
 10  9  1  0
 11  6  1  0
 12  3  1  0
 13 14  2  0
 13 12  1  0
 15 13  1  0
 16 15  2  0
 17 16  1  0
 18 17  2  0
 18 19  1  0
 19 20  2  0
 20 15  1  0
  1 21  1  0
  4 22  1  0
  7 23  1  0
  8 24  1  0
 10 25  1  0
 16 26  1  0
 17 27  1  0
 19 28  1  0
M  ISO  8  21   9  22  14  23  14  24  14  25  14  26  14  27  14  28  14
M  END
>  <minimizedAffinity>  (1) 
-4.95016384

>  <minimizedRMSD>  (1) 
1.28906727

$$$$
