
     RDKit          3D

 25 27  0  0  0  0  0  0  0  0999 V2000
   39.4100   22.7320   38.2620 N   0  0  0  0  0  0  0  0  0  0  0  0
   38.4300   23.6350   38.1340 N   0  0  0  0  0  0  0  0  0  0  0  0
   38.4500   24.1140   36.8490 C   0  0  0  0  0  0  0  0  0  0  0  0
   39.4650   23.4940   36.1670 C   0  0  0  0  0  0  0  0  0  0  0  0
   40.0350   22.6450   37.0800 C   0  0  0  0  0  0  0  0  0  0  0  0
   41.1630   21.7500   36.8540 C   0  0  0  0  0  0  0  0  0  0  0  0
   41.7460   21.4880   35.6710 N   0  0  0  0  0  0  0  0  0  0  0  0
   42.7210   20.6370   35.8850 O   0  0  0  0  0  0  0  0  0  0  0  0
   42.8040   20.3240   37.1580 C   0  0  0  0  0  0  0  0  0  0  0  0
   41.8280   21.0210   37.7670 N   0  0  0  0  0  0  0  0  0  0  0  0
   37.5170   25.0860   36.4360 O   0  0  0  0  0  0  0  0  0  0  0  0
   37.9350   26.2720   35.8530 C   0  0  0  0  0  0  0  0  0  0  0  0
   38.7890   27.0040   36.3800 O   0  0  0  0  0  0  0  0  0  0  0  0
   37.3360   26.6650   34.5610 C   0  0  0  0  0  0  0  0  0  0  0  0
   37.3590   25.7530   33.5190 C   0  0  0  0  0  0  0  0  0  0  0  0
   36.7890   26.1390   32.3030 C   0  0  0  0  0  0  0  0  0  0  0  0
   36.2570   27.3670   32.2250 N   0  0  0  0  0  0  0  0  0  0  0  0
   36.2430   28.2400   33.2460 C   0  0  0  0  0  0  0  0  0  0  0  0
   36.7820   27.8990   34.4240 N   0  0  0  0  0  0  0  0  0  0  0  0
   39.6413   22.2010   39.1137 H   0  0  0  0  0  0  0  0  0  0  0  0
   39.7578   23.6447   35.1174 H   0  0  0  0  0  0  0  0  0  0  0  0
   43.5218   19.6356   37.6279 H   0  0  0  0  0  0  0  0  0  0  0  0
   37.8109   24.7580   33.6444 H   0  0  0  0  0  0  0  0  0  0  0  0
   36.7772   25.4583   31.4390 H   0  0  0  0  0  0  0  0  0  0  0  0
   35.7895   29.2336   33.1149 H   0  0  0  0  0  0  0  0  0  0  0  0
  2  1  1  0
  3  2  2  0
  4  3  1  0
  4  5  2  0
  5  1  1  0
  6  5  1  0
  6 10  1  0
  7  8  1  0
  7  6  2  0
  8  9  1  0
  9 10  2  0
 11  3  1  0
 12 13  2  0
 12 11  1  0
 14 12  1  0
 15 14  2  0
 16 15  1  0
 17 16  2  0
 17 18  1  0
 18 19  2  0
 19 14  1  0
  1 20  1  0
  4 21  1  0
  9 22  1  0
 15 23  1  0
 16 24  1  0
 18 25  1  0
M  ISO  6  20   9  21  14  22  14  23  14  24  14  25  14
M  END
>  <minimizedAffinity>  (1) 
-4.88267946

>  <minimizedRMSD>  (1) 
1.05189228

$$$$
