
     RDKit          3D

 34 36  0  0  0  0  0  0  0  0999 V2000
   39.9220   22.4770   38.1350 N   0  0  0  0  0  0  0  0  0  0  0  0
   38.7630   23.0910   37.8810 N   0  0  0  0  0  0  0  0  0  0  0  0
   38.8430   23.7260   36.6770 C   0  0  0  0  0  0  0  0  0  0  0  0
   40.0960   23.5020   36.1620 C   0  0  0  0  0  0  0  0  0  0  0  0
   40.7300   22.7240   37.0960 C   0  0  0  0  0  0  0  0  0  0  0  0
   42.0650   22.2460   36.9770 N   0  0  0  0  0  0  0  0  0  0  0  0
   43.1540   23.1140   36.5650 C   0  0  0  0  0  0  0  0  0  0  0  0
   44.0700   22.2050   35.7360 C   0  0  0  0  0  0  0  0  0  0  0  0
   43.2900   21.1960   35.0460 N   0  0  0  0  0  0  0  0  0  0  0  0
   42.6810   20.2280   35.9040 C   0  0  0  0  0  0  0  0  0  0  0  0
   42.4030   20.8630   37.2640 C   0  0  0  0  0  0  0  0  0  0  0  0
   37.7450   24.4510   36.1760 O   0  0  0  0  0  0  0  0  0  0  0  0
   37.8570   25.8210   35.9300 C   0  0  0  0  0  0  0  0  0  0  0  0
   38.3450   26.6040   36.7600 O   0  0  0  0  0  0  0  0  0  0  0  0
   37.3800   26.3460   34.6430 C   0  0  0  0  0  0  0  0  0  0  0  0
   37.4550   25.5310   33.5190 C   0  0  0  0  0  0  0  0  0  0  0  0
   37.0030   26.0260   32.2940 C   0  0  0  0  0  0  0  0  0  0  0  0
   36.5140   27.2770   32.2780 N   0  0  0  0  0  0  0  0  0  0  0  0
   36.4490   28.0470   33.3660 C   0  0  0  0  0  0  0  0  0  0  0  0
   36.8770   27.6050   34.5740 N   0  0  0  0  0  0  0  0  0  0  0  0
   40.1505   21.9199   38.9706 H   0  0  0  0  0  0  0  0  0  0  0  0
   40.5027   23.8674   35.2075 H   0  0  0  0  0  0  0  0  0  0  0  0
   42.7778   23.9486   35.9552 H   0  0  0  0  0  0  0  0  0  0  0  0
   43.6754   23.5689   37.4201 H   0  0  0  0  0  0  0  0  0  0  0  0
   44.6113   22.8133   34.9964 H   0  0  0  0  0  0  0  0  0  0  0  0
   44.7827   21.7065   36.4095 H   0  0  0  0  0  0  0  0  0  0  0  0
   42.5448   21.6714   34.5173 H   0  0  0  0  0  0  0  0  0  0  0  0
   41.7355   19.8852   35.4584 H   0  0  0  0  0  0  0  0  0  0  0  0
   43.3573   19.3696   36.0295 H   0  0  0  0  0  0  0  0  0  0  0  0
   43.2957   20.8091   37.9045 H   0  0  0  0  0  0  0  0  0  0  0  0
   41.5949   20.3455   37.8017 H   0  0  0  0  0  0  0  0  0  0  0  0
   37.8639   24.5125   33.5935 H   0  0  0  0  0  0  0  0  0  0  0  0
   37.0456   25.4163   31.3794 H   0  0  0  0  0  0  0  0  0  0  0  0
   36.0386   29.0640   33.2806 H   0  0  0  0  0  0  0  0  0  0  0  0
  2  1  1  0
  3  2  2  0
  4  3  1  0
  4  5  2  0
  5  1  1  0
  6  5  1  0
  6 11  1  0
  7  6  1  0
  8  7  1  0
  9  8  1  0
  9 10  1  0
 10 11  1  0
 12  3  1  0
 13 12  1  0
 13 14  2  0
 15 13  1  0
 16 15  2  0
 17 16  1  0
 18 17  2  0
 18 19  1  0
 19 20  2  0
 20 15  1  0
  1 21  1  0
  4 22  1  0
  7 23  1  0
  7 24  1  0
  8 25  1  0
  8 26  1  0
  9 27  1  0
 10 28  1  0
 10 29  1  0
 11 30  1  0
 11 31  1  0
 16 32  1  0
 17 33  1  0
 19 34  1  0
M  ISO  8  21   9  22  14  23  13  24  13  25  13  26  13  27   5  28  13
M  ISO  6  29  13  30  13  31  13  32  14  33  14  34  14
M  END
>  <minimizedAffinity>  (1) 
-4.76344585

>  <minimizedRMSD>  (1) 
1.17788517

$$$$
