
     RDKit          3D

 26 28  0  0  0  0  0  0  0  0999 V2000
   37.5120   24.9820   36.5210 O   0  0  0  0  0  0  0  0  0  0  0  0
   39.4740   22.6750   38.3390 N   0  0  0  0  0  0  0  0  0  0  0  0
   38.4820   23.5560   38.2110 N   0  0  0  0  0  0  0  0  0  0  0  0
   38.4620   24.0310   36.9430 C   0  0  0  0  0  0  0  0  0  0  0  0
   39.4920   23.4180   36.2410 C   0  0  0  0  0  0  0  0  0  0  0  0
   40.0910   22.5850   37.1550 C   0  0  0  0  0  0  0  0  0  0  0  0
   41.2100   21.7540   36.8520 N   0  0  0  0  0  0  0  0  0  0  0  0
   41.8090   21.5710   35.6450 C   0  0  0  0  0  0  0  0  0  0  0  0
   42.8460   20.7010   35.7660 N   0  0  0  0  0  0  0  0  0  0  0  0
   42.8970   20.3400   37.0410 C   0  0  0  0  0  0  0  0  0  0  0  0
   41.9010   20.9890   37.6700 N   0  0  0  0  0  0  0  0  0  0  0  0
   37.9260   26.1310   35.8530 C   0  0  0  0  0  0  0  0  0  0  0  0
   38.6950   26.9710   36.3640 O   0  0  0  0  0  0  0  0  0  0  0  0
   37.4390   26.3630   34.4960 C   0  0  0  0  0  0  0  0  0  0  0  0
   37.5670   25.3410   33.5580 C   0  0  0  0  0  0  0  0  0  0  0  0
   37.1070   25.5360   32.2480 C   0  0  0  0  0  0  0  0  0  0  0  0
   36.5560   26.7410   31.9790 N   0  0  0  0  0  0  0  0  0  0  0  0
   36.4380   27.7150   32.8860 C   0  0  0  0  0  0  0  0  0  0  0  0
   36.8700   27.5510   34.1480 N   0  0  0  0  0  0  0  0  0  0  0  0
   39.7210   22.1572   39.1944 H   0  0  0  0  0  0  0  0  0  0  0  0
   39.7673   23.5666   35.1864 H   0  0  0  0  0  0  0  0  0  0  0  0
   41.4994   22.0563   34.7076 H   0  0  0  0  0  0  0  0  0  0  0  0
   43.6160   19.6434   37.4968 H   0  0  0  0  0  0  0  0  0  0  0  0
   38.0276   24.3840   33.8443 H   0  0  0  0  0  0  0  0  0  0  0  0
   37.1898   24.7517   31.4812 H   0  0  0  0  0  0  0  0  0  0  0  0
   35.9779   28.6705   32.5938 H   0  0  0  0  0  0  0  0  0  0  0  0
  1  4  1  0
  3  2  1  0
  4  3  2  0
  5  4  1  0
  5  6  2  0
  6  2  1  0
  7  6  1  0
  7 11  1  0
  8  9  2  0
  8  7  1  0
  9 10  1  0
 10 11  2  0
 12 13  2  0
 12  1  1  0
 14 12  1  0
 15 14  2  0
 16 15  1  0
 17 16  2  0
 17 18  1  0
 18 19  2  0
 19 14  1  0
  2 20  1  0
  5 21  1  0
  8 22  1  0
 10 23  1  0
 15 24  1  0
 16 25  1  0
 18 26  1  0
M  ISO  7  20   9  21  14  22  14  23  14  24  14  25  14  26  14
M  END
>  <minimizedAffinity>  (1) 
-4.85119104

>  <minimizedRMSD>  (1) 
1.24197447

$$$$
