
     RDKit          3D

 21 22  0  0  0  0  0  0  0  0999 V2000
   37.9090   26.2380   35.8680 C   0  0  0  0  0  0  0  0  0  0  0  0
   38.4510   26.8690   36.7840 O   0  0  0  0  0  0  0  0  0  0  0  0
   37.5760   26.9210   34.6220 C   0  0  0  0  0  0  0  0  0  0  0  0
   38.3400   26.6530   33.4860 C   0  0  0  0  0  0  0  0  0  0  0  0
   38.0180   27.3090   32.2990 C   0  0  0  0  0  0  0  0  0  0  0  0
   36.9840   28.1670   32.3140 N   0  0  0  0  0  0  0  0  0  0  0  0
   36.2570   28.4150   33.4130 C   0  0  0  0  0  0  0  0  0  0  0  0
   36.5470   27.7970   34.5690 N   0  0  0  0  0  0  0  0  0  0  0  0
   37.6070   24.8840   35.9920 O   0  0  0  0  0  0  0  0  0  0  0  0
   39.2230   22.7670   38.2910 N   0  0  0  0  0  0  0  0  0  0  0  0
   38.2510   23.6070   37.9280 N   0  0  0  0  0  0  0  0  0  0  0  0
   38.4700   23.9990   36.6420 C   0  0  0  0  0  0  0  0  0  0  0  0
   39.6130   23.3840   36.1910 C   0  0  0  0  0  0  0  0  0  0  0  0
   40.0550   22.6250   37.2470 C   0  0  0  0  0  0  0  0  0  0  0  0
   41.5130   21.5910   37.2610 S   0  0  0  0  0  0  0  0  0  0  0  0
   39.1771   25.9405   33.5260 H   0  0  0  0  0  0  0  0  0  0  0  0
   38.5927   27.1298   31.3783 H   0  0  0  0  0  0  0  0  0  0  0  0
   35.4200   29.1273   33.3673 H   0  0  0  0  0  0  0  0  0  0  0  0
   39.3178   22.3093   39.2088 H   0  0  0  0  0  0  0  0  0  0  0  0
   40.0750   23.4791   35.1973 H   0  0  0  0  0  0  0  0  0  0  0  0
   41.8772   21.3327   38.5562 H   0  0  0  0  0  0  0  0  0  0  0  0
  1  9  1  0
  1  2  2  0
  3  1  1  0
  4  3  2  0
  5  6  2  0
  5  4  1  0
  6  7  1  0
  7  8  2  0
  8  3  1  0
  9 12  1  0
 11 10  1  0
 12 11  2  0
 13 12  1  0
 13 14  2  0
 14 15  1  0
 14 10  1  0
  4 16  1  0
  5 17  1  0
  7 18  1  0
 10 19  1  0
 13 20  1  0
 15 21  1  0
M  ISO  6  16  14  17  14  18  14  19   9  20  14  21  11
M  END
>  <minimizedAffinity>  (1) 
-4.35110712

>  <minimizedRMSD>  (1) 
0.32807079

$$$$
