
     RDKit          3D

 36 37  0  0  0  0  0  0  0  0999 V2000
   38.6270   23.6240   36.8870 C   0  0  0  0  0  0  0  0  0  0  0  0
   41.8840   21.7610   36.8940 C   0  0  0  0  0  0  0  0  0  0  0  0
   40.5760   22.0850   37.1970 C   0  0  0  0  0  0  0  0  0  0  0  0
   39.9930   23.2200   36.6170 C   0  0  0  0  0  0  0  0  0  0  0  0
   40.7430   23.9610   35.7710 N   0  0  0  0  0  0  0  0  0  0  0  0
   42.0240   23.6210   35.4900 C   0  0  0  0  0  0  0  0  0  0  0  0
   42.5950   22.5170   36.0530 N   0  0  0  0  0  0  0  0  0  0  0  0
   42.4670   20.5420   37.5360 C   0  0  0  0  0  0  0  0  0  0  0  0
   43.2030   19.6740   36.5720 C   0  0  0  0  0  0  0  0  0  0  0  0
   38.3730   23.4100   38.3760 C   0  0  0  0  0  0  0  0  0  0  0  0
   38.3100   25.0390   36.5110 C   0  0  0  0  0  0  0  0  0  0  0  0
   37.6680   22.7120   36.1160 C   0  0  0  0  0  0  0  0  0  0  0  0
   37.9350   22.7140   34.7190 N   0  0  0  0  0  0  0  0  0  0  0  0
   38.4640   21.7420   33.9160 C   0  0  0  0  0  0  0  0  0  0  0  0
   38.5340   22.1950   32.6390 N   0  0  0  0  0  0  0  0  0  0  0  0
   38.0460   23.4550   32.6470 C   0  0  0  0  0  0  0  0  0  0  0  0
   37.6960   23.7400   33.8970 N   0  0  0  0  0  0  0  0  0  0  0  0
   37.9390   24.3020   31.4990 N   0  0  0  0  0  0  0  0  0  0  0  0
   39.9958   21.4566   37.8887 H   0  0  0  0  0  0  0  0  0  0  0  0
   42.6115   24.2432   34.7988 H   0  0  0  0  0  0  0  0  0  0  0  0
   43.1644   20.8603   38.3249 H   0  0  0  0  0  0  0  0  0  0  0  0
   41.6323   19.9512   37.9414 H   0  0  0  0  0  0  0  0  0  0  0  0
   43.8175   18.9493   37.1263 H   0  0  0  0  0  0  0  0  0  0  0  0
   42.4822   19.1354   35.9393 H   0  0  0  0  0  0  0  0  0  0  0  0
   43.8522   20.2971   35.9393 H   0  0  0  0  0  0  0  0  0  0  0  0
   39.0861   24.0108   38.9597 H   0  0  0  0  0  0  0  0  0  0  0  0
   37.3462   23.7193   38.6210 H   0  0  0  0  0  0  0  0  0  0  0  0
   38.5036   22.3456   38.6210 H   0  0  0  0  0  0  0  0  0  0  0  0
   38.1755   25.6394   37.4229 H   0  0  0  0  0  0  0  0  0  0  0  0
   39.1373   25.4547   35.9170 H   0  0  0  0  0  0  0  0  0  0  0  0
   37.3844   25.0620   35.9170 H   0  0  0  0  0  0  0  0  0  0  0  0
   37.7729   21.6850   36.4957 H   0  0  0  0  0  0  0  0  0  0  0  0
   36.6462   23.0905   36.2662 H   0  0  0  0  0  0  0  0  0  0  0  0
   38.7839   20.7452   34.2537 H   0  0  0  0  0  0  0  0  0  0  0  0
   37.5538   25.2525   31.5944 H   0  0  0  0  0  0  0  0  0  0  0  0
   38.2472   23.9613   30.5771 H   0  0  0  0  0  0  0  0  0  0  0  0
  1 10  1  0
  2  3  2  0
  2  8  1  0
  4  1  1  0
  4  3  1  0
  5  4  2  0
  6  5  1  0
  6  7  2  0
  7  2  1  0
  9  8  1  0
 11  1  1  0
 12  1  1  0
 13 12  1  0
 14 13  1  0
 15 16  1  0
 15 14  2  0
 16 17  2  0
 17 13  1  0
 18 16  1  0
  3 19  1  0
  6 20  1  0
  8 21  1  0
  8 22  1  0
  9 23  1  0
  9 24  1  0
  9 25  1  0
 10 26  1  0
 10 27  1  0
 10 28  1  0
 11 29  1  0
 11 30  1  0
 11 31  1  0
 12 32  1  0
 12 33  1  0
 14 34  1  0
 18 35  1  0
 18 36  1  0
M  ISO  8  19  14  20  14  21   8  22   8  23   8  24   8  25   8  26   8
M  ISO  8  27   8  28   8  29   8  30   8  31   8  32   8  33   8  34  14
M  END
>  <minimizedAffinity>  (1) 
-3.98047137

>  <minimizedRMSD>  (1) 
0.0204685591

$$$$
