
     RDKit          3D

 23 24  0  0  0  0  0  0  0  0999 V2000
   37.9250   26.2720   35.8190 C   0  0  0  0  0  0  0  0  0  0  0  0
   38.4450   26.9470   36.7350 O   0  0  0  0  0  0  0  0  0  0  0  0
   37.6780   26.9090   34.5140 C   0  0  0  0  0  0  0  0  0  0  0  0
   38.5740   26.6450   33.4820 C   0  0  0  0  0  0  0  0  0  0  0  0
   38.3420   27.2520   32.2350 C   0  0  0  0  0  0  0  0  0  0  0  0
   37.2530   28.0570   32.1270 N   0  0  0  0  0  0  0  0  0  0  0  0
   36.4180   28.2870   33.1350 C   0  0  0  0  0  0  0  0  0  0  0  0
   36.6180   27.7200   34.3340 N   0  0  0  0  0  0  0  0  0  0  0  0
   37.5720   24.9470   35.9920 O   0  0  0  0  0  0  0  0  0  0  0  0
   39.0330   22.8790   38.4380 N   0  0  0  0  0  0  0  0  0  0  0  0
   38.0990   23.7200   37.9980 N   0  0  0  0  0  0  0  0  0  0  0  0
   38.3960   24.0640   36.7130 C   0  0  0  0  0  0  0  0  0  0  0  0
   39.5590   23.4130   36.3340 C   0  0  0  0  0  0  0  0  0  0  0  0
   39.9140   22.6890   37.4440 C   0  0  0  0  0  0  0  0  0  0  0  0
   41.1230   21.8170   37.5120 C   0  0  0  0  0  0  0  0  0  0  0  0
   39.4375   25.9815   33.6373 H   0  0  0  0  0  0  0  0  0  0  0  0
   39.0149   27.0819   31.3816 H   0  0  0  0  0  0  0  0  0  0  0  0
   35.5531   28.9498   32.9843 H   0  0  0  0  0  0  0  0  0  0  0  0
   39.0721   22.4509   39.3740 H   0  0  0  0  0  0  0  0  0  0  0  0
   40.0783   23.4648   35.3657 H   0  0  0  0  0  0  0  0  0  0  0  0
   41.3817   21.6304   38.5647 H   0  0  0  0  0  0  0  0  0  0  0  0
   40.9138   20.8605   37.0107 H   0  0  0  0  0  0  0  0  0  0  0  0
   41.9646   22.3173   37.0107 H   0  0  0  0  0  0  0  0  0  0  0  0
  1  9  1  0
  1  2  2  0
  3  1  1  0
  4  3  2  0
  5  4  1  0
  6  5  2  0
  6  7  1  0
  7  8  2  0
  8  3  1  0
  9 12  1  0
 11 10  1  0
 12 11  2  0
 13 12  1  0
 13 14  2  0
 14 15  1  0
 14 10  1  0
  4 16  1  0
  5 17  1  0
  7 18  1  0
 10 19  1  0
 13 20  1  0
 15 21  1  0
 15 22  1  0
 15 23  1  0
M  ISO  8  16  14  17  14  18  14  19   9  20  14  21   8  22   8  23   8
M  END
>  <minimizedAffinity>  (1) 
-4.52917433

>  <minimizedRMSD>  (1) 
0.137345985

$$$$
