
     RDKit          3D

 38 41  0  0  0  0  0  0  0  0999 V2000
   37.8540   25.8770   36.1050 C   0  0  0  0  0  0  0  0  0  0  0  0
   38.3900   26.7410   36.8380 O   0  0  0  0  0  0  0  0  0  0  0  0
   37.4380   26.2520   34.7470 C   0  0  0  0  0  0  0  0  0  0  0  0
   37.5640   25.3180   33.7400 C   0  0  0  0  0  0  0  0  0  0  0  0
   37.1690   25.6770   32.4480 C   0  0  0  0  0  0  0  0  0  0  0  0
   36.6890   26.9230   32.2730 N   0  0  0  0  0  0  0  0  0  0  0  0
   36.5770   27.8030   33.2530 C   0  0  0  0  0  0  0  0  0  0  0  0
   36.9490   27.4830   34.5010 N   0  0  0  0  0  0  0  0  0  0  0  0
   36.0470   29.1600   33.0340 C   0  0  0  0  0  0  0  0  0  0  0  0
   36.0460   29.6920   31.7630 C   0  0  0  0  0  0  0  0  0  0  0  0
   35.5650   30.9690   31.4560 C   0  0  0  0  0  0  0  0  0  0  0  0
   35.0760   31.6870   32.5350 C   0  0  0  0  0  0  0  0  0  0  0  0
   35.0510   31.2070   33.8300 C   0  0  0  0  0  0  0  0  0  0  0  0
   35.5420   29.9280   34.0850 C   0  0  0  0  0  0  0  0  0  0  0  0
   37.6390   24.5770   36.5380 O   0  0  0  0  0  0  0  0  0  0  0  0
   39.8630   22.4850   38.3060 N   0  0  0  0  0  0  0  0  0  0  0  0
   38.7490   23.2090   38.1720 N   0  0  0  0  0  0  0  0  0  0  0  0
   38.7280   23.7610   36.9200 C   0  0  0  0  0  0  0  0  0  0  0  0
   39.8650   23.3730   36.2410 C   0  0  0  0  0  0  0  0  0  0  0  0
   40.5430   22.5800   37.1380 C   0  0  0  0  0  0  0  0  0  0  0  0
   41.8310   21.9350   36.8440 C   0  0  0  0  0  0  0  0  0  0  0  0
   42.8280   22.6620   36.2170 C   0  0  0  0  0  0  0  0  0  0  0  0
   43.9970   21.9760   35.9840 C   0  0  0  0  0  0  0  0  0  0  0  0
   44.2370   20.6890   36.3080 N   0  0  0  0  0  0  0  0  0  0  0  0
   43.2350   20.0120   36.9220 C   0  0  0  0  0  0  0  0  0  0  0  0
   42.0700   20.6500   37.1690 N   0  0  0  0  0  0  0  0  0  0  0  0
   37.9654   24.3153   33.9484 H   0  0  0  0  0  0  0  0  0  0  0  0
   37.2471   24.9705   31.6085 H   0  0  0  0  0  0  0  0  0  0  0  0
   36.4462   29.0775   30.9431 H   0  0  0  0  0  0  0  0  0  0  0  0
   35.5743   31.3734   30.4331 H   0  0  0  0  0  0  0  0  0  0  0  0
   34.6848   32.6983   32.3498 H   0  0  0  0  0  0  0  0  0  0  0  0
   34.6498   31.8246   34.6471 H   0  0  0  0  0  0  0  0  0  0  0  0
   35.5318   29.5257   35.1087 H   0  0  0  0  0  0  0  0  0  0  0  0
   40.1511   21.9542   39.1403 H   0  0  0  0  0  0  0  0  0  0  0  0
   40.1619   23.6376   35.2154 H   0  0  0  0  0  0  0  0  0  0  0  0
   42.6948   23.7143   35.9256 H   0  0  0  0  0  0  0  0  0  0  0  0
   44.8099   22.5270   35.4885 H   0  0  0  0  0  0  0  0  0  0  0  0
   43.3687   18.9600   37.2143 H   0  0  0  0  0  0  0  0  0  0  0  0
  1 15  1  0
  1  2  2  0
  3  1  1  0
  4  3  2  0
  5  4  1  0
  6  5  2  0
  6  7  1  0
  7  8  2  0
  8  3  1  0
  9  7  1  0
  9 14  1  0
 10  9  2  0
 11 10  1  0
 11 12  2  0
 12 13  1  0
 13 14  2  0
 15 18  1  0
 17 16  1  0
 18 17  2  0
 19 18  1  0
 19 20  2  0
 20 16  1  0
 21 20  1  0
 21 26  1  0
 22 21  2  0
 23 22  1  0
 23 24  2  0
 24 25  1  0
 25 26  2  0
  4 27  1  0
  5 28  1  0
 10 29  1  0
 11 30  1  0
 12 31  1  0
 13 32  1  0
 14 33  1  0
 16 34  1  0
 19 35  1  0
 22 36  1  0
 23 37  1  0
 25 38  1  0
M  ISO  8  27  14  28  14  29  14  30  14  31  14  32  14  33  14  34   9
M  ISO  4  35  14  36  14  37  14  38  14
M  END
>  <minimizedAffinity>  (1) 
-5.94618654

>  <minimizedRMSD>  (1) 
0.384666145

$$$$
