
     RDKit          3D

 35 38  0  0  0  0  0  0  0  0999 V2000
   39.6760   22.6110   38.2610 N   0  0  0  0  0  0  0  0  0  0  0  0
   38.5910   23.3760   38.1020 N   0  0  0  0  0  0  0  0  0  0  0  0
   38.6460   23.9750   36.8850 C   0  0  0  0  0  0  0  0  0  0  0  0
   39.8010   23.5860   36.2370 C   0  0  0  0  0  0  0  0  0  0  0  0
   40.4100   22.7380   37.1290 C   0  0  0  0  0  0  0  0  0  0  0  0
   41.7030   22.0630   36.8640 C   0  0  0  0  0  0  0  0  0  0  0  0
   42.7090   22.7530   36.2330 C   0  0  0  0  0  0  0  0  0  0  0  0
   43.8650   22.0470   36.0300 C   0  0  0  0  0  0  0  0  0  0  0  0
   44.0860   20.7620   36.3940 N   0  0  0  0  0  0  0  0  0  0  0  0
   43.0620   20.1250   37.0140 C   0  0  0  0  0  0  0  0  0  0  0  0
   41.9070   20.7850   37.2320 N   0  0  0  0  0  0  0  0  0  0  0  0
   37.6050   24.8400   36.4800 O   0  0  0  0  0  0  0  0  0  0  0  0
   37.8620   26.0070   35.8020 C   0  0  0  0  0  0  0  0  0  0  0  0
   38.4450   26.9680   36.3710 O   0  0  0  0  0  0  0  0  0  0  0  0
   37.4580   26.1480   34.4050 C   0  0  0  0  0  0  0  0  0  0  0  0
   37.6070   25.0610   33.5680 C   0  0  0  0  0  0  0  0  0  0  0  0
   37.2270   25.1680   32.2260 C   0  0  0  0  0  0  0  0  0  0  0  0
   36.7280   26.3580   31.8300 N   0  0  0  0  0  0  0  0  0  0  0  0
   36.5960   27.3890   32.6560 C   0  0  0  0  0  0  0  0  0  0  0  0
   36.9490   27.3180   33.9480 N   0  0  0  0  0  0  0  0  0  0  0  0
   36.0540   28.6010   32.1260 C   0  0  0  0  0  0  0  0  0  0  0  0
   36.4680   29.4880   31.1870 C   0  0  0  0  0  0  0  0  0  0  0  0
   35.7420   30.5920   30.8650 C   0  0  0  0  0  0  0  0  0  0  0  0
   34.5040   30.7360   31.5990 C   0  0  0  0  0  0  0  0  0  0  0  0
   34.5040   29.2300   32.7140 S   0  0  0  0  0  0  0  0  0  0  0  0
   39.9087   22.0368   39.0839 H   0  0  0  0  0  0  0  0  0  0  0  0
   40.1519   23.8856   35.2384 H   0  0  0  0  0  0  0  0  0  0  0  0
   42.5944   23.7992   35.9131 H   0  0  0  0  0  0  0  0  0  0  0  0
   44.6891   22.5722   35.5250 H   0  0  0  0  0  0  0  0  0  0  0  0
   43.1728   19.0791   37.3362 H   0  0  0  0  0  0  0  0  0  0  0  0
   38.0214   24.1176   33.9531 H   0  0  0  0  0  0  0  0  0  0  0  0
   37.3298   24.3241   31.5280 H   0  0  0  0  0  0  0  0  0  0  0  0
   37.4218   29.3086   30.6692 H   0  0  0  0  0  0  0  0  0  0  0  0
   36.0703   31.3179   30.1065 H   0  0  0  0  0  0  0  0  0  0  0  0
   33.7493   31.5325   31.5218 H   0  0  0  0  0  0  0  0  0  0  0  0
  2  1  1  0
  3  2  2  0
  4  3  1  0
  4  5  2  0
  5  1  1  0
  6  5  1  0
  6 11  1  0
  7  6  2  0
  8  7  1  0
  8  9  2  0
  9 10  1  0
 10 11  2  0
 12  3  1  0
 13 14  2  0
 13 12  1  0
 15 13  1  0
 16 15  2  0
 17 16  1  0
 18 17  2  0
 18 19  1  0
 19 20  2  0
 20 15  1  0
 21 19  1  0
 21 25  1  0
 22 21  2  0
 23 22  1  0
 23 24  2  0
 24 25  1  0
  1 26  1  0
  4 27  1  0
  7 28  1  0
  8 29  1  0
 10 30  1  0
 16 31  1  0
 17 32  1  0
 22 33  1  0
 23 34  1  0
 24 35  1  0
M  ISO  8  26   9  27  14  28  14  29  14  30  14  31  14  32  14  33  14
M  ISO  2  34  14  35  14
M  END
>  <minimizedAffinity>  (1) 
-5.73843193

>  <minimizedRMSD>  (1) 
0.771042883

$$$$
