
     RDKit          3D

 34 36  0  0  0  0  0  0  0  0999 V2000
   39.6660   22.6200   38.2330 N   0  0  0  0  0  0  0  0  0  0  0  0
   38.5770   23.3660   38.0710 N   0  0  0  0  0  0  0  0  0  0  0  0
   38.6080   23.9570   36.8480 C   0  0  0  0  0  0  0  0  0  0  0  0
   39.7590   23.5690   36.2110 C   0  0  0  0  0  0  0  0  0  0  0  0
   40.3920   22.7380   37.1040 C   0  0  0  0  0  0  0  0  0  0  0  0
   41.6860   22.0760   36.8430 C   0  0  0  0  0  0  0  0  0  0  0  0
   42.6940   22.7730   36.2220 C   0  0  0  0  0  0  0  0  0  0  0  0
   43.8640   22.0900   36.0150 C   0  0  0  0  0  0  0  0  0  0  0  0
   44.0930   20.8060   36.3710 N   0  0  0  0  0  0  0  0  0  0  0  0
   43.0630   20.1520   36.9850 C   0  0  0  0  0  0  0  0  0  0  0  0
   41.9080   20.8040   37.1980 N   0  0  0  0  0  0  0  0  0  0  0  0
   37.5570   24.8030   36.4390 O   0  0  0  0  0  0  0  0  0  0  0  0
   37.8160   26.0800   35.9820 C   0  0  0  0  0  0  0  0  0  0  0  0
   38.4680   26.9110   36.6680 O   0  0  0  0  0  0  0  0  0  0  0  0
   37.3260   26.4920   34.6640 C   0  0  0  0  0  0  0  0  0  0  0  0
   37.4680   25.5920   33.6040 C   0  0  0  0  0  0  0  0  0  0  0  0
   36.9980   25.9830   32.3420 C   0  0  0  0  0  0  0  0  0  0  0  0
   36.4420   27.2020   32.2460 N   0  0  0  0  0  0  0  0  0  0  0  0
   36.3160   28.0380   33.2560 C   0  0  0  0  0  0  0  0  0  0  0  0
   36.7520   27.7050   34.4840 N   0  0  0  0  0  0  0  0  0  0  0  0
   35.7080   29.3990   33.2050 C   0  0  0  0  0  0  0  0  0  0  0  0
   35.6170   29.9480   34.5980 C   0  0  0  0  0  0  0  0  0  0  0  0
   39.9081   22.0595   39.0625 H   0  0  0  0  0  0  0  0  0  0  0  0
   40.1004   23.8591   35.2064 H   0  0  0  0  0  0  0  0  0  0  0  0
   42.5691   23.8200   35.9087 H   0  0  0  0  0  0  0  0  0  0  0  0
   44.6835   22.6305   35.5188 H   0  0  0  0  0  0  0  0  0  0  0  0
   43.1778   19.1047   37.3011 H   0  0  0  0  0  0  0  0  0  0  0  0
   37.9342   24.6072   33.7551 H   0  0  0  0  0  0  0  0  0  0  0  0
   37.0811   25.3200   31.4682 H   0  0  0  0  0  0  0  0  0  0  0  0
   36.3353   30.0599   32.5888 H   0  0  0  0  0  0  0  0  0  0  0  0
   34.7022   29.3395   32.7635 H   0  0  0  0  0  0  0  0  0  0  0  0
   35.7522   29.1321   35.3232 H   0  0  0  0  0  0  0  0  0  0  0  0
   36.4021   30.7041   34.7461 H   0  0  0  0  0  0  0  0  0  0  0  0
   34.6300   30.4104   34.7461 H   0  0  0  0  0  0  0  0  0  0  0  0
  2  1  1  0
  3  2  2  0
  4  3  1  0
  4  5  2  0
  5  1  1  0
  6  5  1  0
  6 11  1  0
  7  6  2  0
  8  7  1  0
  8  9  2  0
  9 10  1  0
 10 11  2  0
 12  3  1  0
 13 12  1  0
 13 14  2  0
 15 13  1  0
 16 15  2  0
 17 16  1  0
 18 17  2  0
 18 19  1  0
 19 20  2  0
 20 15  1  0
 21 19  1  0
 21 22  1  0
  1 23  1  0
  4 24  1  0
  7 25  1  0
  8 26  1  0
 10 27  1  0
 16 28  1  0
 17 29  1  0
 21 30  1  0
 21 31  1  0
 22 32  1  0
 22 33  1  0
 22 34  1  0
M  ISO  8  23   9  24  14  25  14  26  14  27  14  28  14  29  14  30   8
M  ISO  4  31   8  32   8  33   8  34   8
M  END
>  <minimizedAffinity>  (1) 
-5.30763245

>  <minimizedRMSD>  (1) 
0.213528886

$$$$
