
     RDKit          3D

 31 33  0  0  0  0  0  0  0  0999 V2000
   39.6790   22.6110   38.2330 N   0  0  0  0  0  0  0  0  0  0  0  0
   38.5780   23.3630   38.0790 N   0  0  0  0  0  0  0  0  0  0  0  0
   38.6290   23.9470   36.8430 C   0  0  0  0  0  0  0  0  0  0  0  0
   39.7780   23.5550   36.2120 C   0  0  0  0  0  0  0  0  0  0  0  0
   40.4050   22.7300   37.1010 C   0  0  0  0  0  0  0  0  0  0  0  0
   41.7000   22.0640   36.8430 C   0  0  0  0  0  0  0  0  0  0  0  0
   42.7040   22.7590   36.2220 C   0  0  0  0  0  0  0  0  0  0  0  0
   43.8780   22.0640   36.0210 C   0  0  0  0  0  0  0  0  0  0  0  0
   44.0940   20.7870   36.3830 N   0  0  0  0  0  0  0  0  0  0  0  0
   43.0700   20.1350   36.9960 C   0  0  0  0  0  0  0  0  0  0  0  0
   41.9140   20.7950   37.2030 N   0  0  0  0  0  0  0  0  0  0  0  0
   37.5630   24.8010   36.4380 O   0  0  0  0  0  0  0  0  0  0  0  0
   37.8050   26.0690   35.9800 C   0  0  0  0  0  0  0  0  0  0  0  0
   38.4540   26.8790   36.6910 O   0  0  0  0  0  0  0  0  0  0  0  0
   37.3120   26.4940   34.6640 C   0  0  0  0  0  0  0  0  0  0  0  0
   37.4580   25.6120   33.6160 C   0  0  0  0  0  0  0  0  0  0  0  0
   36.9910   26.0110   32.3500 C   0  0  0  0  0  0  0  0  0  0  0  0
   36.4330   27.2300   32.2640 N   0  0  0  0  0  0  0  0  0  0  0  0
   36.3060   28.0660   33.2990 C   0  0  0  0  0  0  0  0  0  0  0  0
   36.7450   27.7120   34.5250 N   0  0  0  0  0  0  0  0  0  0  0  0
   35.6880   29.4190   33.2020 C   0  0  0  0  0  0  0  0  0  0  0  0
   39.9242   22.0483   39.0602 H   0  0  0  0  0  0  0  0  0  0  0  0
   40.1217   23.8420   35.2073 H   0  0  0  0  0  0  0  0  0  0  0  0
   42.5815   23.8049   35.9039 H   0  0  0  0  0  0  0  0  0  0  0  0
   44.7031   22.5964   35.5253 H   0  0  0  0  0  0  0  0  0  0  0  0
   43.1835   19.0889   37.3166 H   0  0  0  0  0  0  0  0  0  0  0  0
   37.9248   24.6270   33.7641 H   0  0  0  0  0  0  0  0  0  0  0  0
   37.0788   25.3551   31.4713 H   0  0  0  0  0  0  0  0  0  0  0  0
   35.5079   29.8132   34.2130 H   0  0  0  0  0  0  0  0  0  0  0  0
   36.3670   30.0943   32.6607 H   0  0  0  0  0  0  0  0  0  0  0  0
   34.7330   29.3480   32.6607 H   0  0  0  0  0  0  0  0  0  0  0  0
  2  1  1  0
  3  2  2  0
  4  3  1  0
  4  5  2  0
  5  1  1  0
  6  5  1  0
  6 11  1  0
  7  6  2  0
  8  7  1  0
  8  9  2  0
  9 10  1  0
 10 11  2  0
 12  3  1  0
 13 12  1  0
 13 14  2  0
 15 13  1  0
 16 15  2  0
 17 16  1  0
 18 17  2  0
 18 19  1  0
 19 20  2  0
 20 15  1  0
 21 19  1  0
  1 22  1  0
  4 23  1  0
  7 24  1  0
  8 25  1  0
 10 26  1  0
 16 27  1  0
 17 28  1  0
 21 29  1  0
 21 30  1  0
 21 31  1  0
M  ISO  8  22   9  23  14  24  14  25  14  26  14  27  14  28  14  29   8
M  ISO  2  30   8  31   8
M  END
>  <minimizedAffinity>  (1) 
-5.2354722

>  <minimizedRMSD>  (1) 
0.0360513479

$$$$
