
     RDKit          3D

 55 58  0  0  0  0  0  0  0  0999 V2000
   37.1700   26.8710   34.5840 C   0  0  0  0  0  0  0  0  0  0  0  0
   37.2260   26.1300   33.4150 C   0  0  0  0  0  0  0  0  0  0  0  0
   36.5780   26.6280   32.2610 C   0  0  0  0  0  0  0  0  0  0  0  0
   35.9430   27.8030   32.3870 N   0  0  0  0  0  0  0  0  0  0  0  0
   35.9000   28.5070   33.5250 C   0  0  0  0  0  0  0  0  0  0  0  0
   36.5100   28.0520   34.6320 N   0  0  0  0  0  0  0  0  0  0  0  0
   37.8430   26.3530   35.7740 C   0  0  0  0  0  0  0  0  0  0  0  0
   38.7040   27.0380   36.3440 O   0  0  0  0  0  0  0  0  0  0  0  0
   37.5030   25.1020   36.2390 O   0  0  0  0  0  0  0  0  0  0  0  0
   39.4160   22.8180   38.1430 N   0  0  0  0  0  0  0  0  0  0  0  0
   38.3700   23.6110   37.9200 N   0  0  0  0  0  0  0  0  0  0  0  0
   38.5000   24.2070   36.6990 C   0  0  0  0  0  0  0  0  0  0  0  0
   39.6650   23.7690   36.1480 C   0  0  0  0  0  0  0  0  0  0  0  0
   40.2130   22.9170   37.0500 C   0  0  0  0  0  0  0  0  0  0  0  0
   41.4920   22.1970   36.8660 C   0  0  0  0  0  0  0  0  0  0  0  0
   42.5450   22.8330   36.2210 C   0  0  0  0  0  0  0  0  0  0  0  0
   43.6910   22.0770   36.1040 C   0  0  0  0  0  0  0  0  0  0  0  0
   43.8710   20.8200   36.5460 N   0  0  0  0  0  0  0  0  0  0  0  0
   42.8040   20.2400   37.1730 C   0  0  0  0  0  0  0  0  0  0  0  0
   41.6710   20.9370   37.3080 N   0  0  0  0  0  0  0  0  0  0  0  0
   35.1540   29.8130   33.5460 C   0  0  0  0  0  0  0  0  0  0  0  0
   35.6950   30.5970   34.7130 C   0  0  0  0  0  0  0  0  0  0  0  0
   33.6950   29.4720   33.8410 C   0  0  0  0  0  0  0  0  0  0  0  0
   35.2380   30.5200   32.2300 C   0  0  0  0  0  0  0  0  0  0  0  0
   36.4360   31.1550   31.8850 N   0  0  0  0  0  0  0  0  0  0  0  0
   36.6040   32.5420   32.0430 C   0  0  0  0  0  0  0  0  0  0  0  0
   35.7010   33.3710   31.1410 C   0  0  0  0  0  0  0  0  0  0  0  0
   35.6000   32.6990   29.8070 C   0  0  0  0  0  0  0  0  0  0  0  0
   36.7590   31.7900   29.5390 C   0  0  0  0  0  0  0  0  0  0  0  0
   36.9150   30.7220   30.6020 C   0  0  0  0  0  0  0  0  0  0  0  0
   37.7648   25.1715   33.3849 H   0  0  0  0  0  0  0  0  0  0  0  0
   36.5938   26.0794   31.3077 H   0  0  0  0  0  0  0  0  0  0  0  0
   39.5863   22.2428   38.9803 H   0  0  0  0  0  0  0  0  0  0  0  0
   40.0789   24.0496   35.1682 H   0  0  0  0  0  0  0  0  0  0  0  0
   42.4699   23.8599   35.8339 H   0  0  0  0  0  0  0  0  0  0  0  0
   44.5454   22.5498   35.5976 H   0  0  0  0  0  0  0  0  0  0  0  0
   42.8764   19.2134   37.5614 H   0  0  0  0  0  0  0  0  0  0  0  0
   35.3704   30.1266   35.6528 H   0  0  0  0  0  0  0  0  0  0  0  0
   36.7941   30.6084   34.6692 H   0  0  0  0  0  0  0  0  0  0  0  0
   35.3156   31.6286   34.6692 H   0  0  0  0  0  0  0  0  0  0  0  0
   33.5398   29.4357   34.9294 H   0  0  0  0  0  0  0  0  0  0  0  0
   33.0427   30.2419   33.4031 H   0  0  0  0  0  0  0  0  0  0  0  0
   33.4515   28.4927   33.4031 H   0  0  0  0  0  0  0  0  0  0  0  0
   35.0293   29.7750   31.4481 H   0  0  0  0  0  0  0  0  0  0  0  0
   34.5152   31.3440   32.3223 H   0  0  0  0  0  0  0  0  0  0  0  0
   36.3843   32.8021   33.0890 H   0  0  0  0  0  0  0  0  0  0  0  0
   37.6419   32.7755   31.7634 H   0  0  0  0  0  0  0  0  0  0  0  0
   34.7006   33.4496   31.5916 H   0  0  0  0  0  0  0  0  0  0  0  0
   36.1209   34.3804   31.0192 H   0  0  0  0  0  0  0  0  0  0  0  0
   34.6728   32.1078   29.7781 H   0  0  0  0  0  0  0  0  0  0  0  0
   35.6014   33.4824   29.0348 H   0  0  0  0  0  0  0  0  0  0  0  0
   36.6057   31.3000   28.5662 H   0  0  0  0  0  0  0  0  0  0  0  0
   37.6727   32.4024   29.5432 H   0  0  0  0  0  0  0  0  0  0  0  0
   36.3471   29.8315   30.2946 H   0  0  0  0  0  0  0  0  0  0  0  0
   37.9879   30.5003   30.7010 H   0  0  0  0  0  0  0  0  0  0  0  0
  1  6  1  0
  1  7  1  0
  2  1  2  0
  3  4  2  0
  3  2  1  0
  4  5  1  0
  5 21  1  0
  5  6  2  0
  7  9  1  0
  7  8  2  0
  9 12  1  0
 11 10  1  0
 12 11  2  0
 13 12  1  0
 13 14  2  0
 14 10  1  0
 15 14  1  0
 15 20  1  0
 16 15  2  0
 17 16  1  0
 17 18  2  0
 18 19  1  0
 19 20  2  0
 21 23  1  0
 21 22  1  0
 24 21  1  0
 25 26  1  0
 25 24  1  0
 27 26  1  0
 28 27  1  0
 29 28  1  0
 29 30  1  0
 30 25  1  0
  2 31  1  0
  3 32  1  0
 10 33  1  0
 13 34  1  0
 16 35  1  0
 17 36  1  0
 19 37  1  0
 22 38  1  0
 22 39  1  0
 22 40  1  0
 23 41  1  0
 23 42  1  0
 23 43  1  0
 24 44  1  0
 24 45  1  0
 26 46  1  0
 26 47  1  0
 27 48  1  0
 27 49  1  0
 28 50  1  0
 28 51  1  0
 29 52  1  0
 29 53  1  0
 30 54  1  0
 30 55  1  0
M  ISO  8  31  14  32  14  33   9  34  14  35  14  36  14  37  14  38   8
M  ISO  8  39   8  40   8  41   8  42   8  43   8  44   8  45   8  46  13
M  ISO  8  47  13  48  13  49  13  50  13  51  13  52  13  53  13  54  13
M  ISO  1  55  13
M  END
>  <minimizedAffinity>  (1) 
-5.73735666

>  <minimizedRMSD>  (1) 
0.847064137

$$$$
