
     RDKit          3D

 46 49  0  0  0  0  0  0  0  0999 V2000
   37.1230   26.9220   34.5120 C   0  0  0  0  0  0  0  0  0  0  0  0
   37.2250   26.1760   33.3350 C   0  0  0  0  0  0  0  0  0  0  0  0
   36.5770   26.6630   32.1860 C   0  0  0  0  0  0  0  0  0  0  0  0
   35.9010   27.8180   32.3020 N   0  0  0  0  0  0  0  0  0  0  0  0
   35.8140   28.5120   33.4270 C   0  0  0  0  0  0  0  0  0  0  0  0
   36.4270   28.0750   34.5590 N   0  0  0  0  0  0  0  0  0  0  0  0
   37.7990   26.4100   35.7000 C   0  0  0  0  0  0  0  0  0  0  0  0
   38.6830   27.1110   36.2540 O   0  0  0  0  0  0  0  0  0  0  0  0
   37.4710   25.1870   36.1980 O   0  0  0  0  0  0  0  0  0  0  0  0
   39.3690   22.9050   38.1170 N   0  0  0  0  0  0  0  0  0  0  0  0
   38.3170   23.7040   37.8970 N   0  0  0  0  0  0  0  0  0  0  0  0
   38.4600   24.2880   36.6710 C   0  0  0  0  0  0  0  0  0  0  0  0
   39.6260   23.8450   36.1150 C   0  0  0  0  0  0  0  0  0  0  0  0
   40.1660   22.9930   37.0300 C   0  0  0  0  0  0  0  0  0  0  0  0
   41.4490   22.2690   36.8440 C   0  0  0  0  0  0  0  0  0  0  0  0
   42.4900   22.8980   36.2120 C   0  0  0  0  0  0  0  0  0  0  0  0
   43.6380   22.1410   36.0890 C   0  0  0  0  0  0  0  0  0  0  0  0
   43.8060   20.8760   36.5290 N   0  0  0  0  0  0  0  0  0  0  0  0
   42.7400   20.3030   37.1500 C   0  0  0  0  0  0  0  0  0  0  0  0
   41.5990   21.0060   37.2910 N   0  0  0  0  0  0  0  0  0  0  0  0
   35.0420   29.7780   33.4510 C   0  0  0  0  0  0  0  0  0  0  0  0
   34.3240   29.8580   34.7810 C   0  0  0  0  0  0  0  0  0  0  0  0
   33.9970   29.6910   32.3490 C   0  0  0  0  0  0  0  0  0  0  0  0
   35.9010   30.9940   33.2300 C   0  0  0  0  0  0  0  0  0  0  0  0
   36.1070   31.3040   31.8490 N   0  0  0  0  0  0  0  0  0  0  0  0
   35.4900   32.3750   31.2680 C   0  0  0  0  0  0  0  0  0  0  0  0
   35.8500   32.4540   29.9530 N   0  0  0  0  0  0  0  0  0  0  0  0
   36.6900   31.4140   29.7630 C   0  0  0  0  0  0  0  0  0  0  0  0
   36.8300   30.7430   30.8960 N   0  0  0  0  0  0  0  0  0  0  0  0
   37.7952   25.2357   33.3080 H   0  0  0  0  0  0  0  0  0  0  0  0
   36.6219   26.1199   31.2305 H   0  0  0  0  0  0  0  0  0  0  0  0
   39.5383   22.3320   38.9560 H   0  0  0  0  0  0  0  0  0  0  0  0
   40.0417   24.1188   35.1341 H   0  0  0  0  0  0  0  0  0  0  0  0
   42.4164   23.9276   35.8317 H   0  0  0  0  0  0  0  0  0  0  0  0
   44.4951   22.6124   35.5859 H   0  0  0  0  0  0  0  0  0  0  0  0
   42.8088   19.2744   37.5339 H   0  0  0  0  0  0  0  0  0  0  0  0
   35.0558   29.7765   35.5982 H   0  0  0  0  0  0  0  0  0  0  0  0
   33.7967   30.8205   34.8557 H   0  0  0  0  0  0  0  0  0  0  0  0
   33.5977   29.0352   34.8557 H   0  0  0  0  0  0  0  0  0  0  0  0
   32.9964   29.6077   32.7983 H   0  0  0  0  0  0  0  0  0  0  0  0
   34.0450   30.5962   31.7259 H   0  0  0  0  0  0  0  0  0  0  0  0
   34.1940   28.8061   31.7259 H   0  0  0  0  0  0  0  0  0  0  0  0
   35.4153   31.8555   33.7115 H   0  0  0  0  0  0  0  0  0  0  0  0
   36.8882   30.7756   33.6632 H   0  0  0  0  0  0  0  0  0  0  0  0
   34.8072   33.0683   31.7810 H   0  0  0  0  0  0  0  0  0  0  0  0
   37.1828   31.1626   28.8122 H   0  0  0  0  0  0  0  0  0  0  0  0
  1  6  1  0
  1  7  1  0
  2  1  2  0
  3  4  2  0
  3  2  1  0
  4  5  1  0
  5 21  1  0
  5  6  2  0
  7  9  1  0
  7  8  2  0
  9 12  1  0
 11 10  1  0
 12 11  2  0
 13 12  1  0
 13 14  2  0
 14 10  1  0
 15 14  1  0
 15 20  1  0
 16 15  2  0
 17 16  1  0
 17 18  2  0
 18 19  1  0
 19 20  2  0
 21 22  1  0
 23 21  1  0
 24 21  1  0
 25 24  1  0
 26 25  1  0
 27 26  2  0
 28 27  1  0
 28 29  2  0
 29 25  1  0
  2 30  1  0
  3 31  1  0
 10 32  1  0
 13 33  1  0
 16 34  1  0
 17 35  1  0
 19 36  1  0
 22 37  1  0
 22 38  1  0
 22 39  1  0
 23 40  1  0
 23 41  1  0
 23 42  1  0
 24 43  1  0
 24 44  1  0
 26 45  1  0
 28 46  1  0
M  ISO  8  30  14  31  14  32   9  33  14  34  14  35  14  36  14  37   8
M  ISO  8  38   8  39   8  40   8  41   8  42   8  43   8  44   8  45  14
M  ISO  1  46  14
M  END
>  <minimizedAffinity>  (1) 
-5.33819246

>  <minimizedRMSD>  (1) 
1.27377892

$$$$
