
     RDKit          3D

 41 43  0  0  0  0  0  0  0  0999 V2000
   37.2730   26.5690   34.6470 C   0  0  0  0  0  0  0  0  0  0  0  0
   37.4170   25.7140   33.5540 C   0  0  0  0  0  0  0  0  0  0  0  0
   36.8990   26.1280   32.3050 C   0  0  0  0  0  0  0  0  0  0  0  0
   36.2980   27.3320   32.2600 N   0  0  0  0  0  0  0  0  0  0  0  0
   36.1730   28.1290   33.3130 C   0  0  0  0  0  0  0  0  0  0  0  0
   36.6550   27.7760   34.5390 N   0  0  0  0  0  0  0  0  0  0  0  0
   37.8100   26.1330   35.9260 C   0  0  0  0  0  0  0  0  0  0  0  0
   38.5000   26.9290   36.6080 O   0  0  0  0  0  0  0  0  0  0  0  0
   37.5650   24.8730   36.3750 O   0  0  0  0  0  0  0  0  0  0  0  0
   39.6310   22.6590   38.1880 N   0  0  0  0  0  0  0  0  0  0  0  0
   38.5460   23.4180   38.0220 N   0  0  0  0  0  0  0  0  0  0  0  0
   38.6070   24.0110   36.7950 C   0  0  0  0  0  0  0  0  0  0  0  0
   39.7640   23.6190   36.1610 C   0  0  0  0  0  0  0  0  0  0  0  0
   40.3770   22.7800   37.0550 C   0  0  0  0  0  0  0  0  0  0  0  0
   41.6640   22.1050   36.8160 C   0  0  0  0  0  0  0  0  0  0  0  0
   42.6900   22.8110   36.2020 C   0  0  0  0  0  0  0  0  0  0  0  0
   43.8600   22.1130   36.0150 C   0  0  0  0  0  0  0  0  0  0  0  0
   44.0720   20.8240   36.3770 N   0  0  0  0  0  0  0  0  0  0  0  0
   43.0350   20.1680   36.9780 C   0  0  0  0  0  0  0  0  0  0  0  0
   41.8750   20.8250   37.1760 N   0  0  0  0  0  0  0  0  0  0  0  0
   35.4880   29.4480   33.1600 C   0  0  0  0  0  0  0  0  0  0  0  0
   35.5950   30.1810   34.4810 C   0  0  0  0  0  0  0  0  0  0  0  0
   34.0410   29.1760   32.8350 C   0  0  0  0  0  0  0  0  0  0  0  0
   36.1150   30.2700   32.0430 C   0  0  0  0  0  0  0  0  0  0  0  0
   35.2140   31.8560   31.9430 S   0  0  0  0  0  0  0  0  0  0  0  0
   37.9209   24.7421   33.6611 H   0  0  0  0  0  0  0  0  0  0  0  0
   36.9833   25.4944   31.4098 H   0  0  0  0  0  0  0  0  0  0  0  0
   39.8605   22.0901   39.0154 H   0  0  0  0  0  0  0  0  0  0  0  0
   40.1173   23.9129   35.1616 H   0  0  0  0  0  0  0  0  0  0  0  0
   42.5746   23.8584   35.8863 H   0  0  0  0  0  0  0  0  0  0  0  0
   44.6928   22.6447   35.5316 H   0  0  0  0  0  0  0  0  0  0  0  0
   43.1451   19.1205   37.2951 H   0  0  0  0  0  0  0  0  0  0  0  0
   35.4902   29.4634   35.3081 H   0  0  0  0  0  0  0  0  0  0  0  0
   36.5750   30.6763   34.5472 H   0  0  0  0  0  0  0  0  0  0  0  0
   34.7975   30.9357   34.5472 H   0  0  0  0  0  0  0  0  0  0  0  0
   33.4694   29.0686   33.7687 H   0  0  0  0  0  0  0  0  0  0  0  0
   33.6330   30.0132   32.2496 H   0  0  0  0  0  0  0  0  0  0  0  0
   33.9649   28.2478   32.2496 H   0  0  0  0  0  0  0  0  0  0  0  0
   37.1761   30.4559   32.2656 H   0  0  0  0  0  0  0  0  0  0  0  0
   36.0505   29.7306   31.0865 H   0  0  0  0  0  0  0  0  0  0  0  0
   34.9538   32.3139   33.2077 H   0  0  0  0  0  0  0  0  0  0  0  0
  1  7  1  0
  2  1  2  0
  3  2  1  0
  4  3  2  0
  4  5  1  0
  5  6  2  0
  6  1  1  0
  7  9  1  0
  7  8  2  0
  9 12  1  0
 11 10  1  0
 12 11  2  0
 13 12  1  0
 13 14  2  0
 14 10  1  0
 15 14  1  0
 15 20  1  0
 16 15  2  0
 17 16  1  0
 17 18  2  0
 18 19  1  0
 19 20  2  0
 21  5  1  0
 21 22  1  0
 23 21  1  0
 24 21  1  0
 25 24  1  0
  2 26  1  0
  3 27  1  0
 10 28  1  0
 13 29  1  0
 16 30  1  0
 17 31  1  0
 19 32  1  0
 22 33  1  0
 22 34  1  0
 22 35  1  0
 23 36  1  0
 23 37  1  0
 23 38  1  0
 24 39  1  0
 24 40  1  0
 25 41  1  0
M  ISO  8  26  14  27  14  28   9  29  14  30  14  31  14  32  14  33   8
M  ISO  8  34   8  35   8  36   8  37   8  38   8  39   8  40   8  41  11
M  END
>  <minimizedAffinity>  (1) 
-5.44834948

>  <minimizedRMSD>  (1) 
0.011306935

$$$$
