
     RDKit          3D

 44 46  0  0  0  0  0  0  0  0999 V2000
   37.1720   26.6220   34.2750 C   0  0  0  0  0  0  0  0  0  0  0  0
   37.2110   25.6360   33.3030 C   0  0  0  0  0  0  0  0  0  0  0  0
   36.6020   25.9070   32.0620 C   0  0  0  0  0  0  0  0  0  0  0  0
   36.0230   27.1040   31.8960 N   0  0  0  0  0  0  0  0  0  0  0  0
   35.9970   28.0460   32.8510 C   0  0  0  0  0  0  0  0  0  0  0  0
   36.5770   27.8080   34.0550 N   0  0  0  0  0  0  0  0  0  0  0  0
   37.8060   26.3370   35.5640 C   0  0  0  0  0  0  0  0  0  0  0  0
   38.6530   27.1390   36.0140 O   0  0  0  0  0  0  0  0  0  0  0  0
   37.4620   25.2040   36.2520 O   0  0  0  0  0  0  0  0  0  0  0  0
   39.3650   22.8920   38.1420 N   0  0  0  0  0  0  0  0  0  0  0  0
   38.3190   23.6940   37.9320 N   0  0  0  0  0  0  0  0  0  0  0  0
   38.4520   24.2990   36.7100 C   0  0  0  0  0  0  0  0  0  0  0  0
   39.6050   23.8620   36.1500 C   0  0  0  0  0  0  0  0  0  0  0  0
   40.1440   23.0010   37.0480 C   0  0  0  0  0  0  0  0  0  0  0  0
   41.4300   22.2710   36.8550 C   0  0  0  0  0  0  0  0  0  0  0  0
   42.4720   22.9140   36.2090 C   0  0  0  0  0  0  0  0  0  0  0  0
   43.6250   22.1700   36.0710 C   0  0  0  0  0  0  0  0  0  0  0  0
   43.7930   20.9000   36.5080 N   0  0  0  0  0  0  0  0  0  0  0  0
   42.7420   20.3170   37.1330 C   0  0  0  0  0  0  0  0  0  0  0  0
   41.5910   21.0110   37.2910 N   0  0  0  0  0  0  0  0  0  0  0  0
   35.3330   29.3510   32.5890 C   0  0  0  0  0  0  0  0  0  0  0  0
   35.9030   30.3560   33.5500 C   0  0  0  0  0  0  0  0  0  0  0  0
   33.8540   29.1580   32.8500 C   0  0  0  0  0  0  0  0  0  0  0  0
   35.5570   29.7870   31.1410 C   0  0  0  0  0  0  0  0  0  0  0  0
   36.9370   29.8780   30.9740 O   0  0  0  0  0  0  0  0  0  0  0  0
   37.6260   29.4340   29.8650 C   0  0  0  0  0  0  0  0  0  0  0  0
   38.6250   30.0480   29.4410 O   0  0  0  0  0  0  0  0  0  0  0  0
   37.1960   28.2720   29.2030 O   0  0  0  0  0  0  0  0  0  0  0  0
   37.7026   24.6707   33.4943 H   0  0  0  0  0  0  0  0  0  0  0  0
   36.6018   25.1597   31.2548 H   0  0  0  0  0  0  0  0  0  0  0  0
   39.5410   22.3081   38.9721 H   0  0  0  0  0  0  0  0  0  0  0  0
   40.0180   24.1463   35.1709 H   0  0  0  0  0  0  0  0  0  0  0  0
   42.3865   23.9441   35.8329 H   0  0  0  0  0  0  0  0  0  0  0  0
   44.4770   22.6473   35.5648 H   0  0  0  0  0  0  0  0  0  0  0  0
   42.8236   19.2867   37.5095 H   0  0  0  0  0  0  0  0  0  0  0  0
   35.7149   30.0243   34.5818 H   0  0  0  0  0  0  0  0  0  0  0  0
   36.9869   30.4465   33.3858 H   0  0  0  0  0  0  0  0  0  0  0  0
   35.4244   31.3327   33.3858 H   0  0  0  0  0  0  0  0  0  0  0  0
   33.6731   29.1344   33.9348 H   0  0  0  0  0  0  0  0  0  0  0  0
   33.2910   29.9903   32.4024 H   0  0  0  0  0  0  0  0  0  0  0  0
   33.5234   28.2091   32.4024 H   0  0  0  0  0  0  0  0  0  0  0  0
   35.1370   29.0424   30.4488 H   0  0  0  0  0  0  0  0  0  0  0  0
   35.0624   30.7464   30.9291 H   0  0  0  0  0  0  0  0  0  0  0  0
   37.6851   27.9466   28.4061 H   0  0  0  0  0  0  0  0  0  0  0  0
  1  7  1  0
  2  1  2  0
  3  2  1  0
  4  3  2  0
  4  5  1  0
  5  6  2  0
  6  1  1  0
  7  8  2  0
  7  9  1  0
  9 12  1  0
 11 10  1  0
 12 11  2  0
 13 12  1  0
 13 14  2  0
 14 10  1  0
 15 14  1  0
 15 20  1  0
 16 15  2  0
 17 16  1  0
 17 18  2  0
 18 19  1  0
 19 20  2  0
 21 23  1  0
 21  5  1  0
 21 22  1  0
 24 21  1  0
 25 24  1  0
 26 25  1  0
 27 26  2  0
 28 26  1  0
  2 29  1  0
  3 30  1  0
 10 31  1  0
 13 32  1  0
 16 33  1  0
 17 34  1  0
 19 35  1  0
 22 36  1  0
 22 37  1  0
 22 38  1  0
 23 39  1  0
 23 40  1  0
 23 41  1  0
 24 42  1  0
 24 43  1  0
 28 44  1  0
M  ISO  8  29  14  30  14  31   9  32  14  33  14  34  14  35  14  36   8
M  ISO  8  37   8  38   8  39   8  40   8  41   8  42   8  43   8  44   3
M  END
>  <minimizedAffinity>  (1) 
-5.41312742

>  <minimizedRMSD>  (1) 
0.439281523

$$$$
