
     RDKit          3D

 21 22  0  0  0  0  0  0  0  0999 V2000
   36.4710   21.3590   33.8390 C   0  0  0  0  0  0  0  0  0  0  0  0
   36.7320   22.2160   32.7370 C   0  0  0  0  0  0  0  0  0  0  0  0
   37.7450   23.1550   32.8410 C   0  0  0  0  0  0  0  0  0  0  0  0
   38.4500   23.2030   34.0200 N   0  0  0  0  0  0  0  0  0  0  0  0
   38.1720   22.3710   35.0430 C   0  0  0  0  0  0  0  0  0  0  0  0
   37.2020   21.4670   34.9560 N   0  0  0  0  0  0  0  0  0  0  0  0
   38.9820   22.5170   36.2130 N   0  0  0  0  0  0  0  0  0  0  0  0
   40.1010   21.8480   36.1460 N   0  0  0  0  0  0  0  0  0  0  0  0
   40.7780   22.0700   37.3150 C   0  0  0  0  0  0  0  0  0  0  0  0
   40.0320   22.9080   38.1190 C   0  0  0  0  0  0  0  0  0  0  0  0
   38.9080   23.1680   37.3920 C   0  0  0  0  0  0  0  0  0  0  0  0
   35.4330   20.4120   33.7080 N   0  0  0  0  0  0  0  0  0  0  0  0
   37.7640   23.9710   37.6920 C   0  0  0  0  0  0  0  0  0  0  0  0
   37.8260   24.6980   38.7150 O   0  0  0  0  0  0  0  0  0  0  0  0
   36.1384   22.1353   31.8144 H   0  0  0  0  0  0  0  0  0  0  0  0
   37.9769   23.8376   32.0101 H   0  0  0  0  0  0  0  0  0  0  0  0
   41.7605   21.6476   37.5726 H   0  0  0  0  0  0  0  0  0  0  0  0
   40.2870   23.2822   39.1215 H   0  0  0  0  0  0  0  0  0  0  0  0
   34.8921   20.3585   32.8331 H   0  0  0  0  0  0  0  0  0  0  0  0
   35.2163   19.7743   34.4873 H   0  0  0  0  0  0  0  0  0  0  0  0
   36.8677   23.9532   37.0545 H   0  0  0  0  0  0  0  0  0  0  0  0
  1  6  2  0
  2  3  2  0
  2  1  1  0
  3  4  1  0
  4  5  2  0
  5  7  1  0
  6  5  1  0
  7 11  1  0
  8  7  1  0
  8  9  2  0
  9 10  1  0
 11 13  1  0
 11 10  2  0
 12  1  1  0
 13 14  2  0
  2 15  1  0
  3 16  1  0
  9 17  1  0
 10 18  1  0
 12 19  1  0
 12 20  1  0
 13 21  1  0
M  ISO  5  15  14  16  14  17  14  18  14  21   6
M  END
>  <minimizedAffinity>  (1) 
-4.08088732

>  <minimizedRMSD>  (1) 
0.843772233

$$$$
