
     RDKit          3D

 31 33  0  0  0  0  0  0  0  0999 V2000
   38.5910   23.2000   31.4100 C   0  0  0  0  0  0  0  0  0  0  0  0
   38.4590   24.5080   30.9320 C   0  0  0  0  0  0  0  0  0  0  0  0
   39.1680   25.5240   31.5580 C   0  0  0  0  0  0  0  0  0  0  0  0
   39.9600   25.1660   32.6200 N   0  0  0  0  0  0  0  0  0  0  0  0
   40.0620   23.9070   33.0500 C   0  0  0  0  0  0  0  0  0  0  0  0
   39.3890   22.9180   32.4610 N   0  0  0  0  0  0  0  0  0  0  0  0
   40.9250   23.6760   34.1680 N   0  0  0  0  0  0  0  0  0  0  0  0
   42.1690   23.5250   33.8410 N   0  0  0  0  0  0  0  0  0  0  0  0
   42.8950   23.3110   34.9810 C   0  0  0  0  0  0  0  0  0  0  0  0
   42.0350   23.3380   36.0380 C   0  0  0  0  0  0  0  0  0  0  0  0
   40.7920   23.5700   35.5090 C   0  0  0  0  0  0  0  0  0  0  0  0
   37.8650   22.1440   30.7740 N   0  0  0  0  0  0  0  0  0  0  0  0
   39.4350   23.7190   36.0410 C   0  0  0  0  0  0  0  0  0  0  0  0
   38.5960   24.7340   36.1290 N   0  0  0  0  0  0  0  0  0  0  0  0
   37.4800   24.3970   36.6880 O   0  0  0  0  0  0  0  0  0  0  0  0
   37.5970   23.1020   36.9780 C   0  0  0  0  0  0  0  0  0  0  0  0
   38.8110   22.6530   36.5840 N   0  0  0  0  0  0  0  0  0  0  0  0
   36.6250   22.2410   37.6130 N   0  0  0  0  0  0  0  0  0  0  0  0
   35.8550   21.2600   36.9020 C   0  0  0  0  0  0  0  0  0  0  0  0
   36.0650   21.2630   35.6260 N   0  0  0  0  0  0  0  0  0  0  0  0
   34.9960   20.4590   37.7310 N   0  0  0  0  0  0  0  0  0  0  0  0
   35.5220   20.5620   35.0700 H   0  0  0  0  0  0  0  0  0  0  0  0
   37.8050   24.7275   30.0752 H   0  0  0  0  0  0  0  0  0  0  0  0
   39.0982   26.5680   31.2185 H   0  0  0  0  0  0  0  0  0  0  0  0
   43.9813   23.1462   35.0348 H   0  0  0  0  0  0  0  0  0  0  0  0
   42.2872   23.2014   37.0999 H   0  0  0  0  0  0  0  0  0  0  0  0
   37.2536   22.3502   29.9712 H   0  0  0  0  0  0  0  0  0  0  0  0
   37.9537   21.1775   31.1190 H   0  0  0  0  0  0  0  0  0  0  0  0
   36.4772   22.3362   38.6279 H   0  0  0  0  0  0  0  0  0  0  0  0
   34.4058   19.7290   37.3072 H   0  0  0  0  0  0  0  0  0  0  0  0
   34.9708   20.6151   38.7488 H   0  0  0  0  0  0  0  0  0  0  0  0
  1  6  2  0
  2  1  1  0
  2  3  2  0
  3  4  1  0
  4  5  2  0
  5  7  1  0
  6  5  1  0
  7 11  1  0
  8  7  1  0
  8  9  2  0
  9 10  1  0
 11 10  2  0
 11 13  1  0
 12  1  1  0
 13 14  2  0
 13 17  1  0
 14 15  1  0
 15 16  1  0
 16 18  1  0
 17 16  2  0
 19 18  1  0
 19 21  1  0
 20 19  2  0
 22 20  1  0
  2 23  1  0
  3 24  1  0
  9 25  1  0
 10 26  1  0
 12 27  1  0
 12 28  1  0
 18 29  1  0
 21 30  1  0
 21 31  1  0
M  ISO  4  23  14  24  14  25  14  26  14
M  END
>  <minimizedAffinity>  (1) 
-5.06964064

>  <minimizedRMSD>  (1) 
5.16187239

$$$$
