
     RDKit          3D

 30 33  0  0  0  0  0  0  0  0999 V2000
   36.7350   21.3870   30.8900 C   0  0  0  0  0  0  0  0  0  0  0  0
   35.5020   21.9360   31.2330 C   0  0  0  0  0  0  0  0  0  0  0  0
   35.4370   23.3020   31.5280 C   0  0  0  0  0  0  0  0  0  0  0  0
   36.6080   24.0140   31.4580 N   0  0  0  0  0  0  0  0  0  0  0  0
   37.7650   23.4470   31.1260 C   0  0  0  0  0  0  0  0  0  0  0  0
   37.8560   22.1350   30.8370 N   0  0  0  0  0  0  0  0  0  0  0  0
   38.9140   24.2930   31.0880 N   0  0  0  0  0  0  0  0  0  0  0  0
   39.0630   24.9370   29.9720 N   0  0  0  0  0  0  0  0  0  0  0  0
   40.1780   25.7090   30.0360 C   0  0  0  0  0  0  0  0  0  0  0  0
   40.7360   25.5230   31.2610 C   0  0  0  0  0  0  0  0  0  0  0  0
   39.9320   24.6240   31.9240 C   0  0  0  0  0  0  0  0  0  0  0  0
   36.7940   19.9960   30.5920 N   0  0  0  0  0  0  0  0  0  0  0  0
   39.9190   23.9820   33.2390 C   0  0  0  0  0  0  0  0  0  0  0  0
   40.4910   22.8810   33.6990 N   0  0  0  0  0  0  0  0  0  0  0  0
   40.1840   22.7110   34.9640 O   0  0  0  0  0  0  0  0  0  0  0  0
   39.4020   23.7320   35.2990 C   0  0  0  0  0  0  0  0  0  0  0  0
   39.2030   24.5630   34.2490 N   0  0  0  0  0  0  0  0  0  0  0  0
   38.8650   23.8850   36.6190 N   0  0  0  0  0  0  0  0  0  0  0  0
   39.4640   23.0960   37.5570 C   0  0  0  0  0  0  0  0  0  0  0  0
   38.8900   23.3150   38.7540 N   0  0  0  0  0  0  0  0  0  0  0  0
   37.9390   24.2400   38.5400 C   0  0  0  0  0  0  0  0  0  0  0  0
   37.9240   24.5920   37.2230 N   0  0  0  0  0  0  0  0  0  0  0  0
   34.5988   21.3092   31.2712 H   0  0  0  0  0  0  0  0  0  0  0  0
   34.4879   23.7846   31.8042 H   0  0  0  0  0  0  0  0  0  0  0  0
   40.5603   26.3658   29.2407 H   0  0  0  0  0  0  0  0  0  0  0  0
   41.6503   25.9976   31.6468 H   0  0  0  0  0  0  0  0  0  0  0  0
   37.6921   19.5620   30.3351 H   0  0  0  0  0  0  0  0  0  0  0  0
   35.9386   19.4237   30.6333 H   0  0  0  0  0  0  0  0  0  0  0  0
   40.2868   22.3916   37.3649 H   0  0  0  0  0  0  0  0  0  0  0  0
   37.2723   24.6516   39.3121 H   0  0  0  0  0  0  0  0  0  0  0  0
  1  2  2  0
  2  3  1  0
  4  3  2  0
  5  4  1  0
  6  1  1  0
  6  5  2  0
  7  5  1  0
  7 11  1  0
  8  9  2  0
  8  7  1  0
  9 10  1  0
 10 11  2  0
 11 13  1  0
 12  1  1  0
 13 14  2  0
 13 17  1  0
 14 15  1  0
 15 16  1  0
 16 18  1  0
 17 16  2  0
 18 22  1  0
 18 19  1  0
 19 20  2  0
 21 20  1  0
 22 21  2  0
  2 23  1  0
  3 24  1  0
  9 25  1  0
 10 26  1  0
 12 27  1  0
 12 28  1  0
 19 29  1  0
 21 30  1  0
M  ISO  6  23  14  24  14  25  14  26  14  29  14  30  14
M  END
>  <minimizedAffinity>  (1) 
-4.97852325

>  <minimizedRMSD>  (1) 
6.60788155

$$$$
