
     RDKit          3D

 25 27  0  0  0  0  0  0  0  0999 V2000
   36.7840   19.6670   31.6710 C   0  0  0  0  0  0  0  0  0  0  0  0
   35.4430   19.4640   32.0040 C   0  0  0  0  0  0  0  0  0  0  0  0
   34.6800   20.5620   32.3730 C   0  0  0  0  0  0  0  0  0  0  0  0
   35.2890   21.7880   32.3910 N   0  0  0  0  0  0  0  0  0  0  0  0
   36.5850   21.9370   32.0620 C   0  0  0  0  0  0  0  0  0  0  0  0
   37.3410   20.8900   31.7010 N   0  0  0  0  0  0  0  0  0  0  0  0
   37.1110   23.2690   32.1160 N   0  0  0  0  0  0  0  0  0  0  0  0
   36.8920   23.9570   31.0400 N   0  0  0  0  0  0  0  0  0  0  0  0
   37.4260   25.1910   31.1960 C   0  0  0  0  0  0  0  0  0  0  0  0
   37.9960   25.2530   32.4220 C   0  0  0  0  0  0  0  0  0  0  0  0
   37.7910   24.0210   33.0060 C   0  0  0  0  0  0  0  0  0  0  0  0
   37.5690   18.5410   31.2920 N   0  0  0  0  0  0  0  0  0  0  0  0
   38.1200   23.3870   34.2790 C   0  0  0  0  0  0  0  0  0  0  0  0
   38.6010   22.1980   34.5930 N   0  0  0  0  0  0  0  0  0  0  0  0
   38.7290   22.0870   35.8910 O   0  0  0  0  0  0  0  0  0  0  0  0
   38.3210   23.2250   36.4050 C   0  0  0  0  0  0  0  0  0  0  0  0
   37.9230   24.0910   35.4360 N   0  0  0  0  0  0  0  0  0  0  0  0
   38.3450   23.4670   38.1780 S   0  0  0  0  0  0  0  0  0  0  0  0
   35.0021   18.4567   31.9743 H   0  0  0  0  0  0  0  0  0  0  0  0
   33.6193   20.4512   32.6426 H   0  0  0  0  0  0  0  0  0  0  0  0
   37.4010   26.0031   30.4545 H   0  0  0  0  0  0  0  0  0  0  0  0
   38.5184   26.1142   32.8641 H   0  0  0  0  0  0  0  0  0  0  0  0
   37.1454   17.6025   31.2679 H   0  0  0  0  0  0  0  0  0  0  0  0
   38.5604   18.6651   31.0419 H   0  0  0  0  0  0  0  0  0  0  0  0
   38.2248   22.2553   38.8059 H   0  0  0  0  0  0  0  0  0  0  0  0
  1  6  2  0
  1  2  1  0
  2  3  2  0
  3  4  1  0
  5  7  1  0
  5  4  2  0
  6  5  1  0
  7 11  1  0
  8  9  2  0
  8  7  1  0
  9 10  1  0
 10 11  2  0
 11 13  1  0
 12  1  1  0
 13 14  2  0
 13 17  1  0
 14 15  1  0
 15 16  1  0
 16 18  1  0
 17 16  2  0
  2 19  1  0
  3 20  1  0
  9 21  1  0
 10 22  1  0
 12 23  1  0
 12 24  1  0
 18 25  1  0
M  ISO  5  19  14  20  14  21  14  22  14  25  11
M  END
>  <minimizedAffinity>  (1) 
-4.48460436

>  <minimizedRMSD>  (1) 
4.84250927

$$$$
