
     RDKit          3D

 31 34  0  0  0  0  0  0  0  0999 V2000
   38.0370   23.5740   30.8990 C   0  0  0  0  0  0  0  0  0  0  0  0
   36.7470   24.1320   30.9490 C   0  0  0  0  0  0  0  0  0  0  0  0
   36.5680   25.3400   31.5890 C   0  0  0  0  0  0  0  0  0  0  0  0
   37.6710   25.9360   32.1450 N   0  0  0  0  0  0  0  0  0  0  0  0
   38.8830   25.3750   32.0770 C   0  0  0  0  0  0  0  0  0  0  0  0
   39.0790   24.2050   31.4630 N   0  0  0  0  0  0  0  0  0  0  0  0
   39.9520   26.0940   32.6960 N   0  0  0  0  0  0  0  0  0  0  0  0
   40.4740   27.0120   31.9360 N   0  0  0  0  0  0  0  0  0  0  0  0
   41.4750   27.6300   32.6150 C   0  0  0  0  0  0  0  0  0  0  0  0
   41.5630   27.0630   33.8410 C   0  0  0  0  0  0  0  0  0  0  0  0
   40.5910   26.0840   33.8900 C   0  0  0  0  0  0  0  0  0  0  0  0
   38.2310   22.3230   30.2390 N   0  0  0  0  0  0  0  0  0  0  0  0
   40.1240   25.1050   34.8650 C   0  0  0  0  0  0  0  0  0  0  0  0
   40.5710   23.9040   35.2220 N   0  0  0  0  0  0  0  0  0  0  0  0
   39.8220   23.3930   36.1500 O   0  0  0  0  0  0  0  0  0  0  0  0
   38.8720   24.2920   36.3910 C   0  0  0  0  0  0  0  0  0  0  0  0
   39.0140   25.3870   35.6110 N   0  0  0  0  0  0  0  0  0  0  0  0
   37.7560   24.1630   37.3900 C   0  0  0  0  0  0  0  0  0  0  0  0
   37.8790   24.7560   38.7420 C   0  0  0  0  0  0  0  0  0  0  0  0
   37.9650   23.2470   38.5670 C   0  0  0  0  0  0  0  0  0  0  0  0
   35.8950   23.6133   30.4852 H   0  0  0  0  0  0  0  0  0  0  0  0
   35.5751   25.8094   31.6515 H   0  0  0  0  0  0  0  0  0  0  0  0
   42.1042   28.4483   32.2350 H   0  0  0  0  0  0  0  0  0  0  0  0
   42.2697   27.3298   34.6406 H   0  0  0  0  0  0  0  0  0  0  0  0
   39.1709   21.9039   30.1956 H   0  0  0  0  0  0  0  0  0  0  0  0
   37.4311   21.8395   29.8063 H   0  0  0  0  0  0  0  0  0  0  0  0
   37.0069   24.2579   36.5901 H   0  0  0  0  0  0  0  0  0  0  0  0
   38.7780   25.3302   39.0105 H   0  0  0  0  0  0  0  0  0  0  0  0
   37.2633   25.4334   39.3520 H   0  0  0  0  0  0  0  0  0  0  0  0
   37.1468   22.6012   38.9183 H   0  0  0  0  0  0  0  0  0  0  0  0
   38.6903   22.4647   38.8351 H   0  0  0  0  0  0  0  0  0  0  0  0
  1  2  2  0
  1  6  1  0
  2  3  1  0
  3  4  2  0
  5  4  1  0
  5  7  1  0
  6  5  2  0
  7 11  1  0
  8  9  2  0
  8  7  1  0
  9 10  1  0
 10 11  2  0
 11 13  1  0
 12  1  1  0
 13 14  2  0
 13 17  1  0
 14 15  1  0
 15 16  1  0
 16 18  1  0
 17 16  2  0
 18 20  1  0
 18 19  1  0
 20 19  1  0
  2 21  1  0
  3 22  1  0
  9 23  1  0
 10 24  1  0
 12 25  1  0
 12 26  1  0
 18 27  1  0
 19 28  1  0
 19 29  1  0
 20 30  1  0
 20 31  1  0
M  ISO  8  21  14  22  14  23  14  24  14  27  13  28  13  29  13  30  13
M  ISO  1  31  13
M  END
>  <minimizedAffinity>  (1) 
-4.5436306

>  <minimizedRMSD>  (1) 
6.19219828

$$$$
