
     RDKit          3D

 38 42  0  0  1  0  0  0  0  0999 V2000
   36.3970   25.6360   31.4600 C   0  0  0  0  0  0  0  0  0  0  0  0
   35.6210   26.8090   31.3410 C   0  0  0  0  0  0  0  0  0  0  0  0
   36.1810   28.0240   31.6890 C   0  0  0  0  0  0  0  0  0  0  0  0
   37.4750   28.0180   32.1350 N   0  0  0  0  0  0  0  0  0  0  0  0
   38.1840   26.8770   32.2360 C   0  0  0  0  0  0  0  0  0  0  0  0
   37.6580   25.7060   31.9050 N   0  0  0  0  0  0  0  0  0  0  0  0
   39.5140   27.0100   32.7110 N   0  0  0  0  0  0  0  0  0  0  0  0
   40.3810   27.3180   31.7930 N   0  0  0  0  0  0  0  0  0  0  0  0
   41.6100   27.4200   32.3460 C   0  0  0  0  0  0  0  0  0  0  0  0
   41.4880   27.1610   33.6730 C   0  0  0  0  0  0  0  0  0  0  0  0
   40.1550   26.9030   33.8950 C   0  0  0  0  0  0  0  0  0  0  0  0
   39.3340   26.5600   35.0520 C   0  0  0  0  0  0  0  0  0  0  0  0
   38.9000   27.2680   36.0880 N   0  0  0  0  0  0  0  0  0  0  0  0
   38.1860   26.5330   36.8840 O   0  0  0  0  0  0  0  0  0  0  0  0
   38.1680   25.3130   36.3280 C   0  0  0  0  0  0  0  0  0  0  0  0
   38.8660   25.2740   35.1860 N   0  0  0  0  0  0  0  0  0  0  0  0
   37.4550   24.1120   36.8970 C   0  0  2  0  0  0  0  0  0  0  0  0
   37.8870   23.5620   38.2180 C   0  0  0  0  0  0  0  0  0  0  0  0
   38.1410   22.7930   36.9220 C   0  0  2  0  0  0  0  0  0  0  0  0
   39.5320   22.6660   36.6070 N   0  0  0  0  0  0  0  0  0  0  0  0
   40.1250   22.3760   35.4570 C   0  0  0  0  0  0  0  0  0  0  0  0
   41.5110   22.3610   35.6280 C   0  0  0  0  0  0  0  0  0  0  0  0
   41.7690   22.6510   36.9210 N   0  0  0  0  0  0  0  0  0  0  0  0
   40.5570   22.8310   37.4910 C   0  0  0  0  0  0  0  0  0  0  0  0
   35.8220   24.3810   31.1010 N   0  0  0  0  0  0  0  0  0  0  0  0
   34.5845   26.7570   30.9762 H   0  0  0  0  0  0  0  0  0  0  0  0
   35.6085   28.9600   31.6105 H   0  0  0  0  0  0  0  0  0  0  0  0
   42.5415   27.6682   31.8162 H   0  0  0  0  0  0  0  0  0  0  0  0
   42.2941   27.1580   34.4214 H   0  0  0  0  0  0  0  0  0  0  0  0
   36.4989   24.4705   36.4879 H   0  0  0  0  0  0  0  0  0  0  0  0
   38.7254   24.0224   38.7612 H   0  0  0  0  0  0  0  0  0  0  0  0
   37.3924   23.3428   39.1757 H   0  0  0  0  0  0  0  0  0  0  0  0
   37.8851   21.8246   36.4672 H   0  0  0  0  0  0  0  0  0  0  0  0
   39.6030   22.1769   34.5094 H   0  0  0  0  0  0  0  0  0  0  0  0
   42.2584   22.1506   34.8488 H   0  0  0  0  0  0  0  0  0  0  0  0
   40.4131   23.0830   38.5520 H   0  0  0  0  0  0  0  0  0  0  0  0
   34.8511   24.3381   30.7598 H   0  0  0  0  0  0  0  0  0  0  0  0
   36.3777   23.5176   31.1830 H   0  0  0  0  0  0  0  0  0  0  0  0
  1  6  2  0
  2  1  1  0
  2  3  2  0
  3  4  1  0
  4  5  2  0
  5  7  1  0
  6  5  1  0
  7 11  1  0
  8  9  2  0
  8  7  1  0
  9 10  1  0
 10 11  2  0
 11 12  1  0
 12 16  1  0
 12 13  2  0
 13 14  1  0
 15 14  1  0
 15 17  1  0
 16 15  2  0
 17 19  1  0
 17 18  1  0
 19 18  1  0
 20 19  1  0
 20 24  1  0
 21 22  2  0
 21 20  1  0
 22 23  1  0
 23 24  2  0
 25  1  1  0
  2 26  1  0
  3 27  1  0
  9 28  1  0
 10 29  1  0
 17 30  1  1
 18 31  1  0
 18 32  1  0
 19 33  1  1
 21 34  1  0
 22 35  1  0
 24 36  1  0
 25 37  1  0
 25 38  1  0
M  ISO  8  26  14  27  14  28  14  29  14  30  13  31  13  32  13  33  13
M  ISO  3  34  14  35  14  36  14
M  END
>  <minimizedAffinity>  (1) 
-5.92380905

>  <minimizedRMSD>  (1) 
2.28459978

$$$$
