
     RDKit          3D

 37 41  0  0  1  0  0  0  0  0999 V2000
   36.2700   24.1320   31.0860 C   0  0  0  0  0  0  0  0  0  0  0  0
   35.1680   25.0160   31.1210 C   0  0  0  0  0  0  0  0  0  0  0  0
   35.4090   26.3830   31.1100 C   0  0  0  0  0  0  0  0  0  0  0  0
   36.7100   26.8030   31.0650 N   0  0  0  0  0  0  0  0  0  0  0  0
   37.7210   25.9340   31.0320 C   0  0  0  0  0  0  0  0  0  0  0  0
   37.5180   24.6080   31.0420 N   0  0  0  0  0  0  0  0  0  0  0  0
   39.0410   26.4940   30.9850 N   0  0  0  0  0  0  0  0  0  0  0  0
   39.4350   26.8030   29.7820 N   0  0  0  0  0  0  0  0  0  0  0  0
   40.6850   27.3190   29.8480 C   0  0  0  0  0  0  0  0  0  0  0  0
   41.0630   27.3210   31.1430 C   0  0  0  0  0  0  0  0  0  0  0  0
   40.0090   26.7930   31.8670 C   0  0  0  0  0  0  0  0  0  0  0  0
   39.7340   26.5090   33.2620 C   0  0  0  0  0  0  0  0  0  0  0  0
   39.8540   27.2440   34.3680 N   0  0  0  0  0  0  0  0  0  0  0  0
   39.4820   26.5660   35.4140 O   0  0  0  0  0  0  0  0  0  0  0  0
   39.1140   25.3610   34.9540 C   0  0  0  0  0  0  0  0  0  0  0  0
   39.2530   25.2800   33.6230 N   0  0  0  0  0  0  0  0  0  0  0  0
   38.6040   24.2160   35.7900 C   0  0  2  0  0  0  0  0  0  0  0  0
   39.5510   23.1140   36.1630 C   0  0  0  0  0  0  0  0  0  0  0  0
   38.4450   22.8750   35.1630 C   0  0  1  0  0  0  0  0  0  0  0  0
   37.2520   22.0820   35.5830 C   0  0  0  0  0  0  0  0  0  0  0  0
   36.7820   22.2250   36.8820 C   0  0  0  0  0  0  0  0  0  0  0  0
   35.3160   21.0600   36.9270 S   0  0  0  0  0  0  0  0  0  0  0  0
   35.6490   20.6020   35.1130 C   0  0  0  0  0  0  0  0  0  0  0  0
   36.5490   21.2250   34.8590 N   0  0  0  0  0  0  0  0  0  0  0  0
   36.0330   22.7280   31.0980 N   0  0  0  0  0  0  0  0  0  0  0  0
   34.1392   24.6283   31.1563 H   0  0  0  0  0  0  0  0  0  0  0  0
   34.5800   27.1056   31.1366 H   0  0  0  0  0  0  0  0  0  0  0  0
   41.2854   27.6735   28.9972 H   0  0  0  0  0  0  0  0  0  0  0  0
   42.0238   27.6743   31.5456 H   0  0  0  0  0  0  0  0  0  0  0  0
   37.9394   24.8901   36.3502 H   0  0  0  0  0  0  0  0  0  0  0  0
   40.5986   23.1499   35.8293 H   0  0  0  0  0  0  0  0  0  0  0  0
   39.8698   22.6420   37.1041 H   0  0  0  0  0  0  0  0  0  0  0  0
   38.4149   22.4784   34.1374 H   0  0  0  0  0  0  0  0  0  0  0  0
   37.1741   22.8648   37.6863 H   0  0  0  0  0  0  0  0  0  0  0  0
   35.0970   19.9003   34.4704 H   0  0  0  0  0  0  0  0  0  0  0  0
   36.8263   22.0716   31.0729 H   0  0  0  0  0  0  0  0  0  0  0  0
   35.0682   22.3688   31.1318 H   0  0  0  0  0  0  0  0  0  0  0  0
  1 25  1  0
  1  2  2  0
  3  2  1  0
  4  3  2  0
  5  6  2  0
  5  4  1  0
  6  1  1  0
  7  5  1  0
  7 11  1  0
  8  9  2  0
  8  7  1  0
  9 10  1  0
 10 11  2  0
 11 12  1  0
 12 16  1  0
 12 13  2  0
 13 14  1  0
 15 14  1  0
 15 17  1  0
 16 15  2  0
 17 18  1  0
 19 20  1  0
 19 17  1  0
 19 18  1  0
 20 21  2  0
 21 22  1  0
 23 22  1  0
 24 23  2  0
 24 20  1  0
  2 26  1  0
  3 27  1  0
  9 28  1  0
 10 29  1  0
 17 30  1  1
 18 31  1  0
 18 32  1  0
 19 33  1  6
 21 34  1  0
 23 35  1  0
 25 36  1  0
 25 37  1  0
M  ISO  8  26  14  27  14  28  14  29  14  30  13  31  13  32  13  33  13
M  ISO  2  34  14  35  14
M  END
>  <minimizedAffinity>  (1) 
-5.03142166

>  <minimizedRMSD>  (1) 
2.67077589

$$$$
