
     RDKit          3D

 43 46  0  0  1  0  0  0  0  0999 V2000
   36.5890   24.1110   30.9660 C   0  0  0  0  0  0  0  0  0  0  0  0
   35.4020   24.8620   31.1480 C   0  0  0  0  0  0  0  0  0  0  0  0
   35.4630   26.2430   31.1130 C   0  0  0  0  0  0  0  0  0  0  0  0
   36.6850   26.8250   30.9000 N   0  0  0  0  0  0  0  0  0  0  0  0
   37.7870   26.0850   30.7310 C   0  0  0  0  0  0  0  0  0  0  0  0
   37.7590   24.7410   30.7610 N   0  0  0  0  0  0  0  0  0  0  0  0
   38.9980   26.8010   30.5190 N   0  0  0  0  0  0  0  0  0  0  0  0
   39.2000   27.1530   29.2840 N   0  0  0  0  0  0  0  0  0  0  0  0
   40.3750   27.8260   29.1920 C   0  0  0  0  0  0  0  0  0  0  0  0
   40.9110   27.8840   30.4370 C   0  0  0  0  0  0  0  0  0  0  0  0
   40.0320   27.2300   31.2790 C   0  0  0  0  0  0  0  0  0  0  0  0
   39.9760   26.9240   32.7000 C   0  0  0  0  0  0  0  0  0  0  0  0
   40.6770   27.3560   33.7420 N   0  0  0  0  0  0  0  0  0  0  0  0
   40.2650   26.7960   34.8400 O   0  0  0  0  0  0  0  0  0  0  0  0
   39.2660   25.9800   34.4750 C   0  0  0  0  0  0  0  0  0  0  0  0
   39.0440   26.0220   33.1550 N   0  0  0  0  0  0  0  0  0  0  0  0
   38.4600   25.1020   35.4100 C   0  0  2  0  0  0  0  0  0  0  0  0
   38.0510   25.6590   36.7390 C   0  0  0  0  0  0  0  0  0  0  0  0
   39.1080   24.5830   36.6410 C   0  0  1  0  0  0  0  0  0  0  0  0
   38.7850   23.2120   37.1740 C   0  0  0  0  0  0  0  0  0  0  0  0
   37.9310   23.3420   38.4180 C   0  0  0  0  0  0  0  0  0  0  0  0
   40.0910   22.5410   37.5690 C   0  0  0  0  0  0  0  0  0  0  0  0
   38.0780   22.3210   36.1890 C   0  0  0  0  0  0  0  0  0  0  0  0
   36.5270   22.6970   31.0010 N   0  0  0  0  0  0  0  0  0  0  0  0
   34.4418   24.3521   31.3154 H   0  0  0  0  0  0  0  0  0  0  0  0
   34.5594   26.8548   31.2517 H   0  0  0  0  0  0  0  0  0  0  0  0
   40.8129   28.2476   28.2752 H   0  0  0  0  0  0  0  0  0  0  0  0
   41.8613   28.3596   30.7211 H   0  0  0  0  0  0  0  0  0  0  0  0
   37.9262   24.6400   34.5664 H   0  0  0  0  0  0  0  0  0  0  0  0
   38.3317   26.6854   37.0179 H   0  0  0  0  0  0  0  0  0  0  0  0
   37.1004   25.7757   37.2800 H   0  0  0  0  0  0  0  0  0  0  0  0
   40.1545   24.4659   36.9590 H   0  0  0  0  0  0  0  0  0  0  0  0
   38.5664   23.2453   39.3107 H   0  0  0  0  0  0  0  0  0  0  0  0
   37.4383   24.3255   38.4234 H   0  0  0  0  0  0  0  0  0  0  0  0
   37.1680   22.5497   38.4234 H   0  0  0  0  0  0  0  0  0  0  0  0
   40.1663   22.5023   38.6657 H   0  0  0  0  0  0  0  0  0  0  0  0
   40.1153   21.5188   37.1635 H   0  0  0  0  0  0  0  0  0  0  0  0
   40.9362   23.1165   37.1635 H   0  0  0  0  0  0  0  0  0  0  0  0
   37.4837   21.5720   36.7329 H   0  0  0  0  0  0  0  0  0  0  0  0
   37.4132   22.9281   35.5570 H   0  0  0  0  0  0  0  0  0  0  0  0
   38.8203   21.8115   35.5570 H   0  0  0  0  0  0  0  0  0  0  0  0
   37.3838   22.1405   30.8699 H   0  0  0  0  0  0  0  0  0  0  0  0
   35.6251   22.2248   31.1576 H   0  0  0  0  0  0  0  0  0  0  0  0
  1 24  1  0
  1  2  2  0
  3  2  1  0
  4  3  2  0
  5  6  2  0
  5  4  1  0
  6  1  1  0
  7  5  1  0
  7 11  1  0
  8  7  1  0
  9  8  2  0
  9 10  1  0
 10 11  2  0
 11 12  1  0
 12 16  1  0
 12 13  2  0
 13 14  1  0
 15 14  1  0
 15 17  1  0
 16 15  2  0
 17 19  1  0
 17 18  1  0
 19 18  1  0
 19 20  1  0
 20 22  1  0
 20 21  1  0
 23 20  1  0
  2 25  1  0
  3 26  1  0
  9 27  1  0
 10 28  1  0
 17 29  1  6
 18 30  1  0
 18 31  1  0
 19 32  1  6
 21 33  1  0
 21 34  1  0
 21 35  1  0
 22 36  1  0
 22 37  1  0
 22 38  1  0
 23 39  1  0
 23 40  1  0
 23 41  1  0
 24 42  1  0
 24 43  1  0
M  ISO  8  25  14  26  14  27  14  28  14  29  13  30  13  31  13  32  13
M  ISO  8  33   8  34   8  35   8  36   8  37   8  38   8  39   8  40   8
M  ISO  1  41   8
M  END
>  <minimizedAffinity>  (1) 
-5.32588434

>  <minimizedRMSD>  (1) 
2.6878047

$$$$
