
     RDKit          3D

 47 52  0  0  1  0  0  0  0  0999 V2000
   39.9890   23.5250   34.8030 C   0  0  0  0  0  0  0  0  0  0  0  0
   40.2100   22.2410   34.5550 N   0  0  0  0  0  0  0  0  0  0  0  0
   39.1450   21.5390   34.7920 O   0  0  0  0  0  0  0  0  0  0  0  0
   38.2150   22.4120   35.2060 C   0  0  0  0  0  0  0  0  0  0  0  0
   38.6880   23.6640   35.2320 N   0  0  0  0  0  0  0  0  0  0  0  0
   37.5880   26.1890   31.7150 C   0  0  0  0  0  0  0  0  0  0  0  0
   36.6290   26.8570   32.5040 C   0  0  0  0  0  0  0  0  0  0  0  0
   36.9330   27.1480   33.8230 C   0  0  0  0  0  0  0  0  0  0  0  0
   38.1600   26.7660   34.2870 N   0  0  0  0  0  0  0  0  0  0  0  0
   39.0500   26.1290   33.5010 C   0  0  0  0  0  0  0  0  0  0  0  0
   38.7760   25.8370   32.2200 N   0  0  0  0  0  0  0  0  0  0  0  0
   40.2980   25.7830   34.1040 N   0  0  0  0  0  0  0  0  0  0  0  0
   41.1700   26.7490   34.0900 N   0  0  0  0  0  0  0  0  0  0  0  0
   42.3110   26.3180   34.6830 C   0  0  0  0  0  0  0  0  0  0  0  0
   42.1200   25.0410   35.0710 C   0  0  0  0  0  0  0  0  0  0  0  0
   40.8350   24.7020   34.7020 C   0  0  0  0  0  0  0  0  0  0  0  0
   37.2820   25.8850   30.3540 N   0  0  0  0  0  0  0  0  0  0  0  0
   36.8060   22.0480   35.5990 C   0  0  2  0  0  0  0  0  0  0  0  0
   36.3740   20.6260   35.5680 C   0  0  0  0  0  0  0  0  0  0  0  0
   35.8490   21.6240   34.5380 C   0  0  2  0  0  0  0  0  0  0  0  0
   36.3670   21.5080   33.1500 C   0  0  0  0  0  0  0  0  0  0  0  0
   36.9790   22.4990   32.4090 C   0  0  0  0  0  0  0  0  0  0  0  0
   37.4220   22.2840   31.1300 C   0  0  0  0  0  0  0  0  0  0  0  0
   37.2640   21.0470   30.5400 C   0  0  0  0  0  0  0  0  0  0  0  0
   36.6490   20.0510   31.2850 C   0  0  0  0  0  0  0  0  0  0  0  0
   36.5350   18.8430   30.6080 C   0  0  0  0  0  0  0  0  0  0  0  0
   35.9400   17.7800   31.2500 C   0  0  0  0  0  0  0  0  0  0  0  0
   35.4800   17.9580   32.5380 C   0  0  0  0  0  0  0  0  0  0  0  0
   35.5930   19.1530   33.2080 C   0  0  0  0  0  0  0  0  0  0  0  0
   36.1940   20.2440   32.5770 C   0  0  0  0  0  0  0  0  0  0  0  0
   35.6555   27.1422   32.0786 H   0  0  0  0  0  0  0  0  0  0  0  0
   36.2135   27.6674   34.4731 H   0  0  0  0  0  0  0  0  0  0  0  0
   43.2299   26.9063   34.8227 H   0  0  0  0  0  0  0  0  0  0  0  0
   42.8481   24.3946   35.5828 H   0  0  0  0  0  0  0  0  0  0  0  0
   36.3693   26.1532   29.9591 H   0  0  0  0  0  0  0  0  0  0  0  0
   37.9739   25.3975   29.7671 H   0  0  0  0  0  0  0  0  0  0  0  0
   36.8044   22.8282   36.3744 H   0  0  0  0  0  0  0  0  0  0  0  0
   37.0818   19.8405   35.2647 H   0  0  0  0  0  0  0  0  0  0  0  0
   35.9165   19.9317   36.2882 H   0  0  0  0  0  0  0  0  0  0  0  0
   34.8560   21.9567   34.2014 H   0  0  0  0  0  0  0  0  0  0  0  0
   37.1155   23.4932   32.8596 H   0  0  0  0  0  0  0  0  0  0  0  0
   37.9049   23.1000   30.5723 H   0  0  0  0  0  0  0  0  0  0  0  0
   37.6135   20.8569   29.5145 H   0  0  0  0  0  0  0  0  0  0  0  0
   36.9124   18.7380   29.5801 H   0  0  0  0  0  0  0  0  0  0  0  0
   35.8337   16.8082   30.7456 H   0  0  0  0  0  0  0  0  0  0  0  0
   35.0033   17.1091   33.0500 H   0  0  0  0  0  0  0  0  0  0  0  0
   35.2121   19.2492   34.2355 H   0  0  0  0  0  0  0  0  0  0  0  0
  1  5  1  0
  2  3  1  0
  2  1  2  0
  3  4  1  0
  4  5  2  0
  4 18  1  0
  6 11  2  0
  6  7  1  0
  7  8  2  0
  8  9  1  0
 10 12  1  0
 10  9  2  0
 11 10  1  0
 12 16  1  0
 13 12  1  0
 13 14  2  0
 14 15  1  0
 16  1  1  0
 16 15  2  0
 17  6  1  0
 19 18  1  0
 20 19  1  0
 20 18  1  0
 21 20  1  0
 22 21  2  0
 23 22  1  0
 24 23  2  0
 24 25  1  0
 25 30  2  0
 26 27  2  0
 26 25  1  0
 27 28  1  0
 28 29  2  0
 30 21  1  0
 30 29  1  0
  7 31  1  0
  8 32  1  0
 14 33  1  0
 15 34  1  0
 17 35  1  0
 17 36  1  0
 18 37  1  1
 19 38  1  0
 19 39  1  0
 20 40  1  6
 22 41  1  0
 23 42  1  0
 24 43  1  0
 26 44  1  0
 27 45  1  0
 28 46  1  0
 29 47  1  0
M  ISO  8  31  14  32  14  33  14  34  14  37  13  38  13  39  13  40  13
M  ISO  7  41  14  42  14  43  14  44  14  45  14  46  14  47  14
M  END
>  <minimizedAffinity>  (1) 
-4.86350155

>  <minimizedRMSD>  (1) 
5.74134398

$$$$
