
     RDKit          3D

 36 40  0  0  1  0  0  0  0  0999 V2000
   41.8260   25.9490   30.4280 C   0  0  0  0  0  0  0  0  0  0  0  0
   41.7840   24.8600   29.5320 C   0  0  0  0  0  0  0  0  0  0  0  0
   40.7100   24.7270   28.6740 C   0  0  0  0  0  0  0  0  0  0  0  0
   39.7200   25.6800   28.7380 N   0  0  0  0  0  0  0  0  0  0  0  0
   39.7990   26.7050   29.6080 C   0  0  0  0  0  0  0  0  0  0  0  0
   40.8280   26.8560   30.4490 N   0  0  0  0  0  0  0  0  0  0  0  0
   38.7070   27.6300   29.5760 N   0  0  0  0  0  0  0  0  0  0  0  0
   38.8280   28.5470   28.6580 N   0  0  0  0  0  0  0  0  0  0  0  0
   37.7380   29.3680   28.7170 C   0  0  0  0  0  0  0  0  0  0  0  0
   36.9340   28.9270   29.7060 C   0  0  0  0  0  0  0  0  0  0  0  0
   37.5600   27.8170   30.2490 C   0  0  0  0  0  0  0  0  0  0  0  0
   37.2660   26.8690   31.3220 C   0  0  0  0  0  0  0  0  0  0  0  0
   36.5210   25.7760   31.3770 N   0  0  0  0  0  0  0  0  0  0  0  0
   36.5680   25.2540   32.5610 O   0  0  0  0  0  0  0  0  0  0  0  0
   37.3730   26.0460   33.2830 C   0  0  0  0  0  0  0  0  0  0  0  0
   37.8380   27.0720   32.5570 N   0  0  0  0  0  0  0  0  0  0  0  0
   37.7370   25.8420   34.7320 C   0  0  2  0  0  0  0  0  0  0  0  0
   38.9890   26.4690   35.2600 C   0  0  0  0  0  0  0  0  0  0  0  0
   38.8820   24.9620   35.0850 C   0  0  1  0  0  0  0  0  0  0  0  0
   38.7360   24.2370   36.3970 C   0  0  0  0  0  0  0  0  0  0  0  0
   39.6070   23.4290   37.0280 N   0  0  0  0  0  0  0  0  0  0  0  0
   39.0620   23.0180   38.1430 O   0  0  0  0  0  0  0  0  0  0  0  0
   37.8720   23.5110   38.2910 C   0  0  0  0  0  0  0  0  0  0  0  0
   37.6440   24.2890   37.1930 N   0  0  0  0  0  0  0  0  0  0  0  0
   42.9200   26.0970   31.3160 N   0  0  0  0  0  0  0  0  0  0  0  0
   42.6002   24.1227   29.5169 H   0  0  0  0  0  0  0  0  0  0  0  0
   40.6484   23.8887   27.9645 H   0  0  0  0  0  0  0  0  0  0  0  0
   37.5488   30.2376   28.0704 H   0  0  0  0  0  0  0  0  0  0  0  0
   35.9733   29.3618   30.0189 H   0  0  0  0  0  0  0  0  0  0  0  0
   36.6758   25.8713   35.0201 H   0  0  0  0  0  0  0  0  0  0  0  0
   39.6357   27.0583   34.5932 H   0  0  0  0  0  0  0  0  0  0  0  0
   39.2360   27.1456   36.0914 H   0  0  0  0  0  0  0  0  0  0  0  0
   39.4467   24.1813   34.5543 H   0  0  0  0  0  0  0  0  0  0  0  0
   37.1846   23.3372   39.1320 H   0  0  0  0  0  0  0  0  0  0  0  0
   43.6869   25.4095   31.3074 H   0  0  0  0  0  0  0  0  0  0  0  0
   42.9484   26.8921   31.9701 H   0  0  0  0  0  0  0  0  0  0  0  0
  1  6  2  0
  1 25  1  0
  2  1  1  0
  3  4  1  0
  3  2  2  0
  4  5  2  0
  5  6  1  0
  7  5  1  0
  7 11  1  0
  8  9  2  0
  8  7  1  0
  9 10  1  0
 10 11  2  0
 11 12  1  0
 12 13  2  0
 12 16  1  0
 13 14  1  0
 14 15  1  0
 15 17  1  0
 16 15  2  0
 17 19  1  0
 17 18  1  0
 19 18  1  0
 19 20  1  0
 20 21  2  0
 20 24  1  0
 21 22  1  0
 22 23  1  0
 24 23  2  0
  2 26  1  0
  3 27  1  0
  9 28  1  0
 10 29  1  0
 17 30  1  1
 18 31  1  0
 18 32  1  0
 19 33  1  6
 23 34  1  0
 25 35  1  0
 25 36  1  0
M  ISO  8  26  14  27  14  28  14  29  14  30  13  31  13  32  13  33  13
M  ISO  1  34  14
M  END
>  <minimizedAffinity>  (1) 
-4.95843124

>  <minimizedRMSD>  (1) 
4.56621265

$$$$
