
     RDKit          3D

 34 37  0  0  1  0  0  0  0  0999 V2000
   37.6300   21.7840   30.5910 C   0  0  0  0  0  0  0  0  0  0  0  0
   36.4260   21.5000   31.2730 C   0  0  0  0  0  0  0  0  0  0  0  0
   35.8120   22.5160   31.9940 C   0  0  0  0  0  0  0  0  0  0  0  0
   36.4130   23.7450   32.0050 N   0  0  0  0  0  0  0  0  0  0  0  0
   37.5510   23.9750   31.3490 C   0  0  0  0  0  0  0  0  0  0  0  0
   38.1660   23.0090   30.6430 N   0  0  0  0  0  0  0  0  0  0  0  0
   38.0810   25.2930   31.4330 N   0  0  0  0  0  0  0  0  0  0  0  0
   37.5660   26.1290   30.5750 N   0  0  0  0  0  0  0  0  0  0  0  0
   38.1410   27.3410   30.7470 C   0  0  0  0  0  0  0  0  0  0  0  0
   39.0390   27.2480   31.7440 C   0  0  0  0  0  0  0  0  0  0  0  0
   39.0010   25.9310   32.1850 C   0  0  0  0  0  0  0  0  0  0  0  0
   39.6850   25.1460   33.2060 C   0  0  0  0  0  0  0  0  0  0  0  0
   40.8140   24.4600   33.2060 N   0  0  0  0  0  0  0  0  0  0  0  0
   41.0240   23.9150   34.3670 O   0  0  0  0  0  0  0  0  0  0  0  0
   39.9810   24.2760   35.1260 C   0  0  0  0  0  0  0  0  0  0  0  0
   39.1130   25.0440   34.4550 N   0  0  0  0  0  0  0  0  0  0  0  0
   39.7680   23.8860   36.5730 C   0  0  2  0  0  0  0  0  0  0  0  0
   39.9290   22.4520   36.9680 C   0  0  0  0  0  0  0  0  0  0  0  0
   38.5640   23.0960   36.9420 C   0  0  1  0  0  0  0  0  0  0  0  0
   38.0110   23.4300   38.3040 C   0  0  0  0  0  0  0  0  0  0  0  0
   38.0360   24.5220   38.9100 O   0  0  0  0  0  0  0  0  0  0  0  0
   37.3810   22.4190   39.0180 O   0  0  0  0  0  0  0  0  0  0  0  0
   38.2690   20.7470   29.8480 N   0  0  0  0  0  0  0  0  0  0  0  0
   35.9833   20.4938   31.2338 H   0  0  0  0  0  0  0  0  0  0  0  0
   34.8729   22.3383   32.5385 H   0  0  0  0  0  0  0  0  0  0  0  0
   37.9129   28.2489   30.1694 H   0  0  0  0  0  0  0  0  0  0  0  0
   39.6772   28.0550   32.1332 H   0  0  0  0  0  0  0  0  0  0  0  0
   40.2015   24.8372   36.9155 H   0  0  0  0  0  0  0  0  0  0  0  0
   40.1983   21.6985   36.2132 H   0  0  0  0  0  0  0  0  0  0  0  0
   40.5235   21.9094   37.7178 H   0  0  0  0  0  0  0  0  0  0  0  0
   37.6021   22.8630   36.4619 H   0  0  0  0  0  0  0  0  0  0  0  0
   37.0071   22.6058   39.9154 H   0  0  0  0  0  0  0  0  0  0  0  0
   37.8509   19.8064   29.8123 H   0  0  0  0  0  0  0  0  0  0  0  0
   39.1484   20.9390   29.3474 H   0  0  0  0  0  0  0  0  0  0  0  0
  1  6  2  0
  1  2  1  0
  2  3  2  0
  3  4  1  0
  5  7  1  0
  5  4  2  0
  6  5  1  0
  7 11  1  0
  8  9  2  0
  8  7  1  0
  9 10  1  0
 10 11  2  0
 11 12  1  0
 12 13  2  0
 12 16  1  0
 13 14  1  0
 14 15  1  0
 15 17  1  0
 16 15  2  0
 17 19  1  0
 17 18  1  0
 19 18  1  0
 19 20  1  0
 20 21  2  0
 20 22  1  0
 23  1  1  0
  2 24  1  0
  3 25  1  0
  9 26  1  0
 10 27  1  0
 17 28  1  1
 18 29  1  0
 18 30  1  0
 19 31  1  6
 22 32  1  0
 23 33  1  0
 23 34  1  0
M  ISO  8  24  14  25  14  26  14  27  14  28  13  29  13  30  13  31  13
M  ISO  1  32   3
M  END
>  <minimizedAffinity>  (1) 
-4.88647795

>  <minimizedRMSD>  (1) 
2.41150761

$$$$
