
     RDKit          3D

 43 47  0  0  1  0  0  0  0  0999 V2000
   37.6600   23.9120   30.8640 C   0  0  0  0  0  0  0  0  0  0  0  0
   36.7310   24.2030   31.8860 C   0  0  0  0  0  0  0  0  0  0  0  0
   36.6060   25.5140   32.3230 C   0  0  0  0  0  0  0  0  0  0  0  0
   37.3960   26.4530   31.7340 N   0  0  0  0  0  0  0  0  0  0  0  0
   38.2670   26.1410   30.7660 C   0  0  0  0  0  0  0  0  0  0  0  0
   38.4100   24.8850   30.3220 N   0  0  0  0  0  0  0  0  0  0  0  0
   39.0360   27.2170   30.2290 N   0  0  0  0  0  0  0  0  0  0  0  0
   38.4310   27.8860   29.2850 N   0  0  0  0  0  0  0  0  0  0  0  0
   39.2490   28.8760   28.8520 C   0  0  0  0  0  0  0  0  0  0  0  0
   40.3930   28.8080   29.5590 C   0  0  0  0  0  0  0  0  0  0  0  0
   40.2560   27.7520   30.4340 C   0  0  0  0  0  0  0  0  0  0  0  0
   41.0800   27.1280   31.4610 C   0  0  0  0  0  0  0  0  0  0  0  0
   42.3570   26.7620   31.4820 N   0  0  0  0  0  0  0  0  0  0  0  0
   42.6650   26.2380   32.6270 O   0  0  0  0  0  0  0  0  0  0  0  0
   41.5420   26.2730   33.3600 C   0  0  0  0  0  0  0  0  0  0  0  0
   40.5270   26.8190   32.6780 N   0  0  0  0  0  0  0  0  0  0  0  0
   41.4110   25.7720   34.7690 C   0  0  2  0  0  0  0  0  0  0  0  0
   42.3310   24.7080   35.2660 C   0  0  0  0  0  0  0  0  0  0  0  0
   40.8780   24.3990   34.9980 C   0  0  1  0  0  0  0  0  0  0  0  0
   39.9420   24.2690   36.0670 N   0  0  0  0  0  0  0  0  0  0  0  0
   38.7400   25.0450   35.7470 C   0  0  0  0  0  0  0  0  0  0  0  0
   37.7330   24.5410   36.7820 C   0  0  0  0  0  0  0  0  0  0  0  0
   38.2760   23.2120   37.2230 C   0  0  0  0  0  0  0  0  0  0  0  0
   39.3730   22.9520   36.2080 C   0  0  0  0  0  0  0  0  0  0  0  0
   37.7970   22.5690   30.4080 N   0  0  0  0  0  0  0  0  0  0  0  0
   36.1170   23.4046   32.3282 H   0  0  0  0  0  0  0  0  0  0  0  0
   35.8942   25.7847   33.1168 H   0  0  0  0  0  0  0  0  0  0  0  0
   39.0190   29.6063   28.0622 H   0  0  0  0  0  0  0  0  0  0  0  0
   41.2675   29.4675   29.4578 H   0  0  0  0  0  0  0  0  0  0  0  0
   41.1426   26.7797   35.1191 H   0  0  0  0  0  0  0  0  0  0  0  0
   43.1117   24.3019   34.6060 H   0  0  0  0  0  0  0  0  0  0  0  0
   43.0058   24.5998   36.1279 H   0  0  0  0  0  0  0  0  0  0  0  0
   40.3750   23.6153   34.4125 H   0  0  0  0  0  0  0  0  0  0  0  0
   38.9214   26.1238   35.8619 H   0  0  0  0  0  0  0  0  0  0  0  0
   38.4008   24.9183   34.7083 H   0  0  0  0  0  0  0  0  0  0  0  0
   37.6693   25.2360   37.6323 H   0  0  0  0  0  0  0  0  0  0  0  0
   36.7163   24.4603   36.3699 H   0  0  0  0  0  0  0  0  0  0  0  0
   38.6835   23.2679   38.2432 H   0  0  0  0  0  0  0  0  0  0  0  0
   37.5155   22.4181   37.2597 H   0  0  0  0  0  0  0  0  0  0  0  0
   38.9623   22.5862   35.2554 H   0  0  0  0  0  0  0  0  0  0  0  0
   40.0943   22.1787   36.5109 H   0  0  0  0  0  0  0  0  0  0  0  0
   38.4716   22.3444   29.6628 H   0  0  0  0  0  0  0  0  0  0  0  0
   37.2214   21.8228   30.8236 H   0  0  0  0  0  0  0  0  0  0  0  0
  1  2  2  0
  2  3  1  0
  4  3  2  0
  5  4  1  0
  6  5  2  0
  6  1  1  0
  7 11  1  0
  7  5  1  0
  8  7  1  0
  9  8  2  0
  9 10  1  0
 10 11  2  0
 11 12  1  0
 12 13  2  0
 12 16  1  0
 13 14  1  0
 14 15  1  0
 15 17  1  0
 16 15  2  0
 17 19  1  0
 17 18  1  0
 19 18  1  0
 19 20  1  0
 20 21  1  0
 20 24  1  0
 21 22  1  0
 22 23  1  0
 24 23  1  0
 25  1  1  0
  2 26  1  0
  3 27  1  0
  9 28  1  0
 10 29  1  0
 17 30  1  1
 18 31  1  0
 18 32  1  0
 19 33  1  6
 21 34  1  0
 21 35  1  0
 22 36  1  0
 22 37  1  0
 23 38  1  0
 23 39  1  0
 24 40  1  0
 24 41  1  0
 25 42  1  0
 25 43  1  0
M  ISO  8  26  14  27  14  28  14  29  14  30  13  31  13  32  13  33  13
M  ISO  8  34  13  35  13  36  13  37  13  38  13  39  13  40  13  41  13
M  END
>  <minimizedAffinity>  (1) 
-4.3477459

>  <minimizedRMSD>  (1) 
3.88645124

$$$$
