
     RDKit          3D

 38 41  0  0  1  0  0  0  0  0999 V2000
   39.6460   26.4840   33.2210 C   0  0  0  0  0  0  0  0  0  0  0  0
   39.3840   27.2840   34.2610 N   0  0  0  0  0  0  0  0  0  0  0  0
   39.2110   26.5710   35.3230 O   0  0  0  0  0  0  0  0  0  0  0  0
   39.3700   25.2820   34.9460 C   0  0  0  0  0  0  0  0  0  0  0  0
   39.6430   25.1720   33.6400 N   0  0  0  0  0  0  0  0  0  0  0  0
   36.2540   23.9860   31.0750 C   0  0  0  0  0  0  0  0  0  0  0  0
   35.1230   24.8390   31.1030 C   0  0  0  0  0  0  0  0  0  0  0  0
   35.3180   26.2000   31.0750 C   0  0  0  0  0  0  0  0  0  0  0  0
   36.6090   26.6530   31.0190 N   0  0  0  0  0  0  0  0  0  0  0  0
   37.6650   25.8010   30.9930 C   0  0  0  0  0  0  0  0  0  0  0  0
   37.5030   24.4870   31.0200 N   0  0  0  0  0  0  0  0  0  0  0  0
   38.9530   26.4090   30.9350 N   0  0  0  0  0  0  0  0  0  0  0  0
   39.3320   26.7190   29.7260 N   0  0  0  0  0  0  0  0  0  0  0  0
   40.5670   27.2910   29.7900 C   0  0  0  0  0  0  0  0  0  0  0  0
   40.9400   27.3220   31.0850 C   0  0  0  0  0  0  0  0  0  0  0  0
   39.9130   26.7620   31.8150 C   0  0  0  0  0  0  0  0  0  0  0  0
   36.0660   22.5660   31.1040 N   0  0  0  0  0  0  0  0  0  0  0  0
   39.2490   24.1200   35.8800 C   0  0  2  0  0  0  0  0  0  0  0  0
   38.6430   22.8380   35.3590 C   0  0  0  0  0  0  0  0  0  0  0  0
   37.9350   23.6920   36.3970 C   0  0  1  0  0  0  0  0  0  0  0  0
   37.7690   23.0500   37.7310 C   0  0  0  0  0  0  0  0  0  0  0  0
   38.5880   23.7070   38.8100 C   0  0  0  0  0  0  0  0  0  0  0  0
   38.0180   24.9630   39.0240 O   0  0  0  0  0  0  0  0  0  0  0  0
   34.1069   24.4200   31.1464 H   0  0  0  0  0  0  0  0  0  0  0  0
   34.4686   26.8986   31.0968 H   0  0  0  0  0  0  0  0  0  0  0  0
   41.1548   27.6614   28.9371 H   0  0  0  0  0  0  0  0  0  0  0  0
   41.8851   27.7190   31.4840 H   0  0  0  0  0  0  0  0  0  0  0  0
   36.8821   21.9379   31.0840 H   0  0  0  0  0  0  0  0  0  0  0  0
   35.1147   22.1732   31.1449 H   0  0  0  0  0  0  0  0  0  0  0  0
   40.1955   24.4028   36.3638 H   0  0  0  0  0  0  0  0  0  0  0  0
   38.2591   22.7842   34.3296 H   0  0  0  0  0  0  0  0  0  0  0  0
   38.9622   21.7877   35.2878 H   0  0  0  0  0  0  0  0  0  0  0  0
   36.9816   24.2303   36.5028 H   0  0  0  0  0  0  0  0  0  0  0  0
   36.7078   23.1038   38.0155 H   0  0  0  0  0  0  0  0  0  0  0  0
   38.1196   22.0113   37.6404 H   0  0  0  0  0  0  0  0  0  0  0  0
   38.5513   23.1098   39.7330 H   0  0  0  0  0  0  0  0  0  0  0  0
   39.6442   23.7922   38.5146 H   0  0  0  0  0  0  0  0  0  0  0  0
   37.9424   25.1296   39.9969 H   0  0  0  0  0  0  0  0  0  0  0  0
  1  5  1  0
  1  2  2  0
  2  3  1  0
  4  3  1  0
  4 18  1  0
  5  4  2  0
  6  7  2  0
  6 17  1  0
  8  7  1  0
  9  8  2  0
 10  9  1  0
 10 11  2  0
 11  6  1  0
 12 10  1  0
 12 16  1  0
 13 14  2  0
 13 12  1  0
 14 15  1  0
 15 16  2  0
 16  1  1  0
 18 20  1  0
 19 18  1  0
 19 20  1  0
 20 21  1  0
 21 22  1  0
 22 23  1  0
  7 24  1  0
  8 25  1  0
 14 26  1  0
 15 27  1  0
 17 28  1  0
 17 29  1  0
 18 30  1  1
 19 31  1  0
 19 32  1  0
 20 33  1  6
 21 34  1  0
 21 35  1  0
 22 36  1  0
 22 37  1  0
 23 38  1  0
M  ISO  8  24  14  25  14  26  14  27  14  30  13  31  13  32  13  33  13
M  ISO  5  34   8  35   8  36   8  37   8  38   3
M  END
>  <minimizedAffinity>  (1) 
-4.94969511

>  <minimizedRMSD>  (1) 
0.348525137

$$$$
