
     RDKit          3D

 44 48  0  0  1  0  0  0  0  0999 V2000
   40.0690   26.8780   32.6420 C   0  0  0  0  0  0  0  0  0  0  0  0
   39.2980   27.2420   33.6740 N   0  0  0  0  0  0  0  0  0  0  0  0
   39.7190   26.6740   34.7590 O   0  0  0  0  0  0  0  0  0  0  0  0
   40.7890   25.9300   34.3960 C   0  0  0  0  0  0  0  0  0  0  0  0
   41.0570   26.0150   33.0890 N   0  0  0  0  0  0  0  0  0  0  0  0
   36.8050   23.8750   31.0050 C   0  0  0  0  0  0  0  0  0  0  0  0
   35.5710   24.5320   31.2640 C   0  0  0  0  0  0  0  0  0  0  0  0
   35.5370   25.9060   31.2570 C   0  0  0  0  0  0  0  0  0  0  0  0
   36.7090   26.5650   30.9990 N   0  0  0  0  0  0  0  0  0  0  0  0
   37.8620   25.8940   30.7570 C   0  0  0  0  0  0  0  0  0  0  0  0
   37.9190   24.5810   30.7580 N   0  0  0  0  0  0  0  0  0  0  0  0
   39.0060   26.7170   30.5040 N   0  0  0  0  0  0  0  0  0  0  0  0
   39.1210   27.1080   29.2630 N   0  0  0  0  0  0  0  0  0  0  0  0
   40.2210   27.8680   29.1410 C   0  0  0  0  0  0  0  0  0  0  0  0
   40.8130   27.9520   30.3580 C   0  0  0  0  0  0  0  0  0  0  0  0
   40.0360   27.2170   31.2210 C   0  0  0  0  0  0  0  0  0  0  0  0
   36.8460   22.4480   31.0100 N   0  0  0  0  0  0  0  0  0  0  0  0
   41.5880   25.0960   35.3560 C   0  0  2  0  0  0  0  0  0  0  0  0
   42.7730   24.3200   34.8280 C   0  0  0  0  0  0  0  0  0  0  0  0
   41.5160   23.6240   35.3260 C   0  0  1  0  0  0  0  0  0  0  0  0
   41.7160   22.7850   36.5360 C   0  0  0  0  0  0  0  0  0  0  0  0
   40.5110   21.9330   36.8660 C   0  0  0  0  0  0  0  0  0  0  0  0
   39.3680   22.7400   37.1990 N   0  0  0  0  0  0  0  0  0  0  0  0
   39.1640   23.3480   38.3940 C   0  0  0  0  0  0  0  0  0  0  0  0
   37.9780   24.0460   38.4030 C   0  0  0  0  0  0  0  0  0  0  0  0
   37.4330   23.8610   37.1700 N   0  0  0  0  0  0  0  0  0  0  0  0
   38.2830   23.0820   36.4840 C   0  0  0  0  0  0  0  0  0  0  0  0
   34.6593   23.9507   31.4665 H   0  0  0  0  0  0  0  0  0  0  0  0
   34.6039   26.4551   31.4512 H   0  0  0  0  0  0  0  0  0  0  0  0
   40.5797   28.3405   28.2147 H   0  0  0  0  0  0  0  0  0  0  0  0
   41.7338   28.5004   30.6057 H   0  0  0  0  0  0  0  0  0  0  0  0
   37.7325   21.9576   30.8241 H   0  0  0  0  0  0  0  0  0  0  0  0
   35.9891   21.9088   31.1995 H   0  0  0  0  0  0  0  0  0  0  0  0
   41.4290   25.8449   36.1458 H   0  0  0  0  0  0  0  0  0  0  0  0
   43.7049   24.2660   35.4099 H   0  0  0  0  0  0  0  0  0  0  0  0
   43.3614   24.3150   33.8986 H   0  0  0  0  0  0  0  0  0  0  0  0
   40.7442   22.9427   34.9385 H   0  0  0  0  0  0  0  0  0  0  0  0
   42.5780   22.1232   36.3659 H   0  0  0  0  0  0  0  0  0  0  0  0
   41.8831   23.4641   37.3851 H   0  0  0  0  0  0  0  0  0  0  0  0
   40.2656   21.3086   35.9943 H   0  0  0  0  0  0  0  0  0  0  0  0
   40.7583   21.3098   37.7380 H   0  0  0  0  0  0  0  0  0  0  0  0
   39.8572   23.2906   39.2462 H   0  0  0  0  0  0  0  0  0  0  0  0
   37.5580   24.6316   39.2340 H   0  0  0  0  0  0  0  0  0  0  0  0
   38.1102   22.7579   35.4471 H   0  0  0  0  0  0  0  0  0  0  0  0
  1  5  1  0
  1  2  2  0
  2  3  1  0
  4  3  1  0
  4 18  1  0
  5  4  2  0
  6 17  1  0
  6  7  2  0
  8  7  1  0
  9  8  2  0
 10 11  2  0
 10  9  1  0
 11  6  1  0
 12 10  1  0
 12 16  1  0
 13 12  1  0
 14 13  2  0
 14 15  1  0
 15 16  2  0
 16  1  1  0
 19 20  1  0
 19 18  1  0
 20 18  1  0
 20 21  1  0
 21 22  1  0
 22 23  1  0
 23 24  1  0
 24 25  2  0
 26 25  1  0
 27 26  2  0
 27 23  1  0
  7 28  1  0
  8 29  1  0
 14 30  1  0
 15 31  1  0
 17 32  1  0
 17 33  1  0
 18 34  1  1
 19 35  1  0
 19 36  1  0
 20 37  1  6
 21 38  1  0
 21 39  1  0
 22 40  1  0
 22 41  1  0
 24 42  1  0
 25 43  1  0
 27 44  1  0
M  ISO  8  28  14  29  14  30  14  31  14  34  13  35  13  36  13  37  13
M  ISO  7  38   8  39   8  40   8  41   8  42  14  43  14  44  14
M  END
>  <minimizedAffinity>  (1) 
-5.30262756

>  <minimizedRMSD>  (1) 
2.64429665

$$$$
