
     RDKit          3D

 48 53  0  0  1  0  0  0  0  0999 V2000
   38.2940   26.0410   31.0340 C   0  0  0  0  0  0  0  0  0  0  0  0
   38.1460   24.8300   30.4840 N   0  0  0  0  0  0  0  0  0  0  0  0
   39.1440   24.0750   30.8030 O   0  0  0  0  0  0  0  0  0  0  0  0
   39.9480   24.8350   31.5810 C   0  0  0  0  0  0  0  0  0  0  0  0
   39.4710   26.0720   31.7620 N   0  0  0  0  0  0  0  0  0  0  0  0
   41.1940   29.1120   28.9140 C   0  0  0  0  0  0  0  0  0  0  0  0
   41.0150   28.8550   27.5260 C   0  0  0  0  0  0  0  0  0  0  0  0
   39.7950   28.4020   27.0880 C   0  0  0  0  0  0  0  0  0  0  0  0
   38.8150   28.2240   28.0280 N   0  0  0  0  0  0  0  0  0  0  0  0
   39.0310   28.4820   29.3370 C   0  0  0  0  0  0  0  0  0  0  0  0
   40.1900   28.9160   29.7800 N   0  0  0  0  0  0  0  0  0  0  0  0
   37.9120   28.2500   30.2020 N   0  0  0  0  0  0  0  0  0  0  0  0
   37.0770   29.2530   30.2690 N   0  0  0  0  0  0  0  0  0  0  0  0
   36.0680   28.9230   31.1070 C   0  0  0  0  0  0  0  0  0  0  0  0
   36.2950   27.6670   31.5740 C   0  0  0  0  0  0  0  0  0  0  0  0
   37.4720   27.2490   30.9900 C   0  0  0  0  0  0  0  0  0  0  0  0
   42.4620   29.5860   29.3850 N   0  0  0  0  0  0  0  0  0  0  0  0
   41.2370   24.3490   32.1810 C   0  0  2  0  0  0  0  0  0  0  0  0
   42.0350   23.3070   31.4360 C   0  0  0  0  0  0  0  0  0  0  0  0
   41.3380   22.9900   32.7510 C   0  0  1  0  0  0  0  0  0  0  0  0
   42.2670   22.6600   33.8670 C   0  0  0  0  0  0  0  0  0  0  0  0
   42.1650   23.6310   35.0220 C   0  0  0  0  0  0  0  0  0  0  0  0
   41.2900   23.1780   36.0550 N   0  0  0  0  0  0  0  0  0  0  0  0
   41.5290   22.2680   37.0100 C   0  0  0  0  0  0  0  0  0  0  0  0
   40.4050   22.1840   37.7420 N   0  0  0  0  0  0  0  0  0  0  0  0
   39.4670   23.0120   37.2780 C   0  0  0  0  0  0  0  0  0  0  0  0
   38.1690   23.3210   37.6380 C   0  0  0  0  0  0  0  0  0  0  0  0
   37.4770   24.2340   36.9330 N   0  0  0  0  0  0  0  0  0  0  0  0
   38.0540   24.8530   35.8690 C   0  0  0  0  0  0  0  0  0  0  0  0
   39.3130   24.5950   35.4710 N   0  0  0  0  0  0  0  0  0  0  0  0
   40.0240   23.6710   36.1770 C   0  0  0  0  0  0  0  0  0  0  0  0
   41.8397   29.0164   26.8162 H   0  0  0  0  0  0  0  0  0  0  0  0
   39.6120   28.1904   26.0242 H   0  0  0  0  0  0  0  0  0  0  0  0
   35.2107   29.5616   31.3661 H   0  0  0  0  0  0  0  0  0  0  0  0
   35.6668   27.0989   32.2759 H   0  0  0  0  0  0  0  0  0  0  0  0
   43.2344   29.7371   28.7206 H   0  0  0  0  0  0  0  0  0  0  0  0
   42.6008   29.7756   30.3879 H   0  0  0  0  0  0  0  0  0  0  0  0
   41.4407   25.3547   32.5773 H   0  0  0  0  0  0  0  0  0  0  0  0
   41.6557   22.8881   30.4923 H   0  0  0  0  0  0  0  0  0  0  0  0
   43.0622   23.2289   31.0504 H   0  0  0  0  0  0  0  0  0  0  0  0
   40.5687   22.3017   33.1310 H   0  0  0  0  0  0  0  0  0  0  0  0
   42.0300   21.6507   34.2346 H   0  0  0  0  0  0  0  0  0  0  0  0
   43.2922   22.7210   33.4731 H   0  0  0  0  0  0  0  0  0  0  0  0
   43.1683   23.7737   35.4498 H   0  0  0  0  0  0  0  0  0  0  0  0
   41.7500   24.5701   34.6271 H   0  0  0  0  0  0  0  0  0  0  0  0
   42.4599   21.7025   37.1639 H   0  0  0  0  0  0  0  0  0  0  0  0
   37.7025   22.8211   38.4997 H   0  0  0  0  0  0  0  0  0  0  0  0
   37.4667   25.5962   35.3098 H   0  0  0  0  0  0  0  0  0  0  0  0
  1  5  1  0
  2  3  1  0
  2  1  2  0
  3  4  1  0
  4  5  2  0
  4 18  1  0
  6 17  1  0
  6 11  2  0
  7  6  1  0
  8  7  2  0
  8  9  1  0
  9 10  2  0
 10 11  1  0
 10 12  1  0
 12 13  1  0
 12 16  1  0
 13 14  2  0
 14 15  1  0
 16  1  1  0
 16 15  2  0
 18 20  1  0
 19 18  1  0
 19 20  1  0
 20 21  1  0
 21 22  1  0
 22 23  1  0
 23 31  1  0
 23 24  1  0
 24 25  2  0
 26 27  2  0
 26 25  1  0
 28 27  1  0
 29 28  2  0
 30 29  1  0
 30 31  2  0
 31 26  1  0
  7 32  1  0
  8 33  1  0
 14 34  1  0
 15 35  1  0
 17 36  1  0
 17 37  1  0
 18 38  1  1
 19 39  1  0
 19 40  1  0
 20 41  1  6
 21 42  1  0
 21 43  1  0
 22 44  1  0
 22 45  1  0
 24 46  1  0
 27 47  1  0
 29 48  1  0
M  ISO  8  32  14  33  14  34  14  35  14  38  13  39  13  40  13  41  13
M  ISO  7  42   8  43   8  44   8  45   8  46  14  47  14  48  14
M  END
>  <minimizedAffinity>  (1) 
-4.77886009

>  <minimizedRMSD>  (1) 
5.46913052

$$$$
