
     RDKit          3D

 22 22  0  0  0  0  0  0  0  0999 V2000
   41.6450   21.6410   37.0630 C   0  0  0  0  0  0  0  0  0  0  0  0
   40.5410   22.2970   37.6280 C   0  0  0  0  0  0  0  0  0  0  0  0
   39.6020   22.8740   36.7550 C   0  0  0  0  0  0  0  0  0  0  0  0
   39.8050   22.7700   35.4110 N   0  0  0  0  0  0  0  0  0  0  0  0
   40.8820   22.1300   34.9110 C   0  0  0  0  0  0  0  0  0  0  0  0
   41.7990   21.5670   35.7210 N   0  0  0  0  0  0  0  0  0  0  0  0
   38.4100   23.5840   37.2380 C   0  0  0  0  0  0  0  0  0  0  0  0
   38.5460   23.6870   38.7580 C   0  0  0  0  0  0  0  0  0  0  0  0
   38.2110   24.9440   36.6120 C   0  0  0  0  0  0  0  0  0  0  0  0
   37.1660   22.7640   36.9030 C   0  0  0  0  0  0  0  0  0  0  0  0
   42.3964   21.1800   37.7209 H   0  0  0  0  0  0  0  0  0  0  0  0
   40.4141   22.3579   38.7190 H   0  0  0  0  0  0  0  0  0  0  0  0
   41.0139   22.0667   33.8208 H   0  0  0  0  0  0  0  0  0  0  0  0
   37.7570   23.0895   39.2380 H   0  0  0  0  0  0  0  0  0  0  0  0
   39.5316   23.3068   39.0645 H   0  0  0  0  0  0  0  0  0  0  0  0
   38.4471   24.7388   39.0645 H   0  0  0  0  0  0  0  0  0  0  0  0
   38.1005   25.6995   37.4038 H   0  0  0  0  0  0  0  0  0  0  0  0
   39.0825   25.1915   35.9881 H   0  0  0  0  0  0  0  0  0  0  0  0
   37.3051   24.9315   35.9881 H   0  0  0  0  0  0  0  0  0  0  0  0
   36.6774   22.4419   37.8344 H   0  0  0  0  0  0  0  0  0  0  0  0
   36.4680   23.3796   36.3167 H   0  0  0  0  0  0  0  0  0  0  0  0
   37.4566   21.8798   36.3167 H   0  0  0  0  0  0  0  0  0  0  0  0
  1  2  2  0
  3  7  1  0
  3  2  1  0
  4  3  2  0
  5  4  1  0
  5  6  2  0
  6  1  1  0
  7  8  1  0
  9  7  1  0
 10  7  1  0
  1 11  1  0
  2 12  1  0
  5 13  1  0
  8 14  1  0
  8 15  1  0
  8 16  1  0
  9 17  1  0
  9 18  1  0
  9 19  1  0
 10 20  1  0
 10 21  1  0
 10 22  1  0
M  ISO  8  11  14  12  14  13  14  14   8  15   8  16   8  17   8  18   8
M  ISO  4  19   8  20   8  21   8  22   8
M  END
>  <minimizedAffinity>  (1) 
-3.27101564

>  <minimizedRMSD>  (1) 
2.27988458

$$$$
