
     RDKit          3D

 24 25  0  0  0  0  0  0  0  0999 V2000
   37.8620   21.0080   32.0970 C   0  0  0  0  0  0  0  0  0  0  0  0
   36.7900   21.1590   32.9510 C   0  0  0  0  0  0  0  0  0  0  0  0
   37.0790   21.6310   34.2150 C   0  0  0  0  0  0  0  0  0  0  0  0
   38.3390   21.9460   34.6500 C   0  0  0  0  0  0  0  0  0  0  0  0
   39.3840   21.7760   33.7520 C   0  0  0  0  0  0  0  0  0  0  0  0
   39.1730   21.3050   32.4590 C   0  0  0  0  0  0  0  0  0  0  0  0
   39.9400   22.7960   37.8390 C   0  0  0  0  0  0  0  0  0  0  0  0
   38.8930   23.3950   38.5620 C   0  0  0  0  0  0  0  0  0  0  0  0
   37.6510   23.4960   37.9380 C   0  0  0  0  0  0  0  0  0  0  0  0
   37.5190   23.0140   36.6730 N   0  0  0  0  0  0  0  0  0  0  0  0
   38.5610   22.4430   36.0120 C   0  0  0  0  0  0  0  0  0  0  0  0
   39.7660   22.3260   36.5750 N   0  0  0  0  0  0  0  0  0  0  0  0
   37.5530   20.4190   30.4970 S   0  0  0  0  0  0  0  0  0  0  0  0
   38.5890   20.8640   29.5020 O   0  0  0  0  0  0  0  0  0  0  0  0
   37.4670   18.9210   30.5720 O   0  0  0  0  0  0  0  0  0  0  0  0
   35.1110   20.7900   32.5230 S   0  0  0  0  0  0  0  0  0  0  0  0
   36.2437   21.7628   34.9186 H   0  0  0  0  0  0  0  0  0  0  0  0
   40.4079   22.0204   34.0712 H   0  0  0  0  0  0  0  0  0  0  0  0
   40.0066   21.1732   31.7535 H   0  0  0  0  0  0  0  0  0  0  0  0
   40.9297   22.7049   38.3103 H   0  0  0  0  0  0  0  0  0  0  0  0
   39.0489   23.7706   39.5841 H   0  0  0  0  0  0  0  0  0  0  0  0
   36.7966   23.9552   38.4569 H   0  0  0  0  0  0  0  0  0  0  0  0
   36.3726   20.9455   30.0428 H   0  0  0  0  0  0  0  0  0  0  0  0
   34.3734   20.6279   33.6661 H   0  0  0  0  0  0  0  0  0  0  0  0
  1  6  2  0
  1  2  1  0
  2  3  2  0
  3  4  1  0
  4 11  1  0
  5  4  2  0
  6  5  1  0
  7  8  2  0
  9  8  1  0
 10  9  2  0
 11 12  2  0
 11 10  1  0
 12  7  1  0
 13 15  2  0
 13  1  1  0
 14 13  2  0
 16  2  1  0
  3 17  1  0
  5 18  1  0
  6 19  1  0
  7 20  1  0
  8 21  1  0
  9 22  1  0
 13 23  1  0
 16 24  1  0
M  ISO  8  17  14  18  14  19  14  20  14  21  14  22  14  23  11  24  11
M  END
>  <minimizedAffinity>  (1) 
-3.97724724

>  <minimizedRMSD>  (1) 
1.79988694

$$$$
