
     RDKit          3D

 33 35  0  0  0  0  0  0  0  0999 V2000
   36.7110   25.5680   32.0750 C   0  0  0  0  0  0  0  0  0  0  0  0
   37.5320   24.7580   32.8450 C   0  0  0  0  0  0  0  0  0  0  0  0
   37.2700   23.4030   32.7930 C   0  0  0  0  0  0  0  0  0  0  0  0
   36.2800   22.8430   32.0470 C   0  0  0  0  0  0  0  0  0  0  0  0
   35.4880   23.7070   31.2950 C   0  0  0  0  0  0  0  0  0  0  0  0
   35.6790   25.0780   31.2870 C   0  0  0  0  0  0  0  0  0  0  0  0
   35.4580   19.4260   33.0510 C   0  0  0  0  0  0  0  0  0  0  0  0
   35.7010   18.6780   31.8990 C   0  0  0  0  0  0  0  0  0  0  0  0
   36.1480   19.3810   30.7940 C   0  0  0  0  0  0  0  0  0  0  0  0
   36.3310   20.7250   30.8590 N   0  0  0  0  0  0  0  0  0  0  0  0
   36.0700   21.3930   32.0300 C   0  0  0  0  0  0  0  0  0  0  0  0
   35.6340   20.7730   33.1430 N   0  0  0  0  0  0  0  0  0  0  0  0
   37.0090   27.2780   32.1000 S   0  0  0  0  0  0  0  0  0  0  0  0
   36.6090   27.9550   30.8180 O   0  0  0  0  0  0  0  0  0  0  0  0
   36.2990   27.8330   33.2860 O   0  0  0  0  0  0  0  0  0  0  0  0
   38.8430   25.3450   33.8680 S   0  0  0  0  0  0  0  0  0  0  0  0
   38.6890   24.6060   35.4860 C   0  0  0  0  0  0  0  0  0  0  0  0
   39.7050   23.6990   35.7570 C   0  0  0  0  0  0  0  0  0  0  0  0
   39.7580   23.0190   36.9690 C   0  0  0  0  0  0  0  0  0  0  0  0
   38.7720   23.2660   37.9040 C   0  0  0  0  0  0  0  0  0  0  0  0
   37.7880   24.1690   37.5950 C   0  0  0  0  0  0  0  0  0  0  0  0
   37.7460   24.8200   36.4220 N   0  0  0  0  0  0  0  0  0  0  0  0
   37.9029   22.7333   33.3938 H   0  0  0  0  0  0  0  0  0  0  0  0
   34.6783   23.2831   30.6829 H   0  0  0  0  0  0  0  0  0  0  0  0
   35.0444   25.7459   30.6860 H   0  0  0  0  0  0  0  0  0  0  0  0
   35.1006   18.8924   33.9441 H   0  0  0  0  0  0  0  0  0  0  0  0
   35.5459   17.5894   31.8704 H   0  0  0  0  0  0  0  0  0  0  0  0
   36.3568   18.8468   29.8554 H   0  0  0  0  0  0  0  0  0  0  0  0
   38.3540   27.5168   32.2039 H   0  0  0  0  0  0  0  0  0  0  0  0
   40.4815   23.5152   34.9998 H   0  0  0  0  0  0  0  0  0  0  0  0
   40.5656   22.3019   37.1778 H   0  0  0  0  0  0  0  0  0  0  0  0
   38.7762   22.7495   38.8752 H   0  0  0  0  0  0  0  0  0  0  0  0
   37.0016   24.3680   38.3379 H   0  0  0  0  0  0  0  0  0  0  0  0
  1 13  1  0
  1  2  2  0
  2 16  1  0
  3  2  1  0
  4  3  2  0
  5  4  1  0
  6  5  2  0
  6  1  1  0
  7 12  2  0
  8  7  1  0
  9 10  1  0
  9  8  2  0
 10 11  2  0
 11  4  1  0
 11 12  1  0
 13 15  2  0
 14 13  2  0
 16 17  1  0
 17 18  2  0
 17 22  1  0
 18 19  1  0
 19 20  2  0
 21 20  1  0
 22 21  2  0
  3 23  1  0
  5 24  1  0
  6 25  1  0
  7 26  1  0
  8 27  1  0
  9 28  1  0
 13 29  1  0
 18 30  1  0
 19 31  1  0
 20 32  1  0
 21 33  1  0
M  ISO  8  23  14  24  14  25  14  26  14  27  14  28  14  29  11  30  14
M  ISO  3  31  14  32  14  33  14
M  END
>  <minimizedAffinity>  (1) 
-5.52896309

>  <minimizedRMSD>  (1) 
6.85207367

$$$$
