
     RDKit          3D

 40 42  0  0  0  0  0  0  0  0999 V2000
   38.7670   23.9790   31.6830 C   0  0  0  0  0  0  0  0  0  0  0  0
   37.6100   23.6150   32.3280 C   0  0  0  0  0  0  0  0  0  0  0  0
   37.7050   23.4910   33.7070 C   0  0  0  0  0  0  0  0  0  0  0  0
   38.8400   23.7020   34.4270 C   0  0  0  0  0  0  0  0  0  0  0  0
   39.9850   24.0690   33.7180 C   0  0  0  0  0  0  0  0  0  0  0  0
   39.9830   24.2180   32.3300 C   0  0  0  0  0  0  0  0  0  0  0  0
   39.8650   22.8020   37.8310 C   0  0  0  0  0  0  0  0  0  0  0  0
   38.8490   23.3520   38.6150 C   0  0  0  0  0  0  0  0  0  0  0  0
   37.8180   24.0290   37.9540 C   0  0  0  0  0  0  0  0  0  0  0  0
   37.8580   24.1160   36.5970 N   0  0  0  0  0  0  0  0  0  0  0  0
   38.8770   23.5590   35.8770 C   0  0  0  0  0  0  0  0  0  0  0  0
   39.8620   22.9140   36.4810 N   0  0  0  0  0  0  0  0  0  0  0  0
   38.7120   24.1510   29.9610 S   0  0  0  0  0  0  0  0  0  0  0  0
   39.4050   25.3930   29.4660 O   0  0  0  0  0  0  0  0  0  0  0  0
   39.2600   22.9030   29.3600 O   0  0  0  0  0  0  0  0  0  0  0  0
   36.0640   23.3140   31.5450 S   0  0  0  0  0  0  0  0  0  0  0  0
   35.7420   21.5700   31.2330 C   0  0  0  0  0  0  0  0  0  0  0  0
   35.0310   21.0090   32.4470 C   0  0  0  0  0  0  0  0  0  0  0  0
   34.5490   19.6310   32.0980 C   0  0  0  0  0  0  0  0  0  0  0  0
   35.7300   18.7470   31.8680 C   0  0  0  0  0  0  0  0  0  0  0  0
   37.0310   19.4460   31.6670 C   0  0  0  0  0  0  0  0  0  0  0  0
   36.9550   20.7540   30.9510 C   0  0  0  0  0  0  0  0  0  0  0  0
   36.7977   23.2014   34.2573 H   0  0  0  0  0  0  0  0  0  0  0  0
   40.9192   24.2466   34.2709 H   0  0  0  0  0  0  0  0  0  0  0  0
   40.8882   24.5075   31.7760 H   0  0  0  0  0  0  0  0  0  0  0  0
   40.6891   22.2639   38.3222 H   0  0  0  0  0  0  0  0  0  0  0  0
   38.8586   23.2567   39.7108 H   0  0  0  0  0  0  0  0  0  0  0  0
   36.9912   24.4821   38.5207 H   0  0  0  0  0  0  0  0  0  0  0  0
   37.4118   24.3210   29.5642 H   0  0  0  0  0  0  0  0  0  0  0  0
   35.1323   21.5118   30.3193 H   0  0  0  0  0  0  0  0  0  0  0  0
   35.7262   20.9583   33.2980 H   0  0  0  0  0  0  0  0  0  0  0  0
   34.1850   21.6528   32.7294 H   0  0  0  0  0  0  0  0  0  0  0  0
   33.9445   19.2311   32.9255 H   0  0  0  0  0  0  0  0  0  0  0  0
   33.9326   19.6722   31.1879 H   0  0  0  0  0  0  0  0  0  0  0  0
   35.8328   18.0862   32.7414 H   0  0  0  0  0  0  0  0  0  0  0  0
   35.5272   18.2144   30.9271 H   0  0  0  0  0  0  0  0  0  0  0  0
   37.4747   19.6271   32.6571 H   0  0  0  0  0  0  0  0  0  0  0  0
   37.6323   18.7853   31.0252 H   0  0  0  0  0  0  0  0  0  0  0  0
   36.9829   20.5508   29.8703 H   0  0  0  0  0  0  0  0  0  0  0  0
   37.8082   21.3464   31.3132 H   0  0  0  0  0  0  0  0  0  0  0  0
  1  2  2  0
  1  6  1  0
  2  3  1  0
  3  4  2  0
  4 11  1  0
  5  4  1  0
  6  5  2  0
  7  8  2  0
  9  8  1  0
 10  9  2  0
 11 12  2  0
 11 10  1  0
 12  7  1  0
 13  1  1  0
 14 13  2  0
 15 13  2  0
 16  2  1  0
 17 16  1  0
 17 18  1  0
 19 18  1  0
 20 19  1  0
 21 20  1  0
 22 17  1  0
 22 21  1  0
  3 23  1  0
  5 24  1  0
  6 25  1  0
  7 26  1  0
  8 27  1  0
  9 28  1  0
 13 29  1  0
 17 30  1  0
 18 31  1  0
 18 32  1  0
 19 33  1  0
 19 34  1  0
 20 35  1  0
 20 36  1  0
 21 37  1  0
 21 38  1  0
 22 39  1  0
 22 40  1  0
M  ISO  8  23  14  24  14  25  14  26  14  27  14  28  14  29  11  30  13
M  ISO  8  31  13  32  13  33  13  34  13  35  13  36  13  37  13  38  13
M  ISO  2  39  13  40  13
M  END
>  <minimizedAffinity>  (1) 
-5.0847106

>  <minimizedRMSD>  (1) 
2.79123712

$$$$
