
     RDKit          3D

 36 37  0  0  0  0  0  0  0  0999 V2000
   38.6840   22.7640   31.9520 C   0  0  0  0  0  0  0  0  0  0  0  0
   38.1370   21.7980   32.7540 C   0  0  0  0  0  0  0  0  0  0  0  0
   38.2200   22.0080   34.1220 C   0  0  0  0  0  0  0  0  0  0  0  0
   38.8010   23.0970   34.7010 C   0  0  0  0  0  0  0  0  0  0  0  0
   39.3460   24.0590   33.8460 C   0  0  0  0  0  0  0  0  0  0  0  0
   39.3000   23.9140   32.4670 C   0  0  0  0  0  0  0  0  0  0  0  0
   39.7960   22.8940   38.2250 C   0  0  0  0  0  0  0  0  0  0  0  0
   38.8190   23.6880   38.8600 C   0  0  0  0  0  0  0  0  0  0  0  0
   37.8450   24.2720   38.0680 C   0  0  0  0  0  0  0  0  0  0  0  0
   37.9020   24.0360   36.7340 N   0  0  0  0  0  0  0  0  0  0  0  0
   38.8530   23.2680   36.1540 C   0  0  0  0  0  0  0  0  0  0  0  0
   39.8020   22.6930   36.8760 N   0  0  0  0  0  0  0  0  0  0  0  0
   38.6420   22.5570   30.2390 S   0  0  0  0  0  0  0  0  0  0  0  0
   38.6600   23.8500   29.4860 O   0  0  0  0  0  0  0  0  0  0  0  0
   39.8410   21.7110   29.8560 O   0  0  0  0  0  0  0  0  0  0  0  0
   37.3810   20.3270   32.1610 S   0  0  0  0  0  0  0  0  0  0  0  0
   35.7700   19.9550   32.8110 C   0  0  0  0  0  0  0  0  0  0  0  0
   35.5140   20.4060   34.2240 C   0  0  0  0  0  0  0  0  0  0  0  0
   35.3910   18.4920   32.6740 C   0  0  0  0  0  0  0  0  0  0  0  0
   34.7540   20.7100   31.9400 C   0  0  0  0  0  0  0  0  0  0  0  0
   37.7878   21.2442   34.7851 H   0  0  0  0  0  0  0  0  0  0  0  0
   39.8226   24.9520   34.2766 H   0  0  0  0  0  0  0  0  0  0  0  0
   39.7319   24.6749   31.8003 H   0  0  0  0  0  0  0  0  0  0  0  0
   40.5784   22.4216   38.8372 H   0  0  0  0  0  0  0  0  0  0  0  0
   38.8303   23.8386   39.9496 H   0  0  0  0  0  0  0  0  0  0  0  0
   37.0560   24.9026   38.5038 H   0  0  0  0  0  0  0  0  0  0  0  0
   37.4618   21.9488   29.9012 H   0  0  0  0  0  0  0  0  0  0  0  0
   35.9322   19.6692   34.9255 H   0  0  0  0  0  0  0  0  0  0  0  0
   35.9924   21.3826   34.3896 H   0  0  0  0  0  0  0  0  0  0  0  0
   34.4302   20.4959   34.3896 H   0  0  0  0  0  0  0  0  0  0  0  0
   35.2759   18.0479   33.6738 H   0  0  0  0  0  0  0  0  0  0  0  0
   34.4417   18.4091   32.1245 H   0  0  0  0  0  0  0  0  0  0  0  0
   36.1806   17.9586   32.1245 H   0  0  0  0  0  0  0  0  0  0  0  0
   34.0397   21.2408   32.5865 H   0  0  0  0  0  0  0  0  0  0  0  0
   35.2832   21.4357   31.3050 H   0  0  0  0  0  0  0  0  0  0  0  0
   34.2118   19.9940   31.3050 H   0  0  0  0  0  0  0  0  0  0  0  0
  1  6  2  0
  1  2  1  0
  2  3  2  0
  3  4  1  0
  4 11  1  0
  5  4  2  0
  6  5  1  0
  7  8  2  0
  9  8  1  0
 10  9  2  0
 11 10  1  0
 11 12  2  0
 12  7  1  0
 13  1  1  0
 14 13  2  0
 15 13  2  0
 16  2  1  0
 16 17  1  0
 17 18  1  0
 19 17  1  0
 20 17  1  0
  3 21  1  0
  5 22  1  0
  6 23  1  0
  7 24  1  0
  8 25  1  0
  9 26  1  0
 13 27  1  0
 18 28  1  0
 18 29  1  0
 18 30  1  0
 19 31  1  0
 19 32  1  0
 19 33  1  0
 20 34  1  0
 20 35  1  0
 20 36  1  0
M  ISO  8  21  14  22  14  23  14  24  14  25  14  26  14  27  11  28   8
M  ISO  8  29   8  30   8  31   8  32   8  33   8  34   8  35   8  36   8
M  END
>  <minimizedAffinity>  (1) 
-4.53715706

>  <minimizedRMSD>  (1) 
2.3036561

$$$$
