
     RDKit          3D

 36 38  0  0  1  0  0  0  0  0999 V2000
   37.2460   22.3560   32.7440 C   0  0  0  0  0  0  0  0  0  0  0  0
   38.0990   23.3090   32.2180 C   0  0  0  0  0  0  0  0  0  0  0  0
   39.2100   23.5810   32.9850 C   0  0  0  0  0  0  0  0  0  0  0  0
   39.5260   23.0090   34.1770 C   0  0  0  0  0  0  0  0  0  0  0  0
   38.6330   22.0550   34.6640 C   0  0  0  0  0  0  0  0  0  0  0  0
   37.4800   21.7080   33.9640 C   0  0  0  0  0  0  0  0  0  0  0  0
   42.2890   23.0010   36.5750 C   0  0  0  0  0  0  0  0  0  0  0  0
   43.0220   24.1340   36.2160 C   0  0  0  0  0  0  0  0  0  0  0  0
   42.5490   24.8830   35.1530 C   0  0  0  0  0  0  0  0  0  0  0  0
   41.4100   24.4920   34.5110 N   0  0  0  0  0  0  0  0  0  0  0  0
   40.7330   23.3690   34.9090 C   0  0  0  0  0  0  0  0  0  0  0  0
   41.1560   22.6280   35.9220 N   0  0  0  0  0  0  0  0  0  0  0  0
   35.8250   21.9350   31.8640 S   0  0  0  0  0  0  0  0  0  0  0  0
   36.1020   21.0190   30.6990 O   0  0  0  0  0  0  0  0  0  0  0  0
   34.8420   21.3550   32.8240 O   0  0  0  0  0  0  0  0  0  0  0  0
   37.8180   24.1390   30.6940 S   0  0  0  0  0  0  0  0  0  0  0  0
   36.4920   25.8990   32.2550 N   0  0  0  0  0  0  0  0  0  0  0  0
   36.8310   27.0900   32.9560 C   0  0  0  0  0  0  0  0  0  0  0  0
   38.3090   27.2690   32.6320 C   0  0  0  0  0  0  0  0  0  0  0  0
   38.3660   26.7950   31.1680 C   0  0  0  0  0  0  0  0  0  0  0  0
   37.2240   25.8220   31.0380 C   0  0  1  0  0  0  0  0  0  0  0  0
   39.9100   24.3346   32.5950 H   0  0  0  0  0  0  0  0  0  0  0  0
   38.8446   21.5641   35.6254 H   0  0  0  0  0  0  0  0  0  0  0  0
   36.7801   20.9543   34.3539 H   0  0  0  0  0  0  0  0  0  0  0  0
   42.6411   22.3874   37.4173 H   0  0  0  0  0  0  0  0  0  0  0  0
   43.9371   24.4192   36.7556 H   0  0  0  0  0  0  0  0  0  0  0  0
   43.0866   25.7860   34.8282 H   0  0  0  0  0  0  0  0  0  0  0  0
   35.3011   23.0640   31.2914 H   0  0  0  0  0  0  0  0  0  0  0  0
   36.7187   25.0828   32.8409 H   0  0  0  0  0  0  0  0  0  0  0  0
   36.2404   27.9441   32.5931 H   0  0  0  0  0  0  0  0  0  0  0  0
   36.6278   27.0306   34.0354 H   0  0  0  0  0  0  0  0  0  0  0  0
   38.6156   28.3213   32.7252 H   0  0  0  0  0  0  0  0  0  0  0  0
   38.9839   26.7209   33.3059 H   0  0  0  0  0  0  0  0  0  0  0  0
   38.2336   27.6430   30.4800 H   0  0  0  0  0  0  0  0  0  0  0  0
   39.3340   26.3376   30.9154 H   0  0  0  0  0  0  0  0  0  0  0  0
   36.5778   26.0777   30.1853 H   0  0  0  0  0  0  0  0  0  0  0  0
  1  6  2  0
  2  1  1  0
  2  3  2  0
  3  4  1  0
  4  5  2  0
  4 11  1  0
  6  5  1  0
  8  7  2  0
  9  8  1  0
 10 11  1  0
 10  9  2  0
 11 12  2  0
 12  7  1  0
 13  1  1  0
 13 15  2  0
 14 13  2  0
 16  2  1  0
 17 18  1  0
 19 18  1  0
 20 19  1  0
 21 16  1  0
 21 20  1  0
 21 17  1  0
  3 22  1  0
  5 23  1  0
  6 24  1  0
  7 25  1  0
  8 26  1  0
  9 27  1  0
 13 28  1  0
 17 29  1  0
 18 30  1  0
 18 31  1  0
 19 32  1  0
 19 33  1  0
 20 34  1  0
 20 35  1  0
 21 36  1  6
M  ISO  8  22  14  23  14  24  14  25  14  26  14  27  14  28  11  29   5
M  ISO  7  30  13  31  13  32  13  33  13  34  13  35  13  36  13
M  END
>  <minimizedAffinity>  (1) 
-3.97558379

>  <minimizedRMSD>  (1) 
4.43051195

$$$$
