
     RDKit          3D

 35 37  0  0  0  0  0  0  0  0999 V2000
   38.3850   22.5820   32.0610 C   0  0  0  0  0  0  0  0  0  0  0  0
   37.7300   21.7490   32.9020 C   0  0  0  0  0  0  0  0  0  0  0  0
   37.8470   21.9870   34.2560 C   0  0  0  0  0  0  0  0  0  0  0  0
   38.5790   23.0050   34.7740 C   0  0  0  0  0  0  0  0  0  0  0  0
   39.2280   23.8360   33.8820 C   0  0  0  0  0  0  0  0  0  0  0  0
   39.1400   23.6350   32.5080 C   0  0  0  0  0  0  0  0  0  0  0  0
   39.7790   22.8880   38.2410 C   0  0  0  0  0  0  0  0  0  0  0  0
   38.8030   23.6240   38.9180 C   0  0  0  0  0  0  0  0  0  0  0  0
   37.7580   24.1450   38.1680 C   0  0  0  0  0  0  0  0  0  0  0  0
   37.7170   23.9250   36.8260 N   0  0  0  0  0  0  0  0  0  0  0  0
   38.6960   23.1990   36.2200 C   0  0  0  0  0  0  0  0  0  0  0  0
   39.7190   22.6820   36.9060 N   0  0  0  0  0  0  0  0  0  0  0  0
   38.4370   22.4040   30.3770 S   0  0  0  0  0  0  0  0  0  0  0  0
   38.4430   23.7110   29.6050 O   0  0  0  0  0  0  0  0  0  0  0  0
   38.4700   21.0890   29.9180 O   0  0  0  0  0  0  0  0  0  0  0  0
   40.2030   22.3670   29.9920 C   0  0  0  0  0  0  0  0  0  0  0  0
   41.1210   21.4710   30.3390 C   0  0  0  0  0  0  0  0  0  0  0  0
   42.4560   21.5670   30.0220 C   0  0  0  0  0  0  0  0  0  0  0  0
   42.8100   22.6350   29.3260 N   0  0  0  0  0  0  0  0  0  0  0  0
   41.9800   23.5840   28.9310 C   0  0  0  0  0  0  0  0  0  0  0  0
   40.7090   23.4210   29.2750 N   0  0  0  0  0  0  0  0  0  0  0  0
   36.7440   20.3880   32.3290 S   0  0  0  0  0  0  0  0  0  0  0  0
   35.1220   20.9340   31.8160 C   0  0  0  0  0  0  0  0  0  0  0  0
   34.1680   19.9500   31.9670 F   0  0  0  0  0  0  0  0  0  0  0  0
   34.7170   21.9590   32.6740 F   0  0  0  0  0  0  0  0  0  0  0  0
   35.2090   21.3870   30.5220 F   0  0  0  0  0  0  0  0  0  0  0  0
   37.3198   21.3170   34.9511 H   0  0  0  0  0  0  0  0  0  0  0  0
   39.8273   24.6747   34.2660 H   0  0  0  0  0  0  0  0  0  0  0  0
   39.6599   24.3001   31.8028 H   0  0  0  0  0  0  0  0  0  0  0  0
   40.6197   22.4643   38.8101 H   0  0  0  0  0  0  0  0  0  0  0  0
   38.8608   23.7844   40.0047 H   0  0  0  0  0  0  0  0  0  0  0  0
   36.9668   24.7329   38.6561 H   0  0  0  0  0  0  0  0  0  0  0  0
   40.7917   20.5953   30.9176 H   0  0  0  0  0  0  0  0  0  0  0  0
   43.1849   20.8023   30.3285 H   0  0  0  0  0  0  0  0  0  0  0  0
   42.3215   24.4552   28.3528 H   0  0  0  0  0  0  0  0  0  0  0  0
  1  6  1  0
  1  2  2  0
  2  3  1  0
  3  4  2  0
  4 11  1  0
  5  4  1  0
  6  5  2  0
  7  8  2  0
  9  8  1  0
 10  9  2  0
 11 10  1  0
 11 12  2  0
 12  7  1  0
 13  1  1  0
 14 13  2  0
 15 13  2  0
 16 17  2  0
 16 13  1  0
 18 17  1  0
 19 18  2  0
 20 21  2  0
 20 19  1  0
 21 16  1  0
 22  2  1  0
 23 24  1  0
 23 22  1  0
 23 25  1  0
 26 23  1  0
  3 27  1  0
  5 28  1  0
  6 29  1  0
  7 30  1  0
  8 31  1  0
  9 32  1  0
 17 33  1  0
 18 34  1  0
 20 35  1  0
M  ISO  8  27  14  28  14  29  14  30  14  31  14  32  14  33  14  34  14
M  ISO  1  35  14
M  END
>  <minimizedAffinity>  (1) 
-4.54852486

>  <minimizedRMSD>  (1) 
0.47964555

$$$$
