
     RDKit          3D

 34 36  0  0  0  0  0  0  0  0999 V2000
   38.7770   21.4610   31.9410 C   0  0  0  0  0  0  0  0  0  0  0  0
   37.7990   21.0240   32.8100 C   0  0  0  0  0  0  0  0  0  0  0  0
   37.8200   21.4480   34.1210 C   0  0  0  0  0  0  0  0  0  0  0  0
   38.7790   22.2940   34.5970 C   0  0  0  0  0  0  0  0  0  0  0  0
   39.7710   22.7360   33.7070 C   0  0  0  0  0  0  0  0  0  0  0  0
   39.7810   22.3310   32.3820 C   0  0  0  0  0  0  0  0  0  0  0  0
   39.7080   22.9520   38.0930 C   0  0  0  0  0  0  0  0  0  0  0  0
   38.6320   23.6810   38.5690 C   0  0  0  0  0  0  0  0  0  0  0  0
   37.6020   23.9380   37.6850 C   0  0  0  0  0  0  0  0  0  0  0  0
   37.6870   23.4710   36.4110 N   0  0  0  0  0  0  0  0  0  0  0  0
   38.7870   22.7490   35.9940 C   0  0  0  0  0  0  0  0  0  0  0  0
   39.7760   22.4940   36.8160 N   0  0  0  0  0  0  0  0  0  0  0  0
   38.8730   20.8090   30.3930 S   0  0  0  0  0  0  0  0  0  0  0  0
   39.0280   21.9730   29.3660 O   0  0  0  0  0  0  0  0  0  0  0  0
   40.0360   19.8910   30.3580 O   0  0  0  0  0  0  0  0  0  0  0  0
   37.8050   19.8410   29.5500 C   0  0  0  0  0  0  0  0  0  0  0  0
   38.0350   19.2350   28.1470 C   0  0  0  0  0  0  0  0  0  0  0  0
   38.3410   18.4140   29.2960 C   0  0  0  0  0  0  0  0  0  0  0  0
   36.4670   19.9600   32.2890 S   0  0  0  0  0  0  0  0  0  0  0  0
   35.0040   20.8930   31.8270 C   0  0  0  0  0  0  0  0  0  0  0  0
   33.8640   20.1400   31.8820 F   0  0  0  0  0  0  0  0  0  0  0  0
   34.8300   21.8870   32.7870 F   0  0  0  0  0  0  0  0  0  0  0  0
   35.1730   21.5520   30.6430 F   0  0  0  0  0  0  0  0  0  0  0  0
   37.0371   21.0924   34.8071 H   0  0  0  0  0  0  0  0  0  0  0  0
   40.5554   23.4170   34.0687 H   0  0  0  0  0  0  0  0  0  0  0  0
   40.5608   22.6854   31.6918 H   0  0  0  0  0  0  0  0  0  0  0  0
   40.5419   22.7347   38.7766 H   0  0  0  0  0  0  0  0  0  0  0  0
   38.5984   24.0408   39.6080 H   0  0  0  0  0  0  0  0  0  0  0  0
   36.7226   24.5142   38.0084 H   0  0  0  0  0  0  0  0  0  0  0  0
   36.9537   20.3927   29.9754 H   0  0  0  0  0  0  0  0  0  0  0  0
   38.8525   19.6158   27.5173 H   0  0  0  0  0  0  0  0  0  0  0  0
   37.4011   19.1012   27.2580 H   0  0  0  0  0  0  0  0  0  0  0  0
   37.7072   17.5455   29.5283 H   0  0  0  0  0  0  0  0  0  0  0  0
   39.2334   17.8619   29.6260 H   0  0  0  0  0  0  0  0  0  0  0  0
  1  6  1  0
  1  2  2  0
  2  3  1  0
  3  4  2  0
  4 11  1  0
  5  4  1  0
  6  5  2  0
  7  8  2  0
  9  8  1  0
 10  9  2  0
 11 10  1  0
 11 12  2  0
 12  7  1  0
 13  1  1  0
 14 13  2  0
 15 13  2  0
 16 13  1  0
 17 18  1  0
 17 16  1  0
 18 16  1  0
 19  2  1  0
 20 21  1  0
 20 19  1  0
 20 22  1  0
 23 20  1  0
  3 24  1  0
  5 25  1  0
  6 26  1  0
  7 27  1  0
  8 28  1  0
  9 29  1  0
 16 30  1  0
 17 31  1  0
 17 32  1  0
 18 33  1  0
 18 34  1  0
M  ISO  8  24  14  25  14  26  14  27  14  28  14  29  14  30  13  31  13
M  ISO  3  32  13  33  13  34  13
M  END
>  <minimizedAffinity>  (1) 
-4.40284061

>  <minimizedRMSD>  (1) 
0.797796011

$$$$
