
     RDKit          3D

 34 37  0  0  0  0  0  0  0  0999 V2000
   39.8910   22.6730   37.4660 C   0  0  0  0  0  0  0  0  0  0  0  0
   39.2250   23.4540   38.4660 C   0  0  0  0  0  0  0  0  0  0  0  0
   37.8250   23.6210   38.3440 C   0  0  0  0  0  0  0  0  0  0  0  0
   37.1840   23.0420   37.2960 N   0  0  0  0  0  0  0  0  0  0  0  0
   37.8550   22.3170   36.3760 C   0  0  0  0  0  0  0  0  0  0  0  0
   39.2030   22.1240   36.4490 N   0  0  0  0  0  0  0  0  0  0  0  0
   37.1990   21.6970   35.2680 N   0  0  0  0  0  0  0  0  0  0  0  0
   37.8320   21.7800   34.0530 C   0  0  0  0  0  0  0  0  0  0  0  0
   37.2120   21.1830   32.9750 C   0  0  0  0  0  0  0  0  0  0  0  0
   35.9850   20.5340   33.1730 C   0  0  0  0  0  0  0  0  0  0  0  0
   35.4450   20.0000   32.1660 O   0  0  0  0  0  0  0  0  0  0  0  0
   35.4200   20.4890   34.3810 N   0  0  0  0  0  0  0  0  0  0  0  0
   36.0190   21.0690   35.4450 C   0  0  0  0  0  0  0  0  0  0  0  0
   35.5520   21.0660   36.6010 O   0  0  0  0  0  0  0  0  0  0  0  0
   37.9490   21.2790   31.7200 C   0  0  0  0  0  0  0  0  0  0  0  0
   38.3880   20.0980   31.1970 N   0  0  0  0  0  0  0  0  0  0  0  0
   39.0720   20.0180   30.0460 C   0  0  0  0  0  0  0  0  0  0  0  0
   39.3430   21.1310   29.3760 N   0  0  0  0  0  0  0  0  0  0  0  0
   38.9380   22.3080   29.8430 C   0  0  0  0  0  0  0  0  0  0  0  0
   39.1930   23.4860   29.1640 C   0  0  0  0  0  0  0  0  0  0  0  0
   38.7460   24.7090   29.6720 C   0  0  0  0  0  0  0  0  0  0  0  0
   38.0380   24.7650   30.8650 C   0  0  0  0  0  0  0  0  0  0  0  0
   37.7570   23.6050   31.5880 C   0  0  0  0  0  0  0  0  0  0  0  0
   38.2250   22.4420   31.0310 C   0  0  0  0  0  0  0  0  0  0  0  0
   40.9785   22.5206   37.5309 H   0  0  0  0  0  0  0  0  0  0  0  0
   39.7822   23.9076   39.2989 H   0  0  0  0  0  0  0  0  0  0  0  0
   37.2654   24.2099   39.0856 H   0  0  0  0  0  0  0  0  0  0  0  0
   38.7944   22.3013   33.9433 H   0  0  0  0  0  0  0  0  0  0  0  0
   34.5180   20.0073   34.5040 H   0  0  0  0  0  0  0  0  0  0  0  0
   39.4042   19.0421   29.6622 H   0  0  0  0  0  0  0  0  0  0  0  0
   39.7519   23.4600   28.2169 H   0  0  0  0  0  0  0  0  0  0  0  0
   38.9574   25.6371   29.1207 H   0  0  0  0  0  0  0  0  0  0  0  0
   37.6936   25.7378   31.2458 H   0  0  0  0  0  0  0  0  0  0  0  0
   37.2002   23.6220   32.5365 H   0  0  0  0  0  0  0  0  0  0  0  0
  1  2  2  0
  3  2  1  0
  4  3  2  0
  5  6  2  0
  5  4  1  0
  6  1  1  0
  7 13  1  0
  7  5  1  0
  8  7  1  0
  9 10  1  0
  9  8  2  0
 10 12  1  0
 11 10  2  0
 12 13  1  0
 13 14  2  0
 15  9  1  0
 16 15  2  0
 17 16  1  0
 18 19  1  0
 18 17  2  0
 19 24  2  0
 20 21  2  0
 20 19  1  0
 21 22  1  0
 22 23  2  0
 24 23  1  0
 24 15  1  0
  1 25  1  0
  2 26  1  0
  3 27  1  0
  8 28  1  0
 12 29  1  0
 17 30  1  0
 20 31  1  0
 21 32  1  0
 22 33  1  0
 23 34  1  0
M  ISO  8  25  14  26  14  27  14  28  14  29   9  30  14  31  14  32  14
M  ISO  2  33  14  34  14
M  END
>  <minimizedAffinity>  (1) 
-5.7630291

>  <minimizedRMSD>  (1) 
1.15914166

$$$$
