
     RDKit          3D

 36 39  0  0  0  0  0  0  0  0999 V2000
   39.8660   22.7120   37.5990 C   0  0  0  0  0  0  0  0  0  0  0  0
   39.1870   23.5290   38.5490 C   0  0  0  0  0  0  0  0  0  0  0  0
   37.8140   23.7120   38.3620 C   0  0  0  0  0  0  0  0  0  0  0  0
   37.1960   23.1170   37.3070 N   0  0  0  0  0  0  0  0  0  0  0  0
   37.8700   22.3500   36.4270 C   0  0  0  0  0  0  0  0  0  0  0  0
   39.2060   22.1450   36.5690 N   0  0  0  0  0  0  0  0  0  0  0  0
   37.2610   21.7130   35.3130 N   0  0  0  0  0  0  0  0  0  0  0  0
   37.9280   21.7390   34.1340 C   0  0  0  0  0  0  0  0  0  0  0  0
   37.3460   21.1240   33.0470 C   0  0  0  0  0  0  0  0  0  0  0  0
   36.1080   20.5090   33.2100 C   0  0  0  0  0  0  0  0  0  0  0  0
   35.5750   19.9440   32.2080 O   0  0  0  0  0  0  0  0  0  0  0  0
   35.4850   20.5100   34.3970 N   0  0  0  0  0  0  0  0  0  0  0  0
   36.0690   21.1180   35.4590 C   0  0  0  0  0  0  0  0  0  0  0  0
   35.5450   21.1580   36.5980 O   0  0  0  0  0  0  0  0  0  0  0  0
   37.9850   21.0940   31.7240 C   0  0  0  0  0  0  0  0  0  0  0  0
   38.3760   19.9600   31.0200 C   0  0  0  0  0  0  0  0  0  0  0  0
   38.9640   20.0940   29.7880 C   0  0  0  0  0  0  0  0  0  0  0  0
   39.1730   21.3430   29.2370 C   0  0  0  0  0  0  0  0  0  0  0  0
   38.7830   22.4660   29.9400 C   0  0  0  0  0  0  0  0  0  0  0  0
   38.9960   23.7280   29.3780 C   0  0  0  0  0  0  0  0  0  0  0  0
   38.6260   24.8920   30.0370 C   0  0  0  0  0  0  0  0  0  0  0  0
   38.0340   24.7760   31.2750 C   0  0  0  0  0  0  0  0  0  0  0  0
   37.8240   23.5290   31.8290 C   0  0  0  0  0  0  0  0  0  0  0  0
   38.1890   22.3510   31.1820 C   0  0  0  0  0  0  0  0  0  0  0  0
   40.9472   22.5410   37.7079 H   0  0  0  0  0  0  0  0  0  0  0  0
   39.7195   23.9946   39.3914 H   0  0  0  0  0  0  0  0  0  0  0  0
   37.2374   24.3330   39.0634 H   0  0  0  0  0  0  0  0  0  0  0  0
   38.9053   22.2364   34.0471 H   0  0  0  0  0  0  0  0  0  0  0  0
   34.5685   20.0518   34.5016 H   0  0  0  0  0  0  0  0  0  0  0  0
   38.2144   18.9602   31.4493 H   0  0  0  0  0  0  0  0  0  0  0  0
   39.2727   19.1962   29.2324 H   0  0  0  0  0  0  0  0  0  0  0  0
   39.6452   21.4424   28.2485 H   0  0  0  0  0  0  0  0  0  0  0  0
   39.4692   23.8004   28.3876 H   0  0  0  0  0  0  0  0  0  0  0  0
   38.8006   25.8789   29.5835 H   0  0  0  0  0  0  0  0  0  0  0  0
   37.7278   25.6789   31.8236 H   0  0  0  0  0  0  0  0  0  0  0  0
   37.3502   23.4634   32.8195 H   0  0  0  0  0  0  0  0  0  0  0  0
  1  2  2  0
  3  2  1  0
  4  3  2  0
  5  6  2  0
  5  4  1  0
  6  1  1  0
  7 13  1  0
  7  5  1  0
  8  7  1  0
  9 10  1  0
  9  8  2  0
 10 12  1  0
 11 10  2  0
 12 13  1  0
 13 14  2  0
 15  9  1  0
 16 15  2  0
 17 16  1  0
 18 17  2  0
 18 19  1  0
 19 24  2  0
 20 19  1  0
 20 21  2  0
 21 22  1  0
 22 23  2  0
 24 15  1  0
 24 23  1  0
  1 25  1  0
  2 26  1  0
  3 27  1  0
  8 28  1  0
 12 29  1  0
 16 30  1  0
 17 31  1  0
 18 32  1  0
 20 33  1  0
 21 34  1  0
 22 35  1  0
 23 36  1  0
M  ISO  8  25  14  26  14  27  14  28  14  29   9  30  14  31  14  32  14
M  ISO  4  33  14  34  14  35  14  36  14
M  END
>  <minimizedAffinity>  (1) 
-5.75925303

>  <minimizedRMSD>  (1) 
0.470209867

$$$$
