
     RDKit          3D

 34 37  0  0  0  0  0  0  0  0999 V2000
   39.8680   22.7040   37.4640 C   0  0  0  0  0  0  0  0  0  0  0  0
   39.2240   23.4890   38.4470 C   0  0  0  0  0  0  0  0  0  0  0  0
   37.8250   23.6530   38.3190 C   0  0  0  0  0  0  0  0  0  0  0  0
   37.1860   23.0580   37.2790 N   0  0  0  0  0  0  0  0  0  0  0  0
   37.8610   22.3070   36.3550 C   0  0  0  0  0  0  0  0  0  0  0  0
   39.1970   22.1280   36.4420 N   0  0  0  0  0  0  0  0  0  0  0  0
   37.2000   21.6800   35.2600 N   0  0  0  0  0  0  0  0  0  0  0  0
   37.8290   21.7450   34.0610 C   0  0  0  0  0  0  0  0  0  0  0  0
   37.2090   21.1420   32.9800 C   0  0  0  0  0  0  0  0  0  0  0  0
   35.9880   20.5100   33.1760 C   0  0  0  0  0  0  0  0  0  0  0  0
   35.4310   19.9630   32.1770 O   0  0  0  0  0  0  0  0  0  0  0  0
   35.4040   20.4750   34.3940 N   0  0  0  0  0  0  0  0  0  0  0  0
   36.0170   21.0660   35.4490 C   0  0  0  0  0  0  0  0  0  0  0  0
   35.5500   21.0780   36.5950 O   0  0  0  0  0  0  0  0  0  0  0  0
   37.8910   21.2170   31.6940 C   0  0  0  0  0  0  0  0  0  0  0  0
   38.3440   20.2120   30.8410 C   0  0  0  0  0  0  0  0  0  0  0  0
   38.9130   20.8220   29.7690 N   0  0  0  0  0  0  0  0  0  0  0  0
   38.8450   22.1640   29.9000 C   0  0  0  0  0  0  0  0  0  0  0  0
   39.2690   23.2120   29.1010 C   0  0  0  0  0  0  0  0  0  0  0  0
   39.0620   24.5390   29.4900 C   0  0  0  0  0  0  0  0  0  0  0  0
   38.4280   24.8020   30.6870 C   0  0  0  0  0  0  0  0  0  0  0  0
   38.0090   23.7480   31.4760 C   0  0  0  0  0  0  0  0  0  0  0  0
   38.2060   22.4220   31.1010 C   0  0  0  0  0  0  0  0  0  0  0  0
   40.9558   22.5563   37.5333 H   0  0  0  0  0  0  0  0  0  0  0  0
   39.7846   23.9509   39.2731 H   0  0  0  0  0  0  0  0  0  0  0  0
   37.2635   24.2530   39.0503 H   0  0  0  0  0  0  0  0  0  0  0  0
   38.7960   22.2577   33.9511 H   0  0  0  0  0  0  0  0  0  0  0  0
   34.4979   20.0018   34.5203 H   0  0  0  0  0  0  0  0  0  0  0  0
   38.2570   19.1278   31.0052 H   0  0  0  0  0  0  0  0  0  0  0  0
   39.3365   20.3302   28.9692 H   0  0  0  0  0  0  0  0  0  0  0  0
   39.7751   22.9981   28.1481 H   0  0  0  0  0  0  0  0  0  0  0  0
   39.4013   25.3653   28.8480 H   0  0  0  0  0  0  0  0  0  0  0  0
   38.2580   25.8398   31.0097 H   0  0  0  0  0  0  0  0  0  0  0  0
   37.5044   23.9632   32.4295 H   0  0  0  0  0  0  0  0  0  0  0  0
  1  2  2  0
  3  2  1  0
  4  3  2  0
  5  6  2  0
  5  4  1  0
  6  1  1  0
  7 13  1  0
  7  5  1  0
  8  7  1  0
  9 10  1  0
  9  8  2  0
 10 12  1  0
 11 10  2  0
 12 13  1  0
 13 14  2  0
 15  9  1  0
 16 15  2  0
 17 18  1  0
 17 16  1  0
 18 23  2  0
 19 20  2  0
 19 18  1  0
 20 21  1  0
 21 22  2  0
 23 22  1  0
 23 15  1  0
  1 24  1  0
  2 25  1  0
  3 26  1  0
  8 27  1  0
 12 28  1  0
 16 29  1  0
 17 30  1  0
 19 31  1  0
 20 32  1  0
 21 33  1  0
 22 34  1  0
M  ISO  8  24  14  25  14  26  14  27  14  28   9  29  14  30   9  31  14
M  ISO  3  32  14  33  14  34  14
M  END
>  <minimizedAffinity>  (1) 
-5.71304512

>  <minimizedRMSD>  (1) 
0.746290326

$$$$
