
     RDKit          3D

 32 33  0  0  0  0  0  0  0  0999 V2000
   39.9210   22.8120   37.1300 C   0  0  0  0  0  0  0  0  0  0  0  0
   39.3880   23.4430   38.2760 C   0  0  0  0  0  0  0  0  0  0  0  0
   37.9850   23.4640   38.3940 C   0  0  0  0  0  0  0  0  0  0  0  0
   37.2310   22.8900   37.4210 N   0  0  0  0  0  0  0  0  0  0  0  0
   37.7820   22.2980   36.3420 C   0  0  0  0  0  0  0  0  0  0  0  0
   39.1210   22.2590   36.1990 N   0  0  0  0  0  0  0  0  0  0  0  0
   37.0160   21.6920   35.3150 N   0  0  0  0  0  0  0  0  0  0  0  0
   37.4200   21.9090   34.0330 C   0  0  0  0  0  0  0  0  0  0  0  0
   36.6850   21.3250   33.0040 C   0  0  0  0  0  0  0  0  0  0  0  0
   35.5830   20.5560   33.3380 C   0  0  0  0  0  0  0  0  0  0  0  0
   34.9070   20.0200   32.4150 O   0  0  0  0  0  0  0  0  0  0  0  0
   35.2280   20.3740   34.6200 N   0  0  0  0  0  0  0  0  0  0  0  0
   35.9460   20.9440   35.6150 C   0  0  0  0  0  0  0  0  0  0  0  0
   35.6720   20.8160   36.8290 O   0  0  0  0  0  0  0  0  0  0  0  0
   37.1280   21.5640   31.6210 C   0  0  0  0  0  0  0  0  0  0  0  0
   38.5700   22.0080   31.5610 C   0  0  0  0  0  0  0  0  0  0  0  0
   37.0240   20.3240   30.7390 C   0  0  0  0  0  0  0  0  0  0  0  0
   36.2580   22.6490   31.0240 C   0  0  0  0  0  0  0  0  0  0  0  0
   41.0120   22.7717   36.9955 H   0  0  0  0  0  0  0  0  0  0  0  0
   40.0376   23.8961   39.0394 H   0  0  0  0  0  0  0  0  0  0  0  0
   37.5059   23.9391   39.2628 H   0  0  0  0  0  0  0  0  0  0  0  0
   38.3026   22.5285   33.8159 H   0  0  0  0  0  0  0  0  0  0  0  0
   34.4051   19.7977   34.8471 H   0  0  0  0  0  0  0  0  0  0  0  0
   38.9595   22.1279   32.5827 H   0  0  0  0  0  0  0  0  0  0  0  0
   39.1648   21.2514   31.0283 H   0  0  0  0  0  0  0  0  0  0  0  0
   38.6362   22.9681   31.0283 H   0  0  0  0  0  0  0  0  0  0  0  0
   36.9489   19.4283   31.3731 H   0  0  0  0  0  0  0  0  0  0  0  0
   36.1291   20.3998   30.1039 H   0  0  0  0  0  0  0  0  0  0  0  0
   37.9191   20.2496   30.1039 H   0  0  0  0  0  0  0  0  0  0  0  0
   35.7913   23.2310   31.8324 H   0  0  0  0  0  0  0  0  0  0  0  0
   36.8759   23.3141   30.4029 H   0  0  0  0  0  0  0  0  0  0  0  0
   35.4745   22.1904   30.4029 H   0  0  0  0  0  0  0  0  0  0  0  0
  1  2  2  0
  2  3  1  0
  4  3  2  0
  5  4  1  0
  6  5  2  0
  6  1  1  0
  7 13  1  0
  7  5  1  0
  8  7  1  0
  9 10  1  0
  9  8  2  0
 10 12  1  0
 11 10  2  0
 12 13  1  0
 13 14  2  0
 15  9  1  0
 16 15  1  0
 17 15  1  0
 18 15  1  0
  1 19  1  0
  2 20  1  0
  3 21  1  0
  8 22  1  0
 12 23  1  0
 16 24  1  0
 16 25  1  0
 16 26  1  0
 17 27  1  0
 17 28  1  0
 17 29  1  0
 18 30  1  0
 18 31  1  0
 18 32  1  0
M  ISO  8  19  14  20  14  21  14  22  14  23   9  24   8  25   8  26   8
M  ISO  6  27   8  28   8  29   8  30   8  31   8  32   8
M  END
>  <minimizedAffinity>  (1) 
-5.25135231

>  <minimizedRMSD>  (1) 
0.69841367

$$$$
