
     RDKit          3D

 35 37  0  0  0  0  0  0  0  0999 V2000
   39.8690   22.8150   37.3430 C   0  0  0  0  0  0  0  0  0  0  0  0
   39.2630   23.3800   38.4890 C   0  0  0  0  0  0  0  0  0  0  0  0
   37.8550   23.3910   38.5190 C   0  0  0  0  0  0  0  0  0  0  0  0
   37.1590   22.8730   37.4710 N   0  0  0  0  0  0  0  0  0  0  0  0
   37.7840   22.3450   36.3970 C   0  0  0  0  0  0  0  0  0  0  0  0
   39.1340   22.3120   36.3260 N   0  0  0  0  0  0  0  0  0  0  0  0
   37.0810   21.7970   35.2900 N   0  0  0  0  0  0  0  0  0  0  0  0
   37.5680   22.1120   34.0450 C   0  0  0  0  0  0  0  0  0  0  0  0
   36.8840   21.5790   32.9610 C   0  0  0  0  0  0  0  0  0  0  0  0
   35.7730   20.7740   33.1700 C   0  0  0  0  0  0  0  0  0  0  0  0
   35.1800   20.3100   32.1590 O   0  0  0  0  0  0  0  0  0  0  0  0
   35.3510   20.5070   34.4090 N   0  0  0  0  0  0  0  0  0  0  0  0
   36.0100   21.0210   35.4820 C   0  0  0  0  0  0  0  0  0  0  0  0
   35.6730   20.8140   36.6730 O   0  0  0  0  0  0  0  0  0  0  0  0
   37.3180   21.8530   31.6320 N   0  0  0  0  0  0  0  0  0  0  0  0
   38.1810   20.8470   31.0310 C   0  0  0  0  0  0  0  0  0  0  0  0
   39.5560   21.4920   30.8210 C   0  0  0  0  0  0  0  0  0  0  0  0
   39.3510   22.4680   29.6740 C   0  0  0  0  0  0  0  0  0  0  0  0
   38.3660   23.5120   30.1510 C   0  0  0  0  0  0  0  0  0  0  0  0
   37.1120   22.9170   30.6920 C   0  0  0  0  0  0  0  0  0  0  0  0
   40.9666   22.7840   37.2774 H   0  0  0  0  0  0  0  0  0  0  0  0
   39.8614   23.7904   39.3157 H   0  0  0  0  0  0  0  0  0  0  0  0
   37.3222   23.8150   39.3829 H   0  0  0  0  0  0  0  0  0  0  0  0
   38.4527   22.7524   33.9139 H   0  0  0  0  0  0  0  0  0  0  0  0
   34.5240   19.9100   34.5522 H   0  0  0  0  0  0  0  0  0  0  0  0
   38.2707   19.9792   31.7010 H   0  0  0  0  0  0  0  0  0  0  0  0
   37.7646   20.4979   30.0746 H   0  0  0  0  0  0  0  0  0  0  0  0
   39.8788   22.0223   31.7290 H   0  0  0  0  0  0  0  0  0  0  0  0
   40.3362   20.7484   30.6013 H   0  0  0  0  0  0  0  0  0  0  0  0
   38.9472   21.9407   28.7971 H   0  0  0  0  0  0  0  0  0  0  0  0
   40.3035   22.9330   29.3798 H   0  0  0  0  0  0  0  0  0  0  0  0
   38.8422   24.1088   30.9429 H   0  0  0  0  0  0  0  0  0  0  0  0
   38.0921   24.1303   29.2834 H   0  0  0  0  0  0  0  0  0  0  0  0
   36.5418   23.7131   31.1931 H   0  0  0  0  0  0  0  0  0  0  0  0
   36.5771   22.4801   29.8358 H   0  0  0  0  0  0  0  0  0  0  0  0
  1  2  2  0
  2  3  1  0
  4  3  2  0
  5  4  1  0
  6  5  2  0
  6  1  1  0
  7 13  1  0
  7  5  1  0
  8  7  1  0
  9 10  1  0
  9  8  2  0
 10 12  1  0
 11 10  2  0
 12 13  1  0
 13 14  2  0
 15  9  1  0
 16 15  1  0
 17 16  1  0
 18 19  1  0
 18 17  1  0
 19 20  1  0
 20 15  1  0
  1 21  1  0
  2 22  1  0
  3 23  1  0
  8 24  1  0
 12 25  1  0
 16 26  1  0
 16 27  1  0
 17 28  1  0
 17 29  1  0
 18 30  1  0
 18 31  1  0
 19 32  1  0
 19 33  1  0
 20 34  1  0
 20 35  1  0
M  ISO  8  21  14  22  14  23  14  24  14  25   9  26  13  27  13  28  13
M  ISO  7  29  13  30  13  31  13  32  13  33  13  34  13  35  13
M  END
>  <minimizedAffinity>  (1) 
-5.17474031

>  <minimizedRMSD>  (1) 
1.20117474

$$$$
