
     RDKit          3D

 29 30  0  0  0  0  0  0  0  0999 V2000
   39.9170   22.8000   37.1880 C   0  0  0  0  0  0  0  0  0  0  0  0
   39.3690   23.4520   38.3140 C   0  0  0  0  0  0  0  0  0  0  0  0
   37.9520   23.4920   38.4010 C   0  0  0  0  0  0  0  0  0  0  0  0
   37.2200   22.9120   37.4190 N   0  0  0  0  0  0  0  0  0  0  0  0
   37.8090   22.2960   36.3560 C   0  0  0  0  0  0  0  0  0  0  0  0
   39.1530   22.2370   36.2370 N   0  0  0  0  0  0  0  0  0  0  0  0
   37.0360   21.6870   35.3230 N   0  0  0  0  0  0  0  0  0  0  0  0
   37.4740   21.9080   34.0460 C   0  0  0  0  0  0  0  0  0  0  0  0
   36.7490   21.3320   33.0160 C   0  0  0  0  0  0  0  0  0  0  0  0
   35.6230   20.5670   33.3340 C   0  0  0  0  0  0  0  0  0  0  0  0
   34.9600   20.0410   32.3880 O   0  0  0  0  0  0  0  0  0  0  0  0
   35.2400   20.3870   34.6200 N   0  0  0  0  0  0  0  0  0  0  0  0
   35.9540   20.9520   35.6180 C   0  0  0  0  0  0  0  0  0  0  0  0
   35.6700   20.8340   36.8140 O   0  0  0  0  0  0  0  0  0  0  0  0
   37.1220   21.4960   31.5950 C   0  0  0  0  0  0  0  0  0  0  0  0
   36.9060   20.2140   30.7930 C   0  0  0  0  0  0  0  0  0  0  0  0
   36.2350   22.5500   30.9540 C   0  0  0  0  0  0  0  0  0  0  0  0
   41.0111   22.7511   37.0854 H   0  0  0  0  0  0  0  0  0  0  0  0
   40.0078   23.9064   39.0856 H   0  0  0  0  0  0  0  0  0  0  0  0
   37.4573   23.9852   39.2507 H   0  0  0  0  0  0  0  0  0  0  0  0
   38.3665   22.5189   33.8452 H   0  0  0  0  0  0  0  0  0  0  0  0
   34.4071   19.8212   34.8367 H   0  0  0  0  0  0  0  0  0  0  0  0
   38.1859   21.7752   31.5794 H   0  0  0  0  0  0  0  0  0  0  0  0
   36.7637   19.3693   31.4831 H   0  0  0  0  0  0  0  0  0  0  0  0
   36.0137   20.3240   30.1592 H   0  0  0  0  0  0  0  0  0  0  0  0
   37.7850   20.0255   30.1592 H   0  0  0  0  0  0  0  0  0  0  0  0
   35.7392   23.1391   31.7396 H   0  0  0  0  0  0  0  0  0  0  0  0
   36.8490   23.2153   30.3292 H   0  0  0  0  0  0  0  0  0  0  0  0
   35.4746   22.0587   30.3292 H   0  0  0  0  0  0  0  0  0  0  0  0
  1  2  2  0
  2  3  1  0
  4  3  2  0
  5  4  1  0
  6  5  2  0
  6  1  1  0
  7 13  1  0
  7  5  1  0
  8  7  1  0
  9 10  1  0
  9  8  2  0
 10 12  1  0
 11 10  2  0
 12 13  1  0
 13 14  2  0
 15  9  1  0
 16 15  1  0
 17 15  1  0
  1 18  1  0
  2 19  1  0
  3 20  1  0
  8 21  1  0
 12 22  1  0
 15 23  1  0
 16 24  1  0
 16 25  1  0
 16 26  1  0
 17 27  1  0
 17 28  1  0
 17 29  1  0
M  ISO  8  18  14  19  14  20  14  21  14  22   9  23   8  24   8  25   8
M  ISO  4  26   8  27   8  28   8  29   8
M  END
>  <minimizedAffinity>  (1) 
-5.10629606

>  <minimizedRMSD>  (1) 
0.454957396

$$$$
