
     RDKit          3D

 55 57  0  0  0  0  0  0  0  0999 V2000
   37.7100   22.6500   36.2160 C   0  0  0  0  0  0  0  0  0  0  0  0
   37.8580   22.7680   34.8100 N   0  0  0  0  0  0  0  0  0  0  0  0
   38.2680   21.8320   33.8970 C   0  0  0  0  0  0  0  0  0  0  0  0
   38.2630   22.3810   32.6520 N   0  0  0  0  0  0  0  0  0  0  0  0
   37.8500   23.6540   32.7850 C   0  0  0  0  0  0  0  0  0  0  0  0
   37.6120   23.8690   34.0900 N   0  0  0  0  0  0  0  0  0  0  0  0
   37.6970   24.6250   31.6650 C   0  0  0  0  0  0  0  0  0  0  0  0
   36.2050   24.9590   31.5500 C   0  0  0  0  0  0  0  0  0  0  0  0
   38.0750   23.9780   30.3520 C   0  0  0  0  0  0  0  0  0  0  0  0
   38.4370   25.9080   31.9220 C   0  0  0  0  0  0  0  0  0  0  0  0
   37.6500   27.1060   31.6320 C   0  0  0  0  0  0  0  0  0  0  0  0
   37.5440   27.6690   30.3750 C   0  0  0  0  0  0  0  0  0  0  0  0
   36.7480   28.8160   30.2720 C   0  0  0  0  0  0  0  0  0  0  0  0
   36.1130   29.3390   31.3800 C   0  0  0  0  0  0  0  0  0  0  0  0
   36.2390   28.7520   32.6230 C   0  0  0  0  0  0  0  0  0  0  0  0
   37.0070   27.6610   32.6740 N   0  0  0  0  0  0  0  0  0  0  0  0
   38.6810   23.5520   36.9790 C   0  0  0  0  0  0  0  0  0  0  0  0
   41.9410   21.7010   36.8870 C   0  0  0  0  0  0  0  0  0  0  0  0
   40.6460   22.0310   37.2170 C   0  0  0  0  0  0  0  0  0  0  0  0
   40.0450   23.1630   36.6610 C   0  0  0  0  0  0  0  0  0  0  0  0
   40.7690   23.9130   35.7990 N   0  0  0  0  0  0  0  0  0  0  0  0
   42.0480   23.5820   35.4770 C   0  0  0  0  0  0  0  0  0  0  0  0
   42.6180   22.4690   36.0330 N   0  0  0  0  0  0  0  0  0  0  0  0
   42.5590   20.4980   37.4870 C   0  0  0  0  0  0  0  0  0  0  0  0
   43.1680   19.5700   36.4910 C   0  0  0  0  0  0  0  0  0  0  0  0
   38.4610   23.3530   38.4580 C   0  0  0  0  0  0  0  0  0  0  0  0
   38.3480   24.9860   36.6090 C   0  0  0  0  0  0  0  0  0  0  0  0
   37.8963   21.6051   36.5049 H   0  0  0  0  0  0  0  0  0  0  0  0
   36.6872   22.9617   36.4743 H   0  0  0  0  0  0  0  0  0  0  0  0
   38.5564   20.7973   34.1339 H   0  0  0  0  0  0  0  0  0  0  0  0
   35.7723   25.0559   32.5567 H   0  0  0  0  0  0  0  0  0  0  0  0
   36.0824   25.9068   31.0054 H   0  0  0  0  0  0  0  0  0  0  0  0
   35.6899   24.1539   31.0054 H   0  0  0  0  0  0  0  0  0  0  0  0
   38.6211   23.0434   30.5476 H   0  0  0  0  0  0  0  0  0  0  0  0
   37.1640   23.7569   29.7765 H   0  0  0  0  0  0  0  0  0  0  0  0
   38.7150   24.6630   29.7765 H   0  0  0  0  0  0  0  0  0  0  0  0
   38.7314   25.9334   32.9816 H   0  0  0  0  0  0  0  0  0  0  0  0
   39.3048   25.9208   31.2462 H   0  0  0  0  0  0  0  0  0  0  0  0
   38.0573   27.2393   29.5022 H   0  0  0  0  0  0  0  0  0  0  0  0
   36.6271   29.3068   29.2950 H   0  0  0  0  0  0  0  0  0  0  0  0
   35.4940   30.2417   31.2705 H   0  0  0  0  0  0  0  0  0  0  0  0
   35.7385   29.1573   33.5148 H   0  0  0  0  0  0  0  0  0  0  0  0
   40.0824   21.4012   37.9210 H   0  0  0  0  0  0  0  0  0  0  0  0
   42.6208   24.2048   34.7741 H   0  0  0  0  0  0  0  0  0  0  0  0
   43.3460   20.8237   38.1831 H   0  0  0  0  0  0  0  0  0  0  0  0
   41.7535   19.9425   37.9896 H   0  0  0  0  0  0  0  0  0  0  0  0
   43.6977   18.7628   37.0180 H   0  0  0  0  0  0  0  0  0  0  0  0
   42.3768   19.1386   35.8602 H   0  0  0  0  0  0  0  0  0  0  0  0
   43.8786   20.1241   35.8602 H   0  0  0  0  0  0  0  0  0  0  0  0
   39.1616   23.9868   39.0215 H   0  0  0  0  0  0  0  0  0  0  0  0
   37.4280   23.6296   38.7155 H   0  0  0  0  0  0  0  0  0  0  0  0
   38.6330   22.2975   38.7155 H   0  0  0  0  0  0  0  0  0  0  0  0
   38.2104   25.5786   37.5254 H   0  0  0  0  0  0  0  0  0  0  0  0
   39.1710   25.4124   36.0167 H   0  0  0  0  0  0  0  0  0  0  0  0
   37.4213   25.0061   36.0167 H   0  0  0  0  0  0  0  0  0  0  0  0
  1 17  1  0
  2  1  1  0
  3  2  1  0
  4  5  1  0
  4  3  2  0
  5  6  2  0
  6  2  1  0
  7 10  1  0
  7  5  1  0
  8  7  1  0
  9  7  1  0
 11 10  1  0
 11 16  1  0
 12 11  2  0
 13 12  1  0
 13 14  2  0
 14 15  1  0
 15 16  2  0
 17 26  1  0
 18 19  2  0
 18 24  1  0
 20 17  1  0
 20 19  1  0
 21 20  2  0
 22 21  1  0
 22 23  2  0
 23 18  1  0
 25 24  1  0
 27 17  1  0
  1 28  1  0
  1 29  1  0
  3 30  1  0
  8 31  1  0
  8 32  1  0
  8 33  1  0
  9 34  1  0
  9 35  1  0
  9 36  1  0
 10 37  1  0
 10 38  1  0
 12 39  1  0
 13 40  1  0
 14 41  1  0
 15 42  1  0
 19 43  1  0
 22 44  1  0
 24 45  1  0
 24 46  1  0
 25 47  1  0
 25 48  1  0
 25 49  1  0
 26 50  1  0
 26 51  1  0
 26 52  1  0
 27 53  1  0
 27 54  1  0
 27 55  1  0
M  ISO  8  28   8  29   8  30  14  31   8  32   8  33   8  34   8  35   8
M  ISO  8  36   8  37   8  38   8  39  14  40  14  41  14  42  14  43  14
M  ISO  8  44  14  45   8  46   8  47   8  48   8  49   8  50   8  51   8
M  ISO  4  52   8  53   8  54   8  55   8
M  END
>  <minimizedAffinity>  (1) 
-5.21918344

>  <minimizedRMSD>  (1) 
1.153561

$$$$
