
     RDKit          3D

 26 28  0  0  0  0  0  0  0  0999 V2000
   39.8760   22.7100   37.4110 C   0  0  0  0  0  0  0  0  0  0  0  0
   39.2150   23.4920   38.4110 C   0  0  0  0  0  0  0  0  0  0  0  0
   37.8280   23.6420   38.2990 C   0  0  0  0  0  0  0  0  0  0  0  0
   37.1780   23.0490   37.2630 N   0  0  0  0  0  0  0  0  0  0  0  0
   37.8520   22.3120   36.3320 C   0  0  0  0  0  0  0  0  0  0  0  0
   39.1840   22.1450   36.4050 N   0  0  0  0  0  0  0  0  0  0  0  0
   37.1890   21.6820   35.2380 N   0  0  0  0  0  0  0  0  0  0  0  0
   37.7890   21.7660   34.0270 C   0  0  0  0  0  0  0  0  0  0  0  0
   37.1680   21.1650   32.9500 C   0  0  0  0  0  0  0  0  0  0  0  0
   35.9660   20.5050   33.1580 C   0  0  0  0  0  0  0  0  0  0  0  0
   35.3930   19.9520   32.1760 O   0  0  0  0  0  0  0  0  0  0  0  0
   35.4140   20.4510   34.3750 N   0  0  0  0  0  0  0  0  0  0  0  0
   36.0240   21.0410   35.4320 C   0  0  0  0  0  0  0  0  0  0  0  0
   35.5660   21.0310   36.6000 O   0  0  0  0  0  0  0  0  0  0  0  0
   37.7860   21.2440   31.6710 N   0  0  0  0  0  0  0  0  0  0  0  0
   38.2340   20.3800   30.7430 C   0  0  0  0  0  0  0  0  0  0  0  0
   38.7390   21.0420   29.6950 N   0  0  0  0  0  0  0  0  0  0  0  0
   38.6180   22.3370   29.9480 C   0  0  0  0  0  0  0  0  0  0  0  0
   38.0350   22.4580   31.1550 N   0  0  0  0  0  0  0  0  0  0  0  0
   40.9655   22.5689   37.4657 H   0  0  0  0  0  0  0  0  0  0  0  0
   39.7753   23.9570   39.2355 H   0  0  0  0  0  0  0  0  0  0  0  0
   37.2705   24.2328   39.0407 H   0  0  0  0  0  0  0  0  0  0  0  0
   38.7440   22.2979   33.9047 H   0  0  0  0  0  0  0  0  0  0  0  0
   34.5198   19.9580   34.5099 H   0  0  0  0  0  0  0  0  0  0  0  0
   38.1915   19.2845   30.8325 H   0  0  0  0  0  0  0  0  0  0  0  0
   38.9355   23.1612   29.2924 H   0  0  0  0  0  0  0  0  0  0  0  0
  1  2  2  0
  3  2  1  0
  4  3  2  0
  5  6  2  0
  5  4  1  0
  6  1  1  0
  7 13  1  0
  7  5  1  0
  8  7  1  0
  9 10  1  0
  9  8  2  0
 10 12  1  0
 11 10  2  0
 12 13  1  0
 13 14  2  0
 15  9  1  0
 16 15  1  0
 17 18  1  0
 17 16  2  0
 18 19  2  0
 19 15  1  0
  1 20  1  0
  2 21  1  0
  3 22  1  0
  8 23  1  0
 12 24  1  0
 16 25  1  0
 18 26  1  0
M  ISO  7  20  14  21  14  22  14  23  14  24   9  25  14  26  14
M  END
>  <minimizedAffinity>  (1) 
-4.98194933

>  <minimizedRMSD>  (1) 
0.224439502

$$$$
