
     RDKit          3D

 33 35  0  0  0  0  0  0  0  0999 V2000
   39.8830   22.7250   37.3400 C   0  0  0  0  0  0  0  0  0  0  0  0
   39.2300   23.4700   38.3720 C   0  0  0  0  0  0  0  0  0  0  0  0
   37.8330   23.5840   38.2890 C   0  0  0  0  0  0  0  0  0  0  0  0
   37.1780   22.9950   37.2540 N   0  0  0  0  0  0  0  0  0  0  0  0
   37.8430   22.2890   36.2870 C   0  0  0  0  0  0  0  0  0  0  0  0
   39.1780   22.1670   36.3460 N   0  0  0  0  0  0  0  0  0  0  0  0
   37.1660   21.6710   35.2050 N   0  0  0  0  0  0  0  0  0  0  0  0
   37.7450   21.7840   33.9860 C   0  0  0  0  0  0  0  0  0  0  0  0
   37.1330   21.2030   32.9010 C   0  0  0  0  0  0  0  0  0  0  0  0
   35.9340   20.5230   33.1180 C   0  0  0  0  0  0  0  0  0  0  0  0
   35.3310   19.9740   32.1610 O   0  0  0  0  0  0  0  0  0  0  0  0
   35.3860   20.4330   34.3560 N   0  0  0  0  0  0  0  0  0  0  0  0
   36.0130   21.0170   35.4130 C   0  0  0  0  0  0  0  0  0  0  0  0
   35.5780   20.9820   36.5790 O   0  0  0  0  0  0  0  0  0  0  0  0
   37.6420   21.2390   31.5070 C   0  0  0  0  0  0  0  0  0  0  0  0
   38.4300   22.4780   31.1750 C   0  0  0  0  0  0  0  0  0  0  0  0
   38.8370   22.1220   29.7390 C   0  0  0  0  0  0  0  0  0  0  0  0
   39.2640   20.6750   29.8820 C   0  0  0  0  0  0  0  0  0  0  0  0
   38.6530   20.1780   31.1980 C   0  0  0  0  0  0  0  0  0  0  0  0
   40.9766   22.6087   37.3625 H   0  0  0  0  0  0  0  0  0  0  0  0
   39.7967   23.9326   39.1935 H   0  0  0  0  0  0  0  0  0  0  0  0
   37.2746   24.1441   39.0535 H   0  0  0  0  0  0  0  0  0  0  0  0
   38.6909   22.3325   33.8659 H   0  0  0  0  0  0  0  0  0  0  0  0
   34.5005   19.9255   34.4948 H   0  0  0  0  0  0  0  0  0  0  0  0
   36.7021   21.1397   30.9443 H   0  0  0  0  0  0  0  0  0  0  0  0
   37.8094   23.3853   31.2155 H   0  0  0  0  0  0  0  0  0  0  0  0
   39.2594   22.7102   31.8593 H   0  0  0  0  0  0  0  0  0  0  0  0
   39.6693   22.7518   29.3917 H   0  0  0  0  0  0  0  0  0  0  0  0
   38.0372   22.2774   28.9999 H   0  0  0  0  0  0  0  0  0  0  0  0
   38.8860   20.0804   29.0373 H   0  0  0  0  0  0  0  0  0  0  0  0
   40.3597   20.5784   29.8865 H   0  0  0  0  0  0  0  0  0  0  0  0
   38.1726   19.1970   31.0678 H   0  0  0  0  0  0  0  0  0  0  0  0
   39.3939   20.0319   31.9979 H   0  0  0  0  0  0  0  0  0  0  0  0
  1  2  2  0
  3  2  1  0
  4  3  2  0
  5  6  2  0
  5  4  1  0
  6  1  1  0
  7 13  1  0
  7  5  1  0
  8  7  1  0
  9 10  1  0
  9  8  2  0
 10 12  1  0
 11 10  2  0
 12 13  1  0
 13 14  2  0
 15  9  1  0
 16 15  1  0
 17 18  1  0
 17 16  1  0
 18 19  1  0
 19 15  1  0
  1 20  1  0
  2 21  1  0
  3 22  1  0
  8 23  1  0
 12 24  1  0
 15 25  1  0
 16 26  1  0
 16 27  1  0
 17 28  1  0
 17 29  1  0
 18 30  1  0
 18 31  1  0
 19 32  1  0
 19 33  1  0
M  ISO  8  20  14  21  14  22  14  23  14  24   9  25  13  26  13  27  13
M  ISO  6  28  13  29  13  30  13  31  13  32  13  33  13
M  END
>  <minimizedAffinity>  (1) 
-5.10226774

>  <minimizedRMSD>  (1) 
1.14625514

$$$$
