
     RDKit          3D

 21 22  0  0  0  0  0  0  0  0999 V2000
   39.8850   22.7450   37.2120 C   0  0  0  0  0  0  0  0  0  0  0  0
   39.2750   23.4380   38.2820 C   0  0  0  0  0  0  0  0  0  0  0  0
   37.8760   23.5170   38.2740 C   0  0  0  0  0  0  0  0  0  0  0  0
   37.1890   22.9340   37.2570 N   0  0  0  0  0  0  0  0  0  0  0  0
   37.8270   22.2740   36.2440 C   0  0  0  0  0  0  0  0  0  0  0  0
   39.1710   22.1780   36.2190 N   0  0  0  0  0  0  0  0  0  0  0  0
   37.1170   21.6600   35.1750 N   0  0  0  0  0  0  0  0  0  0  0  0
   37.6560   21.8330   33.9260 C   0  0  0  0  0  0  0  0  0  0  0  0
   36.9720   21.2380   32.8720 C   0  0  0  0  0  0  0  0  0  0  0  0
   35.8080   20.5200   33.1250 C   0  0  0  0  0  0  0  0  0  0  0  0
   35.2110   19.9920   32.1420 O   0  0  0  0  0  0  0  0  0  0  0  0
   35.3370   20.3920   34.3820 N   0  0  0  0  0  0  0  0  0  0  0  0
   35.9900   20.9630   35.4150 C   0  0  0  0  0  0  0  0  0  0  0  0
   35.6180   20.8900   36.5950 O   0  0  0  0  0  0  0  0  0  0  0  0
   37.6070   21.4120   31.1940 S   0  0  0  0  0  0  0  0  0  0  0  0
   40.9819   22.6654   37.1886 H   0  0  0  0  0  0  0  0  0  0  0  0
   39.8717   23.8949   39.0852 H   0  0  0  0  0  0  0  0  0  0  0  0
   37.3420   24.0431   39.0790 H   0  0  0  0  0  0  0  0  0  0  0  0
   38.5785   22.4106   33.7669 H   0  0  0  0  0  0  0  0  0  0  0  0
   34.4746   19.8557   34.5542 H   0  0  0  0  0  0  0  0  0  0  0  0
   38.9275   21.7738   31.2407 H   0  0  0  0  0  0  0  0  0  0  0  0
  1  2  2  0
  3  2  1  0
  4  3  2  0
  5  4  1  0
  6  5  2  0
  6  1  1  0
  7 13  1  0
  7  5  1  0
  8  7  1  0
  9 10  1  0
  9  8  2  0
 10 12  1  0
 11 10  2  0
 12 13  1  0
 13 14  2  0
 15  9  1  0
  1 16  1  0
  2 17  1  0
  3 18  1  0
  8 19  1  0
 12 20  1  0
 15 21  1  0
M  ISO  6  16  14  17  14  18  14  19  14  20   9  21  11
M  END
>  <minimizedAffinity>  (1) 
-4.91662788

>  <minimizedRMSD>  (1) 
0.0310710073

$$$$
