
     RDKit          3D

 23 24  0  0  0  0  0  0  0  0999 V2000
   38.4550   21.7910   34.1480 C   0  0  0  0  0  0  0  0  0  0  0  0
   39.9190   22.8020   37.3570 C   0  0  0  0  0  0  0  0  0  0  0  0
   38.8310   23.2870   38.1000 C   0  0  0  0  0  0  0  0  0  0  0  0
   37.5820   23.2540   37.4620 C   0  0  0  0  0  0  0  0  0  0  0  0
   37.4810   22.7670   36.1860 N   0  0  0  0  0  0  0  0  0  0  0  0
   38.5690   22.3170   35.5300 C   0  0  0  0  0  0  0  0  0  0  0  0
   39.7850   22.3300   36.1010 N   0  0  0  0  0  0  0  0  0  0  0  0
   37.5930   22.5950   33.2680 C   0  0  0  0  0  0  0  0  0  0  0  0
   36.5160   21.9390   32.6710 C   0  0  0  0  0  0  0  0  0  0  0  0
   35.6260   22.5640   31.8240 C   0  0  0  0  0  0  0  0  0  0  0  0
   35.8410   23.9070   31.5770 C   0  0  0  0  0  0  0  0  0  0  0  0
   36.9120   24.5780   32.1660 C   0  0  0  0  0  0  0  0  0  0  0  0
   37.7960   23.9360   33.0130 C   0  0  0  0  0  0  0  0  0  0  0  0
   39.4623   21.7568   33.7073 H   0  0  0  0  0  0  0  0  0  0  0  0
   37.9905   20.7968   34.2246 H   0  0  0  0  0  0  0  0  0  0  0  0
   40.9183   22.8072   37.8167 H   0  0  0  0  0  0  0  0  0  0  0  0
   38.9510   23.6709   39.1238 H   0  0  0  0  0  0  0  0  0  0  0  0
   36.6858   23.6185   37.9855 H   0  0  0  0  0  0  0  0  0  0  0  0
   36.3699   20.8703   32.8869 H   0  0  0  0  0  0  0  0  0  0  0  0
   34.7858   22.0206   31.3670 H   0  0  0  0  0  0  0  0  0  0  0  0
   35.1593   24.4527   30.9080 H   0  0  0  0  0  0  0  0  0  0  0  0
   37.0574   25.6469   31.9509 H   0  0  0  0  0  0  0  0  0  0  0  0
   38.6367   24.4782   33.4704 H   0  0  0  0  0  0  0  0  0  0  0  0
  1  6  1  0
  2  3  2  0
  4  3  1  0
  5  4  2  0
  6  7  2  0
  6  5  1  0
  7  2  1  0
  8  1  1  0
  9  8  2  0
 10  9  1  0
 11 10  2  0
 11 12  1  0
 12 13  2  0
 13  8  1  0
  1 14  1  0
  1 15  1  0
  2 16  1  0
  3 17  1  0
  4 18  1  0
  9 19  1  0
 10 20  1  0
 11 21  1  0
 12 22  1  0
 13 23  1  0
M  ISO  8  14   8  15   8  16  14  17  14  18  14  19  14  20  14  21  14
M  ISO  2  22  14  23  14
M  END
>  <minimizedAffinity>  (1) 
-3.83573985

>  <minimizedRMSD>  (1) 
1.33833873

$$$$
