
     RDKit          3D

 27 29  0  0  0  0  0  0  0  0999 V2000
   37.9460   23.3260   33.8460 N   0  0  0  0  0  0  0  0  0  0  0  0
   37.9740   23.1290   32.5050 C   0  0  0  0  0  0  0  0  0  0  0  0
   38.2350   24.3030   31.9060 N   0  0  0  0  0  0  0  0  0  0  0  0
   38.3820   25.2830   32.8230 C   0  0  0  0  0  0  0  0  0  0  0  0
   38.6530   26.6310   32.7080 C   0  0  0  0  0  0  0  0  0  0  0  0
   38.8010   27.0910   31.5510 O   0  0  0  0  0  0  0  0  0  0  0  0
   38.7400   27.3600   33.8420 N   0  0  0  0  0  0  0  0  0  0  0  0
   38.5610   26.7450   35.0160 C   0  0  0  0  0  0  0  0  0  0  0  0
   38.6570   27.5290   36.1890 N   0  0  0  0  0  0  0  0  0  0  0  0
   38.2920   25.4140   35.1400 N   0  0  0  0  0  0  0  0  0  0  0  0
   38.1950   24.6360   34.0240 C   0  0  0  0  0  0  0  0  0  0  0  0
   37.7000   22.3230   34.8300 C   0  0  0  0  0  0  0  0  0  0  0  0
   39.9960   22.7580   37.6660 C   0  0  0  0  0  0  0  0  0  0  0  0
   39.1770   23.2420   38.6970 C   0  0  0  0  0  0  0  0  0  0  0  0
   37.8060   23.4160   38.3870 C   0  0  0  0  0  0  0  0  0  0  0  0
   37.3540   23.1130   37.1320 N   0  0  0  0  0  0  0  0  0  0  0  0
   38.2090   22.6480   36.1880 C   0  0  0  0  0  0  0  0  0  0  0  0
   39.5050   22.4710   36.4430 N   0  0  0  0  0  0  0  0  0  0  0  0
   37.8105   22.1691   31.9932 H   0  0  0  0  0  0  0  0  0  0  0  0
   38.9403   28.3696   33.8032 H   0  0  0  0  0  0  0  0  0  0  0  0
   38.5254   27.0923   37.1125 H   0  0  0  0  0  0  0  0  0  0  0  0
   38.8585   28.5367   36.1198 H   0  0  0  0  0  0  0  0  0  0  0  0
   36.6129   22.1699   34.8990 H   0  0  0  0  0  0  0  0  0  0  0  0
   38.2432   21.4248   34.5010 H   0  0  0  0  0  0  0  0  0  0  0  0
   41.0683   22.6084   37.8604 H   0  0  0  0  0  0  0  0  0  0  0  0
   39.5787   23.4743   39.6943 H   0  0  0  0  0  0  0  0  0  0  0  0
   37.1092   23.7923   39.1505 H   0  0  0  0  0  0  0  0  0  0  0  0
  1 11  1  0
  1 12  1  0
  2  1  1  0
  3  2  2  0
  3  4  1  0
  4 11  2  0
  5  4  1  0
  5  7  1  0
  6  5  2  0
  7  8  1  0
  8 10  2  0
  8  9  1  0
 11 10  1  0
 12 17  1  0
 13 14  2  0
 15 14  1  0
 16 15  2  0
 17 18  2  0
 17 16  1  0
 18 13  1  0
  2 19  1  0
  7 20  1  0
  9 21  1  0
  9 22  1  0
 12 23  1  0
 12 24  1  0
 13 25  1  0
 14 26  1  0
 15 27  1  0
M  ISO  7  19  14  20   9  23   8  24   8  25  14  26  14  27  14
M  END
>  <minimizedAffinity>  (1) 
-4.82903814

>  <minimizedRMSD>  (1) 
0.635701537

$$$$
