
     RDKit          3D

 27 29  0  0  0  0  0  0  0  0999 V2000
   39.0980   22.1860   34.5160 C   0  0  0  0  0  0  0  0  0  0  0  0
   38.7010   23.2470   33.5760 C   0  0  0  0  0  0  0  0  0  0  0  0
   39.3370   24.4440   33.2600 C   0  0  0  0  0  0  0  0  0  0  0  0
   38.6090   25.0840   32.3100 N   0  0  0  0  0  0  0  0  0  0  0  0
   37.5260   24.3410   32.0050 C   0  0  0  0  0  0  0  0  0  0  0  0
   36.4920   24.5680   31.1030 C   0  0  0  0  0  0  0  0  0  0  0  0
   35.4830   23.6380   30.9760 C   0  0  0  0  0  0  0  0  0  0  0  0
   35.5540   22.5080   31.7650 C   0  0  0  0  0  0  0  0  0  0  0  0
   36.5650   22.2510   32.6700 C   0  0  0  0  0  0  0  0  0  0  0  0
   37.5700   23.1900   32.7880 C   0  0  0  0  0  0  0  0  0  0  0  0
   40.0180   22.7980   38.0120 C   0  0  0  0  0  0  0  0  0  0  0  0
   38.8260   23.3080   38.5930 C   0  0  0  0  0  0  0  0  0  0  0  0
   37.7070   23.4280   37.7560 C   0  0  0  0  0  0  0  0  0  0  0  0
   37.8080   23.0550   36.4350 N   0  0  0  0  0  0  0  0  0  0  0  0
   38.9750   22.5760   35.9480 C   0  0  0  0  0  0  0  0  0  0  0  0
   40.0680   22.4410   36.6980 N   0  0  0  0  0  0  0  0  0  0  0  0
   40.1470   21.9211   34.3174 H   0  0  0  0  0  0  0  0  0  0  0  0
   38.4129   21.3408   34.3537 H   0  0  0  0  0  0  0  0  0  0  0  0
   40.2735   24.8103   33.7059 H   0  0  0  0  0  0  0  0  0  0  0  0
   38.8463   25.9934   31.8887 H   0  0  0  0  0  0  0  0  0  0  0  0
   36.4797   25.4844   30.4946 H   0  0  0  0  0  0  0  0  0  0  0  0
   34.6518   23.7907   30.2718 H   0  0  0  0  0  0  0  0  0  0  0  0
   34.7516   21.7621   31.6665 H   0  0  0  0  0  0  0  0  0  0  0  0
   36.5693   21.3320   33.2745 H   0  0  0  0  0  0  0  0  0  0  0  0
   40.9180   22.6892   38.6351 H   0  0  0  0  0  0  0  0  0  0  0  0
   38.7826   23.5963   39.6536 H   0  0  0  0  0  0  0  0  0  0  0  0
   36.7571   23.8167   38.1518 H   0  0  0  0  0  0  0  0  0  0  0  0
  1 15  1  0
  2  1  1  0
  3  2  2  0
  4  3  1  0
  5  4  1  0
  5 10  2  0
  6  5  1  0
  7  6  2  0
  7  8  1  0
  8  9  2  0
  9 10  1  0
 10  2  1  0
 11 12  2  0
 13 12  1  0
 14 13  2  0
 15 14  1  0
 15 16  2  0
 16 11  1  0
  1 17  1  0
  1 18  1  0
  3 19  1  0
  4 20  1  0
  6 21  1  0
  7 22  1  0
  8 23  1  0
  9 24  1  0
 11 25  1  0
 12 26  1  0
 13 27  1  0
M  ISO  8  17   8  18   8  19  14  20   9  21  14  22  14  23  14  24  14
M  ISO  3  25  14  26  14  27  14
M  END
>  <minimizedAffinity>  (1) 
-4.33271456

>  <minimizedRMSD>  (1) 
0.993364751

$$$$
