
     RDKit          3D

 62 64  0  0  0  0  0  0  0  0999 V2000
   37.6940   22.7030   36.3550 C   0  0  0  0  0  0  0  0  0  0  0  0
   37.8350   22.7450   34.9370 N   0  0  0  0  0  0  0  0  0  0  0  0
   38.0490   21.7360   34.0520 C   0  0  0  0  0  0  0  0  0  0  0  0
   38.1170   22.2500   32.7970 N   0  0  0  0  0  0  0  0  0  0  0  0
   37.9450   23.5730   32.8970 C   0  0  0  0  0  0  0  0  0  0  0  0
   37.7770   23.8530   34.2010 N   0  0  0  0  0  0  0  0  0  0  0  0
   37.9390   24.5590   31.7470 C   0  0  0  0  0  0  0  0  0  0  0  0
   36.7470   25.4840   31.9990 C   0  0  0  0  0  0  0  0  0  0  0  0
   37.6090   23.8060   30.4760 C   0  0  0  0  0  0  0  0  0  0  0  0
   39.1750   25.3380   31.6930 C   0  0  0  0  0  0  0  0  0  0  0  0
   39.2470   26.7680   31.8890 C   0  0  0  0  0  0  0  0  0  0  0  0
   39.5730   27.0060   33.3770 C   0  0  0  0  0  0  0  0  0  0  0  0
   41.0040   26.7160   33.6880 C   0  0  0  0  0  0  0  0  0  0  0  0
   41.8460   27.7150   32.9330 C   0  0  0  0  0  0  0  0  0  0  0  0
   41.5980   27.5750   31.4560 C   0  0  0  0  0  0  0  0  0  0  0  0
   40.1360   27.6190   31.0960 C   0  0  0  0  0  0  0  0  0  0  0  0
   38.6960   23.5950   37.0670 C   0  0  0  0  0  0  0  0  0  0  0  0
   41.9060   21.6530   36.9380 C   0  0  0  0  0  0  0  0  0  0  0  0
   40.6180   22.0150   37.2990 C   0  0  0  0  0  0  0  0  0  0  0  0
   40.0400   23.1640   36.7310 C   0  0  0  0  0  0  0  0  0  0  0  0
   40.7720   23.8790   35.8440 N   0  0  0  0  0  0  0  0  0  0  0  0
   42.0270   23.5070   35.5060 C   0  0  0  0  0  0  0  0  0  0  0  0
   42.5870   22.3920   36.0600 N   0  0  0  0  0  0  0  0  0  0  0  0
   42.4950   20.4390   37.5500 C   0  0  0  0  0  0  0  0  0  0  0  0
   43.2350   19.5870   36.5810 C   0  0  0  0  0  0  0  0  0  0  0  0
   38.5200   23.4350   38.5580 C   0  0  0  0  0  0  0  0  0  0  0  0
   38.4020   25.0220   36.6680 C   0  0  0  0  0  0  0  0  0  0  0  0
   37.8416   21.6668   36.6934 H   0  0  0  0  0  0  0  0  0  0  0  0
   36.6866   23.0699   36.6012 H   0  0  0  0  0  0  0  0  0  0  0  0
   38.1509   20.6719   34.3112 H   0  0  0  0  0  0  0  0  0  0  0  0
   36.5963   25.6010   33.0823 H   0  0  0  0  0  0  0  0  0  0  0  0
   36.9444   26.4677   31.5479 H   0  0  0  0  0  0  0  0  0  0  0  0
   35.8432   25.0485   31.5479 H   0  0  0  0  0  0  0  0  0  0  0  0
   37.1795   22.8260   30.7314 H   0  0  0  0  0  0  0  0  0  0  0  0
   36.8812   24.3829   29.8865 H   0  0  0  0  0  0  0  0  0  0  0  0
   38.5264   23.6619   29.8865 H   0  0  0  0  0  0  0  0  0  0  0  0
   39.8347   24.9005   32.4568 H   0  0  0  0  0  0  0  0  0  0  0  0
   39.4169   25.2652   30.6224 H   0  0  0  0  0  0  0  0  0  0  0  0
   38.2628   27.0930   31.5205 H   0  0  0  0  0  0  0  0  0  0  0  0
   39.3617   28.0570   33.6234 H   0  0  0  0  0  0  0  0  0  0  0  0
   38.9499   26.3248   33.9751 H   0  0  0  0  0  0  0  0  0  0  0  0
   41.1810   26.8171   34.7690 H   0  0  0  0  0  0  0  0  0  0  0  0
   41.2636   25.6891   33.3912 H   0  0  0  0  0  0  0  0  0  0  0  0
   41.5802   28.7332   33.2533 H   0  0  0  0  0  0  0  0  0  0  0  0
   42.9093   27.5270   33.1429 H   0  0  0  0  0  0  0  0  0  0  0  0
   42.1117   28.3965   30.9353 H   0  0  0  0  0  0  0  0  0  0  0  0
   41.9817   26.5903   31.1507 H   0  0  0  0  0  0  0  0  0  0  0  0
   39.7941   28.6584   31.2092 H   0  0  0  0  0  0  0  0  0  0  0  0
   40.0750   27.2303   30.0688 H   0  0  0  0  0  0  0  0  0  0  0  0
   40.0532   21.4093   38.0230 H   0  0  0  0  0  0  0  0  0  0  0  0
   42.5993   24.1052   34.7816 H   0  0  0  0  0  0  0  0  0  0  0  0
   43.1914   20.7510   38.3423 H   0  0  0  0  0  0  0  0  0  0  0  0
   41.6620   19.8365   37.9412 H   0  0  0  0  0  0  0  0  0  0  0  0
   43.8604   18.8669   37.1290 H   0  0  0  0  0  0  0  0  0  0  0  0
   42.5178   19.0431   35.9487 H   0  0  0  0  0  0  0  0  0  0  0  0
   43.8740   20.2210   35.9487 H   0  0  0  0  0  0  0  0  0  0  0  0
   39.2351   24.0851   39.0835 H   0  0  0  0  0  0  0  0  0  0  0  0
   37.4942   23.7163   38.8384 H   0  0  0  0  0  0  0  0  0  0  0  0
   38.7025   22.3871   38.8384 H   0  0  0  0  0  0  0  0  0  0  0  0
   38.2754   25.6367   37.5714 H   0  0  0  0  0  0  0  0  0  0  0  0
   39.2379   25.4155   36.0710 H   0  0  0  0  0  0  0  0  0  0  0  0
   37.4786   25.0530   36.0710 H   0  0  0  0  0  0  0  0  0  0  0  0
  1 17  1  0
  2  1  1  0
  3  2  1  0
  4  5  1  0
  4  3  2  0
  5  6  2  0
  6  2  1  0
  7  8  1  0
  7  5  1  0
  9  7  1  0
 10  7  1  0
 10 11  1  0
 11 12  1  0
 12 13  1  0
 14 13  1  0
 15 14  1  0
 16 15  1  0
 16 11  1  0
 17 26  1  0
 18 19  2  0
 18 24  1  0
 20 17  1  0
 20 19  1  0
 21 20  2  0
 22 21  1  0
 22 23  2  0
 23 18  1  0
 25 24  1  0
 27 17  1  0
  1 28  1  0
  1 29  1  0
  3 30  1  0
  8 31  1  0
  8 32  1  0
  8 33  1  0
  9 34  1  0
  9 35  1  0
  9 36  1  0
 10 37  1  0
 10 38  1  0
 11 39  1  0
 12 40  1  0
 12 41  1  0
 13 42  1  0
 13 43  1  0
 14 44  1  0
 14 45  1  0
 15 46  1  0
 15 47  1  0
 16 48  1  0
 16 49  1  0
 19 50  1  0
 22 51  1  0
 24 52  1  0
 24 53  1  0
 25 54  1  0
 25 55  1  0
 25 56  1  0
 26 57  1  0
 26 58  1  0
 26 59  1  0
 27 60  1  0
 27 61  1  0
 27 62  1  0
M  ISO  8  28   8  29   8  30  14  31   8  32   8  33   8  34   8  35   8
M  ISO  8  36   8  37   8  38   8  39  13  40  13  41  13  42  13  43  13
M  ISO  8  44  13  45  13  46  13  47  13  48  13  49  13  50  14  51  14
M  ISO  8  52   8  53   8  54   8  55   8  56   8  57   8  58   8  59   8
M  ISO  3  60   8  61   8  62   8
M  END
>  <minimizedAffinity>  (1) 
-5.16298246

>  <minimizedRMSD>  (1) 
1.77447569

$$$$
