
     RDKit          3D

 26 28  0  0  0  0  0  0  0  0999 V2000
   38.1500   22.9590   34.4720 C   0  0  0  0  0  0  0  0  0  0  0  0
   39.7530   22.6640   37.7730 C   0  0  0  0  0  0  0  0  0  0  0  0
   38.9300   23.4250   38.6190 C   0  0  0  0  0  0  0  0  0  0  0  0
   37.8180   24.0380   38.0340 C   0  0  0  0  0  0  0  0  0  0  0  0
   37.5750   23.8810   36.6920 N   0  0  0  0  0  0  0  0  0  0  0  0
   38.4070   23.1350   35.9340 C   0  0  0  0  0  0  0  0  0  0  0  0
   39.4800   22.5310   36.4510 N   0  0  0  0  0  0  0  0  0  0  0  0
   37.1760   21.9140   34.2530 N   0  0  0  0  0  0  0  0  0  0  0  0
   36.3410   21.2500   35.0720 C   0  0  0  0  0  0  0  0  0  0  0  0
   35.6170   20.3520   34.3840 N   0  0  0  0  0  0  0  0  0  0  0  0
   35.9770   20.4220   33.0920 C   0  0  0  0  0  0  0  0  0  0  0  0
   35.5380   19.7180   31.9900 C   0  0  0  0  0  0  0  0  0  0  0  0
   36.0880   20.0030   30.7940 N   0  0  0  0  0  0  0  0  0  0  0  0
   37.0400   20.9640   30.7480 C   0  0  0  0  0  0  0  0  0  0  0  0
   37.4810   21.6600   31.8030 N   0  0  0  0  0  0  0  0  0  0  0  0
   36.9460   21.3920   33.0160 C   0  0  0  0  0  0  0  0  0  0  0  0
   34.5250   18.7080   32.0990 N   0  0  0  0  0  0  0  0  0  0  0  0
   37.7687   23.9028   34.0550 H   0  0  0  0  0  0  0  0  0  0  0  0
   39.0910   22.6789   33.9759 H   0  0  0  0  0  0  0  0  0  0  0  0
   40.6390   22.1645   38.1919 H   0  0  0  0  0  0  0  0  0  0  0  0
   39.1499   23.5336   39.6913 H   0  0  0  0  0  0  0  0  0  0  0  0
   37.1380   24.6459   38.6488 H   0  0  0  0  0  0  0  0  0  0  0  0
   36.2619   21.4191   36.1560 H   0  0  0  0  0  0  0  0  0  0  0  0
   37.4857   21.1905   29.7682 H   0  0  0  0  0  0  0  0  0  0  0  0
   34.2150   18.1969   31.2602 H   0  0  0  0  0  0  0  0  0  0  0  0
   34.1077   18.4940   33.0160 H   0  0  0  0  0  0  0  0  0  0  0  0
  1  6  1  0
  2  3  2  0
  4  3  1  0
  5  4  2  0
  6  7  2  0
  6  5  1  0
  7  2  1  0
  8  1  1  0
  8  9  1  0
 10  9  2  0
 11 10  1  0
 12 17  1  0
 12 11  2  0
 13 12  1  0
 14 13  2  0
 14 15  1  0
 15 16  2  0
 16 11  1  0
 16  8  1  0
  1 18  1  0
  1 19  1  0
  2 20  1  0
  3 21  1  0
  4 22  1  0
  9 23  1  0
 14 24  1  0
 17 25  1  0
 17 26  1  0
M  ISO  7  18   8  19   8  20  14  21  14  22  14  23  14  24  14
M  END
>  <minimizedAffinity>  (1) 
-4.84259272

>  <minimizedRMSD>  (1) 
1.63534629

$$$$
