
     RDKit          3D

 26 27  0  0  0  0  0  0  0  0999 V2000
   39.6300   22.9300   37.2690 C   0  0  0  0  0  0  0  0  0  0  0  0
   38.8430   23.1520   38.4130 C   0  0  0  0  0  0  0  0  0  0  0  0
   37.9830   24.2730   38.3980 C   0  0  0  0  0  0  0  0  0  0  0  0
   37.9660   25.0670   37.2850 N   0  0  0  0  0  0  0  0  0  0  0  0
   38.7440   24.8000   36.2250 C   0  0  0  0  0  0  0  0  0  0  0  0
   39.5690   23.7500   36.2030 N   0  0  0  0  0  0  0  0  0  0  0  0
   38.7080   25.6790   35.0270 C   0  0  0  0  0  0  0  0  0  0  0  0
   37.3170   25.9160   34.5020 C   0  0  0  0  0  0  0  0  0  0  0  0
   37.0280   27.4020   34.6900 C   0  0  0  0  0  0  0  0  0  0  0  0
   36.8750   28.0120   33.3340 C   0  0  0  0  0  0  0  0  0  0  0  0
   37.1020   26.9340   32.3170 C   0  0  0  0  0  0  0  0  0  0  0  0
   37.1810   25.6270   33.0360 C   0  0  0  0  0  0  0  0  0  0  0  0
   40.3111   22.0666   37.2445 H   0  0  0  0  0  0  0  0  0  0  0  0
   38.8947   22.4810   39.2831 H   0  0  0  0  0  0  0  0  0  0  0  0
   37.3418   24.5017   39.2620 H   0  0  0  0  0  0  0  0  0  0  0  0
   39.1505   26.6502   35.2935 H   0  0  0  0  0  0  0  0  0  0  0  0
   39.2729   25.1692   34.2326 H   0  0  0  0  0  0  0  0  0  0  0  0
   36.6289   25.2489   35.0419 H   0  0  0  0  0  0  0  0  0  0  0  0
   36.1002   27.5329   35.2662 H   0  0  0  0  0  0  0  0  0  0  0  0
   37.8484   27.8868   35.2395 H   0  0  0  0  0  0  0  0  0  0  0  0
   35.8615   28.4247   33.2217 H   0  0  0  0  0  0  0  0  0  0  0  0
   37.5996   28.8281   33.1964 H   0  0  0  0  0  0  0  0  0  0  0  0
   38.0431   27.1211   31.7790 H   0  0  0  0  0  0  0  0  0  0  0  0
   36.2787   26.9186   31.5877 H   0  0  0  0  0  0  0  0  0  0  0  0
   36.2665   25.0437   32.8531 H   0  0  0  0  0  0  0  0  0  0  0  0
   38.0424   25.0438   32.6784 H   0  0  0  0  0  0  0  0  0  0  0  0
  1  2  2  0
  3  2  1  0
  4  3  2  0
  5  4  1  0
  6  5  2  0
  6  1  1  0
  7  5  1  0
  8  9  1  0
  8  7  1  0
 10  9  1  0
 11 12  1  0
 11 10  1  0
 12  8  1  0
  1 13  1  0
  2 14  1  0
  3 15  1  0
  7 16  1  0
  7 17  1  0
  8 18  1  0
  9 19  1  0
  9 20  1  0
 10 21  1  0
 10 22  1  0
 11 23  1  0
 11 24  1  0
 12 25  1  0
 12 26  1  0
M  ISO  8  13  14  14  14  15  14  16   8  17   8  18  13  19  13  20  13
M  ISO  6  21  13  22  13  23  13  24  13  25  13  26  13
M  END
>  <minimizedAffinity>  (1) 
-3.6318593

>  <minimizedRMSD>  (1) 
4.55282974

$$$$
