
     RDKit          3D

 20 20  0  0  0  0  0  0  0  0999 V2000
   37.9500   22.9410   34.7590 C   0  0  0  0  0  0  0  0  0  0  0  0
   39.7900   22.8200   37.9250 C   0  0  0  0  0  0  0  0  0  0  0  0
   39.0210   23.6010   38.7930 C   0  0  0  0  0  0  0  0  0  0  0  0
   37.8470   24.1800   38.2740 C   0  0  0  0  0  0  0  0  0  0  0  0
   37.5270   23.9450   36.9590 N   0  0  0  0  0  0  0  0  0  0  0  0
   38.3110   23.1850   36.1810 C   0  0  0  0  0  0  0  0  0  0  0  0
   39.4370   22.6160   36.6340 N   0  0  0  0  0  0  0  0  0  0  0  0
   37.4710   21.5590   34.7020 N   0  0  0  0  0  0  0  0  0  0  0  0
   36.3960   21.2410   33.8280 C   0  0  0  0  0  0  0  0  0  0  0  0
   36.2700   21.8730   32.7120 N   0  0  0  0  0  0  0  0  0  0  0  0
   35.4550   20.2350   34.1620 N   0  0  0  0  0  0  0  0  0  0  0  0
   36.9100   22.6190   32.3940 H   0  0  0  0  0  0  0  0  0  0  0  0
   37.1580   23.6346   34.4402 H   0  0  0  0  0  0  0  0  0  0  0  0
   38.8083   23.1005   34.0897 H   0  0  0  0  0  0  0  0  0  0  0  0
   40.7126   22.3558   38.3036 H   0  0  0  0  0  0  0  0  0  0  0  0
   39.3211   23.7570   39.8397 H   0  0  0  0  0  0  0  0  0  0  0  0
   37.2010   24.8061   38.9071 H   0  0  0  0  0  0  0  0  0  0  0  0
   37.9054   20.8295   35.2851 H   0  0  0  0  0  0  0  0  0  0  0  0
   34.6823   20.0179   33.5165 H   0  0  0  0  0  0  0  0  0  0  0  0
   35.5439   19.7211   35.0502 H   0  0  0  0  0  0  0  0  0  0  0  0
  1  6  1  0
  2  3  2  0
  4  3  1  0
  5  4  2  0
  6  7  2  0
  6  5  1  0
  7  2  1  0
  8  1  1  0
  9 11  1  0
  9  8  1  0
 10  9  2  0
 12 10  1  0
  1 13  1  0
  1 14  1  0
  2 15  1  0
  3 16  1  0
  4 17  1  0
  8 18  1  0
 11 19  1  0
 11 20  1  0
M  ISO  5  13   8  14   8  15  14  16  14  17  14
M  END
>  <minimizedAffinity>  (1) 
-3.37749648

>  <minimizedRMSD>  (1) 
1.11964536

$$$$
