
     RDKit          3D

 19 20  0  0  0  0  0  0  0  0999 V2000
   39.9800   22.7600   37.6110 C   0  0  0  0  0  0  0  0  0  0  0  0
   38.9950   23.2770   38.4790 C   0  0  0  0  0  0  0  0  0  0  0  0
   37.6860   23.3470   37.9580 C   0  0  0  0  0  0  0  0  0  0  0  0
   37.4370   22.9250   36.6810 N   0  0  0  0  0  0  0  0  0  0  0  0
   38.4380   22.4370   35.9030 C   0  0  0  0  0  0  0  0  0  0  0  0
   39.7030   22.3530   36.3570 N   0  0  0  0  0  0  0  0  0  0  0  0
   38.1620   21.9810   34.5170 C   0  0  0  0  0  0  0  0  0  0  0  0
   37.7740   23.1120   33.6650 N   0  0  0  0  0  0  0  0  0  0  0  0
   38.1170   24.4150   33.7110 C   0  0  0  0  0  0  0  0  0  0  0  0
   37.4960   25.0620   32.7050 N   0  0  0  0  0  0  0  0  0  0  0  0
   36.7630   24.1660   32.0290 C   0  0  0  0  0  0  0  0  0  0  0  0
   36.9440   22.9800   32.6290 N   0  0  0  0  0  0  0  0  0  0  0  0
   41.0161   22.6863   37.9729 H   0  0  0  0  0  0  0  0  0  0  0  0
   39.2337   23.6059   39.5012 H   0  0  0  0  0  0  0  0  0  0  0  0
   36.8668   23.7404   38.5778 H   0  0  0  0  0  0  0  0  0  0  0  0
   39.0675   21.5122   34.1043 H   0  0  0  0  0  0  0  0  0  0  0  0
   37.3341   21.2571   34.5416 H   0  0  0  0  0  0  0  0  0  0  0  0
   38.7923   24.8742   34.4480 H   0  0  0  0  0  0  0  0  0  0  0  0
   36.1330   24.3654   31.1496 H   0  0  0  0  0  0  0  0  0  0  0  0
  1  2  2  0
  3  2  1  0
  4  3  2  0
  5  6  2  0
  5  4  1  0
  6  1  1  0
  7  5  1  0
  8  9  1  0
  8  7  1  0
 10  9  2  0
 11 12  2  0
 11 10  1  0
 12  8  1  0
  1 13  1  0
  2 14  1  0
  3 15  1  0
  7 16  1  0
  7 17  1  0
  9 18  1  0
 11 19  1  0
M  ISO  7  13  14  14  14  15  14  16   8  17   8  18  14  19  14
M  END
>  <minimizedAffinity>  (1) 
-3.39935827

>  <minimizedRMSD>  (1) 
0.488863498

$$$$
