
     RDKit          3D

 14 14  0  0  0  0  0  0  0  0999 V2000
   39.9780   22.6790   37.5890 C   0  0  0  0  0  0  0  0  0  0  0  0
   39.1460   23.2930   38.5570 C   0  0  0  0  0  0  0  0  0  0  0  0
   37.8130   23.4950   38.1910 C   0  0  0  0  0  0  0  0  0  0  0  0
   37.3700   23.1030   36.9480 N   0  0  0  0  0  0  0  0  0  0  0  0
   38.2300   22.5200   36.0750 C   0  0  0  0  0  0  0  0  0  0  0  0
   39.5100   22.3080   36.3810 N   0  0  0  0  0  0  0  0  0  0  0  0
   37.7580   22.0940   34.7320 C   0  0  0  0  0  0  0  0  0  0  0  0
   37.8620   23.2030   33.8760 O   0  0  0  0  0  0  0  0  0  0  0  0
   41.0362   22.4999   37.8302 H   0  0  0  0  0  0  0  0  0  0  0  0
   39.5286   23.5944   39.5433 H   0  0  0  0  0  0  0  0  0  0  0  0
   37.1157   23.9685   38.8978 H   0  0  0  0  0  0  0  0  0  0  0  0
   38.3841   21.2707   34.3577 H   0  0  0  0  0  0  0  0  0  0  0  0
   36.7179   21.7393   34.7816 H   0  0  0  0  0  0  0  0  0  0  0  0
   37.9395   24.0298   34.4150 H   0  0  0  0  0  0  0  0  0  0  0  0
  1  2  2  0
  3  2  1  0
  4  3  2  0
  5  6  2  0
  5  4  1  0
  6  1  1  0
  7  5  1  0
  8  7  1  0
  1  9  1  0
  2 10  1  0
  3 11  1  0
  7 12  1  0
  7 13  1  0
  8 14  1  0
M  ISO  6   9  14  10  14  11  14  12   8  13   8  14   3
M  END
>  <minimizedAffinity>  (1) 
-2.76159191

>  <minimizedRMSD>  (1) 
0.0523504317

$$$$
