
     RDKit          3D

 19 20  0  0  0  0  0  0  0  0999 V2000
   37.9340   25.2120   36.2070 C   0  0  0  0  0  0  0  0  0  0  0  0
   37.9550   24.5150   37.4330 C   0  0  0  0  0  0  0  0  0  0  0  0
   38.2150   23.1410   37.3710 C   0  0  0  0  0  0  0  0  0  0  0  0
   38.4360   22.5400   36.1590 N   0  0  0  0  0  0  0  0  0  0  0  0
   38.4010   23.2760   35.0220 C   0  0  0  0  0  0  0  0  0  0  0  0
   38.1550   24.5930   35.0270 N   0  0  0  0  0  0  0  0  0  0  0  0
   38.6400   22.6290   33.6890 C   0  0  0  0  0  0  0  0  0  0  0  0
   37.3360   22.2280   33.1040 C   0  0  0  0  0  0  0  0  0  0  0  0
   36.5940   21.0730   33.4200 C   0  0  0  0  0  0  0  0  0  0  0  0
   35.0920   21.2260   32.3130 S   0  0  0  0  0  0  0  0  0  0  0  0
   35.7790   22.8560   31.6250 C   0  0  0  0  0  0  0  0  0  0  0  0
   36.7540   22.9780   32.1880 N   0  0  0  0  0  0  0  0  0  0  0  0
   37.7314   26.2932   36.2120 H   0  0  0  0  0  0  0  0  0  0  0  0
   37.7759   25.0259   38.3905 H   0  0  0  0  0  0  0  0  0  0  0  0
   38.2420   22.5438   38.2944 H   0  0  0  0  0  0  0  0  0  0  0  0
   39.1413   23.3420   33.0179 H   0  0  0  0  0  0  0  0  0  0  0  0
   39.2780   21.7420   33.8162 H   0  0  0  0  0  0  0  0  0  0  0  0
   36.8372   20.2774   34.1397 H   0  0  0  0  0  0  0  0  0  0  0  0
   35.3384   23.5192   30.8660 H   0  0  0  0  0  0  0  0  0  0  0  0
  1  2  2  0
  3  2  1  0
  4  3  2  0
  5  6  2  0
  5  4  1  0
  6  1  1  0
  7  5  1  0
  8  9  2  0
  8  7  1  0
 10  9  1  0
 11 12  2  0
 11 10  1  0
 12  8  1  0
  1 13  1  0
  2 14  1  0
  3 15  1  0
  7 16  1  0
  7 17  1  0
  9 18  1  0
 11 19  1  0
M  ISO  7  13  14  14  14  15  14  16   8  17   8  18  14  19  14
M  END
>  <minimizedAffinity>  (1) 
-3.14131474

>  <minimizedRMSD>  (1) 
3.11007571

$$$$
