
     RDKit          3D

 39 42  0  0  0  0  0  0  0  0999 V2000
   38.3620   25.8300   34.1680 C   0  0  0  0  0  0  0  0  0  0  0  0
   39.2480   24.7830   34.6790 C   0  0  0  0  0  0  0  0  0  0  0  0
   40.2790   24.2580   33.9240 C   0  0  0  0  0  0  0  0  0  0  0  0
   41.1030   23.2950   34.4300 C   0  0  0  0  0  0  0  0  0  0  0  0
   40.9380   22.8090   35.7200 C   0  0  0  0  0  0  0  0  0  0  0  0
   39.9080   23.3270   36.4830 C   0  0  0  0  0  0  0  0  0  0  0  0
   39.7310   22.8510   37.7740 C   0  0  0  0  0  0  0  0  0  0  0  0
   38.7140   23.3410   38.5730 C   0  0  0  0  0  0  0  0  0  0  0  0
   37.8710   24.3180   38.0630 C   0  0  0  0  0  0  0  0  0  0  0  0
   38.0710   24.7730   36.7740 C   0  0  0  0  0  0  0  0  0  0  0  0
   39.0810   24.3050   35.9470 C   0  0  0  0  0  0  0  0  0  0  0  0
   36.0210   25.9390   31.3460 C   0  0  0  0  0  0  0  0  0  0  0  0
   35.7210   24.6090   31.0910 C   0  0  0  0  0  0  0  0  0  0  0  0
   36.3350   23.6440   31.9120 C   0  0  0  0  0  0  0  0  0  0  0  0
   37.1810   24.0380   32.9060 N   0  0  0  0  0  0  0  0  0  0  0  0
   37.4340   25.3490   33.1050 C   0  0  0  0  0  0  0  0  0  0  0  0
   36.8620   26.2910   32.3360 N   0  0  0  0  0  0  0  0  0  0  0  0
   36.1050   22.2310   31.7480 C   0  0  0  0  0  0  0  0  0  0  0  0
   36.9770   21.5100   30.9630 C   0  0  0  0  0  0  0  0  0  0  0  0
   36.8030   20.1500   30.7720 C   0  0  0  0  0  0  0  0  0  0  0  0
   35.7630   19.4510   31.3470 C   0  0  0  0  0  0  0  0  0  0  0  0
   34.9060   20.1970   32.1260 C   0  0  0  0  0  0  0  0  0  0  0  0
   35.0760   21.5370   32.3160 C   0  0  0  0  0  0  0  0  0  0  0  0
   37.7631   26.2197   35.0043 H   0  0  0  0  0  0  0  0  0  0  0  0
   38.9992   26.6057   33.7182 H   0  0  0  0  0  0  0  0  0  0  0  0
   40.4383   24.6221   32.8983 H   0  0  0  0  0  0  0  0  0  0  0  0
   41.9141   22.8959   33.8033 H   0  0  0  0  0  0  0  0  0  0  0  0
   41.6071   22.0346   36.1232 H   0  0  0  0  0  0  0  0  0  0  0  0
   40.4062   22.0762   38.1661 H   0  0  0  0  0  0  0  0  0  0  0  0
   38.5756   22.9622   39.5964 H   0  0  0  0  0  0  0  0  0  0  0  0
   37.0541   24.7249   38.6770 H   0  0  0  0  0  0  0  0  0  0  0  0
   37.3938   25.5468   36.3833 H   0  0  0  0  0  0  0  0  0  0  0  0
   35.5617   26.7228   30.7258 H   0  0  0  0  0  0  0  0  0  0  0  0
   35.0332   24.3207   30.2824 H   0  0  0  0  0  0  0  0  0  0  0  0
   37.8232   22.0217   30.4812 H   0  0  0  0  0  0  0  0  0  0  0  0
   37.5203   19.6075   30.1387 H   0  0  0  0  0  0  0  0  0  0  0  0
   35.6267   18.3703   31.1940 H   0  0  0  0  0  0  0  0  0  0  0  0
   34.0559   19.6951   32.6112 H   0  0  0  0  0  0  0  0  0  0  0  0
   34.3579   22.0779   32.9499 H   0  0  0  0  0  0  0  0  0  0  0  0
  1  2  1  0
  2 11  2  0
  3  4  2  0
  3  2  1  0
  4  5  1  0
  5  6  2  0
  6  7  1  0
  7  8  2  0
  9  8  1  0
 10  9  2  0
 11  6  1  0
 11 10  1  0
 12 17  2  0
 13 12  1  0
 13 14  2  0
 14 15  1  0
 15 16  2  0
 16  1  1  0
 17 16  1  0
 18 14  1  0
 18 23  1  0
 19 18  2  0
 20 19  1  0
 20 21  2  0
 21 22  1  0
 22 23  2  0
  1 24  1  0
  1 25  1  0
  3 26  1  0
  4 27  1  0
  5 28  1  0
  7 29  1  0
  8 30  1  0
  9 31  1  0
 10 32  1  0
 12 33  1  0
 13 34  1  0
 19 35  1  0
 20 36  1  0
 21 37  1  0
 22 38  1  0
 23 39  1  0
M  ISO  8  24   8  25   8  26  14  27  14  28  14  29  14  30  14  31  14
M  ISO  8  32  14  33  14  34  14  35  14  36  14  37  14  38  14  39  14
M  END
>  <minimizedAffinity>  (1) 
-6.61586809

>  <minimizedRMSD>  (1) 
3.11271405

$$$$
