
     RDKit          3D

 40 44  0  0  0  0  0  0  0  0999 V2000
   38.4410   25.8350   34.1410 C   0  0  0  0  0  0  0  0  0  0  0  0
   39.3190   24.7930   34.6680 C   0  0  0  0  0  0  0  0  0  0  0  0
   40.3720   24.2760   33.9390 C   0  0  0  0  0  0  0  0  0  0  0  0
   41.1920   23.3150   34.4670 C   0  0  0  0  0  0  0  0  0  0  0  0
   40.9970   22.8290   35.7420 C   0  0  0  0  0  0  0  0  0  0  0  0
   39.9470   23.3360   36.4850 C   0  0  0  0  0  0  0  0  0  0  0  0
   39.7410   22.8570   37.7720 C   0  0  0  0  0  0  0  0  0  0  0  0
   38.7070   23.3360   38.5480 C   0  0  0  0  0  0  0  0  0  0  0  0
   37.8680   24.3090   38.0200 C   0  0  0  0  0  0  0  0  0  0  0  0
   38.0950   24.7680   36.7370 C   0  0  0  0  0  0  0  0  0  0  0  0
   39.1240   24.3130   35.9280 C   0  0  0  0  0  0  0  0  0  0  0  0
   36.0980   25.9070   31.3180 C   0  0  0  0  0  0  0  0  0  0  0  0
   35.7750   24.5750   31.1080 C   0  0  0  0  0  0  0  0  0  0  0  0
   36.3700   23.6090   31.9570 C   0  0  0  0  0  0  0  0  0  0  0  0
   37.2280   24.0360   32.9340 N   0  0  0  0  0  0  0  0  0  0  0  0
   37.5020   25.3330   33.0900 C   0  0  0  0  0  0  0  0  0  0  0  0
   36.9470   26.2640   32.2970 N   0  0  0  0  0  0  0  0  0  0  0  0
   36.0780   22.2310   31.7890 N   0  0  0  0  0  0  0  0  0  0  0  0
   35.0170   21.5400   32.2980 C   0  0  0  0  0  0  0  0  0  0  0  0
   35.1080   20.2380   31.9020 N   0  0  0  0  0  0  0  0  0  0  0  0
   36.2290   20.1110   31.1430 C   0  0  0  0  0  0  0  0  0  0  0  0
   36.7850   19.0140   30.4980 C   0  0  0  0  0  0  0  0  0  0  0  0
   37.9370   19.1850   29.7950 N   0  0  0  0  0  0  0  0  0  0  0  0
   38.5110   20.4230   29.7440 C   0  0  0  0  0  0  0  0  0  0  0  0
   37.9760   21.4960   30.3680 N   0  0  0  0  0  0  0  0  0  0  0  0
   36.8360   21.3650   31.0740 C   0  0  0  0  0  0  0  0  0  0  0  0
   37.8492   26.2476   34.9714 H   0  0  0  0  0  0  0  0  0  0  0  0
   39.0805   26.5980   33.6731 H   0  0  0  0  0  0  0  0  0  0  0  0
   40.5548   24.6421   32.9179 H   0  0  0  0  0  0  0  0  0  0  0  0
   42.0227   22.9231   33.8618 H   0  0  0  0  0  0  0  0  0  0  0  0
   41.6605   22.0567   36.1582 H   0  0  0  0  0  0  0  0  0  0  0  0
   40.4116   22.0852   38.1777 H   0  0  0  0  0  0  0  0  0  0  0  0
   38.5492   22.9543   39.5675 H   0  0  0  0  0  0  0  0  0  0  0  0
   37.0340   24.7087   38.6155 H   0  0  0  0  0  0  0  0  0  0  0  0
   37.4207   25.5384   36.3347 H   0  0  0  0  0  0  0  0  0  0  0  0
   35.6538   26.6813   30.6753 H   0  0  0  0  0  0  0  0  0  0  0  0
   35.0799   24.2780   30.3088 H   0  0  0  0  0  0  0  0  0  0  0  0
   34.2188   21.9638   32.9252 H   0  0  0  0  0  0  0  0  0  0  0  0
   36.3035   18.0266   30.5544 H   0  0  0  0  0  0  0  0  0  0  0  0
   39.4430   20.5518   29.1741 H   0  0  0  0  0  0  0  0  0  0  0  0
  1  2  1  0
  2 11  2  0
  3  4  2  0
  3  2  1  0
  4  5  1  0
  5  6  2  0
  6  7  1  0
  7  8  2  0
  9  8  1  0
 10  9  2  0
 11  6  1  0
 11 10  1  0
 12 17  2  0
 13 12  1  0
 13 14  2  0
 14 15  1  0
 15 16  2  0
 16  1  1  0
 17 16  1  0
 18 14  1  0
 18 19  1  0
 20 19  2  0
 21 20  1  0
 22 21  2  0
 23 22  1  0
 24 23  2  0
 24 25  1  0
 25 26  2  0
 26 21  1  0
 26 18  1  0
  1 27  1  0
  1 28  1  0
  3 29  1  0
  4 30  1  0
  5 31  1  0
  7 32  1  0
  8 33  1  0
  9 34  1  0
 10 35  1  0
 12 36  1  0
 13 37  1  0
 19 38  1  0
 22 39  1  0
 24 40  1  0
M  ISO  8  27   8  28   8  29  14  30  14  31  14  32  14  33  14  34  14
M  ISO  6  35  14  36  14  37  14  38  14  39  14  40  14
M  END
>  <minimizedAffinity>  (1) 
-6.33290243

>  <minimizedRMSD>  (1) 
3.43979764

$$$$
