
     RDKit          3D

 36 38  0  0  0  0  0  0  0  0999 V2000
   37.6620   27.4440   35.4200 C   0  0  0  0  0  0  0  0  0  0  0  0
   38.8610   26.6350   35.2090 C   0  0  0  0  0  0  0  0  0  0  0  0
   39.9790   27.0990   34.5480 C   0  0  0  0  0  0  0  0  0  0  0  0
   41.0880   26.3130   34.3920 C   0  0  0  0  0  0  0  0  0  0  0  0
   41.1350   25.0190   34.8890 C   0  0  0  0  0  0  0  0  0  0  0  0
   40.0180   24.5390   35.5540 C   0  0  0  0  0  0  0  0  0  0  0  0
   40.0490   23.2490   36.0580 C   0  0  0  0  0  0  0  0  0  0  0  0
   38.9660   22.7210   36.7290 C   0  0  0  0  0  0  0  0  0  0  0  0
   37.8400   23.5180   36.8870 C   0  0  0  0  0  0  0  0  0  0  0  0
   37.8330   24.7910   36.3800 C   0  0  0  0  0  0  0  0  0  0  0  0
   38.9050   25.3510   35.7010 C   0  0  0  0  0  0  0  0  0  0  0  0
   35.3660   29.0570   33.0540 C   0  0  0  0  0  0  0  0  0  0  0  0
   35.4590   28.2870   31.9070 C   0  0  0  0  0  0  0  0  0  0  0  0
   36.3220   27.1750   31.9310 C   0  0  0  0  0  0  0  0  0  0  0  0
   37.0190   26.9190   33.0870 N   0  0  0  0  0  0  0  0  0  0  0  0
   36.8970   27.6890   34.1650 C   0  0  0  0  0  0  0  0  0  0  0  0
   36.0790   28.7470   34.1500 N   0  0  0  0  0  0  0  0  0  0  0  0
   36.5160   26.3170   30.8430 N   0  0  0  0  0  0  0  0  0  0  0  0
   36.5800   24.9050   30.9470 C   0  0  0  0  0  0  0  0  0  0  0  0
   35.6880   24.3490   31.7100 N   0  0  0  0  0  0  0  0  0  0  0  0
   37.5900   24.1700   30.2300 N   0  0  0  0  0  0  0  0  0  0  0  0
   35.6930   23.3150   31.8200 H   0  0  0  0  0  0  0  0  0  0  0  0
   37.0075   26.9215   36.1332 H   0  0  0  0  0  0  0  0  0  0  0  0
   37.9882   28.4222   35.8030 H   0  0  0  0  0  0  0  0  0  0  0  0
   39.9791   28.1200   34.1386 H   0  0  0  0  0  0  0  0  0  0  0  0
   41.9623   26.7166   33.8603 H   0  0  0  0  0  0  0  0  0  0  0  0
   42.0306   24.3936   34.7594 H   0  0  0  0  0  0  0  0  0  0  0  0
   40.9520   22.6360   35.9208 H   0  0  0  0  0  0  0  0  0  0  0  0
   38.9934   21.6964   37.1282 H   0  0  0  0  0  0  0  0  0  0  0  0
   36.9578   23.1293   37.4167 H   0  0  0  0  0  0  0  0  0  0  0  0
   36.9286   25.4016   36.5190 H   0  0  0  0  0  0  0  0  0  0  0  0
   34.7006   29.9328   33.0682 H   0  0  0  0  0  0  0  0  0  0  0  0
   34.8778   28.5359   31.0068 H   0  0  0  0  0  0  0  0  0  0  0  0
   36.6187   26.7376   29.9084 H   0  0  0  0  0  0  0  0  0  0  0  0
   37.6332   23.1439   30.3082 H   0  0  0  0  0  0  0  0  0  0  0  0
   38.2691   24.6705   29.6390 H   0  0  0  0  0  0  0  0  0  0  0  0
  2  1  1  0
  2 11  1  0
  3  2  2  0
  4  3  1  0
  4  5  2  0
  5  6  1  0
  6 11  2  0
  6  7  1  0
  7  8  2  0
  8  9  1  0
 10  9  2  0
 11 10  1  0
 12 17  2  0
 13 14  2  0
 13 12  1  0
 14 15  1  0
 15 16  2  0
 16  1  1  0
 17 16  1  0
 18 19  1  0
 18 14  1  0
 19 20  2  0
 20 22  1  0
 21 19  1  0
  1 23  1  0
  1 24  1  0
  3 25  1  0
  4 26  1  0
  5 27  1  0
  7 28  1  0
  8 29  1  0
  9 30  1  0
 10 31  1  0
 12 32  1  0
 13 33  1  0
 18 34  1  0
 21 35  1  0
 21 36  1  0
M  ISO  8  23   8  24   8  25  14  26  14  27  14  28  14  29  14  30  14
M  ISO  3  31  14  32  14  33  14
M  END
>  <minimizedAffinity>  (1) 
-5.9118104

>  <minimizedRMSD>  (1) 
1.11929703

$$$$
