
     RDKit          3D

 36 39  0  0  0  0  0  0  0  0999 V2000
   39.2200   24.7190   34.6420 C   0  0  0  0  0  0  0  0  0  0  0  0
   40.2430   24.1700   33.8930 C   0  0  0  0  0  0  0  0  0  0  0  0
   41.0720   23.2100   34.4070 C   0  0  0  0  0  0  0  0  0  0  0  0
   40.9160   22.7480   35.7120 C   0  0  0  0  0  0  0  0  0  0  0  0
   39.8950   23.2930   36.4620 C   0  0  0  0  0  0  0  0  0  0  0  0
   39.7240   22.8470   37.7700 C   0  0  0  0  0  0  0  0  0  0  0  0
   38.7260   23.3570   38.5620 C   0  0  0  0  0  0  0  0  0  0  0  0
   37.8780   24.3280   38.0520 C   0  0  0  0  0  0  0  0  0  0  0  0
   38.0640   24.7600   36.7480 C   0  0  0  0  0  0  0  0  0  0  0  0
   39.0610   24.2690   35.9190 C   0  0  0  0  0  0  0  0  0  0  0  0
   38.3360   25.7600   34.1180 C   0  0  0  0  0  0  0  0  0  0  0  0
   35.8910   25.8210   31.3840 C   0  0  0  0  0  0  0  0  0  0  0  0
   35.6580   24.4860   31.0900 C   0  0  0  0  0  0  0  0  0  0  0  0
   36.3550   23.5270   31.8550 C   0  0  0  0  0  0  0  0  0  0  0  0
   37.2140   23.9510   32.8310 N   0  0  0  0  0  0  0  0  0  0  0  0
   37.3970   25.2550   33.0700 C   0  0  0  0  0  0  0  0  0  0  0  0
   36.7450   26.1840   32.3570 N   0  0  0  0  0  0  0  0  0  0  0  0
   36.2060   22.1250   31.6540 N   0  0  0  0  0  0  0  0  0  0  0  0
   35.1650   21.6040   32.3660 C   0  0  0  0  0  0  0  0  0  0  0  0
   35.1080   20.2380   32.1010 C   0  0  0  0  0  0  0  0  0  0  0  0
   36.1200   19.9740   31.2320 N   0  0  0  0  0  0  0  0  0  0  0  0
   36.7710   21.1160   30.9730 C   0  0  0  0  0  0  0  0  0  0  0  0
   40.3948   24.5127   32.8588 H   0  0  0  0  0  0  0  0  0  0  0  0
   41.8749   22.7963   33.7792 H   0  0  0  0  0  0  0  0  0  0  0  0
   41.5819   21.9778   36.1284 H   0  0  0  0  0  0  0  0  0  0  0  0
   40.3972   22.0763   38.1735 H   0  0  0  0  0  0  0  0  0  0  0  0
   38.5998   22.9979   39.5941 H   0  0  0  0  0  0  0  0  0  0  0  0
   37.0718   24.7482   38.6712 H   0  0  0  0  0  0  0  0  0  0  0  0
   37.3869   25.5307   36.3512 H   0  0  0  0  0  0  0  0  0  0  0  0
   37.7450   26.1698   34.9503 H   0  0  0  0  0  0  0  0  0  0  0  0
   38.9711   26.5263   33.6495 H   0  0  0  0  0  0  0  0  0  0  0  0
   35.3665   26.5988   30.8095 H   0  0  0  0  0  0  0  0  0  0  0  0
   34.9596   24.1874   30.2943 H   0  0  0  0  0  0  0  0  0  0  0  0
   34.4907   22.1635   33.0310 H   0  0  0  0  0  0  0  0  0  0  0  0
   34.3875   19.5160   32.5128 H   0  0  0  0  0  0  0  0  0  0  0  0
   37.6381   21.2121   30.3030 H   0  0  0  0  0  0  0  0  0  0  0  0
  1 10  2  0
  2  3  2  0
  2  1  1  0
  3  4  1  0
  4  5  2  0
  5  6  1  0
  6  7  2  0
  8  7  1  0
  9  8  2  0
 10  5  1  0
 10  9  1  0
 11  1  1  0
 12 17  2  0
 13 12  1  0
 13 14  2  0
 14 15  1  0
 15 16  2  0
 16 11  1  0
 17 16  1  0
 18 14  1  0
 18 19  1  0
 20 19  2  0
 21 20  1  0
 22 21  2  0
 22 18  1  0
  2 23  1  0
  3 24  1  0
  4 25  1  0
  6 26  1  0
  7 27  1  0
  8 28  1  0
  9 29  1  0
 11 30  1  0
 11 31  1  0
 12 32  1  0
 13 33  1  0
 19 34  1  0
 20 35  1  0
 22 36  1  0
M  ISO  8  23  14  24  14  25  14  26  14  27  14  28  14  29  14  30   8
M  ISO  6  31   8  32  14  33  14  34  14  35  14  36  14
M  END
>  <minimizedAffinity>  (1) 
-5.90828037

>  <minimizedRMSD>  (1) 
2.98165774

$$$$
