
     RDKit          3D

 32 34  0  0  0  0  0  0  0  0999 V2000
   38.9860   26.4500   35.2520 C   0  0  0  0  0  0  0  0  0  0  0  0
   40.0970   27.0260   34.6640 C   0  0  0  0  0  0  0  0  0  0  0  0
   41.2610   26.3210   34.4850 C   0  0  0  0  0  0  0  0  0  0  0  0
   41.3650   25.0040   34.8890 C   0  0  0  0  0  0  0  0  0  0  0  0
   40.2610   24.4180   35.4790 C   0  0  0  0  0  0  0  0  0  0  0  0
   40.3490   23.0910   35.8950 C   0  0  0  0  0  0  0  0  0  0  0  0
   39.2760   22.4670   36.4900 C   0  0  0  0  0  0  0  0  0  0  0  0
   38.1000   23.1670   36.6730 C   0  0  0  0  0  0  0  0  0  0  0  0
   38.0310   24.4850   36.2520 C   0  0  0  0  0  0  0  0  0  0  0  0
   39.0880   25.1480   35.6510 C   0  0  0  0  0  0  0  0  0  0  0  0
   37.7420   27.1880   35.4670 C   0  0  0  0  0  0  0  0  0  0  0  0
   35.6300   28.8570   32.9670 C   0  0  0  0  0  0  0  0  0  0  0  0
   35.5190   27.9310   31.9420 C   0  0  0  0  0  0  0  0  0  0  0  0
   36.1710   26.6900   32.0960 C   0  0  0  0  0  0  0  0  0  0  0  0
   36.8810   26.4540   33.2400 N   0  0  0  0  0  0  0  0  0  0  0  0
   36.9590   27.3910   34.2100 C   0  0  0  0  0  0  0  0  0  0  0  0
   36.3420   28.5710   34.0720 N   0  0  0  0  0  0  0  0  0  0  0  0
   36.0750   25.6890   31.0330 C   0  0  0  0  0  0  0  0  0  0  0  0
   40.0468   28.0735   34.3320 H   0  0  0  0  0  0  0  0  0  0  0  0
   42.1244   26.8123   34.0126 H   0  0  0  0  0  0  0  0  0  0  0  0
   42.2979   24.4390   34.7455 H   0  0  0  0  0  0  0  0  0  0  0  0
   41.2868   22.5357   35.7462 H   0  0  0  0  0  0  0  0  0  0  0  0
   39.3547   21.4196   36.8169 H   0  0  0  0  0  0  0  0  0  0  0  0
   37.2313   22.6855   37.1458 H   0  0  0  0  0  0  0  0  0  0  0  0
   37.0890   25.0327   36.4027 H   0  0  0  0  0  0  0  0  0  0  0  0
   37.1204   26.6271   36.1805 H   0  0  0  0  0  0  0  0  0  0  0  0
   38.0116   28.1829   35.8511 H   0  0  0  0  0  0  0  0  0  0  0  0
   35.1320   29.8336   32.8764 H   0  0  0  0  0  0  0  0  0  0  0  0
   34.9394   28.1573   31.0349 H   0  0  0  0  0  0  0  0  0  0  0  0
   35.9790   24.6882   31.4793 H   0  0  0  0  0  0  0  0  0  0  0  0
   35.1929   25.8989   30.4103 H   0  0  0  0  0  0  0  0  0  0  0  0
   36.9809   25.7274   30.4103 H   0  0  0  0  0  0  0  0  0  0  0  0
  1 11  1  0
  1 10  1  0
  2  1  2  0
  3  2  1  0
  3  4  2  0
  4  5  1  0
  5 10  2  0
  5  6  1  0
  6  7  2  0
  7  8  1  0
  9  8  2  0
 10  9  1  0
 12 17  2  0
 13 14  2  0
 13 12  1  0
 14 15  1  0
 15 16  2  0
 16 11  1  0
 17 16  1  0
 18 14  1  0
  2 19  1  0
  3 20  1  0
  4 21  1  0
  6 22  1  0
  7 23  1  0
  8 24  1  0
  9 25  1  0
 11 26  1  0
 11 27  1  0
 12 28  1  0
 13 29  1  0
 18 30  1  0
 18 31  1  0
 18 32  1  0
M  ISO  8  19  14  20  14  21  14  22  14  23  14  24  14  25  14  26   8
M  ISO  6  27   8  28  14  29  14  30   8  31   8  32   8
M  END
>  <minimizedAffinity>  (1) 
-5.11623049

>  <minimizedRMSD>  (1) 
0.0980426073

$$$$
