
     RDKit          3D

 31 33  0  0  0  0  0  0  0  0999 V2000
   38.9590   26.6230   35.3160 C   0  0  0  0  0  0  0  0  0  0  0  0
   40.0720   27.0870   34.6430 C   0  0  0  0  0  0  0  0  0  0  0  0
   41.1420   26.2690   34.4050 C   0  0  0  0  0  0  0  0  0  0  0  0
   41.1490   24.9470   34.8300 C   0  0  0  0  0  0  0  0  0  0  0  0
   40.0360   24.4730   35.5060 C   0  0  0  0  0  0  0  0  0  0  0  0
   40.0240   23.1620   35.9400 C   0  0  0  0  0  0  0  0  0  0  0  0
   38.9460   22.6420   36.6170 C   0  0  0  0  0  0  0  0  0  0  0  0
   37.8540   23.4620   36.8620 C   0  0  0  0  0  0  0  0  0  0  0  0
   37.8880   24.7750   36.4180 C   0  0  0  0  0  0  0  0  0  0  0  0
   38.9620   25.3260   35.7350 C   0  0  0  0  0  0  0  0  0  0  0  0
   37.8100   27.4810   35.6060 C   0  0  0  0  0  0  0  0  0  0  0  0
   35.4480   29.2030   33.3960 C   0  0  0  0  0  0  0  0  0  0  0  0
   35.3750   28.4010   32.2650 C   0  0  0  0  0  0  0  0  0  0  0  0
   36.1550   27.2310   32.2590 C   0  0  0  0  0  0  0  0  0  0  0  0
   36.9340   26.9460   33.3470 N   0  0  0  0  0  0  0  0  0  0  0  0
   36.9640   27.7540   34.4050 C   0  0  0  0  0  0  0  0  0  0  0  0
   36.2300   28.8790   34.4420 N   0  0  0  0  0  0  0  0  0  0  0  0
   36.1290   26.3430   31.1100 C   0  0  0  0  0  0  0  0  0  0  0  0
   35.0990   25.6710   30.8740 O   0  0  0  0  0  0  0  0  0  0  0  0
   40.0984   28.1296   34.2933 H   0  0  0  0  0  0  0  0  0  0  0  0
   42.0147   26.6664   33.8660 H   0  0  0  0  0  0  0  0  0  0  0  0
   42.0132   24.2948   34.6356 H   0  0  0  0  0  0  0  0  0  0  0  0
   40.8949   22.5204   35.7400 H   0  0  0  0  0  0  0  0  0  0  0  0
   38.9494   21.5961   36.9577 H   0  0  0  0  0  0  0  0  0  0  0  0
   36.9753   23.0766   37.3999 H   0  0  0  0  0  0  0  0  0  0  0  0
   37.0157   25.4145   36.6183 H   0  0  0  0  0  0  0  0  0  0  0  0
   37.1881   26.9876   36.3674 H   0  0  0  0  0  0  0  0  0  0  0  0
   38.2024   28.4468   35.9571 H   0  0  0  0  0  0  0  0  0  0  0  0
   34.8516   30.1264   33.4380 H   0  0  0  0  0  0  0  0  0  0  0  0
   34.7352   28.6690   31.4113 H   0  0  0  0  0  0  0  0  0  0  0  0
   37.0070   26.2614   30.4524 H   0  0  0  0  0  0  0  0  0  0  0  0
  1 11  1  0
  1 10  1  0
  2  1  2  0
  3  2  1  0
  3  4  2  0
  4  5  1  0
  5 10  2  0
  5  6  1  0
  6  7  2  0
  7  8  1  0
  9  8  2  0
 10  9  1  0
 12 17  2  0
 13 12  1  0
 14 13  2  0
 14 15  1  0
 15 16  2  0
 16 17  1  0
 16 11  1  0
 18 14  1  0
 19 18  2  0
  2 20  1  0
  3 21  1  0
  4 22  1  0
  6 23  1  0
  7 24  1  0
  8 25  1  0
  9 26  1  0
 11 27  1  0
 11 28  1  0
 12 29  1  0
 13 30  1  0
 18 31  1  0
M  ISO  8  20  14  21  14  22  14  23  14  24  14  25  14  26  14  27   8
M  ISO  4  28   8  29  14  30  14  31   6
M  END
>  <minimizedAffinity>  (1) 
-5.2934823

>  <minimizedRMSD>  (1) 
0.499375194

$$$$
