
     RDKit          3D

 41 44  0  0  0  0  0  0  0  0999 V2000
   37.9450   26.8160   34.9480 C   0  0  0  0  0  0  0  0  0  0  0  0
   38.7980   25.6520   35.0270 C   0  0  0  0  0  0  0  0  0  0  0  0
   39.6580   25.3170   33.9830 C   0  0  0  0  0  0  0  0  0  0  0  0
   40.4690   24.2180   34.0600 C   0  0  0  0  0  0  0  0  0  0  0  0
   40.4710   23.3910   35.1790 C   0  0  0  0  0  0  0  0  0  0  0  0
   39.6120   23.7230   36.2220 C   0  0  0  0  0  0  0  0  0  0  0  0
   39.5940   22.9090   37.3460 C   0  0  0  0  0  0  0  0  0  0  0  0
   38.7670   23.1870   38.4000 C   0  0  0  0  0  0  0  0  0  0  0  0
   37.9350   24.3020   38.3360 C   0  0  0  0  0  0  0  0  0  0  0  0
   37.9740   25.0970   37.2000 C   0  0  0  0  0  0  0  0  0  0  0  0
   38.8020   24.8430   36.1150 C   0  0  0  0  0  0  0  0  0  0  0  0
   36.5910   28.4540   31.9700 C   0  0  0  0  0  0  0  0  0  0  0  0
   36.0480   27.4230   31.2200 C   0  0  0  0  0  0  0  0  0  0  0  0
   36.1410   26.1160   31.7540 C   0  0  0  0  0  0  0  0  0  0  0  0
   36.7490   25.9330   32.9580 N   0  0  0  0  0  0  0  0  0  0  0  0
   37.2560   26.9710   33.6350 C   0  0  0  0  0  0  0  0  0  0  0  0
   37.1770   28.2190   33.1470 N   0  0  0  0  0  0  0  0  0  0  0  0
   35.5880   24.9980   31.0250 C   0  0  0  0  0  0  0  0  0  0  0  0
   34.5010   25.1380   30.3990 O   0  0  0  0  0  0  0  0  0  0  0  0
   36.2950   23.7420   31.0270 C   0  0  0  0  0  0  0  0  0  0  0  0
   35.5440   22.6560   31.4540 C   0  0  0  0  0  0  0  0  0  0  0  0
   36.1390   21.4070   31.4880 C   0  0  0  0  0  0  0  0  0  0  0  0
   37.4610   21.2450   31.1020 C   0  0  0  0  0  0  0  0  0  0  0  0
   38.1980   22.3350   30.6790 C   0  0  0  0  0  0  0  0  0  0  0  0
   37.6060   23.5750   30.6450 C   0  0  0  0  0  0  0  0  0  0  0  0
   37.1794   26.7385   35.7340 H   0  0  0  0  0  0  0  0  0  0  0  0
   38.5926   27.6961   35.0751 H   0  0  0  0  0  0  0  0  0  0  0  0
   39.6852   25.9469   33.0817 H   0  0  0  0  0  0  0  0  0  0  0  0
   41.1354   23.9825   33.2172 H   0  0  0  0  0  0  0  0  0  0  0  0
   41.1261   22.5092   35.2368 H   0  0  0  0  0  0  0  0  0  0  0  0
   40.2529   22.0293   37.3900 H   0  0  0  0  0  0  0  0  0  0  0  0
   38.7594   22.5373   39.2876 H   0  0  0  0  0  0  0  0  0  0  0  0
   37.2605   24.5473   39.1696 H   0  0  0  0  0  0  0  0  0  0  0  0
   37.3136   25.9756   37.1565 H   0  0  0  0  0  0  0  0  0  0  0  0
   36.5385   29.4846   31.5891 H   0  0  0  0  0  0  0  0  0  0  0  0
   35.5649   27.6127   30.2501 H   0  0  0  0  0  0  0  0  0  0  0  0
   34.4953   22.7855   31.7597 H   0  0  0  0  0  0  0  0  0  0  0  0
   35.5583   20.5353   31.8241 H   0  0  0  0  0  0  0  0  0  0  0  0
   37.9238   20.2475   31.1325 H   0  0  0  0  0  0  0  0  0  0  0  0
   39.2473   22.2115   30.3728 H   0  0  0  0  0  0  0  0  0  0  0  0
   38.1882   24.4453   30.3079 H   0  0  0  0  0  0  0  0  0  0  0  0
  1  2  1  0
  2 11  2  0
  3  4  2  0
  3  2  1  0
  4  5  1  0
  5  6  2  0
  6  7  1  0
  7  8  2  0
  9  8  1  0
 10  9  2  0
 11  6  1  0
 11 10  1  0
 12 17  2  0
 13 14  2  0
 13 12  1  0
 14 15  1  0
 15 16  2  0
 16  1  1  0
 17 16  1  0
 18 20  1  0
 18 14  1  0
 19 18  2  0
 20 21  2  0
 21 22  1  0
 23 22  2  0
 24 23  1  0
 25 24  2  0
 25 20  1  0
  1 26  1  0
  1 27  1  0
  3 28  1  0
  4 29  1  0
  5 30  1  0
  7 31  1  0
  8 32  1  0
  9 33  1  0
 10 34  1  0
 12 35  1  0
 13 36  1  0
 21 37  1  0
 22 38  1  0
 23 39  1  0
 24 40  1  0
 25 41  1  0
M  ISO  8  26   8  27   8  28  14  29  14  30  14  31  14  32  14  33  14
M  ISO  8  34  14  35  14  36  14  37  14  38  14  39  14  40  14  41  14
M  END
>  <minimizedAffinity>  (1) 
-6.43990993

>  <minimizedRMSD>  (1) 
2.54469347

$$$$
