
     RDKit          3D

 42 46  0  0  0  0  0  0  0  0999 V2000
   37.8300   27.4230   35.5380 C   0  0  0  0  0  0  0  0  0  0  0  0
   38.9820   26.5650   35.3220 C   0  0  0  0  0  0  0  0  0  0  0  0
   40.1160   27.0550   34.6780 C   0  0  0  0  0  0  0  0  0  0  0  0
   41.2140   26.2600   34.4800 C   0  0  0  0  0  0  0  0  0  0  0  0
   41.2340   24.9320   34.9170 C   0  0  0  0  0  0  0  0  0  0  0  0
   40.1120   24.4480   35.5530 C   0  0  0  0  0  0  0  0  0  0  0  0
   40.0950   23.1350   36.0020 C   0  0  0  0  0  0  0  0  0  0  0  0
   39.0020   22.6010   36.6450 C   0  0  0  0  0  0  0  0  0  0  0  0
   37.8880   23.4060   36.8450 C   0  0  0  0  0  0  0  0  0  0  0  0
   37.9220   24.7210   36.3870 C   0  0  0  0  0  0  0  0  0  0  0  0
   39.0030   25.2820   35.7420 C   0  0  0  0  0  0  0  0  0  0  0  0
   35.6190   29.0720   33.1250 C   0  0  0  0  0  0  0  0  0  0  0  0
   35.4280   28.1400   32.1280 C   0  0  0  0  0  0  0  0  0  0  0  0
   36.0740   26.8970   32.2800 C   0  0  0  0  0  0  0  0  0  0  0  0
   36.8460   26.6770   33.3870 N   0  0  0  0  0  0  0  0  0  0  0  0
   36.9900   27.6160   34.3090 C   0  0  0  0  0  0  0  0  0  0  0  0
   36.3830   28.8140   34.1900 N   0  0  0  0  0  0  0  0  0  0  0  0
   35.9190   25.8700   31.2660 C   0  0  0  0  0  0  0  0  0  0  0  0
   34.8210   25.7010   30.7100 O   0  0  0  0  0  0  0  0  0  0  0  0
   37.8580   21.6700   30.7950 N   0  0  0  0  0  0  0  0  0  0  0  0
   36.5850   21.5630   31.2230 C   0  0  0  0  0  0  0  0  0  0  0  0
   36.0670   22.8030   31.3440 N   0  0  0  0  0  0  0  0  0  0  0  0
   37.0250   23.6670   30.9890 C   0  0  0  0  0  0  0  0  0  0  0  0
   37.0760   25.0450   30.9150 C   0  0  0  0  0  0  0  0  0  0  0  0
   38.2230   25.5920   30.5100 N   0  0  0  0  0  0  0  0  0  0  0  0
   39.3350   24.9160   30.1690 C   0  0  0  0  0  0  0  0  0  0  0  0
   39.3190   23.5860   30.2300 N   0  0  0  0  0  0  0  0  0  0  0  0
   38.1670   22.9800   30.6380 C   0  0  0  0  0  0  0  0  0  0  0  0
   37.2027   26.9733   36.3217 H   0  0  0  0  0  0  0  0  0  0  0  0
   38.2127   28.4127   35.8277 H   0  0  0  0  0  0  0  0  0  0  0  0
   40.1300   28.0961   34.3231 H   0  0  0  0  0  0  0  0  0  0  0  0
   42.0954   26.6737   33.9682 H   0  0  0  0  0  0  0  0  0  0  0  0
   42.1165   24.2948   34.7582 H   0  0  0  0  0  0  0  0  0  0  0  0
   40.9806   22.5031   35.8392 H   0  0  0  0  0  0  0  0  0  0  0  0
   39.0103   21.5577   36.9936 H   0  0  0  0  0  0  0  0  0  0  0  0
   36.9963   23.0128   37.3551 H   0  0  0  0  0  0  0  0  0  0  0  0
   37.0335   25.3488   36.5497 H   0  0  0  0  0  0  0  0  0  0  0  0
   35.1297   30.0537   33.0417 H   0  0  0  0  0  0  0  0  0  0  0  0
   34.7989   28.3569   31.2521 H   0  0  0  0  0  0  0  0  0  0  0  0
   38.4954   20.8810   30.6156 H   0  0  0  0  0  0  0  0  0  0  0  0
   36.0566   20.6225   31.4378 H   0  0  0  0  0  0  0  0  0  0  0  0
   40.2399   25.4516   29.8461 H   0  0  0  0  0  0  0  0  0  0  0  0
  2  1  1  0
  2 11  1  0
  3  2  2  0
  4  3  1  0
  4  5  2  0
  5  6  1  0
  6 11  2  0
  6  7  1  0
  7  8  2  0
  8  9  1  0
 10  9  2  0
 11 10  1  0
 12 17  2  0
 13 14  2  0
 13 12  1  0
 14 15  1  0
 15 16  2  0
 16  1  1  0
 17 16  1  0
 18 14  1  0
 19 18  2  0
 20 21  1  0
 21 22  2  0
 23 22  1  0
 24 23  2  0
 24 18  1  0
 25 24  1  0
 26 27  1  0
 26 25  2  0
 27 28  2  0
 28 20  1  0
 28 23  1  0
  1 29  1  0
  1 30  1  0
  3 31  1  0
  4 32  1  0
  5 33  1  0
  7 34  1  0
  8 35  1  0
  9 36  1  0
 10 37  1  0
 12 38  1  0
 13 39  1  0
 20 40  1  0
 21 41  1  0
 26 42  1  0
M  ISO  8  29   8  30   8  31  14  32  14  33  14  34  14  35  14  36  14
M  ISO  6  37  14  38  14  39  14  40   9  41  14  42  14
M  END
>  <minimizedAffinity>  (1) 
-6.3464613

>  <minimizedRMSD>  (1) 
1.45358312

$$$$
