
     RDKit          3D

 41 44  0  0  0  0  0  0  0  0999 V2000
   37.9180   26.8020   34.9270 C   0  0  0  0  0  0  0  0  0  0  0  0
   38.7670   25.6140   35.0130 C   0  0  0  0  0  0  0  0  0  0  0  0
   39.6080   25.2630   33.9590 C   0  0  0  0  0  0  0  0  0  0  0  0
   40.4130   24.1570   34.0430 C   0  0  0  0  0  0  0  0  0  0  0  0
   40.4160   23.3510   35.1780 C   0  0  0  0  0  0  0  0  0  0  0  0
   39.5750   23.6980   36.2350 C   0  0  0  0  0  0  0  0  0  0  0  0
   39.5620   22.9170   37.3650 C   0  0  0  0  0  0  0  0  0  0  0  0
   38.7510   23.2170   38.4350 C   0  0  0  0  0  0  0  0  0  0  0  0
   37.9290   24.3390   38.3560 C   0  0  0  0  0  0  0  0  0  0  0  0
   37.9710   25.1040   37.1960 C   0  0  0  0  0  0  0  0  0  0  0  0
   38.7740   24.8250   36.1130 C   0  0  0  0  0  0  0  0  0  0  0  0
   36.7190   28.4370   31.8800 C   0  0  0  0  0  0  0  0  0  0  0  0
   36.1140   27.4230   31.1480 C   0  0  0  0  0  0  0  0  0  0  0  0
   36.1140   26.1370   31.7190 C   0  0  0  0  0  0  0  0  0  0  0  0
   36.6980   25.9580   32.9420 N   0  0  0  0  0  0  0  0  0  0  0  0
   37.2620   26.9620   33.5960 C   0  0  0  0  0  0  0  0  0  0  0  0
   37.2770   28.2050   33.0750 N   0  0  0  0  0  0  0  0  0  0  0  0
   35.5090   25.0370   31.0090 C   0  0  0  0  0  0  0  0  0  0  0  0
   34.4420   25.1870   30.3930 O   0  0  0  0  0  0  0  0  0  0  0  0
   36.2000   23.7330   31.0410 C   0  0  0  0  0  0  0  0  0  0  0  0
   37.5370   23.5970   30.6790 C   0  0  0  0  0  0  0  0  0  0  0  0
   38.1680   22.3650   30.7160 C   0  0  0  0  0  0  0  0  0  0  0  0
   37.4800   21.2360   31.1170 C   0  0  0  0  0  0  0  0  0  0  0  0
   36.1360   21.3340   31.4870 C   0  0  0  0  0  0  0  0  0  0  0  0
   35.5650   22.5890   31.4290 C   0  0  0  0  0  0  0  0  0  0  0  0
   37.1348   26.7282   35.6959 H   0  0  0  0  0  0  0  0  0  0  0  0
   38.5658   27.6779   35.0790 H   0  0  0  0  0  0  0  0  0  0  0  0
   39.6260   25.8807   33.0490 H   0  0  0  0  0  0  0  0  0  0  0  0
   41.0690   23.9014   33.1978 H   0  0  0  0  0  0  0  0  0  0  0  0
   41.0642   22.4644   35.2395 H   0  0  0  0  0  0  0  0  0  0  0  0
   40.2142   22.0326   37.4154 H   0  0  0  0  0  0  0  0  0  0  0  0
   38.7516   22.5839   39.3345 H   0  0  0  0  0  0  0  0  0  0  0  0
   37.2646   24.6122   39.1890 H   0  0  0  0  0  0  0  0  0  0  0  0
   37.3207   25.9894   37.1398 H   0  0  0  0  0  0  0  0  0  0  0  0
   36.7402   29.4565   31.4674 H   0  0  0  0  0  0  0  0  0  0  0  0
   35.6559   27.6166   30.1669 H   0  0  0  0  0  0  0  0  0  0  0  0
   38.1025   24.4841   30.3578 H   0  0  0  0  0  0  0  0  0  0  0  0
   39.2254   22.2845   30.4238 H   0  0  0  0  0  0  0  0  0  0  0  0
   37.9894   20.2615   31.1450 H   0  0  0  0  0  0  0  0  0  0  0  0
   35.5610   20.4533   31.8089 H   0  0  0  0  0  0  0  0  0  0  0  0
   34.5078   22.6746   31.7204 H   0  0  0  0  0  0  0  0  0  0  0  0
  1  2  1  0
  2 11  2  0
  3  4  2  0
  3  2  1  0
  4  5  1  0
  5  6  2  0
  6  7  1  0
  7  8  2  0
  9  8  1  0
 10  9  2  0
 11  6  1  0
 11 10  1  0
 12 17  2  0
 13 14  2  0
 13 12  1  0
 14 15  1  0
 15 16  2  0
 16  1  1  0
 17 16  1  0
 18 20  1  0
 18 14  1  0
 19 18  2  0
 20 25  2  0
 21 22  2  0
 21 20  1  0
 22 23  1  0
 23 24  2  0
 25 24  1  0
  1 26  1  0
  1 27  1  0
  3 28  1  0
  4 29  1  0
  5 30  1  0
  7 31  1  0
  8 32  1  0
  9 33  1  0
 10 34  1  0
 12 35  1  0
 13 36  1  0
 21 37  1  0
 22 38  1  0
 23 39  1  0
 24 40  1  0
 25 41  1  0
M  ISO  8  26   8  27   8  28  14  29  14  30  14  31  14  32  14  33  14
M  ISO  8  34  14  35  14  36  14  37  14  38  14  39  14  40  14  41  14
M  END
>  <minimizedAffinity>  (1) 
-6.44594193

>  <minimizedRMSD>  (1) 
2.62326169

$$$$
