
     RDKit          3D

 38 41  0  0  0  0  0  0  0  0999 V2000
   37.9910   27.5630   35.8080 C   0  0  0  0  0  0  0  0  0  0  0  0
   39.0270   26.6150   35.4320 C   0  0  0  0  0  0  0  0  0  0  0  0
   40.1630   27.0470   34.7520 C   0  0  0  0  0  0  0  0  0  0  0  0
   41.1560   26.1710   34.4060 C   0  0  0  0  0  0  0  0  0  0  0  0
   41.0600   24.8180   34.7220 C   0  0  0  0  0  0  0  0  0  0  0  0
   39.9270   24.3850   35.3990 C   0  0  0  0  0  0  0  0  0  0  0  0
   39.8160   23.0400   35.7230 C   0  0  0  0  0  0  0  0  0  0  0  0
   38.7170   22.5630   36.3910 C   0  0  0  0  0  0  0  0  0  0  0  0
   37.7000   23.4540   36.7460 C   0  0  0  0  0  0  0  0  0  0  0  0
   37.8480   24.7940   36.4050 C   0  0  0  0  0  0  0  0  0  0  0  0
   38.9390   25.3020   35.7350 C   0  0  0  0  0  0  0  0  0  0  0  0
   35.3410   29.3180   33.9880 C   0  0  0  0  0  0  0  0  0  0  0  0
   35.4020   28.8040   32.6990 C   0  0  0  0  0  0  0  0  0  0  0  0
   36.3830   27.8170   32.4390 C   0  0  0  0  0  0  0  0  0  0  0  0
   37.2110   27.4280   33.4580 N   0  0  0  0  0  0  0  0  0  0  0  0
   37.1030   27.9570   34.6650 C   0  0  0  0  0  0  0  0  0  0  0  0
   36.1760   28.9000   34.9430 N   0  0  0  0  0  0  0  0  0  0  0  0
   36.5050   27.2370   31.1160 C   0  0  0  0  0  0  0  0  0  0  0  0
   35.8420   26.2050   30.8420 O   0  0  0  0  0  0  0  0  0  0  0  0
   37.3750   27.8300   30.1120 C   0  0  0  0  0  0  0  0  0  0  0  0
   38.7180   28.1010   30.2650 C   0  0  0  0  0  0  0  0  0  0  0  0
   39.1530   28.6440   29.1080 N   0  0  0  0  0  0  0  0  0  0  0  0
   38.1550   28.7320   28.2280 C   0  0  0  0  0  0  0  0  0  0  0  0
   37.0920   28.2260   28.8780 N   0  0  0  0  0  0  0  0  0  0  0  0
   37.3688   27.1072   36.5923 H   0  0  0  0  0  0  0  0  0  0  0  0
   38.4962   28.4756   36.1572 H   0  0  0  0  0  0  0  0  0  0  0  0
   40.2639   28.1102   34.4885 H   0  0  0  0  0  0  0  0  0  0  0  0
   42.0428   26.5409   33.8705 H   0  0  0  0  0  0  0  0  0  0  0  0
   41.8575   24.1133   34.4438 H   0  0  0  0  0  0  0  0  0  0  0  0
   40.6213   22.3462   35.4399 H   0  0  0  0  0  0  0  0  0  0  0  0
   38.6371   21.4954   36.6436 H   0  0  0  0  0  0  0  0  0  0  0  0
   36.8052   23.1040   37.2816 H   0  0  0  0  0  0  0  0  0  0  0  0
   37.0450   25.4906   36.6875 H   0  0  0  0  0  0  0  0  0  0  0  0
   34.5896   30.0850   34.2272 H   0  0  0  0  0  0  0  0  0  0  0  0
   34.7157   29.1499   31.9120 H   0  0  0  0  0  0  0  0  0  0  0  0
   39.3232   27.9101   31.1635 H   0  0  0  0  0  0  0  0  0  0  0  0
   38.1927   29.1286   27.2027 H   0  0  0  0  0  0  0  0  0  0  0  0
   36.1534   28.1533   28.4601 H   0  0  0  0  0  0  0  0  0  0  0  0
  2 11  1  0
  2  1  1  0
  3  2  2  0
  4  5  2  0
  4  3  1  0
  5  6  1  0
  6  7  1  0
  6 11  2  0
  7  8  2  0
  8  9  1  0
 10  9  2  0
 11 10  1  0
 12 17  2  0
 13 12  1  0
 14 13  2  0
 14 15  1  0
 15 16  2  0
 16 17  1  0
 16  1  1  0
 18 14  1  0
 19 18  2  0
 20 21  2  0
 20 18  1  0
 22 21  1  0
 23 24  1  0
 23 22  2  0
 24 20  1  0
  1 25  1  0
  1 26  1  0
  3 27  1  0
  4 28  1  0
  5 29  1  0
  7 30  1  0
  8 31  1  0
  9 32  1  0
 10 33  1  0
 12 34  1  0
 13 35  1  0
 21 36  1  0
 23 37  1  0
 24 38  1  0
M  ISO  8  25   8  26   8  27  14  28  14  29  14  30  14  31  14  32  14
M  ISO  6  33  14  34  14  35  14  36  14  37  14  38   9
M  END
>  <minimizedAffinity>  (1) 
-6.00745106

>  <minimizedRMSD>  (1) 
1.11711264

$$$$
