
     RDKit          3D

 53 55  0  0  0  0  0  0  0  0999 V2000
   37.7480   22.6300   36.1710 C   0  0  0  0  0  0  0  0  0  0  0  0
   37.9230   22.6950   34.7600 N   0  0  0  0  0  0  0  0  0  0  0  0
   38.5640   21.8420   33.9070 C   0  0  0  0  0  0  0  0  0  0  0  0
   38.4650   22.3210   32.6450 N   0  0  0  0  0  0  0  0  0  0  0  0
   37.7690   23.4660   32.6910 C   0  0  0  0  0  0  0  0  0  0  0  0
   37.4610   23.6590   33.9660 N   0  0  0  0  0  0  0  0  0  0  0  0
   37.4320   24.3180   31.5180 C   0  0  0  0  0  0  0  0  0  0  0  0
   35.9420   24.1920   31.2570 C   0  0  0  0  0  0  0  0  0  0  0  0
   38.1360   23.8100   30.2740 C   0  0  0  0  0  0  0  0  0  0  0  0
   37.7160   25.7710   31.7790 C   0  0  0  0  0  0  0  0  0  0  0  0
   39.0140   26.0040   32.4560 C   0  0  0  0  0  0  0  0  0  0  0  0
   39.1150   26.9450   33.4880 C   0  0  0  0  0  0  0  0  0  0  0  0
   40.4150   26.9770   33.9540 C   0  0  0  0  0  0  0  0  0  0  0  0
   41.0710   26.0710   33.2090 N   0  0  0  0  0  0  0  0  0  0  0  0
   40.2510   25.5240   32.3560 N   0  0  0  0  0  0  0  0  0  0  0  0
   38.6860   23.5470   36.9180 C   0  0  0  0  0  0  0  0  0  0  0  0
   41.9590   21.7000   36.8910 C   0  0  0  0  0  0  0  0  0  0  0  0
   40.6510   22.0180   37.1970 C   0  0  0  0  0  0  0  0  0  0  0  0
   40.0660   23.1630   36.6300 C   0  0  0  0  0  0  0  0  0  0  0  0
   40.8080   23.9210   35.7980 N   0  0  0  0  0  0  0  0  0  0  0  0
   42.0890   23.5890   35.5140 C   0  0  0  0  0  0  0  0  0  0  0  0
   42.6550   22.4720   36.0680 N   0  0  0  0  0  0  0  0  0  0  0  0
   42.5510   20.4850   37.5050 C   0  0  0  0  0  0  0  0  0  0  0  0
   43.1900   19.5720   36.5180 C   0  0  0  0  0  0  0  0  0  0  0  0
   38.4560   23.3840   38.4040 C   0  0  0  0  0  0  0  0  0  0  0  0
   38.3470   24.9670   36.5150 C   0  0  0  0  0  0  0  0  0  0  0  0
   37.9297   21.5964   36.5008 H   0  0  0  0  0  0  0  0  0  0  0  0
   36.7205   22.9536   36.3933 H   0  0  0  0  0  0  0  0  0  0  0  0
   39.0782   20.9145   34.1990 H   0  0  0  0  0  0  0  0  0  0  0  0
   35.4044   24.1465   32.2156 H   0  0  0  0  0  0  0  0  0  0  0  0
   35.5952   25.0640   30.6831 H   0  0  0  0  0  0  0  0  0  0  0  0
   35.7466   23.2741   30.6831 H   0  0  0  0  0  0  0  0  0  0  0  0
   38.9958   23.1896   30.5668 H   0  0  0  0  0  0  0  0  0  0  0  0
   37.4358   23.2077   29.6766 H   0  0  0  0  0  0  0  0  0  0  0  0
   38.4869   24.6644   29.6766 H   0  0  0  0  0  0  0  0  0  0  0  0
   37.7242   26.3032   30.8164 H   0  0  0  0  0  0  0  0  0  0  0  0
   36.9277   26.1406   32.4513 H   0  0  0  0  0  0  0  0  0  0  0  0
   38.2880   27.5625   33.8684 H   0  0  0  0  0  0  0  0  0  0  0  0
   40.8237   27.6061   34.7585 H   0  0  0  0  0  0  0  0  0  0  0  0
   42.0715   25.8431   33.2986 H   0  0  0  0  0  0  0  0  0  0  0  0
   40.0709   21.3798   37.8797 H   0  0  0  0  0  0  0  0  0  0  0  0
   42.6792   24.2206   34.8337 H   0  0  0  0  0  0  0  0  0  0  0  0
   43.3133   20.7990   38.2332 H   0  0  0  0  0  0  0  0  0  0  0  0
   41.7285   19.9272   37.9764 H   0  0  0  0  0  0  0  0  0  0  0  0
   43.7417   18.7838   37.0513 H   0  0  0  0  0  0  0  0  0  0  0  0
   42.4144   19.1138   35.8867 H   0  0  0  0  0  0  0  0  0  0  0  0
   43.8861   20.1438   35.8867 H   0  0  0  0  0  0  0  0  0  0  0  0
   39.2316   23.9336   38.9575 H   0  0  0  0  0  0  0  0  0  0  0  0
   37.4653   23.7827   38.6676 H   0  0  0  0  0  0  0  0  0  0  0  0
   38.5039   22.3171   38.6676 H   0  0  0  0  0  0  0  0  0  0  0  0
   38.2008   25.5792   37.4171 H   0  0  0  0  0  0  0  0  0  0  0  0
   39.1706   25.3851   35.9176 H   0  0  0  0  0  0  0  0  0  0  0  0
   37.4234   24.9680   35.9176 H   0  0  0  0  0  0  0  0  0  0  0  0
  1 16  1  0
  2  1  1  0
  3  2  1  0
  4  5  1  0
  4  3  2  0
  5  6  2  0
  6  2  1  0
  7 10  1  0
  7  5  1  0
  8  7  1  0
  9  7  1  0
 10 11  1  0
 11 12  1  0
 12 13  2  0
 14 13  1  0
 15 11  2  0
 15 14  1  0
 16 25  1  0
 17 18  2  0
 17 23  1  0
 19 16  1  0
 19 18  1  0
 20 19  2  0
 21 20  1  0
 21 22  2  0
 22 17  1  0
 24 23  1  0
 26 16  1  0
  1 27  1  0
  1 28  1  0
  3 29  1  0
  8 30  1  0
  8 31  1  0
  8 32  1  0
  9 33  1  0
  9 34  1  0
  9 35  1  0
 10 36  1  0
 10 37  1  0
 12 38  1  0
 13 39  1  0
 14 40  1  0
 18 41  1  0
 21 42  1  0
 23 43  1  0
 23 44  1  0
 24 45  1  0
 24 46  1  0
 24 47  1  0
 25 48  1  0
 25 49  1  0
 25 50  1  0
 26 51  1  0
 26 52  1  0
 26 53  1  0
M  ISO  8  27   8  28   8  29  14  30   8  31   8  32   8  33   8  34   8
M  ISO  8  35   8  36   8  37   8  38  14  39  14  40   9  41  14  42  14
M  ISO  8  43   8  44   8  45   8  46   8  47   8  48   8  49   8  50   8
M  ISO  3  51   8  52   8  53   8
M  END
>  <minimizedAffinity>  (1) 
-4.81332016

>  <minimizedRMSD>  (1) 
0.374191552

$$$$
