
     RDKit          3D

 45 48  0  0  1  0  0  0  0  0999 V2000
   37.8760   27.3610   35.1410 C   0  0  0  0  0  0  0  0  0  0  0  0
   39.0510   26.5060   35.1150 C   0  0  0  0  0  0  0  0  0  0  0  0
   40.2140   26.9350   34.4820 C   0  0  0  0  0  0  0  0  0  0  0  0
   41.3350   26.1450   34.4610 C   0  0  0  0  0  0  0  0  0  0  0  0
   41.3410   24.8900   35.0730 C   0  0  0  0  0  0  0  0  0  0  0  0
   40.1770   24.4690   35.7010 C   0  0  0  0  0  0  0  0  0  0  0  0
   40.1710   23.2230   36.3140 C   0  0  0  0  0  0  0  0  0  0  0  0
   39.0470   22.7570   36.9520 C   0  0  0  0  0  0  0  0  0  0  0  0
   37.9030   23.5550   36.9760 C   0  0  0  0  0  0  0  0  0  0  0  0
   37.9480   24.8020   36.3490 C   0  0  0  0  0  0  0  0  0  0  0  0
   39.0640   25.2870   35.7050 C   0  0  0  0  0  0  0  0  0  0  0  0
   36.0890   28.7010   32.2350 C   0  0  0  0  0  0  0  0  0  0  0  0
   35.7460   27.5930   31.4910 C   0  0  0  0  0  0  0  0  0  0  0  0
   36.1350   26.3300   31.9920 C   0  0  0  0  0  0  0  0  0  0  0  0
   36.8200   26.2730   33.1730 N   0  0  0  0  0  0  0  0  0  0  0  0
   37.1180   27.3760   33.8410 C   0  0  0  0  0  0  0  0  0  0  0  0
   36.7590   28.5860   33.3830 N   0  0  0  0  0  0  0  0  0  0  0  0
   35.8080   25.1190   31.2600 C   0  0  0  0  0  0  0  0  0  0  0  0
   34.6020   24.8460   31.0430 O   0  0  0  0  0  0  0  0  0  0  0  0
   36.8520   24.1850   30.7520 C   0  0  2  0  0  0  0  0  0  0  0  0
   36.5350   22.7500   31.0120 C   0  0  0  0  0  0  0  0  0  0  0  0
   36.6750   22.3870   32.4500 C   0  0  0  0  0  0  0  0  0  0  0  0
   37.8630   22.9250   33.1540 C   0  0  0  0  0  0  0  0  0  0  0  0
   38.7950   23.7360   32.3230 C   0  0  0  0  0  0  0  0  0  0  0  0
   38.1920   24.5550   31.2590 C   0  0  0  0  0  0  0  0  0  0  0  0
   37.2021   27.0032   35.9333 H   0  0  0  0  0  0  0  0  0  0  0  0
   38.2258   28.3876   35.3244 H   0  0  0  0  0  0  0  0  0  0  0  0
   40.2343   27.9199   33.9925 H   0  0  0  0  0  0  0  0  0  0  0  0
   42.2426   26.5054   33.9546 H   0  0  0  0  0  0  0  0  0  0  0  0
   42.2393   24.2554   35.0579 H   0  0  0  0  0  0  0  0  0  0  0  0
   41.0779   22.6010   36.2884 H   0  0  0  0  0  0  0  0  0  0  0  0
   39.0491   21.7695   37.4366 H   0  0  0  0  0  0  0  0  0  0  0  0
   36.9866   23.2099   37.4772 H   0  0  0  0  0  0  0  0  0  0  0  0
   37.0447   25.4294   36.3708 H   0  0  0  0  0  0  0  0  0  0  0  0
   35.8046   29.7008   31.8750 H   0  0  0  0  0  0  0  0  0  0  0  0
   35.1919   27.6877   30.5455 H   0  0  0  0  0  0  0  0  0  0  0  0
   36.8615   24.2930   29.6574 H   0  0  0  0  0  0  0  0  0  0  0  0
   35.4989   22.5550   30.6981 H   0  0  0  0  0  0  0  0  0  0  0  0
   37.2515   22.1405   30.4418 H   0  0  0  0  0  0  0  0  0  0  0  0
   35.9359   21.7533   32.9621 H   0  0  0  0  0  0  0  0  0  0  0  0
   38.0447   22.7371   34.2225 H   0  0  0  0  0  0  0  0  0  0  0  0
   39.3385   24.4140   32.9975 H   0  0  0  0  0  0  0  0  0  0  0  0
   39.4269   23.0032   31.7998 H   0  0  0  0  0  0  0  0  0  0  0  0
   38.8808   24.5307   30.4017 H   0  0  0  0  0  0  0  0  0  0  0  0
   38.0377   25.5362   31.7316 H   0  0  0  0  0  0  0  0  0  0  0  0
  2  1  1  0
  2 11  1  0
  3  2  2  0
  4  3  1  0
  4  5  2  0
  5  6  1  0
  6 11  2  0
  6  7  1  0
  7  8  2  0
  8  9  1  0
 10  9  2  0
 11 10  1  0
 12 17  2  0
 13 14  2  0
 13 12  1  0
 14 15  1  0
 15 16  2  0
 16  1  1  0
 17 16  1  0
 18 14  1  0
 19 18  2  0
 20 21  1  0
 20 25  1  0
 20 18  1  0
 21 22  1  0
 22 23  2  0
 24 23  1  0
 25 24  1  0
  1 26  1  0
  1 27  1  0
  3 28  1  0
  4 29  1  0
  5 30  1  0
  7 31  1  0
  8 32  1  0
  9 33  1  0
 10 34  1  0
 12 35  1  0
 13 36  1  0
 20 37  1  6
 21 38  1  0
 21 39  1  0
 22 40  1  0
 23 41  1  0
 24 42  1  0
 24 43  1  0
 25 44  1  0
 25 45  1  0
M  ISO  8  26   8  27   8  28  14  29  14  30  14  31  14  32  14  33  14
M  ISO  8  34  14  35  14  36  14  37  13  38  13  39  13  40  13  41  13
M  ISO  4  42  13  43  13  44  13  45  13
M  END
>  <minimizedAffinity>  (1) 
-5.84472704

>  <minimizedRMSD>  (1) 
1.39581299

$$$$
