
     RDKit          3D

 31 34  0  0  1  0  0  0  0  0999 V2000
   38.7300   25.6410   34.9540 C   0  0  2  0  0  0  0  0  0  0  0  0
   39.6450   26.8650   35.0700 C   0  0  0  0  0  0  0  0  0  0  0  0
   38.2140   26.9850   34.9970 C   0  0  1  0  0  0  0  0  0  0  0  0
   37.2570   27.6940   34.2020 C   0  0  0  0  0  0  0  0  0  0  0  0
   36.1600   28.3610   34.6890 N   0  0  0  0  0  0  0  0  0  0  0  0
   35.2880   29.0590   33.9670 C   0  0  0  0  0  0  0  0  0  0  0  0
   35.3820   29.1970   32.6370 N   0  0  0  0  0  0  0  0  0  0  0  0
   36.4170   28.5870   32.0390 C   0  0  0  0  0  0  0  0  0  0  0  0
   36.5100   28.7110   30.6800 C   0  0  0  0  0  0  0  0  0  0  0  0
   37.5450   28.0910   30.0110 C   0  0  0  0  0  0  0  0  0  0  0  0
   38.4720   27.3490   30.7510 C   0  0  0  0  0  0  0  0  0  0  0  0
   38.3040   27.2790   32.0960 C   0  0  0  0  0  0  0  0  0  0  0  0
   37.2910   27.8780   32.8180 C   0  0  0  0  0  0  0  0  0  0  0  0
   39.6100   22.9220   37.2930 C   0  0  0  0  0  0  0  0  0  0  0  0
   38.7970   23.1970   38.4140 C   0  0  0  0  0  0  0  0  0  0  0  0
   37.9350   24.3270   38.3530 C   0  0  0  0  0  0  0  0  0  0  0  0
   37.9560   25.0690   37.2110 N   0  0  0  0  0  0  0  0  0  0  0  0
   38.7690   24.7520   36.1540 C   0  0  0  0  0  0  0  0  0  0  0  0
   39.5830   23.6970   36.1930 N   0  0  0  0  0  0  0  0  0  0  0  0
   38.5330   24.7957   34.2782 H   0  0  0  0  0  0  0  0  0  0  0  0
   40.1731   27.0768   36.0114 H   0  0  0  0  0  0  0  0  0  0  0  0
   40.5011   27.2673   34.5086 H   0  0  0  0  0  0  0  0  0  0  0  0
   37.4702   27.5511   35.5770 H   0  0  0  0  0  0  0  0  0  0  0  0
   34.4495   29.5464   34.4861 H   0  0  0  0  0  0  0  0  0  0  0  0
   35.7654   29.3004   30.1249 H   0  0  0  0  0  0  0  0  0  0  0  0
   37.6395   28.1782   28.9185 H   0  0  0  0  0  0  0  0  0  0  0  0
   39.3117   26.8377   30.2576 H   0  0  0  0  0  0  0  0  0  0  0  0
   39.0419   26.6917   32.6622 H   0  0  0  0  0  0  0  0  0  0  0  0
   40.2827   22.0521   37.3193 H   0  0  0  0  0  0  0  0  0  0  0  0
   38.8291   22.5567   39.3078 H   0  0  0  0  0  0  0  0  0  0  0  0
   37.2777   24.5910   39.1946 H   0  0  0  0  0  0  0  0  0  0  0  0
  1  3  1  0
  1  2  1  0
  1 18  1  0
  3  2  1  0
  4  5  2  0
  4  3  1  0
  6  5  1  0
  7  6  2  0
  8  7  1  0
  8 13  2  0
  9  8  1  0
 10  9  2  0
 10 11  1  0
 11 12  2  0
 12 13  1  0
 13  4  1  0
 14 15  2  0
 16 15  1  0
 17 16  2  0
 18 19  2  0
 18 17  1  0
 19 14  1  0
  1 20  1  6
  2 21  1  0
  2 22  1  0
  3 23  1  1
  6 24  1  0
  9 25  1  0
 10 26  1  0
 11 27  1  0
 12 28  1  0
 14 29  1  0
 15 30  1  0
 16 31  1  0
M  ISO  8  20  13  21  13  22  13  23  13  24  14  25  14  26  14  27  14
M  ISO  4  28  14  29  14  30  14  31  14
M  END
>  <minimizedAffinity>  (1) 
-5.42400169

>  <minimizedRMSD>  (1) 
1.25017238

$$$$
