
     RDKit          3D

 53 55  0  0  0  0  0  0  0  0999 V2000
   38.6900   23.5180   36.9020 C   0  0  0  0  0  0  0  0  0  0  0  0
   41.9740   21.6980   36.8740 C   0  0  0  0  0  0  0  0  0  0  0  0
   40.6590   22.0100   37.1790 C   0  0  0  0  0  0  0  0  0  0  0  0
   40.0650   23.1510   36.6120 C   0  0  0  0  0  0  0  0  0  0  0  0
   40.8020   23.9090   35.7840 N   0  0  0  0  0  0  0  0  0  0  0  0
   42.0920   23.5970   35.4900 C   0  0  0  0  0  0  0  0  0  0  0  0
   42.6580   22.4810   36.0500 N   0  0  0  0  0  0  0  0  0  0  0  0
   42.5780   20.4890   37.4860 C   0  0  0  0  0  0  0  0  0  0  0  0
   43.1800   19.5560   36.4910 C   0  0  0  0  0  0  0  0  0  0  0  0
   38.4670   23.3940   38.3870 C   0  0  0  0  0  0  0  0  0  0  0  0
   38.3450   24.9300   36.4710 C   0  0  0  0  0  0  0  0  0  0  0  0
   37.7420   22.5770   36.1650 C   0  0  0  0  0  0  0  0  0  0  0  0
   37.8860   22.6520   34.7510 N   0  0  0  0  0  0  0  0  0  0  0  0
   38.4530   21.7630   33.8740 C   0  0  0  0  0  0  0  0  0  0  0  0
   38.3550   22.2700   32.6230 N   0  0  0  0  0  0  0  0  0  0  0  0
   37.7420   23.4520   32.7010 C   0  0  0  0  0  0  0  0  0  0  0  0
   37.4650   23.6660   34.0000 N   0  0  0  0  0  0  0  0  0  0  0  0
   37.4330   24.3460   31.5520 C   0  0  0  0  0  0  0  0  0  0  0  0
   35.9270   24.2760   31.3110 C   0  0  0  0  0  0  0  0  0  0  0  0
   38.0830   23.8120   30.2980 C   0  0  0  0  0  0  0  0  0  0  0  0
   37.7740   25.7730   31.8320 C   0  0  0  0  0  0  0  0  0  0  0  0
   36.6480   26.6180   32.3000 C   0  0  0  0  0  0  0  0  0  0  0  0
   36.9230   27.3610   33.6240 C   0  0  0  0  0  0  0  0  0  0  0  0
   36.9760   28.1400   32.3780 C   0  0  0  0  0  0  0  0  0  0  0  0
   40.0826   21.3681   37.8614 H   0  0  0  0  0  0  0  0  0  0  0  0
   42.6761   24.2338   34.8093 H   0  0  0  0  0  0  0  0  0  0  0  0
   43.3655   20.8087   38.1843 H   0  0  0  0  0  0  0  0  0  0  0  0
   41.7678   19.9435   37.9920 H   0  0  0  0  0  0  0  0  0  0  0  0
   43.7033   18.7450   37.0187 H   0  0  0  0  0  0  0  0  0  0  0  0
   42.3857   19.1304   35.8601 H   0  0  0  0  0  0  0  0  0  0  0  0
   43.8951   20.1043   35.8601 H   0  0  0  0  0  0  0  0  0  0  0  0
   39.3060   23.8605   38.9240 H   0  0  0  0  0  0  0  0  0  0  0  0
   37.5296   23.9004   38.6606 H   0  0  0  0  0  0  0  0  0  0  0  0
   38.4026   22.3305   38.6606 H   0  0  0  0  0  0  0  0  0  0  0  0
   38.1916   25.5579   37.3611 H   0  0  0  0  0  0  0  0  0  0  0  0
   39.1690   25.3415   35.8696 H   0  0  0  0  0  0  0  0  0  0  0  0
   37.4241   24.9151   35.8696 H   0  0  0  0  0  0  0  0  0  0  0  0
   37.9494   21.5455   36.4860 H   0  0  0  0  0  0  0  0  0  0  0  0
   36.7136   22.8797   36.4117 H   0  0  0  0  0  0  0  0  0  0  0  0
   38.9107   20.7994   34.1424 H   0  0  0  0  0  0  0  0  0  0  0  0
   35.4018   24.2516   32.2772 H   0  0  0  0  0  0  0  0  0  0  0  0
   35.6054   25.1602   30.7411 H   0  0  0  0  0  0  0  0  0  0  0  0
   35.6888   23.3658   30.7411 H   0  0  0  0  0  0  0  0  0  0  0  0
   38.9063   23.1356   30.5713 H   0  0  0  0  0  0  0  0  0  0  0  0
   37.3380   23.2617   29.7046 H   0  0  0  0  0  0  0  0  0  0  0  0
   38.4782   24.6497   29.7046 H   0  0  0  0  0  0  0  0  0  0  0  0
   38.5549   25.7893   32.6066 H   0  0  0  0  0  0  0  0  0  0  0  0
   38.0944   26.2015   30.8709 H   0  0  0  0  0  0  0  0  0  0  0  0
   35.8427   25.9947   31.8841 H   0  0  0  0  0  0  0  0  0  0  0  0
   36.1003   27.5278   34.3349 H   0  0  0  0  0  0  0  0  0  0  0  0
   37.6234   27.2038   34.4575 H   0  0  0  0  0  0  0  0  0  0  0  0
   37.9424   28.5108   32.0057 H   0  0  0  0  0  0  0  0  0  0  0  0
   36.4815   29.0546   32.0190 H   0  0  0  0  0  0  0  0  0  0  0  0
  1 10  1  0
  2  3  2  0
  2  8  1  0
  4  1  1  0
  4  3  1  0
  5  4  2  0
  6  5  1  0
  6  7  2  0
  7  2  1  0
  9  8  1  0
 11  1  1  0
 12  1  1  0
 13 12  1  0
 14 13  1  0
 15 16  1  0
 15 14  2  0
 16 17  2  0
 17 13  1  0
 18 21  1  0
 18 16  1  0
 19 18  1  0
 20 18  1  0
 21 22  1  0
 22 24  1  0
 22 23  1  0
 24 23  1  0
  3 25  1  0
  6 26  1  0
  8 27  1  0
  8 28  1  0
  9 29  1  0
  9 30  1  0
  9 31  1  0
 10 32  1  0
 10 33  1  0
 10 34  1  0
 11 35  1  0
 11 36  1  0
 11 37  1  0
 12 38  1  0
 12 39  1  0
 14 40  1  0
 19 41  1  0
 19 42  1  0
 19 43  1  0
 20 44  1  0
 20 45  1  0
 20 46  1  0
 21 47  1  0
 21 48  1  0
 22 49  1  0
 23 50  1  0
 23 51  1  0
 24 52  1  0
 24 53  1  0
M  ISO  8  25  14  26  14  27   8  28   8  29   8  30   8  31   8  32   8
M  ISO  8  33   8  34   8  35   8  36   8  37   8  38   8  39   8  40  14
M  ISO  8  41   8  42   8  43   8  44   8  45   8  46   8  47   8  48   8
M  ISO  5  49  13  50  13  51  13  52  13  53  13
M  END
>  <minimizedAffinity>  (1) 
-4.80915213

>  <minimizedRMSD>  (1) 
0.86776495

$$$$
