
     RDKit          3D

 19 20  0  0  1  0  0  0  0  0999 V2000
   38.3880   24.4050   34.7140 C   0  0  2  0  0  0  0  0  0  0  0  0
   39.6480   24.6210   33.9100 C   0  0  0  0  0  0  0  0  0  0  0  0
   38.6640   25.7270   34.2040 C   0  0  2  0  0  0  0  0  0  0  0  0
   39.7820   22.8420   37.7440 C   0  0  0  0  0  0  0  0  0  0  0  0
   38.9150   23.3100   38.7580 C   0  0  0  0  0  0  0  0  0  0  0  0
   37.8640   24.1570   38.3590 C   0  0  0  0  0  0  0  0  0  0  0  0
   37.7410   24.4710   37.0620 N   0  0  0  0  0  0  0  0  0  0  0  0
   38.5980   24.0000   36.1020 C   0  0  0  0  0  0  0  0  0  0  0  0
   39.6150   23.1830   36.4740 N   0  0  0  0  0  0  0  0  0  0  0  0
   39.2720   26.8510   34.9060 C   0  0  0  0  0  0  0  0  0  0  0  0
   38.8460   27.5270   35.8260 O   0  0  0  0  0  0  0  0  0  0  0  0
   37.4745   23.7943   34.6637 H   0  0  0  0  0  0  0  0  0  0  0  0
   39.7383   24.2104   32.8935 H   0  0  0  0  0  0  0  0  0  0  0  0
   40.7249   24.4550   34.0610 H   0  0  0  0  0  0  0  0  0  0  0  0
   37.9726   26.4183   33.6999 H   0  0  0  0  0  0  0  0  0  0  0  0
   40.6160   22.1783   38.0158 H   0  0  0  0  0  0  0  0  0  0  0  0
   39.0555   23.0251   39.8111 H   0  0  0  0  0  0  0  0  0  0  0  0
   37.1549   24.5548   39.0999 H   0  0  0  0  0  0  0  0  0  0  0  0
   40.2733   27.1333   34.5487 H   0  0  0  0  0  0  0  0  0  0  0  0
  1  8  1  0
  2  3  1  0
  2  1  1  0
  3  1  1  0
  3 10  1  0
  4  5  2  0
  6  5  1  0
  7  6  2  0
  8  9  2  0
  8  7  1  0
  9  4  1  0
 10 11  2  0
  1 12  1  6
  2 13  1  0
  2 14  1  0
  3 15  1  6
  4 16  1  0
  5 17  1  0
  6 18  1  0
 10 19  1  0
M  ISO  8  12  13  13  13  14  13  15  13  16  14  17  14  18  14  19   6
M  END
>  <minimizedAffinity>  (1) 
-3.38255358

>  <minimizedRMSD>  (1) 
1.67571795

$$$$
