
     RDKit          3D

 40 43  0  0  1  0  0  0  0  0999 V2000
   36.9050   25.6480   32.5450 C   0  0  0  0  0  0  0  0  0  0  0  0
   36.6440   27.1000   32.5420 C   0  0  0  0  0  0  0  0  0  0  0  0
   36.1340   27.9250   33.5120 C   0  0  0  0  0  0  0  0  0  0  0  0
   35.9360   29.2760   33.3760 C   0  0  0  0  0  0  0  0  0  0  0  0
   36.2800   29.8320   32.1660 C   0  0  0  0  0  0  0  0  0  0  0  0
   36.7870   28.9920   31.2120 C   0  0  0  0  0  0  0  0  0  0  0  0
   36.9800   27.6700   31.3490 N   0  0  0  0  0  0  0  0  0  0  0  0
   37.1240   29.6520   29.9710 N   0  0  0  0  0  0  0  0  0  0  0  0
   37.9310   28.8800   29.1880 C   0  0  0  0  0  0  0  0  0  0  0  0
   38.3780   29.3140   27.9510 C   0  0  0  0  0  0  0  0  0  0  0  0
   37.9650   30.5600   27.5620 C   0  0  0  0  0  0  0  0  0  0  0  0
   38.3870   31.0560   26.3150 N   0  0  0  0  0  0  0  0  0  0  0  0
   37.1700   31.2990   28.3540 N   0  0  0  0  0  0  0  0  0  0  0  0
   36.7510   30.8510   29.5500 C   0  0  0  0  0  0  0  0  0  0  0  0
   36.0170   31.4810   30.3330 O   0  0  0  0  0  0  0  0  0  0  0  0
   37.3070   23.6400   30.8810 C   0  0  2  0  0  0  0  0  0  0  0  0
   38.5800   24.2970   31.2750 C   0  0  0  0  0  0  0  0  0  0  0  0
   37.3010   25.0800   31.2440 C   0  0  2  0  0  0  0  0  0  0  0  0
   36.9370   21.4170   33.7670 C   0  0  0  0  0  0  0  0  0  0  0  0
   35.6900   20.7810   33.5700 C   0  0  0  0  0  0  0  0  0  0  0  0
   34.9790   21.1690   32.3850 C   0  0  0  0  0  0  0  0  0  0  0  0
   35.5350   22.0850   31.5650 N   0  0  0  0  0  0  0  0  0  0  0  0
   36.7530   22.6600   31.8240 C   0  0  0  0  0  0  0  0  0  0  0  0
   37.4650   22.3190   32.9420 N   0  0  0  0  0  0  0  0  0  0  0  0
   37.7135   25.4489   33.2638 H   0  0  0  0  0  0  0  0  0  0  0  0
   35.9525   25.1667   32.8115 H   0  0  0  0  0  0  0  0  0  0  0  0
   35.8623   27.4675   34.4748 H   0  0  0  0  0  0  0  0  0  0  0  0
   35.5227   29.8841   34.1941 H   0  0  0  0  0  0  0  0  0  0  0  0
   36.1529   30.9075   31.9730 H   0  0  0  0  0  0  0  0  0  0  0  0
   38.2349   27.8862   29.5486 H   0  0  0  0  0  0  0  0  0  0  0  0
   39.0279   28.6929   27.3171 H   0  0  0  0  0  0  0  0  0  0  0  0
   38.0870   31.9911   26.0044 H   0  0  0  0  0  0  0  0  0  0  0  0
   38.9959   30.4840   25.7126 H   0  0  0  0  0  0  0  0  0  0  0  0
   36.9466   23.0758   30.0082 H   0  0  0  0  0  0  0  0  0  0  0  0
   39.0521   24.0509   32.2376 H   0  0  0  0  0  0  0  0  0  0  0  0
   39.5741   24.4088   30.8175 H   0  0  0  0  0  0  0  0  0  0  0  0
   36.8441   25.9396   30.7319 H   0  0  0  0  0  0  0  0  0  0  0  0
   37.5118   21.1477   34.6654 H   0  0  0  0  0  0  0  0  0  0  0  0
   35.2914   20.0387   34.2772 H   0  0  0  0  0  0  0  0  0  0  0  0
   33.9992   20.7278   32.1498 H   0  0  0  0  0  0  0  0  0  0  0  0
  2  1  1  0
  2  3  2  0
  4  3  1  0
  5  4  2  0
  6  7  2  0
  6  5  1  0
  7  2  1  0
  8  6  1  0
  9  8  1  0
 10  9  2  0
 11 10  1  0
 11 13  2  0
 12 11  1  0
 13 14  1  0
 14  8  1  0
 14 15  2  0
 16 18  1  0
 16 17  1  0
 16 23  1  0
 18 17  1  0
 18  1  1  0
 20 19  2  0
 21 20  1  0
 22 23  1  0
 22 21  2  0
 23 24  2  0
 24 19  1  0
  1 25  1  0
  1 26  1  0
  3 27  1  0
  4 28  1  0
  5 29  1  0
  9 30  1  0
 10 31  1  0
 12 32  1  0
 12 33  1  0
 16 34  1  6
 17 35  1  0
 17 36  1  0
 18 37  1  6
 19 38  1  0
 20 39  1  0
 21 40  1  0
M  ISO  8  25   8  26   8  27  14  28  14  29  14  30  14  31  14  34  13
M  ISO  6  35  13  36  13  37  13  38  14  39  14  40  14
M  END
>  <minimizedAffinity>  (1) 
-5.10455704

>  <minimizedRMSD>  (1) 
0.94410795

$$$$
