
     RDKit          3D

 41 44  0  0  1  0  0  0  0  0999 V2000
   37.9070   23.9600   33.3680 C   0  0  0  0  0  0  0  0  0  0  0  0
   36.9840   24.7680   32.5450 C   0  0  0  0  0  0  0  0  0  0  0  0
   36.1230   24.4290   31.5520 C   0  0  0  0  0  0  0  0  0  0  0  0
   35.3120   25.2750   30.8540 C   0  0  0  0  0  0  0  0  0  0  0  0
   35.3880   26.6030   31.2070 C   0  0  0  0  0  0  0  0  0  0  0  0
   36.2660   26.9650   32.2230 C   0  0  0  0  0  0  0  0  0  0  0  0
   37.0410   26.0890   32.8750 N   0  0  0  0  0  0  0  0  0  0  0  0
   36.3000   28.3620   32.5460 N   0  0  0  0  0  0  0  0  0  0  0  0
   36.6370   29.4280   31.6650 C   0  0  0  0  0  0  0  0  0  0  0  0
   35.8960   30.6390   32.2470 C   0  0  0  0  0  0  0  0  0  0  0  0
   35.2950   30.2030   33.5440 C   0  0  0  0  0  0  0  0  0  0  0  0
   35.9880   28.9130   33.8550 C   0  0  0  0  0  0  0  0  0  0  0  0
   37.8000   21.6490   34.6350 C   0  0  2  0  0  0  0  0  0  0  0  0
   38.7910   21.6350   33.5270 C   0  0  0  0  0  0  0  0  0  0  0  0
   37.5860   22.5270   33.4580 C   0  0  2  0  0  0  0  0  0  0  0  0
   39.9330   22.7590   37.4080 C   0  0  0  0  0  0  0  0  0  0  0  0
   39.0560   23.3920   38.3100 C   0  0  0  0  0  0  0  0  0  0  0  0
   37.6790   23.4170   37.9060 C   0  0  0  0  0  0  0  0  0  0  0  0
   37.3180   22.8570   36.7330 N   0  0  0  0  0  0  0  0  0  0  0  0
   38.2460   22.2540   35.9030 C   0  0  0  0  0  0  0  0  0  0  0  0
   39.5670   22.2080   36.2510 N   0  0  0  0  0  0  0  0  0  0  0  0
   37.9020   24.3731   34.3875 H   0  0  0  0  0  0  0  0  0  0  0  0
   38.8862   24.0195   32.8703 H   0  0  0  0  0  0  0  0  0  0  0  0
   36.0743   23.3636   31.2827 H   0  0  0  0  0  0  0  0  0  0  0  0
   34.6400   24.9184   30.0595 H   0  0  0  0  0  0  0  0  0  0  0  0
   34.7705   27.3583   30.6989 H   0  0  0  0  0  0  0  0  0  0  0  0
   36.2931   29.2136   30.6424 H   0  0  0  0  0  0  0  0  0  0  0  0
   37.7225   29.5905   31.5929 H   0  0  0  0  0  0  0  0  0  0  0  0
   36.6003   31.4668   32.4166 H   0  0  0  0  0  0  0  0  0  0  0  0
   35.1186   30.9931   31.5540 H   0  0  0  0  0  0  0  0  0  0  0  0
   35.4845   30.9473   34.3315 H   0  0  0  0  0  0  0  0  0  0  0  0
   34.2023   30.0906   33.4853 H   0  0  0  0  0  0  0  0  0  0  0  0
   35.3256   28.2378   34.4165 H   0  0  0  0  0  0  0  0  0  0  0  0
   36.8811   29.0505   34.4823 H   0  0  0  0  0  0  0  0  0  0  0  0
   37.1776   20.9001   35.1467 H   0  0  0  0  0  0  0  0  0  0  0  0
   39.7906   22.0694   33.6760 H   0  0  0  0  0  0  0  0  0  0  0  0
   39.2263   20.8599   32.8791 H   0  0  0  0  0  0  0  0  0  0  0  0
   36.6814   22.6916   32.8541 H   0  0  0  0  0  0  0  0  0  0  0  0
   40.9984   22.7162   37.6783 H   0  0  0  0  0  0  0  0  0  0  0  0
   39.4014   23.8352   39.2557 H   0  0  0  0  0  0  0  0  0  0  0  0
   36.9223   23.8901   38.5492 H   0  0  0  0  0  0  0  0  0  0  0  0
  1 15  1  0
  2  7  1  0
  2  1  1  0
  3  2  2  0
  4  5  2  0
  4  3  1  0
  5  6  1  0
  6  8  1  0
  6  7  2  0
  8 12  1  0
  9 10  1  0
  9  8  1  0
 10 11  1  0
 11 12  1  0
 13 20  1  0
 14 13  1  0
 15 14  1  0
 15 13  1  0
 16 17  2  0
 18 17  1  0
 19 18  2  0
 20 21  2  0
 20 19  1  0
 21 16  1  0
  1 22  1  0
  1 23  1  0
  3 24  1  0
  4 25  1  0
  5 26  1  0
  9 27  1  0
  9 28  1  0
 10 29  1  0
 10 30  1  0
 11 31  1  0
 11 32  1  0
 12 33  1  0
 12 34  1  0
 13 35  1  1
 14 36  1  0
 14 37  1  0
 15 38  1  6
 16 39  1  0
 17 40  1  0
 18 41  1  0
M  ISO  8  22   8  23   8  24  14  25  14  26  14  27  13  28  13  29  13
M  ISO  8  30  13  31  13  32  13  33  13  34  13  35  13  36  13  37  13
M  ISO  4  38  13  39  14  40  14  41  14
M  END
>  <minimizedAffinity>  (1) 
-5.34539557

>  <minimizedRMSD>  (1) 
4.46268892

$$$$
