
     RDKit          3D

 36 39  0  0  1  0  0  0  0  0999 V2000
   38.1760   23.4580   34.5300 C   0  0  2  0  0  0  0  0  0  0  0  0
   39.1970   24.1320   33.6830 C   0  0  0  0  0  0  0  0  0  0  0  0
   37.8580   24.7690   33.9090 C   0  0  2  0  0  0  0  0  0  0  0  0
   39.9090   22.9290   37.7250 C   0  0  0  0  0  0  0  0  0  0  0  0
   38.9670   23.3000   38.7050 C   0  0  0  0  0  0  0  0  0  0  0  0
   37.6990   23.7490   38.2060 C   0  0  0  0  0  0  0  0  0  0  0  0
   37.4980   23.7830   36.8710 N   0  0  0  0  0  0  0  0  0  0  0  0
   38.4650   23.4060   35.9760 C   0  0  0  0  0  0  0  0  0  0  0  0
   39.6880   22.9730   36.4140 N   0  0  0  0  0  0  0  0  0  0  0  0
   37.9140   26.0830   34.5720 C   0  0  0  0  0  0  0  0  0  0  0  0
   37.2990   27.1900   33.8060 C   0  0  0  0  0  0  0  0  0  0  0  0
   37.3630   27.4840   32.4580 C   0  0  0  0  0  0  0  0  0  0  0  0
   36.7390   28.5530   31.8690 C   0  0  0  0  0  0  0  0  0  0  0  0
   36.0000   29.3850   32.7020 C   0  0  0  0  0  0  0  0  0  0  0  0
   35.9560   29.0680   34.0330 C   0  0  0  0  0  0  0  0  0  0  0  0
   36.5690   28.0200   34.6000 N   0  0  0  0  0  0  0  0  0  0  0  0
   35.1400   30.0140   34.8510 C   0  0  0  0  0  0  0  0  0  0  0  0
   36.0020   30.9910   35.6450 C   0  0  0  0  0  0  0  0  0  0  0  0
   35.0860   31.4420   34.5450 C   0  0  0  0  0  0  0  0  0  0  0  0
   37.6735   22.4795   34.5356 H   0  0  0  0  0  0  0  0  0  0  0  0
   39.4520   23.7209   32.6951 H   0  0  0  0  0  0  0  0  0  0  0  0
   40.2427   24.4441   33.8213 H   0  0  0  0  0  0  0  0  0  0  0  0
   36.9671   25.0922   33.3506 H   0  0  0  0  0  0  0  0  0  0  0  0
   40.8941   22.5792   38.0673 H   0  0  0  0  0  0  0  0  0  0  0  0
   39.1890   23.2488   39.7811 H   0  0  0  0  0  0  0  0  0  0  0  0
   36.9038   24.0604   38.8993 H   0  0  0  0  0  0  0  0  0  0  0  0
   37.3915   26.0024   35.5366 H   0  0  0  0  0  0  0  0  0  0  0  0
   38.9802   26.3327   34.6762 H   0  0  0  0  0  0  0  0  0  0  0  0
   37.9540   26.8159   31.8143 H   0  0  0  0  0  0  0  0  0  0  0  0
   36.8192   28.7434   30.7886 H   0  0  0  0  0  0  0  0  0  0  0  0
   35.4707   30.2646   32.3067 H   0  0  0  0  0  0  0  0  0  0  0  0
   34.3393   29.2807   35.0275 H   0  0  0  0  0  0  0  0  0  0  0  0
   35.7636   31.2167   36.6949 H   0  0  0  0  0  0  0  0  0  0  0  0
   37.0727   31.0946   35.8749 H   0  0  0  0  0  0  0  0  0  0  0  0
   35.5108   31.8128   33.6005 H   0  0  0  0  0  0  0  0  0  0  0  0
   34.2739   32.1811   34.4792 H   0  0  0  0  0  0  0  0  0  0  0  0
  1  8  1  0
  2  3  1  0
  2  1  1  0
  3  1  1  0
  3 10  1  0
  4  5  2  0
  6  5  1  0
  7  6  2  0
  8  9  2  0
  8  7  1  0
  9  4  1  0
 11 10  1  0
 11 16  1  0
 12 11  2  0
 13 12  1  0
 13 14  2  0
 14 15  1  0
 15 16  2  0
 15 17  1  0
 17 18  1  0
 19 17  1  0
 19 18  1  0
  1 20  1  6
  2 21  1  0
  2 22  1  0
  3 23  1  6
  4 24  1  0
  5 25  1  0
  6 26  1  0
 10 27  1  0
 10 28  1  0
 12 29  1  0
 13 30  1  0
 14 31  1  0
 17 32  1  0
 18 33  1  0
 18 34  1  0
 19 35  1  0
 19 36  1  0
M  ISO  8  20  13  21  13  22  13  23  13  24  14  25  14  26  14  27   8
M  ISO  8  28   8  29  14  30  14  31  14  32  13  33  13  34  13  35  13
M  ISO  1  36  13
M  END
>  <minimizedAffinity>  (1) 
-4.93410921

>  <minimizedRMSD>  (1) 
4.73423195

$$$$
