
     RDKit          3D

 43 47  0  0  1  0  0  0  0  0999 V2000
   36.4960   26.9910   31.9650 C   0  0  0  0  0  0  0  0  0  0  0  0
   36.0530   27.9510   32.8210 C   0  0  0  0  0  0  0  0  0  0  0  0
   36.0510   29.2960   32.6000 C   0  0  0  0  0  0  0  0  0  0  0  0
   36.5470   29.7040   31.3920 C   0  0  0  0  0  0  0  0  0  0  0  0
   37.0130   28.7350   30.4830 C   0  0  0  0  0  0  0  0  0  0  0  0
   36.9720   27.4360   30.7990 N   0  0  0  0  0  0  0  0  0  0  0  0
   37.5270   29.4410   29.3090 C   0  0  0  0  0  0  0  0  0  0  0  0
   37.0920   30.6320   28.9200 N   0  0  0  0  0  0  0  0  0  0  0  0
   37.4890   31.3600   27.8930 C   0  0  0  0  0  0  0  0  0  0  0  0
   38.4600   30.8980   27.0890 N   0  0  0  0  0  0  0  0  0  0  0  0
   39.0090   29.6860   27.3610 C   0  0  0  0  0  0  0  0  0  0  0  0
   40.0180   29.2130   26.5540 C   0  0  0  0  0  0  0  0  0  0  0  0
   40.6010   27.9870   26.8320 C   0  0  0  0  0  0  0  0  0  0  0  0
   40.1360   27.2680   27.9410 C   0  0  0  0  0  0  0  0  0  0  0  0
   39.1360   27.8350   28.6650 C   0  0  0  0  0  0  0  0  0  0  0  0
   38.5110   29.0300   28.4540 C   0  0  0  0  0  0  0  0  0  0  0  0
   36.5360   25.5310   32.0640 C   0  0  0  0  0  0  0  0  0  0  0  0
   37.3920   23.3580   30.8360 C   0  0  2  0  0  0  0  0  0  0  0  0
   38.5080   24.2170   31.2990 C   0  0  0  0  0  0  0  0  0  0  0  0
   37.1830   24.8230   30.9390 C   0  0  2  0  0  0  0  0  0  0  0  0
   36.8190   21.3860   33.8490 C   0  0  0  0  0  0  0  0  0  0  0  0
   35.5730   20.7500   33.6360 C   0  0  0  0  0  0  0  0  0  0  0  0
   34.9370   21.0460   32.3850 C   0  0  0  0  0  0  0  0  0  0  0  0
   35.5530   21.8840   31.5240 N   0  0  0  0  0  0  0  0  0  0  0  0
   36.7700   22.4600   31.8170 C   0  0  0  0  0  0  0  0  0  0  0  0
   37.4160   22.2140   32.9870 N   0  0  0  0  0  0  0  0  0  0  0  0
   35.6569   27.6075   33.7880 H   0  0  0  0  0  0  0  0  0  0  0  0
   35.6737   30.0097   33.3472 H   0  0  0  0  0  0  0  0  0  0  0  0
   36.5812   30.7730   31.1348 H   0  0  0  0  0  0  0  0  0  0  0  0
   37.0272   32.3390   27.6971 H   0  0  0  0  0  0  0  0  0  0  0  0
   40.3602   29.8051   25.6924 H   0  0  0  0  0  0  0  0  0  0  0  0
   41.4075   27.5888   26.1988 H   0  0  0  0  0  0  0  0  0  0  0  0
   40.5607   26.2903   28.2127 H   0  0  0  0  0  0  0  0  0  0  0  0
   38.7850   27.2569   29.5325 H   0  0  0  0  0  0  0  0  0  0  0  0
   37.0808   25.2708   32.9835 H   0  0  0  0  0  0  0  0  0  0  0  0
   35.4857   25.2041   32.0556 H   0  0  0  0  0  0  0  0  0  0  0  0
   37.2474   22.6241   30.0295 H   0  0  0  0  0  0  0  0  0  0  0  0
   38.8307   24.1822   32.3500 H   0  0  0  0  0  0  0  0  0  0  0  0
   39.5501   24.3779   30.9859 H   0  0  0  0  0  0  0  0  0  0  0  0
   36.7320   25.5251   30.2223 H   0  0  0  0  0  0  0  0  0  0  0  0
   37.3364   21.1829   34.7982 H   0  0  0  0  0  0  0  0  0  0  0  0
   35.1231   20.0749   34.3789 H   0  0  0  0  0  0  0  0  0  0  0  0
   33.9647   20.5983   32.1315 H   0  0  0  0  0  0  0  0  0  0  0  0
  1 17  1  0
  1  2  2  0
  3  2  1  0
  4  3  2  0
  5  6  2  0
  5  4  1  0
  6  1  1  0
  7  5  1  0
  8  7  2  0
  9  8  1  0
 10 11  1  0
 10  9  2  0
 11 16  2  0
 12 13  2  0
 12 11  1  0
 13 14  1  0
 14 15  2  0
 16 15  1  0
 16  7  1  0
 18 20  1  0
 18 19  1  0
 18 25  1  0
 20 19  1  0
 20 17  1  0
 22 21  2  0
 23 22  1  0
 24 25  1  0
 24 23  2  0
 25 26  2  0
 26 21  1  0
  2 27  1  0
  3 28  1  0
  4 29  1  0
  9 30  1  0
 12 31  1  0
 13 32  1  0
 14 33  1  0
 15 34  1  0
 17 35  1  0
 17 36  1  0
 18 37  1  6
 19 38  1  0
 19 39  1  0
 20 40  1  6
 21 41  1  0
 22 42  1  0
 23 43  1  0
M  ISO  8  27  14  28  14  29  14  30  14  31  14  32  14  33  14  34  14
M  ISO  8  35   8  36   8  37  13  38  13  39  13  40  13  41  14  42  14
M  ISO  1  43  14
M  END
>  <minimizedAffinity>  (1) 
-4.95012665

>  <minimizedRMSD>  (1) 
0.894420326

$$$$
