
     RDKit          3D

 36 38  0  0  1  0  0  0  0  0999 V2000
   36.7300   25.3170   32.2780 C   0  0  0  0  0  0  0  0  0  0  0  0
   36.5870   26.7820   32.2060 C   0  0  0  0  0  0  0  0  0  0  0  0
   36.4230   27.7140   33.2090 C   0  0  0  0  0  0  0  0  0  0  0  0
   36.2970   29.0630   32.9960 C   0  0  0  0  0  0  0  0  0  0  0  0
   36.3390   29.4960   31.6970 C   0  0  0  0  0  0  0  0  0  0  0  0
   36.5050   28.5460   30.6950 C   0  0  0  0  0  0  0  0  0  0  0  0
   36.6250   27.2340   30.9420 N   0  0  0  0  0  0  0  0  0  0  0  0
   36.5450   29.0740   29.3680 N   0  0  0  0  0  0  0  0  0  0  0  0
   37.6950   28.8610   28.5580 C   0  0  0  0  0  0  0  0  0  0  0  0
   38.3010   27.7430   28.5600 N   0  0  0  0  0  0  0  0  0  0  0  0
   38.1980   29.9150   27.7070 N   0  0  0  0  0  0  0  0  0  0  0  0
   38.0230   26.9240   29.1270 H   0  0  0  0  0  0  0  0  0  0  0  0
   37.3700   23.2210   30.8090 C   0  0  2  0  0  0  0  0  0  0  0  0
   38.5680   23.9250   31.3390 C   0  0  0  0  0  0  0  0  0  0  0  0
   37.2970   24.6810   31.0780 C   0  0  2  0  0  0  0  0  0  0  0  0
   36.6150   21.1830   33.7610 C   0  0  0  0  0  0  0  0  0  0  0  0
   35.4330   20.5160   33.4440 C   0  0  0  0  0  0  0  0  0  0  0  0
   34.8800   20.7950   32.1500 C   0  0  0  0  0  0  0  0  0  0  0  0
   35.5320   21.6700   31.3400 N   0  0  0  0  0  0  0  0  0  0  0  0
   36.6910   22.2850   31.7280 C   0  0  0  0  0  0  0  0  0  0  0  0
   37.2400   22.0360   32.9570 N   0  0  0  0  0  0  0  0  0  0  0  0
   37.3851   25.0809   33.1295 H   0  0  0  0  0  0  0  0  0  0  0  0
   35.7108   24.9165   32.3819 H   0  0  0  0  0  0  0  0  0  0  0  0
   36.3912   27.3520   34.2473 H   0  0  0  0  0  0  0  0  0  0  0  0
   36.1679   29.7665   33.8317 H   0  0  0  0  0  0  0  0  0  0  0  0
   36.2441   30.5645   31.4535 H   0  0  0  0  0  0  0  0  0  0  0  0
   35.7444   29.6068   28.9992 H   0  0  0  0  0  0  0  0  0  0  0  0
   37.7256   30.8301   27.6867 H   0  0  0  0  0  0  0  0  0  0  0  0
   39.0289   29.7512   27.1207 H   0  0  0  0  0  0  0  0  0  0  0  0
   37.1452   22.5983   29.9305 H   0  0  0  0  0  0  0  0  0  0  0  0
   38.9002   23.7458   32.3722 H   0  0  0  0  0  0  0  0  0  0  0  0
   39.6161   24.0282   31.0214 H   0  0  0  0  0  0  0  0  0  0  0  0
   36.9024   25.4957   30.4530 H   0  0  0  0  0  0  0  0  0  0  0  0
   37.0622   20.9893   34.7472 H   0  0  0  0  0  0  0  0  0  0  0  0
   34.9526   19.8171   34.1445 H   0  0  0  0  0  0  0  0  0  0  0  0
   33.9486   20.3113   31.8206 H   0  0  0  0  0  0  0  0  0  0  0  0
  2  1  1  0
  2  3  2  0
  4  3  1  0
  5  4  2  0
  6  7  2  0
  6  5  1  0
  7  2  1  0
  8  6  1  0
  9 10  2  0
  9  8  1  0
 10 12  1  0
 11  9  1  0
 13 15  1  0
 13 14  1  0
 13 20  1  0
 15 14  1  0
 15  1  1  0
 17 16  2  0
 18 17  1  0
 19 20  1  0
 19 18  2  0
 20 21  2  0
 21 16  1  0
  1 22  1  0
  1 23  1  0
  3 24  1  0
  4 25  1  0
  5 26  1  0
  8 27  1  0
 11 28  1  0
 11 29  1  0
 13 30  1  6
 14 31  1  0
 14 32  1  0
 15 33  1  6
 16 34  1  0
 17 35  1  0
 18 36  1  0
M  ISO  8  22   8  23   8  24  14  25  14  26  14  30  13  31  13  32  13
M  ISO  4  33  13  34  14  35  14  36  14
M  END
>  <minimizedAffinity>  (1) 
-4.9977026

>  <minimizedRMSD>  (1) 
0.361361772

$$$$
