
     RDKit          3D

 30 32  0  0  1  0  0  0  0  0999 V2000
   37.5030   23.3070   30.8010 C   0  0  2  0  0  0  0  0  0  0  0  0
   38.6420   24.1250   31.2980 C   0  0  0  0  0  0  0  0  0  0  0  0
   37.3500   24.7790   30.9140 C   0  0  2  0  0  0  0  0  0  0  0  0
   36.8280   21.3850   33.8530 C   0  0  0  0  0  0  0  0  0  0  0  0
   35.5760   20.7870   33.6270 C   0  0  0  0  0  0  0  0  0  0  0  0
   34.9670   21.0840   32.3620 C   0  0  0  0  0  0  0  0  0  0  0  0
   35.6170   21.8940   31.4980 N   0  0  0  0  0  0  0  0  0  0  0  0
   36.8450   22.4400   31.8000 C   0  0  0  0  0  0  0  0  0  0  0  0
   37.4600   22.1820   32.9940 N   0  0  0  0  0  0  0  0  0  0  0  0
   36.7070   25.5090   32.0170 C   0  0  0  0  0  0  0  0  0  0  0  0
   36.6130   26.9700   31.8480 C   0  0  0  0  0  0  0  0  0  0  0  0
   36.1380   27.9470   32.6640 C   0  0  0  0  0  0  0  0  0  0  0  0
   36.1010   29.2850   32.3940 C   0  0  0  0  0  0  0  0  0  0  0  0
   36.5990   29.6650   31.1680 C   0  0  0  0  0  0  0  0  0  0  0  0
   37.0880   28.6730   30.3260 C   0  0  0  0  0  0  0  0  0  0  0  0
   37.1040   27.3630   30.6360 N   0  0  0  0  0  0  0  0  0  0  0  0
   37.7130   29.2770   28.7560 S   0  0  0  0  0  0  0  0  0  0  0  0
   37.3397   22.5889   29.9839 H   0  0  0  0  0  0  0  0  0  0  0  0
   38.9392   24.0708   32.3557 H   0  0  0  0  0  0  0  0  0  0  0  0
   39.6961   24.2512   31.0099 H   0  0  0  0  0  0  0  0  0  0  0  0
   36.9404   25.5016   30.1928 H   0  0  0  0  0  0  0  0  0  0  0  0
   37.3235   21.1786   34.8132 H   0  0  0  0  0  0  0  0  0  0  0  0
   35.0950   20.1346   34.3706 H   0  0  0  0  0  0  0  0  0  0  0  0
   33.9868   20.6590   32.1001 H   0  0  0  0  0  0  0  0  0  0  0  0
   35.6862   25.1159   32.1326 H   0  0  0  0  0  0  0  0  0  0  0  0
   37.3488   25.3498   32.8960 H   0  0  0  0  0  0  0  0  0  0  0  0
   35.7437   27.6281   33.6401 H   0  0  0  0  0  0  0  0  0  0  0  0
   35.6980   30.0145   33.1120 H   0  0  0  0  0  0  0  0  0  0  0  0
   36.6096   30.7221   30.8639 H   0  0  0  0  0  0  0  0  0  0  0  0
   38.6846   30.2160   28.9821 H   0  0  0  0  0  0  0  0  0  0  0  0
  1  3  1  0
  1  2  1  0
  1  8  1  0
  3  2  1  0
  3 10  1  0
  5  4  2  0
  6  5  1  0
  7  8  1  0
  7  6  2  0
  8  9  2  0
  9  4  1  0
 11 10  1  0
 11 12  2  0
 13 12  1  0
 14 13  2  0
 15 16  2  0
 15 14  1  0
 16 11  1  0
 17 15  1  0
  1 18  1  6
  2 19  1  0
  2 20  1  0
  3 21  1  6
  4 22  1  0
  5 23  1  0
  6 24  1  0
 10 25  1  0
 10 26  1  0
 12 27  1  0
 13 28  1  0
 14 29  1  0
 17 30  1  0
M  ISO  8  18  13  19  13  20  13  21  13  22  14  23  14  24  14  25   8
M  ISO  5  26   8  27  14  28  14  29  14  30  11
M  END
>  <minimizedAffinity>  (1) 
-4.01078129

>  <minimizedRMSD>  (1) 
0.336608231

$$$$
