
     RDKit          3D

 31 33  0  0  1  0  0  0  0  0999 V2000
   37.4050   23.6080   30.7870 C   0  0  2  0  0  0  0  0  0  0  0  0
   38.5600   24.4110   31.2680 C   0  0  0  0  0  0  0  0  0  0  0  0
   37.2310   25.0640   31.0120 C   0  0  2  0  0  0  0  0  0  0  0  0
   36.9600   21.4730   33.7360 C   0  0  0  0  0  0  0  0  0  0  0  0
   35.7010   20.8580   33.5520 C   0  0  0  0  0  0  0  0  0  0  0  0
   35.0080   21.2240   32.3500 C   0  0  0  0  0  0  0  0  0  0  0  0
   35.5770   22.1030   31.4970 N   0  0  0  0  0  0  0  0  0  0  0  0
   36.8120   22.6620   31.7480 C   0  0  0  0  0  0  0  0  0  0  0  0
   37.5050   22.3390   32.8820 N   0  0  0  0  0  0  0  0  0  0  0  0
   36.6510   25.6990   32.2100 C   0  0  0  0  0  0  0  0  0  0  0  0
   36.4970   27.1670   32.1310 C   0  0  0  0  0  0  0  0  0  0  0  0
   36.0460   28.0770   33.0320 C   0  0  0  0  0  0  0  0  0  0  0  0
   35.9410   29.4210   32.8520 C   0  0  0  0  0  0  0  0  0  0  0  0
   36.3370   29.8900   31.6220 C   0  0  0  0  0  0  0  0  0  0  0  0
   36.8020   28.9690   30.6890 C   0  0  0  0  0  0  0  0  0  0  0  0
   36.8870   27.6520   30.9150 N   0  0  0  0  0  0  0  0  0  0  0  0
   37.2270   29.4890   29.3680 C   0  0  0  0  0  0  0  0  0  0  0  0
   37.6290   28.7060   28.4720 O   0  0  0  0  0  0  0  0  0  0  0  0
   37.2104   22.9422   29.9333 H   0  0  0  0  0  0  0  0  0  0  0  0
   38.9252   24.2893   32.2985 H   0  0  0  0  0  0  0  0  0  0  0  0
   39.5914   24.5788   30.9244 H   0  0  0  0  0  0  0  0  0  0  0  0
   36.7615   25.8244   30.3707 H   0  0  0  0  0  0  0  0  0  0  0  0
   37.5275   21.2203   34.6438 H   0  0  0  0  0  0  0  0  0  0  0  0
   35.2814   20.1479   34.2798 H   0  0  0  0  0  0  0  0  0  0  0  0
   34.0216   20.7923   32.1252 H   0  0  0  0  0  0  0  0  0  0  0  0
   35.6564   25.2610   32.3798 H   0  0  0  0  0  0  0  0  0  0  0  0
   37.3597   25.5097   33.0297 H   0  0  0  0  0  0  0  0  0  0  0  0
   35.7324   27.6859   34.0111 H   0  0  0  0  0  0  0  0  0  0  0  0
   35.5636   30.0895   33.6398 H   0  0  0  0  0  0  0  0  0  0  0  0
   36.2876   30.9625   31.3825 H   0  0  0  0  0  0  0  0  0  0  0  0
   37.1901   30.5705   29.1704 H   0  0  0  0  0  0  0  0  0  0  0  0
  1  3  1  0
  1  2  1  0
  1  8  1  0
  3  2  1  0
  3 10  1  0
  5  4  2  0
  6  5  1  0
  7  8  1  0
  7  6  2  0
  8  9  2  0
  9  4  1  0
 11 10  1  0
 11 12  2  0
 13 12  1  0
 14 13  2  0
 15 16  2  0
 15 14  1  0
 16 11  1  0
 17 15  1  0
 18 17  2  0
  1 19  1  6
  2 20  1  0
  2 21  1  0
  3 22  1  6
  4 23  1  0
  5 24  1  0
  6 25  1  0
 10 26  1  0
 10 27  1  0
 12 28  1  0
 13 29  1  0
 14 30  1  0
 17 31  1  0
M  ISO  8  19  13  20  13  21  13  22  13  23  14  24  14  25  14  26   8
M  ISO  5  27   8  28  14  29  14  30  14  31   6
M  END
>  <minimizedAffinity>  (1) 
-4.05959749

>  <minimizedRMSD>  (1) 
0.507263064

$$$$
