
     RDKit          3D

 26 28  0  0  0  0  0  0  0  0999 V2000
   38.0320   25.1630   34.9820 C   0  0  0  0  0  0  0  0  0  0  0  0
   37.5670   26.4710   35.1370 C   0  0  0  0  0  0  0  0  0  0  0  0
   36.9870   27.0800   34.0770 C   0  0  0  0  0  0  0  0  0  0  0  0
   36.8900   26.3480   32.8730 C   0  0  0  0  0  0  0  0  0  0  0  0
   37.6680   24.7060   33.2840 S   0  0  0  0  0  0  0  0  0  0  0  0
   38.1310   24.1270   37.2680 C   0  0  0  0  0  0  0  0  0  0  0  0
   38.6700   24.3540   35.9790 C   0  0  0  0  0  0  0  0  0  0  0  0
   39.8670   23.7810   35.6440 C   0  0  0  0  0  0  0  0  0  0  0  0
   40.4770   23.0120   36.5920 N   0  0  0  0  0  0  0  0  0  0  0  0
   39.9570   22.8020   37.8150 C   0  0  0  0  0  0  0  0  0  0  0  0
   38.7980   23.3610   38.1300 N   0  0  0  0  0  0  0  0  0  0  0  0
   36.3790   26.6170   31.6020 C   0  0  0  0  0  0  0  0  0  0  0  0
   35.3010   26.1340   31.2310 O   0  0  0  0  0  0  0  0  0  0  0  0
   37.1330   27.4860   30.6880 C   0  0  0  0  0  0  0  0  0  0  0  0
   38.4440   27.8890   30.8330 C   0  0  0  0  0  0  0  0  0  0  0  0
   38.7460   28.6790   29.7760 N   0  0  0  0  0  0  0  0  0  0  0  0
   37.6740   28.7880   28.9700 C   0  0  0  0  0  0  0  0  0  0  0  0
   36.7030   28.0530   29.5450 N   0  0  0  0  0  0  0  0  0  0  0  0
   37.6700   26.9942   36.0991 H   0  0  0  0  0  0  0  0  0  0  0  0
   36.6046   28.1088   34.1504 H   0  0  0  0  0  0  0  0  0  0  0  0
   37.1702   24.5790   37.5553 H   0  0  0  0  0  0  0  0  0  0  0  0
   40.3182   23.9339   34.6525 H   0  0  0  0  0  0  0  0  0  0  0  0
   40.4881   22.1734   38.5449 H   0  0  0  0  0  0  0  0  0  0  0  0
   39.1205   27.6180   31.6569 H   0  0  0  0  0  0  0  0  0  0  0  0
   37.6049   29.3603   28.0332 H   0  0  0  0  0  0  0  0  0  0  0  0
   35.7543   27.9393   29.1602 H   0  0  0  0  0  0  0  0  0  0  0  0
  1  2  2  0
  1  7  1  0
  3  2  1  0
  4  5  1  0
  4  3  2  0
  5  1  1  0
  6 11  2  0
  7  6  1  0
  8  7  2  0
  8  9  1  0
  9 10  2  0
 10 11  1  0
 12  4  1  0
 13 12  2  0
 14 15  2  0
 14 12  1  0
 16 15  1  0
 17 18  1  0
 17 16  2  0
 18 14  1  0
  2 19  1  0
  3 20  1  0
  6 21  1  0
  8 22  1  0
 10 23  1  0
 15 24  1  0
 17 25  1  0
 18 26  1  0
M  ISO  8  19  14  20  14  21  14  22  14  23  14  24  14  25  14  26   9
M  END
>  <minimizedAffinity>  (1) 
-4.87799978

>  <minimizedRMSD>  (1) 
1.18730628

$$$$
