
     RDKit          3D

 26 28  0  0  0  0  0  0  0  0999 V2000
   38.1240   25.7040   35.4410 C   0  0  0  0  0  0  0  0  0  0  0  0
   37.9270   27.0460   35.7680 C   0  0  0  0  0  0  0  0  0  0  0  0
   37.3940   27.8670   34.8330 C   0  0  0  0  0  0  0  0  0  0  0  0
   37.0690   27.3110   33.5730 C   0  0  0  0  0  0  0  0  0  0  0  0
   37.5520   25.5270   33.7500 S   0  0  0  0  0  0  0  0  0  0  0  0
   38.1300   24.3430   37.5530 C   0  0  0  0  0  0  0  0  0  0  0  0
   38.6670   24.6780   36.2780 C   0  0  0  0  0  0  0  0  0  0  0  0
   39.7600   23.9940   35.8150 C   0  0  0  0  0  0  0  0  0  0  0  0
   40.2680   23.0200   36.6240 N   0  0  0  0  0  0  0  0  0  0  0  0
   39.7510   22.7110   37.8280 C   0  0  0  0  0  0  0  0  0  0  0  0
   38.6950   23.3760   38.2700 N   0  0  0  0  0  0  0  0  0  0  0  0
   36.5220   27.8230   32.3980 C   0  0  0  0  0  0  0  0  0  0  0  0
   35.3500   28.2260   32.3910 O   0  0  0  0  0  0  0  0  0  0  0  0
   37.6040   28.2170   28.9870 N   0  0  0  0  0  0  0  0  0  0  0  0
   36.6560   28.2010   29.9290 N   0  0  0  0  0  0  0  0  0  0  0  0
   37.2550   27.9230   31.1220 C   0  0  0  0  0  0  0  0  0  0  0  0
   38.6230   27.7640   30.9070 C   0  0  0  0  0  0  0  0  0  0  0  0
   38.8040   27.9550   29.5620 C   0  0  0  0  0  0  0  0  0  0  0  0
   38.1987   27.4282   36.7631 H   0  0  0  0  0  0  0  0  0  0  0  0
   37.2192   28.9320   35.0458 H   0  0  0  0  0  0  0  0  0  0  0  0
   37.2531   24.8807   37.9428 H   0  0  0  0  0  0  0  0  0  0  0  0
   40.2075   24.2198   34.8358 H   0  0  0  0  0  0  0  0  0  0  0  0
   40.2013   21.9142   38.4382 H   0  0  0  0  0  0  0  0  0  0  0  0
   37.4482   28.3991   27.9853 H   0  0  0  0  0  0  0  0  0  0  0  0
   39.3936   27.5341   31.6575 H   0  0  0  0  0  0  0  0  0  0  0  0
   39.7676   27.9040   29.0338 H   0  0  0  0  0  0  0  0  0  0  0  0
  1  2  2  0
  1  7  1  0
  3  2  1  0
  4  5  1  0
  4  3  2  0
  5  1  1  0
  6 11  2  0
  7  6  1  0
  8  7  2  0
  8  9  1  0
  9 10  2  0
 10 11  1  0
 12  4  1  0
 13 12  2  0
 14 18  1  0
 14 15  1  0
 15 16  2  0
 16 12  1  0
 17 16  1  0
 18 17  2  0
  2 19  1  0
  3 20  1  0
  6 21  1  0
  8 22  1  0
 10 23  1  0
 14 24  1  0
 17 25  1  0
 18 26  1  0
M  ISO  8  19  14  20  14  21  14  22  14  23  14  24   9  25  14  26  14
M  END
>  <minimizedAffinity>  (1) 
-4.79946899

>  <minimizedRMSD>  (1) 
1.12195921

$$$$
