
     RDKit          3D

 26 28  0  0  0  0  0  0  0  0999 V2000
   37.9600   25.4320   35.1540 C   0  0  0  0  0  0  0  0  0  0  0  0
   37.5520   26.7520   35.3500 C   0  0  0  0  0  0  0  0  0  0  0  0
   37.0250   27.4210   34.2970 C   0  0  0  0  0  0  0  0  0  0  0  0
   36.9190   26.7460   33.0650 C   0  0  0  0  0  0  0  0  0  0  0  0
   37.6100   25.0650   33.4370 S   0  0  0  0  0  0  0  0  0  0  0  0
   37.9920   24.3090   37.3940 C   0  0  0  0  0  0  0  0  0  0  0  0
   38.5390   24.5530   36.1240 C   0  0  0  0  0  0  0  0  0  0  0  0
   39.7190   23.9140   35.7590 C   0  0  0  0  0  0  0  0  0  0  0  0
   40.2700   23.0780   36.6850 N   0  0  0  0  0  0  0  0  0  0  0  0
   39.7280   22.8560   37.9000 C   0  0  0  0  0  0  0  0  0  0  0  0
   38.6040   23.4720   38.2350 N   0  0  0  0  0  0  0  0  0  0  0  0
   36.4480   27.0790   31.7940 C   0  0  0  0  0  0  0  0  0  0  0  0
   36.2410   26.2080   30.9390 O   0  0  0  0  0  0  0  0  0  0  0  0
   36.1800   28.4760   31.4210 C   0  0  0  0  0  0  0  0  0  0  0  0
   36.9720   29.2410   30.5820 C   0  0  0  0  0  0  0  0  0  0  0  0
   36.3770   30.4780   30.4930 C   0  0  0  0  0  0  0  0  0  0  0  0
   35.2440   30.4300   31.2770 C   0  0  0  0  0  0  0  0  0  0  0  0
   35.1720   29.2280   31.8010 O   0  0  0  0  0  0  0  0  0  0  0  0
   37.6556   27.2357   36.3325 H   0  0  0  0  0  0  0  0  0  0  0  0
   36.6888   28.4632   34.4009 H   0  0  0  0  0  0  0  0  0  0  0  0
   37.0591   24.8075   37.6960 H   0  0  0  0  0  0  0  0  0  0  0  0
   40.1836   24.0744   34.7749 H   0  0  0  0  0  0  0  0  0  0  0  0
   40.2155   22.1688   38.6072 H   0  0  0  0  0  0  0  0  0  0  0  0
   37.8986   28.9213   30.0827 H   0  0  0  0  0  0  0  0  0  0  0  0
   36.7357   31.3387   29.9094 H   0  0  0  0  0  0  0  0  0  0  0  0
   34.5290   31.2508   31.4352 H   0  0  0  0  0  0  0  0  0  0  0  0
  1  2  2  0
  1  7  1  0
  3  2  1  0
  4  5  1  0
  4  3  2  0
  5  1  1  0
  6 11  2  0
  7  6  1  0
  8  7  2  0
  8  9  1  0
  9 10  2  0
 10 11  1  0
 12  4  1  0
 13 12  2  0
 14 12  1  0
 14 18  1  0
 15 14  2  0
 16 15  1  0
 16 17  2  0
 17 18  1  0
  2 19  1  0
  3 20  1  0
  6 21  1  0
  8 22  1  0
 10 23  1  0
 15 24  1  0
 16 25  1  0
 17 26  1  0
M  ISO  8  19  14  20  14  21  14  22  14  23  14  24  14  25  14  26  14
M  END
>  <minimizedAffinity>  (1) 
-4.67233801

>  <minimizedRMSD>  (1) 
1.03721905

$$$$
