
     RDKit          3D

 31 33  0  0  0  0  0  0  0  0999 V2000
   37.1800   26.1120   33.2290 C   0  0  0  0  0  0  0  0  0  0  0  0
   36.9420   27.4370   33.6290 C   0  0  0  0  0  0  0  0  0  0  0  0
   37.2710   27.8290   34.9190 C   0  0  0  0  0  0  0  0  0  0  0  0
   37.8140   26.8700   35.7220 N   0  0  0  0  0  0  0  0  0  0  0  0
   38.0350   25.5840   35.3030 C   0  0  0  0  0  0  0  0  0  0  0  0
   37.7120   25.2320   34.0640 N   0  0  0  0  0  0  0  0  0  0  0  0
   38.6210   24.6070   36.2170 C   0  0  0  0  0  0  0  0  0  0  0  0
   38.0860   24.3750   37.4660 C   0  0  0  0  0  0  0  0  0  0  0  0
   38.6450   23.4430   38.3370 C   0  0  0  0  0  0  0  0  0  0  0  0
   39.7690   22.7350   37.9320 C   0  0  0  0  0  0  0  0  0  0  0  0
   40.3200   22.9550   36.6790 C   0  0  0  0  0  0  0  0  0  0  0  0
   39.7420   23.8870   35.8370 C   0  0  0  0  0  0  0  0  0  0  0  0
   36.3620   28.4440   32.7750 C   0  0  0  0  0  0  0  0  0  0  0  0
   36.6450   28.6620   31.4410 C   0  0  0  0  0  0  0  0  0  0  0  0
   35.9930   29.6580   30.8060 C   0  0  0  0  0  0  0  0  0  0  0  0
   35.0700   30.4130   31.5380 C   0  0  0  0  0  0  0  0  0  0  0  0
   35.1410   29.6540   33.2200 S   0  0  0  0  0  0  0  0  0  0  0  0
   34.2160   31.4980   31.2540 C   0  0  0  0  0  0  0  0  0  0  0  0
   34.5320   32.6510   31.5200 O   0  0  0  0  0  0  0  0  0  0  0  0
   32.9290   31.2910   30.6350 N   0  0  0  0  0  0  0  0  0  0  0  0
   36.9206   25.8001   32.2065 H   0  0  0  0  0  0  0  0  0  0  0  0
   37.1030   28.8565   35.2741 H   0  0  0  0  0  0  0  0  0  0  0  0
   37.1964   24.9394   37.7823 H   0  0  0  0  0  0  0  0  0  0  0  0
   38.2034   23.2705   39.3296 H   0  0  0  0  0  0  0  0  0  0  0  0
   40.2241   21.9964   38.6083 H   0  0  0  0  0  0  0  0  0  0  0  0
   41.2093   22.3930   36.3575 H   0  0  0  0  0  0  0  0  0  0  0  0
   40.1818   24.0606   34.8438 H   0  0  0  0  0  0  0  0  0  0  0  0
   37.3817   28.0407   30.9107 H   0  0  0  0  0  0  0  0  0  0  0  0
   36.1816   29.8704   29.7433 H   0  0  0  0  0  0  0  0  0  0  0  0
   32.6210   30.3383   30.3934 H   0  0  0  0  0  0  0  0  0  0  0  0
   32.3184   32.0960   30.4348 H   0  0  0  0  0  0  0  0  0  0  0  0
  1  2  2  0
  1  6  1  0
  2  3  1  0
  3  4  2  0
  5  4  1  0
  5  7  1  0
  6  5  2  0
  7  8  2  0
  8  9  1  0
 10  9  2  0
 11 10  1  0
 12  7  1  0
 12 11  2  0
 13 17  1  0
 13  2  1  0
 14 13  2  0
 15 14  1  0
 15 16  2  0
 16 17  1  0
 18 19  2  0
 18 16  1  0
 20 18  1  0
  1 21  1  0
  3 22  1  0
  8 23  1  0
  9 24  1  0
 10 25  1  0
 11 26  1  0
 12 27  1  0
 14 28  1  0
 15 29  1  0
 20 30  1  0
 20 31  1  0
M  ISO  8  21  14  22  14  23  14  24  14  25  14  26  14  27  14  28  14
M  ISO  1  29  14
M  END
>  <minimizedAffinity>  (1) 
-5.39720678

>  <minimizedRMSD>  (1) 
4.5509963

$$$$
