
     RDKit          3D

 28 30  0  0  0  0  0  0  0  0999 V2000
   37.5820   25.4480   33.7910 C   0  0  0  0  0  0  0  0  0  0  0  0
   37.4160   26.7630   34.2520 C   0  0  0  0  0  0  0  0  0  0  0  0
   37.7850   27.0780   35.5590 C   0  0  0  0  0  0  0  0  0  0  0  0
   38.2900   26.0670   36.3150 N   0  0  0  0  0  0  0  0  0  0  0  0
   38.4350   24.7870   35.8230 C   0  0  0  0  0  0  0  0  0  0  0  0
   38.0800   24.5060   34.5760 N   0  0  0  0  0  0  0  0  0  0  0  0
   36.8780   27.8430   33.4650 C   0  0  0  0  0  0  0  0  0  0  0  0
   35.9780   28.7970   33.9010 C   0  0  0  0  0  0  0  0  0  0  0  0
   35.5770   29.7500   33.0230 C   0  0  0  0  0  0  0  0  0  0  0  0
   36.1040   29.7040   31.7280 C   0  0  0  0  0  0  0  0  0  0  0  0
   37.2190   28.2350   31.7680 S   0  0  0  0  0  0  0  0  0  0  0  0
   35.9430   30.4830   30.5720 C   0  0  0  0  0  0  0  0  0  0  0  0
   36.7520   30.4380   29.6510 O   0  0  0  0  0  0  0  0  0  0  0  0
   34.8220   31.3750   30.4110 N   0  0  0  0  0  0  0  0  0  0  0  0
   38.9920   23.8390   36.7800 C   0  0  0  0  0  0  0  0  0  0  0  0
   40.1520   23.1710   36.4560 C   0  0  0  0  0  0  0  0  0  0  0  0
   40.4720   22.3340   37.5260 C   0  0  0  0  0  0  0  0  0  0  0  0
   39.5120   22.5190   38.4480 N   0  0  0  0  0  0  0  0  0  0  0  0
   38.6170   23.4190   38.0130 N   0  0  0  0  0  0  0  0  0  0  0  0
   37.2934   25.1959   32.7599 H   0  0  0  0  0  0  0  0  0  0  0  0
   37.6729   28.0963   35.9597 H   0  0  0  0  0  0  0  0  0  0  0  0
   35.5969   28.7838   34.9328 H   0  0  0  0  0  0  0  0  0  0  0  0
   34.8622   30.5319   33.3190 H   0  0  0  0  0  0  0  0  0  0  0  0
   34.7289   31.9352   29.5517 H   0  0  0  0  0  0  0  0  0  0  0  0
   34.1142   31.4522   31.1553 H   0  0  0  0  0  0  0  0  0  0  0  0
   40.7234   23.2779   35.5221 H   0  0  0  0  0  0  0  0  0  0  0  0
   41.3368   21.6582   37.5998 H   0  0  0  0  0  0  0  0  0  0  0  0
   39.4694   22.0387   39.3582 H   0  0  0  0  0  0  0  0  0  0  0  0
  1  2  2  0
  1  6  1  0
  2  3  1  0
  3  4  2  0
  5  4  1  0
  5 15  1  0
  6  5  2  0
  7  8  2  0
  7  2  1  0
  9  8  1  0
 10 11  1  0
 10  9  2  0
 11  7  1  0
 12 10  1  0
 13 12  2  0
 14 12  1  0
 15 19  2  0
 16 15  1  0
 16 17  2  0
 17 18  1  0
 19 18  1  0
  1 20  1  0
  3 21  1  0
  8 22  1  0
  9 23  1  0
 14 24  1  0
 14 25  1  0
 16 26  1  0
 17 27  1  0
 18 28  1  0
M  ISO  7  20  14  21  14  22  14  23  14  26  14  27  14  28   9
M  END
>  <minimizedAffinity>  (1) 
-5.36479759

>  <minimizedRMSD>  (1) 
3.41592503

$$$$
