
     RDKit          3D

 26 28  0  0  0  0  0  0  0  0999 V2000
   37.0660   26.0010   32.7280 C   0  0  0  0  0  0  0  0  0  0  0  0
   37.4020   26.1920   34.0880 C   0  0  0  0  0  0  0  0  0  0  0  0
   37.0340   27.3690   34.7170 C   0  0  0  0  0  0  0  0  0  0  0  0
   36.3560   28.2830   33.9650 N   0  0  0  0  0  0  0  0  0  0  0  0
   36.0430   28.0630   32.6420 C   0  0  0  0  0  0  0  0  0  0  0  0
   36.4060   26.9270   32.0560 N   0  0  0  0  0  0  0  0  0  0  0  0
   38.1280   25.2330   34.8830 C   0  0  0  0  0  0  0  0  0  0  0  0
   39.1530   24.4180   34.4350 C   0  0  0  0  0  0  0  0  0  0  0  0
   39.7270   23.5720   35.3300 C   0  0  0  0  0  0  0  0  0  0  0  0
   39.2400   23.5820   36.6440 C   0  0  0  0  0  0  0  0  0  0  0  0
   37.9050   24.8560   36.6000 S   0  0  0  0  0  0  0  0  0  0  0  0
   39.5600   22.8810   37.8130 C   0  0  0  0  0  0  0  0  0  0  0  0
   39.0420   23.1620   38.8900 O   0  0  0  0  0  0  0  0  0  0  0  0
   40.5110   21.7990   37.8140 N   0  0  0  0  0  0  0  0  0  0  0  0
   35.3180   29.1910   32.0670 C   0  0  0  0  0  0  0  0  0  0  0  0
   35.4950   30.0050   31.0280 N   0  0  0  0  0  0  0  0  0  0  0  0
   34.4860   30.8510   31.0100 O   0  0  0  0  0  0  0  0  0  0  0  0
   33.6660   30.6050   32.0050 C   0  0  0  0  0  0  0  0  0  0  0  0
   34.1640   29.5560   32.6970 N   0  0  0  0  0  0  0  0  0  0  0  0
   37.3582   25.0686   32.2227 H   0  0  0  0  0  0  0  0  0  0  0  0
   37.2768   27.5582   35.7731 H   0  0  0  0  0  0  0  0  0  0  0  0
   39.4917   24.4540   33.3891 H   0  0  0  0  0  0  0  0  0  0  0  0
   40.5468   22.9014   35.0330 H   0  0  0  0  0  0  0  0  0  0  0  0
   40.7253   21.3025   38.6906 H   0  0  0  0  0  0  0  0  0  0  0  0
   40.9767   21.5218   36.9381 H   0  0  0  0  0  0  0  0  0  0  0  0
   32.7405   31.1535   32.2343 H   0  0  0  0  0  0  0  0  0  0  0  0
  1  2  2  0
  2  3  1  0
  2  7  1  0
  4  3  2  0
  5  4  1  0
  6  5  2  0
  6  1  1  0
  7 11  1  0
  8  7  2  0
  8  9  1  0
  9 10  2  0
 10 12  1  0
 11 10  1  0
 12 14  1  0
 12 13  2  0
 15  5  1  0
 15 19  1  0
 16 15  2  0
 17 16  1  0
 17 18  1  0
 18 19  2  0
  1 20  1  0
  3 21  1  0
  8 22  1  0
  9 23  1  0
 14 24  1  0
 14 25  1  0
 18 26  1  0
M  ISO  5  20  14  21  14  22  14  23  14  26  14
M  END
>  <minimizedAffinity>  (1) 
-5.03260231

>  <minimizedRMSD>  (1) 
8.77044678

$$$$
