
     RDKit          3D

 28 30  0  0  0  0  0  0  0  0999 V2000
   38.8010   25.7790   32.0340 C   0  0  0  0  0  0  0  0  0  0  0  0
   38.1600   26.1070   33.2280 C   0  0  0  0  0  0  0  0  0  0  0  0
   37.4460   27.2870   33.2950 C   0  0  0  0  0  0  0  0  0  0  0  0
   37.4140   28.0630   32.1780 N   0  0  0  0  0  0  0  0  0  0  0  0
   38.0500   27.7110   31.0300 C   0  0  0  0  0  0  0  0  0  0  0  0
   38.7380   26.5710   30.9760 N   0  0  0  0  0  0  0  0  0  0  0  0
   38.1840   25.2960   34.4240 C   0  0  0  0  0  0  0  0  0  0  0  0
   38.1900   23.9130   34.4760 C   0  0  0  0  0  0  0  0  0  0  0  0
   38.2150   23.3260   35.6930 C   0  0  0  0  0  0  0  0  0  0  0  0
   38.2330   24.1470   36.8270 C   0  0  0  0  0  0  0  0  0  0  0  0
   38.2130   25.8650   36.1150 S   0  0  0  0  0  0  0  0  0  0  0  0
   38.2590   23.9210   38.2160 C   0  0  0  0  0  0  0  0  0  0  0  0
   37.9360   24.8360   38.9990 O   0  0  0  0  0  0  0  0  0  0  0  0
   38.6500   22.6530   38.7610 N   0  0  0  0  0  0  0  0  0  0  0  0
   37.9340   28.6390   29.9060 C   0  0  0  0  0  0  0  0  0  0  0  0
   38.3190   28.6150   28.5820 C   0  0  0  0  0  0  0  0  0  0  0  0
   37.8960   29.8270   28.0620 C   0  0  0  0  0  0  0  0  0  0  0  0
   37.2870   30.5280   29.0580 C   0  0  0  0  0  0  0  0  0  0  0  0
   37.3260   29.7980   30.1320 O   0  0  0  0  0  0  0  0  0  0  0  0
   39.3718   24.8409   31.9702 H   0  0  0  0  0  0  0  0  0  0  0  0
   36.9237   27.5877   34.2152 H   0  0  0  0  0  0  0  0  0  0  0  0
   38.1749   23.3106   33.5557 H   0  0  0  0  0  0  0  0  0  0  0  0
   38.2211   22.2303   35.7903 H   0  0  0  0  0  0  0  0  0  0  0  0
   38.6609   22.5123   39.7813 H   0  0  0  0  0  0  0  0  0  0  0  0
   38.9198   21.8833   38.1320 H   0  0  0  0  0  0  0  0  0  0  0  0
   38.8476   27.8080   28.0534 H   0  0  0  0  0  0  0  0  0  0  0  0
   38.0290   30.1650   27.0237 H   0  0  0  0  0  0  0  0  0  0  0  0
   36.8427   31.5304   28.9693 H   0  0  0  0  0  0  0  0  0  0  0  0
  1  2  2  0
  2  3  1  0
  2  7  1  0
  4  3  2  0
  5  4  1  0
  6  5  2  0
  6  1  1  0
  7  8  2  0
  7 11  1  0
  8  9  1  0
  9 10  2  0
 10 12  1  0
 11 10  1  0
 12 14  1  0
 12 13  2  0
 15 19  1  0
 15  5  1  0
 16 15  2  0
 17 16  1  0
 17 18  2  0
 18 19  1  0
  1 20  1  0
  3 21  1  0
  8 22  1  0
  9 23  1  0
 14 24  1  0
 14 25  1  0
 16 26  1  0
 17 27  1  0
 18 28  1  0
M  ISO  7  20  14  21  14  22  14  23  14  26  14  27  14  28  14
M  END
>  <minimizedAffinity>  (1) 
-4.82143211

>  <minimizedRMSD>  (1) 
8.82465267

$$$$
