
     RDKit          3D

 27 28  0  0  0  0  0  0  0  0999 V2000
   37.7190   25.9500   34.6580 C   0  0  0  0  0  0  0  0  0  0  0  0
   37.2360   27.1890   35.0390 C   0  0  0  0  0  0  0  0  0  0  0  0
   36.6740   27.9810   34.0970 C   0  0  0  0  0  0  0  0  0  0  0  0
   36.6160   27.4940   32.7870 C   0  0  0  0  0  0  0  0  0  0  0  0
   37.4030   25.8290   32.9220 S   0  0  0  0  0  0  0  0  0  0  0  0
   37.8160   24.4900   36.7070 C   0  0  0  0  0  0  0  0  0  0  0  0
   38.3510   24.9810   35.5200 C   0  0  0  0  0  0  0  0  0  0  0  0
   39.6050   24.5260   35.0960 C   0  0  0  0  0  0  0  0  0  0  0  0
   40.2370   23.6170   35.8850 N   0  0  0  0  0  0  0  0  0  0  0  0
   39.6670   23.1600   37.0530 C   0  0  0  0  0  0  0  0  0  0  0  0
   38.4570   23.6100   37.4440 N   0  0  0  0  0  0  0  0  0  0  0  0
   40.5570   22.1770   37.7250 C   0  0  0  0  0  0  0  0  0  0  0  0
   41.5810   21.6070   36.7920 C   0  0  0  0  0  0  0  0  0  0  0  0
   36.1300   27.9850   31.5640 C   0  0  0  0  0  0  0  0  0  0  0  0
   36.1320   27.2710   30.5460 O   0  0  0  0  0  0  0  0  0  0  0  0
   35.6200   29.3040   31.4290 N   0  0  0  0  0  0  0  0  0  0  0  0
   37.3073   27.5229   36.0847 H   0  0  0  0  0  0  0  0  0  0  0  0
   36.2762   28.9742   34.3526 H   0  0  0  0  0  0  0  0  0  0  0  0
   36.8298   24.8479   37.0377 H   0  0  0  0  0  0  0  0  0  0  0  0
   40.0604   24.8890   34.1628 H   0  0  0  0  0  0  0  0  0  0  0  0
   41.0753   22.6789   38.5553 H   0  0  0  0  0  0  0  0  0  0  0  0
   39.9310   21.3474   38.0853 H   0  0  0  0  0  0  0  0  0  0  0  0
   42.3960   21.1533   37.3750 H   0  0  0  0  0  0  0  0  0  0  0  0
   41.1126   20.8398   36.1579 H   0  0  0  0  0  0  0  0  0  0  0  0
   41.9863   22.4093   36.1579 H   0  0  0  0  0  0  0  0  0  0  0  0
   35.2717   29.6306   30.5164 H   0  0  0  0  0  0  0  0  0  0  0  0
   35.5985   29.9338   32.2438 H   0  0  0  0  0  0  0  0  0  0  0  0
  1  2  2  0
  1  7  1  0
  3  2  1  0
  4  5  1  0
  4  3  2  0
  5  1  1  0
  6 11  2  0
  7  6  1  0
  8  7  2  0
  8  9  1  0
  9 10  2  0
 10 11  1  0
 10 12  1  0
 13 12  1  0
 14  4  1  0
 15 14  2  0
 16 14  1  0
  2 17  1  0
  3 18  1  0
  6 19  1  0
  8 20  1  0
 12 21  1  0
 12 22  1  0
 13 23  1  0
 13 24  1  0
 13 25  1  0
 16 26  1  0
 16 27  1  0
M  ISO  8  17  14  18  14  19  14  20  14  21   8  22   8  23   8  24   8
M  ISO  1  25   8
M  END
>  <minimizedAffinity>  (1) 
-4.39051962

>  <minimizedRMSD>  (1) 
1.11602867

$$$$
