
     RDKit          3D

 24 25  0  0  0  0  0  0  0  0999 V2000
   38.2330   25.8640   35.1750 C   0  0  0  0  0  0  0  0  0  0  0  0
   37.9950   27.1160   35.7130 C   0  0  0  0  0  0  0  0  0  0  0  0
   37.2910   28.0060   34.9720 C   0  0  0  0  0  0  0  0  0  0  0  0
   36.8500   27.6000   33.7070 C   0  0  0  0  0  0  0  0  0  0  0  0
   37.4660   25.8630   33.5630 S   0  0  0  0  0  0  0  0  0  0  0  0
   38.4890   24.0620   36.9120 C   0  0  0  0  0  0  0  0  0  0  0  0
   38.9550   24.7880   35.7920 C   0  0  0  0  0  0  0  0  0  0  0  0
   40.1830   24.4620   35.2410 C   0  0  0  0  0  0  0  0  0  0  0  0
   40.8710   23.4410   35.8320 N   0  0  0  0  0  0  0  0  0  0  0  0
   40.3860   22.7580   36.9200 C   0  0  0  0  0  0  0  0  0  0  0  0
   39.2060   23.0820   37.4370 N   0  0  0  0  0  0  0  0  0  0  0  0
   41.1670   21.6550   37.5300 C   0  0  0  0  0  0  0  0  0  0  0  0
   36.1170   28.2100   32.6710 C   0  0  0  0  0  0  0  0  0  0  0  0
   35.5180   27.5460   31.8310 O   0  0  0  0  0  0  0  0  0  0  0  0
   36.0400   29.6460   32.5570 N   0  0  0  0  0  0  0  0  0  0  0  0
   38.3665   27.3816   36.7137 H   0  0  0  0  0  0  0  0  0  0  0  0
   37.0732   29.0149   35.3524 H   0  0  0  0  0  0  0  0  0  0  0  0
   37.5143   24.3161   37.3541 H   0  0  0  0  0  0  0  0  0  0  0  0
   40.5848   24.9995   34.3694 H   0  0  0  0  0  0  0  0  0  0  0  0
   41.1136   21.7304   38.6261 H   0  0  0  0  0  0  0  0  0  0  0  0
   40.7504   20.6891   37.2082 H   0  0  0  0  0  0  0  0  0  0  0  0
   42.2164   21.7272   37.2082 H   0  0  0  0  0  0  0  0  0  0  0  0
   35.4987   30.0736   31.7921 H   0  0  0  0  0  0  0  0  0  0  0  0
   36.5263   30.2437   33.2405 H   0  0  0  0  0  0  0  0  0  0  0  0
  1  2  2  0
  1  7  1  0
  3  2  1  0
  4  3  2  0
  5  4  1  0
  5  1  1  0
  6 11  2  0
  7  6  1  0
  8  7  2  0
  8  9  1  0
  9 10  2  0
 10 11  1  0
 10 12  1  0
 13  4  1  0
 14 13  2  0
 15 13  1  0
  2 16  1  0
  3 17  1  0
  6 18  1  0
  8 19  1  0
 12 20  1  0
 12 21  1  0
 12 22  1  0
 15 23  1  0
 15 24  1  0
M  ISO  7  16  14  17  14  18  14  19  14  20   8  21   8  22   8
M  END
>  <minimizedAffinity>  (1) 
-4.25719213

>  <minimizedRMSD>  (1) 
0.901776314

$$$$
