
     RDKit          3D

 30 32  0  0  0  0  0  0  0  0999 V2000
   38.2630   24.9740   34.5100 C   0  0  0  0  0  0  0  0  0  0  0  0
   38.5590   26.3360   34.2630 C   0  0  0  0  0  0  0  0  0  0  0  0
   39.8450   26.8090   34.4700 C   0  0  0  0  0  0  0  0  0  0  0  0
   40.7540   25.9040   34.9070 N   0  0  0  0  0  0  0  0  0  0  0  0
   40.4370   24.5760   35.1420 C   0  0  0  0  0  0  0  0  0  0  0  0
   39.2020   24.1550   34.9350 N   0  0  0  0  0  0  0  0  0  0  0  0
   37.5890   27.3060   33.7980 C   0  0  0  0  0  0  0  0  0  0  0  0
   36.6910   27.9740   34.6190 C   0  0  0  0  0  0  0  0  0  0  0  0
   35.8500   28.8530   34.0150 C   0  0  0  0  0  0  0  0  0  0  0  0
   35.9390   29.0250   32.6400 C   0  0  0  0  0  0  0  0  0  0  0  0
   37.3100   27.8660   32.1380 S   0  0  0  0  0  0  0  0  0  0  0  0
   35.2710   29.8120   31.6780 C   0  0  0  0  0  0  0  0  0  0  0  0
   35.7720   30.0190   30.5660 O   0  0  0  0  0  0  0  0  0  0  0  0
   33.9840   30.3970   31.9640 N   0  0  0  0  0  0  0  0  0  0  0  0
   41.5510   23.7290   35.6180 C   0  0  0  0  0  0  0  0  0  0  0  0
   42.8110   24.2670   35.5090 C   0  0  0  0  0  0  0  0  0  0  0  0
   43.8780   22.8780   36.2190 S   0  0  0  0  0  0  0  0  0  0  0  0
   42.3250   21.8400   36.5160 C   0  0  0  0  0  0  0  0  0  0  0  0
   41.5230   22.5270   36.1370 N   0  0  0  0  0  0  0  0  0  0  0  0
   42.5530   20.5160   37.1140 C   0  0  0  0  0  0  0  0  0  0  0  0
   43.1820   19.6030   36.5280 O   0  0  0  0  0  0  0  0  0  0  0  0
   41.9950   20.4210   38.3750 O   0  0  0  0  0  0  0  0  0  0  0  0
   37.2425   24.5977   34.3459 H   0  0  0  0  0  0  0  0  0  0  0  0
   40.1130   27.8605   34.2896 H   0  0  0  0  0  0  0  0  0  0  0  0
   36.6619   27.8001   35.7048 H   0  0  0  0  0  0  0  0  0  0  0  0
   35.1124   29.4179   34.6039 H   0  0  0  0  0  0  0  0  0  0  0  0
   33.5086   30.9692   31.2516 H   0  0  0  0  0  0  0  0  0  0  0  0
   33.5403   30.2426   32.8806 H   0  0  0  0  0  0  0  0  0  0  0  0
   43.1173   25.2466   35.1133 H   0  0  0  0  0  0  0  0  0  0  0  0
   42.0762   19.5795   38.8901 H   0  0  0  0  0  0  0  0  0  0  0  0
  1  6  2  0
  2  3  2  0
  2  1  1  0
  3  4  1  0
  4  5  2  0
  5 15  1  0
  6  5  1  0
  7  2  1  0
  7  8  2  0
  9  8  1  0
 10  9  2  0
 11 10  1  0
 11  7  1  0
 12 14  1  0
 12 10  1  0
 13 12  2  0
 15 19  1  0
 16 15  2  0
 16 17  1  0
 17 18  1  0
 18 20  1  0
 19 18  2  0
 20 22  1  0
 21 20  2  0
  1 23  1  0
  3 24  1  0
  8 25  1  0
  9 26  1  0
 14 27  1  0
 14 28  1  0
 16 29  1  0
 22 30  1  0
M  ISO  6  23  14  24  14  25  14  26  14  29  14  30   3
M  END
>  <minimizedAffinity>  (1) 
-4.85471821

>  <minimizedRMSD>  (1) 
2.05169916

$$$$
