
     RDKit          3D

 40 43  0  0  0  0  0  0  0  0999 V2000
   40.7850   24.8610   33.1300 C   0  0  0  0  0  0  0  0  0  0  0  0
   41.2710   25.4350   34.3040 C   0  0  0  0  0  0  0  0  0  0  0  0
   40.7170   26.6360   34.7760 C   0  0  0  0  0  0  0  0  0  0  0  0
   39.7120   27.1750   34.0320 N   0  0  0  0  0  0  0  0  0  0  0  0
   39.2630   26.5620   32.8670 C   0  0  0  0  0  0  0  0  0  0  0  0
   39.8090   25.4220   32.4430 N   0  0  0  0  0  0  0  0  0  0  0  0
   42.3420   24.8970   35.1170 C   0  0  0  0  0  0  0  0  0  0  0  0
   42.2370   23.7260   35.8780 C   0  0  0  0  0  0  0  0  0  0  0  0
   43.3470   23.3670   36.5760 C   0  0  0  0  0  0  0  0  0  0  0  0
   44.4840   24.1580   36.4980 C   0  0  0  0  0  0  0  0  0  0  0  0
   43.9700   25.5230   35.3530 S   0  0  0  0  0  0  0  0  0  0  0  0
   45.7760   24.1170   37.0610 C   0  0  0  0  0  0  0  0  0  0  0  0
   46.6270   23.3320   36.6250 O   0  0  0  0  0  0  0  0  0  0  0  0
   46.1330   24.9910   38.1620 N   0  0  0  0  0  0  0  0  0  0  0  0
   38.1740   27.2820   32.1640 C   0  0  0  0  0  0  0  0  0  0  0  0
   38.1490   27.1570   30.7990 C   0  0  0  0  0  0  0  0  0  0  0  0
   36.6420   28.1930   30.3460 S   0  0  0  0  0  0  0  0  0  0  0  0
   36.3660   28.5840   32.1780 C   0  0  0  0  0  0  0  0  0  0  0  0
   37.2080   28.0280   32.6530 N   0  0  0  0  0  0  0  0  0  0  0  0
   35.2640   29.4440   32.8210 C   0  0  0  0  0  0  0  0  0  0  0  0
   35.2280   29.1750   34.3010 C   0  0  0  0  0  0  0  0  0  0  0  0
   35.7740   30.4310   34.9740 C   0  0  0  0  0  0  0  0  0  0  0  0
   35.3640   31.5100   33.9880 C   0  0  0  0  0  0  0  0  0  0  0  0
   35.7270   30.8520   32.6570 C   0  0  0  0  0  0  0  0  0  0  0  0
   41.2252   23.9198   32.7689 H   0  0  0  0  0  0  0  0  0  0  0  0
   41.0761   27.1161   35.6983 H   0  0  0  0  0  0  0  0  0  0  0  0
   41.3116   23.1322   35.9091 H   0  0  0  0  0  0  0  0  0  0  0  0
   43.3436   22.4586   37.1963 H   0  0  0  0  0  0  0  0  0  0  0  0
   47.0802   24.9515   38.5647 H   0  0  0  0  0  0  0  0  0  0  0  0
   45.4393   25.6512   38.5412 H   0  0  0  0  0  0  0  0  0  0  0  0
   38.8304   26.5982   30.1407 H   0  0  0  0  0  0  0  0  0  0  0  0
   34.2797   29.2413   32.3737 H   0  0  0  0  0  0  0  0  0  0  0  0
   34.1955   28.9844   34.6292 H   0  0  0  0  0  0  0  0  0  0  0  0
   35.8240   28.2882   34.5624 H   0  0  0  0  0  0  0  0  0  0  0  0
   35.3119   30.5913   35.9593 H   0  0  0  0  0  0  0  0  0  0  0  0
   36.8549   30.3965   35.1750 H   0  0  0  0  0  0  0  0  0  0  0  0
   34.2870   31.7247   34.0507 H   0  0  0  0  0  0  0  0  0  0  0  0
   35.8489   32.4828   34.1570 H   0  0  0  0  0  0  0  0  0  0  0  0
   36.8126   30.8903   32.4837 H   0  0  0  0  0  0  0  0  0  0  0  0
   35.2666   31.3544   31.7935 H   0  0  0  0  0  0  0  0  0  0  0  0
  1  2  2  0
  2  3  1  0
  2  7  1  0
  4  3  2  0
  5  4  1  0
  6  5  2  0
  6  1  1  0
  7 11  1  0
  7  8  2  0
  8  9  1  0
 10  9  2  0
 10 12  1  0
 11 10  1  0
 12 14  1  0
 13 12  2  0
 15 19  1  0
 15  5  1  0
 16 15  2  0
 17 16  1  0
 17 18  1  0
 18 19  2  0
 18 20  1  0
 20 21  1  0
 21 22  1  0
 23 22  1  0
 24 20  1  0
 24 23  1  0
  1 25  1  0
  3 26  1  0
  8 27  1  0
  9 28  1  0
 14 29  1  0
 14 30  1  0
 16 31  1  0
 20 32  1  0
 21 33  1  0
 21 34  1  0
 22 35  1  0
 22 36  1  0
 23 37  1  0
 23 38  1  0
 24 39  1  0
 24 40  1  0
M  ISO  8  25  14  26  14  27  14  28  14  31  14  32  13  33  13  34  13
M  ISO  6  35  13  36  13  37  13  38  13  39  13  40  13
M  END
>  <minimizedAffinity>  (1) 
-4.86722088

>  <minimizedRMSD>  (1) 
9.78752995

$$$$
