
     RDKit          3D

 29 31  0  0  0  0  0  0  0  0999 V2000
   39.2910   23.5520   36.3370 C   0  0  0  0  0  0  0  0  0  0  0  0
   39.6430   24.6410   35.5190 C   0  0  0  0  0  0  0  0  0  0  0  0
   40.9100   24.6910   34.9320 C   0  0  0  0  0  0  0  0  0  0  0  0
   41.7280   23.6400   35.2170 N   0  0  0  0  0  0  0  0  0  0  0  0
   41.3590   22.5920   36.0190 C   0  0  0  0  0  0  0  0  0  0  0  0
   40.1460   22.5730   36.5600 N   0  0  0  0  0  0  0  0  0  0  0  0
   42.3670   21.5400   36.2190 C   0  0  0  0  0  0  0  0  0  0  0  0
   43.5830   21.7500   35.6300 C   0  0  0  0  0  0  0  0  0  0  0  0
   44.5560   20.2140   36.1170 S   0  0  0  0  0  0  0  0  0  0  0  0
   43.0260   19.5720   37.0710 C   0  0  0  0  0  0  0  0  0  0  0  0
   42.3040   20.4100   36.8790 N   0  0  0  0  0  0  0  0  0  0  0  0
   43.0080   18.3390   37.7720 N   0  0  0  0  0  0  0  0  0  0  0  0
   38.7770   25.7620   35.2210 C   0  0  0  0  0  0  0  0  0  0  0  0
   38.6900   26.9190   35.9930 C   0  0  0  0  0  0  0  0  0  0  0  0
   37.8250   27.8690   35.5640 C   0  0  0  0  0  0  0  0  0  0  0  0
   37.0920   27.6390   34.4070 C   0  0  0  0  0  0  0  0  0  0  0  0
   37.6570   25.9460   33.8650 S   0  0  0  0  0  0  0  0  0  0  0  0
   36.1260   28.3550   33.6670 C   0  0  0  0  0  0  0  0  0  0  0  0
   35.8720   28.0470   32.4960 O   0  0  0  0  0  0  0  0  0  0  0  0
   35.4140   29.4620   34.2650 N   0  0  0  0  0  0  0  0  0  0  0  0
   38.2918   23.5167   36.7956 H   0  0  0  0  0  0  0  0  0  0  0  0
   41.2252   25.5222   34.2841 H   0  0  0  0  0  0  0  0  0  0  0  0
   43.9116   22.6055   35.0216 H   0  0  0  0  0  0  0  0  0  0  0  0
   42.1564   18.0417   38.2692 H   0  0  0  0  0  0  0  0  0  0  0  0
   43.8465   17.7410   37.7838 H   0  0  0  0  0  0  0  0  0  0  0  0
   39.2925   27.0537   36.9034 H   0  0  0  0  0  0  0  0  0  0  0  0
   37.7049   28.8084   36.1235 H   0  0  0  0  0  0  0  0  0  0  0  0
   34.7110   29.9783   33.7172 H   0  0  0  0  0  0  0  0  0  0  0  0
   35.6097   29.7344   35.2389 H   0  0  0  0  0  0  0  0  0  0  0  0
  1  6  2  0
  2  1  1  0
  3  4  1  0
  3  2  2  0
  4  5  2  0
  5  7  1  0
  5  6  1  0
  7 11  1  0
  8  9  1  0
  8  7  2  0
  9 10  1  0
 10 12  1  0
 11 10  2  0
 13  2  1  0
 13 14  2  0
 15 14  1  0
 16 15  2  0
 17 16  1  0
 17 13  1  0
 18 20  1  0
 18 16  1  0
 19 18  2  0
  1 21  1  0
  3 22  1  0
  8 23  1  0
 12 24  1  0
 12 25  1  0
 14 26  1  0
 15 27  1  0
 20 28  1  0
 20 29  1  0
M  ISO  5  21  14  22  14  23  14  26  14  27  14
M  END
>  <minimizedAffinity>  (1) 
-4.65923405

>  <minimizedRMSD>  (1) 
0.844578505

$$$$
