
     RDKit          3D

 32 34  0  0  0  0  0  0  0  0999 V2000
   37.9220   25.2780   35.7200 C   0  0  0  0  0  0  0  0  0  0  0  0
   38.2350   26.1950   34.6970 C   0  0  0  0  0  0  0  0  0  0  0  0
   39.4800   26.1670   34.0870 C   0  0  0  0  0  0  0  0  0  0  0  0
   40.3300   25.2110   34.5480 N   0  0  0  0  0  0  0  0  0  0  0  0
   40.0220   24.3280   35.5360 C   0  0  0  0  0  0  0  0  0  0  0  0
   38.8120   24.3830   36.1050 N   0  0  0  0  0  0  0  0  0  0  0  0
   41.0570   23.3670   35.9210 C   0  0  0  0  0  0  0  0  0  0  0  0
   42.2220   23.4360   35.2340 C   0  0  0  0  0  0  0  0  0  0  0  0
   43.2550   22.0700   36.0070 S   0  0  0  0  0  0  0  0  0  0  0  0
   41.8020   21.6610   37.1750 C   0  0  0  0  0  0  0  0  0  0  0  0
   41.0740   22.4320   36.8170 N   0  0  0  0  0  0  0  0  0  0  0  0
   41.8640   20.6300   38.1350 N   0  0  0  0  0  0  0  0  0  0  0  0
   37.3270   27.2260   34.2100 C   0  0  0  0  0  0  0  0  0  0  0  0
   36.9470   28.3390   34.9440 C   0  0  0  0  0  0  0  0  0  0  0  0
   36.0900   29.2020   34.3350 C   0  0  0  0  0  0  0  0  0  0  0  0
   35.6630   28.9200   33.0560 C   0  0  0  0  0  0  0  0  0  0  0  0
   36.5180   27.3250   32.6560 S   0  0  0  0  0  0  0  0  0  0  0  0
   34.8110   29.5440   32.1240 C   0  0  0  0  0  0  0  0  0  0  0  0
   33.5850   29.5840   32.3090 O   0  0  0  0  0  0  0  0  0  0  0  0
   35.3230   30.1560   30.9320 N   0  0  0  0  0  0  0  0  0  0  0  0
   35.5730   30.4640   34.9660 C   0  0  0  0  0  0  0  0  0  0  0  0
   34.2540   30.2550   35.2470 F   0  0  0  0  0  0  0  0  0  0  0  0
   35.6330   31.5150   34.0720 F   0  0  0  0  0  0  0  0  0  0  0  0
   36.3310   30.8480   36.0530 F   0  0  0  0  0  0  0  0  0  0  0  0
   36.9324   25.3083   36.1993 H   0  0  0  0  0  0  0  0  0  0  0  0
   39.7601   26.8682   33.2871 H   0  0  0  0  0  0  0  0  0  0  0  0
   42.4967   24.1243   34.4211 H   0  0  0  0  0  0  0  0  0  0  0  0
   41.0548   20.4446   38.7446 H   0  0  0  0  0  0  0  0  0  0  0  0
   42.7185   20.0623   38.2266 H   0  0  0  0  0  0  0  0  0  0  0  0
   37.3187   28.5148   35.9643 H   0  0  0  0  0  0  0  0  0  0  0  0
   36.3351   30.1445   30.7411 H   0  0  0  0  0  0  0  0  0  0  0  0
   34.6786   30.6069   30.2670 H   0  0  0  0  0  0  0  0  0  0  0  0
  1  6  2  0
  2  1  1  0
  3  4  1  0
  3  2  2  0
  4  5  2  0
  5  7  1  0
  5  6  1  0
  7 11  1  0
  8  7  2  0
  8  9  1  0
  9 10  1  0
 10 12  1  0
 11 10  2  0
 13  2  1  0
 13 14  2  0
 15 14  1  0
 15 21  1  0
 16 15  2  0
 17 16  1  0
 17 13  1  0
 18 19  2  0
 18 16  1  0
 20 18  1  0
 21 22  1  0
 21 24  1  0
 23 21  1  0
  1 25  1  0
  3 26  1  0
  8 27  1  0
 12 28  1  0
 12 29  1  0
 14 30  1  0
 20 31  1  0
 20 32  1  0
M  ISO  4  25  14  26  14  27  14  30  14
M  END
>  <minimizedAffinity>  (1) 
-5.43704605

>  <minimizedRMSD>  (1) 
2.49542975

$$$$
