
     RDKit          3D

 30 32  0  0  1  0  0  0  0  0999 V2000
   40.0540   22.3790   35.2880 C   0  0  2  0  0  0  0  0  0  0  0  0
   39.3000   22.9950   36.4100 C   0  0  0  0  0  0  0  0  0  0  0  0
   39.6790   22.7900   37.7460 C   0  0  0  0  0  0  0  0  0  0  0  0
   38.9260   23.4060   38.7470 C   0  0  0  0  0  0  0  0  0  0  0  0
   37.8550   24.1790   38.3700 N   0  0  0  0  0  0  0  0  0  0  0  0
   37.5160   24.3580   37.0800 C   0  0  0  0  0  0  0  0  0  0  0  0
   38.2440   23.7620   36.1180 N   0  0  0  0  0  0  0  0  0  0  0  0
   41.4950   22.7760   35.5010 C   0  0  0  0  0  0  0  0  0  0  0  0
   39.5170   22.8580   33.9730 C   0  0  0  0  0  0  0  0  0  0  0  0
   39.0140   21.8130   33.1160 N   0  0  0  0  0  0  0  0  0  0  0  0
   39.5940   21.1950   32.0650 C   0  0  0  0  0  0  0  0  0  0  0  0
   38.7600   20.2680   31.5470 N   0  0  0  0  0  0  0  0  0  0  0  0
   37.6160   20.2790   32.2690 C   0  0  0  0  0  0  0  0  0  0  0  0
   36.4730   19.5140   32.1250 C   0  0  0  0  0  0  0  0  0  0  0  0
   35.4420   19.7190   32.9940 N   0  0  0  0  0  0  0  0  0  0  0  0
   35.6070   20.6590   33.9450 C   0  0  0  0  0  0  0  0  0  0  0  0
   36.7330   21.3910   34.0620 N   0  0  0  0  0  0  0  0  0  0  0  0
   37.7950   21.2440   33.2390 C   0  0  0  0  0  0  0  0  0  0  0  0
   39.9566   21.2835   35.2670 H   0  0  0  0  0  0  0  0  0  0  0  0
   40.5458   22.1611   37.9972 H   0  0  0  0  0  0  0  0  0  0  0  0
   39.1832   23.2760   39.8086 H   0  0  0  0  0  0  0  0  0  0  0  0
   36.6523   24.9854   36.8146 H   0  0  0  0  0  0  0  0  0  0  0  0
   41.7039   22.8336   36.5794 H   0  0  0  0  0  0  0  0  0  0  0  0
   42.1540   22.0260   35.0394 H   0  0  0  0  0  0  0  0  0  0  0  0
   41.6769   23.7577   35.0394 H   0  0  0  0  0  0  0  0  0  0  0  0
   38.6966   23.5628   34.1732 H   0  0  0  0  0  0  0  0  0  0  0  0
   40.3610   23.3204   33.4402 H   0  0  0  0  0  0  0  0  0  0  0  0
   40.6024   21.4153   31.6848 H   0  0  0  0  0  0  0  0  0  0  0  0
   36.3972   18.7586   31.3290 H   0  0  0  0  0  0  0  0  0  0  0  0
   34.7874   20.8369   34.6568 H   0  0  0  0  0  0  0  0  0  0  0  0
  1  8  1  0
  1  2  1  0
  2  3  2  0
  3  4  1  0
  5  4  2  0
  6  5  1  0
  7  2  1  0
  7  6  2  0
  9  1  1  0
 10 18  1  0
 10  9  1  0
 11 10  1  0
 12 11  2  0
 12 13  1  0
 13 18  2  0
 14 13  1  0
 14 15  2  0
 15 16  1  0
 16 17  2  0
 18 17  1  0
  1 19  1  6
  3 20  1  0
  4 21  1  0
  6 22  1  0
  8 23  1  0
  8 24  1  0
  8 25  1  0
  9 26  1  0
  9 27  1  0
 11 28  1  0
 14 29  1  0
 16 30  1  0
M  ISO  8  19   8  20  14  21  14  22  14  23   8  24   8  25   8  26   8
M  ISO  4  27   8  28  14  29  14  30  14
M  END
>  <minimizedAffinity>  (1) 
-4.06367683

>  <minimizedRMSD>  (1) 
3.12254477

$$$$
