
     RDKit          3D

 39 42  0  0  0  0  0  0  0  0999 V2000
   36.8800   27.7680   34.0480 C   0  0  0  0  0  0  0  0  0  0  0  0
   36.4310   28.8240   34.8440 C   0  0  0  0  0  0  0  0  0  0  0  0
   35.6150   29.7210   34.2290 C   0  0  0  0  0  0  0  0  0  0  0  0
   35.2960   29.5300   32.9000 C   0  0  0  0  0  0  0  0  0  0  0  0
   36.2020   27.9660   32.4380 S   0  0  0  0  0  0  0  0  0  0  0  0
   35.0230   30.8790   34.8080 N   0  0  0  0  0  0  0  0  0  0  0  0
   35.7360   32.0270   34.8220 C   0  0  0  0  0  0  0  0  0  0  0  0
   35.2180   33.2000   35.3730 C   0  0  0  0  0  0  0  0  0  0  0  0
   33.9320   33.1030   35.9000 C   0  0  0  0  0  0  0  0  0  0  0  0
   33.4650   34.1690   36.4000 O   0  0  0  0  0  0  0  0  0  0  0  0
   33.2680   31.9340   35.8580 N   0  0  0  0  0  0  0  0  0  0  0  0
   33.8000   30.8300   35.3190 C   0  0  0  0  0  0  0  0  0  0  0  0
   33.1430   29.7740   35.3060 O   0  0  0  0  0  0  0  0  0  0  0  0
   37.4160   25.7380   35.4700 C   0  0  0  0  0  0  0  0  0  0  0  0
   37.7620   26.7140   34.5330 C   0  0  0  0  0  0  0  0  0  0  0  0
   39.0570   26.7350   33.9820 C   0  0  0  0  0  0  0  0  0  0  0  0
   39.8990   25.7660   34.4260 N   0  0  0  0  0  0  0  0  0  0  0  0
   39.5370   24.8230   35.3440 C   0  0  0  0  0  0  0  0  0  0  0  0
   38.2970   24.8320   35.8460 N   0  0  0  0  0  0  0  0  0  0  0  0
   40.5570   23.8390   35.7360 C   0  0  0  0  0  0  0  0  0  0  0  0
   41.7420   23.9220   35.0860 C   0  0  0  0  0  0  0  0  0  0  0  0
   42.7490   22.5340   35.8500 S   0  0  0  0  0  0  0  0  0  0  0  0
   41.2520   22.0990   36.9690 C   0  0  0  0  0  0  0  0  0  0  0  0
   40.5420   22.8770   36.6110 N   0  0  0  0  0  0  0  0  0  0  0  0
   41.2790   21.0420   37.9090 N   0  0  0  0  0  0  0  0  0  0  0  0
   34.5110   30.2080   31.9290 C   0  0  0  0  0  0  0  0  0  0  0  0
   35.0240   30.7740   30.9690 O   0  0  0  0  0  0  0  0  0  0  0  0
   33.0640   30.2350   32.0660 N   0  0  0  0  0  0  0  0  0  0  0  0
   36.7191   28.9237   35.9009 H   0  0  0  0  0  0  0  0  0  0  0  0
   36.7473   32.0371   34.3894 H   0  0  0  0  0  0  0  0  0  0  0  0
   35.7883   34.1404   35.3901 H   0  0  0  0  0  0  0  0  0  0  0  0
   32.3183   31.8866   36.2538 H   0  0  0  0  0  0  0  0  0  0  0  0
   36.4023   25.7250   35.8969 H   0  0  0  0  0  0  0  0  0  0  0  0
   39.3667   27.4865   33.2408 H   0  0  0  0  0  0  0  0  0  0  0  0
   42.0420   24.6311   34.3004 H   0  0  0  0  0  0  0  0  0  0  0  0
   40.4499   20.8464   38.4879 H   0  0  0  0  0  0  0  0  0  0  0  0
   42.1278   20.4681   38.0144 H   0  0  0  0  0  0  0  0  0  0  0  0
   32.4894   30.7248   31.3654 H   0  0  0  0  0  0  0  0  0  0  0  0
   32.6133   29.7643   32.8637 H   0  0  0  0  0  0  0  0  0  0  0  0
  1 15  1  0
  1  2  2  0
  3  6  1  0
  3  2  1  0
  4  3  2  0
  5  4  1  0
  5  1  1  0
  6  7  1  0
  6 12  1  0
  7  8  2  0
  8  9  1  0
  9 10  2  0
 11  9  1  0
 12 11  1  0
 13 12  2  0
 14 19  2  0
 15 14  1  0
 16 17  1  0
 16 15  2  0
 17 18  2  0
 18 20  1  0
 18 19  1  0
 20 24  1  0
 21 20  2  0
 21 22  1  0
 22 23  1  0
 23 25  1  0
 24 23  2  0
 26 28  1  0
 26  4  1  0
 27 26  2  0
  2 29  1  0
  7 30  1  0
  8 31  1  0
 11 32  1  0
 14 33  1  0
 16 34  1  0
 21 35  1  0
 25 36  1  0
 25 37  1  0
 28 38  1  0
 28 39  1  0
M  ISO  7  29  14  30  14  31  14  32   9  33  14  34  14  35  14
M  END
>  <minimizedAffinity>  (1) 
-5.41278744

>  <minimizedRMSD>  (1) 
3.20456815

$$$$
