
     RDKit          3D

 32 34  0  0  0  0  0  0  0  0999 V2000
   38.4250   25.2880   35.2870 C   0  0  0  0  0  0  0  0  0  0  0  0
   38.7890   26.0160   34.1350 C   0  0  0  0  0  0  0  0  0  0  0  0
   40.0220   25.8170   33.5340 C   0  0  0  0  0  0  0  0  0  0  0  0
   40.8080   24.8880   34.1470 N   0  0  0  0  0  0  0  0  0  0  0  0
   40.4540   24.1870   35.2570 C   0  0  0  0  0  0  0  0  0  0  0  0
   39.2550   24.4070   35.8080 N   0  0  0  0  0  0  0  0  0  0  0  0
   41.4150   23.2110   35.7660 C   0  0  0  0  0  0  0  0  0  0  0  0
   42.6230   23.1810   35.1600 C   0  0  0  0  0  0  0  0  0  0  0  0
   43.5450   21.8220   36.0600 S   0  0  0  0  0  0  0  0  0  0  0  0
   41.9910   21.5420   37.1630 C   0  0  0  0  0  0  0  0  0  0  0  0
   41.3310   22.3270   36.7120 N   0  0  0  0  0  0  0  0  0  0  0  0
   41.9270   20.5670   38.1850 N   0  0  0  0  0  0  0  0  0  0  0  0
   37.9310   27.0080   33.4950 C   0  0  0  0  0  0  0  0  0  0  0  0
   36.9580   27.7320   34.1470 C   0  0  0  0  0  0  0  0  0  0  0  0
   36.2540   28.6080   33.3990 C   0  0  0  0  0  0  0  0  0  0  0  0
   36.5380   28.7300   32.0580 C   0  0  0  0  0  0  0  0  0  0  0  0
   37.9150   27.5080   31.8130 S   0  0  0  0  0  0  0  0  0  0  0  0
   36.0530   29.5070   30.9900 C   0  0  0  0  0  0  0  0  0  0  0  0
   36.6500   29.5370   29.8980 O   0  0  0  0  0  0  0  0  0  0  0  0
   34.8650   30.2910   31.1040 N   0  0  0  0  0  0  0  0  0  0  0  0
   35.2120   29.4130   34.0610 C   0  0  0  0  0  0  0  0  0  0  0  0
   35.3050   30.3070   34.9210 O   0  0  0  0  0  0  0  0  0  0  0  0
   33.8550   29.3380   33.8550 O   0  0  0  0  0  0  0  0  0  0  0  0
   37.4430   25.4566   35.7530 H   0  0  0  0  0  0  0  0  0  0  0  0
   40.3403   26.3648   32.6348 H   0  0  0  0  0  0  0  0  0  0  0  0
   42.9812   23.8089   34.3309 H   0  0  0  0  0  0  0  0  0  0  0  0
   41.0681   20.4623   38.7438 H   0  0  0  0  0  0  0  0  0  0  0  0
   42.7392   19.9614   38.3706 H   0  0  0  0  0  0  0  0  0  0  0  0
   36.7643   27.6032   35.2221 H   0  0  0  0  0  0  0  0  0  0  0  0
   34.5372   30.8488   30.3026 H   0  0  0  0  0  0  0  0  0  0  0  0
   34.3359   30.2987   31.9877 H   0  0  0  0  0  0  0  0  0  0  0  0
   33.2442   29.9320   34.3592 H   0  0  0  0  0  0  0  0  0  0  0  0
  1  6  2  0
  2  1  1  0
  3  2  2  0
  3  4  1  0
  4  5  2  0
  5  7  1  0
  5  6  1  0
  7 11  1  0
  8  7  2  0
  8  9  1  0
  9 10  1  0
 10 12  1  0
 11 10  2  0
 13  2  1  0
 13 14  2  0
 15 21  1  0
 15 14  1  0
 16 15  2  0
 17 16  1  0
 17 13  1  0
 18 20  1  0
 18 16  1  0
 19 18  2  0
 21 22  2  0
 23 21  1  0
  1 24  1  0
  3 25  1  0
  8 26  1  0
 12 27  1  0
 12 28  1  0
 14 29  1  0
 20 30  1  0
 20 31  1  0
 23 32  1  0
M  ISO  5  24  14  25  14  26  14  29  14  32   3
M  END
>  <minimizedAffinity>  (1) 
-4.96352243

>  <minimizedRMSD>  (1) 
2.62049842

$$$$
