
     RDKit          3D

 42 44  0  0  0  0  0  0  0  0999 V2000
   37.0440   26.5970   35.1860 C   0  0  0  0  0  0  0  0  0  0  0  0
   37.3010   27.2470   33.9690 C   0  0  0  0  0  0  0  0  0  0  0  0
   38.3360   26.8040   33.1520 C   0  0  0  0  0  0  0  0  0  0  0  0
   39.0450   25.7330   33.6170 N   0  0  0  0  0  0  0  0  0  0  0  0
   38.7760   25.1180   34.8030 C   0  0  0  0  0  0  0  0  0  0  0  0
   37.7770   25.5700   35.5600 N   0  0  0  0  0  0  0  0  0  0  0  0
   39.6080   23.9790   35.1850 C   0  0  0  0  0  0  0  0  0  0  0  0
   40.3820   23.4530   34.1930 C   0  0  0  0  0  0  0  0  0  0  0  0
   41.2640   22.0370   35.0600 S   0  0  0  0  0  0  0  0  0  0  0  0
   40.3390   22.4840   36.6870 C   0  0  0  0  0  0  0  0  0  0  0  0
   39.7530   23.3420   36.3130 N   0  0  0  0  0  0  0  0  0  0  0  0
   40.5250   21.7610   37.8820 N   0  0  0  0  0  0  0  0  0  0  0  0
   36.5570   28.3900   33.4550 C   0  0  0  0  0  0  0  0  0  0  0  0
   35.7930   29.2330   34.2700 C   0  0  0  0  0  0  0  0  0  0  0  0
   35.1530   30.2510   33.6370 C   0  0  0  0  0  0  0  0  0  0  0  0
   35.2980   30.3810   32.2820 C   0  0  0  0  0  0  0  0  0  0  0  0
   36.4280   28.9630   31.8020 S   0  0  0  0  0  0  0  0  0  0  0  0
   34.8240   31.2660   31.2720 C   0  0  0  0  0  0  0  0  0  0  0  0
   35.5420   32.1240   30.7810 O   0  0  0  0  0  0  0  0  0  0  0  0
   33.4560   31.1580   30.8020 N   0  0  0  0  0  0  0  0  0  0  0  0
   34.1000   31.4740   34.3990 S   0  0  0  0  0  0  0  0  0  0  0  0
   34.9270   32.5790   35.5190 C   0  0  0  0  0  0  0  0  0  0  0  0
   36.4140   32.6960   35.3320 C   0  0  0  0  0  0  0  0  0  0  0  0
   34.7220   32.0100   36.9360 C   0  0  0  0  0  0  0  0  0  0  0  0
   34.1990   33.9050   35.5030 C   0  0  0  0  0  0  0  0  0  0  0  0
   36.2251   26.9480   35.8311 H   0  0  0  0  0  0  0  0  0  0  0  0
   38.5690   27.2862   32.1912 H   0  0  0  0  0  0  0  0  0  0  0  0
   40.4688   23.7769   33.1454 H   0  0  0  0  0  0  0  0  0  0  0  0
   40.0112   22.0313   38.7328 H   0  0  0  0  0  0  0  0  0  0  0  0
   41.1748   20.9621   37.9048 H   0  0  0  0  0  0  0  0  0  0  0  0
   35.7153   29.0808   35.3567 H   0  0  0  0  0  0  0  0  0  0  0  0
   33.1105   31.7968   30.0716 H   0  0  0  0  0  0  0  0  0  0  0  0
   32.8301   30.4426   31.1987 H   0  0  0  0  0  0  0  0  0  0  0  0
   36.9053   32.7347   36.3154 H   0  0  0  0  0  0  0  0  0  0  0  0
   36.7828   31.8241   34.7719 H   0  0  0  0  0  0  0  0  0  0  0  0
   36.6419   33.6149   34.7719 H   0  0  0  0  0  0  0  0  0  0  0  0
   34.9965   32.7720   37.6803 H   0  0  0  0  0  0  0  0  0  0  0  0
   33.6666   31.7303   37.0697 H   0  0  0  0  0  0  0  0  0  0  0  0
   35.3565   31.1215   37.0697 H   0  0  0  0  0  0  0  0  0  0  0  0
   34.0173   34.2360   36.5362 H   0  0  0  0  0  0  0  0  0  0  0  0
   34.8125   34.6538   34.9806 H   0  0  0  0  0  0  0  0  0  0  0  0
   33.2379   33.7893   34.9806 H   0  0  0  0  0  0  0  0  0  0  0  0
  1  6  2  0
  2  1  1  0
  3  4  1  0
  3  2  2  0
  4  5  2  0
  5  7  1  0
  5  6  1  0
  7 11  1  0
  8  9  1  0
  8  7  2  0
  9 10  1  0
 10 12  1  0
 11 10  2  0
 13  2  1  0
 13 14  2  0
 15 14  1  0
 15 21  1  0
 16 15  2  0
 17 16  1  0
 17 13  1  0
 18 16  1  0
 19 18  2  0
 20 18  1  0
 21 22  1  0
 22 24  1  0
 23 22  1  0
 25 22  1  0
  1 26  1  0
  3 27  1  0
  8 28  1  0
 12 29  1  0
 12 30  1  0
 14 31  1  0
 20 32  1  0
 20 33  1  0
 23 34  1  0
 23 35  1  0
 23 36  1  0
 24 37  1  0
 24 38  1  0
 24 39  1  0
 25 40  1  0
 25 41  1  0
 25 42  1  0
M  ISO  8  26  14  27  14  28  14  31  14  34   8  35   8  36   8  37   8
M  ISO  5  38   8  39   8  40   8  41   8  42   8
M  END
>  <minimizedAffinity>  (1) 
-5.37396431

>  <minimizedRMSD>  (1) 
2.27937698

$$$$
