
     RDKit          3D

 38 41  0  0  0  0  0  0  0  0999 V2000
   37.4000   27.4290   33.6550 C   0  0  0  0  0  0  0  0  0  0  0  0
   36.5070   28.1490   34.4660 C   0  0  0  0  0  0  0  0  0  0  0  0
   35.7520   29.0760   33.8320 C   0  0  0  0  0  0  0  0  0  0  0  0
   35.9060   29.2440   32.4820 C   0  0  0  0  0  0  0  0  0  0  0  0
   37.2290   28.0020   32.0120 S   0  0  0  0  0  0  0  0  0  0  0  0
   37.9530   25.0530   34.3280 C   0  0  0  0  0  0  0  0  0  0  0  0
   38.2920   26.3880   34.1800 C   0  0  0  0  0  0  0  0  0  0  0  0
   39.5640   26.8460   34.5400 C   0  0  0  0  0  0  0  0  0  0  0  0
   40.3860   25.8780   35.0260 N   0  0  0  0  0  0  0  0  0  0  0  0
   40.0510   24.5750   35.1680 C   0  0  0  0  0  0  0  0  0  0  0  0
   38.8310   24.1930   34.8120 N   0  0  0  0  0  0  0  0  0  0  0  0
   41.0910   23.6950   35.7120 C   0  0  0  0  0  0  0  0  0  0  0  0
   42.3590   23.9090   35.3300 C   0  0  0  0  0  0  0  0  0  0  0  0
   43.3060   22.5730   36.2600 S   0  0  0  0  0  0  0  0  0  0  0  0
   41.6620   21.9580   37.0290 C   0  0  0  0  0  0  0  0  0  0  0  0
   40.9900   22.6870   36.5470 N   0  0  0  0  0  0  0  0  0  0  0  0
   41.6140   20.8660   37.9230 N   0  0  0  0  0  0  0  0  0  0  0  0
   35.3440   30.0680   31.4550 C   0  0  0  0  0  0  0  0  0  0  0  0
   35.9950   30.4440   30.4980 O   0  0  0  0  0  0  0  0  0  0  0  0
   33.9420   30.4730   31.5610 N   0  0  0  0  0  0  0  0  0  0  0  0
   34.5270   30.1580   34.5570 S   0  0  0  0  0  0  0  0  0  0  0  0
   35.1750   31.8190   34.6560 C   0  0  0  0  0  0  0  0  0  0  0  0
   36.1390   32.1150   35.5940 C   0  0  0  0  0  0  0  0  0  0  0  0
   36.5790   33.4190   35.5980 C   0  0  0  0  0  0  0  0  0  0  0  0
   36.1320   34.3600   34.7710 N   0  0  0  0  0  0  0  0  0  0  0  0
   35.1880   34.0320   33.8660 C   0  0  0  0  0  0  0  0  0  0  0  0
   34.7130   32.7580   33.8140 N   0  0  0  0  0  0  0  0  0  0  0  0
   36.4265   27.9705   35.5484 H   0  0  0  0  0  0  0  0  0  0  0  0
   36.9487   24.7078   34.0413 H   0  0  0  0  0  0  0  0  0  0  0  0
   39.8721   27.8971   34.4388 H   0  0  0  0  0  0  0  0  0  0  0  0
   42.7490   24.6750   34.6436 H   0  0  0  0  0  0  0  0  0  0  0  0
   40.7122   20.5625   38.3173 H   0  0  0  0  0  0  0  0  0  0  0  0
   42.4808   20.3730   38.1808 H   0  0  0  0  0  0  0  0  0  0  0  0
   33.5206   31.0657   30.8316 H   0  0  0  0  0  0  0  0  0  0  0  0
   33.3765   30.1654   32.3650 H   0  0  0  0  0  0  0  0  0  0  0  0
   36.5305   31.3606   36.2923 H   0  0  0  0  0  0  0  0  0  0  0  0
   37.3489   33.7008   36.3314 H   0  0  0  0  0  0  0  0  0  0  0  0
   34.8026   34.7927   33.1711 H   0  0  0  0  0  0  0  0  0  0  0  0
  1  7  1  0
  1  2  2  0
  3  2  1  0
  3 21  1  0
  4  3  2  0
  5  4  1  0
  5  1  1  0
  6 11  2  0
  7  6  1  0
  7  8  2  0
  8  9  1  0
  9 10  2  0
 10 12  1  0
 11 10  1  0
 12 16  1  0
 13 12  2  0
 13 14  1  0
 14 15  1  0
 15 17  1  0
 16 15  2  0
 18 20  1  0
 18  4  1  0
 19 18  2  0
 21 22  1  0
 22 23  2  0
 23 24  1  0
 25 24  2  0
 26 25  1  0
 27 26  2  0
 27 22  1  0
  2 28  1  0
  6 29  1  0
  8 30  1  0
 13 31  1  0
 17 32  1  0
 17 33  1  0
 20 34  1  0
 20 35  1  0
 23 36  1  0
 24 37  1  0
 26 38  1  0
M  ISO  7  28  14  29  14  30  14  31  14  36  14  37  14  38  14
M  END
>  <minimizedAffinity>  (1) 
-5.31943512

>  <minimizedRMSD>  (1) 
1.41169059

$$$$
