
     RDKit          3D

 33 35  0  0  0  0  0  0  0  0999 V2000
   37.4020   25.7730   35.4000 C   0  0  0  0  0  0  0  0  0  0  0  0
   37.6950   26.7820   34.4830 C   0  0  0  0  0  0  0  0  0  0  0  0
   38.9790   26.8950   33.9350 C   0  0  0  0  0  0  0  0  0  0  0  0
   39.8640   25.9670   34.3660 N   0  0  0  0  0  0  0  0  0  0  0  0
   39.5820   24.9860   35.2570 C   0  0  0  0  0  0  0  0  0  0  0  0
   38.3340   24.9110   35.7610 N   0  0  0  0  0  0  0  0  0  0  0  0
   40.6480   24.0640   35.6340 C   0  0  0  0  0  0  0  0  0  0  0  0
   41.8570   24.3220   35.1290 C   0  0  0  0  0  0  0  0  0  0  0  0
   42.9560   22.9780   35.8140 S   0  0  0  0  0  0  0  0  0  0  0  0
   41.4140   22.2620   36.7390 C   0  0  0  0  0  0  0  0  0  0  0  0
   40.6900   23.0220   36.3780 N   0  0  0  0  0  0  0  0  0  0  0  0
   41.4540   21.1200   37.5670 N   0  0  0  0  0  0  0  0  0  0  0  0
   36.7440   27.7950   34.0170 C   0  0  0  0  0  0  0  0  0  0  0  0
   36.2660   28.8280   34.8250 C   0  0  0  0  0  0  0  0  0  0  0  0
   35.3920   29.6880   34.2520 C   0  0  0  0  0  0  0  0  0  0  0  0
   35.0420   29.4860   32.9450 C   0  0  0  0  0  0  0  0  0  0  0  0
   36.0090   27.9660   32.4450 S   0  0  0  0  0  0  0  0  0  0  0  0
   34.1940   30.1130   31.9760 C   0  0  0  0  0  0  0  0  0  0  0  0
   34.6520   30.7690   31.0450 O   0  0  0  0  0  0  0  0  0  0  0  0
   32.7600   29.9790   32.0840 N   0  0  0  0  0  0  0  0  0  0  0  0
   34.6000   31.1000   35.0010 S   0  0  0  0  0  0  0  0  0  0  0  0
   35.7750   31.9010   36.1010 C   0  0  0  0  0  0  0  0  0  0  0  0
   36.3900   25.6952   35.8241 H   0  0  0  0  0  0  0  0  0  0  0  0
   39.2471   27.6778   33.2102 H   0  0  0  0  0  0  0  0  0  0  0  0
   42.1423   25.1451   34.4574 H   0  0  0  0  0  0  0  0  0  0  0  0
   40.5958   20.7902   38.0314 H   0  0  0  0  0  0  0  0  0  0  0  0
   42.3414   20.6162   37.7070 H   0  0  0  0  0  0  0  0  0  0  0  0
   36.5831   28.9374   35.8726 H   0  0  0  0  0  0  0  0  0  0  0  0
   32.1470   30.4285   31.3890 H   0  0  0  0  0  0  0  0  0  0  0  0
   32.3504   29.4339   32.8560 H   0  0  0  0  0  0  0  0  0  0  0  0
   35.4903   31.7069   37.1457 H   0  0  0  0  0  0  0  0  0  0  0  0
   36.7827   31.5010   35.9152 H   0  0  0  0  0  0  0  0  0  0  0  0
   35.7709   32.9852   35.9152 H   0  0  0  0  0  0  0  0  0  0  0  0
  1  6  2  0
  2  1  1  0
  3  4  1  0
  3  2  2  0
  4  5  2  0
  5  7  1  0
  5  6  1  0
  7 11  1  0
  8  7  2  0
  8  9  1  0
  9 10  1  0
 10 12  1  0
 11 10  2  0
 13  2  1  0
 13 14  2  0
 15 14  1  0
 15 21  1  0
 16 15  2  0
 17 16  1  0
 17 13  1  0
 18 20  1  0
 18 16  1  0
 19 18  2  0
 21 22  1  0
  1 23  1  0
  3 24  1  0
  8 25  1  0
 12 26  1  0
 12 27  1  0
 14 28  1  0
 20 29  1  0
 20 30  1  0
 22 31  1  0
 22 32  1  0
 22 33  1  0
M  ISO  7  23  14  24  14  25  14  28  14  31   8  32   8  33   8
M  END
>  <minimizedAffinity>  (1) 
-4.56733894

>  <minimizedRMSD>  (1) 
1.32220352

$$$$
