
     RDKit          3D

 32 36  0  0  0  0  0  0  0  0999 V2000
   37.8710   25.0730   34.4730 C   0  0  0  0  0  0  0  0  0  0  0  0
   38.3360   25.3770   35.7480 C   0  0  0  0  0  0  0  0  0  0  0  0
   38.3260   26.6960   36.1550 C   0  0  0  0  0  0  0  0  0  0  0  0
   37.8660   27.6500   35.3060 N   0  0  0  0  0  0  0  0  0  0  0  0
   37.4140   27.3200   34.0540 C   0  0  0  0  0  0  0  0  0  0  0  0
   37.4180   26.0350   33.6430 N   0  0  0  0  0  0  0  0  0  0  0  0
   37.8430   23.7460   33.9680 N   0  0  0  0  0  0  0  0  0  0  0  0
   37.6610   22.5220   34.5430 C   0  0  0  0  0  0  0  0  0  0  0  0
   37.7330   21.5710   33.5780 N   0  0  0  0  0  0  0  0  0  0  0  0
   37.9600   22.1810   32.3810 C   0  0  0  0  0  0  0  0  0  0  0  0
   38.1050   21.6330   31.1260 C   0  0  0  0  0  0  0  0  0  0  0  0
   38.3230   22.5050   30.1280 N   0  0  0  0  0  0  0  0  0  0  0  0
   38.3990   23.8410   30.3180 C   0  0  0  0  0  0  0  0  0  0  0  0
   38.2480   24.3170   31.5680 N   0  0  0  0  0  0  0  0  0  0  0  0
   38.0260   23.5340   32.6400 C   0  0  0  0  0  0  0  0  0  0  0  0
   38.7990   24.3620   36.5870 N   0  0  0  0  0  0  0  0  0  0  0  0
   38.1790   23.8920   37.6950 C   0  0  0  0  0  0  0  0  0  0  0  0
   38.8760   22.9140   38.2870 N   0  0  0  0  0  0  0  0  0  0  0  0
   39.9860   22.7400   37.5430 C   0  0  0  0  0  0  0  0  0  0  0  0
   41.0720   21.9060   37.6250 C   0  0  0  0  0  0  0  0  0  0  0  0
   42.0910   21.9070   36.7450 N   0  0  0  0  0  0  0  0  0  0  0  0
   41.9910   22.8040   35.7360 C   0  0  0  0  0  0  0  0  0  0  0  0
   40.9420   23.6120   35.6540 N   0  0  0  0  0  0  0  0  0  0  0  0
   39.9220   23.6470   36.4900 C   0  0  0  0  0  0  0  0  0  0  0  0
   38.6871   26.9711   37.1570 H   0  0  0  0  0  0  0  0  0  0  0  0
   37.0458   28.1080   33.3806 H   0  0  0  0  0  0  0  0  0  0  0  0
   37.4849   22.3368   35.6129 H   0  0  0  0  0  0  0  0  0  0  0  0
   38.0460   20.5485   30.9517 H   0  0  0  0  0  0  0  0  0  0  0  0
   38.5796   24.5217   29.4730 H   0  0  0  0  0  0  0  0  0  0  0  0
   37.2147   24.2697   38.0658 H   0  0  0  0  0  0  0  0  0  0  0  0
   41.1129   21.1925   38.4612 H   0  0  0  0  0  0  0  0  0  0  0  0
   42.7859   22.8634   34.9780 H   0  0  0  0  0  0  0  0  0  0  0  0
  1  2  1  0
  2  3  2  0
  2 16  1  0
  4  3  1  0
  5  4  2  0
  6  5  1  0
  6  1  2  0
  7  1  1  0
  7  8  1  0
  9  8  2  0
 10 15  2  0
 10  9  1  0
 11 10  1  0
 12 13  1  0
 12 11  2  0
 13 14  2  0
 14 15  1  0
 15  7  1  0
 16 17  1  0
 17 18  2  0
 19 20  2  0
 19 18  1  0
 21 20  1  0
 22 21  2  0
 23 22  1  0
 23 24  2  0
 24 16  1  0
 24 19  1  0
  3 25  1  0
  5 26  1  0
  8 27  1  0
 11 28  1  0
 13 29  1  0
 17 30  1  0
 20 31  1  0
 22 32  1  0
M  ISO  8  25  14  26  14  27  14  28  14  29  14  30  14  31  14  32  14
M  END
>  <minimizedAffinity>  (1) 
-5.50320196

>  <minimizedRMSD>  (1) 
0.369738519

$$$$
