
     RDKit          3D

 35 38  0  0  0  0  0  0  0  0999 V2000
   37.5430   25.1900   33.7440 C   0  0  0  0  0  0  0  0  0  0  0  0
   37.9050   25.5430   35.0500 C   0  0  0  0  0  0  0  0  0  0  0  0
   37.8780   26.8770   35.4130 C   0  0  0  0  0  0  0  0  0  0  0  0
   37.5010   27.8000   34.4950 N   0  0  0  0  0  0  0  0  0  0  0  0
   37.1500   27.4400   33.2220 C   0  0  0  0  0  0  0  0  0  0  0  0
   37.1750   26.1560   32.8690 N   0  0  0  0  0  0  0  0  0  0  0  0
   37.5430   23.8410   33.2860 N   0  0  0  0  0  0  0  0  0  0  0  0
   37.9320   22.7680   34.1950 C   0  0  0  0  0  0  0  0  0  0  0  0
   37.0500   21.5420   33.9470 C   0  0  0  0  0  0  0  0  0  0  0  0
   37.3290   21.1510   32.5800 N   0  0  0  0  0  0  0  0  0  0  0  0
   36.7340   22.1250   31.7110 C   0  0  0  0  0  0  0  0  0  0  0  0
   37.1570   23.5310   31.9180 C   0  0  0  0  0  0  0  0  0  0  0  0
   38.2860   24.5480   35.9570 N   0  0  0  0  0  0  0  0  0  0  0  0
   37.4900   23.9490   36.8640 C   0  0  0  0  0  0  0  0  0  0  0  0
   38.1610   23.0310   37.5890 N   0  0  0  0  0  0  0  0  0  0  0  0
   39.4210   23.0430   37.1320 C   0  0  0  0  0  0  0  0  0  0  0  0
   40.5720   22.3490   37.4530 C   0  0  0  0  0  0  0  0  0  0  0  0
   41.7570   22.5310   36.8460 N   0  0  0  0  0  0  0  0  0  0  0  0
   41.7740   23.4650   35.8630 C   0  0  0  0  0  0  0  0  0  0  0  0
   40.6630   24.1300   35.5590 N   0  0  0  0  0  0  0  0  0  0  0  0
   39.4830   23.9870   36.1230 C   0  0  0  0  0  0  0  0  0  0  0  0
   38.1582   27.1844   36.4313 H   0  0  0  0  0  0  0  0  0  0  0  0
   36.8487   28.2075   32.4939 H   0  0  0  0  0  0  0  0  0  0  0  0
   38.9852   22.5031   34.0197 H   0  0  0  0  0  0  0  0  0  0  0  0
   37.8059   23.1053   35.2344 H   0  0  0  0  0  0  0  0  0  0  0  0
   37.3111   20.7306   34.6424 H   0  0  0  0  0  0  0  0  0  0  0  0
   35.9836   21.7608   34.1052 H   0  0  0  0  0  0  0  0  0  0  0  0
   38.3469   21.1203   32.4259 H   0  0  0  0  0  0  0  0  0  0  0  0
   35.6439   22.0783   31.8507 H   0  0  0  0  0  0  0  0  0  0  0  0
   37.0719   21.8616   30.6979 H   0  0  0  0  0  0  0  0  0  0  0  0
   38.0170   23.7329   31.2625 H   0  0  0  0  0  0  0  0  0  0  0  0
   36.2864   24.1614   31.6840 H   0  0  0  0  0  0  0  0  0  0  0  0
   36.4229   24.1805   36.9970 H   0  0  0  0  0  0  0  0  0  0  0  0
   40.5146   21.5999   38.2565 H   0  0  0  0  0  0  0  0  0  0  0  0
   42.7063   23.6726   35.3173 H   0  0  0  0  0  0  0  0  0  0  0  0
  1  2  1  0
  2  3  2  0
  2 13  1  0
  4  3  1  0
  5  4  2  0
  6  5  1  0
  6  1  2  0
  7  1  1  0
  7  8  1  0
  9  8  1  0
 10  9  1  0
 11 12  1  0
 11 10  1  0
 12  7  1  0
 13 21  1  0
 13 14  1  0
 14 15  2  0
 16 17  2  0
 16 15  1  0
 18 17  1  0
 19 18  2  0
 20 19  1  0
 20 21  2  0
 21 16  1  0
  3 22  1  0
  5 23  1  0
  8 24  1  0
  8 25  1  0
  9 26  1  0
  9 27  1  0
 10 28  1  0
 11 29  1  0
 11 30  1  0
 12 31  1  0
 12 32  1  0
 14 33  1  0
 17 34  1  0
 19 35  1  0
M  ISO  8  22  14  23  14  24  13  25  13  26  13  27  13  28   5  29  13
M  ISO  6  30  13  31  13  32  13  33  14  34  14  35  14
M  END
>  <minimizedAffinity>  (1) 
-5.15638447

>  <minimizedRMSD>  (1) 
0.805674076

$$$$
