
     RDKit          3D

 33 36  0  0  0  0  0  0  0  0999 V2000
   37.5260   25.1610   33.7930 C   0  0  0  0  0  0  0  0  0  0  0  0
   37.8960   25.5220   35.0820 C   0  0  0  0  0  0  0  0  0  0  0  0
   37.8570   26.8640   35.4120 C   0  0  0  0  0  0  0  0  0  0  0  0
   37.4690   27.7710   34.4870 N   0  0  0  0  0  0  0  0  0  0  0  0
   37.1120   27.3840   33.2300 C   0  0  0  0  0  0  0  0  0  0  0  0
   37.1400   26.0830   32.8830 N   0  0  0  0  0  0  0  0  0  0  0  0
   37.5270   23.8120   33.3400 N   0  0  0  0  0  0  0  0  0  0  0  0
   37.8690   22.5690   34.0040 C   0  0  0  0  0  0  0  0  0  0  0  0
   37.9550   21.5730   32.8730 C   0  0  0  0  0  0  0  0  0  0  0  0
   36.8140   22.0280   31.9830 C   0  0  0  0  0  0  0  0  0  0  0  0
   37.1180   23.5320   31.9540 C   0  0  0  0  0  0  0  0  0  0  0  0
   38.2870   24.5540   35.9960 N   0  0  0  0  0  0  0  0  0  0  0  0
   37.5030   23.9840   36.9380 C   0  0  0  0  0  0  0  0  0  0  0  0
   38.1750   23.0750   37.6760 N   0  0  0  0  0  0  0  0  0  0  0  0
   39.4190   23.0600   37.1970 C   0  0  0  0  0  0  0  0  0  0  0  0
   40.5630   22.3620   37.5120 C   0  0  0  0  0  0  0  0  0  0  0  0
   41.7420   22.5120   36.8770 N   0  0  0  0  0  0  0  0  0  0  0  0
   41.7480   23.4200   35.8720 C   0  0  0  0  0  0  0  0  0  0  0  0
   40.6480   24.0950   35.5650 N   0  0  0  0  0  0  0  0  0  0  0  0
   39.4700   23.9750   36.1660 C   0  0  0  0  0  0  0  0  0  0  0  0
   38.1404   27.1926   36.4228 H   0  0  0  0  0  0  0  0  0  0  0  0
   36.7989   28.1392   32.4940 H   0  0  0  0  0  0  0  0  0  0  0  0
   38.8337   22.6550   34.5255 H   0  0  0  0  0  0  0  0  0  0  0  0
   37.1370   22.2801   34.7726 H   0  0  0  0  0  0  0  0  0  0  0  0
   38.9217   21.6386   32.3523 H   0  0  0  0  0  0  0  0  0  0  0  0
   37.8832   20.5231   33.1932 H   0  0  0  0  0  0  0  0  0  0  0  0
   36.8671   21.5770   30.9811 H   0  0  0  0  0  0  0  0  0  0  0  0
   35.8061   21.7555   32.3292 H   0  0  0  0  0  0  0  0  0  0  0  0
   37.9310   23.7578   31.2483 H   0  0  0  0  0  0  0  0  0  0  0  0
   36.2645   24.1412   31.6216 H   0  0  0  0  0  0  0  0  0  0  0  0
   36.4415   24.2318   37.0860 H   0  0  0  0  0  0  0  0  0  0  0  0
   40.5113   21.6346   38.3355 H   0  0  0  0  0  0  0  0  0  0  0  0
   42.6735   23.5994   35.3052 H   0  0  0  0  0  0  0  0  0  0  0  0
  1  2  1  0
  2  3  2  0
  2 12  1  0
  4  3  1  0
  5  4  2  0
  6  5  1  0
  6  1  2  0
  7  1  1  0
  7  8  1  0
  9  8  1  0
 10  9  1  0
 11 10  1  0
 11  7  1  0
 12 20  1  0
 12 13  1  0
 13 14  2  0
 15 16  2  0
 15 14  1  0
 17 16  1  0
 18 17  2  0
 19 18  1  0
 19 20  2  0
 20 15  1  0
  3 21  1  0
  5 22  1  0
  8 23  1  0
  8 24  1  0
  9 25  1  0
  9 26  1  0
 10 27  1  0
 10 28  1  0
 11 29  1  0
 11 30  1  0
 13 31  1  0
 16 32  1  0
 18 33  1  0
M  ISO  8  21  14  22  14  23  13  24  13  25  13  26  13  27  13  28  13
M  ISO  5  29  13  30  13  31  14  32  14  33  14
M  END
>  <minimizedAffinity>  (1) 
-4.98758268

>  <minimizedRMSD>  (1) 
0.758279383

$$$$
