
     RDKit          3D

 28 31  0  0  0  0  0  0  0  0999 V2000
   37.7170   25.0350   33.6820 C   0  0  0  0  0  0  0  0  0  0  0  0
   37.8580   25.4300   35.0060 C   0  0  0  0  0  0  0  0  0  0  0  0
   37.6060   26.7660   35.3510 C   0  0  0  0  0  0  0  0  0  0  0  0
   37.2340   27.6360   34.3760 N   0  0  0  0  0  0  0  0  0  0  0  0
   37.1060   27.2280   33.0940 C   0  0  0  0  0  0  0  0  0  0  0  0
   37.3410   25.9660   32.7620 N   0  0  0  0  0  0  0  0  0  0  0  0
   38.2590   24.5050   35.9820 N   0  0  0  0  0  0  0  0  0  0  0  0
   37.4920   23.9760   36.9400 C   0  0  0  0  0  0  0  0  0  0  0  0
   38.1730   23.1060   37.7080 N   0  0  0  0  0  0  0  0  0  0  0  0
   39.4210   23.0770   37.2250 C   0  0  0  0  0  0  0  0  0  0  0  0
   40.5810   22.4070   37.5500 C   0  0  0  0  0  0  0  0  0  0  0  0
   41.7480   22.5320   36.9150 N   0  0  0  0  0  0  0  0  0  0  0  0
   41.7520   23.4030   35.8660 C   0  0  0  0  0  0  0  0  0  0  0  0
   40.6460   24.0570   35.5370 N   0  0  0  0  0  0  0  0  0  0  0  0
   39.4650   23.9540   36.1490 C   0  0  0  0  0  0  0  0  0  0  0  0
   37.9150   23.6690   33.2210 C   0  0  0  0  0  0  0  0  0  0  0  0
   38.9630   23.2530   32.4250 C   0  0  0  0  0  0  0  0  0  0  0  0
   38.9040   21.9090   32.1410 C   0  0  0  0  0  0  0  0  0  0  0  0
   37.8020   21.5060   32.7750 N   0  0  0  0  0  0  0  0  0  0  0  0
   37.2440   22.5240   33.3900 N   0  0  0  0  0  0  0  0  0  0  0  0
   37.7078   27.1035   36.3930 H   0  0  0  0  0  0  0  0  0  0  0  0
   36.8044   27.9487   32.3197 H   0  0  0  0  0  0  0  0  0  0  0  0
   36.4297   24.2226   37.0837 H   0  0  0  0  0  0  0  0  0  0  0  0
   40.5415   21.7127   38.4023 H   0  0  0  0  0  0  0  0  0  0  0  0
   42.6756   23.5638   35.2906 H   0  0  0  0  0  0  0  0  0  0  0  0
   39.7562   23.9215   32.0590 H   0  0  0  0  0  0  0  0  0  0  0  0
   39.5996   21.3094   31.5355 H   0  0  0  0  0  0  0  0  0  0  0  0
   37.4422   20.5409   32.7815 H   0  0  0  0  0  0  0  0  0  0  0  0
  1  2  1  0
  2  3  2  0
  2  7  1  0
  4  3  1  0
  5  4  2  0
  6  5  1  0
  6  1  2  0
  7 15  1  0
  7  8  1  0
  8  9  2  0
 10 11  2  0
 10  9  1  0
 12 11  1  0
 13 12  2  0
 14 13  1  0
 14 15  2  0
 15 10  1  0
 16 20  2  0
 16  1  1  0
 17 16  1  0
 18 17  2  0
 18 19  1  0
 19 20  1  0
  3 21  1  0
  5 22  1  0
  8 23  1  0
 11 24  1  0
 13 25  1  0
 17 26  1  0
 18 27  1  0
 19 28  1  0
M  ISO  8  21  14  22  14  23  14  24  14  25  14  26  14  27  14  28   9
M  END
>  <minimizedAffinity>  (1) 
-4.60682678

>  <minimizedRMSD>  (1) 
1.00933981

$$$$
