
     RDKit          3D

 22 24  0  0  0  0  0  0  0  0999 V2000
   38.7040   24.4830   36.5900 N   0  0  0  0  0  0  0  0  0  0  0  0
   38.1820   24.1420   37.7710 C   0  0  0  0  0  0  0  0  0  0  0  0
   38.8580   23.1300   38.3400 N   0  0  0  0  0  0  0  0  0  0  0  0
   39.8560   22.8130   37.4830 C   0  0  0  0  0  0  0  0  0  0  0  0
   40.8550   21.8810   37.5110 C   0  0  0  0  0  0  0  0  0  0  0  0
   41.7640   21.7380   36.5190 N   0  0  0  0  0  0  0  0  0  0  0  0
   41.6310   22.5900   35.4650 C   0  0  0  0  0  0  0  0  0  0  0  0
   40.6500   23.4930   35.4550 N   0  0  0  0  0  0  0  0  0  0  0  0
   39.7460   23.6590   36.4070 C   0  0  0  0  0  0  0  0  0  0  0  0
   37.7990   25.1820   34.4430 C   0  0  0  0  0  0  0  0  0  0  0  0
   38.2410   25.4970   35.7360 C   0  0  0  0  0  0  0  0  0  0  0  0
   38.2100   26.8240   36.1460 C   0  0  0  0  0  0  0  0  0  0  0  0
   37.7520   27.7600   35.2750 N   0  0  0  0  0  0  0  0  0  0  0  0
   37.3310   27.4350   34.0330 C   0  0  0  0  0  0  0  0  0  0  0  0
   37.3540   26.1510   33.6210 N   0  0  0  0  0  0  0  0  0  0  0  0
   37.7990   23.8850   33.9610 O   0  0  0  0  0  0  0  0  0  0  0  0
   37.3057   24.6300   38.2226 H   0  0  0  0  0  0  0  0  0  0  0  0
   40.9236   21.2141   38.3831 H   0  0  0  0  0  0  0  0  0  0  0  0
   42.3338   22.5332   34.6207 H   0  0  0  0  0  0  0  0  0  0  0  0
   38.5486   27.1100   37.1528 H   0  0  0  0  0  0  0  0  0  0  0  0
   36.9678   28.2212   33.3548 H   0  0  0  0  0  0  0  0  0  0  0  0
   37.4799   23.6982   33.0426 H   0  0  0  0  0  0  0  0  0  0  0  0
  1  2  1  0
  2  3  2  0
  4  5  2  0
  4  3  1  0
  6  5  1  0
  7  6  2  0
  8  7  1  0
  8  9  2  0
  9  1  1  0
  9  4  1  0
 10 11  2  0
 11 12  1  0
 11  1  1  0
 13 12  2  0
 14 13  1  0
 15 14  2  0
 15 10  1  0
 16 10  1  0
  2 17  1  0
  5 18  1  0
  7 19  1  0
 12 20  1  0
 14 21  1  0
 16 22  1  0
M  ISO  6  17  14  18  14  19  14  20  14  21  14  22   3
M  END
>  <minimizedAffinity>  (1) 
-4.36396265

>  <minimizedRMSD>  (1) 
0.116932109

$$$$
