
     RDKit          3D

 35 36  0  0  1  0  0  0  0  0999 V2000
   41.4560   22.5240   36.9960 C   0  0  2  0  0  0  0  0  0  0  0  0
   39.9570   22.6770   37.0530 C   0  0  0  0  0  0  0  0  0  0  0  0
   39.3360   23.2310   38.1800 C   0  0  0  0  0  0  0  0  0  0  0  0
   37.9470   23.3550   38.1730 C   0  0  0  0  0  0  0  0  0  0  0  0
   37.2620   22.9280   37.0640 N   0  0  0  0  0  0  0  0  0  0  0  0
   37.8840   22.3980   35.9930 C   0  0  0  0  0  0  0  0  0  0  0  0
   39.2290   22.2840   36.0110 N   0  0  0  0  0  0  0  0  0  0  0  0
   41.9140   23.6190   36.0660 C   0  0  0  0  0  0  0  0  0  0  0  0
   41.7660   21.1510   36.4850 C   0  0  0  0  0  0  0  0  0  0  0  0
   43.0880   20.5820   36.7890 C   0  0  0  0  0  0  0  0  0  0  0  0
   43.9380   20.7730   35.5410 C   0  0  0  0  0  0  0  0  0  0  0  0
   45.3770   20.6650   35.9150 C   0  0  0  0  0  0  0  0  0  0  0  0
   45.5960   19.3670   36.6250 C   0  0  0  0  0  0  0  0  0  0  0  0
   44.3880   18.4640   36.6580 C   0  0  0  0  0  0  0  0  0  0  0  0
   43.1450   19.1580   37.1800 C   0  0  0  0  0  0  0  0  0  0  0  0
   41.9657   22.6181   37.9663 H   0  0  0  0  0  0  0  0  0  0  0  0
   39.9280   23.5593   39.0470 H   0  0  0  0  0  0  0  0  0  0  0  0
   37.4145   23.7841   39.0346 H   0  0  0  0  0  0  0  0  0  0  0  0
   37.3059   22.0639   35.1189 H   0  0  0  0  0  0  0  0  0  0  0  0
   42.2722   24.4754   36.6562 H   0  0  0  0  0  0  0  0  0  0  0  0
   42.7305   23.2437   35.4317 H   0  0  0  0  0  0  0  0  0  0  0  0
   41.0734   23.9368   35.4317 H   0  0  0  0  0  0  0  0  0  0  0  0
   41.6664   21.1796   35.3899 H   0  0  0  0  0  0  0  0  0  0  0  0
   41.0574   20.4956   37.0126 H   0  0  0  0  0  0  0  0  0  0  0  0
   43.4427   21.1126   37.6849 H   0  0  0  0  0  0  0  0  0  0  0  0
   43.7423   21.7657   35.1094 H   0  0  0  0  0  0  0  0  0  0  0  0
   43.6874   20.0015   34.7980 H   0  0  0  0  0  0  0  0  0  0  0  0
   45.9981   20.6992   35.0077 H   0  0  0  0  0  0  0  0  0  0  0  0
   45.6553   21.5016   36.5727 H   0  0  0  0  0  0  0  0  0  0  0  0
   46.4125   18.8312   36.1187 H   0  0  0  0  0  0  0  0  0  0  0  0
   45.8306   19.6163   37.6704 H   0  0  0  0  0  0  0  0  0  0  0  0
   44.1882   18.1081   35.6365 H   0  0  0  0  0  0  0  0  0  0  0  0
   44.6151   17.6347   37.3441 H   0  0  0  0  0  0  0  0  0  0  0  0
   43.1389   19.0928   38.2780 H   0  0  0  0  0  0  0  0  0  0  0  0
   42.2709   18.6547   36.7412 H   0  0  0  0  0  0  0  0  0  0  0  0
  1  2  1  0
  2  3  2  0
  4  3  1  0
  5  4  2  0
  6  7  2  0
  6  5  1  0
  7  2  1  0
  8  1  1  0
  9 10  1  0
  9  1  1  0
 10 15  1  0
 11 12  1  0
 11 10  1  0
 12 13  1  0
 13 14  1  0
 14 15  1  0
  1 16  1  1
  3 17  1  0
  4 18  1  0
  6 19  1  0
  8 20  1  0
  8 21  1  0
  8 22  1  0
  9 23  1  0
  9 24  1  0
 10 25  1  0
 11 26  1  0
 11 27  1  0
 12 28  1  0
 12 29  1  0
 13 30  1  0
 13 31  1  0
 14 32  1  0
 14 33  1  0
 15 34  1  0
 15 35  1  0
M  ISO  8  16   8  17  14  18  14  19  14  20   8  21   8  22   8  23   8
M  ISO  8  24   8  25  13  26  13  27  13  28  13  29  13  30  13  31  13
M  ISO  4  32  13  33  13  34  13  35  13
M  END
>  <minimizedAffinity>  (1) 
-3.77307463

>  <minimizedRMSD>  (1) 
0.505195796

$$$$
