
     RDKit          3D

 30 32  0  0  0  0  0  0  0  0999 V2000
   38.2580   24.5450   35.9560 N   0  0  0  0  0  0  0  0  0  0  0  0
   37.4730   23.9740   36.9030 C   0  0  0  0  0  0  0  0  0  0  0  0
   38.1450   23.0850   37.6470 N   0  0  0  0  0  0  0  0  0  0  0  0
   39.4110   23.0730   37.1720 C   0  0  0  0  0  0  0  0  0  0  0  0
   40.5340   22.3780   37.5220 C   0  0  0  0  0  0  0  0  0  0  0  0
   41.7210   22.5310   36.8900 N   0  0  0  0  0  0  0  0  0  0  0  0
   41.7430   23.4280   35.8690 C   0  0  0  0  0  0  0  0  0  0  0  0
   40.6450   24.0940   35.5420 N   0  0  0  0  0  0  0  0  0  0  0  0
   39.4660   23.9860   36.1210 C   0  0  0  0  0  0  0  0  0  0  0  0
   37.6860   25.1520   33.7020 C   0  0  0  0  0  0  0  0  0  0  0  0
   37.8720   25.5030   35.0340 C   0  0  0  0  0  0  0  0  0  0  0  0
   37.6730   26.8320   35.4180 C   0  0  0  0  0  0  0  0  0  0  0  0
   37.3030   27.7450   34.4820 N   0  0  0  0  0  0  0  0  0  0  0  0
   37.1260   27.3690   33.1740 C   0  0  0  0  0  0  0  0  0  0  0  0
   37.3150   26.1010   32.8000 N   0  0  0  0  0  0  0  0  0  0  0  0
   37.8160   23.8050   33.1030 C   0  0  0  0  0  0  0  0  0  0  0  0
   36.6500   23.7050   32.1190 C   0  0  0  0  0  0  0  0  0  0  0  0
   39.1470   23.6600   32.3830 C   0  0  0  0  0  0  0  0  0  0  0  0
   36.4085   24.2128   37.0440 H   0  0  0  0  0  0  0  0  0  0  0  0
   40.4706   21.6621   38.3547 H   0  0  0  0  0  0  0  0  0  0  0  0
   42.6756   23.6017   35.3122 H   0  0  0  0  0  0  0  0  0  0  0  0
   37.8143   27.1354   36.4658 H   0  0  0  0  0  0  0  0  0  0  0  0
   36.8258   28.1187   32.4271 H   0  0  0  0  0  0  0  0  0  0  0  0
   37.7893   23.0080   33.8607 H   0  0  0  0  0  0  0  0  0  0  0  0
   35.7054   23.6240   32.6768 H   0  0  0  0  0  0  0  0  0  0  0  0
   36.6261   24.6044   31.4861 H   0  0  0  0  0  0  0  0  0  0  0  0
   36.7796   22.8147   31.4861 H   0  0  0  0  0  0  0  0  0  0  0  0
   39.9563   23.5718   33.1227 H   0  0  0  0  0  0  0  0  0  0  0  0
   39.1266   22.7588   31.7526 H   0  0  0  0  0  0  0  0  0  0  0  0
   39.3212   24.5445   31.7526 H   0  0  0  0  0  0  0  0  0  0  0  0
  1  9  1  0
  1  2  1  0
  2  3  2  0
  4  5  2  0
  4  3  1  0
  6  5  1  0
  7  6  2  0
  8  7  1  0
  8  9  2  0
  9  4  1  0
 10 11  2  0
 11 12  1  0
 11  1  1  0
 13 12  2  0
 14 13  1  0
 15 14  2  0
 15 10  1  0
 16 10  1  0
 17 16  1  0
 18 16  1  0
  2 19  1  0
  5 20  1  0
  7 21  1  0
 12 22  1  0
 14 23  1  0
 16 24  1  0
 17 25  1  0
 17 26  1  0
 17 27  1  0
 18 28  1  0
 18 29  1  0
 18 30  1  0
M  ISO  8  19  14  20  14  21  14  22  14  23  14  24   8  25   8  26   8
M  ISO  4  27   8  28   8  29   8  30   8
M  END
>  <minimizedAffinity>  (1) 
-4.39038086

>  <minimizedRMSD>  (1) 
1.28379583

$$$$
