
     RDKit          3D

 24 26  0  0  0  0  0  0  0  0999 V2000
   38.2510   24.5370   36.0020 N   0  0  0  0  0  0  0  0  0  0  0  0
   37.4830   23.9910   36.9620 C   0  0  0  0  0  0  0  0  0  0  0  0
   38.1570   23.1040   37.7070 N   0  0  0  0  0  0  0  0  0  0  0  0
   39.4130   23.0770   37.2060 C   0  0  0  0  0  0  0  0  0  0  0  0
   40.5580   22.3810   37.5280 C   0  0  0  0  0  0  0  0  0  0  0  0
   41.7260   22.5110   36.8830 N   0  0  0  0  0  0  0  0  0  0  0  0
   41.7260   23.3960   35.8540 C   0  0  0  0  0  0  0  0  0  0  0  0
   40.6230   24.0710   35.5380 N   0  0  0  0  0  0  0  0  0  0  0  0
   39.4530   23.9660   36.1560 C   0  0  0  0  0  0  0  0  0  0  0  0
   37.6330   25.1240   33.7370 C   0  0  0  0  0  0  0  0  0  0  0  0
   37.8600   25.4860   35.0650 C   0  0  0  0  0  0  0  0  0  0  0  0
   37.6820   26.8250   35.4160 C   0  0  0  0  0  0  0  0  0  0  0  0
   37.2990   27.7160   34.4650 N   0  0  0  0  0  0  0  0  0  0  0  0
   37.0880   27.3180   33.1800 C   0  0  0  0  0  0  0  0  0  0  0  0
   37.2520   26.0290   32.8120 N   0  0  0  0  0  0  0  0  0  0  0  0
   37.7960   23.7220   33.2640 C   0  0  0  0  0  0  0  0  0  0  0  0
   36.4237   24.2435   37.1176 H   0  0  0  0  0  0  0  0  0  0  0  0
   40.5105   21.6731   38.3686 H   0  0  0  0  0  0  0  0  0  0  0  0
   42.6473   23.5572   35.2750 H   0  0  0  0  0  0  0  0  0  0  0  0
   37.8501   27.1553   36.4517 H   0  0  0  0  0  0  0  0  0  0  0  0
   36.7786   28.0593   32.4286 H   0  0  0  0  0  0  0  0  0  0  0  0
   37.8742   23.0493   34.1308 H   0  0  0  0  0  0  0  0  0  0  0  0
   36.9250   23.4366   32.6558 H   0  0  0  0  0  0  0  0  0  0  0  0
   38.7093   23.6440   32.6558 H   0  0  0  0  0  0  0  0  0  0  0  0
  1  9  1  0
  1  2  1  0
  2  3  2  0
  4  5  2  0
  4  3  1  0
  6  5  1  0
  7  6  2  0
  8  7  1  0
  8  9  2  0
  9  4  1  0
 10 11  2  0
 11 12  1  0
 11  1  1  0
 13 12  2  0
 14 13  1  0
 15 14  2  0
 15 10  1  0
 16 10  1  0
  2 17  1  0
  5 18  1  0
  7 19  1  0
 12 20  1  0
 14 21  1  0
 16 22  1  0
 16 23  1  0
 16 24  1  0
M  ISO  8  17  14  18  14  19  14  20  14  21  14  22   8  23   8  24   8
M  END
>  <minimizedAffinity>  (1) 
-4.28815222

>  <minimizedRMSD>  (1) 
0.805643618

$$$$
