
     RDKit          3D

 44 49  0  0  0  0  0  0  0  0999 V2000
   39.2030   23.6290   32.4930 C   0  0  0  0  0  0  0  0  0  0  0  0
   40.0060   22.5140   32.7070 C   0  0  0  0  0  0  0  0  0  0  0  0
   39.5330   21.2100   32.5510 C   0  0  0  0  0  0  0  0  0  0  0  0
   38.2130   21.0010   32.1700 C   0  0  0  0  0  0  0  0  0  0  0  0
   37.3930   22.0880   31.9520 C   0  0  0  0  0  0  0  0  0  0  0  0
   36.0990   21.8990   31.5620 C   0  0  0  0  0  0  0  0  0  0  0  0
   35.2410   22.9370   31.3120 C   0  0  0  0  0  0  0  0  0  0  0  0
   35.7490   24.2220   31.4720 C   0  0  0  0  0  0  0  0  0  0  0  0
   37.0680   24.4000   31.8690 C   0  0  0  0  0  0  0  0  0  0  0  0
   37.9140   23.3610   32.1180 C   0  0  0  0  0  0  0  0  0  0  0  0
   39.7330   24.9490   32.6700 C   0  0  0  0  0  0  0  0  0  0  0  0
   39.7130   25.6150   33.9130 C   0  0  0  0  0  0  0  0  0  0  0  0
   40.2630   26.8970   33.9710 C   0  0  0  0  0  0  0  0  0  0  0  0
   40.7970   27.4530   32.8400 N   0  0  0  0  0  0  0  0  0  0  0  0
   40.8040   26.7860   31.6660 C   0  0  0  0  0  0  0  0  0  0  0  0
   40.2860   25.5770   31.6050 N   0  0  0  0  0  0  0  0  0  0  0  0
   39.1800   24.9960   35.0280 N   0  0  0  0  0  0  0  0  0  0  0  0
   37.9370   25.1450   35.5070 C   0  0  0  0  0  0  0  0  0  0  0  0
   37.7240   24.3990   36.6100 N   0  0  0  0  0  0  0  0  0  0  0  0
   38.8890   23.7400   36.8460 C   0  0  0  0  0  0  0  0  0  0  0  0
   39.3000   22.8490   37.7970 C   0  0  0  0  0  0  0  0  0  0  0  0
   40.5340   22.3070   37.8400 N   0  0  0  0  0  0  0  0  0  0  0  0
   41.3850   22.7030   36.8520 C   0  0  0  0  0  0  0  0  0  0  0  0
   40.9740   23.5710   35.9320 N   0  0  0  0  0  0  0  0  0  0  0  0
   39.7670   24.1260   35.8580 C   0  0  0  0  0  0  0  0  0  0  0  0
   37.2500   25.8440   31.8460 C   0  0  0  0  0  0  0  0  0  0  0  0
   37.7370   26.8810   31.0980 C   0  0  0  0  0  0  0  0  0  0  0  0
   37.6050   28.1040   31.6970 C   0  0  0  0  0  0  0  0  0  0  0  0
   36.9990   27.7770   32.8840 C   0  0  0  0  0  0  0  0  0  0  0  0
   36.8080   26.4870   32.9460 O   0  0  0  0  0  0  0  0  0  0  0  0
   41.0525   22.6652   33.0104 H   0  0  0  0  0  0  0  0  0  0  0  0
   40.2004   20.3538   32.7284 H   0  0  0  0  0  0  0  0  0  0  0  0
   37.8263   19.9790   32.0436 H   0  0  0  0  0  0  0  0  0  0  0  0
   35.7294   20.8697   31.4434 H   0  0  0  0  0  0  0  0  0  0  0  0
   34.2007   22.7629   30.9998 H   0  0  0  0  0  0  0  0  0  0  0  0
   35.1073   25.0955   31.2845 H   0  0  0  0  0  0  0  0  0  0  0  0
   40.2671   27.4559   34.9184 H   0  0  0  0  0  0  0  0  0  0  0  0
   41.2389   27.2489   30.7679 H   0  0  0  0  0  0  0  0  0  0  0  0
   37.1787   25.7998   35.0530 H   0  0  0  0  0  0  0  0  0  0  0  0
   38.5800   22.5559   38.5753 H   0  0  0  0  0  0  0  0  0  0  0  0
   42.4100   22.3054   36.8155 H   0  0  0  0  0  0  0  0  0  0  0  0
   38.1927   26.7440   30.1063 H   0  0  0  0  0  0  0  0  0  0  0  0
   37.9067   29.0937   31.3236 H   0  0  0  0  0  0  0  0  0  0  0  0
   36.7160   28.4955   33.6674 H   0  0  0  0  0  0  0  0  0  0  0  0
  1 11  1  0
  1  2  2  0
  3  2  1  0
  4  3  2  0
  5 10  2  0
  5  4  1  0
  6  5  1  0
  7  8  1  0
  7  6  2  0
  8  9  2  0
  9 10  1  0
 10  1  1  0
 11 12  1  0
 12 13  2  0
 12 17  1  0
 14 13  1  0
 15 14  2  0
 16 15  1  0
 16 11  2  0
 17 18  1  0
 17 25  1  0
 18 19  2  0
 19 20  1  0
 20 21  2  0
 21 22  1  0
 23 22  2  0
 24 23  1  0
 25 24  2  0
 25 20  1  0
 26  9  1  0
 26 30  1  0
 27 28  1  0
 27 26  2  0
 28 29  2  0
 29 30  1  0
  2 31  1  0
  3 32  1  0
  4 33  1  0
  6 34  1  0
  7 35  1  0
  8 36  1  0
 13 37  1  0
 15 38  1  0
 18 39  1  0
 21 40  1  0
 23 41  1  0
 27 42  1  0
 28 43  1  0
 29 44  1  0
M  ISO  8  31  14  32  14  33  14  34  14  35  14  36  14  37  14  38  14
M  ISO  6  39  14  40  14  41  14  42  14  43  14  44  14
M  END
>  <minimizedAffinity>  (1) 
-6.08486032

>  <minimizedRMSD>  (1) 
1.29197133

$$$$
