
     RDKit          3D

 38 42  0  0  0  0  0  0  0  0999 V2000
   39.6510   22.8370   37.3170 C   0  0  0  0  0  0  0  0  0  0  0  0
   38.9580   23.3320   38.4300 C   0  0  0  0  0  0  0  0  0  0  0  0
   37.8710   24.1870   38.1660 C   0  0  0  0  0  0  0  0  0  0  0  0
   37.5490   24.4840   36.8900 N   0  0  0  0  0  0  0  0  0  0  0  0
   38.2680   23.9650   35.8490 C   0  0  0  0  0  0  0  0  0  0  0  0
   39.2940   23.1600   36.0620 N   0  0  0  0  0  0  0  0  0  0  0  0
   37.9610   24.2550   34.4790 N   0  0  0  0  0  0  0  0  0  0  0  0
   38.0430   23.4710   33.3670 C   0  0  0  0  0  0  0  0  0  0  0  0
   37.6410   24.1980   32.2950 N   0  0  0  0  0  0  0  0  0  0  0  0
   37.3040   25.4320   32.7180 C   0  0  0  0  0  0  0  0  0  0  0  0
   36.8410   26.5950   32.1630 C   0  0  0  0  0  0  0  0  0  0  0  0
   36.5870   27.7020   32.8510 N   0  0  0  0  0  0  0  0  0  0  0  0
   36.7930   27.7010   34.1790 C   0  0  0  0  0  0  0  0  0  0  0  0
   37.2430   26.5910   34.7480 N   0  0  0  0  0  0  0  0  0  0  0  0
   37.5040   25.4690   34.0850 C   0  0  0  0  0  0  0  0  0  0  0  0
   36.6110   26.6340   30.7630 N   0  0  0  0  0  0  0  0  0  0  0  0
   40.7060   22.0070   37.5820 O   0  0  0  0  0  0  0  0  0  0  0  0
   41.9550   22.0880   37.0000 C   0  0  0  0  0  0  0  0  0  0  0  0
   42.5570   23.2190   36.4660 C   0  0  0  0  0  0  0  0  0  0  0  0
   43.7670   22.9260   35.9880 N   0  0  0  0  0  0  0  0  0  0  0  0
   44.0340   21.6110   36.1750 C   0  0  0  0  0  0  0  0  0  0  0  0
   45.1080   20.8150   35.8750 C   0  0  0  0  0  0  0  0  0  0  0  0
   45.0830   19.4590   36.2030 C   0  0  0  0  0  0  0  0  0  0  0  0
   43.9620   18.9230   36.8340 C   0  0  0  0  0  0  0  0  0  0  0  0
   42.8830   19.7530   37.1260 C   0  0  0  0  0  0  0  0  0  0  0  0
   42.9160   21.0980   36.7980 C   0  0  0  0  0  0  0  0  0  0  0  0
   39.2484   23.0662   39.4571 H   0  0  0  0  0  0  0  0  0  0  0  0
   37.2870   24.6109   38.9963 H   0  0  0  0  0  0  0  0  0  0  0  0
   38.3790   22.4238   33.3431 H   0  0  0  0  0  0  0  0  0  0  0  0
   36.5929   28.6002   34.7801 H   0  0  0  0  0  0  0  0  0  0  0  0
   36.2628   27.4973   30.3221 H   0  0  0  0  0  0  0  0  0  0  0  0
   36.7923   25.7990   30.1879 H   0  0  0  0  0  0  0  0  0  0  0  0
   42.0992   24.2189   36.4406 H   0  0  0  0  0  0  0  0  0  0  0  0
   44.4050   23.6005   35.5420 H   0  0  0  0  0  0  0  0  0  0  0  0
   45.9892   21.2445   35.3760 H   0  0  0  0  0  0  0  0  0  0  0  0
   45.9435   18.8165   35.9648 H   0  0  0  0  0  0  0  0  0  0  0  0
   43.9300   17.8558   37.0985 H   0  0  0  0  0  0  0  0  0  0  0  0
   41.9946   19.3358   37.6227 H   0  0  0  0  0  0  0  0  0  0  0  0
  1 17  1  0
  1  2  2  0
  3  2  1  0
  4  3  2  0
  5  6  2  0
  5  4  1  0
  6  1  1  0
  7  5  1  0
  8  7  1  0
  9 10  1  0
  9  8  2  0
 10 15  2  0
 11 10  1  0
 11 12  2  0
 12 13  1  0
 13 14  2  0
 15  7  1  0
 15 14  1  0
 16 11  1  0
 18 17  1  0
 19 18  2  0
 20 21  1  0
 20 19  1  0
 21 26  2  0
 22 21  1  0
 22 23  2  0
 23 24  1  0
 24 25  2  0
 26 18  1  0
 26 25  1  0
  2 27  1  0
  3 28  1  0
  8 29  1  0
 13 30  1  0
 16 31  1  0
 16 32  1  0
 19 33  1  0
 20 34  1  0
 22 35  1  0
 23 36  1  0
 24 37  1  0
 25 38  1  0
M  ISO  8  27  14  28  14  29  14  30  14  33  14  34   9  35  14  36  14
M  ISO  2  37  14  38  14
M  END
>  <minimizedAffinity>  (1) 
-6.47154713

>  <minimizedRMSD>  (1) 
0.807685792

$$$$
