
     RDKit          3D

 39 43  0  0  0  0  0  0  0  0999 V2000
   39.7340   22.9060   37.3460 C   0  0  0  0  0  0  0  0  0  0  0  0
   38.9070   23.3090   38.4060 C   0  0  0  0  0  0  0  0  0  0  0  0
   37.7460   24.0260   38.0550 C   0  0  0  0  0  0  0  0  0  0  0  0
   37.4870   24.2850   36.7540 N   0  0  0  0  0  0  0  0  0  0  0  0
   38.3300   23.8660   35.7720 C   0  0  0  0  0  0  0  0  0  0  0  0
   39.4450   23.1830   36.0550 N   0  0  0  0  0  0  0  0  0  0  0  0
   37.9210   24.2170   34.4520 N   0  0  0  0  0  0  0  0  0  0  0  0
   37.8740   23.4890   33.3210 C   0  0  0  0  0  0  0  0  0  0  0  0
   37.4140   24.2520   32.3140 N   0  0  0  0  0  0  0  0  0  0  0  0
   37.1590   25.4850   32.7890 C   0  0  0  0  0  0  0  0  0  0  0  0
   36.6760   26.5930   32.1250 C   0  0  0  0  0  0  0  0  0  0  0  0
   36.3950   26.5810   30.8940 O   0  0  0  0  0  0  0  0  0  0  0  0
   36.4910   27.7420   32.7940 N   0  0  0  0  0  0  0  0  0  0  0  0
   36.8090   27.6870   34.0980 C   0  0  0  0  0  0  0  0  0  0  0  0
   36.6630   28.8250   34.9200 N   0  0  0  0  0  0  0  0  0  0  0  0
   37.2850   26.6200   34.7870 N   0  0  0  0  0  0  0  0  0  0  0  0
   37.4820   25.4410   34.1280 C   0  0  0  0  0  0  0  0  0  0  0  0
   40.8580   22.2120   37.6850 O   0  0  0  0  0  0  0  0  0  0  0  0
   42.0570   22.2160   37.0110 C   0  0  0  0  0  0  0  0  0  0  0  0
   42.6490   23.3100   36.4090 C   0  0  0  0  0  0  0  0  0  0  0  0
   43.8120   22.9630   35.8430 N   0  0  0  0  0  0  0  0  0  0  0  0
   44.0440   21.6420   36.0400 C   0  0  0  0  0  0  0  0  0  0  0  0
   45.0650   20.7960   35.6770 C   0  0  0  0  0  0  0  0  0  0  0  0
   45.0050   19.4500   36.0440 C   0  0  0  0  0  0  0  0  0  0  0  0
   43.9210   18.9710   36.7690 C   0  0  0  0  0  0  0  0  0  0  0  0
   42.8940   19.8400   37.1300 C   0  0  0  0  0  0  0  0  0  0  0  0
   42.9560   21.1770   36.7650 C   0  0  0  0  0  0  0  0  0  0  0  0
   39.1518   23.0778   39.4532 H   0  0  0  0  0  0  0  0  0  0  0  0
   37.0537   24.3733   38.8361 H   0  0  0  0  0  0  0  0  0  0  0  0
   38.1669   22.4323   33.2339 H   0  0  0  0  0  0  0  0  0  0  0  0
   36.1340   28.5969   32.3438 H   0  0  0  0  0  0  0  0  0  0  0  0
   36.9092   28.7738   35.9188 H   0  0  0  0  0  0  0  0  0  0  0  0
   36.3102   29.7066   34.5211 H   0  0  0  0  0  0  0  0  0  0  0  0
   42.2241   24.3245   36.3965 H   0  0  0  0  0  0  0  0  0  0  0  0
   44.4370   23.6042   35.3339 H   0  0  0  0  0  0  0  0  0  0  0  0
   45.9223   21.1763   35.1021 H   0  0  0  0  0  0  0  0  0  0  0  0
   45.8185   18.7669   35.7582 H   0  0  0  0  0  0  0  0  0  0  0  0
   43.8740   17.9103   37.0566 H   0  0  0  0  0  0  0  0  0  0  0  0
   42.0337   19.4661   37.7046 H   0  0  0  0  0  0  0  0  0  0  0  0
  1 18  1  0
  1  2  2  0
  3  2  1  0
  4  3  2  0
  5  6  2  0
  5  4  1  0
  6  1  1  0
  7  5  1  0
  8  7  1  0
  9 10  1  0
  9  8  2  0
 10 17  2  0
 11 10  1  0
 11 13  1  0
 12 11  2  0
 13 14  1  0
 14 16  2  0
 14 15  1  0
 17  7  1  0
 17 16  1  0
 19 18  1  0
 20 19  2  0
 21 22  1  0
 21 20  1  0
 22 27  2  0
 23 22  1  0
 23 24  2  0
 24 25  1  0
 25 26  2  0
 27 19  1  0
 27 26  1  0
  2 28  1  0
  3 29  1  0
  8 30  1  0
 13 31  1  0
 15 32  1  0
 15 33  1  0
 20 34  1  0
 21 35  1  0
 23 36  1  0
 24 37  1  0
 25 38  1  0
 26 39  1  0
M  ISO  8  28  14  29  14  30  14  31   9  34  14  35   9  36  14  37  14
M  ISO  2  38  14  39  14
M  END
>  <minimizedAffinity>  (1) 
-6.33208656

>  <minimizedRMSD>  (1) 
0.765195906

$$$$
