
     RDKit          3D

 41 45  0  0  0  0  0  0  0  0999 V2000
   39.6300   22.8680   37.4200 C   0  0  0  0  0  0  0  0  0  0  0  0
   38.9840   23.2720   38.5780 C   0  0  0  0  0  0  0  0  0  0  0  0
   37.9070   24.1720   38.3900 C   0  0  0  0  0  0  0  0  0  0  0  0
   37.5730   24.5760   37.1530 N   0  0  0  0  0  0  0  0  0  0  0  0
   38.2290   24.1550   36.0570 C   0  0  0  0  0  0  0  0  0  0  0  0
   39.2350   23.3160   36.2300 N   0  0  0  0  0  0  0  0  0  0  0  0
   38.0060   24.4810   34.6540 C   0  0  0  0  0  0  0  0  0  0  0  0
   38.2450   23.5630   33.6540 C   0  0  0  0  0  0  0  0  0  0  0  0
   38.0600   23.7980   32.3110 C   0  0  0  0  0  0  0  0  0  0  0  0
   37.6050   25.0250   31.8910 C   0  0  0  0  0  0  0  0  0  0  0  0
   37.3500   25.9790   32.8390 C   0  0  0  0  0  0  0  0  0  0  0  0
   36.8980   27.2010   32.4140 C   0  0  0  0  0  0  0  0  0  0  0  0
   36.6240   28.2100   33.3150 C   0  0  0  0  0  0  0  0  0  0  0  0
   36.8240   27.9340   34.6670 C   0  0  0  0  0  0  0  0  0  0  0  0
   37.2770   26.6910   35.0280 C   0  0  0  0  0  0  0  0  0  0  0  0
   37.5560   25.6770   34.1540 C   0  0  0  0  0  0  0  0  0  0  0  0
   40.6730   22.0000   37.5620 O   0  0  0  0  0  0  0  0  0  0  0  0
   41.9140   22.1030   36.9790 C   0  0  0  0  0  0  0  0  0  0  0  0
   42.4620   23.2300   36.4160 C   0  0  0  0  0  0  0  0  0  0  0  0
   43.6840   22.9780   35.9440 N   0  0  0  0  0  0  0  0  0  0  0  0
   44.0000   21.6820   36.1690 C   0  0  0  0  0  0  0  0  0  0  0  0
   45.1140   20.9000   35.8950 C   0  0  0  0  0  0  0  0  0  0  0  0
   45.1420   19.5670   36.2580 C   0  0  0  0  0  0  0  0  0  0  0  0
   44.0400   19.0260   36.9010 C   0  0  0  0  0  0  0  0  0  0  0  0
   42.9310   19.8080   37.1730 C   0  0  0  0  0  0  0  0  0  0  0  0
   42.9070   21.1500   36.8060 C   0  0  0  0  0  0  0  0  0  0  0  0
   39.2871   22.9179   39.5744 H   0  0  0  0  0  0  0  0  0  0  0  0
   37.3425   24.5412   39.2589 H   0  0  0  0  0  0  0  0  0  0  0  0
   38.6106   22.5691   33.9516 H   0  0  0  0  0  0  0  0  0  0  0  0
   38.2752   23.0076   31.5769 H   0  0  0  0  0  0  0  0  0  0  0  0
   37.4500   25.2347   30.8224 H   0  0  0  0  0  0  0  0  0  0  0  0
   36.7514   27.3804   31.3387 H   0  0  0  0  0  0  0  0  0  0  0  0
   36.2621   29.1932   32.9797 H   0  0  0  0  0  0  0  0  0  0  0  0
   36.6220   28.6997   35.4305 H   0  0  0  0  0  0  0  0  0  0  0  0
   37.4270   26.4951   36.1000 H   0  0  0  0  0  0  0  0  0  0  0  0
   41.9610   24.2078   36.3618 H   0  0  0  0  0  0  0  0  0  0  0  0
   44.2940   23.6655   35.4791 H   0  0  0  0  0  0  0  0  0  0  0  0
   45.9811   21.3450   35.3850 H   0  0  0  0  0  0  0  0  0  0  0  0
   46.0236   18.9461   36.0404 H   0  0  0  0  0  0  0  0  0  0  0  0
   44.0468   17.9667   37.1975 H   0  0  0  0  0  0  0  0  0  0  0  0
   42.0625   19.3656   37.6829 H   0  0  0  0  0  0  0  0  0  0  0  0
  1 17  1  0
  1  2  2  0
  3  2  1  0
  4  3  2  0
  5  6  2  0
  5  4  1  0
  6  1  1  0
  7  5  1  0
  8  7  2  0
  9  8  1  0
 10  9  2  0
 10 11  1  0
 11 16  2  0
 12 11  1  0
 12 13  2  0
 13 14  1  0
 14 15  2  0
 16  7  1  0
 16 15  1  0
 18 17  1  0
 19 18  2  0
 20 21  1  0
 20 19  1  0
 21 26  2  0
 22 21  1  0
 22 23  2  0
 23 24  1  0
 24 25  2  0
 26 18  1  0
 26 25  1  0
  2 27  1  0
  3 28  1  0
  8 29  1  0
  9 30  1  0
 10 31  1  0
 12 32  1  0
 13 33  1  0
 14 34  1  0
 15 35  1  0
 19 36  1  0
 20 37  1  0
 22 38  1  0
 23 39  1  0
 24 40  1  0
 25 41  1  0
M  ISO  8  27  14  28  14  29  14  30  14  31  14  32  14  33  14  34  14
M  ISO  7  35  14  36  14  37   9  38  14  39  14  40  14  41  14
M  END
>  <minimizedAffinity>  (1) 
-6.3595233

>  <minimizedRMSD>  (1) 
0.97902292

$$$$
