
     RDKit          3D

 39 43  0  0  0  0  0  0  0  0999 V2000
   39.7600   22.8580   37.3960 C   0  0  0  0  0  0  0  0  0  0  0  0
   38.9400   23.2840   38.4270 C   0  0  0  0  0  0  0  0  0  0  0  0
   37.7950   24.0200   38.0510 C   0  0  0  0  0  0  0  0  0  0  0  0
   37.5560   24.2690   36.7470 N   0  0  0  0  0  0  0  0  0  0  0  0
   38.3950   23.8280   35.7560 C   0  0  0  0  0  0  0  0  0  0  0  0
   39.4460   23.1490   36.1490 N   0  0  0  0  0  0  0  0  0  0  0  0
   37.9030   24.2340   34.4470 C   0  0  0  0  0  0  0  0  0  0  0  0
   37.7870   23.4080   33.3950 N   0  0  0  0  0  0  0  0  0  0  0  0
   37.3370   23.7670   32.1880 C   0  0  0  0  0  0  0  0  0  0  0  0
   36.9490   25.0230   31.9090 N   0  0  0  0  0  0  0  0  0  0  0  0
   37.0310   25.9220   32.9050 C   0  0  0  0  0  0  0  0  0  0  0  0
   36.6330   27.2090   32.6210 C   0  0  0  0  0  0  0  0  0  0  0  0
   36.6910   28.1780   33.5990 C   0  0  0  0  0  0  0  0  0  0  0  0
   37.1590   27.8110   34.8570 C   0  0  0  0  0  0  0  0  0  0  0  0
   37.5410   26.5070   35.0740 C   0  0  0  0  0  0  0  0  0  0  0  0
   37.5000   25.5080   34.1300 C   0  0  0  0  0  0  0  0  0  0  0  0
   40.8690   22.1480   37.7010 O   0  0  0  0  0  0  0  0  0  0  0  0
   42.0730   22.1460   37.0430 C   0  0  0  0  0  0  0  0  0  0  0  0
   42.6830   23.2490   36.4610 C   0  0  0  0  0  0  0  0  0  0  0  0
   43.8420   22.9060   35.9070 N   0  0  0  0  0  0  0  0  0  0  0  0
   44.0660   21.5750   36.0850 C   0  0  0  0  0  0  0  0  0  0  0  0
   45.0860   20.7200   35.7190 C   0  0  0  0  0  0  0  0  0  0  0  0
   45.0210   19.3810   36.0560 C   0  0  0  0  0  0  0  0  0  0  0  0
   43.9100   18.9030   36.7680 C   0  0  0  0  0  0  0  0  0  0  0  0
   42.8980   19.7860   37.1230 C   0  0  0  0  0  0  0  0  0  0  0  0
   42.9720   21.1230   36.7830 C   0  0  0  0  0  0  0  0  0  0  0  0
   39.1676   23.0616   39.4800 H   0  0  0  0  0  0  0  0  0  0  0  0
   37.0999   24.3893   38.8194 H   0  0  0  0  0  0  0  0  0  0  0  0
   37.2825   23.0068   31.3949 H   0  0  0  0  0  0  0  0  0  0  0  0
   36.2691   27.4635   31.6146 H   0  0  0  0  0  0  0  0  0  0  0  0
   36.3765   29.2114   33.3913 H   0  0  0  0  0  0  0  0  0  0  0  0
   37.2227   28.5529   35.6666 H   0  0  0  0  0  0  0  0  0  0  0  0
   37.9065   26.2441   36.0776 H   0  0  0  0  0  0  0  0  0  0  0  0
   42.2650   24.2665   36.4585 H   0  0  0  0  0  0  0  0  0  0  0  0
   44.4765   23.5518   35.4158 H   0  0  0  0  0  0  0  0  0  0  0  0
   45.9511   21.1044   35.1588 H   0  0  0  0  0  0  0  0  0  0  0  0
   45.8326   18.6963   35.7688 H   0  0  0  0  0  0  0  0  0  0  0  0
   43.8413   17.8399   37.0422 H   0  0  0  0  0  0  0  0  0  0  0  0
   42.0261   19.4157   37.6823 H   0  0  0  0  0  0  0  0  0  0  0  0
  1 17  1  0
  1  2  2  0
  3  2  1  0
  4  3  2  0
  5  6  2  0
  5  4  1  0
  6  1  1  0
  7  5  1  0
  8  7  2  0
  9  8  1  0
 10  9  2  0
 10 11  1  0
 11 16  2  0
 12 11  1  0
 12 13  2  0
 13 14  1  0
 14 15  2  0
 16  7  1  0
 16 15  1  0
 18 17  1  0
 19 18  2  0
 20 21  1  0
 20 19  1  0
 21 26  2  0
 22 23  2  0
 22 21  1  0
 23 24  1  0
 24 25  2  0
 26 18  1  0
 26 25  1  0
  2 27  1  0
  3 28  1  0
  9 29  1  0
 12 30  1  0
 13 31  1  0
 14 32  1  0
 15 33  1  0
 19 34  1  0
 20 35  1  0
 22 36  1  0
 23 37  1  0
 24 38  1  0
 25 39  1  0
M  ISO  8  27  14  28  14  29  14  30  14  31  14  32  14  33  14  34  14
M  ISO  5  35   9  36  14  37  14  38  14  39  14
M  END
>  <minimizedAffinity>  (1) 
-6.20612097

>  <minimizedRMSD>  (1) 
0.75294894

$$$$
