
     RDKit          3D

 36 39  0  0  0  0  0  0  0  0999 V2000
   39.6240   22.8960   37.2470 C   0  0  0  0  0  0  0  0  0  0  0  0
   39.0110   23.3090   38.4390 C   0  0  0  0  0  0  0  0  0  0  0  0
   37.9790   24.2600   38.3150 C   0  0  0  0  0  0  0  0  0  0  0  0
   37.6360   24.7180   37.0810 N   0  0  0  0  0  0  0  0  0  0  0  0
   38.2720   24.2740   35.9740 C   0  0  0  0  0  0  0  0  0  0  0  0
   39.2450   23.3830   36.0490 N   0  0  0  0  0  0  0  0  0  0  0  0
   37.9510   24.7230   34.6550 N   0  0  0  0  0  0  0  0  0  0  0  0
   38.2710   23.7860   33.7230 C   0  0  0  0  0  0  0  0  0  0  0  0
   38.0180   24.0740   32.3790 C   0  0  0  0  0  0  0  0  0  0  0  0
   37.4550   25.2950   32.0760 C   0  0  0  0  0  0  0  0  0  0  0  0
   37.1910   25.6030   30.7190 N   0  0  0  0  0  0  0  0  0  0  0  0
   37.1580   26.1790   33.0290 N   0  0  0  0  0  0  0  0  0  0  0  0
   37.4020   25.9070   34.3330 C   0  0  0  0  0  0  0  0  0  0  0  0
   37.1710   26.6490   35.3280 O   0  0  0  0  0  0  0  0  0  0  0  0
   40.6250   21.9750   37.3650 O   0  0  0  0  0  0  0  0  0  0  0  0
   41.8940   22.0800   36.8540 C   0  0  0  0  0  0  0  0  0  0  0  0
   42.4610   23.2070   36.3100 C   0  0  0  0  0  0  0  0  0  0  0  0
   43.7270   22.9620   35.9020 N   0  0  0  0  0  0  0  0  0  0  0  0
   44.0270   21.6650   36.1680 C   0  0  0  0  0  0  0  0  0  0  0  0
   45.1710   20.9180   35.9530 C   0  0  0  0  0  0  0  0  0  0  0  0
   45.1850   19.5720   36.3400 C   0  0  0  0  0  0  0  0  0  0  0  0
   44.0470   19.0060   36.9370 C   0  0  0  0  0  0  0  0  0  0  0  0
   42.9110   19.7920   37.1370 C   0  0  0  0  0  0  0  0  0  0  0  0
   42.9020   21.1210   36.7520 C   0  0  0  0  0  0  0  0  0  0  0  0
   39.3192   22.9120   39.4174 H   0  0  0  0  0  0  0  0  0  0  0  0
   37.4549   24.6292   39.2089 H   0  0  0  0  0  0  0  0  0  0  0  0
   38.7178   22.8255   34.0194 H   0  0  0  0  0  0  0  0  0  0  0  0
   38.2605   23.3491   31.5880 H   0  0  0  0  0  0  0  0  0  0  0  0
   36.7706   26.5095   30.4690 H   0  0  0  0  0  0  0  0  0  0  0  0
   37.4194   24.9205   29.9821 H   0  0  0  0  0  0  0  0  0  0  0  0
   41.9533   24.1785   36.2185 H   0  0  0  0  0  0  0  0  0  0  0  0
   44.3589   23.6462   35.4622 H   0  0  0  0  0  0  0  0  0  0  0  0
   46.0561   21.3739   35.4853 H   0  0  0  0  0  0  0  0  0  0  0  0
   46.0845   18.9603   36.1768 H   0  0  0  0  0  0  0  0  0  0  0  0
   44.0508   17.9500   37.2451 H   0  0  0  0  0  0  0  0  0  0  0  0
   42.0173   19.3521   37.6036 H   0  0  0  0  0  0  0  0  0  0  0  0
  1 15  1  0
  1  2  2  0
  3  2  1  0
  4  3  2  0
  5  6  2  0
  5  4  1  0
  6  1  1  0
  7  5  1  0
  8  7  1  0
  9  8  2  0
 10  9  1  0
 10 12  2  0
 11 10  1  0
 12 13  1  0
 13  7  1  0
 13 14  2  0
 16 15  1  0
 17 16  2  0
 18 19  1  0
 18 17  1  0
 19 24  2  0
 20 19  1  0
 20 21  2  0
 21 22  1  0
 22 23  2  0
 24 16  1  0
 24 23  1  0
  2 25  1  0
  3 26  1  0
  8 27  1  0
  9 28  1  0
 11 29  1  0
 11 30  1  0
 17 31  1  0
 18 32  1  0
 20 33  1  0
 21 34  1  0
 22 35  1  0
 23 36  1  0
M  ISO  8  25  14  26  14  27  14  28  14  31  14  32   9  33  14  34  14
M  ISO  2  35  14  36  14
M  END
>  <minimizedAffinity>  (1) 
-5.97644997

>  <minimizedRMSD>  (1) 
1.10201871

$$$$
