
     RDKit          3D

 24 25  0  0  1  0  0  0  0  0999 V2000
   41.7990   22.2350   36.3760 C   0  0  2  0  0  0  0  0  0  0  0  0
   42.9040   21.2160   36.4300 C   0  0  0  0  0  0  0  0  0  0  0  0
   44.1640   21.5060   35.8950 C   0  0  0  0  0  0  0  0  0  0  0  0
   45.1510   20.5260   35.9810 C   0  0  0  0  0  0  0  0  0  0  0  0
   44.8390   19.3430   36.5780 N   0  0  0  0  0  0  0  0  0  0  0  0
   43.6100   19.0840   37.0890 C   0  0  0  0  0  0  0  0  0  0  0  0
   42.6640   20.0320   37.0040 N   0  0  0  0  0  0  0  0  0  0  0  0
   42.5000   23.5710   36.4690 C   0  0  0  0  0  0  0  0  0  0  0  0
   40.8580   22.0060   37.5300 C   0  0  0  0  0  0  0  0  0  0  0  0
   39.6460   22.8370   37.3060 C   0  0  0  0  0  0  0  0  0  0  0  0
   38.9170   23.3410   36.3020 N   0  0  0  0  0  0  0  0  0  0  0  0
   37.9220   24.0230   36.7900 O   0  0  0  0  0  0  0  0  0  0  0  0
   37.9470   24.0010   38.0980 C   0  0  0  0  0  0  0  0  0  0  0  0
   39.0220   23.2610   38.4430 N   0  0  0  0  0  0  0  0  0  0  0  0
   41.1910   22.1774   35.4611 H   0  0  0  0  0  0  0  0  0  0  0  0
   44.3691   22.4774   35.4213 H   0  0  0  0  0  0  0  0  0  0  0  0
   46.1582   20.7041   35.5762 H   0  0  0  0  0  0  0  0  0  0  0  0
   43.3927   18.1159   37.5639 H   0  0  0  0  0  0  0  0  0  0  0  0
   42.6404   23.8386   37.5267 H   0  0  0  0  0  0  0  0  0  0  0  0
   43.4802   23.5060   35.9740 H   0  0  0  0  0  0  0  0  0  0  0  0
   41.8896   24.3406   35.9740 H   0  0  0  0  0  0  0  0  0  0  0  0
   40.5783   20.9433   37.5784 H   0  0  0  0  0  0  0  0  0  0  0  0
   41.3416   22.2832   38.4783 H   0  0  0  0  0  0  0  0  0  0  0  0
   37.2346   24.4881   38.7801 H   0  0  0  0  0  0  0  0  0  0  0  0
  1  2  1  0
  1  8  1  0
  1  9  1  0
  2  7  2  0
  3  4  2  0
  3  2  1  0
  4  5  1  0
  5  6  2  0
  7  6  1  0
 10  9  1  0
 10 14  1  0
 11 12  1  0
 11 10  2  0
 12 13  1  0
 13 14  2  0
  1 15  1  6
  3 16  1  0
  4 17  1  0
  6 18  1  0
  8 19  1  0
  8 20  1  0
  8 21  1  0
  9 22  1  0
  9 23  1  0
 13 24  1  0
M  ISO  8  15   8  16  14  17  14  18  14  19   8  20   8  21   8  22   8
M  ISO  2  23   8  24  14
M  END
>  <minimizedAffinity>  (1) 
-3.53914785

>  <minimizedRMSD>  (1) 
5.15369225

$$$$
