
     RDKit          3D

 32 35  0  0  0  0  0  0  0  0999 V2000
   41.8260   22.1040   36.7800 C   0  0  0  0  0  0  0  0  0  0  0  0
   42.3860   23.2420   36.2130 C   0  0  0  0  0  0  0  0  0  0  0  0
   43.6550   23.0200   35.8290 N   0  0  0  0  0  0  0  0  0  0  0  0
   43.9830   21.7520   36.1170 C   0  0  0  0  0  0  0  0  0  0  0  0
   45.1410   21.0020   35.9430 C   0  0  0  0  0  0  0  0  0  0  0  0
   45.1860   19.6770   36.3540 C   0  0  0  0  0  0  0  0  0  0  0  0
   44.0620   19.1090   36.9400 C   0  0  0  0  0  0  0  0  0  0  0  0
   42.8940   19.8590   37.1170 C   0  0  0  0  0  0  0  0  0  0  0  0
   42.8590   21.1880   36.7020 C   0  0  0  0  0  0  0  0  0  0  0  0
   40.5610   21.9910   37.2710 O   0  0  0  0  0  0  0  0  0  0  0  0
   39.6050   22.9610   37.3050 C   0  0  0  0  0  0  0  0  0  0  0  0
   39.0020   23.2320   38.5380 C   0  0  0  0  0  0  0  0  0  0  0  0
   38.0220   24.2210   38.5900 C   0  0  0  0  0  0  0  0  0  0  0  0
   37.7040   24.8670   37.4510 N   0  0  0  0  0  0  0  0  0  0  0  0
   38.3090   24.5770   36.2790 C   0  0  0  0  0  0  0  0  0  0  0  0
   39.2550   23.6320   36.1950 N   0  0  0  0  0  0  0  0  0  0  0  0
   37.8730   25.3630   35.0650 C   0  0  0  0  0  0  0  0  0  0  0  0
   37.3890   26.6690   35.1620 C   0  0  0  0  0  0  0  0  0  0  0  0
   37.0190   27.3030   34.0210 C   0  0  0  0  0  0  0  0  0  0  0  0
   37.1180   26.6570   32.7530 C   0  0  0  0  0  0  0  0  0  0  0  0
   37.8090   24.9880   33.2680 S   0  0  0  0  0  0  0  0  0  0  0  0
   41.8593   24.2003   36.0938 H   0  0  0  0  0  0  0  0  0  0  0  0
   44.2753   23.7122   35.3852 H   0  0  0  0  0  0  0  0  0  0  0  0
   46.0256   21.4610   35.4774 H   0  0  0  0  0  0  0  0  0  0  0  0
   46.1018   19.0832   36.2171 H   0  0  0  0  0  0  0  0  0  0  0  0
   44.0903   18.0595   37.2681 H   0  0  0  0  0  0  0  0  0  0  0  0
   42.0081   19.4013   37.5815 H   0  0  0  0  0  0  0  0  0  0  0  0
   39.2940   22.6787   39.4428 H   0  0  0  0  0  0  0  0  0  0  0  0
   37.5204   24.4683   39.5372 H   0  0  0  0  0  0  0  0  0  0  0  0
   37.3098   27.1707   36.1377 H   0  0  0  0  0  0  0  0  0  0  0  0
   36.6361   28.3328   34.0746 H   0  0  0  0  0  0  0  0  0  0  0  0
   36.8610   27.0322   31.7514 H   0  0  0  0  0  0  0  0  0  0  0  0
  1 10  1  0
  2  1  2  0
  3  4  1  0
  3  2  1  0
  4  9  2  0
  5  4  1  0
  5  6  2  0
  6  7  1  0
  7  8  2  0
  9  1  1  0
  9  8  1  0
 10 11  1  0
 11 12  2  0
 12 13  1  0
 14 13  2  0
 15 14  1  0
 16 15  2  0
 16 11  1  0
 17 18  2  0
 17 15  1  0
 19 18  1  0
 20 21  1  0
 20 19  2  0
 21 17  1  0
  2 22  1  0
  3 23  1  0
  5 24  1  0
  6 25  1  0
  7 26  1  0
  8 27  1  0
 12 28  1  0
 13 29  1  0
 18 30  1  0
 19 31  1  0
 20 32  1  0
M  ISO  8  22  14  23   9  24  14  25  14  26  14  27  14  28  14  29  14
M  ISO  3  30  14  31  14  32  14
M  END
>  <minimizedAffinity>  (1) 
-5.20195484

>  <minimizedRMSD>  (1) 
1.31330657

$$$$
