
     RDKit          3D

 38 41  0  0  0  0  0  0  0  0999 V2000
   40.7130   22.0080   37.6030 O   0  0  0  0  0  0  0  0  0  0  0  0
   41.9530   22.0780   37.0210 C   0  0  0  0  0  0  0  0  0  0  0  0
   42.5480   23.2010   36.4890 C   0  0  0  0  0  0  0  0  0  0  0  0
   43.7600   22.9110   36.0020 N   0  0  0  0  0  0  0  0  0  0  0  0
   44.0340   21.6070   36.1790 C   0  0  0  0  0  0  0  0  0  0  0  0
   45.1110   20.8020   35.8730 C   0  0  0  0  0  0  0  0  0  0  0  0
   45.0840   19.4440   36.2010 C   0  0  0  0  0  0  0  0  0  0  0  0
   43.9560   18.9130   36.8380 C   0  0  0  0  0  0  0  0  0  0  0  0
   42.8880   19.7360   37.1360 C   0  0  0  0  0  0  0  0  0  0  0  0
   42.9220   21.0940   36.8060 C   0  0  0  0  0  0  0  0  0  0  0  0
   39.6720   22.8490   37.3920 C   0  0  0  0  0  0  0  0  0  0  0  0
   38.9790   23.2910   38.5240 C   0  0  0  0  0  0  0  0  0  0  0  0
   37.8980   24.1640   38.2960 C   0  0  0  0  0  0  0  0  0  0  0  0
   37.5820   24.5270   37.0390 N   0  0  0  0  0  0  0  0  0  0  0  0
   38.2900   24.0670   35.9730 C   0  0  0  0  0  0  0  0  0  0  0  0
   39.3160   23.2440   36.1430 N   0  0  0  0  0  0  0  0  0  0  0  0
   37.9680   24.4430   34.6410 N   0  0  0  0  0  0  0  0  0  0  0  0
   37.6680   25.7990   34.2250 C   0  0  0  0  0  0  0  0  0  0  0  0
   37.0490   25.7530   32.8450 C   0  0  0  0  0  0  0  0  0  0  0  0
   37.8970   25.1890   31.8980 O   0  0  0  0  0  0  0  0  0  0  0  0
   38.5640   24.0700   32.3490 C   0  0  0  0  0  0  0  0  0  0  0  0
   37.9180   23.4480   33.5670 C   0  0  0  0  0  0  0  0  0  0  0  0
   42.0889   24.2004   36.4675 H   0  0  0  0  0  0  0  0  0  0  0  0
   44.3927   23.5900   35.5553 H   0  0  0  0  0  0  0  0  0  0  0  0
   45.9915   21.2290   35.3706 H   0  0  0  0  0  0  0  0  0  0  0  0
   45.9413   18.7980   35.9609 H   0  0  0  0  0  0  0  0  0  0  0  0
   43.9207   17.8452   37.0999 H   0  0  0  0  0  0  0  0  0  0  0  0
   42.0023   19.3192   37.6377 H   0  0  0  0  0  0  0  0  0  0  0  0
   39.2634   22.9735   39.5381 H   0  0  0  0  0  0  0  0  0  0  0  0
   37.3125   24.5488   39.1440 H   0  0  0  0  0  0  0  0  0  0  0  0
   36.9616   26.2565   34.9333 H   0  0  0  0  0  0  0  0  0  0  0  0
   38.5896   26.3991   34.2044 H   0  0  0  0  0  0  0  0  0  0  0  0
   36.1265   25.1558   32.8922 H   0  0  0  0  0  0  0  0  0  0  0  0
   36.8457   26.7889   32.5359 H   0  0  0  0  0  0  0  0  0  0  0  0
   38.5816   23.3232   31.5416 H   0  0  0  0  0  0  0  0  0  0  0  0
   39.5773   24.3853   32.6387 H   0  0  0  0  0  0  0  0  0  0  0  0
   36.8731   23.1845   33.3460 H   0  0  0  0  0  0  0  0  0  0  0  0
   38.4457   22.5290   33.8619 H   0  0  0  0  0  0  0  0  0  0  0  0
  2  1  1  0
  3  2  2  0
  4  5  1  0
  4  3  1  0
  5 10  2  0
  6  5  1  0
  6  7  2  0
  7  8  1  0
  8  9  2  0
 10  2  1  0
 10  9  1  0
 11  1  1  0
 11 12  2  0
 13 12  1  0
 14 13  2  0
 15 16  2  0
 15 14  1  0
 16 11  1  0
 17 15  1  0
 18 17  1  0
 19 18  1  0
 20 21  1  0
 20 19  1  0
 21 22  1  0
 22 17  1  0
  3 23  1  0
  4 24  1  0
  6 25  1  0
  7 26  1  0
  8 27  1  0
  9 28  1  0
 12 29  1  0
 13 30  1  0
 18 31  1  0
 18 32  1  0
 19 33  1  0
 19 34  1  0
 21 35  1  0
 21 36  1  0
 22 37  1  0
 22 38  1  0
M  ISO  8  23  14  24   9  25  14  26  14  27  14  28  14  29  14  30  14
M  ISO  8  31  13  32  13  33  13  34  13  35  13  36  13  37  13  38  13
M  END
>  <minimizedAffinity>  (1) 
-5.36052465

>  <minimizedRMSD>  (1) 
0.807450652

$$$$
