
     RDKit          3D

 28 30  0  0  0  0  0  0  0  0999 V2000
   41.9500   22.0650   36.9750 C   0  0  0  0  0  0  0  0  0  0  0  0
   42.5640   23.1960   36.4670 C   0  0  0  0  0  0  0  0  0  0  0  0
   43.7820   22.9110   36.0180 N   0  0  0  0  0  0  0  0  0  0  0  0
   44.0460   21.5900   36.2020 C   0  0  0  0  0  0  0  0  0  0  0  0
   45.1340   20.7930   35.9250 C   0  0  0  0  0  0  0  0  0  0  0  0
   45.0980   19.4410   36.2440 C   0  0  0  0  0  0  0  0  0  0  0  0
   43.9560   18.9010   36.8430 C   0  0  0  0  0  0  0  0  0  0  0  0
   42.8690   19.7380   37.1100 C   0  0  0  0  0  0  0  0  0  0  0  0
   42.9140   21.0820   36.7890 C   0  0  0  0  0  0  0  0  0  0  0  0
   40.6890   21.9930   37.5210 O   0  0  0  0  0  0  0  0  0  0  0  0
   39.6780   22.8850   37.3370 C   0  0  0  0  0  0  0  0  0  0  0  0
   38.9690   23.2760   38.4890 C   0  0  0  0  0  0  0  0  0  0  0  0
   37.9250   24.1950   38.3120 C   0  0  0  0  0  0  0  0  0  0  0  0
   37.6630   24.6480   37.0510 N   0  0  0  0  0  0  0  0  0  0  0  0
   38.3750   24.2400   35.9790 C   0  0  0  0  0  0  0  0  0  0  0  0
   39.3740   23.3680   36.1150 N   0  0  0  0  0  0  0  0  0  0  0  0
   38.0530   24.7630   34.6240 C   0  0  0  0  0  0  0  0  0  0  0  0
   42.1061   24.1957   36.4386 H   0  0  0  0  0  0  0  0  0  0  0  0
   44.4298   23.5901   35.5936 H   0  0  0  0  0  0  0  0  0  0  0  0
   46.0287   21.2250   35.4528 H   0  0  0  0  0  0  0  0  0  0  0  0
   45.9640   18.7986   36.0262 H   0  0  0  0  0  0  0  0  0  0  0  0
   43.9136   17.8324   37.1005 H   0  0  0  0  0  0  0  0  0  0  0  0
   41.9663   19.3222   37.5815 H   0  0  0  0  0  0  0  0  0  0  0  0
   39.2227   22.8785   39.4828 H   0  0  0  0  0  0  0  0  0  0  0  0
   37.3306   24.5431   39.1696 H   0  0  0  0  0  0  0  0  0  0  0  0
   37.4784   25.6963   34.7182 H   0  0  0  0  0  0  0  0  0  0  0  0
   38.9861   24.9606   34.0760 H   0  0  0  0  0  0  0  0  0  0  0  0
   37.4564   24.0188   34.0760 H   0  0  0  0  0  0  0  0  0  0  0  0
  1 10  1  0
  2  1  2  0
  3  4  1  0
  3  2  1  0
  4  9  2  0
  5  4  1  0
  5  6  2  0
  6  7  1  0
  7  8  2  0
  9  1  1  0
  9  8  1  0
 11 10  1  0
 11 12  2  0
 13 12  1  0
 14 13  2  0
 15 16  2  0
 15 14  1  0
 16 11  1  0
 17 15  1  0
  2 18  1  0
  3 19  1  0
  5 20  1  0
  6 21  1  0
  7 22  1  0
  8 23  1  0
 12 24  1  0
 13 25  1  0
 17 26  1  0
 17 27  1  0
 17 28  1  0
M  ISO  8  18  14  19   9  20  14  21  14  22  14  23  14  24  14  25  14
M  ISO  3  26   8  27   8  28   8
M  END
>  <minimizedAffinity>  (1) 
-4.37283325

>  <minimizedRMSD>  (1) 
0.463289559

$$$$
