
     RDKit          3D

 28 30  0  0  0  0  0  0  0  0999 V2000
   41.9000   22.0890   36.8460 C   0  0  0  0  0  0  0  0  0  0  0  0
   42.4590   23.2160   36.2910 C   0  0  0  0  0  0  0  0  0  0  0  0
   43.7140   22.9810   35.8810 N   0  0  0  0  0  0  0  0  0  0  0  0
   44.0350   21.6920   36.1470 C   0  0  0  0  0  0  0  0  0  0  0  0
   45.1710   20.9350   35.9410 C   0  0  0  0  0  0  0  0  0  0  0  0
   45.2050   19.6080   36.3290 C   0  0  0  0  0  0  0  0  0  0  0  0
   44.0860   19.0500   36.9270 C   0  0  0  0  0  0  0  0  0  0  0  0
   42.9330   19.8100   37.1390 C   0  0  0  0  0  0  0  0  0  0  0  0
   42.9190   21.1480   36.7400 C   0  0  0  0  0  0  0  0  0  0  0  0
   40.6340   21.9720   37.3660 O   0  0  0  0  0  0  0  0  0  0  0  0
   39.6530   22.9120   37.3120 C   0  0  0  0  0  0  0  0  0  0  0  0
   39.0170   23.2290   38.5270 C   0  0  0  0  0  0  0  0  0  0  0  0
   38.0070   24.1900   38.5050 C   0  0  0  0  0  0  0  0  0  0  0  0
   37.6920   24.7630   37.3250 N   0  0  0  0  0  0  0  0  0  0  0  0
   38.3270   24.4290   36.1830 C   0  0  0  0  0  0  0  0  0  0  0  0
   39.2930   23.5230   36.1560 N   0  0  0  0  0  0  0  0  0  0  0  0
   37.8850   25.1270   34.9810 C   0  0  0  0  0  0  0  0  0  0  0  0
   37.2680   26.2230   35.0830 O   0  0  0  0  0  0  0  0  0  0  0  0
   38.0660   24.7200   33.6820 O   0  0  0  0  0  0  0  0  0  0  0  0
   41.9443   24.1835   36.1958 H   0  0  0  0  0  0  0  0  0  0  0  0
   44.3352   23.6709   35.4348 H   0  0  0  0  0  0  0  0  0  0  0  0
   46.0531   21.3894   35.4661 H   0  0  0  0  0  0  0  0  0  0  0  0
   46.1089   19.0029   36.1651 H   0  0  0  0  0  0  0  0  0  0  0  0
   44.1060   17.9953   37.2387 H   0  0  0  0  0  0  0  0  0  0  0  0
   42.0484   19.3605   37.6137 H   0  0  0  0  0  0  0  0  0  0  0  0
   39.3079   22.7337   39.4651 H   0  0  0  0  0  0  0  0  0  0  0  0
   37.4797   24.4741   39.4276 H   0  0  0  0  0  0  0  0  0  0  0  0
   38.5392   23.8718   33.4904 H   0  0  0  0  0  0  0  0  0  0  0  0
  1 10  1  0
  2  1  2  0
  3  4  1  0
  3  2  1  0
  4  9  2  0
  5  4  1  0
  5  6  2  0
  6  7  1  0
  7  8  2  0
  9  1  1  0
  9  8  1  0
 11 10  1  0
 11 12  2  0
 13 12  1  0
 14 13  2  0
 15 14  1  0
 16 15  2  0
 16 11  1  0
 17 18  2  0
 17 15  1  0
 19 17  1  0
  2 20  1  0
  3 21  1  0
  5 22  1  0
  6 23  1  0
  7 24  1  0
  8 25  1  0
 12 26  1  0
 13 27  1  0
 19 28  1  0
M  ISO  8  20  14  21   9  22  14  23  14  24  14  25  14  26  14  27  14
M  ISO  1  28   3
M  END
>  <minimizedAffinity>  (1) 
-4.56248045

>  <minimizedRMSD>  (1) 
0.82835412

$$$$
