
     RDKit          3D

 35 38  0  0  0  0  0  0  0  0999 V2000
   39.6780   22.7580   37.6020 C   0  0  0  0  0  0  0  0  0  0  0  0
   39.0380   23.6350   38.4790 C   0  0  0  0  0  0  0  0  0  0  0  0
   37.6690   23.8880   38.2510 C   0  0  0  0  0  0  0  0  0  0  0  0
   37.0520   23.2820   37.2190 N   0  0  0  0  0  0  0  0  0  0  0  0
   37.7220   22.4330   36.3930 C   0  0  0  0  0  0  0  0  0  0  0  0
   39.0080   22.1820   36.5890 N   0  0  0  0  0  0  0  0  0  0  0  0
   37.1410   21.7560   35.2840 N   0  0  0  0  0  0  0  0  0  0  0  0
   37.7030   21.8450   34.0440 C   0  0  0  0  0  0  0  0  0  0  0  0
   37.0830   21.1570   33.0010 C   0  0  0  0  0  0  0  0  0  0  0  0
   35.9340   20.4060   33.2070 C   0  0  0  0  0  0  0  0  0  0  0  0
   35.3720   19.7830   32.2660 O   0  0  0  0  0  0  0  0  0  0  0  0
   35.4170   20.3480   34.4480 N   0  0  0  0  0  0  0  0  0  0  0  0
   36.0180   21.0160   35.4590 C   0  0  0  0  0  0  0  0  0  0  0  0
   35.5470   20.9700   36.6200 O   0  0  0  0  0  0  0  0  0  0  0  0
   41.0050   22.5170   37.8260 O   0  0  0  0  0  0  0  0  0  0  0  0
   41.9770   22.4090   36.8570 C   0  0  0  0  0  0  0  0  0  0  0  0
   42.3530   23.3850   35.9530 C   0  0  0  0  0  0  0  0  0  0  0  0
   43.3400   22.9280   35.1490 N   0  0  0  0  0  0  0  0  0  0  0  0
   43.6490   21.6500   35.4870 C   0  0  0  0  0  0  0  0  0  0  0  0
   44.5580   20.7440   34.9980 C   0  0  0  0  0  0  0  0  0  0  0  0
   44.6460   19.4830   35.5600 C   0  0  0  0  0  0  0  0  0  0  0  0
   43.7990   19.1520   36.6260 C   0  0  0  0  0  0  0  0  0  0  0  0
   42.8830   20.0780   37.1110 C   0  0  0  0  0  0  0  0  0  0  0  0
   42.8070   21.3340   36.5380 C   0  0  0  0  0  0  0  0  0  0  0  0
   39.5779   24.1086   39.3122 H   0  0  0  0  0  0  0  0  0  0  0  0
   37.1123   24.5721   38.9084 H   0  0  0  0  0  0  0  0  0  0  0  0
   38.6132   22.4385   33.8728 H   0  0  0  0  0  0  0  0  0  0  0  0
   37.5151   21.2109   31.9908 H   0  0  0  0  0  0  0  0  0  0  0  0
   34.5659   19.7964   34.6276 H   0  0  0  0  0  0  0  0  0  0  0  0
   41.9118   24.3910   35.8957 H   0  0  0  0  0  0  0  0  0  0  0  0
   43.7888   23.4675   34.3951 H   0  0  0  0  0  0  0  0  0  0  0  0
   45.2153   21.0207   34.1605 H   0  0  0  0  0  0  0  0  0  0  0  0
   45.3708   18.7504   35.1754 H   0  0  0  0  0  0  0  0  0  0  0  0
   43.8594   18.1528   37.0820 H   0  0  0  0  0  0  0  0  0  0  0  0
   42.2206   19.8124   37.9481 H   0  0  0  0  0  0  0  0  0  0  0  0
  1 15  1  0
  1  2  2  0
  3  2  1  0
  4  3  2  0
  5  6  2  0
  5  4  1  0
  6  1  1  0
  7 13  1  0
  7  5  1  0
  8  7  1  0
  9 10  1  0
  9  8  2  0
 10 12  1  0
 11 10  2  0
 12 13  1  0
 13 14  2  0
 16 15  1  0
 17 16  2  0
 18 19  1  0
 18 17  1  0
 19 24  2  0
 20 19  1  0
 20 21  2  0
 21 22  1  0
 22 23  2  0
 24 16  1  0
 24 23  1  0
  2 25  1  0
  3 26  1  0
  8 27  1  0
  9 28  1  0
 12 29  1  0
 17 30  1  0
 18 31  1  0
 20 32  1  0
 21 33  1  0
 22 34  1  0
 23 35  1  0
M  ISO  8  25  14  26  14  27  14  28  14  29   9  30  14  31   9  32  14
M  ISO  3  33  14  34  14  35  14
M  END
>  <minimizedAffinity>  (1) 
-5.88914967

>  <minimizedRMSD>  (1) 
1.73648107

$$$$
