
     RDKit          3D

 37 40  0  0  0  0  0  0  0  0999 V2000
   39.7110   22.7880   37.5360 C   0  0  0  0  0  0  0  0  0  0  0  0
   39.0790   23.6380   38.4480 C   0  0  0  0  0  0  0  0  0  0  0  0
   37.7010   23.8540   38.2740 C   0  0  0  0  0  0  0  0  0  0  0  0
   37.0570   23.2410   37.2490 N   0  0  0  0  0  0  0  0  0  0  0  0
   37.7190   22.4290   36.3960 C   0  0  0  0  0  0  0  0  0  0  0  0
   39.0130   22.2110   36.5400 N   0  0  0  0  0  0  0  0  0  0  0  0
   37.1100   21.7480   35.2910 N   0  0  0  0  0  0  0  0  0  0  0  0
   37.6240   21.8710   34.0430 C   0  0  0  0  0  0  0  0  0  0  0  0
   36.9830   21.1810   33.0040 C   0  0  0  0  0  0  0  0  0  0  0  0
   35.8640   20.3990   33.2440 C   0  0  0  0  0  0  0  0  0  0  0  0
   35.2800   19.7720   32.3140 O   0  0  0  0  0  0  0  0  0  0  0  0
   35.3910   20.3080   34.5030 N   0  0  0  0  0  0  0  0  0  0  0  0
   36.0170   20.9800   35.5020 C   0  0  0  0  0  0  0  0  0  0  0  0
   35.5880   20.9040   36.6790 O   0  0  0  0  0  0  0  0  0  0  0  0
   41.0430   22.5790   37.7050 O   0  0  0  0  0  0  0  0  0  0  0  0
   41.9940   22.5550   36.7070 C   0  0  0  0  0  0  0  0  0  0  0  0
   42.2280   23.5500   35.7710 C   0  0  0  0  0  0  0  0  0  0  0  0
   43.2300   23.1850   34.9540 N   0  0  0  0  0  0  0  0  0  0  0  0
   43.6990   21.9620   35.2970 C   0  0  0  0  0  0  0  0  0  0  0  0
   44.6860   21.1550   34.8010 C   0  0  0  0  0  0  0  0  0  0  0  0
   44.9320   19.9230   35.3890 C   0  0  0  0  0  0  0  0  0  0  0  0
   44.1660   19.5190   36.4860 C   0  0  0  0  0  0  0  0  0  0  0  0
   43.1710   20.3440   36.9770 C   0  0  0  0  0  0  0  0  0  0  0  0
   42.9360   21.5610   36.3880 C   0  0  0  0  0  0  0  0  0  0  0  0
   42.4020   19.9160   38.0940 N   0  0  0  0  0  0  0  0  0  0  0  0
   39.6360   24.1172   39.2666 H   0  0  0  0  0  0  0  0  0  0  0  0
   37.1505   24.5130   38.9615 H   0  0  0  0  0  0  0  0  0  0  0  0
   38.5128   22.4903   33.8518 H   0  0  0  0  0  0  0  0  0  0  0  0
   37.3755   21.2618   31.9796 H   0  0  0  0  0  0  0  0  0  0  0  0
   34.5608   19.7328   34.7052 H   0  0  0  0  0  0  0  0  0  0  0  0
   41.6749   24.4986   35.7066 H   0  0  0  0  0  0  0  0  0  0  0  0
   43.5908   23.7554   34.1759 H   0  0  0  0  0  0  0  0  0  0  0  0
   45.2835   21.4825   33.9374 H   0  0  0  0  0  0  0  0  0  0  0  0
   45.7238   19.2690   34.9949 H   0  0  0  0  0  0  0  0  0  0  0  0
   44.3548   18.5440   36.9591 H   0  0  0  0  0  0  0  0  0  0  0  0
   41.6579   20.5213   38.4693 H   0  0  0  0  0  0  0  0  0  0  0  0
   42.5891   19.0007   38.5278 H   0  0  0  0  0  0  0  0  0  0  0  0
  1 15  1  0
  1  2  2  0
  3  2  1  0
  4  3  2  0
  5  6  2  0
  5  4  1  0
  6  1  1  0
  7 13  1  0
  7  5  1  0
  8  7  1  0
  9 10  1  0
  9  8  2  0
 10 12  1  0
 11 10  2  0
 12 13  1  0
 13 14  2  0
 16 15  1  0
 17 16  2  0
 18 19  1  0
 18 17  1  0
 19 24  2  0
 20 19  1  0
 20 21  2  0
 21 22  1  0
 22 23  2  0
 23 25  1  0
 24 16  1  0
 24 23  1  0
  2 26  1  0
  3 27  1  0
  8 28  1  0
  9 29  1  0
 12 30  1  0
 17 31  1  0
 18 32  1  0
 20 33  1  0
 21 34  1  0
 22 35  1  0
 25 36  1  0
 25 37  1  0
M  ISO  8  26  14  27  14  28  14  29  14  30   9  31  14  32   9  33  14
M  ISO  2  34  14  35  14
M  END
>  <minimizedAffinity>  (1) 
-6.45074892

>  <minimizedRMSD>  (1) 
0.262989193

$$$$
