
     RDKit          3D

 34 35  0  0  1  0  0  0  0  0999 V2000
   41.5490   22.3100   37.0040 C   0  0  2  0  0  0  0  0  0  0  0  0
   40.0650   22.5690   37.0400 C   0  0  0  0  0  0  0  0  0  0  0  0
   39.4750   23.1650   38.1600 C   0  0  0  0  0  0  0  0  0  0  0  0
   38.0960   23.3900   38.1200 C   0  0  0  0  0  0  0  0  0  0  0  0
   37.4030   23.0180   36.9940 N   0  0  0  0  0  0  0  0  0  0  0  0
   38.0070   22.4490   35.9400 C   0  0  0  0  0  0  0  0  0  0  0  0
   39.3370   22.2310   35.9780 N   0  0  0  0  0  0  0  0  0  0  0  0
   42.1560   23.5650   36.4320 C   0  0  0  0  0  0  0  0  0  0  0  0
   41.8230   21.1200   36.1240 C   0  0  0  0  0  0  0  0  0  0  0  0
   43.1120   20.5620   36.3420 N   0  0  0  0  0  0  0  0  0  0  0  0
   43.9630   20.5640   35.1830 C   0  0  0  0  0  0  0  0  0  0  0  0
   45.4190   20.3510   35.5290 C   0  0  0  0  0  0  0  0  0  0  0  0
   45.5760   19.3670   36.6710 C   0  0  0  0  0  0  0  0  0  0  0  0
   44.3170   18.5290   36.7390 C   0  0  0  0  0  0  0  0  0  0  0  0
   43.2000   19.4390   37.1960 C   0  0  0  0  0  0  0  0  0  0  0  0
   41.9704   22.0844   37.9947 H   0  0  0  0  0  0  0  0  0  0  0  0
   40.0738   23.4459   39.0389 H   0  0  0  0  0  0  0  0  0  0  0  0
   37.5773   23.8547   38.9715 H   0  0  0  0  0  0  0  0  0  0  0  0
   37.4227   22.1630   35.0530 H   0  0  0  0  0  0  0  0  0  0  0  0
   42.4751   24.2248   37.2523 H   0  0  0  0  0  0  0  0  0  0  0  0
   43.0265   23.3021   35.8131 H   0  0  0  0  0  0  0  0  0  0  0  0
   41.4095   24.0842   35.8131 H   0  0  0  0  0  0  0  0  0  0  0  0
   41.7492   21.4352   35.0727 H   0  0  0  0  0  0  0  0  0  0  0  0
   41.0802   20.3468   36.3699 H   0  0  0  0  0  0  0  0  0  0  0  0
   43.8605   21.5330   34.6726 H   0  0  0  0  0  0  0  0  0  0  0  0
   43.6489   19.7299   34.5383 H   0  0  0  0  0  0  0  0  0  0  0  0
   45.9439   19.9603   34.6448 H   0  0  0  0  0  0  0  0  0  0  0  0
   45.8462   21.3155   35.8409 H   0  0  0  0  0  0  0  0  0  0  0  0
   46.4466   18.7196   36.4896 H   0  0  0  0  0  0  0  0  0  0  0  0
   45.7321   19.9021   37.6193 H   0  0  0  0  0  0  0  0  0  0  0  0
   44.0847   18.1161   35.7462 H   0  0  0  0  0  0  0  0  0  0  0  0
   44.4449   17.6870   37.4352 H   0  0  0  0  0  0  0  0  0  0  0  0
   43.4026   19.7772   38.2229 H   0  0  0  0  0  0  0  0  0  0  0  0
   42.2491   18.8869   37.1661 H   0  0  0  0  0  0  0  0  0  0  0  0
  1  2  1  0
  2  3  2  0
  4  3  1  0
  5  4  2  0
  6  7  2  0
  6  5  1  0
  7  2  1  0
  8  1  1  0
  9 10  1  0
  9  1  1  0
 10 15  1  0
 11 12  1  0
 11 10  1  0
 12 13  1  0
 13 14  1  0
 14 15  1  0
  1 16  1  1
  3 17  1  0
  4 18  1  0
  6 19  1  0
  8 20  1  0
  8 21  1  0
  8 22  1  0
  9 23  1  0
  9 24  1  0
 11 25  1  0
 11 26  1  0
 12 27  1  0
 12 28  1  0
 13 29  1  0
 13 30  1  0
 14 31  1  0
 14 32  1  0
 15 33  1  0
 15 34  1  0
M  ISO  8  16   8  17  14  18  14  19  14  20   8  21   8  22   8  23   8
M  ISO  8  24   8  25  13  26  13  27  13  28  13  29  13  30  13  31  13
M  ISO  3  32  13  33  13  34  13
M  END
>  <minimizedAffinity>  (1) 
-3.39918923

>  <minimizedRMSD>  (1) 
0.88298291

$$$$
