
     RDKit          3D

 43 47  0  0  0  0  0  0  0  0999 V2000
   42.6060   22.7630   36.2660 C   0  0  0  0  0  0  0  0  0  0  0  0
   42.4910   24.1460   36.2860 C   0  0  0  0  0  0  0  0  0  0  0  0
   43.7100   24.7160   36.1400 N   0  0  0  0  0  0  0  0  0  0  0  0
   44.6540   23.7480   36.0220 C   0  0  0  0  0  0  0  0  0  0  0  0
   46.0060   23.8060   35.8540 C   0  0  0  0  0  0  0  0  0  0  0  0
   46.7300   22.6230   35.7590 C   0  0  0  0  0  0  0  0  0  0  0  0
   46.0530   21.4140   35.8380 C   0  0  0  0  0  0  0  0  0  0  0  0
   44.6720   21.3520   36.0100 C   0  0  0  0  0  0  0  0  0  0  0  0
   43.9790   22.5290   36.1000 C   0  0  0  0  0  0  0  0  0  0  0  0
   44.0740   20.0310   36.0850 C   0  0  0  0  0  0  0  0  0  0  0  0
   43.7640   19.3440   34.9390 C   0  0  0  0  0  0  0  0  0  0  0  0
   43.1920   18.0980   34.8800 C   0  0  0  0  0  0  0  0  0  0  0  0
   42.8910   17.4590   36.0400 N   0  0  0  0  0  0  0  0  0  0  0  0
   43.1820   18.1100   37.1780 C   0  0  0  0  0  0  0  0  0  0  0  0
   43.7350   19.3110   37.1380 N   0  0  0  0  0  0  0  0  0  0  0  0
   41.5750   21.8760   36.3880 O   0  0  0  0  0  0  0  0  0  0  0  0
   40.2400   22.1990   36.5210 C   0  0  0  0  0  0  0  0  0  0  0  0
   39.8710   22.8780   37.6820 C   0  0  0  0  0  0  0  0  0  0  0  0
   38.5040   23.2080   37.8180 C   0  0  0  0  0  0  0  0  0  0  0  0
   37.6410   22.8610   36.8450 N   0  0  0  0  0  0  0  0  0  0  0  0
   38.0610   22.2000   35.7370 C   0  0  0  0  0  0  0  0  0  0  0  0
   39.3330   21.8770   35.5800 N   0  0  0  0  0  0  0  0  0  0  0  0
   37.2080   21.7960   34.6610 N   0  0  0  0  0  0  0  0  0  0  0  0
   37.5040   22.1440   33.3860 C   0  0  0  0  0  0  0  0  0  0  0  0
   36.6280   21.7160   32.3830 C   0  0  0  0  0  0  0  0  0  0  0  0
   35.5000   20.9650   32.6730 C   0  0  0  0  0  0  0  0  0  0  0  0
   34.7020   20.5710   31.7840 O   0  0  0  0  0  0  0  0  0  0  0  0
   35.2580   20.6500   33.9590 N   0  0  0  0  0  0  0  0  0  0  0  0
   36.0980   21.0590   34.9320 C   0  0  0  0  0  0  0  0  0  0  0  0
   35.8830   20.7700   36.1360 O   0  0  0  0  0  0  0  0  0  0  0  0
   41.5470   24.6983   36.4034 H   0  0  0  0  0  0  0  0  0  0  0  0
   43.8932   25.7294   36.1213 H   0  0  0  0  0  0  0  0  0  0  0  0
   46.5179   24.7778   35.7943 H   0  0  0  0  0  0  0  0  0  0  0  0
   47.8214   22.6448   35.6235 H   0  0  0  0  0  0  0  0  0  0  0  0
   46.6239   20.4768   35.7625 H   0  0  0  0  0  0  0  0  0  0  0  0
   43.9944   19.8355   33.9822 H   0  0  0  0  0  0  0  0  0  0  0  0
   42.9809   17.6248   33.9097 H   0  0  0  0  0  0  0  0  0  0  0  0
   42.9594   17.6421   38.1483 H   0  0  0  0  0  0  0  0  0  0  0  0
   40.6082   23.1436   38.4540 H   0  0  0  0  0  0  0  0  0  0  0  0
   38.1483   23.7435   38.7106 H   0  0  0  0  0  0  0  0  0  0  0  0
   38.3978   22.7396   33.1486 H   0  0  0  0  0  0  0  0  0  0  0  0
   36.8399   21.9824   31.3370 H   0  0  0  0  0  0  0  0  0  0  0  0
   34.4262   20.0931   34.2017 H   0  0  0  0  0  0  0  0  0  0  0  0
  1  2  2  0
  1 16  1  0
  3  2  1  0
  4  9  2  0
  4  3  1  0
  5  4  1  0
  6  7  1  0
  6  5  2  0
  7  8  2  0
  8 10  1  0
  8  9  1  0
  9  1  1  0
 10 15  1  0
 11 10  2  0
 12 11  1  0
 12 13  2  0
 13 14  1  0
 15 14  2  0
 16 17  1  0
 17 18  2  0
 18 19  1  0
 20 19  2  0
 21 20  1  0
 22 21  2  0
 22 17  1  0
 23 29  1  0
 23 21  1  0
 24 23  1  0
 25 26  1  0
 25 24  2  0
 26 28  1  0
 27 26  2  0
 28 29  1  0
 29 30  2  0
  2 31  1  0
  3 32  1  0
  5 33  1  0
  6 34  1  0
  7 35  1  0
 11 36  1  0
 12 37  1  0
 14 38  1  0
 18 39  1  0
 19 40  1  0
 24 41  1  0
 25 42  1  0
 28 43  1  0
M  ISO  8  31  14  32   9  33  14  34  14  35  14  36  14  37  14  38  14
M  ISO  5  39  14  40  14  41  14  42  14  43   9
M  END
>  <minimizedAffinity>  (1) 
-5.81986141

>  <minimizedRMSD>  (1) 
2.46834111

$$$$
