
     RDKit          3D

 44 47  0  0  0  0  0  0  0  0999 V2000
   40.1350   22.2650   36.9410 C   0  0  0  0  0  0  0  0  0  0  0  0
   39.6980   23.0620   38.0070 C   0  0  0  0  0  0  0  0  0  0  0  0
   38.3320   23.4110   38.0330 C   0  0  0  0  0  0  0  0  0  0  0  0
   37.5190   22.9730   37.0520 N   0  0  0  0  0  0  0  0  0  0  0  0
   37.9920   22.2050   36.0430 C   0  0  0  0  0  0  0  0  0  0  0  0
   39.2770   21.8610   35.9960 N   0  0  0  0  0  0  0  0  0  0  0  0
   37.2000   21.6990   34.9650 N   0  0  0  0  0  0  0  0  0  0  0  0
   37.5660   21.9060   33.6750 C   0  0  0  0  0  0  0  0  0  0  0  0
   36.7570   21.3910   32.6720 C   0  0  0  0  0  0  0  0  0  0  0  0
   35.6000   20.6810   32.9770 C   0  0  0  0  0  0  0  0  0  0  0  0
   34.8610   20.2100   32.0630 O   0  0  0  0  0  0  0  0  0  0  0  0
   35.2700   20.4960   34.2750 N   0  0  0  0  0  0  0  0  0  0  0  0
   36.0720   21.0050   35.2340 C   0  0  0  0  0  0  0  0  0  0  0  0
   35.7800   20.8420   36.4440 O   0  0  0  0  0  0  0  0  0  0  0  0
   41.4580   21.9250   36.9120 O   0  0  0  0  0  0  0  0  0  0  0  0
   42.4770   22.7020   36.4170 C   0  0  0  0  0  0  0  0  0  0  0  0
   42.4490   24.0750   36.2160 C   0  0  0  0  0  0  0  0  0  0  0  0
   43.6380   24.4990   35.7130 N   0  0  0  0  0  0  0  0  0  0  0  0
   44.4720   23.4430   35.5680 C   0  0  0  0  0  0  0  0  0  0  0  0
   45.7640   23.3240   35.1110 C   0  0  0  0  0  0  0  0  0  0  0  0
   46.3700   22.0920   35.0760 C   0  0  0  0  0  0  0  0  0  0  0  0
   45.6580   20.9690   35.5120 C   0  0  0  0  0  0  0  0  0  0  0  0
   44.3500   21.0990   35.9740 C   0  0  0  0  0  0  0  0  0  0  0  0
   43.7520   22.3360   36.0040 C   0  0  0  0  0  0  0  0  0  0  0  0
   43.6640   19.8780   36.4150 C   0  0  0  0  0  0  0  0  0  0  0  0
   43.0130   19.1250   35.2850 C   0  0  0  0  0  0  0  0  0  0  0  0
   44.6730   19.0250   37.1560 C   0  0  0  0  0  0  0  0  0  0  0  0
   40.3913   23.4013   38.7908 H   0  0  0  0  0  0  0  0  0  0  0  0
   37.9339   24.0351   38.8467 H   0  0  0  0  0  0  0  0  0  0  0  0
   38.4799   22.4673   33.4306 H   0  0  0  0  0  0  0  0  0  0  0  0
   37.0349   21.5466   31.6191 H   0  0  0  0  0  0  0  0  0  0  0  0
   34.4189   19.9742   34.5284 H   0  0  0  0  0  0  0  0  0  0  0  0
   41.5889   24.7257   36.4325 H   0  0  0  0  0  0  0  0  0  0  0  0
   43.8692   25.4748   35.4780 H   0  0  0  0  0  0  0  0  0  0  0  0
   46.3121   24.2160   34.7734 H   0  0  0  0  0  0  0  0  0  0  0  0
   47.4022   21.9893   34.7098 H   0  0  0  0  0  0  0  0  0  0  0  0
   46.1339   19.9775   35.4898 H   0  0  0  0  0  0  0  0  0  0  0  0
   42.8327   20.1526   37.0810 H   0  0  0  0  0  0  0  0  0  0  0  0
   42.3455   18.3529   35.6954 H   0  0  0  0  0  0  0  0  0  0  0  0
   42.4295   19.8234   34.6671 H   0  0  0  0  0  0  0  0  0  0  0  0
   43.7884   18.6486   34.6671 H   0  0  0  0  0  0  0  0  0  0  0  0
   44.5298   19.1461   38.2399 H   0  0  0  0  0  0  0  0  0  0  0  0
   44.5311   17.9689   36.8831 H   0  0  0  0  0  0  0  0  0  0  0  0
   45.6908   19.3407   36.8831 H   0  0  0  0  0  0  0  0  0  0  0  0
  1  2  2  0
  2  3  1  0
  4  3  2  0
  5  4  1  0
  6  5  2  0
  6  1  1  0
  7 13  1  0
  7  5  1  0
  8  7  1  0
  9 10  1  0
  9  8  2  0
 10 12  1  0
 11 10  2  0
 12 13  1  0
 13 14  2  0
 15  1  1  0
 16 15  1  0
 17 16  2  0
 18 17  1  0
 19 18  1  0
 19 24  2  0
 20 19  1  0
 21 20  2  0
 21 22  1  0
 22 23  2  0
 23 24  1  0
 23 25  1  0
 24 16  1  0
 25 27  1  0
 26 25  1  0
  2 28  1  0
  3 29  1  0
  8 30  1  0
  9 31  1  0
 12 32  1  0
 17 33  1  0
 18 34  1  0
 20 35  1  0
 21 36  1  0
 22 37  1  0
 25 38  1  0
 26 39  1  0
 26 40  1  0
 26 41  1  0
 27 42  1  0
 27 43  1  0
 27 44  1  0
M  ISO  8  28  14  29  14  30  14  31  14  32   9  33  14  34   9  35  14
M  ISO  8  36  14  37  14  38   8  39   8  40   8  41   8  42   8  43   8
M  ISO  1  44   8
M  END
>  <minimizedAffinity>  (1) 
-5.63322496

>  <minimizedRMSD>  (1) 
1.72955334

$$$$
