
     RDKit          3D

 19 20  0  0  0  0  0  0  0  0999 V2000
   37.7970   24.4980   36.8080 C   0  0  0  0  0  0  0  0  0  0  0  0
   38.8190   24.0410   35.9670 C   0  0  0  0  0  0  0  0  0  0  0  0
   39.8070   23.2150   36.5000 C   0  0  0  0  0  0  0  0  0  0  0  0
   39.7190   22.8950   37.8320 N   0  0  0  0  0  0  0  0  0  0  0  0
   38.7250   23.3510   38.6090 C   0  0  0  0  0  0  0  0  0  0  0  0
   37.7760   24.1430   38.1050 N   0  0  0  0  0  0  0  0  0  0  0  0
   40.9200   22.6990   35.6470 C   0  0  0  0  0  0  0  0  0  0  0  0
   42.1370   23.4210   35.9010 N   0  0  0  0  0  0  0  0  0  0  0  0
   43.2160   23.1110   36.6420 C   0  0  0  0  0  0  0  0  0  0  0  0
   44.1110   24.1220   36.5670 N   0  0  0  0  0  0  0  0  0  0  0  0
   43.5850   25.0680   35.7720 C   0  0  0  0  0  0  0  0  0  0  0  0
   42.3790   24.6120   35.3800 N   0  0  0  0  0  0  0  0  0  0  0  0
   37.0078   25.1503   36.4060 H   0  0  0  0  0  0  0  0  0  0  0  0
   38.8417   24.3285   34.9055 H   0  0  0  0  0  0  0  0  0  0  0  0
   38.6917   23.0695   39.6718 H   0  0  0  0  0  0  0  0  0  0  0  0
   40.6462   22.8156   34.5880 H   0  0  0  0  0  0  0  0  0  0  0  0
   41.0839   21.6380   35.8864 H   0  0  0  0  0  0  0  0  0  0  0  0
   43.3491   22.1830   37.2173 H   0  0  0  0  0  0  0  0  0  0  0  0
   44.0477   26.0268   35.4952 H   0  0  0  0  0  0  0  0  0  0  0  0
  1  6  2  0
  2  3  2  0
  2  1  1  0
  3  4  1  0
  4  5  2  0
  6  5  1  0
  7  8  1  0
  7  3  1  0
  8  9  1  0
 10  9  2  0
 11 10  1  0
 12 11  2  0
 12  8  1  0
  1 13  1  0
  2 14  1  0
  5 15  1  0
  7 16  1  0
  7 17  1  0
  9 18  1  0
 11 19  1  0
M  ISO  7  13  14  14  14  15  14  16   8  17   8  18  14  19  14
M  END
>  <minimizedAffinity>  (1) 
-3.29375029

>  <minimizedRMSD>  (1) 
5.86482286

$$$$
