
     RDKit          3D

 33 35  0  0  1  0  0  0  0  0999 V2000
   37.7180   23.9030   33.6660 N   0  0  0  0  0  0  0  0  0  0  0  0
   37.9730   22.6390   33.0210 C   0  0  0  0  0  0  0  0  0  0  0  0
   37.1070   22.6620   31.7790 C   0  0  0  0  0  0  0  0  0  0  0  0
   36.4240   24.0220   31.8290 C   0  0  0  0  0  0  0  0  0  0  0  0
   37.5430   24.7880   32.5720 C   0  0  1  0  0  0  0  0  0  0  0  0
   36.9730   26.1180   32.8380 C   0  0  0  0  0  0  0  0  0  0  0  0
   37.0710   26.9410   33.9330 C   0  0  0  0  0  0  0  0  0  0  0  0
   36.4750   28.1780   34.0290 C   0  0  0  0  0  0  0  0  0  0  0  0
   35.7330   28.6560   33.0050 N   0  0  0  0  0  0  0  0  0  0  0  0
   35.6450   27.8390   31.9390 C   0  0  0  0  0  0  0  0  0  0  0  0
   36.2160   26.6320   31.8220 N   0  0  0  0  0  0  0  0  0  0  0  0
   38.8980   24.3610   34.3890 C   0  0  0  0  0  0  0  0  0  0  0  0
   37.8640   24.0950   38.0080 C   0  0  0  0  0  0  0  0  0  0  0  0
   37.8920   24.4460   36.6580 C   0  0  0  0  0  0  0  0  0  0  0  0
   38.8860   23.9710   35.8120 C   0  0  0  0  0  0  0  0  0  0  0  0
   39.8240   23.1500   36.3660 N   0  0  0  0  0  0  0  0  0  0  0  0
   39.7920   22.8130   37.6780 C   0  0  0  0  0  0  0  0  0  0  0  0
   38.8260   23.2800   38.4830 N   0  0  0  0  0  0  0  0  0  0  0  0
   39.0356   22.5479   32.7518 H   0  0  0  0  0  0  0  0  0  0  0  0
   37.7433   21.7839   33.6737 H   0  0  0  0  0  0  0  0  0  0  0  0
   36.3646   21.8508   31.8053 H   0  0  0  0  0  0  0  0  0  0  0  0
   37.6874   22.5142   30.8563 H   0  0  0  0  0  0  0  0  0  0  0  0
   36.2326   24.4308   30.8259 H   0  0  0  0  0  0  0  0  0  0  0  0
   35.4269   24.0481   32.2927 H   0  0  0  0  0  0  0  0  0  0  0  0
   38.5169   25.0005   32.1068 H   0  0  0  0  0  0  0  0  0  0  0  0
   37.6646   26.5886   34.7894 H   0  0  0  0  0  0  0  0  0  0  0  0
   36.6028   28.7792   34.9413 H   0  0  0  0  0  0  0  0  0  0  0  0
   35.0496   28.1946   31.0851 H   0  0  0  0  0  0  0  0  0  0  0  0
   39.7908   23.9283   33.9139 H   0  0  0  0  0  0  0  0  0  0  0  0
   38.9048   25.4602   34.3477 H   0  0  0  0  0  0  0  0  0  0  0  0
   37.0730   24.4757   38.6708 H   0  0  0  0  0  0  0  0  0  0  0  0
   37.1130   25.1108   36.2564 H   0  0  0  0  0  0  0  0  0  0  0  0
   40.5672   22.1488   38.0877 H   0  0  0  0  0  0  0  0  0  0  0  0
  1 12  1  0
  2  1  1  0
  3  4  1  0
  3  2  1  0
  4  5  1  0
  5  6  1  0
  5  1  1  0
  6  7  2  0
  7  8  1  0
  9  8  2  0
 10  9  1  0
 11 10  2  0
 11  6  1  0
 12 15  1  0
 13 18  2  0
 14 13  1  0
 15 16  1  0
 15 14  2  0
 16 17  2  0
 17 18  1  0
  2 19  1  0
  2 20  1  0
  3 21  1  0
  3 22  1  0
  4 23  1  0
  4 24  1  0
  5 25  1  6
  7 26  1  0
  8 27  1  0
 10 28  1  0
 12 29  1  0
 12 30  1  0
 13 31  1  0
 14 32  1  0
 17 33  1  0
M  ISO  8  19  13  20  13  21  13  22  13  23  13  24  13  25  13  26  14
M  ISO  7  27  14  28  14  29   8  30   8  31  14  32  14  33  14
M  END
>  <minimizedAffinity>  (1) 
-4.59461927

>  <minimizedRMSD>  (1) 
3.22785902

$$$$
