
     RDKit          3D

 35 37  0  0  1  0  0  0  0  0999 V2000
   37.1840   25.6150   33.4040 N   0  0  0  0  0  0  0  0  0  0  0  0
   36.7390   26.8580   32.8350 C   0  0  0  0  0  0  0  0  0  0  0  0
   36.8800   27.8810   33.9280 C   0  0  0  0  0  0  0  0  0  0  0  0
   37.3850   27.0580   35.1350 C   0  0  0  0  0  0  0  0  0  0  0  0
   38.1790   26.0200   34.3290 C   0  0  1  0  0  0  0  0  0  0  0  0
   38.6840   25.0390   35.2380 N   0  0  0  0  0  0  0  0  0  0  0  0
   37.9810   24.4970   36.2460 C   0  0  0  0  0  0  0  0  0  0  0  0
   38.4340   23.5530   37.1430 C   0  0  0  0  0  0  0  0  0  0  0  0
   39.7330   23.1050   37.0130 C   0  0  0  0  0  0  0  0  0  0  0  0
   40.2400   22.2540   37.7700 O   0  0  0  0  0  0  0  0  0  0  0  0
   40.4620   23.6290   36.0120 N   0  0  0  0  0  0  0  0  0  0  0  0
   39.9540   24.5490   35.1740 C   0  0  0  0  0  0  0  0  0  0  0  0
   40.7400   24.9590   34.2800 O   0  0  0  0  0  0  0  0  0  0  0  0
   37.7990   24.7580   32.4100 C   0  0  0  0  0  0  0  0  0  0  0  0
   36.7740   21.1890   33.0650 C   0  0  0  0  0  0  0  0  0  0  0  0
   37.4240   22.4210   33.1870 C   0  0  0  0  0  0  0  0  0  0  0  0
   37.1230   23.4430   32.2970 C   0  0  0  0  0  0  0  0  0  0  0  0
   36.1930   23.1950   31.3270 N   0  0  0  0  0  0  0  0  0  0  0  0
   35.5770   22.0010   31.2230 C   0  0  0  0  0  0  0  0  0  0  0  0
   35.8720   21.0040   32.0950 N   0  0  0  0  0  0  0  0  0  0  0  0
   37.3646   27.1303   31.9721 H   0  0  0  0  0  0  0  0  0  0  0  0
   35.7021   26.7905   32.4742 H   0  0  0  0  0  0  0  0  0  0  0  0
   37.6090   28.6559   33.6487 H   0  0  0  0  0  0  0  0  0  0  0  0
   35.9409   28.4140   34.1376 H   0  0  0  0  0  0  0  0  0  0  0  0
   38.0242   27.6471   35.8090 H   0  0  0  0  0  0  0  0  0  0  0  0
   36.6195   26.6691   35.8226 H   0  0  0  0  0  0  0  0  0  0  0  0
   39.0889   26.3310   33.7948 H   0  0  0  0  0  0  0  0  0  0  0  0
   36.9428   24.8396   36.3677 H   0  0  0  0  0  0  0  0  0  0  0  0
   37.7794   23.1682   37.9389 H   0  0  0  0  0  0  0  0  0  0  0  0
   41.4353   23.3172   35.8840 H   0  0  0  0  0  0  0  0  0  0  0  0
   37.7547   25.2624   31.4335 H   0  0  0  0  0  0  0  0  0  0  0  0
   38.8371   24.5741   32.7237 H   0  0  0  0  0  0  0  0  0  0  0  0
   37.0042   20.3731   33.7659 H   0  0  0  0  0  0  0  0  0  0  0  0
   38.1679   22.5791   33.9818 H   0  0  0  0  0  0  0  0  0  0  0  0
   34.8335   21.8342   30.4296 H   0  0  0  0  0  0  0  0  0  0  0  0
  1  5  1  0
  2  1  1  0
  2  3  1  0
  3  4  1  0
  5  4  1  0
  5  6  1  0
  6  7  1  0
  7  8  2  0
  9  8  1  0
  9 10  2  0
 11  9  1  0
 12  6  1  0
 12 11  1  0
 13 12  2  0
 14  1  1  0
 15 16  2  0
 17 14  1  0
 17 16  1  0
 18 17  2  0
 19 18  1  0
 19 20  2  0
 20 15  1  0
  2 21  1  0
  2 22  1  0
  3 23  1  0
  3 24  1  0
  4 25  1  0
  4 26  1  0
  5 27  1  6
  7 28  1  0
  8 29  1  0
 11 30  1  0
 14 31  1  0
 14 32  1  0
 15 33  1  0
 16 34  1  0
 19 35  1  0
M  ISO  8  21  13  22  13  23  13  24  13  25  13  26  13  27  13  28  14
M  ISO  7  29  14  30   9  31   8  32   8  33  14  34  14  35  14
M  END
>  <minimizedAffinity>  (1) 
-4.75129652

>  <minimizedRMSD>  (1) 
4.45031786

$$$$
