
     RDKit          3D

 39 42  0  0  1  0  0  0  0  0999 V2000
   37.4500   23.8800   33.1230 N   0  0  0  0  0  0  0  0  0  0  0  0
   37.9640   22.9210   32.2210 C   0  0  0  0  0  0  0  0  0  0  0  0
   36.9230   22.7770   31.1240 C   0  0  0  0  0  0  0  0  0  0  0  0
   35.8460   23.7740   31.4880 C   0  0  0  0  0  0  0  0  0  0  0  0
   36.6790   24.7580   32.2850 C   0  0  2  0  0  0  0  0  0  0  0  0
   37.4350   25.6760   31.4460 C   0  0  0  0  0  0  0  0  0  0  0  0
   38.5120   25.3460   30.7340 N   0  0  0  0  0  0  0  0  0  0  0  0
   39.2090   26.1960   29.9630 C   0  0  0  0  0  0  0  0  0  0  0  0
   38.8460   27.5050   29.8550 N   0  0  0  0  0  0  0  0  0  0  0  0
   37.7570   27.9310   30.5470 C   0  0  0  0  0  0  0  0  0  0  0  0
   37.4090   29.2440   30.4210 C   0  0  0  0  0  0  0  0  0  0  0  0
   36.3140   29.7190   31.0990 C   0  0  0  0  0  0  0  0  0  0  0  0
   35.5940   28.8600   31.8880 C   0  0  0  0  0  0  0  0  0  0  0  0
   35.9970   27.5420   31.9750 C   0  0  0  0  0  0  0  0  0  0  0  0
   37.0860   27.0050   31.3200 C   0  0  0  0  0  0  0  0  0  0  0  0
   38.4230   24.6460   33.8290 C   0  0  0  0  0  0  0  0  0  0  0  0
   38.0070   24.3610   37.5660 C   0  0  0  0  0  0  0  0  0  0  0  0
   37.8120   24.8260   36.2750 C   0  0  0  0  0  0  0  0  0  0  0  0
   38.5490   24.2250   35.2630 C   0  0  0  0  0  0  0  0  0  0  0  0
   39.4340   23.2040   35.5780 N   0  0  0  0  0  0  0  0  0  0  0  0
   39.5820   22.7940   36.8510 C   0  0  0  0  0  0  0  0  0  0  0  0
   38.8610   23.3820   37.8390 N   0  0  0  0  0  0  0  0  0  0  0  0
   38.9189   23.2670   31.7986 H   0  0  0  0  0  0  0  0  0  0  0  0
   38.1573   21.9606   32.7213 H   0  0  0  0  0  0  0  0  0  0  0  0
   36.5163   21.7551   31.1061 H   0  0  0  0  0  0  0  0  0  0  0  0
   37.3421   22.9618   30.1239 H   0  0  0  0  0  0  0  0  0  0  0  0
   35.3999   24.2404   30.5972 H   0  0  0  0  0  0  0  0  0  0  0  0
   34.9788   23.3549   32.0194 H   0  0  0  0  0  0  0  0  0  0  0  0
   36.0992   25.4788   32.8802 H   0  0  0  0  0  0  0  0  0  0  0  0
   40.0866   25.8301   29.4100 H   0  0  0  0  0  0  0  0  0  0  0  0
   38.0005   29.9160   29.7819 H   0  0  0  0  0  0  0  0  0  0  0  0
   36.0183   30.7748   31.0103 H   0  0  0  0  0  0  0  0  0  0  0  0
   34.7117   29.2138   32.4415 H   0  0  0  0  0  0  0  0  0  0  0  0
   35.4055   26.8701   32.6143 H   0  0  0  0  0  0  0  0  0  0  0  0
   39.3983   24.5193   33.3363 H   0  0  0  0  0  0  0  0  0  0  0  0
   38.0986   25.6970   33.8145 H   0  0  0  0  0  0  0  0  0  0  0  0
   37.4371   24.8168   38.3890 H   0  0  0  0  0  0  0  0  0  0  0  0
   37.1020   25.6384   36.0606 H   0  0  0  0  0  0  0  0  0  0  0  0
   40.2862   21.9836   37.0905 H   0  0  0  0  0  0  0  0  0  0  0  0
  1 16  1  0
  2  1  1  0
  3  4  1  0
  3  2  1  0
  4  5  1  0
  5  1  1  0
  6  5  1  0
  7  6  2  0
  8  7  1  0
  9  8  2  0
  9 10  1  0
 10 15  2  0
 11 10  1  0
 11 12  2  0
 12 13  1  0
 13 14  2  0
 15  6  1  0
 15 14  1  0
 16 19  1  0
 17 22  2  0
 18 17  1  0
 19 20  1  0
 19 18  2  0
 20 21  2  0
 21 22  1  0
  2 23  1  0
  2 24  1  0
  3 25  1  0
  3 26  1  0
  4 27  1  0
  4 28  1  0
  5 29  1  1
  8 30  1  0
 11 31  1  0
 12 32  1  0
 13 33  1  0
 14 34  1  0
 16 35  1  0
 16 36  1  0
 17 37  1  0
 18 38  1  0
 21 39  1  0
M  ISO  8  23  13  24  13  25  13  26  13  27  13  28  13  29  13  30  14
M  ISO  8  31  14  32  14  33  14  34  14  35   8  36   8  37  14  38  14
M  ISO  1  39  14
M  END
>  <minimizedAffinity>  (1) 
-5.03297663

>  <minimizedRMSD>  (1) 
2.75973868

$$$$
