
     RDKit          3D

 32 34  0  0  1  0  0  0  0  0999 V2000
   37.8680   24.2950   33.7650 N   0  0  0  0  0  0  0  0  0  0  0  0
   38.2020   23.1760   32.9170 C   0  0  0  0  0  0  0  0  0  0  0  0
   37.2940   23.3130   31.7180 C   0  0  0  0  0  0  0  0  0  0  0  0
   36.5040   24.5980   31.9910 C   0  0  0  0  0  0  0  0  0  0  0  0
   37.5990   25.3210   32.8180 C   0  0  1  0  0  0  0  0  0  0  0  0
   37.0860   26.5930   33.2980 C   0  0  0  0  0  0  0  0  0  0  0  0
   36.7390   27.6270   32.4150 C   0  0  0  0  0  0  0  0  0  0  0  0
   36.2760   28.6980   33.0820 N   0  0  0  0  0  0  0  0  0  0  0  0
   36.3070   28.3990   34.3890 C   0  0  0  0  0  0  0  0  0  0  0  0
   36.7900   27.1490   34.4800 N   0  0  0  0  0  0  0  0  0  0  0  0
   39.0180   24.7090   34.5540 C   0  0  0  0  0  0  0  0  0  0  0  0
   37.9450   24.2130   38.1350 C   0  0  0  0  0  0  0  0  0  0  0  0
   37.9910   24.6840   36.8320 C   0  0  0  0  0  0  0  0  0  0  0  0
   38.9500   24.2120   35.9440 C   0  0  0  0  0  0  0  0  0  0  0  0
   39.8220   23.2760   36.4240 N   0  0  0  0  0  0  0  0  0  0  0  0
   39.7710   22.8210   37.6900 C   0  0  0  0  0  0  0  0  0  0  0  0
   38.8370   23.2890   38.5390 N   0  0  0  0  0  0  0  0  0  0  0  0
   39.2574   23.2239   32.6108 H   0  0  0  0  0  0  0  0  0  0  0  0
   38.0677   22.2125   33.4305 H   0  0  0  0  0  0  0  0  0  0  0  0
   36.6182   22.4486   31.6393 H   0  0  0  0  0  0  0  0  0  0  0  0
   37.8504   23.3533   30.7699 H   0  0  0  0  0  0  0  0  0  0  0  0
   36.2480   25.1388   31.0679 H   0  0  0  0  0  0  0  0  0  0  0  0
   35.5218   24.4793   32.4719 H   0  0  0  0  0  0  0  0  0  0  0  0
   38.5246   25.6534   32.3252 H   0  0  0  0  0  0  0  0  0  0  0  0
   36.8335   27.5686   31.3206 H   0  0  0  0  0  0  0  0  0  0  0  0
   35.9982   29.0485   35.2213 H   0  0  0  0  0  0  0  0  0  0  0  0
   36.9210   26.6618   35.3780 H   0  0  0  0  0  0  0  0  0  0  0  0
   39.9310   24.3170   34.0820 H   0  0  0  0  0  0  0  0  0  0  0  0
   39.0253   25.8084   34.5887 H   0  0  0  0  0  0  0  0  0  0  0  0
   37.1848   24.5916   38.8341 H   0  0  0  0  0  0  0  0  0  0  0  0
   37.2624   25.4375   36.4983 H   0  0  0  0  0  0  0  0  0  0  0  0
   40.4939   22.0654   38.0313 H   0  0  0  0  0  0  0  0  0  0  0  0
  1 11  1  0
  2  1  1  0
  3  4  1  0
  3  2  1  0
  4  5  1  0
  5  6  1  0
  5  1  1  0
  6 10  1  0
  7  8  1  0
  7  6  2  0
  8  9  2  0
  9 10  1  0
 11 14  1  0
 12 17  2  0
 13 12  1  0
 14 15  1  0
 14 13  2  0
 15 16  2  0
 16 17  1  0
  2 18  1  0
  2 19  1  0
  3 20  1  0
  3 21  1  0
  4 22  1  0
  4 23  1  0
  5 24  1  6
  7 25  1  0
  9 26  1  0
 10 27  1  0
 11 28  1  0
 11 29  1  0
 12 30  1  0
 13 31  1  0
 16 32  1  0
M  ISO  8  18  13  19  13  20  13  21  13  22  13  23  13  24  13  25  14
M  ISO  7  26  14  27   9  28   8  29   8  30  14  31  14  32  14
M  END
>  <minimizedAffinity>  (1) 
-4.3455596

>  <minimizedRMSD>  (1) 
2.58563375

$$$$
