
     RDKit          3D

 39 41  0  0  1  0  0  0  0  0999 V2000
   37.3520   22.9970   33.3570 N   0  0  0  0  0  0  0  0  0  0  0  0
   37.2460   21.6540   33.8750 C   0  0  0  0  0  0  0  0  0  0  0  0
   36.1260   21.0110   33.0970 C   0  0  0  0  0  0  0  0  0  0  0  0
   35.6910   22.1090   32.1100 C   0  0  0  0  0  0  0  0  0  0  0  0
   37.0450   22.8190   31.9860 C   0  0  1  0  0  0  0  0  0  0  0  0
   37.0880   23.8590   31.0810 N   0  0  0  0  0  0  0  0  0  0  0  0
   38.1820   24.0750   30.2280 C   0  0  0  0  0  0  0  0  0  0  0  0
   38.7890   25.4610   30.2980 C   0  0  0  0  0  0  0  0  0  0  0  0
   37.7440   26.4680   30.1700 N   0  0  0  0  0  0  0  0  0  0  0  0
   36.8970   26.3080   31.3500 C   0  0  0  0  0  0  0  0  0  0  0  0
   36.2230   24.9710   31.2220 C   0  0  0  0  0  0  0  0  0  0  0  0
   38.7100   23.5100   33.4360 C   0  0  0  0  0  0  0  0  0  0  0  0
   38.2080   26.0520   36.1780 C   0  0  0  0  0  0  0  0  0  0  0  0
   38.0970   24.8570   35.4590 C   0  0  0  0  0  0  0  0  0  0  0  0
   38.7750   24.7490   34.2490 C   0  0  0  0  0  0  0  0  0  0  0  0
   39.5270   25.8310   33.8140 N   0  0  0  0  0  0  0  0  0  0  0  0
   39.5980   26.9580   34.5470 C   0  0  0  0  0  0  0  0  0  0  0  0
   38.9400   27.0610   35.7210 N   0  0  0  0  0  0  0  0  0  0  0  0
   38.1869   21.1061   33.7188 H   0  0  0  0  0  0  0  0  0  0  0  0
   37.0481   21.6477   34.9570 H   0  0  0  0  0  0  0  0  0  0  0  0
   36.4825   20.1196   32.5601 H   0  0  0  0  0  0  0  0  0  0  0  0
   35.3033   20.6654   33.7403 H   0  0  0  0  0  0  0  0  0  0  0  0
   35.3458   21.6962   31.1506 H   0  0  0  0  0  0  0  0  0  0  0  0
   34.8408   22.7338   32.4212 H   0  0  0  0  0  0  0  0  0  0  0  0
   37.8617   22.2827   31.4806 H   0  0  0  0  0  0  0  0  0  0  0  0
   37.8475   23.9015   29.1946 H   0  0  0  0  0  0  0  0  0  0  0  0
   38.9683   23.3798   30.5571 H   0  0  0  0  0  0  0  0  0  0  0  0
   39.3001   25.5868   31.2639 H   0  0  0  0  0  0  0  0  0  0  0  0
   39.5104   25.5819   29.4765 H   0  0  0  0  0  0  0  0  0  0  0  0
   38.1553   27.4121   30.1480 H   0  0  0  0  0  0  0  0  0  0  0  0
   37.5099   26.3374   32.2630 H   0  0  0  0  0  0  0  0  0  0  0  0
   36.1565   27.1187   31.4175 H   0  0  0  0  0  0  0  0  0  0  0  0
   35.5694   25.0051   30.3379 H   0  0  0  0  0  0  0  0  0  0  0  0
   35.6848   24.8144   32.1685 H   0  0  0  0  0  0  0  0  0  0  0  0
   39.3547   22.7464   33.8956 H   0  0  0  0  0  0  0  0  0  0  0  0
   39.0500   23.7468   32.4170 H   0  0  0  0  0  0  0  0  0  0  0  0
   37.6803   26.1573   37.1374 H   0  0  0  0  0  0  0  0  0  0  0  0
   37.4889   24.0237   35.8408 H   0  0  0  0  0  0  0  0  0  0  0  0
   40.1994   27.8049   34.1849 H   0  0  0  0  0  0  0  0  0  0  0  0
  1 12  1  0
  1  2  1  0
  3  2  1  0
  4  3  1  0
  5  4  1  0
  5  1  1  0
  6 11  1  0
  6  5  1  0
  7  8  1  0
  7  6  1  0
  9  8  1  0
  9 10  1  0
 11 10  1  0
 12 15  1  0
 14 13  2  0
 15 14  1  0
 16 15  2  0
 16 17  1  0
 17 18  2  0
 18 13  1  0
  2 19  1  0
  2 20  1  0
  3 21  1  0
  3 22  1  0
  4 23  1  0
  4 24  1  0
  5 25  1  6
  7 26  1  0
  7 27  1  0
  8 28  1  0
  8 29  1  0
  9 30  1  0
 10 31  1  0
 10 32  1  0
 11 33  1  0
 11 34  1  0
 12 35  1  0
 12 36  1  0
 13 37  1  0
 14 38  1  0
 17 39  1  0
M  ISO  8  19  13  20  13  21  13  22  13  23  13  24  13  25  13  26  13
M  ISO  8  27  13  28  13  29  13  30   5  31  13  32  13  33  13  34  13
M  ISO  5  35   8  36   8  37  14  38  14  39  14
M  END
>  <minimizedAffinity>  (1) 
-4.1453228

>  <minimizedRMSD>  (1) 
5.04459429

$$$$
