
     RDKit          3D

 31 32  0  0  1  0  0  0  0  0999 V2000
   37.6030   25.3570   34.3280 N   0  0  0  0  0  0  0  0  0  0  0  0
   37.0790   25.4990   33.0090 C   0  0  0  0  0  0  0  0  0  0  0  0
   36.8820   26.9890   32.8040 C   0  0  0  0  0  0  0  0  0  0  0  0
   37.3250   27.6110   34.1210 C   0  0  0  0  0  0  0  0  0  0  0  0
   38.3510   26.5340   34.5330 C   0  0  2  0  0  0  0  0  0  0  0  0
   38.4130   24.2130   34.5320 C   0  0  0  0  0  0  0  0  0  0  0  0
   37.8660   23.8980   38.2650 C   0  0  0  0  0  0  0  0  0  0  0  0
   37.6320   24.2530   36.9400 C   0  0  0  0  0  0  0  0  0  0  0  0
   38.5760   23.8790   35.9890 C   0  0  0  0  0  0  0  0  0  0  0  0
   39.6990   23.1770   36.3970 N   0  0  0  0  0  0  0  0  0  0  0  0
   39.8740   22.8610   37.6970 C   0  0  0  0  0  0  0  0  0  0  0  0
   38.9700   23.2160   38.6200 N   0  0  0  0  0  0  0  0  0  0  0  0
   39.5530   26.7820   33.7140 C   0  0  0  0  0  0  0  0  0  0  0  0
   40.7450   26.7950   34.6750 C   0  0  0  0  0  0  0  0  0  0  0  0
   37.7890   25.1006   32.2693 H   0  0  0  0  0  0  0  0  0  0  0  0
   36.1375   24.9440   32.8841 H   0  0  0  0  0  0  0  0  0  0  0  0
   37.5030   27.3535   31.9724 H   0  0  0  0  0  0  0  0  0  0  0  0
   35.8435   27.2444   32.5466 H   0  0  0  0  0  0  0  0  0  0  0  0
   37.7905   28.5976   33.9801 H   0  0  0  0  0  0  0  0  0  0  0  0
   36.5269   27.8207   34.8484 H   0  0  0  0  0  0  0  0  0  0  0  0
   38.7537   26.5014   35.5561 H   0  0  0  0  0  0  0  0  0  0  0  0
   37.9484   23.3557   34.0228 H   0  0  0  0  0  0  0  0  0  0  0  0
   39.4110   24.4314   34.1241 H   0  0  0  0  0  0  0  0  0  0  0  0
   37.1346   24.1803   39.0366 H   0  0  0  0  0  0  0  0  0  0  0  0
   36.7289   24.8118   36.6535 H   0  0  0  0  0  0  0  0  0  0  0  0
   40.7717   22.3040   38.0034 H   0  0  0  0  0  0  0  0  0  0  0  0
   39.6756   25.9823   32.9687 H   0  0  0  0  0  0  0  0  0  0  0  0
   39.4721   27.7352   33.1709 H   0  0  0  0  0  0  0  0  0  0  0  0
   40.3796   26.7910   35.7125 H   0  0  0  0  0  0  0  0  0  0  0  0
   41.3657   25.9036   34.5014 H   0  0  0  0  0  0  0  0  0  0  0  0
   41.3461   27.6998   34.5014 H   0  0  0  0  0  0  0  0  0  0  0  0
  1  6  1  0
  1  5  1  0
  2  1  1  0
  3  2  1  0
  3  4  1  0
  4  5  1  0
  6  9  1  0
  7 12  2  0
  8  7  1  0
  9 10  1  0
  9  8  2  0
 10 11  2  0
 11 12  1  0
 13  5  1  0
 13 14  1  0
  2 15  1  0
  2 16  1  0
  3 17  1  0
  3 18  1  0
  4 19  1  0
  4 20  1  0
  5 21  1  1
  6 22  1  0
  6 23  1  0
  7 24  1  0
  8 25  1  0
 11 26  1  0
 13 27  1  0
 13 28  1  0
 14 29  1  0
 14 30  1  0
 14 31  1  0
M  ISO  8  15  13  16  13  17  13  18  13  19  13  20  13  21  13  22   8
M  ISO  8  23   8  24  14  25  14  26  14  27   8  28   8  29   8  30   8
M  ISO  1  31   8
M  END
>  <minimizedAffinity>  (1) 
-3.95787716

>  <minimizedRMSD>  (1) 
0.784218252

$$$$
