
     RDKit          3D

 28 29  0  0  1  0  0  0  0  0999 V2000
   37.7240   25.4890   34.1490 N   0  0  0  0  0  0  0  0  0  0  0  0
   37.1580   25.3260   32.8540 C   0  0  0  0  0  0  0  0  0  0  0  0
   36.6710   26.7110   32.4610 C   0  0  0  0  0  0  0  0  0  0  0  0
   37.0480   27.6110   33.6350 C   0  0  0  0  0  0  0  0  0  0  0  0
   38.2700   26.8230   34.1160 C   0  0  2  0  0  0  0  0  0  0  0  0
   38.8060   24.5900   34.4360 C   0  0  0  0  0  0  0  0  0  0  0  0
   37.8460   24.0610   38.0540 C   0  0  0  0  0  0  0  0  0  0  0  0
   37.7920   24.5330   36.7410 C   0  0  0  0  0  0  0  0  0  0  0  0
   38.7920   24.1290   35.8600 C   0  0  0  0  0  0  0  0  0  0  0  0
   39.7870   23.2870   36.3200 N   0  0  0  0  0  0  0  0  0  0  0  0
   39.7910   22.8560   37.6090 C   0  0  0  0  0  0  0  0  0  0  0  0
   38.8210   23.2480   38.4620 N   0  0  0  0  0  0  0  0  0  0  0  0
   39.4430   27.0170   33.2330 C   0  0  0  0  0  0  0  0  0  0  0  0
   37.9164   24.9666   32.1429 H   0  0  0  0  0  0  0  0  0  0  0  0
   36.3451   24.5849   32.8484 H   0  0  0  0  0  0  0  0  0  0  0  0
   37.1684   27.0487   31.5398 H   0  0  0  0  0  0  0  0  0  0  0  0
   35.5898   26.7267   32.2593 H   0  0  0  0  0  0  0  0  0  0  0  0
   37.3085   28.6301   33.3131 H   0  0  0  0  0  0  0  0  0  0  0  0
   36.2606   27.7886   34.3823 H   0  0  0  0  0  0  0  0  0  0  0  0
   38.6901   27.1286   35.0856 H   0  0  0  0  0  0  0  0  0  0  0  0
   38.7220   23.7124   33.7782 H   0  0  0  0  0  0  0  0  0  0  0  0
   39.7492   25.1290   34.2636 H   0  0  0  0  0  0  0  0  0  0  0  0
   37.0668   24.3667   38.7678 H   0  0  0  0  0  0  0  0  0  0  0  0
   36.9842   25.2035   36.4125 H   0  0  0  0  0  0  0  0  0  0  0  0
   40.5887   22.1843   37.9589 H   0  0  0  0  0  0  0  0  0  0  0  0
   40.3435   27.1659   33.8470 H   0  0  0  0  0  0  0  0  0  0  0  0
   39.5749   26.1285   32.5981 H   0  0  0  0  0  0  0  0  0  0  0  0
   39.2818   27.9007   32.5981 H   0  0  0  0  0  0  0  0  0  0  0  0
  1  6  1  0
  2  1  1  0
  3  2  1  0
  3  4  1  0
  4  5  1  0
  5  1  1  0
  6  9  1  0
  7 12  2  0
  8  7  1  0
  9 10  1  0
  9  8  2  0
 10 11  2  0
 11 12  1  0
 13  5  1  0
  2 14  1  0
  2 15  1  0
  3 16  1  0
  3 17  1  0
  4 18  1  0
  4 19  1  0
  5 20  1  1
  6 21  1  0
  6 22  1  0
  7 23  1  0
  8 24  1  0
 11 25  1  0
 13 26  1  0
 13 27  1  0
 13 28  1  0
M  ISO  8  14  13  15  13  16  13  17  13  18  13  19  13  20  13  21   8
M  ISO  7  22   8  23  14  24  14  25  14  26   8  27   8  28   8
M  END
>  <minimizedAffinity>  (1) 
-3.78509998

>  <minimizedRMSD>  (1) 
0.0300038438

$$$$
