
     RDKit          3D

 38 41  0  0  1  0  0  0  0  0999 V2000
   37.9950   23.7270   32.5020 N   0  0  0  0  0  0  0  0  0  0  0  0
   38.0900   22.8600   33.6410 C   0  0  0  0  0  0  0  0  0  0  0  0
   39.4170   22.1460   33.4980 C   0  0  0  0  0  0  0  0  0  0  0  0
   39.9820   22.6840   32.1840 C   0  0  0  0  0  0  0  0  0  0  0  0
   39.3610   24.0860   32.2590 C   0  0  1  0  0  0  0  0  0  0  0  0
   39.6090   24.8440   31.0780 N   0  0  0  0  0  0  0  0  0  0  0  0
   39.1260   24.5020   29.8700 C   0  0  0  0  0  0  0  0  0  0  0  0
   39.5540   25.4400   28.9770 N   0  0  0  0  0  0  0  0  0  0  0  0
   40.2870   26.3410   29.6230 C   0  0  0  0  0  0  0  0  0  0  0  0
   40.9270   27.4740   29.1140 C   0  0  0  0  0  0  0  0  0  0  0  0
   41.6130   28.2170   30.0310 N   0  0  0  0  0  0  0  0  0  0  0  0
   41.6450   27.8490   31.3240 C   0  0  0  0  0  0  0  0  0  0  0  0
   41.0210   26.7420   31.8230 N   0  0  0  0  0  0  0  0  0  0  0  0
   40.3290   25.9710   30.9650 C   0  0  0  0  0  0  0  0  0  0  0  0
   40.8420   27.7940   27.7290 N   0  0  0  0  0  0  0  0  0  0  0  0
   37.2590   24.9310   32.7810 C   0  0  0  0  0  0  0  0  0  0  0  0
   38.6000   27.4620   35.2550 C   0  0  0  0  0  0  0  0  0  0  0  0
   38.1790   26.9010   34.0390 C   0  0  0  0  0  0  0  0  0  0  0  0
   37.7200   25.5860   34.0390 C   0  0  0  0  0  0  0  0  0  0  0  0
   37.6960   24.8850   35.2350 N   0  0  0  0  0  0  0  0  0  0  0  0
   38.1130   25.4700   36.3850 C   0  0  0  0  0  0  0  0  0  0  0  0
   38.5620   26.7510   36.3880 N   0  0  0  0  0  0  0  0  0  0  0  0
   38.0669   23.4451   34.5722 H   0  0  0  0  0  0  0  0  0  0  0  0
   37.2491   22.1522   33.6856 H   0  0  0  0  0  0  0  0  0  0  0  0
   40.0840   22.3868   34.3389 H   0  0  0  0  0  0  0  0  0  0  0  0
   39.3126   21.0510   33.4990 H   0  0  0  0  0  0  0  0  0  0  0  0
   39.6279   22.1151   31.3117 H   0  0  0  0  0  0  0  0  0  0  0  0
   41.0751   22.6401   32.0687 H   0  0  0  0  0  0  0  0  0  0  0  0
   39.7649   24.7672   33.0224 H   0  0  0  0  0  0  0  0  0  0  0  0
   38.5003   23.6261   29.6437 H   0  0  0  0  0  0  0  0  0  0  0  0
   42.2105   28.4807   32.0249 H   0  0  0  0  0  0  0  0  0  0  0  0
   41.3175   28.6315   27.3638 H   0  0  0  0  0  0  0  0  0  0  0  0
   40.3050   27.1879   27.0924 H   0  0  0  0  0  0  0  0  0  0  0  0
   37.3945   25.6325   31.9446 H   0  0  0  0  0  0  0  0  0  0  0  0
   36.1997   24.6618   32.9053 H   0  0  0  0  0  0  0  0  0  0  0  0
   38.9658   28.4992   35.2768 H   0  0  0  0  0  0  0  0  0  0  0  0
   38.2109   27.4862   33.1081 H   0  0  0  0  0  0  0  0  0  0  0  0
   38.0872   24.9003   37.3257 H   0  0  0  0  0  0  0  0  0  0  0  0
  1 16  1  0
  1  2  1  0
  3  2  1  0
  4  5  1  0
  4  3  1  0
  5  1  1  0
  6  5  1  0
  7  6  1  0
  8  9  1  0
  8  7  2  0
  9 14  2  0
 10  9  1  0
 10 11  2  0
 11 12  1  0
 12 13  2  0
 14  6  1  0
 14 13  1  0
 15 10  1  0
 16 19  1  0
 17 22  2  0
 18 19  2  0
 18 17  1  0
 19 20  1  0
 20 21  2  0
 21 22  1  0
  2 23  1  0
  2 24  1  0
  3 25  1  0
  3 26  1  0
  4 27  1  0
  4 28  1  0
  5 29  1  1
  7 30  1  0
 12 31  1  0
 15 32  1  0
 15 33  1  0
 16 34  1  0
 16 35  1  0
 17 36  1  0
 18 37  1  0
 21 38  1  0
M  ISO  8  23  13  24  13  25  13  26  13  27  13  28  13  29  13  30  14
M  ISO  6  31  14  34   8  35   8  36  14  37  14  38  14
M  END
>  <minimizedAffinity>  (1) 
-3.25337672

>  <minimizedRMSD>  (1) 
6.2382102

$$$$
