
     RDKit          3D

 35 37  0  0  1  0  0  0  0  0999 V2000
   38.2830   24.5600   33.5890 N   0  0  0  0  0  0  0  0  0  0  0  0
   38.9410   24.3520   32.3520 C   0  0  0  0  0  0  0  0  0  0  0  0
   37.8800   24.4190   31.2970 C   0  0  0  0  0  0  0  0  0  0  0  0
   36.6070   24.7800   32.0480 C   0  0  0  0  0  0  0  0  0  0  0  0
   37.2360   25.5090   33.2350 C   0  0  2  0  0  0  0  0  0  0  0  0
   39.0710   25.1810   34.6000 C   0  0  0  0  0  0  0  0  0  0  0  0
   37.9800   24.1850   38.0810 C   0  0  0  0  0  0  0  0  0  0  0  0
   38.0280   24.8570   36.8580 C   0  0  0  0  0  0  0  0  0  0  0  0
   38.9840   24.4900   35.9180 C   0  0  0  0  0  0  0  0  0  0  0  0
   39.8440   23.4720   36.2470 N   0  0  0  0  0  0  0  0  0  0  0  0
   39.7670   22.8500   37.4340 C   0  0  0  0  0  0  0  0  0  0  0  0
   38.8400   23.2080   38.3390 N   0  0  0  0  0  0  0  0  0  0  0  0
   37.7230   26.7530   32.8880 O   0  0  0  0  0  0  0  0  0  0  0  0
   36.9700   27.9320   33.0230 C   0  0  0  0  0  0  0  0  0  0  0  0
   36.4800   28.1700   34.2970 C   0  0  0  0  0  0  0  0  0  0  0  0
   35.7390   29.3300   34.4310 C   0  0  0  0  0  0  0  0  0  0  0  0
   35.5340   30.1580   33.3370 C   0  0  0  0  0  0  0  0  0  0  0  0
   36.0430   29.8760   32.0920 C   0  0  0  0  0  0  0  0  0  0  0  0
   36.7520   28.7490   32.0020 N   0  0  0  0  0  0  0  0  0  0  0  0
   39.6948   25.1354   32.1848 H   0  0  0  0  0  0  0  0  0  0  0  0
   39.4632   23.3840   32.3339 H   0  0  0  0  0  0  0  0  0  0  0  0
   37.7710   23.4464   30.7948 H   0  0  0  0  0  0  0  0  0  0  0  0
   38.1207   25.1511   30.5121 H   0  0  0  0  0  0  0  0  0  0  0  0
   35.9517   25.4382   31.4586 H   0  0  0  0  0  0  0  0  0  0  0  0
   35.9496   23.9357   32.3027 H   0  0  0  0  0  0  0  0  0  0  0  0
   36.5449   25.7468   34.0570 H   0  0  0  0  0  0  0  0  0  0  0  0
   40.1215   25.1813   34.2738 H   0  0  0  0  0  0  0  0  0  0  0  0
   38.6817   26.2004   34.7385 H   0  0  0  0  0  0  0  0  0  0  0  0
   37.2275   24.4662   38.8324 H   0  0  0  0  0  0  0  0  0  0  0  0
   37.3171   25.6679   36.6408 H   0  0  0  0  0  0  0  0  0  0  0  0
   40.4708   22.0378   37.6688 H   0  0  0  0  0  0  0  0  0  0  0  0
   36.6665   27.4872   35.1390 H   0  0  0  0  0  0  0  0  0  0  0  0
   35.3107   29.5970   35.4084 H   0  0  0  0  0  0  0  0  0  0  0  0
   34.9416   31.0751   33.4711 H   0  0  0  0  0  0  0  0  0  0  0  0
   35.8771   30.5353   31.2273 H   0  0  0  0  0  0  0  0  0  0  0  0
  1  6  1  0
  2  1  1  0
  3  4  1  0
  3  2  1  0
  4  5  1  0
  5  1  1  0
  6  9  1  0
  7 12  2  0
  8  7  1  0
  9 10  1  0
  9  8  2  0
 10 11  2  0
 11 12  1  0
 13 14  1  0
 13  5  1  0
 14 15  2  0
 15 16  1  0
 17 16  2  0
 18 17  1  0
 19 18  2  0
 19 14  1  0
  2 20  1  0
  2 21  1  0
  3 22  1  0
  3 23  1  0
  4 24  1  0
  4 25  1  0
  5 26  1  1
  6 27  1  0
  6 28  1  0
  7 29  1  0
  8 30  1  0
 11 31  1  0
 15 32  1  0
 16 33  1  0
 17 34  1  0
 18 35  1  0
M  ISO  8  20  13  21  13  22  13  23  13  24  13  25  13  26  13  27   8
M  ISO  8  28   8  29  14  30  14  31  14  32  14  33  14  34  14  35  14
M  END
>  <minimizedAffinity>  (1) 
-4.59870863

>  <minimizedRMSD>  (1) 
3.55398607

$$$$
