
     RDKit          3D

 40 43  0  0  1  0  0  0  0  0999 V2000
   37.9670   25.0830   34.2860 N   0  0  0  0  0  0  0  0  0  0  0  0
   37.5880   25.1690   32.9030 C   0  0  0  0  0  0  0  0  0  0  0  0
   37.8950   26.5790   32.4890 C   0  0  0  0  0  0  0  0  0  0  0  0
   38.4800   27.2250   33.7310 C   0  0  0  0  0  0  0  0  0  0  0  0
   39.1060   25.9570   34.3650 C   0  0  2  0  0  0  0  0  0  0  0  0
   38.4330   23.7800   34.6770 C   0  0  0  0  0  0  0  0  0  0  0  0
   37.8520   24.1200   38.4030 C   0  0  0  0  0  0  0  0  0  0  0  0
   37.6770   24.2640   37.0260 C   0  0  0  0  0  0  0  0  0  0  0  0
   38.5830   23.6520   36.1510 C   0  0  0  0  0  0  0  0  0  0  0  0
   39.6130   22.9280   36.7050 N   0  0  0  0  0  0  0  0  0  0  0  0
   39.7360   22.8200   38.0480 C   0  0  0  0  0  0  0  0  0  0  0  0
   38.8600   23.4130   38.8800 N   0  0  0  0  0  0  0  0  0  0  0  0
   40.2070   25.5330   33.6870 O   0  0  0  0  0  0  0  0  0  0  0  0
   41.4650   26.0190   34.0200 C   0  0  0  0  0  0  0  0  0  0  0  0
   42.1100   27.1860   33.6550 C   0  0  0  0  0  0  0  0  0  0  0  0
   43.3290   27.2620   34.2070 N   0  0  0  0  0  0  0  0  0  0  0  0
   43.5260   26.1520   34.9500 C   0  0  0  0  0  0  0  0  0  0  0  0
   44.6420   25.8180   35.6910 C   0  0  0  0  0  0  0  0  0  0  0  0
   44.6140   24.6070   36.3830 C   0  0  0  0  0  0  0  0  0  0  0  0
   43.4990   23.7980   36.3100 C   0  0  0  0  0  0  0  0  0  0  0  0
   42.3990   24.1820   35.5480 C   0  0  0  0  0  0  0  0  0  0  0  0
   42.3920   25.3800   34.8450 C   0  0  0  0  0  0  0  0  0  0  0  0
   38.1697   24.4562   32.3001 H   0  0  0  0  0  0  0  0  0  0  0  0
   36.5262   24.9227   32.7551 H   0  0  0  0  0  0  0  0  0  0  0  0
   38.6237   26.5917   31.6650 H   0  0  0  0  0  0  0  0  0  0  0  0
   37.0033   27.1096   32.1240 H   0  0  0  0  0  0  0  0  0  0  0  0
   39.2369   27.9851   33.4872 H   0  0  0  0  0  0  0  0  0  0  0  0
   37.7715   27.7796   34.3639 H   0  0  0  0  0  0  0  0  0  0  0  0
   39.5145   26.0639   35.3807 H   0  0  0  0  0  0  0  0  0  0  0  0
   37.7109   23.0270   34.3284 H   0  0  0  0  0  0  0  0  0  0  0  0
   39.4237   23.6274   34.2239 H   0  0  0  0  0  0  0  0  0  0  0  0
   37.1449   24.5991   39.0962 H   0  0  0  0  0  0  0  0  0  0  0  0
   36.8355   24.8526   36.6317 H   0  0  0  0  0  0  0  0  0  0  0  0
   40.5682   22.2361   38.4681 H   0  0  0  0  0  0  0  0  0  0  0  0
   41.6782   27.9537   32.9961 H   0  0  0  0  0  0  0  0  0  0  0  0
   43.9998   28.0341   34.0854 H   0  0  0  0  0  0  0  0  0  0  0  0
   45.5189   26.4808   35.7341 H   0  0  0  0  0  0  0  0  0  0  0  0
   45.4802   24.2975   36.9863 H   0  0  0  0  0  0  0  0  0  0  0  0
   43.4790   22.8439   36.8571 H   0  0  0  0  0  0  0  0  0  0  0  0
   41.5186   23.5242   35.5017 H   0  0  0  0  0  0  0  0  0  0  0  0
  1  5  1  0
  1  6  1  0
  2  1  1  0
  3  2  1  0
  3  4  1  0
  4  5  1  0
  6  9  1  0
  7 12  2  0
  8  7  1  0
  9 10  1  0
  9  8  2  0
 10 11  2  0
 11 12  1  0
 13 14  1  0
 13  5  1  0
 14 22  1  0
 15 14  2  0
 15 16  1  0
 16 17  1  0
 17 18  2  0
 18 19  1  0
 20 19  2  0
 21 20  1  0
 22 17  1  0
 22 21  2  0
  2 23  1  0
  2 24  1  0
  3 25  1  0
  3 26  1  0
  4 27  1  0
  4 28  1  0
  5 29  1  1
  6 30  1  0
  6 31  1  0
  7 32  1  0
  8 33  1  0
 11 34  1  0
 15 35  1  0
 16 36  1  0
 18 37  1  0
 19 38  1  0
 20 39  1  0
 21 40  1  0
M  ISO  8  23  13  24  13  25  13  26  13  27  13  28  13  29  13  30   8
M  ISO  8  31   8  32  14  33  14  34  14  35  14  36   9  37  14  38  14
M  ISO  2  39  14  40  14
M  END
>  <minimizedAffinity>  (1) 
-5.20305157

>  <minimizedRMSD>  (1) 
3.08733416

$$$$
