
     RDKit          3D

 31 33  0  0  1  0  0  0  0  0999 V2000
   38.6400   25.7630   34.2860 N   0  0  0  0  0  0  0  0  0  0  0  0
   38.3700   27.1270   33.9450 C   0  0  0  0  0  0  0  0  0  0  0  0
   38.7630   27.2680   32.5020 C   0  0  0  0  0  0  0  0  0  0  0  0
   39.2070   25.8750   32.0840 C   0  0  0  0  0  0  0  0  0  0  0  0
   38.3400   25.0520   33.0670 C   0  0  2  0  0  0  0  0  0  0  0  0
   37.7550   25.2250   35.2830 C   0  0  0  0  0  0  0  0  0  0  0  0
   40.3100   22.9200   36.8880 C   0  0  0  0  0  0  0  0  0  0  0  0
   39.6560   23.7150   35.9350 C   0  0  0  0  0  0  0  0  0  0  0  0
   38.4780   24.3710   36.2700 C   0  0  0  0  0  0  0  0  0  0  0  0
   38.0060   24.2030   37.5450 N   0  0  0  0  0  0  0  0  0  0  0  0
   38.6580   23.4300   38.4420 C   0  0  0  0  0  0  0  0  0  0  0  0
   39.7950   22.8040   38.1030 N   0  0  0  0  0  0  0  0  0  0  0  0
   37.0210   25.0740   32.6950 O   0  0  0  0  0  0  0  0  0  0  0  0
   36.4310   23.9940   32.0230 C   0  0  0  0  0  0  0  0  0  0  0  0
   35.5420   23.7270   31.0530 N   0  0  0  0  0  0  0  0  0  0  0  0
   35.4410   22.4560   30.9070 O   0  0  0  0  0  0  0  0  0  0  0  0
   36.2280   21.8410   31.7420 C   0  0  0  0  0  0  0  0  0  0  0  0
   36.8680   22.7910   32.4640 N   0  0  0  0  0  0  0  0  0  0  0  0
   37.3010   27.3510   34.0755 H   0  0  0  0  0  0  0  0  0  0  0  0
   38.9258   27.8251   34.5883 H   0  0  0  0  0  0  0  0  0  0  0  0
   37.9060   27.5996   31.8973 H   0  0  0  0  0  0  0  0  0  0  0  0
   39.5551   28.0176   32.3581 H   0  0  0  0  0  0  0  0  0  0  0  0
   38.9606   25.6593   31.0339 H   0  0  0  0  0  0  0  0  0  0  0  0
   40.2896   25.6856   32.1289 H   0  0  0  0  0  0  0  0  0  0  0  0
   38.5415   23.9725   33.1309 H   0  0  0  0  0  0  0  0  0  0  0  0
   37.2749   26.0575   35.8182 H   0  0  0  0  0  0  0  0  0  0  0  0
   37.0095   24.5975   34.7726 H   0  0  0  0  0  0  0  0  0  0  0  0
   41.2425   22.3974   36.6286 H   0  0  0  0  0  0  0  0  0  0  0  0
   40.0755   23.8189   34.9234 H   0  0  0  0  0  0  0  0  0  0  0  0
   38.2530   23.3133   39.4581 H   0  0  0  0  0  0  0  0  0  0  0  0
   36.3503   20.7524   31.8423 H   0  0  0  0  0  0  0  0  0  0  0  0
  1  6  1  0
  2  1  1  0
  3  2  1  0
  4  3  1  0
  4  5  1  0
  5  1  1  0
  6  9  1  0
  7 12  2  0
  8  9  2  0
  8  7  1  0
  9 10  1  0
 10 11  2  0
 12 11  1  0
 13  5  1  0
 14 18  1  0
 14 13  1  0
 15 14  2  0
 16 15  1  0
 16 17  1  0
 17 18  2  0
  2 19  1  0
  2 20  1  0
  3 21  1  0
  3 22  1  0
  4 23  1  0
  4 24  1  0
  5 25  1  1
  6 26  1  0
  6 27  1  0
  7 28  1  0
  8 29  1  0
 11 30  1  0
 17 31  1  0
M  ISO  8  19  13  20  13  21  13  22  13  23  13  24  13  25  13  26   8
M  ISO  5  27   8  28  14  29  14  30  14  31  14
M  END
>  <minimizedAffinity>  (1) 
-4.12779331

>  <minimizedRMSD>  (1) 
4.6704998

$$$$
