
     RDKit          3D

 28 29  0  0  1  0  0  0  0  0999 V2000
   37.7450   25.4310   34.3680 N   0  0  0  0  0  0  0  0  0  0  0  0
   37.2140   25.4310   33.0420 C   0  0  0  0  0  0  0  0  0  0  0  0
   36.8720   26.8650   32.7430 C   0  0  0  0  0  0  0  0  0  0  0  0
   37.3430   27.6310   33.9640 C   0  0  0  0  0  0  0  0  0  0  0  0
   38.4700   26.6800   34.4310 C   0  0  2  0  0  0  0  0  0  0  0  0
   38.7170   24.4010   34.6130 C   0  0  0  0  0  0  0  0  0  0  0  0
   37.9410   24.1120   38.3160 C   0  0  0  0  0  0  0  0  0  0  0  0
   37.8290   24.5020   36.9840 C   0  0  0  0  0  0  0  0  0  0  0  0
   38.7780   24.0190   36.0670 C   0  0  0  0  0  0  0  0  0  0  0  0
   39.7560   23.1940   36.5390 N   0  0  0  0  0  0  0  0  0  0  0  0
   39.8320   22.8400   37.8270 C   0  0  0  0  0  0  0  0  0  0  0  0
   38.9190   23.3060   38.7060 N   0  0  0  0  0  0  0  0  0  0  0  0
   39.5480   26.7420   33.6000 O   0  0  0  0  0  0  0  0  0  0  0  0
   40.8020   27.1680   33.9660 C   0  0  0  0  0  0  0  0  0  0  0  0
   41.5960   27.7310   33.1480 O   0  0  0  0  0  0  0  0  0  0  0  0
   37.9634   25.0582   32.3283 H   0  0  0  0  0  0  0  0  0  0  0  0
   36.3342   24.7764   32.9560 H   0  0  0  0  0  0  0  0  0  0  0  0
   37.3982   27.2101   31.8408 H   0  0  0  0  0  0  0  0  0  0  0  0
   35.7986   27.0070   32.5489 H   0  0  0  0  0  0  0  0  0  0  0  0
   37.7274   28.6278   33.7019 H   0  0  0  0  0  0  0  0  0  0  0  0
   36.5674   27.8471   34.7135 H   0  0  0  0  0  0  0  0  0  0  0  0
   38.9209   26.8892   35.4123 H   0  0  0  0  0  0  0  0  0  0  0  0
   38.4491   23.5121   34.0231 H   0  0  0  0  0  0  0  0  0  0  0  0
   39.7043   24.7888   34.3215 H   0  0  0  0  0  0  0  0  0  0  0  0
   37.2101   24.4766   39.0528 H   0  0  0  0  0  0  0  0  0  0  0  0
   37.0188   25.1708   36.6580 H   0  0  0  0  0  0  0  0  0  0  0  0
   40.6358   22.1714   38.1689 H   0  0  0  0  0  0  0  0  0  0  0  0
   41.1310   27.0164   35.0046 H   0  0  0  0  0  0  0  0  0  0  0  0
  1  5  1  0
  1  6  1  0
  2  1  1  0
  3  2  1  0
  3  4  1  0
  4  5  1  0
  6  9  1  0
  7 12  2  0
  8  7  1  0
  9 10  1  0
  9  8  2  0
 10 11  2  0
 11 12  1  0
 13 14  1  0
 13  5  1  0
 15 14  2  0
  2 16  1  0
  2 17  1  0
  3 18  1  0
  3 19  1  0
  4 20  1  0
  4 21  1  0
  5 22  1  1
  6 23  1  0
  6 24  1  0
  7 25  1  0
  8 26  1  0
 11 27  1  0
 14 28  1  0
M  ISO  8  16  13  17  13  18  13  19  13  20  13  21  13  22  13  23   8
M  ISO  5  24   8  25  14  26  14  27  14  28   6
M  END
>  <minimizedAffinity>  (1) 
-3.76176381

>  <minimizedRMSD>  (1) 
0.494764805

$$$$
