
     RDKit          3D

 32 33  0  0  1  0  0  0  0  0999 V2000
   37.7160   25.2730   34.4240 N   0  0  0  0  0  0  0  0  0  0  0  0
   37.2980   25.4650   33.0620 C   0  0  0  0  0  0  0  0  0  0  0  0
   37.3360   26.9470   32.8400 C   0  0  0  0  0  0  0  0  0  0  0  0
   37.8430   27.5210   34.1530 C   0  0  0  0  0  0  0  0  0  0  0  0
   38.6910   26.3120   34.6330 C   0  0  2  0  0  0  0  0  0  0  0  0
   38.3940   24.0330   34.6620 C   0  0  0  0  0  0  0  0  0  0  0  0
   37.8750   23.8660   38.4030 C   0  0  0  0  0  0  0  0  0  0  0  0
   37.6370   24.1460   37.0600 C   0  0  0  0  0  0  0  0  0  0  0  0
   38.5930   23.7610   36.1160 C   0  0  0  0  0  0  0  0  0  0  0  0
   39.7340   23.1180   36.5560 N   0  0  0  0  0  0  0  0  0  0  0  0
   39.9010   22.8760   37.8810 C   0  0  0  0  0  0  0  0  0  0  0  0
   38.9810   23.2480   38.7830 N   0  0  0  0  0  0  0  0  0  0  0  0
   39.8190   26.1750   33.9000 O   0  0  0  0  0  0  0  0  0  0  0  0
   40.9750   26.7240   34.3830 C   0  0  0  0  0  0  0  0  0  0  0  0
   41.6160   27.4780   33.2220 C   0  0  0  0  0  0  0  0  0  0  0  0
   37.9864   24.9546   32.3724 H   0  0  0  0  0  0  0  0  0  0  0  0
   36.2963   25.0491   32.8787 H   0  0  0  0  0  0  0  0  0  0  0  0
   38.0207   27.1985   32.0166 H   0  0  0  0  0  0  0  0  0  0  0  0
   36.3517   27.3515   32.5615 H   0  0  0  0  0  0  0  0  0  0  0  0
   38.4567   28.4210   34.0004 H   0  0  0  0  0  0  0  0  0  0  0  0
   37.0656   27.8620   34.8526 H   0  0  0  0  0  0  0  0  0  0  0  0
   39.0907   26.3574   35.6568 H   0  0  0  0  0  0  0  0  0  0  0  0
   37.7982   23.2162   34.2285 H   0  0  0  0  0  0  0  0  0  0  0  0
   39.3878   24.1002   34.1952 H   0  0  0  0  0  0  0  0  0  0  0  0
   37.1328   24.1629   39.1586 H   0  0  0  0  0  0  0  0  0  0  0  0
   36.7155   24.6596   36.7484 H   0  0  0  0  0  0  0  0  0  0  0  0
   40.8120   22.3629   38.2229 H   0  0  0  0  0  0  0  0  0  0  0  0
   40.7509   27.4163   35.2079 H   0  0  0  0  0  0  0  0  0  0  0  0
   41.6500   25.9485   34.7741 H   0  0  0  0  0  0  0  0  0  0  0  0
   42.2813   28.2606   33.6157 H   0  0  0  0  0  0  0  0  0  0  0  0
   42.1987   26.7768   32.6066 H   0  0  0  0  0  0  0  0  0  0  0  0
   40.8302   27.9403   32.6066 H   0  0  0  0  0  0  0  0  0  0  0  0
  1  5  1  0
  1  6  1  0
  2  1  1  0
  3  2  1  0
  3  4  1  0
  4  5  1  0
  6  9  1  0
  7 12  2  0
  8  7  1  0
  9 10  1  0
  9  8  2  0
 10 11  2  0
 11 12  1  0
 13 14  1  0
 13  5  1  0
 15 14  1  0
  2 16  1  0
  2 17  1  0
  3 18  1  0
  3 19  1  0
  4 20  1  0
  4 21  1  0
  5 22  1  1
  6 23  1  0
  6 24  1  0
  7 25  1  0
  8 26  1  0
 11 27  1  0
 14 28  1  0
 14 29  1  0
 15 30  1  0
 15 31  1  0
 15 32  1  0
M  ISO  8  16  13  17  13  18  13  19  13  20  13  21  13  22  13  23   8
M  ISO  8  24   8  25  14  26  14  27  14  28   8  29   8  30   8  31   8
M  ISO  1  32   8
M  END
>  <minimizedAffinity>  (1) 
-3.73941875

>  <minimizedRMSD>  (1) 
1.00655723

$$$$
