
     RDKit          3D

 29 30  0  0  1  0  0  0  0  0999 V2000
   42.1620   22.1470   36.3600 C   0  0  2  0  0  0  0  0  0  0  0  0
   43.2540   21.1160   36.4430 C   0  0  0  0  0  0  0  0  0  0  0  0
   43.0060   19.8700   37.0600 C   0  0  0  0  0  0  0  0  0  0  0  0
   44.0370   18.9400   37.1170 C   0  0  0  0  0  0  0  0  0  0  0  0
   45.2370   19.2840   36.5700 N   0  0  0  0  0  0  0  0  0  0  0  0
   45.4560   20.4810   35.9830 C   0  0  0  0  0  0  0  0  0  0  0  0
   44.4560   21.3820   35.9290 N   0  0  0  0  0  0  0  0  0  0  0  0
   42.8680   23.4660   36.5450 C   0  0  0  0  0  0  0  0  0  0  0  0
   41.1690   21.8690   37.4550 C   0  0  0  0  0  0  0  0  0  0  0  0
   39.9240   22.6230   37.3220 C   0  0  0  0  0  0  0  0  0  0  0  0
   39.3780   23.1940   38.4570 C   0  0  0  0  0  0  0  0  0  0  0  0
   38.1940   23.9280   38.4070 C   0  0  0  0  0  0  0  0  0  0  0  0
   37.5260   24.1090   37.2220 C   0  0  0  0  0  0  0  0  0  0  0  0
   38.0610   23.5390   36.0630 C   0  0  0  0  0  0  0  0  0  0  0  0
   39.2250   22.8220   36.1280 C   0  0  0  0  0  0  0  0  0  0  0  0
   41.6033   22.1421   35.4125 H   0  0  0  0  0  0  0  0  0  0  0  0
   42.0182   19.6407   37.4862 H   0  0  0  0  0  0  0  0  0  0  0  0
   43.8893   17.9573   37.5887 H   0  0  0  0  0  0  0  0  0  0  0  0
   46.4407   20.7174   35.5536 H   0  0  0  0  0  0  0  0  0  0  0  0
   42.9797   23.6746   37.6192 H   0  0  0  0  0  0  0  0  0  0  0  0
   43.8616   23.4191   36.0754 H   0  0  0  0  0  0  0  0  0  0  0  0
   42.2779   24.2668   36.0754 H   0  0  0  0  0  0  0  0  0  0  0  0
   40.9285   20.7957   37.4419 H   0  0  0  0  0  0  0  0  0  0  0  0
   41.6359   22.1820   38.4006 H   0  0  0  0  0  0  0  0  0  0  0  0
   39.8901   23.0660   39.4221 H   0  0  0  0  0  0  0  0  0  0  0  0
   37.7895   24.3683   39.3303 H   0  0  0  0  0  0  0  0  0  0  0  0
   36.5919   24.6887   37.1850 H   0  0  0  0  0  0  0  0  0  0  0  0
   37.5466   23.6667   35.0991 H   0  0  0  0  0  0  0  0  0  0  0  0
   39.6270   22.3843   35.2024 H   0  0  0  0  0  0  0  0  0  0  0  0
  1  2  1  0
  1  8  1  0
  1  9  1  0
  2  3  2  0
  3  4  1  0
  5  4  2  0
  6  5  1  0
  7  6  2  0
  7  2  1  0
 10  9  1  0
 10 11  2  0
 12 11  1  0
 13 12  2  0
 14 15  2  0
 14 13  1  0
 15 10  1  0
  1 16  1  6
  3 17  1  0
  4 18  1  0
  6 19  1  0
  8 20  1  0
  8 21  1  0
  8 22  1  0
  9 23  1  0
  9 24  1  0
 11 25  1  0
 12 26  1  0
 13 27  1  0
 14 28  1  0
 15 29  1  0
M  ISO  8  16   8  17  14  18  14  19  14  20   8  21   8  22   8  23   8
M  ISO  6  24   8  25  14  26  14  27  14  28  14  29  14
M  END
>  <minimizedAffinity>  (1) 
-4.20319128

>  <minimizedRMSD>  (1) 
6.07135725

$$$$
