
     RDKit          3D

 43 46  0  0  1  0  0  0  0  0999 V2000
   38.3680   26.0350   34.5250 N   0  0  0  0  0  0  0  0  0  0  0  0
   37.7510   27.2380   34.0020 C   0  0  0  0  0  0  0  0  0  0  0  0
   38.2380   27.3570   32.5980 C   0  0  0  0  0  0  0  0  0  0  0  0
   39.0940   26.1230   32.3920 C   0  0  0  0  0  0  0  0  0  0  0  0
   38.3990   25.1600   33.3990 C   0  0  2  0  0  0  0  0  0  0  0  0
   37.5460   25.4150   35.5240 C   0  0  0  0  0  0  0  0  0  0  0  0
   38.7340   23.3920   38.5010 C   0  0  0  0  0  0  0  0  0  0  0  0
   37.9490   24.2530   37.7360 C   0  0  0  0  0  0  0  0  0  0  0  0
   38.3430   24.5010   36.4030 C   0  0  0  0  0  0  0  0  0  0  0  0
   39.4730   23.8780   35.9520 N   0  0  0  0  0  0  0  0  0  0  0  0
   40.1880   23.0540   36.7440 C   0  0  0  0  0  0  0  0  0  0  0  0
   39.8100   22.8230   38.0060 N   0  0  0  0  0  0  0  0  0  0  0  0
   37.1540   24.7930   32.9690 O   0  0  0  0  0  0  0  0  0  0  0  0
   37.1220   23.6040   32.2890 C   0  0  2  0  0  0  0  0  0  0  0  0
   36.6920   23.6640   30.8550 C   0  0  0  0  0  0  0  0  0  0  0  0
   35.8070   23.0020   31.8760 C   0  0  1  0  0  0  0  0  0  0  0  0
   35.7710   21.5210   31.9560 C   0  0  0  0  0  0  0  0  0  0  0  0
   36.1370   20.8020   30.8170 C   0  0  0  0  0  0  0  0  0  0  0  0
   36.1400   19.4090   30.7770 C   0  0  0  0  0  0  0  0  0  0  0  0
   35.7650   18.7200   31.9120 C   0  0  0  0  0  0  0  0  0  0  0  0
   35.3950   19.4030   33.0620 C   0  0  0  0  0  0  0  0  0  0  0  0
   35.4010   20.7990   33.0720 C   0  0  0  0  0  0  0  0  0  0  0  0
   36.6549   27.1480   34.0224 H   0  0  0  0  0  0  0  0  0  0  0  0
   38.0109   28.1235   34.6007 H   0  0  0  0  0  0  0  0  0  0  0  0
   37.3941   27.3679   31.8925 H   0  0  0  0  0  0  0  0  0  0  0  0
   38.7959   28.2890   32.4245 H   0  0  0  0  0  0  0  0  0  0  0  0
   39.0346   25.7497   31.3590 H   0  0  0  0  0  0  0  0  0  0  0  0
   40.1727   26.2686   32.5505 H   0  0  0  0  0  0  0  0  0  0  0  0
   38.8882   24.1900   33.5719 H   0  0  0  0  0  0  0  0  0  0  0  0
   37.0874   26.1982   36.1456 H   0  0  0  0  0  0  0  0  0  0  0  0
   36.7758   24.8176   35.0142 H   0  0  0  0  0  0  0  0  0  0  0  0
   38.4464   23.1842   39.5422 H   0  0  0  0  0  0  0  0  0  0  0  0
   37.0496   24.7251   38.1581 H   0  0  0  0  0  0  0  0  0  0  0  0
   41.0914   22.5668   36.3483 H   0  0  0  0  0  0  0  0  0  0  0  0
   37.9871   23.2181   32.8481 H   0  0  0  0  0  0  0  0  0  0  0  0
   37.2106   23.0552   30.0997 H   0  0  0  0  0  0  0  0  0  0  0  0
   36.5595   24.4683   30.1164 H   0  0  0  0  0  0  0  0  0  0  0  0
   34.7442   23.1188   32.1347 H   0  0  0  0  0  0  0  0  0  0  0  0
   36.4349   21.3569   29.9152 H   0  0  0  0  0  0  0  0  0  0  0  0
   36.4341   18.8720   29.8631 H   0  0  0  0  0  0  0  0  0  0  0  0
   35.7593   17.6200   31.9053 H   0  0  0  0  0  0  0  0  0  0  0  0
   35.0979   18.8461   33.9629 H   0  0  0  0  0  0  0  0  0  0  0  0
   35.1052   21.3334   33.9868 H   0  0  0  0  0  0  0  0  0  0  0  0
  1  6  1  0
  2  1  1  0
  3  2  1  0
  4  3  1  0
  4  5  1  0
  5  1  1  0
  6  9  1  0
  8  7  2  0
  9  8  1  0
 10  9  2  0
 10 11  1  0
 11 12  2  0
 12  7  1  0
 13  5  1  0
 14 13  1  0
 15 16  1  0
 15 14  1  0
 16 17  1  0
 16 14  1  0
 17 22  1  0
 18 17  2  0
 19 18  1  0
 19 20  2  0
 20 21  1  0
 21 22  2  0
  2 23  1  0
  2 24  1  0
  3 25  1  0
  3 26  1  0
  4 27  1  0
  4 28  1  0
  5 29  1  1
  6 30  1  0
  6 31  1  0
  7 32  1  0
  8 33  1  0
 11 34  1  0
 14 35  1  6
 15 36  1  0
 15 37  1  0
 16 38  1  1
 18 39  1  0
 19 40  1  0
 20 41  1  0
 21 42  1  0
 22 43  1  0
M  ISO  8  23  13  24  13  25  13  26  13  27  13  28  13  29  13  30   8
M  ISO  8  31   8  32  14  33  14  34  14  35  13  36  13  37  13  38  13
M  ISO  5  39  14  40  14  41  14  42  14  43  14
M  END
>  <minimizedAffinity>  (1) 
-5.57641506

>  <minimizedRMSD>  (1) 
6.57699537

$$$$
