
     RDKit          3D

 43 46  0  0  1  0  0  0  0  0999 V2000
   38.3390   25.9560   34.4420 N   0  0  0  0  0  0  0  0  0  0  0  0
   37.7520   27.1920   33.9710 C   0  0  0  0  0  0  0  0  0  0  0  0
   38.2400   27.3580   32.5730 C   0  0  0  0  0  0  0  0  0  0  0  0
   39.0780   26.1150   32.3170 C   0  0  0  0  0  0  0  0  0  0  0  0
   38.3620   25.1240   33.2820 C   0  0  2  0  0  0  0  0  0  0  0  0
   37.5120   25.3120   35.4200 C   0  0  0  0  0  0  0  0  0  0  0  0
   38.7120   23.4140   38.4730 C   0  0  0  0  0  0  0  0  0  0  0  0
   37.9220   24.2370   37.6710 C   0  0  0  0  0  0  0  0  0  0  0  0
   38.3170   24.4410   36.3350 C   0  0  0  0  0  0  0  0  0  0  0  0
   39.4560   23.8170   35.9110 N   0  0  0  0  0  0  0  0  0  0  0  0
   40.1770   23.0310   36.7360 C   0  0  0  0  0  0  0  0  0  0  0  0
   39.7960   22.8410   38.0060 N   0  0  0  0  0  0  0  0  0  0  0  0
   37.1200   24.7920   32.8320 O   0  0  0  0  0  0  0  0  0  0  0  0
   37.0060   23.5720   32.2370 C   0  0  2  0  0  0  0  0  0  0  0  0
   36.0710   23.5420   31.0540 C   0  0  0  0  0  0  0  0  0  0  0  0
   35.7390   22.7860   32.3100 C   0  0  1  0  0  0  0  0  0  0  0  0
   35.7640   21.3160   32.1140 C   0  0  0  0  0  0  0  0  0  0  0  0
   35.3920   20.4770   33.1400 C   0  0  0  0  0  0  0  0  0  0  0  0
   35.4140   19.0890   32.9590 C   0  0  0  0  0  0  0  0  0  0  0  0
   35.8120   18.5750   31.7400 C   0  0  0  0  0  0  0  0  0  0  0  0
   36.1910   19.3780   30.6870 C   0  0  0  0  0  0  0  0  0  0  0  0
   36.1490   20.7230   30.9260 C   0  0  0  0  0  0  0  0  0  0  0  0
   36.6540   27.1276   33.9897 H   0  0  0  0  0  0  0  0  0  0  0  0
   38.0342   28.0452   34.6054 H   0  0  0  0  0  0  0  0  0  0  0  0
   37.3961   27.4106   31.8694 H   0  0  0  0  0  0  0  0  0  0  0  0
   38.8132   28.2867   32.4356 H   0  0  0  0  0  0  0  0  0  0  0  0
   39.0155   25.7858   31.2693 H   0  0  0  0  0  0  0  0  0  0  0  0
   40.1587   26.2346   32.4836 H   0  0  0  0  0  0  0  0  0  0  0  0
   38.8343   24.1403   33.4206 H   0  0  0  0  0  0  0  0  0  0  0  0
   37.0007   26.0812   36.0175 H   0  0  0  0  0  0  0  0  0  0  0  0
   36.7851   24.6774   34.8919 H   0  0  0  0  0  0  0  0  0  0  0  0
   38.4201   23.2415   39.5195 H   0  0  0  0  0  0  0  0  0  0  0  0
   37.0151   24.7138   38.0712 H   0  0  0  0  0  0  0  0  0  0  0  0
   41.0878   22.5406   36.3620 H   0  0  0  0  0  0  0  0  0  0  0  0
   38.0500   23.3087   32.4621 H   0  0  0  0  0  0  0  0  0  0  0  0
   35.4962   24.4397   30.7823 H   0  0  0  0  0  0  0  0  0  0  0  0
   36.1667   23.2837   29.9890 H   0  0  0  0  0  0  0  0  0  0  0  0
   34.9361   22.7576   33.0613 H   0  0  0  0  0  0  0  0  0  0  0  0
   35.0763   20.8988   34.1056 H   0  0  0  0  0  0  0  0  0  0  0  0
   35.1181   18.4160   33.7772 H   0  0  0  0  0  0  0  0  0  0  0  0
   35.8268   17.4834   31.6052 H   0  0  0  0  0  0  0  0  0  0  0  0
   36.5066   18.9642   29.7179 H   0  0  0  0  0  0  0  0  0  0  0  0
   36.4467   21.3901   30.1036 H   0  0  0  0  0  0  0  0  0  0  0  0
  1  6  1  0
  2  1  1  0
  3  2  1  0
  4  3  1  0
  4  5  1  0
  5  1  1  0
  6  9  1  0
  8  7  2  0
  9  8  1  0
 10  9  2  0
 10 11  1  0
 11 12  2  0
 12  7  1  0
 13  5  1  0
 14 16  1  0
 14 13  1  0
 15 14  1  0
 15 16  1  0
 17 16  1  0
 17 18  2  0
 19 18  1  0
 20 19  2  0
 21 22  2  0
 21 20  1  0
 22 17  1  0
  2 23  1  0
  2 24  1  0
  3 25  1  0
  3 26  1  0
  4 27  1  0
  4 28  1  0
  5 29  1  1
  6 30  1  0
  6 31  1  0
  7 32  1  0
  8 33  1  0
 11 34  1  0
 14 35  1  6
 15 36  1  0
 15 37  1  0
 16 38  1  1
 18 39  1  0
 19 40  1  0
 20 41  1  0
 21 42  1  0
 22 43  1  0
M  ISO  8  23  13  24  13  25  13  26  13  27  13  28  13  29  13  30   8
M  ISO  8  31   8  32  14  33  14  34  14  35  13  36  13  37  13  38  13
M  ISO  5  39  14  40  14  41  14  42  14  43  14
M  END
>  <minimizedAffinity>  (1) 
-5.43714762

>  <minimizedRMSD>  (1) 
6.76942635

$$$$
