
     RDKit          3D

 48 51  0  0  1  0  0  0  0  0999 V2000
   37.6090   25.4680   34.5940 N   0  0  0  0  0  0  0  0  0  0  0  0
   37.1770   25.7670   33.2460 C   0  0  0  0  0  0  0  0  0  0  0  0
   37.2290   27.2510   33.1290 C   0  0  0  0  0  0  0  0  0  0  0  0
   37.7630   27.7170   34.4680 C   0  0  0  0  0  0  0  0  0  0  0  0
   38.5950   26.4620   34.8640 C   0  0  2  0  0  0  0  0  0  0  0  0
   38.2570   24.1900   34.6720 C   0  0  0  0  0  0  0  0  0  0  0  0
   37.9300   23.6750   38.4120 C   0  0  0  0  0  0  0  0  0  0  0  0
   37.6030   24.0580   37.1120 C   0  0  0  0  0  0  0  0  0  0  0  0
   38.5430   23.8060   36.0910 C   0  0  0  0  0  0  0  0  0  0  0  0
   39.7180   23.2020   36.4420 N   0  0  0  0  0  0  0  0  0  0  0  0
   39.9730   22.8560   37.7190 C   0  0  0  0  0  0  0  0  0  0  0  0
   39.0760   23.0960   38.6900 N   0  0  0  0  0  0  0  0  0  0  0  0
   39.7100   26.3550   34.1000 O   0  0  0  0  0  0  0  0  0  0  0  0
   40.9000   26.5400   34.7400 C   0  0  2  0  0  0  0  0  0  0  0  0
   42.0410   26.9700   33.8500 C   0  0  0  0  0  0  0  0  0  0  0  0
   42.0510   25.6100   34.5060 C   0  0  1  0  0  0  0  0  0  0  0  0
   43.1080   25.4580   35.4400 N   0  0  0  0  0  0  0  0  0  0  0  0
   44.3730   25.9890   35.0190 C   0  0  0  0  0  0  0  0  0  0  0  0
   45.1900   24.9460   34.3060 C   0  0  0  0  0  0  0  0  0  0  0  0
   45.5600   23.8620   35.2850 C   0  0  0  0  0  0  0  0  0  0  0  0
   44.5560   23.6860   36.3810 C   0  0  0  0  0  0  0  0  0  0  0  0
   43.1850   24.1850   36.0840 C   0  0  0  0  0  0  0  0  0  0  0  0
   37.8523   25.3001   32.5139 H   0  0  0  0  0  0  0  0  0  0  0  0
   36.1677   25.3779   33.0461 H   0  0  0  0  0  0  0  0  0  0  0  0
   37.9035   27.5537   32.3145 H   0  0  0  0  0  0  0  0  0  0  0  0
   36.2468   27.6874   32.8948 H   0  0  0  0  0  0  0  0  0  0  0  0
   38.3936   28.6128   34.3690 H   0  0  0  0  0  0  0  0  0  0  0  0
   36.9975   28.0204   35.1973 H   0  0  0  0  0  0  0  0  0  0  0  0
   39.0039   26.4316   35.8847 H   0  0  0  0  0  0  0  0  0  0  0  0
   37.6030   23.4294   34.2206 H   0  0  0  0  0  0  0  0  0  0  0  0
   39.2132   24.2541   34.1321 H   0  0  0  0  0  0  0  0  0  0  0  0
   37.2117   23.8620   39.2239 H   0  0  0  0  0  0  0  0  0  0  0  0
   36.6408   24.5422   36.8892 H   0  0  0  0  0  0  0  0  0  0  0  0
   40.9278   22.3708   37.9697 H   0  0  0  0  0  0  0  0  0  0  0  0
   40.4081   26.8960   35.6572 H   0  0  0  0  0  0  0  0  0  0  0  0
   42.7396   27.7500   34.1871 H   0  0  0  0  0  0  0  0  0  0  0  0
   42.1296   27.3397   32.8178 H   0  0  0  0  0  0  0  0  0  0  0  0
   42.0734   24.5479   34.2206 H   0  0  0  0  0  0  0  0  0  0  0  0
   44.1984   26.8353   34.3383 H   0  0  0  0  0  0  0  0  0  0  0  0
   44.9276   26.3168   35.9106 H   0  0  0  0  0  0  0  0  0  0  0  0
   44.6012   24.5149   33.4829 H   0  0  0  0  0  0  0  0  0  0  0  0
   46.1018   25.4038   33.8950 H   0  0  0  0  0  0  0  0  0  0  0  0
   45.6489   22.9123   34.7372 H   0  0  0  0  0  0  0  0  0  0  0  0
   46.5084   24.1589   35.7566 H   0  0  0  0  0  0  0  0  0  0  0  0
   44.4839   22.6114   36.6045 H   0  0  0  0  0  0  0  0  0  0  0  0
   44.9208   24.2921   37.2233 H   0  0  0  0  0  0  0  0  0  0  0  0
   42.6390   24.2559   37.0363 H   0  0  0  0  0  0  0  0  0  0  0  0
   42.7553   23.4655   35.3714 H   0  0  0  0  0  0  0  0  0  0  0  0
  1  6  1  0
  1  5  1  0
  2  1  1  0
  3  2  1  0
  3  4  1  0
  4  5  1  0
  6  9  1  0
  7 12  2  0
  8  7  1  0
  9 10  1  0
  9  8  2  0
 10 11  2  0
 11 12  1  0
 13 14  1  0
 13  5  1  0
 15 16  1  0
 15 14  1  0
 16 14  1  0
 16 17  1  0
 17 22  1  0
 18 17  1  0
 19 18  1  0
 19 20  1  0
 20 21  1  0
 22 21  1  0
  2 23  1  0
  2 24  1  0
  3 25  1  0
  3 26  1  0
  4 27  1  0
  4 28  1  0
  5 29  1  1
  6 30  1  0
  6 31  1  0
  7 32  1  0
  8 33  1  0
 11 34  1  0
 14 35  1  1
 15 36  1  0
 15 37  1  0
 16 38  1  6
 18 39  1  0
 18 40  1  0
 19 41  1  0
 19 42  1  0
 20 43  1  0
 20 44  1  0
 21 45  1  0
 21 46  1  0
 22 47  1  0
 22 48  1  0
M  ISO  8  23  13  24  13  25  13  26  13  27  13  28  13  29  13  30   8
M  ISO  8  31   8  32  14  33  14  34  14  35  13  36  13  37  13  38  13
M  ISO  8  39  13  40  13  41  13  42  13  43  13  44  13  45  13  46  13
M  ISO  2  47  13  48  13
M  END
>  <minimizedAffinity>  (1) 
-4.64455318

>  <minimizedRMSD>  (1) 
1.09228981

$$$$
