
     RDKit          3D

 38 41  0  0  1  0  0  0  0  0999 V2000
   37.9900   26.5700   34.2300 N   0  0  0  0  0  0  0  0  0  0  0  0
   36.9800   27.6040   34.1440 C   0  0  0  0  0  0  0  0  0  0  0  0
   36.9940   28.0570   32.7240 C   0  0  0  0  0  0  0  0  0  0  0  0
   38.0250   27.1690   32.0610 C   0  0  0  0  0  0  0  0  0  0  0  0
   37.9070   25.9120   32.9640 C   0  0  2  0  0  0  0  0  0  0  0  0
   37.6660   25.6010   35.2390 C   0  0  0  0  0  0  0  0  0  0  0  0
   41.1620   24.1430   35.3870 C   0  0  0  0  0  0  0  0  0  0  0  0
   40.1240   25.0220   35.0750 C   0  0  0  0  0  0  0  0  0  0  0  0
   38.8290   24.7030   35.5350 C   0  0  0  0  0  0  0  0  0  0  0  0
   38.6800   23.5530   36.2560 N   0  0  0  0  0  0  0  0  0  0  0  0
   39.7220   22.7460   36.5230 C   0  0  0  0  0  0  0  0  0  0  0  0
   40.9480   23.0510   36.0860 N   0  0  0  0  0  0  0  0  0  0  0  0
   36.7160   25.2600   32.7810 O   0  0  0  0  0  0  0  0  0  0  0  0
   36.8500   24.0140   32.2260 C   0  0  2  0  0  0  0  0  0  0  0  0
   36.9920   23.9600   30.7350 C   0  0  0  0  0  0  0  0  0  0  0  0
   35.7530   23.4250   31.3970 C   0  0  1  0  0  0  0  0  0  0  0  0
   35.6010   21.9530   31.5000 C   0  0  0  0  0  0  0  0  0  0  0  0
   35.9760   20.9450   30.6920 N   0  0  0  0  0  0  0  0  0  0  0  0
   35.6200   19.8070   31.2080 O   0  0  0  0  0  0  0  0  0  0  0  0
   35.0100   19.9800   32.3440 C   0  0  0  0  0  0  0  0  0  0  0  0
   34.9940   21.3110   32.5330 N   0  0  0  0  0  0  0  0  0  0  0  0
   35.9920   27.1993   34.4087 H   0  0  0  0  0  0  0  0  0  0  0  0
   37.1836   28.4322   34.8387 H   0  0  0  0  0  0  0  0  0  0  0  0
   36.0056   27.9200   32.2611 H   0  0  0  0  0  0  0  0  0  0  0  0
   37.2329   29.1262   32.6252 H   0  0  0  0  0  0  0  0  0  0  0  0
   37.7637   26.9482   31.0156 H   0  0  0  0  0  0  0  0  0  0  0  0
   39.0349   27.5994   31.9906 H   0  0  0  0  0  0  0  0  0  0  0  0
   38.6451   25.1146   32.7928 H   0  0  0  0  0  0  0  0  0  0  0  0
   37.3782   26.1279   36.1607 H   0  0  0  0  0  0  0  0  0  0  0  0
   36.8379   24.9801   34.8666 H   0  0  0  0  0  0  0  0  0  0  0  0
   42.1812   24.3691   35.0404 H   0  0  0  0  0  0  0  0  0  0  0  0
   40.3096   25.9344   34.4892 H   0  0  0  0  0  0  0  0  0  0  0  0
   39.5641   21.8268   37.1062 H   0  0  0  0  0  0  0  0  0  0  0  0
   37.4115   23.6485   33.0984 H   0  0  0  0  0  0  0  0  0  0  0  0
   37.7131   23.2682   30.2753 H   0  0  0  0  0  0  0  0  0  0  0  0
   37.1967   24.6972   29.9446 H   0  0  0  0  0  0  0  0  0  0  0  0
   34.6763   23.6045   31.2614 H   0  0  0  0  0  0  0  0  0  0  0  0
   34.5968   19.2051   33.0064 H   0  0  0  0  0  0  0  0  0  0  0  0
  1  6  1  0
  2  1  1  0
  3  2  1  0
  4  3  1  0
  4  5  1  0
  5  1  1  0
  6  9  1  0
  7 12  2  0
  8  7  1  0
  8  9  2  0
  9 10  1  0
 10 11  2  0
 12 11  1  0
 13  5  1  0
 14 13  1  0
 15 16  1  0
 15 14  1  0
 16 17  1  0
 16 14  1  0
 17 21  1  0
 18 19  1  0
 18 17  2  0
 19 20  1  0
 20 21  2  0
  2 22  1  0
  2 23  1  0
  3 24  1  0
  3 25  1  0
  4 26  1  0
  4 27  1  0
  5 28  1  6
  6 29  1  0
  6 30  1  0
  7 31  1  0
  8 32  1  0
 11 33  1  0
 14 34  1  1
 15 35  1  0
 15 36  1  0
 16 37  1  6
 20 38  1  0
M  ISO  8  22  13  23  13  24  13  25  13  26  13  27  13  28  13  29   8
M  ISO  8  30   8  31  14  32  14  33  14  34  13  35  13  36  13  37  13
M  ISO  1  38  14
M  END
>  <minimizedAffinity>  (1) 
-4.60862637

>  <minimizedRMSD>  (1) 
6.24354029

$$$$
