
     RDKit          3D

 39 42  0  0  1  0  0  0  0  0999 V2000
   38.3460   26.1070   34.6230 N   0  0  0  0  0  0  0  0  0  0  0  0
   37.6920   27.2900   34.1030 C   0  0  0  0  0  0  0  0  0  0  0  0
   38.2080   27.4540   32.7120 C   0  0  0  0  0  0  0  0  0  0  0  0
   39.1420   26.2710   32.5220 C   0  0  0  0  0  0  0  0  0  0  0  0
   38.4560   25.2570   33.4860 C   0  0  2  0  0  0  0  0  0  0  0  0
   37.5230   25.4300   35.5850 C   0  0  0  0  0  0  0  0  0  0  0  0
   38.7550   23.4030   38.5430 C   0  0  0  0  0  0  0  0  0  0  0  0
   37.9640   24.2730   37.7930 C   0  0  0  0  0  0  0  0  0  0  0  0
   38.3260   24.5120   36.4450 C   0  0  0  0  0  0  0  0  0  0  0  0
   39.4320   23.8690   35.9700 N   0  0  0  0  0  0  0  0  0  0  0  0
   40.1540   23.0390   36.7480 C   0  0  0  0  0  0  0  0  0  0  0  0
   39.8080   22.8150   38.0230 N   0  0  0  0  0  0  0  0  0  0  0  0
   37.2510   24.8350   33.0070 O   0  0  0  0  0  0  0  0  0  0  0  0
   37.2820   23.6400   32.3390 C   0  0  2  0  0  0  0  0  0  0  0  0
   36.9430   23.7040   30.8810 C   0  0  0  0  0  0  0  0  0  0  0  0
   36.0310   22.9960   31.8380 C   0  0  1  0  0  0  0  0  0  0  0  0
   36.0700   21.5530   31.7130 N   0  0  0  0  0  0  0  0  0  0  0  0
   36.3800   20.7250   32.7520 C   0  0  0  0  0  0  0  0  0  0  0  0
   36.3430   19.4420   32.3650 N   0  0  0  0  0  0  0  0  0  0  0  0
   36.0080   19.4510   31.0670 C   0  0  0  0  0  0  0  0  0  0  0  0
   35.8500   20.7300   30.7010 N   0  0  0  0  0  0  0  0  0  0  0  0
   36.6006   27.1531   34.0942 H   0  0  0  0  0  0  0  0  0  0  0  0
   37.8996   28.1755   34.7216 H   0  0  0  0  0  0  0  0  0  0  0  0
   37.3843   27.4223   31.9836 H   0  0  0  0  0  0  0  0  0  0  0  0
   38.7128   28.4194   32.5598 H   0  0  0  0  0  0  0  0  0  0  0  0
   39.1463   25.9124   31.4821 H   0  0  0  0  0  0  0  0  0  0  0  0
   40.2043   26.4711   32.7258 H   0  0  0  0  0  0  0  0  0  0  0  0
   38.9831   24.3072   33.6595 H   0  0  0  0  0  0  0  0  0  0  0  0
   37.0310   26.1784   36.2236 H   0  0  0  0  0  0  0  0  0  0  0  0
   36.7798   24.8293   35.0402 H   0  0  0  0  0  0  0  0  0  0  0  0
   38.4913   23.2051   39.5924 H   0  0  0  0  0  0  0  0  0  0  0  0
   37.0831   24.7602   38.2364 H   0  0  0  0  0  0  0  0  0  0  0  0
   41.0400   22.5382   36.3306 H   0  0  0  0  0  0  0  0  0  0  0  0
   38.1090   23.2715   32.9637 H   0  0  0  0  0  0  0  0  0  0  0  0
   37.5321   23.1272   30.1528 H   0  0  0  0  0  0  0  0  0  0  0  0
   36.8236   24.5113   30.1435 H   0  0  0  0  0  0  0  0  0  0  0  0
   34.9694   23.0628   32.1184 H   0  0  0  0  0  0  0  0  0  0  0  0
   36.6267   21.0640   33.7690 H   0  0  0  0  0  0  0  0  0  0  0  0
   35.8853   18.5694   30.4206 H   0  0  0  0  0  0  0  0  0  0  0  0
  1  6  1  0
  2  1  1  0
  3  2  1  0
  4  3  1  0
  4  5  1  0
  5  1  1  0
  6  9  1  0
  8  7  2  0
  9  8  1  0
 10  9  2  0
 10 11  1  0
 11 12  2  0
 12  7  1  0
 13  5  1  0
 14 13  1  0
 15 16  1  0
 15 14  1  0
 16 14  1  0
 17 16  1  0
 17 18  1  0
 19 18  2  0
 20 19  1  0
 21 20  2  0
 21 17  1  0
  2 22  1  0
  2 23  1  0
  3 24  1  0
  3 25  1  0
  4 26  1  0
  4 27  1  0
  5 28  1  1
  6 29  1  0
  6 30  1  0
  7 31  1  0
  8 32  1  0
 11 33  1  0
 14 34  1  6
 15 35  1  0
 15 36  1  0
 16 37  1  1
 18 38  1  0
 20 39  1  0
M  ISO  8  22  13  23  13  24  13  25  13  26  13  27  13  28  13  29   8
M  ISO  8  30   8  31  14  32  14  33  14  34  13  35  13  36  13  37  13
M  ISO  2  38  14  39  14
M  END
>  <minimizedAffinity>  (1) 
-4.58343649

>  <minimizedRMSD>  (1) 
6.10519505

$$$$
