
     RDKit          3D

 45 47  0  0  1  0  0  0  0  0999 V2000
   37.7030   25.4160   34.1740 N   0  0  0  0  0  0  0  0  0  0  0  0
   37.0690   25.4260   32.8730 C   0  0  0  0  0  0  0  0  0  0  0  0
   36.9140   26.8640   32.5110 C   0  0  0  0  0  0  0  0  0  0  0  0
   37.5270   27.6100   33.6820 C   0  0  0  0  0  0  0  0  0  0  0  0
   38.5700   26.5490   34.1390 C   0  0  2  0  0  0  0  0  0  0  0  0
   38.5200   24.2510   34.3550 C   0  0  0  0  0  0  0  0  0  0  0  0
   37.9220   23.9860   38.0890 C   0  0  0  0  0  0  0  0  0  0  0  0
   37.7220   24.3450   36.7580 C   0  0  0  0  0  0  0  0  0  0  0  0
   38.6680   23.9040   35.8060 C   0  0  0  0  0  0  0  0  0  0  0  0
   39.7170   23.1530   36.2550 N   0  0  0  0  0  0  0  0  0  0  0  0
   39.8500   22.8410   37.5590 C   0  0  0  0  0  0  0  0  0  0  0  0
   38.9520   23.2600   38.4590 N   0  0  0  0  0  0  0  0  0  0  0  0
   39.5860   26.4130   33.2340 O   0  0  0  0  0  0  0  0  0  0  0  0
   40.8380   26.6480   33.7400 C   0  0  2  0  0  0  0  0  0  0  0  0
   41.6950   27.5840   32.9400 C   0  0  0  0  0  0  0  0  0  0  0  0
   42.0590   26.1360   33.0490 C   0  0  1  0  0  0  0  0  0  0  0  0
   43.2190   25.7590   33.9250 C   0  0  0  0  0  0  0  0  0  0  0  0
   44.1100   26.9600   34.1860 C   0  0  0  0  0  0  0  0  0  0  0  0
   44.0560   24.6290   33.3290 C   0  0  0  0  0  0  0  0  0  0  0  0
   42.7770   25.2660   35.2870 C   0  0  0  0  0  0  0  0  0  0  0  0
   37.7006   24.9105   32.1345 H   0  0  0  0  0  0  0  0  0  0  0  0
   36.1005   24.9047   32.8892 H   0  0  0  0  0  0  0  0  0  0  0  0
   37.4514   27.0919   31.5787 H   0  0  0  0  0  0  0  0  0  0  0  0
   35.8648   27.1439   32.3354 H   0  0  0  0  0  0  0  0  0  0  0  0
   38.0065   28.5482   33.3661 H   0  0  0  0  0  0  0  0  0  0  0  0
   36.8163   27.9342   34.4565 H   0  0  0  0  0  0  0  0  0  0  0  0
   39.1075   26.7618   35.0749 H   0  0  0  0  0  0  0  0  0  0  0  0
   38.0551   23.4033   33.8303 H   0  0  0  0  0  0  0  0  0  0  0  0
   39.5193   24.4634   33.9472 H   0  0  0  0  0  0  0  0  0  0  0  0
   37.1995   24.3187   38.8488 H   0  0  0  0  0  0  0  0  0  0  0  0
   36.8553   24.9523   36.4579 H   0  0  0  0  0  0  0  0  0  0  0  0
   40.7068   22.2347   37.8880 H   0  0  0  0  0  0  0  0  0  0  0  0
   40.4773   26.5648   34.7758 H   0  0  0  0  0  0  0  0  0  0  0  0
   42.3041   28.3448   33.4501 H   0  0  0  0  0  0  0  0  0  0  0  0
   41.5197   28.2829   32.1088 H   0  0  0  0  0  0  0  0  0  0  0  0
   42.2752   25.3418   32.3192 H   0  0  0  0  0  0  0  0  0  0  0  0
   44.2190   27.1069   35.2707 H   0  0  0  0  0  0  0  0  0  0  0  0
   45.0997   26.7866   33.7382 H   0  0  0  0  0  0  0  0  0  0  0  0
   43.6570   27.8568   33.7382 H   0  0  0  0  0  0  0  0  0  0  0  0
   44.4978   24.0325   34.1408 H   0  0  0  0  0  0  0  0  0  0  0  0
   43.4148   23.9857   32.7085 H   0  0  0  0  0  0  0  0  0  0  0  0
   44.8582   25.0549   32.7085 H   0  0  0  0  0  0  0  0  0  0  0  0
   43.2926   25.8411   36.0702 H   0  0  0  0  0  0  0  0  0  0  0  0
   41.6899   25.3990   35.3900 H   0  0  0  0  0  0  0  0  0  0  0  0
   43.0274   24.1998   35.3900 H   0  0  0  0  0  0  0  0  0  0  0  0
  1  6  1  0
  2  1  1  0
  3  2  1  0
  3  4  1  0
  4  5  1  0
  5  1  1  0
  6  9  1  0
  7 12  2  0
  8  7  1  0
  9 10  1  0
  9  8  2  0
 10 11  2  0
 11 12  1  0
 13 14  1  0
 13  5  1  0
 15 16  1  0
 15 14  1  0
 16 14  1  0
 16 17  1  0
 17 18  1  0
 17 20  1  0
 19 17  1  0
  2 21  1  0
  2 22  1  0
  3 23  1  0
  3 24  1  0
  4 25  1  0
  4 26  1  0
  5 27  1  1
  6 28  1  0
  6 29  1  0
  7 30  1  0
  8 31  1  0
 11 32  1  0
 14 33  1  1
 15 34  1  0
 15 35  1  0
 16 36  1  6
 18 37  1  0
 18 38  1  0
 18 39  1  0
 19 40  1  0
 19 41  1  0
 19 42  1  0
 20 43  1  0
 20 44  1  0
 20 45  1  0
M  ISO  8  21  13  22  13  23  13  24  13  25  13  26  13  27  13  28   8
M  ISO  8  29   8  30  14  31  14  32  14  33  13  34  13  35  13  36  13
M  ISO  8  37   8  38   8  39   8  40   8  41   8  42   8  43   8  44   8
M  ISO  1  45   8
M  END
>  <minimizedAffinity>  (1) 
-4.07060814

>  <minimizedRMSD>  (1) 
0.986921072

$$$$
