
     RDKit          3D

 33 35  0  0  1  0  0  0  0  0999 V2000
   38.4700   25.3270   33.7690 C   0  0  0  0  0  0  0  0  0  0  0  0
   37.5790   24.6400   32.9380 N   0  0  0  0  0  0  0  0  0  0  0  0
   37.2210   23.3300   32.8280 C   0  0  0  0  0  0  0  0  0  0  0  0
   36.2820   23.0650   31.8700 C   0  0  0  0  0  0  0  0  0  0  0  0
   36.0320   24.2530   31.3480 N   0  0  0  0  0  0  0  0  0  0  0  0
   36.8090   25.2100   31.9850 C   0  0  0  0  0  0  0  0  0  0  0  0
   36.6370   26.5630   31.5000 C   0  0  0  0  0  0  0  0  0  0  0  0
   36.0910   27.6440   32.1980 C   0  0  0  0  0  0  0  0  0  0  0  0
   36.0460   28.7970   31.5200 N   0  0  0  0  0  0  0  0  0  0  0  0
   36.5740   28.5130   30.3200 C   0  0  0  0  0  0  0  0  0  0  0  0
   36.8940   27.2180   30.3680 N   0  0  0  0  0  0  0  0  0  0  0  0
   37.9400   25.5550   35.1670 C   0  0  1  0  0  0  0  0  0  0  0  0
   38.5410   23.5030   38.2870 C   0  0  0  0  0  0  0  0  0  0  0  0
   37.9240   24.4160   37.4270 C   0  0  0  0  0  0  0  0  0  0  0  0
   38.5170   24.5980   36.1350 C   0  0  0  0  0  0  0  0  0  0  0  0
   39.6360   23.8790   35.8230 N   0  0  0  0  0  0  0  0  0  0  0  0
   40.1920   23.0180   36.6740 C   0  0  0  0  0  0  0  0  0  0  0  0
   39.6290   22.8350   37.9200 N   0  0  0  0  0  0  0  0  0  0  0  0
   38.2080   26.9870   35.5820 C   0  0  0  0  0  0  0  0  0  0  0  0
   38.6853   26.3054   33.3148 H   0  0  0  0  0  0  0  0  0  0  0  0
   39.3706   24.7024   33.8631 H   0  0  0  0  0  0  0  0  0  0  0  0
   37.6553   22.5437   33.4629 H   0  0  0  0  0  0  0  0  0  0  0  0
   35.8403   22.0948   31.5987 H   0  0  0  0  0  0  0  0  0  0  0  0
   35.7244   27.5534   33.2311 H   0  0  0  0  0  0  0  0  0  0  0  0
   36.7139   29.2023   29.4743 H   0  0  0  0  0  0  0  0  0  0  0  0
   37.3231   26.7430   29.5611 H   0  0  0  0  0  0  0  0  0  0  0  0
   36.8539   25.3807   35.1619 H   0  0  0  0  0  0  0  0  0  0  0  0
   38.1171   23.3343   39.2879 H   0  0  0  0  0  0  0  0  0  0  0  0
   37.0230   24.9704   37.7286 H   0  0  0  0  0  0  0  0  0  0  0  0
   41.0932   22.4572   36.3853 H   0  0  0  0  0  0  0  0  0  0  0  0
   38.2206   27.0543   36.6799 H   0  0  0  0  0  0  0  0  0  0  0  0
   39.1818   27.3080   35.1837 H   0  0  0  0  0  0  0  0  0  0  0  0
   37.4162   27.6385   35.1837 H   0  0  0  0  0  0  0  0  0  0  0  0
  1 12  1  0
  2  1  1  0
  3  2  1  0
  4  3  2  0
  5  4  1  0
  5  6  2  0
  6  2  1  0
  7  6  1  0
  7  8  2  0
  9  8  1  0
 10 11  1  0
 10  9  2  0
 11  7  1  0
 12 19  1  0
 12 15  1  0
 14 13  2  0
 15 14  1  0
 16 15  2  0
 16 17  1  0
 17 18  2  0
 18 13  1  0
  1 20  1  0
  1 21  1  0
  3 22  1  0
  4 23  1  0
  8 24  1  0
 10 25  1  0
 11 26  1  0
 12 27  1  6
 13 28  1  0
 14 29  1  0
 17 30  1  0
 19 31  1  0
 19 32  1  0
 19 33  1  0
M  ISO  8  20   8  21   8  22  14  23  14  24  14  25  14  26   9  27   8
M  ISO  6  28  14  29  14  30  14  31   8  32   8  33   8
M  END
>  <minimizedAffinity>  (1) 
-4.79488182

>  <minimizedRMSD>  (1) 
3.83041477

$$$$
