
     RDKit          3D

 38 39  0  0  1  0  0  0  0  0999 V2000
   38.4570   24.0310   35.5060 C   0  0  1  0  0  0  0  0  0  0  0  0
   40.8730   21.9710   37.5660 C   0  0  0  0  0  0  0  0  0  0  0  0
   39.7980   22.8070   37.2600 C   0  0  0  0  0  0  0  0  0  0  0  0
   39.5720   23.1440   35.8940 C   0  0  0  0  0  0  0  0  0  0  0  0
   40.4180   22.6320   34.9510 N   0  0  0  0  0  0  0  0  0  0  0  0
   41.4420   21.8320   35.2760 C   0  0  0  0  0  0  0  0  0  0  0  0
   41.6710   21.4980   36.5930 N   0  0  0  0  0  0  0  0  0  0  0  0
   38.1280   25.0180   36.5960 C   0  0  0  0  0  0  0  0  0  0  0  0
   38.6900   24.7230   34.2000 C   0  0  0  0  0  0  0  0  0  0  0  0
   37.7070   24.4460   33.2320 N   0  0  0  0  0  0  0  0  0  0  0  0
   37.1900   23.3190   32.7220 C   0  0  0  0  0  0  0  0  0  0  0  0
   36.2230   23.4890   31.7550 C   0  0  0  0  0  0  0  0  0  0  0  0
   36.1420   24.8120   31.6680 N   0  0  0  0  0  0  0  0  0  0  0  0
   37.0260   25.3960   32.5480 C   0  0  0  0  0  0  0  0  0  0  0  0
   37.0670   26.8890   32.6110 C   0  0  0  0  0  0  0  0  0  0  0  0
   35.9140   27.5280   31.8470 C   0  0  0  0  0  0  0  0  0  0  0  0
   38.3560   27.5040   32.1850 C   0  0  0  0  0  0  0  0  0  0  0  0
   36.8500   27.3490   34.0550 C   0  0  0  0  0  0  0  0  0  0  0  0
   37.5829   23.3786   35.3630 H   0  0  0  0  0  0  0  0  0  0  0  0
   41.0691   21.6966   38.6130 H   0  0  0  0  0  0  0  0  0  0  0  0
   39.1421   23.1957   38.0529 H   0  0  0  0  0  0  0  0  0  0  0  0
   42.1026   21.4402   34.4885 H   0  0  0  0  0  0  0  0  0  0  0  0
   38.2852   24.5465   37.5773 H   0  0  0  0  0  0  0  0  0  0  0  0
   38.7814   25.8980   36.5032 H   0  0  0  0  0  0  0  0  0  0  0  0
   37.0773   25.3300   36.5032 H   0  0  0  0  0  0  0  0  0  0  0  0
   38.7052   25.8082   34.3794 H   0  0  0  0  0  0  0  0  0  0  0  0
   39.6463   24.3507   33.8040 H   0  0  0  0  0  0  0  0  0  0  0  0
   37.5167   22.3225   33.0541 H   0  0  0  0  0  0  0  0  0  0  0  0
   35.6617   22.7246   31.1977 H   0  0  0  0  0  0  0  0  0  0  0  0
   35.1817   27.9339   32.5604 H   0  0  0  0  0  0  0  0  0  0  0  0
   36.2993   28.3413   31.2145 H   0  0  0  0  0  0  0  0  0  0  0  0
   35.4286   26.7702   31.2145 H   0  0  0  0  0  0  0  0  0  0  0  0
   38.9407   27.7830   33.0740 H   0  0  0  0  0  0  0  0  0  0  0  0
   38.9261   26.7809   31.5833 H   0  0  0  0  0  0  0  0  0  0  0  0
   38.1526   28.4021   31.5833 H   0  0  0  0  0  0  0  0  0  0  0  0
   37.2154   26.5745   34.7454 H   0  0  0  0  0  0  0  0  0  0  0  0
   37.4017   28.2847   34.2286 H   0  0  0  0  0  0  0  0  0  0  0  0
   35.7771   27.5183   34.2286 H   0  0  0  0  0  0  0  0  0  0  0  0
  1  4  1  0
  1  8  1  0
  3  2  2  0
  4  3  1  0
  5  6  1  0
  5  4  2  0
  6  7  2  0
  7  2  1  0
  9  1  1  0
 10  9  1  0
 11 10  1  0
 12 11  2  0
 13 12  1  0
 13 14  2  0
 14 15  1  0
 14 10  1  0
 15 18  1  0
 16 15  1  0
 17 15  1  0
  1 19  1  6
  2 20  1  0
  3 21  1  0
  6 22  1  0
  8 23  1  0
  8 24  1  0
  8 25  1  0
  9 26  1  0
  9 27  1  0
 11 28  1  0
 12 29  1  0
 16 30  1  0
 16 31  1  0
 16 32  1  0
 17 33  1  0
 17 34  1  0
 17 35  1  0
 18 36  1  0
 18 37  1  0
 18 38  1  0
M  ISO  8  19   8  20  14  21  14  22  14  23   8  24   8  25   8  26   8
M  ISO  8  27   8  28  14  29  14  30   8  31   8  32   8  33   8  34   8
M  ISO  4  35   8  36   8  37   8  38   8
M  END
>  <minimizedAffinity>  (1) 
-4.21490622

>  <minimizedRMSD>  (1) 
2.54023743

$$$$
