
     RDKit          3D

 27 28  0  0  1  0  0  0  0  0999 V2000
   38.4890   23.9570   36.2220 C   0  0  1  0  0  0  0  0  0  0  0  0
   41.2540   21.7570   37.5510 C   0  0  0  0  0  0  0  0  0  0  0  0
   40.1380   22.5840   37.5400 C   0  0  0  0  0  0  0  0  0  0  0  0
   39.6620   23.0650   36.2890 C   0  0  0  0  0  0  0  0  0  0  0  0
   40.3370   22.6820   35.1670 N   0  0  0  0  0  0  0  0  0  0  0  0
   41.4010   21.8910   35.1970 C   0  0  0  0  0  0  0  0  0  0  0  0
   41.8680   21.4200   36.4060 N   0  0  0  0  0  0  0  0  0  0  0  0
   38.0330   24.3920   37.5910 C   0  0  0  0  0  0  0  0  0  0  0  0
   38.7110   25.1550   35.3440 C   0  0  0  0  0  0  0  0  0  0  0  0
   37.9840   25.1010   34.1350 N   0  0  0  0  0  0  0  0  0  0  0  0
   37.8210   24.1860   33.1510 C   0  0  0  0  0  0  0  0  0  0  0  0
   36.9830   24.5990   32.1410 C   0  0  0  0  0  0  0  0  0  0  0  0
   36.6080   25.8300   32.5140 N   0  0  0  0  0  0  0  0  0  0  0  0
   37.2000   26.1270   33.6960 C   0  0  0  0  0  0  0  0  0  0  0  0
   36.9500   27.7040   34.5420 S   0  0  0  0  0  0  0  0  0  0  0  0
   37.6905   23.3565   35.7617 H   0  0  0  0  0  0  0  0  0  0  0  0
   41.6385   21.3743   38.5079 H   0  0  0  0  0  0  0  0  0  0  0  0
   39.6338   22.8607   38.4777 H   0  0  0  0  0  0  0  0  0  0  0  0
   41.9086   21.6119   34.2619 H   0  0  0  0  0  0  0  0  0  0  0  0
   38.6037   23.8476   38.3577 H   0  0  0  0  0  0  0  0  0  0  0  0
   38.2012   25.4728   37.7072 H   0  0  0  0  0  0  0  0  0  0  0  0
   36.9613   24.1731   37.7072 H   0  0  0  0  0  0  0  0  0  0  0  0
   38.4039   26.0552   35.8967 H   0  0  0  0  0  0  0  0  0  0  0  0
   39.7792   25.1750   35.0824 H   0  0  0  0  0  0  0  0  0  0  0  0
   38.3134   23.2024   33.1582 H   0  0  0  0  0  0  0  0  0  0  0  0
   36.6889   24.0464   31.2365 H   0  0  0  0  0  0  0  0  0  0  0  0
   36.9815   27.5053   35.8971 H   0  0  0  0  0  0  0  0  0  0  0  0
  1  4  1  0
  1  8  1  0
  3  2  2  0
  4  3  1  0
  5  6  1  0
  5  4  2  0
  6  7  2  0
  7  2  1  0
  9  1  1  0
 10  9  1  0
 11 10  1  0
 12 13  1  0
 12 11  2  0
 13 14  2  0
 14 10  1  0
 14 15  1  0
  1 16  1  6
  2 17  1  0
  3 18  1  0
  6 19  1  0
  8 20  1  0
  8 21  1  0
  8 22  1  0
  9 23  1  0
  9 24  1  0
 11 25  1  0
 12 26  1  0
 15 27  1  0
M  ISO  8  16   8  17  14  18  14  19  14  20   8  21   8  22   8  23   8
M  ISO  4  24   8  25  14  26  14  27  11
M  END
>  <minimizedAffinity>  (1) 
-3.74450111

>  <minimizedRMSD>  (1) 
1.22590435

$$$$
