
     RDKit          3D

 29 30  0  0  1  0  0  0  0  0999 V2000
   38.4070   24.0170   36.4250 C   0  0  1  0  0  0  0  0  0  0  0  0
   41.2430   21.7710   37.5340 C   0  0  0  0  0  0  0  0  0  0  0  0
   40.1250   22.6110   37.6400 C   0  0  0  0  0  0  0  0  0  0  0  0
   39.5790   23.1100   36.4140 C   0  0  0  0  0  0  0  0  0  0  0  0
   40.1700   22.7460   35.2280 N   0  0  0  0  0  0  0  0  0  0  0  0
   41.2290   21.9480   35.1790 C   0  0  0  0  0  0  0  0  0  0  0  0
   41.7620   21.4620   36.3480 N   0  0  0  0  0  0  0  0  0  0  0  0
   37.9530   24.3080   37.8360 C   0  0  0  0  0  0  0  0  0  0  0  0
   38.6680   25.3040   35.7020 C   0  0  0  0  0  0  0  0  0  0  0  0
   37.9810   25.4040   34.4770 N   0  0  0  0  0  0  0  0  0  0  0  0
   37.7970   24.6020   33.4240 C   0  0  0  0  0  0  0  0  0  0  0  0
   37.0320   25.1270   32.4020 C   0  0  0  0  0  0  0  0  0  0  0  0
   36.7200   26.3410   32.8530 N   0  0  0  0  0  0  0  0  0  0  0  0
   37.2890   26.5120   34.0990 C   0  0  0  0  0  0  0  0  0  0  0  0
   37.1100   27.7880   34.8620 C   0  0  0  0  0  0  0  0  0  0  0  0
   37.6057   23.4873   35.8890 H   0  0  0  0  0  0  0  0  0  0  0  0
   41.6989   21.3604   38.4470 H   0  0  0  0  0  0  0  0  0  0  0  0
   39.6896   22.8732   38.6155 H   0  0  0  0  0  0  0  0  0  0  0  0
   41.6761   21.6781   34.2109 H   0  0  0  0  0  0  0  0  0  0  0  0
   38.6584   23.8559   38.5487 H   0  0  0  0  0  0  0  0  0  0  0  0
   37.9197   25.3962   37.9934 H   0  0  0  0  0  0  0  0  0  0  0  0
   36.9503   23.8839   37.9934 H   0  0  0  0  0  0  0  0  0  0  0  0
   38.3535   26.1372   36.3477 H   0  0  0  0  0  0  0  0  0  0  0  0
   39.7439   25.3382   35.4758 H   0  0  0  0  0  0  0  0  0  0  0  0
   38.2267   23.5906   33.3749 H   0  0  0  0  0  0  0  0  0  0  0  0
   36.7491   24.6576   31.4482 H   0  0  0  0  0  0  0  0  0  0  0  0
   37.1396   27.5771   35.9412 H   0  0  0  0  0  0  0  0  0  0  0  0
   37.9189   28.4869   34.6026 H   0  0  0  0  0  0  0  0  0  0  0  0
   36.1400   28.2373   34.6026 H   0  0  0  0  0  0  0  0  0  0  0  0
  1  8  1  0
  2  3  2  0
  4  1  1  0
  4  3  1  0
  5  4  2  0
  6  5  1  0
  6  7  2  0
  7  2  1  0
  9  1  1  0
 10  9  1  0
 11 10  1  0
 12 13  1  0
 12 11  2  0
 13 14  2  0
 14 10  1  0
 14 15  1  0
  1 16  1  6
  2 17  1  0
  3 18  1  0
  6 19  1  0
  8 20  1  0
  8 21  1  0
  8 22  1  0
  9 23  1  0
  9 24  1  0
 11 25  1  0
 12 26  1  0
 15 27  1  0
 15 28  1  0
 15 29  1  0
M  ISO  8  16   8  17  14  18  14  19  14  20   8  21   8  22   8  23   8
M  ISO  6  24   8  25  14  26  14  27   8  28   8  29   8
M  END
>  <minimizedAffinity>  (1) 
-3.93843365

>  <minimizedRMSD>  (1) 
0.840855122

$$$$
