
     RDKit          3D

 33 35  0  0  1  0  0  0  0  0999 V2000
   38.0760   25.7760   35.4330 C   0  0  1  0  0  0  0  0  0  0  0  0
   38.6600   23.3920   38.3150 C   0  0  0  0  0  0  0  0  0  0  0  0
   38.0610   24.4160   37.5700 C   0  0  0  0  0  0  0  0  0  0  0  0
   38.6320   24.6960   36.2860 C   0  0  0  0  0  0  0  0  0  0  0  0
   39.7130   23.9580   35.8690 N   0  0  0  0  0  0  0  0  0  0  0  0
   40.2490   22.9980   36.6080 C   0  0  0  0  0  0  0  0  0  0  0  0
   39.7180   22.7080   37.8460 N   0  0  0  0  0  0  0  0  0  0  0  0
   38.3300   27.1340   36.0340 C   0  0  0  0  0  0  0  0  0  0  0  0
   38.5970   25.7220   34.0270 C   0  0  0  0  0  0  0  0  0  0  0  0
   37.5900   25.4420   33.0750 N   0  0  0  0  0  0  0  0  0  0  0  0
   37.0490   24.3320   32.5470 C   0  0  0  0  0  0  0  0  0  0  0  0
   36.0560   24.5630   31.6250 C   0  0  0  0  0  0  0  0  0  0  0  0
   35.9740   25.8940   31.5780 N   0  0  0  0  0  0  0  0  0  0  0  0
   36.8850   26.4180   32.4400 C   0  0  0  0  0  0  0  0  0  0  0  0
   36.9910   27.9150   32.5700 C   0  0  0  0  0  0  0  0  0  0  0  0
   35.8290   28.7270   32.0860 C   0  0  0  0  0  0  0  0  0  0  0  0
   36.0640   28.5900   33.5580 C   0  0  0  0  0  0  0  0  0  0  0  0
   36.9898   25.6080   35.3885 H   0  0  0  0  0  0  0  0  0  0  0  0
   38.2553   23.1418   39.3068 H   0  0  0  0  0  0  0  0  0  0  0  0
   37.1954   24.9772   37.9517 H   0  0  0  0  0  0  0  0  0  0  0  0
   41.1160   22.4336   36.2342 H   0  0  0  0  0  0  0  0  0  0  0  0
   38.3158   27.0578   37.1313 H   0  0  0  0  0  0  0  0  0  0  0  0
   39.3127   27.5027   35.7048 H   0  0  0  0  0  0  0  0  0  0  0  0
   37.5470   27.8330   35.7048 H   0  0  0  0  0  0  0  0  0  0  0  0
   39.0492   26.6947   33.7832 H   0  0  0  0  0  0  0  0  0  0  0  0
   39.3312   24.9043   33.9794 H   0  0  0  0  0  0  0  0  0  0  0  0
   37.3742   23.3199   32.8295 H   0  0  0  0  0  0  0  0  0  0  0  0
   35.4680   23.8251   31.0596 H   0  0  0  0  0  0  0  0  0  0  0  0
   38.0760   27.9193   32.3890 H   0  0  0  0  0  0  0  0  0  0  0  0
   36.0042   29.6934   31.5907 H   0  0  0  0  0  0  0  0  0  0  0  0
   34.9765   28.5358   31.4176 H   0  0  0  0  0  0  0  0  0  0  0  0
   35.3788   27.9865   34.1714 H   0  0  0  0  0  0  0  0  0  0  0  0
   36.1940   29.2913   34.3954 H   0  0  0  0  0  0  0  0  0  0  0  0
  1  8  1  0
  1  4  1  0
  3  2  2  0
  4  3  1  0
  5  4  2  0
  5  6  1  0
  6  7  2  0
  7  2  1  0
  9  1  1  0
 10  9  1  0
 11 10  1  0
 12 11  2  0
 13 12  1  0
 13 14  2  0
 14 15  1  0
 14 10  1  0
 15 17  1  0
 16 15  1  0
 16 17  1  0
  1 18  1  6
  2 19  1  0
  3 20  1  0
  6 21  1  0
  8 22  1  0
  8 23  1  0
  8 24  1  0
  9 25  1  0
  9 26  1  0
 11 27  1  0
 12 28  1  0
 15 29  1  0
 16 30  1  0
 16 31  1  0
 17 32  1  0
 17 33  1  0
M  ISO  8  18   8  19  14  20  14  21  14  22   8  23   8  24   8  25   8
M  ISO  8  26   8  27  14  28  14  29  13  30  13  31  13  32  13  33  13
M  END
>  <minimizedAffinity>  (1) 
-4.67149878

>  <minimizedRMSD>  (1) 
2.83702779

$$$$
