
     RDKit          3D

 47 51  0  0  1  0  0  0  0  0999 V2000
   37.3260   26.1200   32.8320 N   0  0  0  0  0  0  0  0  0  0  0  0
   36.8760   25.1700   32.0140 C   0  0  0  0  0  0  0  0  0  0  0  0
   35.8160   25.5500   31.2280 C   0  0  0  0  0  0  0  0  0  0  0  0
   35.5930   26.8120   31.5800 N   0  0  0  0  0  0  0  0  0  0  0  0
   36.5000   27.1630   32.5450 C   0  0  0  0  0  0  0  0  0  0  0  0
   36.4810   28.5760   33.0990 C   0  0  1  0  0  0  0  0  0  0  0  0
   35.8450   29.6060   32.2510 C   0  0  0  0  0  0  0  0  0  0  0  0
   35.1020   29.1060   33.4740 C   0  0  2  0  0  0  0  0  0  0  0  0
   35.1340   30.1470   34.5570 C   0  0  0  0  0  0  0  0  0  0  0  0
   36.1310   30.9860   34.8650 N   0  0  0  0  0  0  0  0  0  0  0  0
   36.0920   31.9270   35.8160 C   0  0  0  0  0  0  0  0  0  0  0  0
   35.0040   32.1040   36.5610 N   0  0  0  0  0  0  0  0  0  0  0  0
   33.9330   31.3130   36.3430 C   0  0  0  0  0  0  0  0  0  0  0  0
   32.8350   31.5240   37.1460 C   0  0  0  0  0  0  0  0  0  0  0  0
   31.7280   30.7330   36.9710 C   0  0  0  0  0  0  0  0  0  0  0  0
   31.7490   29.7570   36.0000 C   0  0  0  0  0  0  0  0  0  0  0  0
   32.8740   29.5950   35.2290 C   0  0  0  0  0  0  0  0  0  0  0  0
   34.0290   30.3620   35.3530 C   0  0  0  0  0  0  0  0  0  0  0  0
   38.3440   26.2080   33.8020 C   0  0  0  0  0  0  0  0  0  0  0  0
   37.8540   26.0910   35.1990 C   0  0  1  0  0  0  0  0  0  0  0  0
   38.5120   23.4470   37.8240 C   0  0  0  0  0  0  0  0  0  0  0  0
   37.9540   24.5970   37.2390 C   0  0  0  0  0  0  0  0  0  0  0  0
   38.3950   24.9070   35.9100 C   0  0  0  0  0  0  0  0  0  0  0  0
   39.3180   24.0910   35.2790 N   0  0  0  0  0  0  0  0  0  0  0  0
   39.8120   23.0150   35.8830 C   0  0  0  0  0  0  0  0  0  0  0  0
   39.4040   22.6890   37.1700 N   0  0  0  0  0  0  0  0  0  0  0  0
   38.1840   27.3630   35.9660 C   0  0  0  0  0  0  0  0  0  0  0  0
   37.3174   24.1633   31.9715 H   0  0  0  0  0  0  0  0  0  0  0  0
   35.2768   24.9494   30.4807 H   0  0  0  0  0  0  0  0  0  0  0  0
   37.4526   28.4925   33.6079 H   0  0  0  0  0  0  0  0  0  0  0  0
   36.2494   30.6289   32.2373 H   0  0  0  0  0  0  0  0  0  0  0  0
   35.6041   29.6818   31.1804 H   0  0  0  0  0  0  0  0  0  0  0  0
   34.1305   28.6430   33.7018 H   0  0  0  0  0  0  0  0  0  0  0  0
   36.9730   32.5638   35.9842 H   0  0  0  0  0  0  0  0  0  0  0  0
   32.8451   32.3120   37.9135 H   0  0  0  0  0  0  0  0  0  0  0  0
   30.8356   30.8765   37.5979 H   0  0  0  0  0  0  0  0  0  0  0  0
   30.8718   29.1122   35.8430 H   0  0  0  0  0  0  0  0  0  0  0  0
   32.8615   28.8064   34.4622 H   0  0  0  0  0  0  0  0  0  0  0  0
   39.0674   25.3996   33.6196 H   0  0  0  0  0  0  0  0  0  0  0  0
   38.7942   27.2068   33.7035 H   0  0  0  0  0  0  0  0  0  0  0  0
   36.7641   25.9517   35.1479 H   0  0  0  0  0  0  0  0  0  0  0  0
   38.2097   23.1622   38.8426 H   0  0  0  0  0  0  0  0  0  0  0  0
   37.2215   25.2229   37.7698 H   0  0  0  0  0  0  0  0  0  0  0  0
   40.5454   22.3815   35.3626 H   0  0  0  0  0  0  0  0  0  0  0  0
   38.1322   27.1635   37.0465 H   0  0  0  0  0  0  0  0  0  0  0  0
   39.1985   27.6970   35.7030 H   0  0  0  0  0  0  0  0  0  0  0  0
   37.4598   28.1481   35.7030 H   0  0  0  0  0  0  0  0  0  0  0  0
  1 19  1  0
  2  1  1  0
  3  4  1  0
  3  2  2  0
  4  5  2  0
  5  1  1  0
  5  6  1  0
  6  8  1  0
  7  6  1  0
  7  8  1  0
  8  9  1  0
  9 10  2  0
  9 18  1  0
 10 11  1  0
 11 12  2  0
 13 12  1  0
 13 14  2  0
 15 14  1  0
 16 15  2  0
 17 18  2  0
 17 16  1  0
 18 13  1  0
 19 20  1  0
 20 23  1  0
 20 27  1  0
 22 21  2  0
 23 22  1  0
 24 25  1  0
 24 23  2  0
 25 26  2  0
 26 21  1  0
  2 28  1  0
  3 29  1  0
  6 30  1  1
  7 31  1  0
  7 32  1  0
  8 33  1  6
 11 34  1  0
 14 35  1  0
 15 36  1  0
 16 37  1  0
 17 38  1  0
 19 39  1  0
 19 40  1  0
 20 41  1  6
 21 42  1  0
 22 43  1  0
 25 44  1  0
 27 45  1  0
 27 46  1  0
 27 47  1  0
M  ISO  8  28  14  29  14  30  13  31  13  32  13  33  13  34  14  35  14
M  ISO  8  36  14  37  14  38  14  39   8  40   8  41   8  42  14  43  14
M  ISO  4  44  14  45   8  46   8  47   8
M  END
>  <minimizedAffinity>  (1) 
-6.41502857

>  <minimizedRMSD>  (1) 
1.62673295

$$$$
