
     RDKit          3D

 43 46  0  0  1  0  0  0  0  0999 V2000
   37.3460   25.7480   32.8630 N   0  0  0  0  0  0  0  0  0  0  0  0
   36.8350   24.6280   32.3490 C   0  0  0  0  0  0  0  0  0  0  0  0
   35.8100   24.8420   31.4420 C   0  0  0  0  0  0  0  0  0  0  0  0
   35.6930   26.1700   31.4020 N   0  0  0  0  0  0  0  0  0  0  0  0
   36.6160   26.7170   32.2550 C   0  0  0  0  0  0  0  0  0  0  0  0
   36.7180   28.2170   32.3820 C   0  0  1  0  0  0  0  0  0  0  0  0
   35.7750   29.0170   31.5710 C   0  0  0  0  0  0  0  0  0  0  0  0
   35.5370   28.8960   33.0590 C   0  0  2  0  0  0  0  0  0  0  0  0
   35.7230   30.1610   33.7610 C   0  0  0  0  0  0  0  0  0  0  0  0
   35.8700   30.1980   35.1240 C   0  0  0  0  0  0  0  0  0  0  0  0
   36.0510   31.3750   35.8580 C   0  0  0  0  0  0  0  0  0  0  0  0
   36.0740   32.5440   35.0960 C   0  0  0  0  0  0  0  0  0  0  0  0
   35.9310   32.5610   33.7230 C   0  0  0  0  0  0  0  0  0  0  0  0
   35.7550   31.3560   33.0710 C   0  0  0  0  0  0  0  0  0  0  0  0
   38.3600   26.0260   33.7960 C   0  0  0  0  0  0  0  0  0  0  0  0
   37.8890   26.0550   35.2030 C   0  0  1  0  0  0  0  0  0  0  0  0
   38.4710   23.5660   37.9930 C   0  0  0  0  0  0  0  0  0  0  0  0
   37.8830   24.6290   37.2970 C   0  0  0  0  0  0  0  0  0  0  0  0
   38.4380   24.9650   36.0320 C   0  0  0  0  0  0  0  0  0  0  0  0
   39.5150   24.2260   35.5730 N   0  0  0  0  0  0  0  0  0  0  0  0
   40.0490   23.2290   36.2480 C   0  0  0  0  0  0  0  0  0  0  0  0
   39.5230   22.8830   37.4840 N   0  0  0  0  0  0  0  0  0  0  0  0
   38.2010   27.4020   35.8450 C   0  0  0  0  0  0  0  0  0  0  0  0
   37.1952   23.6248   32.6209 H   0  0  0  0  0  0  0  0  0  0  0  0
   35.2287   24.0923   30.8852 H   0  0  0  0  0  0  0  0  0  0  0  0
   37.8093   28.2220   32.5201 H   0  0  0  0  0  0  0  0  0  0  0  0
   36.0989   29.9782   31.1454 H   0  0  0  0  0  0  0  0  0  0  0  0
   35.1689   28.8192   30.6746 H   0  0  0  0  0  0  0  0  0  0  0  0
   34.7632   28.5308   33.7502 H   0  0  0  0  0  0  0  0  0  0  0  0
   35.8440   29.2451   35.6729 H   0  0  0  0  0  0  0  0  0  0  0  0
   36.1664   31.3788   36.9519 H   0  0  0  0  0  0  0  0  0  0  0  0
   36.2135   33.5027   35.6170 H   0  0  0  0  0  0  0  0  0  0  0  0
   35.9565   33.5079   33.1637 H   0  0  0  0  0  0  0  0  0  0  0  0
   35.6377   31.3486   31.9773 H   0  0  0  0  0  0  0  0  0  0  0  0
   39.1357   25.2513   33.7060 H   0  0  0  0  0  0  0  0  0  0  0  0
   38.7402   27.0320   33.5651 H   0  0  0  0  0  0  0  0  0  0  0  0
   36.8005   25.9025   35.1605 H   0  0  0  0  0  0  0  0  0  0  0  0
   38.0689   23.2793   38.9759 H   0  0  0  0  0  0  0  0  0  0  0  0
   37.0270   25.1814   37.7118 H   0  0  0  0  0  0  0  0  0  0  0  0
   40.9050   22.6753   35.8350 H   0  0  0  0  0  0  0  0  0  0  0  0
   38.1775   27.3005   36.9401 H   0  0  0  0  0  0  0  0  0  0  0  0
   39.2003   27.7361   35.5291 H   0  0  0  0  0  0  0  0  0  0  0  0
   37.4503   28.1414   35.5291 H   0  0  0  0  0  0  0  0  0  0  0  0
  1 15  1  0
  2  1  1  0
  3  2  2  0
  4  3  1  0
  4  5  2  0
  5  6  1  0
  5  1  1  0
  6  8  1  0
  7  6  1  0
  7  8  1  0
  8  9  1  0
  9 10  2  0
 10 11  1  0
 12 11  2  0
 13 12  1  0
 14 13  2  0
 14  9  1  0
 15 16  1  0
 16 23  1  0
 16 19  1  0
 18 17  2  0
 19 18  1  0
 20 19  2  0
 20 21  1  0
 21 22  2  0
 22 17  1  0
  2 24  1  0
  3 25  1  0
  6 26  1  1
  7 27  1  0
  7 28  1  0
  8 29  1  6
 10 30  1  0
 11 31  1  0
 12 32  1  0
 13 33  1  0
 14 34  1  0
 15 35  1  0
 15 36  1  0
 16 37  1  6
 17 38  1  0
 18 39  1  0
 21 40  1  0
 23 41  1  0
 23 42  1  0
 23 43  1  0
M  ISO  8  24  14  25  14  26  13  27  13  28  13  29  13  30  14  31  14
M  ISO  8  32  14  33  14  34  14  35   8  36   8  37   8  38  14  39  14
M  ISO  4  40  14  41   8  42   8  43   8
M  END
>  <minimizedAffinity>  (1) 
-5.97672844

>  <minimizedRMSD>  (1) 
0.819644749

$$$$
