
     RDKit          3D

 42 44  0  0  1  0  0  0  0  0999 V2000
   41.2470   23.0820   35.8820 C   0  0  0  0  0  0  0  0  0  0  0  0
   40.1000   23.3770   36.7030 C   0  0  0  0  0  0  0  0  0  0  0  0
   39.7950   22.8120   37.9420 C   0  0  0  0  0  0  0  0  0  0  0  0
   38.6600   23.1480   38.6480 C   0  0  0  0  0  0  0  0  0  0  0  0
   37.7940   24.0650   38.1320 C   0  0  0  0  0  0  0  0  0  0  0  0
   38.0600   24.6620   36.8800 C   0  0  0  0  0  0  0  0  0  0  0  0
   39.2090   24.3040   36.1900 C   0  0  0  0  0  0  0  0  0  0  0  0
   39.1790   25.0700   34.9120 C   0  0  0  0  0  0  0  0  0  0  0  0
   39.8750   26.3840   34.9550 C   0  0  0  0  0  0  0  0  0  0  0  0
   38.8680   27.4500   35.2660 C   0  0  0  0  0  0  0  0  0  0  0  0
   37.6060   26.8980   34.7050 C   0  0  0  0  0  0  0  0  0  0  0  0
   37.7490   25.4380   34.4980 C   0  0  0  0  0  0  0  0  0  0  0  0
   42.2900   22.1940   36.3990 C   0  0  2  0  0  0  0  0  0  0  0  0
   43.6080   22.9440   36.3680 C   0  0  0  0  0  0  0  0  0  0  0  0
   43.6730   24.2840   36.7600 C   0  0  0  0  0  0  0  0  0  0  0  0
   44.9010   24.9210   36.7160 C   0  0  0  0  0  0  0  0  0  0  0  0
   45.9690   24.2040   36.2940 N   0  0  0  0  0  0  0  0  0  0  0  0
   45.8950   22.9030   35.9160 C   0  0  0  0  0  0  0  0  0  0  0  0
   44.6980   22.2800   35.9580 N   0  0  0  0  0  0  0  0  0  0  0  0
   42.5460   20.9360   35.6090 C   0  0  0  0  0  0  0  0  0  0  0  0
   41.7300   24.0424   35.6488 H   0  0  0  0  0  0  0  0  0  0  0  0
   40.8237   22.5210   35.0358 H   0  0  0  0  0  0  0  0  0  0  0  0
   40.4858   22.0712   38.3710 H   0  0  0  0  0  0  0  0  0  0  0  0
   38.4545   22.6791   39.6216 H   0  0  0  0  0  0  0  0  0  0  0  0
   36.8874   24.3403   38.6909 H   0  0  0  0  0  0  0  0  0  0  0  0
   37.3645   25.4019   36.4571 H   0  0  0  0  0  0  0  0  0  0  0  0
   39.6809   24.3820   34.2158 H   0  0  0  0  0  0  0  0  0  0  0  0
   40.6498   26.3673   35.7357 H   0  0  0  0  0  0  0  0  0  0  0  0
   40.3506   26.5887   33.9845 H   0  0  0  0  0  0  0  0  0  0  0  0
   38.7819   27.6070   36.3513 H   0  0  0  0  0  0  0  0  0  0  0  0
   39.1343   28.4312   34.8462 H   0  0  0  0  0  0  0  0  0  0  0  0
   36.7799   27.0889   35.4058 H   0  0  0  0  0  0  0  0  0  0  0  0
   37.3922   27.3836   33.7414 H   0  0  0  0  0  0  0  0  0  0  0  0
   37.0228   24.8944   35.1202 H   0  0  0  0  0  0  0  0  0  0  0  0
   37.5599   25.1676   33.4487 H   0  0  0  0  0  0  0  0  0  0  0  0
   41.9279   21.8985   37.3948 H   0  0  0  0  0  0  0  0  0  0  0  0
   42.7717   24.8184   37.0948 H   0  0  0  0  0  0  0  0  0  0  0  0
   45.0057   25.9747   37.0140 H   0  0  0  0  0  0  0  0  0  0  0  0
   46.7944   22.3654   35.5812 H   0  0  0  0  0  0  0  0  0  0  0  0
   42.7167   20.0974   36.3001 H   0  0  0  0  0  0  0  0  0  0  0  0
   41.6740   20.7172   34.9752 H   0  0  0  0  0  0  0  0  0  0  0  0
   43.4342   21.0754   34.9752 H   0  0  0  0  0  0  0  0  0  0  0  0
  1 13  1  0
  1  2  1  0
  2  3  2  0
  3  4  1  0
  5  4  2  0
  6  5  1  0
  7  2  1  0
  7  6  2  0
  8  9  1  0
  8  7  1  0
  9 10  1  0
 11 10  1  0
 12 11  1  0
 12  8  1  0
 14 13  1  0
 14 15  2  0
 16 15  1  0
 17 16  2  0
 18 19  2  0
 18 17  1  0
 19 14  1  0
 20 13  1  0
  1 21  1  0
  1 22  1  0
  3 23  1  0
  4 24  1  0
  5 25  1  0
  6 26  1  0
  8 27  1  0
  9 28  1  0
  9 29  1  0
 10 30  1  0
 10 31  1  0
 11 32  1  0
 11 33  1  0
 12 34  1  0
 12 35  1  0
 13 36  1  1
 15 37  1  0
 16 38  1  0
 18 39  1  0
 20 40  1  0
 20 41  1  0
 20 42  1  0
M  ISO  8  21   8  22   8  23  14  24  14  25  14  26  14  27  13  28  13
M  ISO  8  29  13  30  13  31  13  32  13  33  13  34  13  35  13  36   8
M  ISO  6  37  14  38  14  39  14  40   8  41   8  42   8
M  END
>  <minimizedAffinity>  (1) 
-5.14218569

>  <minimizedRMSD>  (1) 
3.78291535

$$$$
