
     RDKit          3D

 41 44  0  0  1  0  0  0  0  0999 V2000
   37.3710   25.6920   32.8850 N   0  0  0  0  0  0  0  0  0  0  0  0
   36.8650   24.5810   32.3470 C   0  0  0  0  0  0  0  0  0  0  0  0
   35.8450   24.8040   31.4520 C   0  0  0  0  0  0  0  0  0  0  0  0
   35.7090   26.1260   31.4340 N   0  0  0  0  0  0  0  0  0  0  0  0
   36.6270   26.6660   32.2950 C   0  0  0  0  0  0  0  0  0  0  0  0
   36.7140   28.1730   32.4490 C   0  0  1  0  0  0  0  0  0  0  0  0
   35.7480   28.9660   31.6570 C   0  0  0  0  0  0  0  0  0  0  0  0
   35.5280   28.8210   33.1450 C   0  0  2  0  0  0  0  0  0  0  0  0
   35.6940   30.0890   33.8560 C   0  0  0  0  0  0  0  0  0  0  0  0
   35.6350   31.3220   33.2350 C   0  0  0  0  0  0  0  0  0  0  0  0
   35.7840   32.5480   33.8600 C   0  0  0  0  0  0  0  0  0  0  0  0
   36.0080   32.5420   35.2050 N   0  0  0  0  0  0  0  0  0  0  0  0
   36.0670   31.3360   35.8270 C   0  0  0  0  0  0  0  0  0  0  0  0
   35.9150   30.1710   35.1710 N   0  0  0  0  0  0  0  0  0  0  0  0
   38.3860   25.9750   33.8250 C   0  0  0  0  0  0  0  0  0  0  0  0
   37.9070   25.9970   35.2280 C   0  0  1  0  0  0  0  0  0  0  0  0
   38.5100   23.5320   38.0340 C   0  0  0  0  0  0  0  0  0  0  0  0
   37.9050   24.5890   37.3330 C   0  0  0  0  0  0  0  0  0  0  0  0
   38.4730   24.9160   36.0650 C   0  0  0  0  0  0  0  0  0  0  0  0
   39.5610   24.1950   35.6020 N   0  0  0  0  0  0  0  0  0  0  0  0
   40.0980   23.2030   36.3000 C   0  0  0  0  0  0  0  0  0  0  0  0
   39.5630   22.8660   37.5350 N   0  0  0  0  0  0  0  0  0  0  0  0
   38.1940   27.3510   35.8630 C   0  0  0  0  0  0  0  0  0  0  0  0
   37.2316   23.5746   32.5974 H   0  0  0  0  0  0  0  0  0  0  0  0
   35.2723   24.0583   30.8812 H   0  0  0  0  0  0  0  0  0  0  0  0
   37.8059   28.1957   32.5801 H   0  0  0  0  0  0  0  0  0  0  0  0
   36.0497   29.9385   31.2409 H   0  0  0  0  0  0  0  0  0  0  0  0
   35.1367   28.7687   30.7640 H   0  0  0  0  0  0  0  0  0  0  0  0
   34.7714   28.4305   33.8415 H   0  0  0  0  0  0  0  0  0  0  0  0
   35.4539   31.3299   32.1500 H   0  0  0  0  0  0  0  0  0  0  0  0
   35.7241   33.4895   33.2943 H   0  0  0  0  0  0  0  0  0  0  0  0
   36.2465   31.3106   36.9120 H   0  0  0  0  0  0  0  0  0  0  0  0
   39.1666   25.2051   33.7362 H   0  0  0  0  0  0  0  0  0  0  0  0
   38.7641   26.9827   33.5976 H   0  0  0  0  0  0  0  0  0  0  0  0
   36.8218   25.8225   35.1838 H   0  0  0  0  0  0  0  0  0  0  0  0
   38.1102   23.2429   39.0172 H   0  0  0  0  0  0  0  0  0  0  0  0
   37.0407   25.1347   37.7394 H   0  0  0  0  0  0  0  0  0  0  0  0
   40.9622   22.6509   35.9021 H   0  0  0  0  0  0  0  0  0  0  0  0
   38.1734   27.2540   36.9585 H   0  0  0  0  0  0  0  0  0  0  0  0
   39.1866   27.7023   35.5446 H   0  0  0  0  0  0  0  0  0  0  0  0
   37.4293   28.0748   35.5446 H   0  0  0  0  0  0  0  0  0  0  0  0
  1 15  1  0
  2  1  1  0
  3  2  2  0
  4  3  1  0
  4  5  2  0
  5  6  1  0
  5  1  1  0
  6  8  1  0
  7  6  1  0
  7  8  1  0
  8  9  1  0
  9 14  1  0
 10  9  2  0
 10 11  1  0
 11 12  2  0
 12 13  1  0
 14 13  2  0
 15 16  1  0
 16 23  1  0
 16 19  1  0
 18 17  2  0
 19 18  1  0
 20 19  2  0
 20 21  1  0
 21 22  2  0
 22 17  1  0
  2 24  1  0
  3 25  1  0
  6 26  1  1
  7 27  1  0
  7 28  1  0
  8 29  1  6
 10 30  1  0
 11 31  1  0
 13 32  1  0
 15 33  1  0
 15 34  1  0
 16 35  1  6
 17 36  1  0
 18 37  1  0
 21 38  1  0
 23 39  1  0
 23 40  1  0
 23 41  1  0
M  ISO  8  24  14  25  14  26  13  27  13  28  13  29  13  30  14  31  14
M  ISO  8  32  14  33   8  34   8  35   8  36  14  37  14  38  14  39   8
M  ISO  2  40   8  41   8
M  END
>  <minimizedAffinity>  (1) 
-5.53781652

>  <minimizedRMSD>  (1) 
0.695525587

$$$$
