
     RDKit          3D

 47 50  0  0  1  0  0  0  0  0999 V2000
   37.4020   25.5120   32.9400 N   0  0  0  0  0  0  0  0  0  0  0  0
   36.8570   24.3980   32.4510 C   0  0  0  0  0  0  0  0  0  0  0  0
   35.8680   24.6140   31.5210 C   0  0  0  0  0  0  0  0  0  0  0  0
   35.8010   25.9420   31.4330 N   0  0  0  0  0  0  0  0  0  0  0  0
   36.7230   26.4850   32.2860 C   0  0  0  0  0  0  0  0  0  0  0  0
   36.8670   27.9920   32.3460 C   0  0  1  0  0  0  0  0  0  0  0  0
   35.8550   28.7470   31.5630 C   0  0  0  0  0  0  0  0  0  0  0  0
   35.7640   28.7420   33.0720 C   0  0  2  0  0  0  0  0  0  0  0  0
   35.8870   30.0300   33.5860 N   0  0  0  0  0  0  0  0  0  0  0  0
   35.5790   31.1930   32.9050 C   0  0  0  0  0  0  0  0  0  0  0  0
   35.5040   32.4110   33.8200 C   0  0  0  0  0  0  0  0  0  0  0  0
   34.5800   32.2400   34.9170 N   0  0  0  0  0  0  0  0  0  0  0  0
   34.3290   30.8350   35.1890 C   0  0  0  0  0  0  0  0  0  0  0  0
   35.6700   30.1280   34.9900 C   0  0  0  0  0  0  0  0  0  0  0  0
   38.4030   25.8050   33.8900 C   0  0  0  0  0  0  0  0  0  0  0  0
   37.8970   25.8870   35.2830 C   0  0  1  0  0  0  0  0  0  0  0  0
   38.4830   23.5860   38.2280 C   0  0  0  0  0  0  0  0  0  0  0  0
   37.8850   24.6170   37.4720 C   0  0  0  0  0  0  0  0  0  0  0  0
   38.4630   24.8380   36.1690 C   0  0  0  0  0  0  0  0  0  0  0  0
   39.5280   24.0680   35.7300 N   0  0  0  0  0  0  0  0  0  0  0  0
   40.0410   23.1100   36.4990 C   0  0  0  0  0  0  0  0  0  0  0  0
   39.5140   22.8660   37.7600 N   0  0  0  0  0  0  0  0  0  0  0  0
   38.1960   27.2660   35.8500 C   0  0  0  0  0  0  0  0  0  0  0  0
   37.1718   23.3918   32.7649 H   0  0  0  0  0  0  0  0  0  0  0  0
   35.2720   23.8663   30.9772 H   0  0  0  0  0  0  0  0  0  0  0  0
   37.9651   27.9866   32.4107 H   0  0  0  0  0  0  0  0  0  0  0  0
   36.1461   29.6671   31.0350 H   0  0  0  0  0  0  0  0  0  0  0  0
   35.1631   28.4931   30.7464 H   0  0  0  0  0  0  0  0  0  0  0  0
   35.1122   28.4182   33.8968 H   0  0  0  0  0  0  0  0  0  0  0  0
   36.3542   31.3713   32.1452 H   0  0  0  0  0  0  0  0  0  0  0  0
   34.5862   31.0581   32.4509 H   0  0  0  0  0  0  0  0  0  0  0  0
   36.5058   32.6010   34.2326 H   0  0  0  0  0  0  0  0  0  0  0  0
   35.1411   33.2543   33.2141 H   0  0  0  0  0  0  0  0  0  0  0  0
   34.9771   32.6782   35.7603 H   0  0  0  0  0  0  0  0  0  0  0  0
   33.9750   30.7018   36.2219 H   0  0  0  0  0  0  0  0  0  0  0  0
   33.5525   30.4259   34.5259 H   0  0  0  0  0  0  0  0  0  0  0  0
   35.6373   29.1238   35.4378 H   0  0  0  0  0  0  0  0  0  0  0  0
   36.4837   30.6881   35.4739 H   0  0  0  0  0  0  0  0  0  0  0  0
   39.1674   25.0154   33.8440 H   0  0  0  0  0  0  0  0  0  0  0  0
   38.8077   26.7958   33.6358 H   0  0  0  0  0  0  0  0  0  0  0  0
   36.8111   25.7153   35.2464 H   0  0  0  0  0  0  0  0  0  0  0  0
   38.0916   23.3659   39.2322 H   0  0  0  0  0  0  0  0  0  0  0  0
   37.0387   25.2096   37.8495 H   0  0  0  0  0  0  0  0  0  0  0  0
   40.8866   22.5088   36.1335 H   0  0  0  0  0  0  0  0  0  0  0  0
   38.1862   27.2206   36.9490 H   0  0  0  0  0  0  0  0  0  0  0  0
   39.1868   27.5971   35.5056 H   0  0  0  0  0  0  0  0  0  0  0  0
   37.4313   27.9778   35.5056 H   0  0  0  0  0  0  0  0  0  0  0  0
  1 15  1  0
  2  1  1  0
  3  2  2  0
  4  3  1  0
  4  5  2  0
  5  6  1  0
  5  1  1  0
  6  8  1  0
  7  6  1  0
  7  8  1  0
  8  9  1  0
  9 14  1  0
 10  9  1  0
 10 11  1  0
 11 12  1  0
 12 13  1  0
 14 13  1  0
 15 16  1  0
 16 23  1  0
 16 19  1  0
 18 17  2  0
 19 18  1  0
 20 19  2  0
 20 21  1  0
 21 22  2  0
 22 17  1  0
  2 24  1  0
  3 25  1  0
  6 26  1  1
  7 27  1  0
  7 28  1  0
  8 29  1  6
 10 30  1  0
 10 31  1  0
 11 32  1  0
 11 33  1  0
 12 34  1  0
 13 35  1  0
 13 36  1  0
 14 37  1  0
 14 38  1  0
 15 39  1  0
 15 40  1  0
 16 41  1  6
 17 42  1  0
 18 43  1  0
 21 44  1  0
 23 45  1  0
 23 46  1  0
 23 47  1  0
M  ISO  8  24  14  25  14  26  13  27  13  28  13  29  13  30  13  31  13
M  ISO  8  32  13  33  13  34   5  35  13  36  13  37  13  38  13  39   8
M  ISO  8  40   8  41   8  42  14  43  14  44  14  45   8  46   8  47   8
M  END
>  <minimizedAffinity>  (1) 
-5.13718414

>  <minimizedRMSD>  (1) 
1.20257461

$$$$
