
     RDKit          3D

 40 42  0  0  1  0  0  0  0  0999 V2000
   39.8470   22.8730   36.4580 C   0  0  0  0  0  0  0  0  0  0  0  0
   39.7600   22.7220   37.8370 C   0  0  0  0  0  0  0  0  0  0  0  0
   38.8480   23.4570   38.5850 C   0  0  0  0  0  0  0  0  0  0  0  0
   38.0030   24.3640   37.9690 C   0  0  0  0  0  0  0  0  0  0  0  0
   38.0790   24.5320   36.5670 C   0  0  0  0  0  0  0  0  0  0  0  0
   38.9980   23.7790   35.8610 C   0  0  0  0  0  0  0  0  0  0  0  0
   38.8130   24.1260   34.4950 N   0  0  0  0  0  0  0  0  0  0  0  0
   37.8670   23.5180   33.7090 C   0  0  0  0  0  0  0  0  0  0  0  0
   37.6080   23.8070   32.4060 C   0  0  0  0  0  0  0  0  0  0  0  0
   38.3530   24.7980   31.8030 C   0  0  0  0  0  0  0  0  0  0  0  0
   38.1170   25.1300   30.4490 N   0  0  0  0  0  0  0  0  0  0  0  0
   39.2830   25.4030   32.5580 N   0  0  0  0  0  0  0  0  0  0  0  0
   39.5250   25.1040   33.8470 C   0  0  0  0  0  0  0  0  0  0  0  0
   40.4080   25.7030   34.5080 O   0  0  0  0  0  0  0  0  0  0  0  0
   40.7710   22.1080   35.6400 C   0  0  0  0  0  0  0  0  0  0  0  0
   42.1650   22.5920   35.5530 C   0  0  2  0  0  0  0  0  0  0  0  0
   43.0950   21.4780   35.9490 C   0  0  0  0  0  0  0  0  0  0  0  0
   42.6210   20.4130   36.7210 C   0  0  0  0  0  0  0  0  0  0  0  0
   43.4960   19.4040   37.0800 C   0  0  0  0  0  0  0  0  0  0  0  0
   44.7940   19.5170   36.6470 N   0  0  0  0  0  0  0  0  0  0  0  0
   45.2340   20.5450   35.9070 C   0  0  0  0  0  0  0  0  0  0  0  0
   44.3660   21.5150   35.5690 N   0  0  0  0  0  0  0  0  0  0  0  0
   42.4690   23.7010   36.5630 C   0  0  0  0  0  0  0  0  0  0  0  0
   40.4248   22.0081   38.3453 H   0  0  0  0  0  0  0  0  0  0  0  0
   38.7973   23.3169   39.6749 H   0  0  0  0  0  0  0  0  0  0  0  0
   37.2822   24.9461   38.5620 H   0  0  0  0  0  0  0  0  0  0  0  0
   37.4213   25.2461   36.0498 H   0  0  0  0  0  0  0  0  0  0  0  0
   37.2636   22.7251   34.1751 H   0  0  0  0  0  0  0  0  0  0  0  0
   36.8278   23.2666   31.8498 H   0  0  0  0  0  0  0  0  0  0  0  0
   38.6720   25.8699   29.9959 H   0  0  0  0  0  0  0  0  0  0  0  0
   37.3900   24.6319   29.9158 H   0  0  0  0  0  0  0  0  0  0  0  0
   40.8015   21.0858   36.0451 H   0  0  0  0  0  0  0  0  0  0  0  0
   40.3787   22.1960   34.6161 H   0  0  0  0  0  0  0  0  0  0  0  0
   42.2974   22.9525   34.5222 H   0  0  0  0  0  0  0  0  0  0  0  0
   41.5682   20.3782   37.0380 H   0  0  0  0  0  0  0  0  0  0  0  0
   43.1662   18.5476   37.6865 H   0  0  0  0  0  0  0  0  0  0  0  0
   46.2840   20.5939   35.5829 H   0  0  0  0  0  0  0  0  0  0  0  0
   42.3609   23.3066   37.5842 H   0  0  0  0  0  0  0  0  0  0  0  0
   43.4985   24.0593   36.4154 H   0  0  0  0  0  0  0  0  0  0  0  0
   41.7661   24.5342   36.4154 H   0  0  0  0  0  0  0  0  0  0  0  0
  1  2  2  0
  2  3  1  0
  4  3  2  0
  5  4  1  0
  6  1  1  0
  6  5  2  0
  7  6  1  0
  8  7  1  0
  9  8  2  0
 10  9  1  0
 10 12  2  0
 11 10  1  0
 12 13  1  0
 13  7  1  0
 13 14  2  0
 15  1  1  0
 16 15  1  0
 16 17  1  0
 16 23  1  0
 17 18  2  0
 18 19  1  0
 20 19  2  0
 21 20  1  0
 22 21  2  0
 22 17  1  0
  2 24  1  0
  3 25  1  0
  4 26  1  0
  5 27  1  0
  8 28  1  0
  9 29  1  0
 11 30  1  0
 11 31  1  0
 15 32  1  0
 15 33  1  0
 16 34  1  6
 18 35  1  0
 19 36  1  0
 21 37  1  0
 23 38  1  0
 23 39  1  0
 23 40  1  0
M  ISO  8  24  14  25  14  26  14  27  14  28  14  29  14  32   8  33   8
M  ISO  7  34   8  35  14  36  14  37  14  38   8  39   8  40   8
M  END
>  <minimizedAffinity>  (1) 
-4.81307125

>  <minimizedRMSD>  (1) 
2.32035875

$$$$
