
     RDKit          3D

 36 38  0  0  1  0  0  0  0  0999 V2000
   38.5710   25.7990   33.8300 C   0  0  0  0  0  0  0  0  0  0  0  0
   37.5950   25.4470   32.8780 N   0  0  0  0  0  0  0  0  0  0  0  0
   36.9120   24.3360   32.5900 C   0  0  0  0  0  0  0  0  0  0  0  0
   36.0260   24.4770   31.5480 C   0  0  0  0  0  0  0  0  0  0  0  0
   36.1680   25.7510   31.1680 N   0  0  0  0  0  0  0  0  0  0  0  0
   37.1070   26.3340   31.9620 C   0  0  0  0  0  0  0  0  0  0  0  0
   37.4870   27.7700   31.7250 C   0  0  1  0  0  0  0  0  0  0  0  0
   36.4940   28.6530   31.0870 C   0  0  0  0  0  0  0  0  0  0  0  0
   36.7760   28.8050   32.5620 C   0  0  1  0  0  0  0  0  0  0  0  0
   35.6420   28.4790   33.4590 C   0  0  0  0  0  0  0  0  0  0  0  0
   38.0400   25.9210   35.2110 C   0  0  1  0  0  0  0  0  0  0  0  0
   38.4390   23.6360   38.2050 C   0  0  0  0  0  0  0  0  0  0  0  0
   37.9130   24.6710   37.4190 C   0  0  0  0  0  0  0  0  0  0  0  0
   38.5270   24.8660   36.1350 C   0  0  0  0  0  0  0  0  0  0  0  0
   39.5760   24.0560   35.7350 N   0  0  0  0  0  0  0  0  0  0  0  0
   40.0310   23.0860   36.5310 C   0  0  0  0  0  0  0  0  0  0  0  0
   39.4570   22.8750   37.7770 N   0  0  0  0  0  0  0  0  0  0  0  0
   38.3450   27.3010   35.7830 C   0  0  0  0  0  0  0  0  0  0  0  0
   39.0074   26.7659   33.5389 H   0  0  0  0  0  0  0  0  0  0  0  0
   39.3156   24.9894   33.8419 H   0  0  0  0  0  0  0  0  0  0  0  0
   37.0464   23.3917   33.1379 H   0  0  0  0  0  0  0  0  0  0  0  0
   35.3543   23.7160   31.1241 H   0  0  0  0  0  0  0  0  0  0  0  0
   38.5378   27.5217   31.5149 H   0  0  0  0  0  0  0  0  0  0  0  0
   36.8247   29.4308   30.3830 H   0  0  0  0  0  0  0  0  0  0  0  0
   35.5874   28.4900   30.4858 H   0  0  0  0  0  0  0  0  0  0  0  0
   37.1407   29.5685   33.2649 H   0  0  0  0  0  0  0  0  0  0  0  0
   35.9647   28.5718   34.5065 H   0  0  0  0  0  0  0  0  0  0  0  0
   34.8117   29.1748   33.2681 H   0  0  0  0  0  0  0  0  0  0  0  0
   35.3080   27.4485   33.2681 H   0  0  0  0  0  0  0  0  0  0  0  0
   36.9518   25.7830   35.1283 H   0  0  0  0  0  0  0  0  0  0  0  0
   38.0059   23.4433   39.1976 H   0  0  0  0  0  0  0  0  0  0  0  0
   37.0781   25.2977   37.7656 H   0  0  0  0  0  0  0  0  0  0  0  0
   40.8649   22.4507   36.1979 H   0  0  0  0  0  0  0  0  0  0  0  0
   38.3344   27.2530   36.8819 H   0  0  0  0  0  0  0  0  0  0  0  0
   39.3373   27.6290   35.4399 H   0  0  0  0  0  0  0  0  0  0  0  0
   37.5834   28.0167   35.4399 H   0  0  0  0  0  0  0  0  0  0  0  0
  1 11  1  0
  2  1  1  0
  3  2  1  0
  4  3  2  0
  5  4  1  0
  5  6  2  0
  6  2  1  0
  7  6  1  0
  7  9  1  0
  8  7  1  0
  8  9  1  0
  9 10  1  0
 11 18  1  0
 11 14  1  0
 13 12  2  0
 14 13  1  0
 15 14  2  0
 15 16  1  0
 16 17  2  0
 17 12  1  0
  1 19  1  0
  1 20  1  0
  3 21  1  0
  4 22  1  0
  7 23  1  6
  8 24  1  0
  8 25  1  0
  9 26  1  6
 10 27  1  0
 10 28  1  0
 10 29  1  0
 11 30  1  6
 12 31  1  0
 13 32  1  0
 16 33  1  0
 18 34  1  0
 18 35  1  0
 18 36  1  0
M  ISO  8  19   8  20   8  21  14  22  14  23  13  24  13  25  13  26  13
M  ISO  8  27   8  28   8  29   8  30   8  31  14  32  14  33  14  34   8
M  ISO  2  35   8  36   8
M  END
>  <minimizedAffinity>  (1) 
-4.45769262

>  <minimizedRMSD>  (1) 
0.613403618

$$$$
