
     RDKit          3D

 19 19  0  0  0  0  0  0  0  0999 V2000
   38.0080   25.1300   34.1210 C   0  0  0  0  0  0  0  0  0  0  0  0
   37.5390   26.4910   34.1540 C   0  0  0  0  0  0  0  0  0  0  0  0
   36.7460   27.0020   33.1650 C   0  0  0  0  0  0  0  0  0  0  0  0
   36.4320   26.1440   32.1600 N   0  0  0  0  0  0  0  0  0  0  0  0
   36.8630   24.8780   32.1240 C   0  0  0  0  0  0  0  0  0  0  0  0
   37.6350   24.3480   33.0620 N   0  0  0  0  0  0  0  0  0  0  0  0
   36.4000   28.4080   33.4280 C   0  0  0  0  0  0  0  0  0  0  0  0
   36.3090   29.1360   32.0860 C   0  0  0  0  0  0  0  0  0  0  0  0
   38.0730   26.9560   35.4130 C   0  0  0  0  0  0  0  0  0  0  0  0
   38.2750   26.4850   36.5570 O   0  0  0  0  0  0  0  0  0  0  0  0
   38.6180   27.8790   36.2420 O   0  0  0  0  0  0  0  0  0  0  0  0
   38.6467   24.7311   34.9228 H   0  0  0  0  0  0  0  0  0  0  0  0
   36.5622   24.2465   31.2750 H   0  0  0  0  0  0  0  0  0  0  0  0
   35.4321   28.4625   33.9477 H   0  0  0  0  0  0  0  0  0  0  0  0
   37.1665   28.8759   34.0632 H   0  0  0  0  0  0  0  0  0  0  0  0
   36.1743   30.2135   32.2618 H   0  0  0  0  0  0  0  0  0  0  0  0
   37.2348   28.9705   31.5155 H   0  0  0  0  0  0  0  0  0  0  0  0
   35.4524   28.7477   31.5155 H   0  0  0  0  0  0  0  0  0  0  0  0
   38.8314   27.6387   37.1784 H   0  0  0  0  0  0  0  0  0  0  0  0
  1  2  2  0
  2  9  1  0
  3  7  1  0
  3  2  1  0
  4  3  2  0
  5  4  1  0
  5  6  2  0
  6  1  1  0
  8  7  1  0
  9 11  1  0
  9 10  2  0
  1 12  1  0
  5 13  1  0
  7 14  1  0
  7 15  1  0
  8 16  1  0
  8 17  1  0
  8 18  1  0
 11 19  1  0
M  ISO  8  12  14  13  14  14   8  15   8  16   8  17   8  18   8  19   3
M  END
>  <minimizedAffinity>  (1) 
-3.32102871

>  <minimizedRMSD>  (1) 
6.00491858

$$$$
