
     RDKit          3D

 23 24  0  0  0  0  0  0  0  0999 V2000
   38.6320   26.7690   33.4170 C   0  0  0  0  0  0  0  0  0  0  0  0
   37.5870   26.6080   32.4380 C   0  0  0  0  0  0  0  0  0  0  0  0
   37.1530   25.3320   32.4520 C   0  0  0  0  0  0  0  0  0  0  0  0
   37.6550   24.3420   33.2980 N   0  0  0  0  0  0  0  0  0  0  0  0
   38.6220   24.5870   34.1750 C   0  0  0  0  0  0  0  0  0  0  0  0
   39.1250   25.8070   34.2460 N   0  0  0  0  0  0  0  0  0  0  0  0
   37.3550   27.8450   31.8140 C   0  0  0  0  0  0  0  0  0  0  0  0
   37.8290   28.3220   30.6040 C   0  0  0  0  0  0  0  0  0  0  0  0
   37.3110   29.5560   30.2820 C   0  0  0  0  0  0  0  0  0  0  0  0
   36.5050   29.8280   31.3220 N   0  0  0  0  0  0  0  0  0  0  0  0
   36.5390   28.8510   32.1810 N   0  0  0  0  0  0  0  0  0  0  0  0
   36.1100   25.1560   31.4440 C   0  0  0  0  0  0  0  0  0  0  0  0
   35.7000   23.7200   31.3030 C   0  0  0  0  0  0  0  0  0  0  0  0
   39.0771   27.7712   33.5038 H   0  0  0  0  0  0  0  0  0  0  0  0
   38.9978   23.7880   34.8310 H   0  0  0  0  0  0  0  0  0  0  0  0
   38.5416   27.7748   29.9693 H   0  0  0  0  0  0  0  0  0  0  0  0
   37.5087   30.1697   29.3907 H   0  0  0  0  0  0  0  0  0  0  0  0
   35.9424   30.6847   31.4244 H   0  0  0  0  0  0  0  0  0  0  0  0
   35.2308   25.7492   31.7357 H   0  0  0  0  0  0  0  0  0  0  0  0
   36.5131   25.4904   30.4767 H   0  0  0  0  0  0  0  0  0  0  0  0
   35.5730   23.2752   32.3010 H   0  0  0  0  0  0  0  0  0  0  0  0
   34.7495   23.6624   30.7523 H   0  0  0  0  0  0  0  0  0  0  0  0
   36.4768   23.1693   30.7523 H   0  0  0  0  0  0  0  0  0  0  0  0
  1  6  2  0
  2  3  2  0
  2  1  1  0
  3  4  1  0
  4  5  2  0
  5  6  1  0
  7 11  2  0
  7  2  1  0
  8  7  1  0
  9  8  2  0
  9 10  1  0
 10 11  1  0
 12  3  1  0
 13 12  1  0
  1 14  1  0
  5 15  1  0
  8 16  1  0
  9 17  1  0
 10 18  1  0
 12 19  1  0
 12 20  1  0
 13 21  1  0
 13 22  1  0
 13 23  1  0
M  ISO  8  14  14  15  14  16  14  17  14  18   9  19   8  20   8  21   8
M  ISO  2  22   8  23   8
M  END
>  <minimizedAffinity>  (1) 
-2.9675312

>  <minimizedRMSD>  (1) 
8.48121071

$$$$
