
     RDKit          3D

 36 37  0  0  1  0  0  0  0  0999 V2000
   41.1230   22.6430   35.9940 C   0  0  0  0  0  0  0  0  0  0  0  0
   40.0160   23.2100   36.7250 C   0  0  0  0  0  0  0  0  0  0  0  0
   39.7440   22.8980   38.0580 C   0  0  0  0  0  0  0  0  0  0  0  0
   38.6920   23.4270   38.7700 C   0  0  0  0  0  0  0  0  0  0  0  0
   37.8510   24.3240   38.1350 C   0  0  0  0  0  0  0  0  0  0  0  0
   38.1070   24.6470   36.8030 C   0  0  0  0  0  0  0  0  0  0  0  0
   39.1680   24.0990   36.1050 C   0  0  0  0  0  0  0  0  0  0  0  0
   39.1670   24.4390   34.7410 N   0  0  0  0  0  0  0  0  0  0  0  0
   38.2050   24.1060   33.7480 C   0  0  0  0  0  0  0  0  0  0  0  0
   37.9060   22.8300   33.7470 N   0  0  0  0  0  0  0  0  0  0  0  0
   37.6220   25.0650   32.8340 N   0  0  0  0  0  0  0  0  0  0  0  0
   37.2060   22.5690   33.0290 H   0  0  0  0  0  0  0  0  0  0  0  0
   42.2410   22.0750   36.7430 C   0  0  2  0  0  0  0  0  0  0  0  0
   43.5030   22.7950   36.3880 C   0  0  0  0  0  0  0  0  0  0  0  0
   43.6540   24.1580   36.7310 C   0  0  0  0  0  0  0  0  0  0  0  0
   44.8270   24.7980   36.3900 C   0  0  0  0  0  0  0  0  0  0  0  0
   45.7820   24.0620   35.7350 N   0  0  0  0  0  0  0  0  0  0  0  0
   45.6240   22.7660   35.4170 C   0  0  0  0  0  0  0  0  0  0  0  0
   44.4780   22.1520   35.7530 N   0  0  0  0  0  0  0  0  0  0  0  0
   42.5440   20.6160   36.4130 C   0  0  0  0  0  0  0  0  0  0  0  0
   40.7161   21.8404   35.3614 H   0  0  0  0  0  0  0  0  0  0  0  0
   41.5635   23.5025   35.4675 H   0  0  0  0  0  0  0  0  0  0  0  0
   40.4098   22.1874   38.5695 H   0  0  0  0  0  0  0  0  0  0  0  0
   38.5235   23.1435   39.8194 H   0  0  0  0  0  0  0  0  0  0  0  0
   37.0000   24.7720   38.6689 H   0  0  0  0  0  0  0  0  0  0  0  0
   37.4442   25.3602   36.2910 H   0  0  0  0  0  0  0  0  0  0  0  0
   39.9668   25.0024   34.4190 H   0  0  0  0  0  0  0  0  0  0  0  0
   36.9290   24.7568   32.1371 H   0  0  0  0  0  0  0  0  0  0  0  0
   37.9001   26.0557   32.8805 H   0  0  0  0  0  0  0  0  0  0  0  0
   41.9391   22.1684   37.7966 H   0  0  0  0  0  0  0  0  0  0  0  0
   42.8530   24.6966   37.2586 H   0  0  0  0  0  0  0  0  0  0  0  0
   44.9908   25.8581   36.6338 H   0  0  0  0  0  0  0  0  0  0  0  0
   46.4193   22.2178   34.8908 H   0  0  0  0  0  0  0  0  0  0  0  0
   42.6624   20.0459   37.3463 H   0  0  0  0  0  0  0  0  0  0  0  0
   41.7146   20.1926   35.8274 H   0  0  0  0  0  0  0  0  0  0  0  0
   43.4734   20.5579   35.8274 H   0  0  0  0  0  0  0  0  0  0  0  0
  1  2  1  0
  1 13  1  0
  2  3  2  0
  3  4  1  0
  5  4  2  0
  6  5  1  0
  7  2  1  0
  7  6  2  0
  8  7  1  0
  9  8  1  0
 10  9  2  0
 11  9  1  0
 12 10  1  0
 14 15  2  0
 14 13  1  0
 16 15  1  0
 17 16  2  0
 18 17  1  0
 18 19  2  0
 19 14  1  0
 20 13  1  0
  1 21  1  0
  1 22  1  0
  3 23  1  0
  4 24  1  0
  5 25  1  0
  6 26  1  0
  8 27  1  0
 11 28  1  0
 11 29  1  0
 13 30  1  1
 15 31  1  0
 16 32  1  0
 18 33  1  0
 20 34  1  0
 20 35  1  0
 20 36  1  0
M  ISO  8  21   8  22   8  23  14  24  14  25  14  26  14  30   8  31  14
M  ISO  5  32  14  33  14  34   8  35   8  36   8
M  END
>  <minimizedAffinity>  (1) 
-4.55475235

>  <minimizedRMSD>  (1) 
3.00302124

$$$$
