
     RDKit          3D

 40 43  0  0  1  0  0  0  0  0999 V2000
   39.2230   22.3630   33.9960 C   0  0  2  0  0  0  0  0  0  0  0  0
   39.2670   21.1910   33.0940 C   0  0  0  0  0  0  0  0  0  0  0  0
   39.2070   22.6260   32.6010 C   0  0  1  0  0  0  0  0  0  0  0  0
   37.8620   23.0940   32.1510 N   0  0  0  0  0  0  0  0  0  0  0  0
   36.7750   22.2860   32.1160 C   0  0  0  0  0  0  0  0  0  0  0  0
   35.7410   22.9990   31.6730 N   0  0  0  0  0  0  0  0  0  0  0  0
   36.1680   24.2610   31.4260 C   0  0  0  0  0  0  0  0  0  0  0  0
   35.4670   25.3570   30.9560 C   0  0  0  0  0  0  0  0  0  0  0  0
   34.2540   25.3370   30.6730 O   0  0  0  0  0  0  0  0  0  0  0  0
   36.1900   26.4840   30.8170 N   0  0  0  0  0  0  0  0  0  0  0  0
   37.5020   26.5220   31.1180 C   0  0  0  0  0  0  0  0  0  0  0  0
   38.1720   27.7730   30.9320 N   0  0  0  0  0  0  0  0  0  0  0  0
   38.1740   25.4330   31.5790 N   0  0  0  0  0  0  0  0  0  0  0  0
   37.5240   24.2950   31.7400 C   0  0  0  0  0  0  0  0  0  0  0  0
   40.4660   22.5290   34.8900 C   0  0  0  0  0  0  0  0  0  0  0  0
   40.2580   23.6820   35.7420 C   0  0  0  0  0  0  0  0  0  0  0  0
   39.5060   26.9640   34.5260 C   0  0  0  0  0  0  0  0  0  0  0  0
   39.2970   25.7520   35.2360 C   0  0  0  0  0  0  0  0  0  0  0  0
   40.3250   24.9210   35.0600 C   0  0  0  0  0  0  0  0  0  0  0  0
   41.4300   25.2370   34.2780 N   0  0  0  0  0  0  0  0  0  0  0  0
   41.5570   26.3880   33.6420 C   0  0  0  0  0  0  0  0  0  0  0  0
   40.5810   27.2570   33.7710 N   0  0  0  0  0  0  0  0  0  0  0  0
   38.0820   25.6870   35.9680 C   0  0  0  0  0  0  0  0  0  0  0  0
   37.5010   24.3950   35.9280 F   0  0  0  0  0  0  0  0  0  0  0  0
   36.9380   26.2170   35.4950 F   0  0  0  0  0  0  0  0  0  0  0  0
   38.1460   25.6460   37.3570 F   0  0  0  0  0  0  0  0  0  0  0  0
   38.5734   22.7557   34.7921 H   0  0  0  0  0  0  0  0  0  0  0  0
   40.1894   20.6011   32.9878 H   0  0  0  0  0  0  0  0  0  0  0  0
   38.6788   20.2727   32.9499 H   0  0  0  0  0  0  0  0  0  0  0  0
   39.8102   23.2059   31.8869 H   0  0  0  0  0  0  0  0  0  0  0  0
   36.7507   21.2246   32.4037 H   0  0  0  0  0  0  0  0  0  0  0  0
   35.7285   27.3378   30.4721 H   0  0  0  0  0  0  0  0  0  0  0  0
   39.1758   27.8566   31.1472 H   0  0  0  0  0  0  0  0  0  0  0  0
   37.6504   28.5897   30.5829 H   0  0  0  0  0  0  0  0  0  0  0  0
   40.6037   21.6292   35.5076 H   0  0  0  0  0  0  0  0  0  0  0  0
   41.3641   22.6703   34.2708 H   0  0  0  0  0  0  0  0  0  0  0  0
   39.2640   23.5952   36.2050 H   0  0  0  0  0  0  0  0  0  0  0  0
   41.0714   23.6817   36.4825 H   0  0  0  0  0  0  0  0  0  0  0  0
   38.7205   27.7305   34.5995 H   0  0  0  0  0  0  0  0  0  0  0  0
   42.4437   26.6092   33.0297 H   0  0  0  0  0  0  0  0  0  0  0  0
  1 15  1  0
  2  1  1  0
  3  2  1  0
  3  1  1  0
  4  3  1  0
  5  4  1  0
  6  5  2  0
  7  6  1  0
  7 14  2  0
  8  7  1  0
  9  8  2  0
 10  8  1  0
 10 11  1  0
 11 13  2  0
 12 11  1  0
 13 14  1  0
 14  4  1  0
 15 16  1  0
 17 18  2  0
 18 23  1  0
 19 18  1  0
 19 16  1  0
 20 19  2  0
 21 22  2  0
 21 20  1  0
 22 17  1  0
 23 26  1  0
 24 23  1  0
 25 23  1  0
  1 27  1  1
  2 28  1  0
  2 29  1  0
  3 30  1  6
  5 31  1  0
 10 32  1  0
 12 33  1  0
 12 34  1  0
 15 35  1  0
 15 36  1  0
 16 37  1  0
 16 38  1  0
 17 39  1  0
 21 40  1  0
M  ISO  8  27  13  28  13  29  13  30  13  31  14  32   9  35   8  36   8
M  ISO  4  37   8  38   8  39  14  40  14
M  END
>  <minimizedAffinity>  (1) 
-5.17186356

>  <minimizedRMSD>  (1) 
5.39388227

$$$$
