
     RDKit          3D

 38 40  0  0  1  0  0  0  0  0999 V2000
   40.5310   21.7060   36.5670 C   0  0  0  0  0  0  0  0  0  0  0  0
   39.5910   22.6430   37.1420 C   0  0  0  0  0  0  0  0  0  0  0  0
   39.6480   23.0300   38.4840 C   0  0  0  0  0  0  0  0  0  0  0  0
   38.7890   23.9420   39.0520 C   0  0  0  0  0  0  0  0  0  0  0  0
   37.8230   24.5180   38.2890 C   0  0  0  0  0  0  0  0  0  0  0  0
   37.7360   24.1510   36.9340 C   0  0  0  0  0  0  0  0  0  0  0  0
   38.6130   23.2210   36.3840 C   0  0  0  0  0  0  0  0  0  0  0  0
   38.2150   22.9970   35.0100 C   0  0  0  0  0  0  0  0  0  0  0  0
   37.5470   21.8910   34.4710 C   0  0  0  0  0  0  0  0  0  0  0  0
   37.0850   21.7280   33.1980 C   0  0  0  0  0  0  0  0  0  0  0  0
   37.2800   22.7460   32.3210 C   0  0  0  0  0  0  0  0  0  0  0  0
   37.9310   23.8550   32.8030 C   0  0  0  0  0  0  0  0  0  0  0  0
   38.3490   23.9320   34.0570 N   0  0  0  0  0  0  0  0  0  0  0  0
   41.7110   22.2500   35.8740 C   0  0  2  0  0  0  0  0  0  0  0  0
   42.8860   21.3490   36.0970 C   0  0  0  0  0  0  0  0  0  0  0  0
   42.7160   20.1560   36.8120 C   0  0  0  0  0  0  0  0  0  0  0  0
   43.8090   19.3390   37.0140 C   0  0  0  0  0  0  0  0  0  0  0  0
   45.0150   19.7470   36.4930 N   0  0  0  0  0  0  0  0  0  0  0  0
   45.1520   20.8980   35.8080 C   0  0  0  0  0  0  0  0  0  0  0  0
   44.0800   21.6820   35.6220 N   0  0  0  0  0  0  0  0  0  0  0  0
   42.1650   23.5970   36.4680 C   0  0  0  0  0  0  0  0  0  0  0  0
   40.8969   21.0665   37.3838 H   0  0  0  0  0  0  0  0  0  0  0  0
   39.9609   21.1927   35.7786 H   0  0  0  0  0  0  0  0  0  0  0  0
   40.4232   22.5800   39.1216 H   0  0  0  0  0  0  0  0  0  0  0  0
   38.8833   24.2033   40.1164 H   0  0  0  0  0  0  0  0  0  0  0  0
   37.1269   25.2525   38.7202 H   0  0  0  0  0  0  0  0  0  0  0  0
   36.9621   24.6065   36.2987 H   0  0  0  0  0  0  0  0  0  0  0  0
   37.3734   21.0501   35.1586 H   0  0  0  0  0  0  0  0  0  0  0  0
   36.5723   20.8040   32.8925 H   0  0  0  0  0  0  0  0  0  0  0  0
   36.9344   22.6856   31.2784 H   0  0  0  0  0  0  0  0  0  0  0  0
   38.1105   24.7043   32.1274 H   0  0  0  0  0  0  0  0  0  0  0  0
   41.4189   22.3516   34.8184 H   0  0  0  0  0  0  0  0  0  0  0  0
   41.7278   19.8757   37.2055 H   0  0  0  0  0  0  0  0  0  0  0  0
   43.7194   18.3951   37.5717 H   0  0  0  0  0  0  0  0  0  0  0  0
   46.1325   21.1921   35.4053 H   0  0  0  0  0  0  0  0  0  0  0  0
   42.1453   23.5387   37.5663 H   0  0  0  0  0  0  0  0  0  0  0  0
   43.1880   23.8202   36.1309 H   0  0  0  0  0  0  0  0  0  0  0  0
   41.4858   24.3939   36.1309 H   0  0  0  0  0  0  0  0  0  0  0  0
  1  2  1  0
  2  3  2  0
  3  4  1  0
  5  4  2  0
  6  5  1  0
  7  6  2  0
  7  2  1  0
  8  7  1  0
  9  8  2  0
 10  9  1  0
 11 12  1  0
 11 10  2  0
 12 13  2  0
 13  8  1  0
 14 15  1  0
 14 21  1  0
 14  1  1  0
 15 16  2  0
 16 17  1  0
 18 17  2  0
 19 18  1  0
 20 19  2  0
 20 15  1  0
  1 22  1  0
  1 23  1  0
  3 24  1  0
  4 25  1  0
  5 26  1  0
  6 27  1  0
  9 28  1  0
 10 29  1  0
 11 30  1  0
 12 31  1  0
 14 32  1  6
 16 33  1  0
 17 34  1  0
 19 35  1  0
 21 36  1  0
 21 37  1  0
 21 38  1  0
M  ISO  8  22   8  23   8  24  14  25  14  26  14  27  14  28  14  29  14
M  ISO  8  30  14  31  14  32   8  33  14  34  14  35  14  36   8  37   8
M  ISO  1  38   8
M  END
>  <minimizedAffinity>  (1) 
-4.53937769

>  <minimizedRMSD>  (1) 
1.47489321

$$$$
