
     RDKit          3D

 33 34  0  0  1  0  0  0  0  0999 V2000
   37.9760   22.9370   35.0630 C   0  0  0  0  0  0  0  0  0  0  0  0
   38.5820   22.5230   36.4130 C   0  0  2  0  0  0  0  0  0  0  0  0
   38.6430   23.6100   37.4240 C   0  0  0  0  0  0  0  0  0  0  0  0
   39.8620   22.9280   36.8740 C   0  0  1  0  0  0  0  0  0  0  0  0
   40.4350   21.9060   37.8060 N   0  0  0  0  0  0  0  0  0  0  0  0
   41.6180   21.3220   37.3060 C   0  0  0  0  0  0  0  0  0  0  0  0
   42.1890   21.6570   36.1990 N   0  0  0  0  0  0  0  0  0  0  0  0
   42.1950   20.2930   38.1090 N   0  0  0  0  0  0  0  0  0  0  0  0
   43.0480   21.1970   35.8870 H   0  0  0  0  0  0  0  0  0  0  0  0
   38.9240   23.7990   34.3850 C   0  0  0  0  0  0  0  0  0  0  0  0
   38.2470   27.0390   33.0320 C   0  0  0  0  0  0  0  0  0  0  0  0
   38.9100   26.0680   33.8200 C   0  0  0  0  0  0  0  0  0  0  0  0
   38.3330   24.8700   33.6770 C   0  0  0  0  0  0  0  0  0  0  0  0
   37.2320   24.6550   32.8520 N   0  0  0  0  0  0  0  0  0  0  0  0
   36.6660   25.6120   32.1440 C   0  0  0  0  0  0  0  0  0  0  0  0
   37.1790   26.8210   32.2340 N   0  0  0  0  0  0  0  0  0  0  0  0
   40.0140   26.5500   34.5620 C   0  0  0  0  0  0  0  0  0  0  0  0
   39.6170   27.2150   35.7480 F   0  0  0  0  0  0  0  0  0  0  0  0
   40.7180   27.6290   34.1780 F   0  0  0  0  0  0  0  0  0  0  0  0
   40.7710   25.6380   35.3040 F   0  0  0  0  0  0  0  0  0  0  0  0
   37.7828   22.0430   34.4519 H   0  0  0  0  0  0  0  0  0  0  0  0
   37.0256   23.4680   35.2205 H   0  0  0  0  0  0  0  0  0  0  0  0
   38.1524   21.5152   36.3138 H   0  0  0  0  0  0  0  0  0  0  0  0
   38.4089   24.6476   37.1437 H   0  0  0  0  0  0  0  0  0  0  0  0
   38.2157   23.7958   38.4205 H   0  0  0  0  0  0  0  0  0  0  0  0
   40.7924   23.2870   36.4098 H   0  0  0  0  0  0  0  0  0  0  0  0
   40.0125   21.6569   38.7117 H   0  0  0  0  0  0  0  0  0  0  0  0
   43.0595   19.8244   37.8025 H   0  0  0  0  0  0  0  0  0  0  0  0
   41.7470   20.0190   38.9950 H   0  0  0  0  0  0  0  0  0  0  0  0
   39.6073   24.2190   35.1378 H   0  0  0  0  0  0  0  0  0  0  0  0
   39.4399   23.1755   33.6400 H   0  0  0  0  0  0  0  0  0  0  0  0
   38.6376   28.0665   33.0732 H   0  0  0  0  0  0  0  0  0  0  0  0
   35.7968   25.4079   31.5015 H   0  0  0  0  0  0  0  0  0  0  0  0
  1  2  1  0
  2  4  1  0
  2  3  1  0
  4  3  1  0
  4  5  1  0
  6  5  1  0
  6  8  1  0
  7  6  2  0
  9  7  1  0
 10  1  1  0
 11 12  2  0
 12 17  1  0
 13 12  1  0
 13 10  1  0
 14 13  2  0
 15 16  2  0
 15 14  1  0
 16 11  1  0
 17 20  1  0
 17 18  1  0
 19 17  1  0
  1 21  1  0
  1 22  1  0
  2 23  1  1
  3 24  1  0
  3 25  1  0
  4 26  1  6
  5 27  1  0
  8 28  1  0
  8 29  1  0
 10 30  1  0
 10 31  1  0
 11 32  1  0
 15 33  1  0
M  ISO  8  21   8  22   8  23  13  24  13  25  13  26  13  30   8  31   8
M  ISO  2  32  14  33  14
M  END
>  <minimizedAffinity>  (1) 
-5.05157948

>  <minimizedRMSD>  (1) 
5.59069061

$$$$
