
     RDKit          3D

 34 36  0  0  1  0  0  0  0  0999 V2000
   40.0160   25.1510   35.3330 C   0  0  0  0  0  0  0  0  0  0  0  0
   38.6790   24.4160   35.5190 C   0  0  2  0  0  0  0  0  0  0  0  0
   38.0420   24.6370   36.8550 C   0  0  0  0  0  0  0  0  0  0  0  0
   38.4890   23.2990   36.3870 C   0  0  1  0  0  0  0  0  0  0  0  0
   37.4370   22.3360   35.8560 C   0  0  0  0  0  0  0  0  0  0  0  0
   37.4230   21.9710   34.5570 C   0  0  0  0  0  0  0  0  0  0  0  0
   36.5120   21.1000   34.0060 C   0  0  0  0  0  0  0  0  0  0  0  0
   35.5630   20.5630   34.7910 N   0  0  0  0  0  0  0  0  0  0  0  0
   35.5470   20.9050   36.0880 C   0  0  0  0  0  0  0  0  0  0  0  0
   36.4430   21.7550   36.6000 N   0  0  0  0  0  0  0  0  0  0  0  0
   40.9850   24.2040   34.8180 C   0  0  0  0  0  0  0  0  0  0  0  0
   43.9990   23.5770   36.6460 C   0  0  0  0  0  0  0  0  0  0  0  0
   42.6840   23.3420   36.1770 C   0  0  0  0  0  0  0  0  0  0  0  0
   42.2710   24.3360   35.3840 C   0  0  0  0  0  0  0  0  0  0  0  0
   43.0740   25.4360   35.0920 N   0  0  0  0  0  0  0  0  0  0  0  0
   44.2930   25.5950   35.5630 C   0  0  0  0  0  0  0  0  0  0  0  0
   44.7590   24.6540   36.3480 N   0  0  0  0  0  0  0  0  0  0  0  0
   42.0960   22.1280   36.6210 C   0  0  0  0  0  0  0  0  0  0  0  0
   41.1580   22.3280   37.6600 F   0  0  0  0  0  0  0  0  0  0  0  0
   42.7680   21.2480   37.3840 F   0  0  0  0  0  0  0  0  0  0  0  0
   41.1200   21.5300   35.8240 F   0  0  0  0  0  0  0  0  0  0  0  0
   39.8897   25.9794   34.6204 H   0  0  0  0  0  0  0  0  0  0  0  0
   40.3602   25.5629   36.2931 H   0  0  0  0  0  0  0  0  0  0  0  0
   38.4385   24.5371   34.4525 H   0  0  0  0  0  0  0  0  0  0  0  0
   38.5886   25.1597   37.6538 H   0  0  0  0  0  0  0  0  0  0  0  0
   37.1036   25.0764   37.2243 H   0  0  0  0  0  0  0  0  0  0  0  0
   39.1185   22.5294   36.8577 H   0  0  0  0  0  0  0  0  0  0  0  0
   38.1907   22.3981   33.8950 H   0  0  0  0  0  0  0  0  0  0  0  0
   36.5598   20.8465   32.9367 H   0  0  0  0  0  0  0  0  0  0  0  0
   34.7777   20.4755   36.7466 H   0  0  0  0  0  0  0  0  0  0  0  0
   40.6188   23.1874   35.0239 H   0  0  0  0  0  0  0  0  0  0  0  0
   41.0879   24.4063   33.7417 H   0  0  0  0  0  0  0  0  0  0  0  0
   44.4396   22.8183   37.3095 H   0  0  0  0  0  0  0  0  0  0  0  0
   44.8950   26.4798   35.3087 H   0  0  0  0  0  0  0  0  0  0  0  0
  1  2  1  0
  2  4  1  0
  2  3  1  0
  4  3  1  0
  5  4  1  0
  5 10  1  0
  6  5  2  0
  7  6  1  0
  7  8  2  0
  8  9  1  0
  9 10  2  0
 11  1  1  0
 11 14  1  0
 13 18  1  0
 13 12  2  0
 14 13  1  0
 15 14  2  0
 15 16  1  0
 16 17  2  0
 17 12  1  0
 18 20  1  0
 18 19  1  0
 21 18  1  0
  1 22  1  0
  1 23  1  0
  2 24  1  6
  3 25  1  0
  3 26  1  0
  4 27  1  1
  6 28  1  0
  7 29  1  0
  9 30  1  0
 11 31  1  0
 11 32  1  0
 12 33  1  0
 16 34  1  0
M  ISO  8  22   8  23   8  24  13  25  13  26  13  27  13  28  14  29  14
M  ISO  5  30  14  31   8  32   8  33  14  34  14
M  END
>  <minimizedAffinity>  (1) 
-4.48029089

>  <minimizedRMSD>  (1) 
1.82887995

$$$$
