
     RDKit          3D

 39 41  0  0  1  0  0  0  0  0999 V2000
   40.4000   25.8290   34.9980 C   0  0  0  0  0  0  0  0  0  0  0  0
   39.6180   24.6200   35.5210 C   0  0  2  0  0  0  0  0  0  0  0  0
   40.4820   23.4650   35.9530 C   0  0  0  0  0  0  0  0  0  0  0  0
   39.5120   23.3710   34.8470 C   0  0  1  0  0  0  0  0  0  0  0  0
   38.2740   22.6610   35.3170 N   0  0  0  0  0  0  0  0  0  0  0  0
   37.5940   21.9570   34.4290 C   0  0  0  0  0  0  0  0  0  0  0  0
   36.4530   21.3110   34.8850 C   0  0  0  0  0  0  0  0  0  0  0  0
   35.6170   20.4970   33.9810 C   0  0  0  0  0  0  0  0  0  0  0  0
   36.0950   21.4360   36.2250 C   0  0  0  0  0  0  0  0  0  0  0  0
   35.0630   20.8490   36.6300 O   0  0  0  0  0  0  0  0  0  0  0  0
   36.8190   22.1660   37.0980 N   0  0  0  0  0  0  0  0  0  0  0  0
   37.9170   22.7770   36.6130 C   0  0  0  0  0  0  0  0  0  0  0  0
   38.5740   23.4500   37.4470 O   0  0  0  0  0  0  0  0  0  0  0  0
   39.8410   26.2150   33.7200 C   0  0  0  0  0  0  0  0  0  0  0  0
   41.8480   26.2480   30.7620 C   0  0  0  0  0  0  0  0  0  0  0  0
   40.8720   25.7710   31.6740 C   0  0  0  0  0  0  0  0  0  0  0  0
   40.8050   26.5610   32.7470 C   0  0  0  0  0  0  0  0  0  0  0  0
   41.6050   27.6900   32.9090 N   0  0  0  0  0  0  0  0  0  0  0  0
   42.4950   28.0750   32.0160 C   0  0  0  0  0  0  0  0  0  0  0  0
   42.6210   27.3490   30.9280 N   0  0  0  0  0  0  0  0  0  0  0  0
   40.1940   24.5990   31.2550 C   0  0  0  0  0  0  0  0  0  0  0  0
   40.6520   23.4450   31.9430 F   0  0  0  0  0  0  0  0  0  0  0  0
   40.4530   24.0050   30.0770 F   0  0  0  0  0  0  0  0  0  0  0  0
   38.9050   24.3710   31.7230 F   0  0  0  0  0  0  0  0  0  0  0  0
   40.3132   26.6638   35.7091 H   0  0  0  0  0  0  0  0  0  0  0  0
   41.4633   25.5714   34.8837 H   0  0  0  0  0  0  0  0  0  0  0  0
   38.8385   25.2804   35.9287 H   0  0  0  0  0  0  0  0  0  0  0  0
   41.5628   23.4695   35.7484 H   0  0  0  0  0  0  0  0  0  0  0  0
   40.6731   22.9226   36.8907 H   0  0  0  0  0  0  0  0  0  0  0  0
   39.5745   23.0505   33.7966 H   0  0  0  0  0  0  0  0  0  0  0  0
   37.9164   21.8864   33.3797 H   0  0  0  0  0  0  0  0  0  0  0  0
   34.9543   19.8517   34.5763 H   0  0  0  0  0  0  0  0  0  0  0  0
   35.0103   21.1598   33.3465 H   0  0  0  0  0  0  0  0  0  0  0  0
   36.2634   19.8728   33.3465 H   0  0  0  0  0  0  0  0  0  0  0  0
   36.5456   22.2520   38.0873 H   0  0  0  0  0  0  0  0  0  0  0  0
   39.2484   25.3725   33.3341 H   0  0  0  0  0  0  0  0  0  0  0  0
   39.2352   27.1156   33.8990 H   0  0  0  0  0  0  0  0  0  0  0  0
   41.9906   25.6720   29.8357 H   0  0  0  0  0  0  0  0  0  0  0  0
   43.1106   28.9725   32.1760 H   0  0  0  0  0  0  0  0  0  0  0  0
  1  2  1  0
  2  3  1  0
  4  5  1  0
  4  2  1  0
  4  3  1  0
  5 12  1  0
  6  7  2  0
  6  5  1  0
  7  9  1  0
  8  7  1  0
  9 10  2  0
  9 11  1  0
 12 11  1  0
 12 13  2  0
 14  1  1  0
 15 20  2  0
 15 16  1  0
 16 17  2  0
 17 18  1  0
 17 14  1  0
 19 18  2  0
 20 19  1  0
 21 16  1  0
 21 24  1  0
 21 22  1  0
 23 21  1  0
  1 25  1  0
  1 26  1  0
  2 27  1  1
  3 28  1  0
  3 29  1  0
  4 30  1  6
  6 31  1  0
  8 32  1  0
  8 33  1  0
  8 34  1  0
 11 35  1  0
 14 36  1  0
 14 37  1  0
 15 38  1  0
 19 39  1  0
M  ISO  8  25   8  26   8  27  13  28  13  29  13  30  13  31  14  32   8
M  ISO  7  33   8  34   8  35   9  36   8  37   8  38  14  39  14
M  END
>  <minimizedAffinity>  (1) 
-4.28362989

>  <minimizedRMSD>  (1) 
4.49741793

$$$$
