
     RDKit          3D

 33 35  0  0  1  0  0  0  0  0999 V2000
   39.8460   24.9470   35.2190 C   0  0  0  0  0  0  0  0  0  0  0  0
   38.5600   24.1700   35.4910 C   0  0  2  0  0  0  0  0  0  0  0  0
   37.8220   24.6290   36.7340 C   0  0  0  0  0  0  0  0  0  0  0  0
   38.3650   23.2660   36.5930 C   0  0  1  0  0  0  0  0  0  0  0  0
   37.2360   22.2750   36.2840 C   0  0  0  0  0  0  0  0  0  0  0  0
   36.2220   21.8250   37.1030 C   0  0  0  0  0  0  0  0  0  0  0  0
   35.4060   20.9230   36.4090 C   0  0  0  0  0  0  0  0  0  0  0  0
   36.0090   20.8980   35.1840 C   0  0  0  0  0  0  0  0  0  0  0  0
   37.0450   21.6720   35.1350 O   0  0  0  0  0  0  0  0  0  0  0  0
   40.8620   24.0190   34.7680 C   0  0  0  0  0  0  0  0  0  0  0  0
   43.8460   23.5970   36.7020 C   0  0  0  0  0  0  0  0  0  0  0  0
   42.5490   23.2880   36.2120 C   0  0  0  0  0  0  0  0  0  0  0  0
   42.1320   24.2250   35.3570 C   0  0  0  0  0  0  0  0  0  0  0  0
   42.9020   25.3350   35.0220 N   0  0  0  0  0  0  0  0  0  0  0  0
   44.1060   25.5590   35.5180 C   0  0  0  0  0  0  0  0  0  0  0  0
   44.5770   24.6790   36.3660 N   0  0  0  0  0  0  0  0  0  0  0  0
   41.9940   22.0830   36.7120 C   0  0  0  0  0  0  0  0  0  0  0  0
   41.1200   22.3110   37.8060 F   0  0  0  0  0  0  0  0  0  0  0  0
   42.7150   21.2160   37.4470 F   0  0  0  0  0  0  0  0  0  0  0  0
   40.9630   21.4760   36.0040 F   0  0  0  0  0  0  0  0  0  0  0  0
   39.6641   25.7035   34.4414 H   0  0  0  0  0  0  0  0  0  0  0  0
   40.1804   25.4520   36.1373 H   0  0  0  0  0  0  0  0  0  0  0  0
   38.3914   24.0298   34.4131 H   0  0  0  0  0  0  0  0  0  0  0  0
   38.2887   25.3455   37.4260 H   0  0  0  0  0  0  0  0  0  0  0  0
   36.8392   25.0715   36.9538 H   0  0  0  0  0  0  0  0  0  0  0  0
   39.0362   22.6377   37.1969 H   0  0  0  0  0  0  0  0  0  0  0  0
   36.0754   22.1302   38.1496 H   0  0  0  0  0  0  0  0  0  0  0  0
   34.5158   20.3791   36.7579 H   0  0  0  0  0  0  0  0  0  0  0  0
   35.6554   20.2908   34.3377 H   0  0  0  0  0  0  0  0  0  0  0  0
   40.5301   22.9985   35.0096 H   0  0  0  0  0  0  0  0  0  0  0  0
   40.9828   24.1803   33.6866 H   0  0  0  0  0  0  0  0  0  0  0  0
   44.2931   22.8919   37.4182 H   0  0  0  0  0  0  0  0  0  0  0  0
   44.6882   26.4470   35.2308 H   0  0  0  0  0  0  0  0  0  0  0  0
  1  2  1  0
  2  4  1  0
  2  3  1  0
  4  3  1  0
  5  4  1  0
  5  6  2  0
  7  6  1  0
  8  7  2  0
  9  8  1  0
  9  5  1  0
 10  1  1  0
 10 13  1  0
 12 11  2  0
 12 17  1  0
 13 12  1  0
 14 13  2  0
 14 15  1  0
 15 16  2  0
 16 11  1  0
 17 19  1  0
 17 18  1  0
 20 17  1  0
  1 21  1  0
  1 22  1  0
  2 23  1  6
  3 24  1  0
  3 25  1  0
  4 26  1  1
  6 27  1  0
  7 28  1  0
  8 29  1  0
 10 30  1  0
 10 31  1  0
 11 32  1  0
 15 33  1  0
M  ISO  8  21   8  22   8  23  13  24  13  25  13  26  13  27  14  28  14
M  ISO  5  29  14  30   8  31   8  32  14  33  14
M  END
>  <minimizedAffinity>  (1) 
-4.17008352

>  <minimizedRMSD>  (1) 
1.55583322

$$$$
