
     RDKit          3D

 43 45  0  0  1  0  0  0  0  0999 V2000
   40.9540   21.6460   36.7450 C   0  0  0  0  0  0  0  0  0  0  0  0
   39.8880   22.5810   37.0480 C   0  0  0  0  0  0  0  0  0  0  0  0
   39.5670   22.9830   38.3310 C   0  0  0  0  0  0  0  0  0  0  0  0
   38.5120   23.8540   38.5730 C   0  0  0  0  0  0  0  0  0  0  0  0
   37.7480   24.3450   37.5290 C   0  0  0  0  0  0  0  0  0  0  0  0
   38.0600   23.9460   36.2080 C   0  0  0  0  0  0  0  0  0  0  0  0
   39.1210   23.0780   36.0200 C   0  0  0  0  0  0  0  0  0  0  0  0
   39.1790   22.8600   34.6190 N   0  0  0  0  0  0  0  0  0  0  0  0
   39.8410   23.8380   33.7550 C   0  0  0  0  0  0  0  0  0  0  0  0
   38.8840   24.3620   32.7070 C   0  0  0  0  0  0  0  0  0  0  0  0
   38.2860   23.2830   31.9420 N   0  0  0  0  0  0  0  0  0  0  0  0
   37.6140   22.3940   32.8380 C   0  0  0  0  0  0  0  0  0  0  0  0
   38.6560   21.7800   33.7610 C   0  0  0  0  0  0  0  0  0  0  0  0
   42.1540   22.1680   36.0640 C   0  0  2  0  0  0  0  0  0  0  0  0
   43.2850   21.1960   36.2530 C   0  0  0  0  0  0  0  0  0  0  0  0
   43.0590   19.9780   36.9020 C   0  0  0  0  0  0  0  0  0  0  0  0
   44.1150   19.1030   37.0620 C   0  0  0  0  0  0  0  0  0  0  0  0
   45.3330   19.4850   36.5680 N   0  0  0  0  0  0  0  0  0  0  0  0
   45.5360   20.6580   35.9470 C   0  0  0  0  0  0  0  0  0  0  0  0
   44.4960   21.4960   35.8020 N   0  0  0  0  0  0  0  0  0  0  0  0
   42.6780   23.4670   36.6670 C   0  0  0  0  0  0  0  0  0  0  0  0
   41.2832   21.2041   37.6970 H   0  0  0  0  0  0  0  0  0  0  0  0
   40.5099   20.9438   36.0241 H   0  0  0  0  0  0  0  0  0  0  0  0
   40.1590   22.6055   39.1778 H   0  0  0  0  0  0  0  0  0  0  0  0
   38.2817   24.1564   39.6052 H   0  0  0  0  0  0  0  0  0  0  0  0
   36.9125   25.0337   37.7228 H   0  0  0  0  0  0  0  0  0  0  0  0
   37.4747   24.3159   35.3532 H   0  0  0  0  0  0  0  0  0  0  0  0
   40.1991   24.6777   34.3687 H   0  0  0  0  0  0  0  0  0  0  0  0
   40.6852   23.3474   33.2485 H   0  0  0  0  0  0  0  0  0  0  0  0
   38.0856   24.9313   33.2055 H   0  0  0  0  0  0  0  0  0  0  0  0
   39.4496   25.0025   32.0142 H   0  0  0  0  0  0  0  0  0  0  0  0
   37.6100   23.6706   31.2684 H   0  0  0  0  0  0  0  0  0  0  0  0
   36.8727   22.9507   33.4300 H   0  0  0  0  0  0  0  0  0  0  0  0
   37.0914   21.6069   32.2747 H   0  0  0  0  0  0  0  0  0  0  0  0
   38.1941   20.9978   34.3813 H   0  0  0  0  0  0  0  0  0  0  0  0
   39.4678   21.3206   33.1779 H   0  0  0  0  0  0  0  0  0  0  0  0
   41.8532   22.3262   35.0178 H   0  0  0  0  0  0  0  0  0  0  0  0
   42.0577   19.7216   37.2783 H   0  0  0  0  0  0  0  0  0  0  0  0
   43.9824   18.1351   37.5676 H   0  0  0  0  0  0  0  0  0  0  0  0
   46.5320   20.9269   35.5653 H   0  0  0  0  0  0  0  0  0  0  0  0
   42.6506   23.3990   37.7646 H   0  0  0  0  0  0  0  0  0  0  0  0
   43.7136   23.6335   36.3357 H   0  0  0  0  0  0  0  0  0  0  0  0
   42.0478   24.3055   36.3357 H   0  0  0  0  0  0  0  0  0  0  0  0
  1  2  1  0
  2  3  2  0
  3  4  1  0
  5  4  2  0
  6  5  1  0
  7  6  2  0
  7  2  1  0
  8  7  1  0
  9  8  1  0
 10  9  1  0
 11 10  1  0
 11 12  1  0
 12 13  1  0
 13  8  1  0
 14 15  1  0
 14 21  1  0
 14  1  1  0
 15 16  2  0
 16 17  1  0
 18 17  2  0
 19 18  1  0
 20 19  2  0
 20 15  1  0
  1 22  1  0
  1 23  1  0
  3 24  1  0
  4 25  1  0
  5 26  1  0
  6 27  1  0
  9 28  1  0
  9 29  1  0
 10 30  1  0
 10 31  1  0
 11 32  1  0
 12 33  1  0
 12 34  1  0
 13 35  1  0
 13 36  1  0
 14 37  1  6
 16 38  1  0
 17 39  1  0
 19 40  1  0
 21 41  1  0
 21 42  1  0
 21 43  1  0
M  ISO  8  22   8  23   8  24  14  25  14  26  14  27  14  28  13  29  13
M  ISO  8  30  13  31  13  32   5  33  13  34  13  35  13  36  13  37   8
M  ISO  6  38  14  39  14  40  14  41   8  42   8  43   8
M  END
>  <minimizedAffinity>  (1) 
-4.50372553

>  <minimizedRMSD>  (1) 
0.621779323

$$$$
