
     RDKit          3D

 24 26  0  0  0  0  0  0  0  0999 V2000
   38.0300   23.4690   34.6160 C   0  0  0  0  0  0  0  0  0  0  0  0
   38.2630   24.5690   33.7980 C   0  0  0  0  0  0  0  0  0  0  0  0
   37.7630   24.1820   32.5880 N   0  0  0  0  0  0  0  0  0  0  0  0
   37.2840   22.9550   32.7160 C   0  0  0  0  0  0  0  0  0  0  0  0
   37.4290   22.4730   33.9660 N   0  0  0  0  0  0  0  0  0  0  0  0
   38.3930   23.3990   36.0300 C   0  0  0  0  0  0  0  0  0  0  0  0
   39.5940   22.8040   36.4250 C   0  0  0  0  0  0  0  0  0  0  0  0
   39.9020   22.7590   37.8000 C   0  0  0  0  0  0  0  0  0  0  0  0
   39.0130   23.2980   38.6570 N   0  0  0  0  0  0  0  0  0  0  0  0
   37.8530   23.8720   38.2510 C   0  0  0  0  0  0  0  0  0  0  0  0
   37.5410   23.9230   36.9430 N   0  0  0  0  0  0  0  0  0  0  0  0
   37.0020   21.1680   34.3960 C   0  0  0  0  0  0  0  0  0  0  0  0
   35.8400   20.9650   35.2550 C   0  0  0  0  0  0  0  0  0  0  0  0
   35.6680   20.7690   33.7630 C   0  0  0  0  0  0  0  0  0  0  0  0
   38.7380   25.5251   34.0631 H   0  0  0  0  0  0  0  0  0  0  0  0
   36.8193   22.3914   31.8936 H   0  0  0  0  0  0  0  0  0  0  0  0
   40.2835   22.3803   35.6800 H   0  0  0  0  0  0  0  0  0  0  0  0
   40.8346   22.3003   38.1602 H   0  0  0  0  0  0  0  0  0  0  0  0
   37.1637   24.2980   38.9949 H   0  0  0  0  0  0  0  0  0  0  0  0
   38.0301   20.7880   34.4890 H   0  0  0  0  0  0  0  0  0  0  0  0
   35.8044   20.0944   35.9265 H   0  0  0  0  0  0  0  0  0  0  0  0
   35.3293   21.5789   36.0115 H   0  0  0  0  0  0  0  0  0  0  0  0
   35.0942   21.4948   33.1680 H   0  0  0  0  0  0  0  0  0  0  0  0
   35.3118   19.9631   33.1045 H   0  0  0  0  0  0  0  0  0  0  0  0
  1  6  1  0
  2  1  2  0
  3  4  2  0
  3  2  1  0
  4  5  1  0
  5 12  1  0
  5  1  1  0
  6  7  2  0
  6 11  1  0
  7  8  1  0
  8  9  2  0
 10  9  1  0
 11 10  2  0
 12 13  1  0
 14 12  1  0
 14 13  1  0
  2 15  1  0
  4 16  1  0
  7 17  1  0
  8 18  1  0
 10 19  1  0
 12 20  1  0
 13 21  1  0
 13 22  1  0
 14 23  1  0
 14 24  1  0
M  ISO  8  15  14  16  14  17  14  18  14  19  14  20  13  21  13  22  13
M  ISO  2  23  13  24  13
M  END
>  <minimizedAffinity>  (1) 
-3.8364656

>  <minimizedRMSD>  (1) 
2.15259552

$$$$
