
     RDKit          3D

 17 18  0  0  0  0  0  0  0  0999 V2000
   39.1440   23.3550   35.9820 C   0  0  0  0  0  0  0  0  0  0  0  0
   39.7720   22.9090   37.1540 C   0  0  0  0  0  0  0  0  0  0  0  0
   39.1720   23.2000   38.3880 C   0  0  0  0  0  0  0  0  0  0  0  0
   38.0030   23.9050   38.3820 N   0  0  0  0  0  0  0  0  0  0  0  0
   37.4250   24.3190   37.2440 C   0  0  0  0  0  0  0  0  0  0  0  0
   37.9840   24.0510   36.0500 N   0  0  0  0  0  0  0  0  0  0  0  0
   41.0060   22.1670   37.0990 C   0  0  0  0  0  0  0  0  0  0  0  0
   42.0890   22.4560   36.3320 C   0  0  0  0  0  0  0  0  0  0  0  0
   42.9880   21.4750   36.6300 N   0  0  0  0  0  0  0  0  0  0  0  0
   42.4580   20.6380   37.5380 C   0  0  0  0  0  0  0  0  0  0  0  0
   41.2110   21.0740   37.8320 N   0  0  0  0  0  0  0  0  0  0  0  0
   39.5957   23.1385   35.0027 H   0  0  0  0  0  0  0  0  0  0  0  0
   39.6297   22.8700   39.3323 H   0  0  0  0  0  0  0  0  0  0  0  0
   36.4825   24.8845   37.2879 H   0  0  0  0  0  0  0  0  0  0  0  0
   42.2130   23.2928   35.6289 H   0  0  0  0  0  0  0  0  0  0  0  0
   42.9513   19.7534   37.9671 H   0  0  0  0  0  0  0  0  0  0  0  0
   40.5492   20.6442   38.4939 H   0  0  0  0  0  0  0  0  0  0  0  0
  1  6  2  0
  1  2  1  0
  2  3  2  0
  4  3  1  0
  5  4  2  0
  6  5  1  0
  7  2  1  0
  7 11  1  0
  8  9  1  0
  8  7  2  0
  9 10  2  0
 10 11  1  0
  1 12  1  0
  3 13  1  0
  5 14  1  0
  8 15  1  0
 10 16  1  0
 11 17  1  0
M  ISO  6  12  14  13  14  14  14  15  14  16  14  17   9
M  END
>  <minimizedAffinity>  (1) 
-3.61940527

>  <minimizedRMSD>  (1) 
3.90069675

$$$$
