
     RDKit          3D

 38 42  0  0  1  0  0  0  0  0999 V2000
   38.3360   23.1680   33.4400 C   0  0  1  0  0  0  0  0  0  0  0  0
   37.6710   21.9590   33.8880 C   0  0  0  0  0  0  0  0  0  0  0  0
   37.2580   22.5400   32.5590 C   0  0  2  0  0  0  0  0  0  0  0  0
   37.6050   21.7260   31.4370 N   0  0  0  0  0  0  0  0  0  0  0  0
   38.4600   21.9000   30.4150 C   0  0  0  0  0  0  0  0  0  0  0  0
   38.4070   20.8000   29.6070 N   0  0  0  0  0  0  0  0  0  0  0  0
   37.5160   19.9350   30.1250 C   0  0  0  0  0  0  0  0  0  0  0  0
   37.1080   18.6900   29.6820 C   0  0  0  0  0  0  0  0  0  0  0  0
   37.5760   18.1670   28.6290 O   0  0  0  0  0  0  0  0  0  0  0  0
   36.1870   17.9940   30.3750 N   0  0  0  0  0  0  0  0  0  0  0  0
   35.7030   18.5810   31.5030 C   0  0  0  0  0  0  0  0  0  0  0  0
   34.7360   17.9230   32.2880 N   0  0  0  0  0  0  0  0  0  0  0  0
   36.0880   19.7950   31.9500 N   0  0  0  0  0  0  0  0  0  0  0  0
   37.0060   20.5220   31.2850 C   0  0  0  0  0  0  0  0  0  0  0  0
   37.9500   25.0400   35.1110 C   0  0  0  0  0  0  0  0  0  0  0  0
   37.4940   26.3430   35.0860 C   0  0  0  0  0  0  0  0  0  0  0  0
   37.2110   26.5600   33.7690 N   0  0  0  0  0  0  0  0  0  0  0  0
   37.4890   25.4590   33.1030 C   0  0  0  0  0  0  0  0  0  0  0  0
   37.9530   24.4850   33.9100 N   0  0  0  0  0  0  0  0  0  0  0  0
   38.3820   24.3350   36.3130 C   0  0  0  0  0  0  0  0  0  0  0  0
   39.6410   23.7290   36.3730 C   0  0  0  0  0  0  0  0  0  0  0  0
   40.0300   23.0600   37.5390 C   0  0  0  0  0  0  0  0  0  0  0  0
   39.1490   23.0410   38.5560 N   0  0  0  0  0  0  0  0  0  0  0  0
   37.9270   23.6280   38.4970 C   0  0  0  0  0  0  0  0  0  0  0  0
   37.5490   24.2750   37.3740 N   0  0  0  0  0  0  0  0  0  0  0  0
   39.4060   23.4198   33.3979 H   0  0  0  0  0  0  0  0  0  0  0  0
   38.2279   21.0109   33.9178 H   0  0  0  0  0  0  0  0  0  0  0  0
   37.1278   21.6785   34.8025 H   0  0  0  0  0  0  0  0  0  0  0  0
   36.3601   22.9394   32.0648 H   0  0  0  0  0  0  0  0  0  0  0  0
   39.0972   22.7824   30.2555 H   0  0  0  0  0  0  0  0  0  0  0  0
   35.8655   17.0652   30.0671 H   0  0  0  0  0  0  0  0  0  0  0  0
   34.3729   18.3718   33.1410 H   0  0  0  0  0  0  0  0  0  0  0  0
   34.3921   16.9931   32.0090 H   0  0  0  0  0  0  0  0  0  0  0  0
   37.3847   27.0413   35.9289 H   0  0  0  0  0  0  0  0  0  0  0  0
   37.3580   25.3475   32.0165 H   0  0  0  0  0  0  0  0  0  0  0  0
   40.3208   23.7779   35.5096 H   0  0  0  0  0  0  0  0  0  0  0  0
   41.0122   22.5714   37.6205 H   0  0  0  0  0  0  0  0  0  0  0  0
   37.2474   23.5769   39.3604 H   0  0  0  0  0  0  0  0  0  0  0  0
  1  2  1  0
  1 19  1  0
  3  1  1  0
  3  2  1  0
  4  3  1  0
  5  4  1  0
  6  7  1  0
  6  5  2  0
  7 14  2  0
  8  7  1  0
  8 10  1  0
  9  8  2  0
 10 11  1  0
 11 13  2  0
 11 12  1  0
 14  4  1  0
 14 13  1  0
 15 20  1  0
 16 15  2  0
 17 16  1  0
 18 17  2  0
 18 19  1  0
 19 15  1  0
 20 21  2  0
 20 25  1  0
 21 22  1  0
 22 23  2  0
 24 23  1  0
 25 24  2  0
  1 26  1  6
  2 27  1  0
  2 28  1  0
  3 29  1  1
  5 30  1  0
 10 31  1  0
 12 32  1  0
 12 33  1  0
 16 34  1  0
 18 35  1  0
 21 36  1  0
 22 37  1  0
 24 38  1  0
M  ISO  8  26  13  27  13  28  13  29  13  30  14  31   9  34  14  35  14
M  ISO  3  36  14  37  14  38  14
M  END
>  <minimizedAffinity>  (1) 
-5.65090799

>  <minimizedRMSD>  (1) 
3.16323543

$$$$
