
     RDKit          3D

 40 44  0  0  1  0  0  0  0  0999 V2000
   37.4500   21.7640   33.8210 C   0  0  1  0  0  0  0  0  0  0  0  0
   36.2770   21.2650   34.5060 C   0  0  0  0  0  0  0  0  0  0  0  0
   36.2390   21.3490   32.9800 C   0  0  2  0  0  0  0  0  0  0  0  0
   36.2530   20.0000   32.3630 C   0  0  0  0  0  0  0  0  0  0  0  0
   35.4740   19.1180   33.1210 C   0  0  0  0  0  0  0  0  0  0  0  0
   35.3050   17.7940   32.7000 C   0  0  0  0  0  0  0  0  0  0  0  0
   35.9300   17.3870   31.5190 C   0  0  0  0  0  0  0  0  0  0  0  0
   36.6940   18.2620   30.7820 C   0  0  0  0  0  0  0  0  0  0  0  0
   37.3540   17.9370   29.6100 C   0  0  0  0  0  0  0  0  0  0  0  0
   38.1200   18.8740   28.9260 C   0  0  0  0  0  0  0  0  0  0  0  0
   38.2530   20.1860   29.3990 C   0  0  0  0  0  0  0  0  0  0  0  0
   37.5950   20.5120   30.5670 C   0  0  0  0  0  0  0  0  0  0  0  0
   36.8530   19.5630   31.2080 C   0  0  0  0  0  0  0  0  0  0  0  0
   38.2010   24.0600   34.5570 C   0  0  0  0  0  0  0  0  0  0  0  0
   38.3470   25.3130   33.9730 C   0  0  0  0  0  0  0  0  0  0  0  0
   37.9590   25.1270   32.6830 N   0  0  0  0  0  0  0  0  0  0  0  0
   37.6150   23.8660   32.5370 C   0  0  0  0  0  0  0  0  0  0  0  0
   37.7540   23.1730   33.6860 N   0  0  0  0  0  0  0  0  0  0  0  0
   38.4960   23.7450   35.9480 C   0  0  0  0  0  0  0  0  0  0  0  0
   39.6770   23.1050   36.2940 C   0  0  0  0  0  0  0  0  0  0  0  0
   39.9160   22.8220   37.6550 C   0  0  0  0  0  0  0  0  0  0  0  0
   38.9650   23.1980   38.5460 N   0  0  0  0  0  0  0  0  0  0  0  0
   37.8200   23.8220   38.1860 C   0  0  0  0  0  0  0  0  0  0  0  0
   37.5790   24.0970   36.8940 N   0  0  0  0  0  0  0  0  0  0  0  0
   38.5081   21.4921   33.9495 H   0  0  0  0  0  0  0  0  0  0  0  0
   36.3101   20.2811   34.9967 H   0  0  0  0  0  0  0  0  0  0  0  0
   35.6363   21.6535   35.3113 H   0  0  0  0  0  0  0  0  0  0  0  0
   35.6582   21.8371   32.1835 H   0  0  0  0  0  0  0  0  0  0  0  0
   34.9945   19.4656   34.0479 H   0  0  0  0  0  0  0  0  0  0  0  0
   34.6945   17.0906   33.2853 H   0  0  0  0  0  0  0  0  0  0  0  0
   35.8093   16.3500   31.1726 H   0  0  0  0  0  0  0  0  0  0  0  0
   37.2708   16.9153   29.2110 H   0  0  0  0  0  0  0  0  0  0  0  0
   38.6306   18.5801   27.9971 H   0  0  0  0  0  0  0  0  0  0  0  0
   38.8593   20.9284   28.8594 H   0  0  0  0  0  0  0  0  0  0  0  0
   37.6680   21.5295   30.9785 H   0  0  0  0  0  0  0  0  0  0  0  0
   38.6965   26.2425   34.4462 H   0  0  0  0  0  0  0  0  0  0  0  0
   37.2574   23.4295   31.5928 H   0  0  0  0  0  0  0  0  0  0  0  0
   40.4108   22.8244   35.5241 H   0  0  0  0  0  0  0  0  0  0  0  0
   40.8370   22.3165   37.9808 H   0  0  0  0  0  0  0  0  0  0  0  0
   37.0846   24.1048   38.9536 H   0  0  0  0  0  0  0  0  0  0  0  0
  1  2  1  0
  3  1  1  0
  3  2  1  0
  4  3  1  0
  4  5  2  0
  6  5  1  0
  7  6  2  0
  8 13  2  0
  8  7  1  0
  9  8  1  0
 10 11  1  0
 10  9  2  0
 11 12  2  0
 12 13  1  0
 13  4  1  0
 14 19  1  0
 15 14  2  0
 16 15  1  0
 17 16  2  0
 17 18  1  0
 18  1  1  0
 18 14  1  0
 19 20  2  0
 19 24  1  0
 20 21  1  0
 21 22  2  0
 23 22  1  0
 24 23  2  0
  1 25  1  6
  2 26  1  0
  2 27  1  0
  3 28  1  1
  5 29  1  0
  6 30  1  0
  7 31  1  0
  9 32  1  0
 10 33  1  0
 11 34  1  0
 12 35  1  0
 15 36  1  0
 17 37  1  0
 20 38  1  0
 21 39  1  0
 23 40  1  0
M  ISO  8  25  13  26  13  27  13  28  13  29  14  30  14  31  14  32  14
M  ISO  8  33  14  34  14  35  14  36  14  37  14  38  14  39  14  40  14
M  END
>  <minimizedAffinity>  (1) 
-5.6268549

>  <minimizedRMSD>  (1) 
1.35453069

$$$$
