
     RDKit          3D

 36 38  0  0  1  0  0  0  0  0999 V2000
   40.9690   21.5930   36.8200 C   0  0  0  0  0  0  0  0  0  0  0  0
   39.8700   22.5000   37.0560 C   0  0  0  0  0  0  0  0  0  0  0  0
   39.5910   23.0520   38.3060 C   0  0  0  0  0  0  0  0  0  0  0  0
   38.5560   23.9490   38.5090 C   0  0  0  0  0  0  0  0  0  0  0  0
   37.7620   24.3320   37.4720 C   0  0  0  0  0  0  0  0  0  0  0  0
   38.0210   23.7940   36.2190 C   0  0  0  0  0  0  0  0  0  0  0  0
   39.0550   22.8920   36.0240 C   0  0  0  0  0  0  0  0  0  0  0  0
   38.9940   22.2760   34.6710 C   0  0  0  0  0  0  0  0  0  0  0  0
   39.9040   21.8920   33.6810 C   0  0  0  0  0  0  0  0  0  0  0  0
   39.4100   21.2560   32.6110 C   0  0  0  0  0  0  0  0  0  0  0  0
   38.1140   20.9810   32.4560 C   0  0  0  0  0  0  0  0  0  0  0  0
   37.3590   21.6610   33.9690 S   0  0  0  0  0  0  0  0  0  0  0  0
   42.1490   22.1020   36.1050 C   0  0  2  0  0  0  0  0  0  0  0  0
   43.2840   21.1310   36.2710 C   0  0  0  0  0  0  0  0  0  0  0  0
   43.0680   19.9090   36.9220 C   0  0  0  0  0  0  0  0  0  0  0  0
   44.1240   19.0360   37.0890 C   0  0  0  0  0  0  0  0  0  0  0  0
   45.3430   19.4350   36.5970 N   0  0  0  0  0  0  0  0  0  0  0  0
   45.5340   20.6090   35.9760 C   0  0  0  0  0  0  0  0  0  0  0  0
   44.4970   21.4460   35.8200 N   0  0  0  0  0  0  0  0  0  0  0  0
   42.6950   23.4050   36.7210 C   0  0  0  0  0  0  0  0  0  0  0  0
   41.3121   21.2341   37.8015 H   0  0  0  0  0  0  0  0  0  0  0  0
   40.5519   20.8286   36.1479 H   0  0  0  0  0  0  0  0  0  0  0  0
   40.2171   22.7638   39.1633 H   0  0  0  0  0  0  0  0  0  0  0  0
   38.3742   24.3548   39.5151 H   0  0  0  0  0  0  0  0  0  0  0  0
   36.9395   25.0467   37.6225 H   0  0  0  0  0  0  0  0  0  0  0  0
   37.3939   24.0891   35.3648 H   0  0  0  0  0  0  0  0  0  0  0  0
   40.9792   22.1033   33.7770 H   0  0  0  0  0  0  0  0  0  0  0  0
   40.1082   20.9447   31.8200 H   0  0  0  0  0  0  0  0  0  0  0  0
   37.6203   20.4678   31.6176 H   0  0  0  0  0  0  0  0  0  0  0  0
   41.8282   22.2554   35.0641 H   0  0  0  0  0  0  0  0  0  0  0  0
   42.0670   19.6481   37.2961 H   0  0  0  0  0  0  0  0  0  0  0  0
   43.9955   18.0664   37.5924 H   0  0  0  0  0  0  0  0  0  0  0  0
   46.5304   20.8824   35.5987 H   0  0  0  0  0  0  0  0  0  0  0  0
   42.6647   23.3327   37.8182 H   0  0  0  0  0  0  0  0  0  0  0  0
   43.7334   23.5590   36.3922 H   0  0  0  0  0  0  0  0  0  0  0  0
   42.0766   24.2533   36.3922 H   0  0  0  0  0  0  0  0  0  0  0  0
  1  2  1  0
  2  3  2  0
  3  4  1  0
  5  4  2  0
  6  5  1  0
  7  6  2  0
  7  2  1  0
  8  7  1  0
  9  8  2  0
 10  9  1  0
 11 10  2  0
 11 12  1  0
 12  8  1  0
 13 14  1  0
 13 20  1  0
 13  1  1  0
 14 15  2  0
 15 16  1  0
 17 16  2  0
 18 17  1  0
 19 18  2  0
 19 14  1  0
  1 21  1  0
  1 22  1  0
  3 23  1  0
  4 24  1  0
  5 25  1  0
  6 26  1  0
  9 27  1  0
 10 28  1  0
 11 29  1  0
 13 30  1  6
 15 31  1  0
 16 32  1  0
 18 33  1  0
 20 34  1  0
 20 35  1  0
 20 36  1  0
M  ISO  8  21   8  22   8  23  14  24  14  25  14  26  14  27  14  28  14
M  ISO  8  29  14  30   8  31  14  32  14  33  14  34   8  35   8  36   8
M  END
>  <minimizedAffinity>  (1) 
-4.4250598

>  <minimizedRMSD>  (1) 
0.484498531

$$$$
