
     RDKit          3D

 31 34  0  0  1  0  0  0  0  0999 V2000
   38.0990   23.7310   34.4350 C   0  0  0  0  0  0  0  0  0  0  0  0
   38.2920   24.9400   33.7570 C   0  0  0  0  0  0  0  0  0  0  0  0
   37.8170   24.6880   32.5080 N   0  0  0  0  0  0  0  0  0  0  0  0
   37.3900   23.4420   32.4760 C   0  0  0  0  0  0  0  0  0  0  0  0
   37.5460   22.8110   33.6500 N   0  0  0  0  0  0  0  0  0  0  0  0
   38.4570   23.5040   35.8220 C   0  0  0  0  0  0  0  0  0  0  0  0
   39.6850   22.9260   36.1530 C   0  0  0  0  0  0  0  0  0  0  0  0
   39.9870   22.7240   37.5190 C   0  0  0  0  0  0  0  0  0  0  0  0
   39.0650   23.1060   38.4280 N   0  0  0  0  0  0  0  0  0  0  0  0
   37.8800   23.6650   38.0780 C   0  0  0  0  0  0  0  0  0  0  0  0
   37.5840   23.8600   36.7890 N   0  0  0  0  0  0  0  0  0  0  0  0
   37.1690   21.4490   33.9030 C   0  0  1  0  0  0  0  0  0  0  0  0
   36.0360   21.0740   34.7250 C   0  0  0  0  0  0  0  0  0  0  0  0
   35.8680   21.0760   33.2100 C   0  0  2  0  0  0  0  0  0  0  0  0
   35.8270   19.7020   32.6390 C   0  0  0  0  0  0  0  0  0  0  0  0
   36.9080   19.0820   32.0040 C   0  0  0  0  0  0  0  0  0  0  0  0
   36.3790   17.8450   31.6590 C   0  0  0  0  0  0  0  0  0  0  0  0
   35.0830   17.7180   32.0500 N   0  0  0  0  0  0  0  0  0  0  0  0
   34.7580   18.8650   32.6500 N   0  0  0  0  0  0  0  0  0  0  0  0
   38.7258   25.8741   34.1434 H   0  0  0  0  0  0  0  0  0  0  0  0
   36.9530   22.9701   31.5836 H   0  0  0  0  0  0  0  0  0  0  0  0
   40.3999   22.6350   35.3692 H   0  0  0  0  0  0  0  0  0  0  0  0
   40.9400   22.2714   37.8304 H   0  0  0  0  0  0  0  0  0  0  0  0
   37.1606   23.9587   38.8566 H   0  0  0  0  0  0  0  0  0  0  0  0
   38.2146   21.1109   33.9522 H   0  0  0  0  0  0  0  0  0  0  0  0
   36.0501   20.1194   35.2715 H   0  0  0  0  0  0  0  0  0  0  0  0
   35.4997   21.5502   35.5590 H   0  0  0  0  0  0  0  0  0  0  0  0
   35.2123   21.5505   32.4651 H   0  0  0  0  0  0  0  0  0  0  0  0
   37.9197   19.4743   31.8237 H   0  0  0  0  0  0  0  0  0  0  0  0
   36.9420   17.0608   31.1318 H   0  0  0  0  0  0  0  0  0  0  0  0
   34.4734   16.8995   31.9109 H   0  0  0  0  0  0  0  0  0  0  0  0
  1  6  1  0
  2  1  2  0
  3  2  1  0
  4  3  2  0
  4  5  1  0
  5 12  1  0
  5  1  1  0
  6  7  2  0
  6 11  1  0
  7  8  1  0
  8  9  2  0
 10  9  1  0
 11 10  2  0
 12 13  1  0
 14 12  1  0
 14 13  1  0
 15 19  2  0
 15 14  1  0
 16 15  1  0
 17 16  2  0
 17 18  1  0
 18 19  1  0
  2 20  1  0
  4 21  1  0
  7 22  1  0
  8 23  1  0
 10 24  1  0
 12 25  1  6
 13 26  1  0
 13 27  1  0
 14 28  1  1
 16 29  1  0
 17 30  1  0
 18 31  1  0
M  ISO  8  20  14  21  14  22  14  23  14  24  14  25  13  26  13  27  13
M  ISO  4  28  13  29  14  30  14  31   9
M  END
>  <minimizedAffinity>  (1) 
-4.84067249

>  <minimizedRMSD>  (1) 
0.641345918

$$$$
