
     RDKit          3D

 34 35  0  0  0  0  0  0  0  0999 V2000
   38.5650   23.1590   36.5800 C   0  0  0  0  0  0  0  0  0  0  0  0
   35.6300   20.9310   35.8070 C   0  0  0  0  0  0  0  0  0  0  0  0
   36.5110   21.7050   36.5600 C   0  0  0  0  0  0  0  0  0  0  0  0
   37.5890   22.3080   35.9130 C   0  0  0  0  0  0  0  0  0  0  0  0
   37.7470   22.1190   34.5540 N   0  0  0  0  0  0  0  0  0  0  0  0
   36.8720   21.3640   33.8640 C   0  0  0  0  0  0  0  0  0  0  0  0
   35.8240   20.7720   34.4660 N   0  0  0  0  0  0  0  0  0  0  0  0
   37.9080   23.6210   37.8900 C   0  0  0  0  0  0  0  0  0  0  0  0
   39.8810   22.4750   36.9030 C   0  0  0  0  0  0  0  0  0  0  0  0
   38.9020   24.3600   35.7410 C   0  0  0  0  0  0  0  0  0  0  0  0
   37.9510   25.3810   35.6230 N   0  0  0  0  0  0  0  0  0  0  0  0
   37.3480   25.7150   34.4060 C   0  0  0  0  0  0  0  0  0  0  0  0
   37.8330   27.1440   34.0600 C   0  0  0  0  0  0  0  0  0  0  0  0
   37.8680   27.7430   35.4540 C   0  0  0  0  0  0  0  0  0  0  0  0
   38.4480   26.5880   36.2560 C   0  0  0  0  0  0  0  0  0  0  0  0
   34.7731   20.4454   36.2968 H   0  0  0  0  0  0  0  0  0  0  0  0
   36.3592   21.8374   37.6414 H   0  0  0  0  0  0  0  0  0  0  0  0
   37.0170   21.2276   32.7822 H   0  0  0  0  0  0  0  0  0  0  0  0
   38.4745   23.2227   38.7447 H   0  0  0  0  0  0  0  0  0  0  0  0
   37.9062   24.7202   37.9316 H   0  0  0  0  0  0  0  0  0  0  0  0
   36.8730   23.2508   37.9316 H   0  0  0  0  0  0  0  0  0  0  0  0
   40.0031   22.4116   37.9944 H   0  0  0  0  0  0  0  0  0  0  0  0
   39.8826   21.4620   36.4744 H   0  0  0  0  0  0  0  0  0  0  0  0
   40.7110   23.0558   36.4744 H   0  0  0  0  0  0  0  0  0  0  0  0
   39.8102   24.8101   36.1683 H   0  0  0  0  0  0  0  0  0  0  0  0
   38.9939   23.9586   34.7210 H   0  0  0  0  0  0  0  0  0  0  0  0
   37.6555   25.0078   33.6216 H   0  0  0  0  0  0  0  0  0  0  0  0
   36.2512   25.6708   34.4772 H   0  0  0  0  0  0  0  0  0  0  0  0
   38.8283   27.1371   33.5916 H   0  0  0  0  0  0  0  0  0  0  0  0
   37.2097   27.6862   33.3337 H   0  0  0  0  0  0  0  0  0  0  0  0
   38.5179   28.6295   35.4958 H   0  0  0  0  0  0  0  0  0  0  0  0
   36.8931   28.1006   35.8169 H   0  0  0  0  0  0  0  0  0  0  0  0
   38.1103   26.6395   37.3016 H   0  0  0  0  0  0  0  0  0  0  0  0
   39.5476   26.6156   36.2699 H   0  0  0  0  0  0  0  0  0  0  0  0
  1  9  1  0
  1  8  1  0
  2  3  2  0
  4  3  1  0
  4  1  1  0
  5  4  2  0
  6  7  2  0
  6  5  1  0
  7  2  1  0
 10  1  1  0
 11 10  1  0
 11 15  1  0
 12 11  1  0
 13 12  1  0
 13 14  1  0
 14 15  1  0
  2 16  1  0
  3 17  1  0
  6 18  1  0
  8 19  1  0
  8 20  1  0
  8 21  1  0
  9 22  1  0
  9 23  1  0
  9 24  1  0
 10 25  1  0
 10 26  1  0
 12 27  1  0
 12 28  1  0
 13 29  1  0
 13 30  1  0
 14 31  1  0
 14 32  1  0
 15 33  1  0
 15 34  1  0
M  ISO  8  16  14  17  14  18  14  19   8  20   8  21   8  22   8  23   8
M  ISO  8  24   8  25   8  26   8  27  13  28  13  29  13  30  13  31  13
M  ISO  3  32  13  33  13  34  13
M  END
>  <minimizedAffinity>  (1) 
-4.09032965

>  <minimizedRMSD>  (1) 
4.97037315

$$$$
