
     RDKit          3D

 35 36  0  0  1  0  0  0  0  0999 V2000
   41.0780   21.7480   37.1980 C   0  0  0  0  0  0  0  0  0  0  0  0
   39.8980   22.5740   37.2920 C   0  0  0  0  0  0  0  0  0  0  0  0
   39.4260   23.2050   38.4490 C   0  0  0  0  0  0  0  0  0  0  0  0
   38.2970   23.9920   38.4730 C   0  0  0  0  0  0  0  0  0  0  0  0
   37.5940   24.1820   37.3310 C   0  0  0  0  0  0  0  0  0  0  0  0
   38.0380   23.5610   36.1510 C   0  0  0  0  0  0  0  0  0  0  0  0
   39.1770   22.7620   36.1340 C   0  0  0  0  0  0  0  0  0  0  0  0
   39.1980   22.1300   34.7900 C   0  0  0  0  0  0  0  0  0  0  0  0
   37.7250   21.9180   34.3160 C   0  0  0  0  0  0  0  0  0  0  0  0
   42.1480   22.1440   36.2690 C   0  0  2  0  0  0  0  0  0  0  0  0
   43.2650   21.1220   36.3840 C   0  0  0  0  0  0  0  0  0  0  0  0
   43.0430   19.8860   37.0090 C   0  0  0  0  0  0  0  0  0  0  0  0
   44.0850   18.9830   37.1030 C   0  0  0  0  0  0  0  0  0  0  0  0
   45.2860   19.3650   36.5720 N   0  0  0  0  0  0  0  0  0  0  0  0
   45.4840   20.5580   35.9740 C   0  0  0  0  0  0  0  0  0  0  0  0
   44.4650   21.4440   35.8780 N   0  0  0  0  0  0  0  0  0  0  0  0
   42.8300   23.4640   36.6250 C   0  0  0  0  0  0  0  0  0  0  0  0
   41.5225   21.7037   38.2032 H   0  0  0  0  0  0  0  0  0  0  0  0
   40.7059   20.7984   36.7860 H   0  0  0  0  0  0  0  0  0  0  0  0
   39.9853   23.0649   39.3858 H   0  0  0  0  0  0  0  0  0  0  0  0
   37.9686   24.4625   39.4115 H   0  0  0  0  0  0  0  0  0  0  0  0
   36.6917   24.8111   37.3272 H   0  0  0  0  0  0  0  0  0  0  0  0
   37.4721   23.7100   35.2196 H   0  0  0  0  0  0  0  0  0  0  0  0
   39.7249   22.7851   34.0806 H   0  0  0  0  0  0  0  0  0  0  0  0
   39.7203   21.1631   34.8375 H   0  0  0  0  0  0  0  0  0  0  0  0
   37.0677   21.8234   35.1929 H   0  0  0  0  0  0  0  0  0  0  0  0
   37.4070   22.7796   33.7106 H   0  0  0  0  0  0  0  0  0  0  0  0
   37.6629   21.0017   33.7106 H   0  0  0  0  0  0  0  0  0  0  0  0
   41.6703   22.2262   35.2815 H   0  0  0  0  0  0  0  0  0  0  0  0
   42.0526   19.6387   37.4189 H   0  0  0  0  0  0  0  0  0  0  0  0
   43.9543   18.0019   37.5830 H   0  0  0  0  0  0  0  0  0  0  0  0
   46.4732   20.8107   35.5645 H   0  0  0  0  0  0  0  0  0  0  0  0
   42.8827   23.5661   37.7190 H   0  0  0  0  0  0  0  0  0  0  0  0
   43.8471   23.4759   36.2062 H   0  0  0  0  0  0  0  0  0  0  0  0
   42.2512   24.3004   36.2062 H   0  0  0  0  0  0  0  0  0  0  0  0
  1  2  1  0
  2  3  2  0
  3  4  1  0
  5  4  2  0
  6  5  1  0
  7  6  2  0
  7  2  1  0
  8  7  1  0
  9  8  1  0
 10 11  1  0
 10 17  1  0
 10  1  1  0
 11 12  2  0
 12 13  1  0
 14 13  2  0
 15 14  1  0
 16 15  2  0
 16 11  1  0
  1 18  1  0
  1 19  1  0
  3 20  1  0
  4 21  1  0
  5 22  1  0
  6 23  1  0
  8 24  1  0
  8 25  1  0
  9 26  1  0
  9 27  1  0
  9 28  1  0
 10 29  1  6
 12 30  1  0
 13 31  1  0
 15 32  1  0
 17 33  1  0
 17 34  1  0
 17 35  1  0
M  ISO  8  18   8  19   8  20  14  21  14  22  14  23  14  24   8  25   8
M  ISO  8  26   8  27   8  28   8  29   8  30  14  31  14  32  14  33   8
M  ISO  2  34   8  35   8
M  END
>  <minimizedAffinity>  (1) 
-4.34324026

>  <minimizedRMSD>  (1) 
0.134330794

$$$$
