
     RDKit          3D

 36 38  0  0  1  0  0  0  0  0999 V2000
   40.9550   21.6710   36.8310 C   0  0  0  0  0  0  0  0  0  0  0  0
   39.8760   22.6060   37.0880 C   0  0  0  0  0  0  0  0  0  0  0  0
   39.5280   23.0240   38.3680 C   0  0  0  0  0  0  0  0  0  0  0  0
   38.4760   23.8990   38.5830 C   0  0  0  0  0  0  0  0  0  0  0  0
   37.7400   24.3820   37.5150 C   0  0  0  0  0  0  0  0  0  0  0  0
   38.0790   23.9690   36.2060 C   0  0  0  0  0  0  0  0  0  0  0  0
   39.1380   23.0930   36.0320 C   0  0  0  0  0  0  0  0  0  0  0  0
   39.2220   22.8370   34.6570 N   0  0  0  0  0  0  0  0  0  0  0  0
   38.4570   21.8370   34.1320 C   0  0  0  0  0  0  0  0  0  0  0  0
   38.7440   21.8470   32.7620 C   0  0  0  0  0  0  0  0  0  0  0  0
   39.6390   22.8110   32.4830 N   0  0  0  0  0  0  0  0  0  0  0  0
   39.9290   23.4110   33.6310 C   0  0  0  0  0  0  0  0  0  0  0  0
   42.1470   22.1630   36.1300 C   0  0  2  0  0  0  0  0  0  0  0  0
   43.2630   21.1710   36.2980 C   0  0  0  0  0  0  0  0  0  0  0  0
   43.0240   19.9550   36.9430 C   0  0  0  0  0  0  0  0  0  0  0  0
   44.0720   19.0670   37.0850 C   0  0  0  0  0  0  0  0  0  0  0  0
   45.2930   19.4350   36.5790 N   0  0  0  0  0  0  0  0  0  0  0  0
   45.5020   20.6080   35.9630 C   0  0  0  0  0  0  0  0  0  0  0  0
   44.4770   21.4630   35.8300 N   0  0  0  0  0  0  0  0  0  0  0  0
   42.7050   23.4620   36.6840 C   0  0  0  0  0  0  0  0  0  0  0  0
   41.2870   21.2806   37.8043 H   0  0  0  0  0  0  0  0  0  0  0  0
   40.5182   20.9337   36.1414 H   0  0  0  0  0  0  0  0  0  0  0  0
   40.1014   22.6511   39.2295 H   0  0  0  0  0  0  0  0  0  0  0  0
   38.2243   24.2114   39.6072 H   0  0  0  0  0  0  0  0  0  0  0  0
   36.9038   25.0768   37.6821 H   0  0  0  0  0  0  0  0  0  0  0  0
   37.5107   24.3375   35.3392 H   0  0  0  0  0  0  0  0  0  0  0  0
   37.7662   21.1693   34.6677 H   0  0  0  0  0  0  0  0  0  0  0  0
   38.3015   21.1650   32.0210 H   0  0  0  0  0  0  0  0  0  0  0  0
   40.6343   24.2476   33.7434 H   0  0  0  0  0  0  0  0  0  0  0  0
   41.8222   22.3155   35.0902 H   0  0  0  0  0  0  0  0  0  0  0  0
   42.0234   19.7104   37.3291 H   0  0  0  0  0  0  0  0  0  0  0  0
   43.9326   18.0980   37.5865 H   0  0  0  0  0  0  0  0  0  0  0  0
   46.4980   20.8647   35.5731 H   0  0  0  0  0  0  0  0  0  0  0  0
   42.6904   23.4280   37.7834 H   0  0  0  0  0  0  0  0  0  0  0  0
   43.7396   23.5950   36.3350 H   0  0  0  0  0  0  0  0  0  0  0  0
   42.0892   24.3040   36.3350 H   0  0  0  0  0  0  0  0  0  0  0  0
  1  2  1  0
  2  3  2  0
  3  4  1  0
  5  4  2  0
  6  5  1  0
  7  6  2  0
  7  2  1  0
  8  7  1  0
  9  8  1  0
 10  9  2  0
 11 10  1  0
 11 12  2  0
 12  8  1  0
 13 14  1  0
 13 20  1  0
 13  1  1  0
 14 15  2  0
 15 16  1  0
 17 16  2  0
 18 17  1  0
 19 18  2  0
 19 14  1  0
  1 21  1  0
  1 22  1  0
  3 23  1  0
  4 24  1  0
  5 25  1  0
  6 26  1  0
  9 27  1  0
 10 28  1  0
 12 29  1  0
 13 30  1  6
 15 31  1  0
 16 32  1  0
 18 33  1  0
 20 34  1  0
 20 35  1  0
 20 36  1  0
M  ISO  8  21   8  22   8  23  14  24  14  25  14  26  14  27  14  28  14
M  ISO  8  29  14  30   8  31  14  32  14  33  14  34   8  35   8  36   8
M  END
>  <minimizedAffinity>  (1) 
-4.33797407

>  <minimizedRMSD>  (1) 
0.69895339

$$$$
