
     RDKit          3D

 30 31  0  0  1  0  0  0  0  0999 V2000
   42.1570   22.0830   36.3260 C   0  0  2  0  0  0  0  0  0  0  0  0
   43.2870   21.1020   36.4060 C   0  0  0  0  0  0  0  0  0  0  0  0
   43.0760   19.8660   37.0290 C   0  0  0  0  0  0  0  0  0  0  0  0
   44.1240   18.9680   37.1120 C   0  0  0  0  0  0  0  0  0  0  0  0
   45.3200   19.3520   36.5700 N   0  0  0  0  0  0  0  0  0  0  0  0
   45.5060   20.5450   35.9730 C   0  0  0  0  0  0  0  0  0  0  0  0
   44.4770   21.4060   35.9030 N   0  0  0  0  0  0  0  0  0  0  0  0
   42.8210   23.4300   36.6110 C   0  0  0  0  0  0  0  0  0  0  0  0
   41.1190   21.7330   37.3190 C   0  0  0  0  0  0  0  0  0  0  0  0
   39.9100   22.5350   37.3040 C   0  0  0  0  0  0  0  0  0  0  0  0
   39.4890   23.2220   38.4300 C   0  0  0  0  0  0  0  0  0  0  0  0
   38.3060   23.9690   38.4120 C   0  0  0  0  0  0  0  0  0  0  0  0
   37.5270   24.0400   37.2710 C   0  0  0  0  0  0  0  0  0  0  0  0
   37.9440   23.3440   36.1160 C   0  0  0  0  0  0  0  0  0  0  0  0
   39.1100   22.6260   36.1810 C   0  0  0  0  0  0  0  0  0  0  0  0
   39.3690   22.0070   34.9690 O   0  0  0  0  0  0  0  0  0  0  0  0
   41.6391   22.0938   35.3556 H   0  0  0  0  0  0  0  0  0  0  0  0
   42.0903   19.6129   37.4466 H   0  0  0  0  0  0  0  0  0  0  0  0
   44.0014   17.9865   37.5934 H   0  0  0  0  0  0  0  0  0  0  0  0
   46.4857   20.8104   35.5491 H   0  0  0  0  0  0  0  0  0  0  0  0
   42.8948   23.5797   37.6983 H   0  0  0  0  0  0  0  0  0  0  0  0
   43.8286   23.4427   36.1699 H   0  0  0  0  0  0  0  0  0  0  0  0
   42.2174   24.2369   36.1699 H   0  0  0  0  0  0  0  0  0  0  0  0
   40.8279   20.6869   37.1431 H   0  0  0  0  0  0  0  0  0  0  0  0
   41.5802   21.9212   38.2998 H   0  0  0  0  0  0  0  0  0  0  0  0
   40.0915   23.1801   39.3494 H   0  0  0  0  0  0  0  0  0  0  0  0
   37.9909   24.5074   39.3180 H   0  0  0  0  0  0  0  0  0  0  0  0
   36.5980   24.6291   37.2640 H   0  0  0  0  0  0  0  0  0  0  0  0
   37.3505   23.3768   35.1904 H   0  0  0  0  0  0  0  0  0  0  0  0
   40.1803   21.4500   34.8610 H   0  0  0  0  0  0  0  0  0  0  0  0
  1  2  1  0
  1  8  1  0
  1  9  1  0
  2  3  2  0
  3  4  1  0
  5  4  2  0
  6  5  1  0
  7  6  2  0
  7  2  1  0
 10  9  1  0
 10 11  2  0
 12 11  1  0
 13 12  2  0
 14 15  2  0
 14 13  1  0
 15 10  1  0
 16 15  1  0
  1 17  1  6
  3 18  1  0
  4 19  1  0
  6 20  1  0
  8 21  1  0
  8 22  1  0
  8 23  1  0
  9 24  1  0
  9 25  1  0
 11 26  1  0
 12 27  1  0
 13 28  1  0
 14 29  1  0
 16 30  1  0
M  ISO  8  17   8  18  14  19  14  20  14  21   8  22   8  23   8  24   8
M  ISO  6  25   8  26  14  27  14  28  14  29  14  30   3
M  END
>  <minimizedAffinity>  (1) 
-4.2894125

>  <minimizedRMSD>  (1) 
0.154640466

$$$$
