
     RDKit          3D

 46 50  0  0  1  0  0  0  0  0999 V2000
   40.9100   23.1740   35.5710 C   0  0  0  0  0  0  0  0  0  0  0  0
   39.8530   23.3380   36.5350 C   0  0  0  0  0  0  0  0  0  0  0  0
   40.0240   23.0070   37.8740 C   0  0  0  0  0  0  0  0  0  0  0  0
   38.9890   23.1450   38.8020 C   0  0  0  0  0  0  0  0  0  0  0  0
   37.7560   23.6220   38.3950 C   0  0  0  0  0  0  0  0  0  0  0  0
   37.5730   23.9610   37.0380 C   0  0  0  0  0  0  0  0  0  0  0  0
   38.6250   23.8090   36.1500 C   0  0  0  0  0  0  0  0  0  0  0  0
   38.1450   24.2050   34.8840 N   0  0  0  0  0  0  0  0  0  0  0  0
   38.0040   23.3580   33.8010 C   0  0  0  0  0  0  0  0  0  0  0  0
   37.5100   24.0170   32.7160 N   0  0  0  0  0  0  0  0  0  0  0  0
   37.3320   25.2700   33.0910 C   0  0  0  0  0  0  0  0  0  0  0  0
   36.8800   26.4500   32.5340 C   0  0  0  0  0  0  0  0  0  0  0  0
   36.7950   27.6340   33.1520 N   0  0  0  0  0  0  0  0  0  0  0  0
   37.1790   27.7150   34.4400 C   0  0  0  0  0  0  0  0  0  0  0  0
   37.6360   26.5930   35.0520 N   0  0  0  0  0  0  0  0  0  0  0  0
   37.7150   25.4080   34.4120 C   0  0  0  0  0  0  0  0  0  0  0  0
   41.8780   24.2840   35.3720 C   0  0  2  0  0  0  0  0  0  0  0  0
   41.4530   25.1640   34.2560 C   0  0  0  0  0  0  0  0  0  0  0  0
   41.2410   26.5200   34.4960 C   0  0  0  0  0  0  0  0  0  0  0  0
   40.8280   27.3290   33.4520 C   0  0  0  0  0  0  0  0  0  0  0  0
   40.6530   26.7200   32.2260 N   0  0  0  0  0  0  0  0  0  0  0  0
   40.8620   25.4220   32.0210 C   0  0  0  0  0  0  0  0  0  0  0  0
   41.2620   24.6630   33.0510 N   0  0  0  0  0  0  0  0  0  0  0  0
   43.2640   23.7920   35.0140 C   0  0  0  0  0  0  0  0  0  0  0  0
   44.3420   24.2100   35.8900 C   0  0  0  0  0  0  0  0  0  0  0  0
   45.7030   23.7150   35.8860 C   0  0  0  0  0  0  0  0  0  0  0  0
   46.4990   24.5520   37.3360 S   0  0  0  0  0  0  0  0  0  0  0  0
   44.8570   25.4270   37.7030 C   0  0  0  0  0  0  0  0  0  0  0  0
   44.1770   25.0450   36.8940 N   0  0  0  0  0  0  0  0  0  0  0  0
   41.4901   22.2902   35.8749 H   0  0  0  0  0  0  0  0  0  0  0  0
   40.3826   23.1060   34.6080 H   0  0  0  0  0  0  0  0  0  0  0  0
   40.9993   22.6266   38.2117 H   0  0  0  0  0  0  0  0  0  0  0  0
   39.1543   22.8746   39.8554 H   0  0  0  0  0  0  0  0  0  0  0  0
   36.9333   23.7349   39.1163 H   0  0  0  0  0  0  0  0  0  0  0  0
   36.6027   24.3430   36.6879 H   0  0  0  0  0  0  0  0  0  0  0  0
   38.2583   22.2879   33.8136 H   0  0  0  0  0  0  0  0  0  0  0  0
   36.5593   26.4133   31.4824 H   0  0  0  0  0  0  0  0  0  0  0  0
   37.1236   28.6693   34.9842 H   0  0  0  0  0  0  0  0  0  0  0  0
   41.9029   24.8213   36.3315 H   0  0  0  0  0  0  0  0  0  0  0  0
   41.3995   26.9410   35.4998 H   0  0  0  0  0  0  0  0  0  0  0  0
   40.6480   28.4050   33.5925 H   0  0  0  0  0  0  0  0  0  0  0  0
   40.7094   24.9802   31.0253 H   0  0  0  0  0  0  0  0  0  0  0  0
   43.2395   22.6923   35.0145 H   0  0  0  0  0  0  0  0  0  0  0  0
   43.4906   24.2416   34.0360 H   0  0  0  0  0  0  0  0  0  0  0  0
   46.1605   23.0039   35.1824 H   0  0  0  0  0  0  0  0  0  0  0  0
   44.6262   26.1363   38.5115 H   0  0  0  0  0  0  0  0  0  0  0  0
  1  2  1  0
  2  3  2  0
  3  4  1  0
  5  4  2  0
  6  5  1  0
  7  2  1  0
  7  6  2  0
  8  7  1  0
  9  8  1  0
 10 11  1  0
 10  9  2  0
 11 16  2  0
 12 11  1  0
 12 13  2  0
 13 14  1  0
 14 15  2  0
 16  8  1  0
 16 15  1  0
 17  1  1  0
 18 19  2  0
 18 17  1  0
 20 19  1  0
 21 20  2  0
 22 21  1  0
 22 23  2  0
 23 18  1  0
 24 17  1  0
 24 25  1  0
 25 29  1  0
 26 25  2  0
 26 27  1  0
 27 28  1  0
 29 28  2  0
  1 30  1  0
  1 31  1  0
  3 32  1  0
  4 33  1  0
  5 34  1  0
  6 35  1  0
  9 36  1  0
 12 37  1  0
 14 38  1  0
 17 39  1  1
 19 40  1  0
 20 41  1  0
 22 42  1  0
 24 43  1  0
 24 44  1  0
 26 45  1  0
 28 46  1  0
M  ISO  8  30   8  31   8  32  14  33  14  34  14  35  14  36  14  37  14
M  ISO  8  38  14  39   8  40  14  41  14  42  14  43   8  44   8  45  14
M  ISO  1  46  14
M  END
>  <minimizedAffinity>  (1) 
-5.65742397

>  <minimizedRMSD>  (1) 
1.83365703

$$$$
