
     RDKit          3D

 53 57  0  0  1  0  0  0  0  0999 V2000
   39.9050   23.3350   36.5470 C   0  0  0  0  0  0  0  0  0  0  0  0
   40.0580   23.0920   37.9150 C   0  0  0  0  0  0  0  0  0  0  0  0
   38.9820   23.1390   38.7960 C   0  0  0  0  0  0  0  0  0  0  0  0
   37.7100   23.4350   38.3180 C   0  0  0  0  0  0  0  0  0  0  0  0
   37.5470   23.6820   36.9340 C   0  0  0  0  0  0  0  0  0  0  0  0
   38.6440   23.6240   36.0980 C   0  0  0  0  0  0  0  0  0  0  0  0
   38.1690   23.9000   34.8020 N   0  0  0  0  0  0  0  0  0  0  0  0
   37.9190   22.9400   33.8400 C   0  0  0  0  0  0  0  0  0  0  0  0
   37.4570   23.4980   32.6860 N   0  0  0  0  0  0  0  0  0  0  0  0
   37.4100   24.8030   32.8980 C   0  0  0  0  0  0  0  0  0  0  0  0
   37.0550   25.9440   32.2000 C   0  0  0  0  0  0  0  0  0  0  0  0
   37.1000   27.1950   32.6540 N   0  0  0  0  0  0  0  0  0  0  0  0
   37.5260   27.4000   33.9130 C   0  0  0  0  0  0  0  0  0  0  0  0
   37.8910   26.3290   34.6620 N   0  0  0  0  0  0  0  0  0  0  0  0
   37.8410   25.0700   34.1870 C   0  0  0  0  0  0  0  0  0  0  0  0
   41.0160   23.2640   35.6220 C   0  0  0  0  0  0  0  0  0  0  0  0
   41.8970   24.4580   35.5020 C   0  0  2  0  0  0  0  0  0  0  0  0
   41.5300   25.2430   34.2880 C   0  0  0  0  0  0  0  0  0  0  0  0
   41.2840   24.5850   33.0810 C   0  0  0  0  0  0  0  0  0  0  0  0
   40.9660   25.3330   31.9670 C   0  0  0  0  0  0  0  0  0  0  0  0
   40.9110   26.6940   32.1150 N   0  0  0  0  0  0  0  0  0  0  0  0
   41.1490   27.3110   33.2830 C   0  0  0  0  0  0  0  0  0  0  0  0
   41.4530   26.5580   34.3380 N   0  0  0  0  0  0  0  0  0  0  0  0
   43.3530   24.0740   35.3100 C   0  0  0  0  0  0  0  0  0  0  0  0
   44.1600   23.6930   36.4740 C   0  0  0  0  0  0  0  0  0  0  0  0
   44.3380   24.9520   37.3520 C   0  0  0  0  0  0  0  0  0  0  0  0
   45.7650   25.3760   37.2290 C   0  0  0  0  0  0  0  0  0  0  0  0
   46.1800   24.7630   35.9200 C   0  0  0  0  0  0  0  0  0  0  0  0
   45.5780   23.3860   36.0450 C   0  0  0  0  0  0  0  0  0  0  0  0
   41.0586   22.8567   38.3067 H   0  0  0  0  0  0  0  0  0  0  0  0
   39.1370   22.9426   39.8672 H   0  0  0  0  0  0  0  0  0  0  0  0
   36.8488   23.4763   39.0011 H   0  0  0  0  0  0  0  0  0  0  0  0
   36.5528   23.9186   36.5272 H   0  0  0  0  0  0  0  0  0  0  0  0
   38.0736   21.8609   33.9873 H   0  0  0  0  0  0  0  0  0  0  0  0
   36.7006   25.8037   31.1681 H   0  0  0  0  0  0  0  0  0  0  0  0
   37.5776   28.4174   34.3281 H   0  0  0  0  0  0  0  0  0  0  0  0
   41.6485   22.4196   35.9332 H   0  0  0  0  0  0  0  0  0  0  0  0
   40.5463   23.1658   34.6322 H   0  0  0  0  0  0  0  0  0  0  0  0
   41.7657   25.0301   36.4323 H   0  0  0  0  0  0  0  0  0  0  0  0
   41.3429   23.4883   33.0199 H   0  0  0  0  0  0  0  0  0  0  0  0
   40.7643   24.8554   30.9969 H   0  0  0  0  0  0  0  0  0  0  0  0
   41.0945   28.4065   33.3661 H   0  0  0  0  0  0  0  0  0  0  0  0
   43.3698   23.2206   34.6161 H   0  0  0  0  0  0  0  0  0  0  0  0
   43.8224   25.0071   34.9651 H   0  0  0  0  0  0  0  0  0  0  0  0
   43.6700   22.8425   36.9706 H   0  0  0  0  0  0  0  0  0  0  0  0
   43.6742   25.7550   36.9990 H   0  0  0  0  0  0  0  0  0  0  0  0
   44.0827   24.7373   38.4002 H   0  0  0  0  0  0  0  0  0  0  0  0
   45.8520   26.4721   37.1990 H   0  0  0  0  0  0  0  0  0  0  0  0
   46.3894   25.0587   38.0772 H   0  0  0  0  0  0  0  0  0  0  0  0
   47.2749   24.7183   35.8237 H   0  0  0  0  0  0  0  0  0  0  0  0
   45.8516   25.3231   35.0321 H   0  0  0  0  0  0  0  0  0  0  0  0
   45.5968   22.8539   35.0824 H   0  0  0  0  0  0  0  0  0  0  0  0
   46.1180   22.7305   36.7441 H   0  0  0  0  0  0  0  0  0  0  0  0
  1  2  2  0
  2  3  1  0
  4  3  2  0
  5  4  1  0
  6  1  1  0
  6  5  2  0
  7  6  1  0
  8  7  1  0
  9 10  1  0
  9  8  2  0
 10 15  2  0
 11 12  2  0
 11 10  1  0
 12 13  1  0
 13 14  2  0
 15 14  1  0
 15  7  1  0
 16  1  1  0
 17 16  1  0
 18 23  1  0
 18 17  1  0
 19 18  2  0
 20 21  2  0
 20 19  1  0
 21 22  1  0
 22 23  2  0
 24 17  1  0
 24 25  1  0
 25 26  1  0
 27 26  1  0
 28 29  1  0
 28 27  1  0
 29 25  1  0
  2 30  1  0
  3 31  1  0
  4 32  1  0
  5 33  1  0
  8 34  1  0
 11 35  1  0
 13 36  1  0
 16 37  1  0
 16 38  1  0
 17 39  1  1
 19 40  1  0
 20 41  1  0
 22 42  1  0
 24 43  1  0
 24 44  1  0
 25 45  1  0
 26 46  1  0
 26 47  1  0
 27 48  1  0
 27 49  1  0
 28 50  1  0
 28 51  1  0
 29 52  1  0
 29 53  1  0
M  ISO  8  30  14  31  14  32  14  33  14  34  14  35  14  36  14  37   8
M  ISO  8  38   8  39   8  40  14  41  14  42  14  43   8  44   8  45  13
M  ISO  8  46  13  47  13  48  13  49  13  50  13  51  13  52  13  53  13
M  END
>  <minimizedAffinity>  (1) 
-5.61484623

>  <minimizedRMSD>  (1) 
1.5807687

$$$$
