
     RDKit          3D

 47 51  0  0  1  0  0  0  0  0999 V2000
   40.2040   23.3310   36.5240 C   0  0  0  0  0  0  0  0  0  0  0  0
   40.1210   23.0040   37.8710 C   0  0  0  0  0  0  0  0  0  0  0  0
   38.9530   23.2130   38.6040 C   0  0  0  0  0  0  0  0  0  0  0  0
   37.8440   23.7590   37.9830 C   0  0  0  0  0  0  0  0  0  0  0  0
   37.9240   24.0940   36.6110 C   0  0  0  0  0  0  0  0  0  0  0  0
   39.1020   23.8700   35.9230 C   0  0  0  0  0  0  0  0  0  0  0  0
   38.8780   24.2930   34.5970 N   0  0  0  0  0  0  0  0  0  0  0  0
   38.0180   23.6680   33.7160 C   0  0  0  0  0  0  0  0  0  0  0  0
   37.9940   24.2960   32.5110 N   0  0  0  0  0  0  0  0  0  0  0  0
   38.8350   25.3250   32.6120 C   0  0  0  0  0  0  0  0  0  0  0  0
   39.2930   26.3500   31.8120 C   0  0  0  0  0  0  0  0  0  0  0  0
   40.1750   27.2920   32.1670 N   0  0  0  0  0  0  0  0  0  0  0  0
   40.6830   27.2620   33.4170 C   0  0  0  0  0  0  0  0  0  0  0  0
   40.2720   26.2760   34.2530 N   0  0  0  0  0  0  0  0  0  0  0  0
   39.3900   25.3410   33.8870 C   0  0  0  0  0  0  0  0  0  0  0  0
   41.4060   23.0840   35.7570 C   0  0  0  0  0  0  0  0  0  0  0  0
   42.6790   22.9850   36.4750 C   0  0  2  0  0  0  0  0  0  0  0  0
   43.5240   24.1990   36.2520 C   0  0  0  0  0  0  0  0  0  0  0  0
   43.4460   24.8620   35.0270 C   0  0  0  0  0  0  0  0  0  0  0  0
   44.2360   25.9740   34.8150 C   0  0  0  0  0  0  0  0  0  0  0  0
   45.0570   26.3610   35.8340 N   0  0  0  0  0  0  0  0  0  0  0  0
   45.1230   25.7190   37.0010 C   0  0  0  0  0  0  0  0  0  0  0  0
   44.3490   24.6400   37.1910 N   0  0  0  0  0  0  0  0  0  0  0  0
   43.5620   21.8310   35.9880 C   0  0  0  0  0  0  0  0  0  0  0  0
   42.7870   20.5600   36.2390 C   0  0  0  0  0  0  0  0  0  0  0  0
   42.5170   20.1010   37.6230 C   0  0  0  0  0  0  0  0  0  0  0  0
   43.6470   19.4680   36.9390 C   0  0  0  0  0  0  0  0  0  0  0  0
   40.9983   22.5693   38.3724 H   0  0  0  0  0  0  0  0  0  0  0  0
   38.9139   22.9451   39.6702 H   0  0  0  0  0  0  0  0  0  0  0  0
   36.9151   23.9299   38.5469 H   0  0  0  0  0  0  0  0  0  0  0  0
   37.0554   24.5295   36.0954 H   0  0  0  0  0  0  0  0  0  0  0  0
   37.4261   22.7733   33.9591 H   0  0  0  0  0  0  0  0  0  0  0  0
   38.8969   26.3981   30.7869 H   0  0  0  0  0  0  0  0  0  0  0  0
   41.4109   28.0170   33.7490 H   0  0  0  0  0  0  0  0  0  0  0  0
   41.5041   23.9050   35.0316 H   0  0  0  0  0  0  0  0  0  0  0  0
   41.2554   22.0810   35.3312 H   0  0  0  0  0  0  0  0  0  0  0  0
   42.3806   22.8466   37.5247 H   0  0  0  0  0  0  0  0  0  0  0  0
   42.7647   24.5038   34.2412 H   0  0  0  0  0  0  0  0  0  0  0  0
   44.2050   26.5255   33.8637 H   0  0  0  0  0  0  0  0  0  0  0  0
   45.8005   26.0682   37.7941 H   0  0  0  0  0  0  0  0  0  0  0  0
   44.5088   21.8151   36.5477 H   0  0  0  0  0  0  0  0  0  0  0  0
   43.8077   21.9420   34.9216 H   0  0  0  0  0  0  0  0  0  0  0  0
   42.1446   20.6830   35.3546 H   0  0  0  0  0  0  0  0  0  0  0  0
   42.7092   20.7828   38.4645 H   0  0  0  0  0  0  0  0  0  0  0  0
   41.6222   19.7067   38.1268 H   0  0  0  0  0  0  0  0  0  0  0  0
   43.5806   18.4190   36.6148 H   0  0  0  0  0  0  0  0  0  0  0  0
   44.7169   19.3288   37.1535 H   0  0  0  0  0  0  0  0  0  0  0  0
  1  2  2  0
  2  3  1  0
  4  3  2  0
  5  4  1  0
  6  1  1  0
  6  5  2  0
  7  6  1  0
  8  7  1  0
  9 10  1  0
  9  8  2  0
 10 15  2  0
 11 12  2  0
 11 10  1  0
 12 13  1  0
 13 14  2  0
 15 14  1  0
 15  7  1  0
 16 17  1  0
 16  1  1  0
 18 17  1  0
 18 23  1  0
 19 18  2  0
 20 19  1  0
 20 21  2  0
 21 22  1  0
 22 23  2  0
 24 25  1  0
 24 17  1  0
 25 27  1  0
 25 26  1  0
 27 26  1  0
  2 28  1  0
  3 29  1  0
  4 30  1  0
  5 31  1  0
  8 32  1  0
 11 33  1  0
 13 34  1  0
 16 35  1  0
 16 36  1  0
 17 37  1  1
 19 38  1  0
 20 39  1  0
 22 40  1  0
 24 41  1  0
 24 42  1  0
 25 43  1  0
 26 44  1  0
 26 45  1  0
 27 46  1  0
 27 47  1  0
M  ISO  8  28  14  29  14  30  14  31  14  32  14  33  14  34  14  35   8
M  ISO  8  36   8  37   8  38  14  39  14  40  14  41   8  42   8  43  13
M  ISO  4  44  13  45  13  46  13  47  13
M  END
>  <minimizedAffinity>  (1) 
-5.32624388

>  <minimizedRMSD>  (1) 
1.42029059

$$$$
