
     RDKit          3D

 41 44  0  0  1  0  0  0  0  0999 V2000
   39.9150   23.2480   36.5760 C   0  0  0  0  0  0  0  0  0  0  0  0
   40.0120   23.1090   37.9570 C   0  0  0  0  0  0  0  0  0  0  0  0
   38.9040   23.2550   38.7870 C   0  0  0  0  0  0  0  0  0  0  0  0
   37.6630   23.5460   38.2370 C   0  0  0  0  0  0  0  0  0  0  0  0
   37.5620   23.6880   36.8310 C   0  0  0  0  0  0  0  0  0  0  0  0
   38.6880   23.5350   36.0460 C   0  0  0  0  0  0  0  0  0  0  0  0
   38.2690   23.7220   34.7120 N   0  0  0  0  0  0  0  0  0  0  0  0
   37.8080   22.7120   33.8930 C   0  0  0  0  0  0  0  0  0  0  0  0
   37.4690   23.1880   32.6620 N   0  0  0  0  0  0  0  0  0  0  0  0
   37.7100   24.4890   32.6870 C   0  0  0  0  0  0  0  0  0  0  0  0
   37.6070   25.5610   31.8260 C   0  0  0  0  0  0  0  0  0  0  0  0
   37.9290   26.8310   32.1040 N   0  0  0  0  0  0  0  0  0  0  0  0
   38.4030   27.1190   33.3350 C   0  0  0  0  0  0  0  0  0  0  0  0
   38.5300   26.1070   34.2310 N   0  0  0  0  0  0  0  0  0  0  0  0
   38.2030   24.8430   33.9380 C   0  0  0  0  0  0  0  0  0  0  0  0
   41.0600   23.0720   35.7110 C   0  0  0  0  0  0  0  0  0  0  0  0
   42.3830   23.4610   36.2190 C   0  0  2  0  0  0  0  0  0  0  0  0
   42.9080   24.6590   35.5110 C   0  0  0  0  0  0  0  0  0  0  0  0
   42.0510   25.3920   34.6980 C   0  0  0  0  0  0  0  0  0  0  0  0
   42.5320   26.4980   34.0230 C   0  0  0  0  0  0  0  0  0  0  0  0
   43.8640   26.8020   34.2100 N   0  0  0  0  0  0  0  0  0  0  0  0
   44.6730   26.0870   34.9960 C   0  0  0  0  0  0  0  0  0  0  0  0
   44.1840   25.0100   35.6480 N   0  0  0  0  0  0  0  0  0  0  0  0
   43.4490   22.3760   35.9800 C   0  0  0  0  0  0  0  0  0  0  0  0
   42.9170   20.7670   36.5880 S   0  0  0  0  0  0  0  0  0  0  0  0
   40.9898   22.8777   38.4047 H   0  0  0  0  0  0  0  0  0  0  0  0
   39.0115   23.1401   39.8757 H   0  0  0  0  0  0  0  0  0  0  0  0
   36.7775   23.6638   38.8788 H   0  0  0  0  0  0  0  0  0  0  0  0
   36.5918   23.9189   36.3670 H   0  0  0  0  0  0  0  0  0  0  0  0
   37.7248   21.6576   34.1950 H   0  0  0  0  0  0  0  0  0  0  0  0
   37.2244   25.3537   30.8157 H   0  0  0  0  0  0  0  0  0  0  0  0
   38.6796   28.1487   33.6054 H   0  0  0  0  0  0  0  0  0  0  0  0
   40.8743   23.6613   34.8009 H   0  0  0  0  0  0  0  0  0  0  0  0
   41.1314   21.9830   35.5733 H   0  0  0  0  0  0  0  0  0  0  0  0
   42.2236   23.6411   37.2924 H   0  0  0  0  0  0  0  0  0  0  0  0
   40.9974   25.0938   34.5927 H   0  0  0  0  0  0  0  0  0  0  0  0
   41.8861   27.1041   33.3707 H   0  0  0  0  0  0  0  0  0  0  0  0
   45.7289   26.3729   35.1114 H   0  0  0  0  0  0  0  0  0  0  0  0
   43.6445   22.3013   34.9001 H   0  0  0  0  0  0  0  0  0  0  0  0
   44.3579   22.6643   36.5284 H   0  0  0  0  0  0  0  0  0  0  0  0
   42.9190   20.7730   37.9580 H   0  0  0  0  0  0  0  0  0  0  0  0
  1  2  2  0
  2  3  1  0
  4  3  2  0
  5  4  1  0
  6  1  1  0
  6  5  2  0
  7  6  1  0
  8  7  1  0
  9 10  1  0
  9  8  2  0
 10 15  2  0
 11 12  2  0
 11 10  1  0
 12 13  1  0
 13 14  2  0
 15 14  1  0
 15  7  1  0
 16 17  1  0
 16  1  1  0
 18 23  1  0
 18 17  1  0
 19 18  2  0
 20 21  2  0
 20 19  1  0
 21 22  1  0
 22 23  2  0
 24 17  1  0
 24 25  1  0
  2 26  1  0
  3 27  1  0
  4 28  1  0
  5 29  1  0
  8 30  1  0
 11 31  1  0
 13 32  1  0
 16 33  1  0
 16 34  1  0
 17 35  1  1
 19 36  1  0
 20 37  1  0
 22 38  1  0
 24 39  1  0
 24 40  1  0
 25 41  1  0
M  ISO  8  26  14  27  14  28  14  29  14  30  14  31  14  32  14  33   8
M  ISO  8  34   8  35   8  36  14  37  14  38  14  39   8  40   8  41  11
M  END
>  <minimizedAffinity>  (1) 
-4.99027395

>  <minimizedRMSD>  (1) 
0.0580769703

$$$$
