
     RDKit          3D

 42 45  0  0  1  0  0  0  0  0999 V2000
   39.9290   23.2460   36.5750 C   0  0  0  0  0  0  0  0  0  0  0  0
   40.0300   23.1080   37.9560 C   0  0  0  0  0  0  0  0  0  0  0  0
   38.9170   23.2480   38.7860 C   0  0  0  0  0  0  0  0  0  0  0  0
   37.6740   23.5310   38.2320 C   0  0  0  0  0  0  0  0  0  0  0  0
   37.5710   23.6720   36.8210 C   0  0  0  0  0  0  0  0  0  0  0  0
   38.7020   23.5250   36.0410 C   0  0  0  0  0  0  0  0  0  0  0  0
   38.2920   23.7130   34.7070 N   0  0  0  0  0  0  0  0  0  0  0  0
   37.8350   22.6990   33.8840 C   0  0  0  0  0  0  0  0  0  0  0  0
   37.4930   23.1690   32.6550 N   0  0  0  0  0  0  0  0  0  0  0  0
   37.7260   24.4810   32.6830 C   0  0  0  0  0  0  0  0  0  0  0  0
   37.6150   25.5580   31.8280 C   0  0  0  0  0  0  0  0  0  0  0  0
   37.9310   26.8310   32.1130 N   0  0  0  0  0  0  0  0  0  0  0  0
   38.4010   27.1160   33.3410 C   0  0  0  0  0  0  0  0  0  0  0  0
   38.5330   26.1000   34.2270 N   0  0  0  0  0  0  0  0  0  0  0  0
   38.2150   24.8320   33.9300 C   0  0  0  0  0  0  0  0  0  0  0  0
   41.0740   23.0760   35.7100 C   0  0  0  0  0  0  0  0  0  0  0  0
   42.3980   23.4760   36.2160 C   0  0  2  0  0  0  0  0  0  0  0  0
   42.9080   24.6790   35.5020 C   0  0  0  0  0  0  0  0  0  0  0  0
   42.0420   25.4110   34.7020 C   0  0  0  0  0  0  0  0  0  0  0  0
   42.5140   26.5180   34.0230 C   0  0  0  0  0  0  0  0  0  0  0  0
   43.8430   26.8260   34.1930 N   0  0  0  0  0  0  0  0  0  0  0  0
   44.6640   26.1140   34.9660 C   0  0  0  0  0  0  0  0  0  0  0  0
   44.1850   25.0350   35.6210 N   0  0  0  0  0  0  0  0  0  0  0  0
   43.4730   22.4020   35.9830 C   0  0  0  0  0  0  0  0  0  0  0  0
   43.6390   22.1290   34.5880 N   0  0  0  0  0  0  0  0  0  0  0  0
   41.0094   22.8835   38.4036 H   0  0  0  0  0  0  0  0  0  0  0  0
   39.0230   23.1348   39.8750 H   0  0  0  0  0  0  0  0  0  0  0  0
   36.7871   23.6437   38.8729 H   0  0  0  0  0  0  0  0  0  0  0  0
   36.6002   23.8960   36.3548 H   0  0  0  0  0  0  0  0  0  0  0  0
   37.7580   21.6442   34.1864 H   0  0  0  0  0  0  0  0  0  0  0  0
   37.2313   25.3543   30.8174 H   0  0  0  0  0  0  0  0  0  0  0  0
   38.6707   28.1459   33.6179 H   0  0  0  0  0  0  0  0  0  0  0  0
   40.8833   23.6618   34.7987 H   0  0  0  0  0  0  0  0  0  0  0  0
   41.1529   21.9871   35.5757 H   0  0  0  0  0  0  0  0  0  0  0  0
   42.2407   23.6548   37.2899 H   0  0  0  0  0  0  0  0  0  0  0  0
   40.9875   25.1121   34.6091 H   0  0  0  0  0  0  0  0  0  0  0  0
   41.8590   27.1227   33.3785 H   0  0  0  0  0  0  0  0  0  0  0  0
   45.7204   26.4028   35.0688 H   0  0  0  0  0  0  0  0  0  0  0  0
   44.4292   22.7563   36.3954 H   0  0  0  0  0  0  0  0  0  0  0  0
   43.1538   21.4758   36.4833 H   0  0  0  0  0  0  0  0  0  0  0  0
   44.1706   21.2547   34.4701 H   0  0  0  0  0  0  0  0  0  0  0  0
   42.7143   22.0310   34.1449 H   0  0  0  0  0  0  0  0  0  0  0  0
  1  2  2  0
  2  3  1  0
  4  3  2  0
  5  4  1  0
  6  1  1  0
  6  5  2  0
  7  6  1  0
  8  7  1  0
  9 10  1  0
  9  8  2  0
 10 15  2  0
 11 12  2  0
 11 10  1  0
 12 13  1  0
 13 14  2  0
 15 14  1  0
 15  7  1  0
 16 17  1  0
 16  1  1  0
 18 23  1  0
 18 17  1  0
 19 18  2  0
 20 21  2  0
 20 19  1  0
 21 22  1  0
 22 23  2  0
 24 17  1  0
 25 24  1  0
  2 26  1  0
  3 27  1  0
  4 28  1  0
  5 29  1  0
  8 30  1  0
 11 31  1  0
 13 32  1  0
 16 33  1  0
 16 34  1  0
 17 35  1  1
 19 36  1  0
 20 37  1  0
 22 38  1  0
 24 39  1  0
 24 40  1  0
 25 41  1  0
 25 42  1  0
M  ISO  8  26  14  27  14  28  14  29  14  30  14  31  14  32  14  33   8
M  ISO  8  34   8  35   8  36  14  37  14  38  14  39   8  40   8  41   5
M  ISO  1  42   5
M  END
>  <minimizedAffinity>  (1) 
-4.88159752

>  <minimizedRMSD>  (1) 
0.0100169098

$$$$
