
     RDKit          3D

 38 39  0  0  0  0  0  0  0  0999 V2000
   39.0760   23.2640   36.5320 C   0  0  0  0  0  0  0  0  0  0  0  0
   42.8580   23.0800   36.3780 C   0  0  0  0  0  0  0  0  0  0  0  0
   41.5590   22.7910   36.7870 C   0  0  0  0  0  0  0  0  0  0  0  0
   40.5040   23.4840   36.1930 C   0  0  0  0  0  0  0  0  0  0  0  0
   40.8020   24.4190   35.2320 N   0  0  0  0  0  0  0  0  0  0  0  0
   42.0770   24.6670   34.8660 C   0  0  0  0  0  0  0  0  0  0  0  0
   43.1000   24.0080   35.4290 N   0  0  0  0  0  0  0  0  0  0  0  0
   39.0600   22.9950   38.0330 C   0  0  0  0  0  0  0  0  0  0  0  0
   38.2040   24.4560   36.2480 C   0  0  0  0  0  0  0  0  0  0  0  0
   38.5660   22.1120   35.7320 C   0  0  0  0  0  0  0  0  0  0  0  0
   37.2710   22.2240   35.0480 C   0  0  0  0  0  0  0  0  0  0  0  0
   37.6310   22.4240   33.5600 C   0  0  0  0  0  0  0  0  0  0  0  0
   37.9650   21.0920   32.9210 C   0  0  0  0  0  0  0  0  0  0  0  0
   36.7110   20.2540   32.7590 C   0  0  0  0  0  0  0  0  0  0  0  0
   35.6870   20.8350   33.6910 C   0  0  0  0  0  0  0  0  0  0  0  0
   36.3660   21.0430   35.0580 C   0  0  0  0  0  0  0  0  0  0  0  0
   43.7013   22.5427   36.8363 H   0  0  0  0  0  0  0  0  0  0  0  0
   41.3688   22.0331   37.5612 H   0  0  0  0  0  0  0  0  0  0  0  0
   42.2804   25.4225   34.0928 H   0  0  0  0  0  0  0  0  0  0  0  0
   39.1168   23.9493   38.5772 H   0  0  0  0  0  0  0  0  0  0  0  0
   38.1293   22.4742   38.3023 H   0  0  0  0  0  0  0  0  0  0  0  0
   39.9224   22.3675   38.3023 H   0  0  0  0  0  0  0  0  0  0  0  0
   37.8758   24.9047   37.1972 H   0  0  0  0  0  0  0  0  0  0  0  0
   38.7741   25.1979   35.6695 H   0  0  0  0  0  0  0  0  0  0  0  0
   37.3243   24.1373   35.6695 H   0  0  0  0  0  0  0  0  0  0  0  0
   39.3192   21.9010   34.9586 H   0  0  0  0  0  0  0  0  0  0  0  0
   38.3934   21.3299   36.4860 H   0  0  0  0  0  0  0  0  0  0  0  0
   36.7262   23.0202   35.5764 H   0  0  0  0  0  0  0  0  0  0  0  0
   36.7750   22.8743   33.0361 H   0  0  0  0  0  0  0  0  0  0  0  0
   38.5056   23.0872   33.4875 H   0  0  0  0  0  0  0  0  0  0  0  0
   38.4143   21.2668   31.9323 H   0  0  0  0  0  0  0  0  0  0  0  0
   38.6730   20.5534   33.5680 H   0  0  0  0  0  0  0  0  0  0  0  0
   36.3517   20.3044   31.7205 H   0  0  0  0  0  0  0  0  0  0  0  0
   36.9062   19.1967   32.9914 H   0  0  0  0  0  0  0  0  0  0  0  0
   35.3279   21.7985   33.3001 H   0  0  0  0  0  0  0  0  0  0  0  0
   34.8245   20.1591   33.7870 H   0  0  0  0  0  0  0  0  0  0  0  0
   36.9529   20.1460   35.3048 H   0  0  0  0  0  0  0  0  0  0  0  0
   35.5808   21.2186   35.8081 H   0  0  0  0  0  0  0  0  0  0  0  0
  1  8  1  0
  2  3  2  0
  4  1  1  0
  4  3  1  0
  5  4  2  0
  6  5  1  0
  6  7  2  0
  7  2  1  0
  9  1  1  0
 10  1  1  0
 11 16  1  0
 11 10  1  0
 12 11  1  0
 13 12  1  0
 14 13  1  0
 14 15  1  0
 15 16  1  0
  2 17  1  0
  3 18  1  0
  6 19  1  0
  8 20  1  0
  8 21  1  0
  8 22  1  0
  9 23  1  0
  9 24  1  0
  9 25  1  0
 10 26  1  0
 10 27  1  0
 11 28  1  0
 12 29  1  0
 12 30  1  0
 13 31  1  0
 13 32  1  0
 14 33  1  0
 14 34  1  0
 15 35  1  0
 15 36  1  0
 16 37  1  0
 16 38  1  0
M  ISO  8  17  14  18  14  19  14  20   8  21   8  22   8  23   8  24   8
M  ISO  8  25   8  26   8  27   8  28  13  29  13  30  13  31  13  32  13
M  ISO  6  33  13  34  13  35  13  36  13  37  13  38  13
M  END
>  <minimizedAffinity>  (1) 
-3.71797967

>  <minimizedRMSD>  (1) 
2.98812485

$$$$
