
     RDKit          3D

 27 29  0  0  0  0  0  0  0  0999 V2000
   40.1130   23.6170   34.3110 C   0  0  0  0  0  0  0  0  0  0  0  0
   39.7980   22.5890   35.2200 C   0  0  0  0  0  0  0  0  0  0  0  0
   38.4890   22.1150   35.2040 C   0  0  0  0  0  0  0  0  0  0  0  0
   37.5820   22.6590   34.3240 N   0  0  0  0  0  0  0  0  0  0  0  0
   37.9430   23.6490   33.4700 C   0  0  0  0  0  0  0  0  0  0  0  0
   39.2120   24.1370   33.4560 N   0  0  0  0  0  0  0  0  0  0  0  0
   37.0100   24.2160   32.5580 N   0  0  0  0  0  0  0  0  0  0  0  0
   36.7290   25.4980   32.2690 C   0  0  0  0  0  0  0  0  0  0  0  0
   35.7330   25.5590   31.3020 C   0  0  0  0  0  0  0  0  0  0  0  0
   35.3920   24.2850   30.9870 N   0  0  0  0  0  0  0  0  0  0  0  0
   36.1810   23.5080   31.7620 C   0  0  0  0  0  0  0  0  0  0  0  0
   36.0350   22.0490   31.6390 C   0  0  0  0  0  0  0  0  0  0  0  0
   35.0060   21.3910   32.2890 C   0  0  0  0  0  0  0  0  0  0  0  0
   34.8540   20.0240   32.1850 C   0  0  0  0  0  0  0  0  0  0  0  0
   35.7360   19.2890   31.4230 C   0  0  0  0  0  0  0  0  0  0  0  0
   36.7740   19.9140   30.7610 C   0  0  0  0  0  0  0  0  0  0  0  0
   36.9010   21.3000   30.8860 C   0  0  0  0  0  0  0  0  0  0  0  0
   41.1394   24.0124   34.2987 H   0  0  0  0  0  0  0  0  0  0  0  0
   40.5505   22.1797   35.9101 H   0  0  0  0  0  0  0  0  0  0  0  0
   38.1822   21.3115   35.8898 H   0  0  0  0  0  0  0  0  0  0  0  0
   37.2156   26.3702   32.7299 H   0  0  0  0  0  0  0  0  0  0  0  0
   35.3002   26.4737   30.8708 H   0  0  0  0  0  0  0  0  0  0  0  0
   34.2963   21.9684   32.8997 H   0  0  0  0  0  0  0  0  0  0  0  0
   34.0289   19.5207   32.7102 H   0  0  0  0  0  0  0  0  0  0  0  0
   35.6125   18.1990   31.3417 H   0  0  0  0  0  0  0  0  0  0  0  0
   37.4831   19.3355   30.1506 H   0  0  0  0  0  0  0  0  0  0  0  0
   37.7244   21.8073   30.3619 H   0  0  0  0  0  0  0  0  0  0  0  0
  1  2  2  0
  3  2  1  0
  4  3  2  0
  5  4  1  0
  6  5  2  0
  6  1  1  0
  7  5  1  0
  8  7  1  0
  9  8  2  0
 10  9  1  0
 10 11  2  0
 11  7  1  0
 12 11  1  0
 12 13  2  0
 14 13  1  0
 15 14  2  0
 16 17  2  0
 16 15  1  0
 17 12  1  0
  1 18  1  0
  2 19  1  0
  3 20  1  0
  8 21  1  0
  9 22  1  0
 13 23  1  0
 14 24  1  0
 15 25  1  0
 16 26  1  0
 17 27  1  0
M  ISO  8  18  14  19  14  20  14  21  14  22  14  23  14  24  14  25  14
M  ISO  2  26  14  27  14
M  END
>  <minimizedAffinity>  (1) 
-4.74142551

>  <minimizedRMSD>  (1) 
4.89060688

$$$$
