
     RDKit          3D

 31 33  0  0  1  0  0  0  0  0999 V2000
   39.8130   22.7850   37.6740 C   0  0  0  0  0  0  0  0  0  0  0  0
   38.6800   23.3640   38.3170 C   0  0  0  0  0  0  0  0  0  0  0  0
   37.9650   24.3320   37.6110 C   0  0  0  0  0  0  0  0  0  0  0  0
   38.3800   24.6830   36.3400 N   0  0  0  0  0  0  0  0  0  0  0  0
   39.4660   24.1020   35.7760 C   0  0  0  0  0  0  0  0  0  0  0  0
   40.1740   23.1570   36.4450 N   0  0  0  0  0  0  0  0  0  0  0  0
   39.8910   24.4670   34.4630 N   0  0  0  0  0  0  0  0  0  0  0  0
   41.1180   24.7860   34.0020 C   0  0  0  0  0  0  0  0  0  0  0  0
   41.0550   25.0740   32.6480 C   0  0  0  0  0  0  0  0  0  0  0  0
   39.7590   24.9300   32.2640 N   0  0  0  0  0  0  0  0  0  0  0  0
   39.0840   24.5630   33.3890 C   0  0  0  0  0  0  0  0  0  0  0  0
   37.6040   24.3240   33.2880 C   0  0  1  0  0  0  0  0  0  0  0  0
   37.0210   25.6320   32.8630 C   0  0  0  0  0  0  0  0  0  0  0  0
   36.5810   25.6860   31.4270 C   0  0  0  0  0  0  0  0  0  0  0  0
   35.5750   24.5750   31.2730 C   0  0  0  0  0  0  0  0  0  0  0  0
   36.2710   23.2530   31.4060 C   0  0  0  0  0  0  0  0  0  0  0  0
   37.3600   23.1670   32.4050 C   0  0  0  0  0  0  0  0  0  0  0  0
   40.3998   22.0180   38.2006 H   0  0  0  0  0  0  0  0  0  0  0  0
   38.3810   23.0593   39.3308 H   0  0  0  0  0  0  0  0  0  0  0  0
   37.0820   24.8100   38.0602 H   0  0  0  0  0  0  0  0  0  0  0  0
   42.0335   24.8135   34.6111 H   0  0  0  0  0  0  0  0  0  0  0  0
   41.8975   25.3651   32.0035 H   0  0  0  0  0  0  0  0  0  0  0  0
   37.1096   24.0353   34.2273 H   0  0  0  0  0  0  0  0  0  0  0  0
   36.1467   25.8398   33.4974 H   0  0  0  0  0  0  0  0  0  0  0  0
   37.8213   26.3789   32.9712 H   0  0  0  0  0  0  0  0  0  0  0  0
   36.1176   26.6582   31.2031 H   0  0  0  0  0  0  0  0  0  0  0  0
   37.4284   25.5684   30.7355 H   0  0  0  0  0  0  0  0  0  0  0  0
   35.1016   24.6428   30.2824 H   0  0  0  0  0  0  0  0  0  0  0  0
   34.8044   24.6654   32.0527 H   0  0  0  0  0  0  0  0  0  0  0  0
   35.9855   22.3876   30.7899 H   0  0  0  0  0  0  0  0  0  0  0  0
   37.9751   22.2588   32.4875 H   0  0  0  0  0  0  0  0  0  0  0  0
  1  2  2  0
  3  2  1  0
  4  3  2  0
  5  4  1  0
  5  6  2  0
  6  1  1  0
  7  5  1  0
  8  7  1  0
  9  8  2  0
 10  9  1  0
 10 11  2  0
 11  7  1  0
 12 11  1  0
 13 12  1  0
 14 13  1  0
 15 16  1  0
 15 14  1  0
 16 17  2  0
 17 12  1  0
  1 18  1  0
  2 19  1  0
  3 20  1  0
  8 21  1  0
  9 22  1  0
 12 23  1  1
 13 24  1  0
 13 25  1  0
 14 26  1  0
 14 27  1  0
 15 28  1  0
 15 29  1  0
 16 30  1  0
 17 31  1  0
M  ISO  8  18  14  19  14  20  14  21  14  22  14  23  13  24  13  25  13
M  ISO  6  26  13  27  13  28  13  29  13  30  13  31  13
M  END
>  <minimizedAffinity>  (1) 
-4.56722021

>  <minimizedRMSD>  (1) 
5.06486034

$$$$
