
     RDKit          3D

 31 33  0  0  0  0  0  0  0  0999 V2000
   43.4850   20.9390   35.6170 C   0  0  0  0  0  0  0  0  0  0  0  0
   42.9870   20.3320   36.7870 C   0  0  0  0  0  0  0  0  0  0  0  0
   42.0170   21.0350   37.4940 C   0  0  0  0  0  0  0  0  0  0  0  0
   41.5790   22.2720   37.0460 N   0  0  0  0  0  0  0  0  0  0  0  0
   42.0940   22.8040   35.9130 C   0  0  0  0  0  0  0  0  0  0  0  0
   43.0420   22.1290   35.2130 N   0  0  0  0  0  0  0  0  0  0  0  0
   41.6670   24.0640   35.4300 N   0  0  0  0  0  0  0  0  0  0  0  0
   42.3790   25.1220   34.9880 C   0  0  0  0  0  0  0  0  0  0  0  0
   41.5190   26.1460   34.6130 C   0  0  0  0  0  0  0  0  0  0  0  0
   40.2500   25.7060   34.8300 N   0  0  0  0  0  0  0  0  0  0  0  0
   40.3790   24.4570   35.3190 C   0  0  0  0  0  0  0  0  0  0  0  0
   39.1880   23.7500   35.6380 N   0  0  0  0  0  0  0  0  0  0  0  0
   38.2420   23.1170   34.7430 C   0  0  0  0  0  0  0  0  0  0  0  0
   37.6010   21.9000   35.3620 C   0  0  0  0  0  0  0  0  0  0  0  0
   37.1180   22.1360   36.7000 N   0  0  0  0  0  0  0  0  0  0  0  0
   37.4010   23.4780   37.1670 C   0  0  0  0  0  0  0  0  0  0  0  0
   38.9040   23.6660   37.0570 C   0  0  0  0  0  0  0  0  0  0  0  0
   44.2542   20.4206   35.0258 H   0  0  0  0  0  0  0  0  0  0  0  0
   43.3479   19.3494   37.1251 H   0  0  0  0  0  0  0  0  0  0  0  0
   41.5945   20.6066   38.4149 H   0  0  0  0  0  0  0  0  0  0  0  0
   43.4767   25.1666   34.9330 H   0  0  0  0  0  0  0  0  0  0  0  0
   41.8096   27.1294   34.2148 H   0  0  0  0  0  0  0  0  0  0  0  0
   38.7696   22.8126   33.8270 H   0  0  0  0  0  0  0  0  0  0  0  0
   37.4461   23.8437   34.5229 H   0  0  0  0  0  0  0  0  0  0  0  0
   36.7530   21.5921   34.7326 H   0  0  0  0  0  0  0  0  0  0  0  0
   38.3720   21.1179   35.4239 H   0  0  0  0  0  0  0  0  0  0  0  0
   36.0984   21.9906   36.7129 H   0  0  0  0  0  0  0  0  0  0  0  0
   36.8790   24.2162   36.5404 H   0  0  0  0  0  0  0  0  0  0  0  0
   37.0576   23.6191   38.2025 H   0  0  0  0  0  0  0  0  0  0  0  0
   39.4309   22.8097   37.5032 H   0  0  0  0  0  0  0  0  0  0  0  0
   39.2398   24.5669   37.5914 H   0  0  0  0  0  0  0  0  0  0  0  0
  1  2  2  0
  2  3  1  0
  4  3  2  0
  5  4  1  0
  6  1  1  0
  6  5  2  0
  7  5  1  0
  8  7  1  0
  9 10  1  0
  9  8  2  0
 10 11  2  0
 11  7  1  0
 11 12  1  0
 12 17  1  0
 13 14  1  0
 13 12  1  0
 14 15  1  0
 15 16  1  0
 17 16  1  0
  1 18  1  0
  2 19  1  0
  3 20  1  0
  8 21  1  0
  9 22  1  0
 13 23  1  0
 13 24  1  0
 14 25  1  0
 14 26  1  0
 15 27  1  0
 16 28  1  0
 16 29  1  0
 17 30  1  0
 17 31  1  0
M  ISO  8  18  14  19  14  20  14  21  14  22  14  23  13  24  13  25  13
M  ISO  6  26  13  27   5  28  13  29  13  30  13  31  13
M  END
>  <minimizedAffinity>  (1) 
-4.43567038

>  <minimizedRMSD>  (1) 
5.23692894

$$$$
