
     RDKit          3D

 29 31  0  0  0  0  0  0  0  0999 V2000
   39.2990   22.6680   36.5370 C   0  0  0  0  0  0  0  0  0  0  0  0
   38.1440   23.0210   37.2640 C   0  0  0  0  0  0  0  0  0  0  0  0
   37.6900   24.3450   37.1570 C   0  0  0  0  0  0  0  0  0  0  0  0
   38.3880   25.2240   36.3570 N   0  0  0  0  0  0  0  0  0  0  0  0
   39.4950   24.8380   35.6780 C   0  0  0  0  0  0  0  0  0  0  0  0
   39.9160   23.5680   35.7890 N   0  0  0  0  0  0  0  0  0  0  0  0
   40.2150   25.7370   34.8650 N   0  0  0  0  0  0  0  0  0  0  0  0
   41.5370   25.9720   34.7780 C   0  0  0  0  0  0  0  0  0  0  0  0
   41.7910   26.9600   33.8410 C   0  0  0  0  0  0  0  0  0  0  0  0
   40.5970   27.3480   33.3360 N   0  0  0  0  0  0  0  0  0  0  0  0
   39.6770   26.5910   33.9740 C   0  0  0  0  0  0  0  0  0  0  0  0
   38.3050   26.7780   33.6300 N   0  0  0  0  0  0  0  0  0  0  0  0
   37.7880   26.8760   32.2540 C   0  0  0  0  0  0  0  0  0  0  0  0
   36.9680   28.1730   32.3090 C   0  0  0  0  0  0  0  0  0  0  0  0
   36.3900   28.1640   33.7250 C   0  0  0  0  0  0  0  0  0  0  0  0
   37.0220   26.9220   34.3260 C   0  0  0  0  0  0  0  0  0  0  0  0
   39.6886   21.6408   36.5918 H   0  0  0  0  0  0  0  0  0  0  0  0
   37.6182   22.2865   37.8916 H   0  0  0  0  0  0  0  0  0  0  0  0
   36.7932   24.6751   37.7018 H   0  0  0  0  0  0  0  0  0  0  0  0
   42.3071   25.4530   35.3676 H   0  0  0  0  0  0  0  0  0  0  0  0
   42.7784   27.3552   33.5600 H   0  0  0  0  0  0  0  0  0  0  0  0
   37.1535   26.0130   32.0036 H   0  0  0  0  0  0  0  0  0  0  0  0
   38.5749   26.8826   31.4854 H   0  0  0  0  0  0  0  0  0  0  0  0
   37.6100   29.0521   32.1510 H   0  0  0  0  0  0  0  0  0  0  0  0
   36.1946   28.2267   31.5287 H   0  0  0  0  0  0  0  0  0  0  0  0
   36.6821   29.0677   34.2800 H   0  0  0  0  0  0  0  0  0  0  0  0
   35.2904   28.1546   33.7512 H   0  0  0  0  0  0  0  0  0  0  0  0
   36.3863   26.0413   34.1522 H   0  0  0  0  0  0  0  0  0  0  0  0
   37.1487   27.0072   35.4154 H   0  0  0  0  0  0  0  0  0  0  0  0
  1  2  2  0
  3  2  1  0
  4  3  2  0
  5  6  2  0
  5  4  1  0
  6  1  1  0
  7  5  1  0
  8  7  1  0
  9  8  2  0
 10  9  1  0
 10 11  2  0
 11  7  1  0
 12 11  1  0
 12 16  1  0
 13 14  1  0
 13 12  1  0
 14 15  1  0
 15 16  1  0
  1 17  1  0
  2 18  1  0
  3 19  1  0
  8 20  1  0
  9 21  1  0
 13 22  1  0
 13 23  1  0
 14 24  1  0
 14 25  1  0
 15 26  1  0
 15 27  1  0
 16 28  1  0
 16 29  1  0
M  ISO  8  17  14  18  14  19  14  20  14  21  14  22  13  23  13  24  13
M  ISO  5  25  13  26  13  27  13  28  13  29  13
M  END
>  <minimizedAffinity>  (1) 
-4.43249083

>  <minimizedRMSD>  (1) 
6.41089725

$$$$
