
     RDKit          3D

 32 34  0  0  0  0  0  0  0  0999 V2000
   39.1640   23.1040   37.4930 C   0  0  0  0  0  0  0  0  0  0  0  0
   38.2100   24.1380   37.2600 C   0  0  0  0  0  0  0  0  0  0  0  0
   37.8660   24.4020   35.9390 C   0  0  0  0  0  0  0  0  0  0  0  0
   38.4620   23.6550   34.9550 N   0  0  0  0  0  0  0  0  0  0  0  0
   39.3560   22.6910   35.1950 C   0  0  0  0  0  0  0  0  0  0  0  0
   39.6810   22.4440   36.4740 N   0  0  0  0  0  0  0  0  0  0  0  0
   39.9640   21.9380   34.1660 N   0  0  0  0  0  0  0  0  0  0  0  0
   41.2520   21.6250   33.9420 C   0  0  0  0  0  0  0  0  0  0  0  0
   41.3520   20.8640   32.7890 C   0  0  0  0  0  0  0  0  0  0  0  0
   40.1070   20.7000   32.2890 N   0  0  0  0  0  0  0  0  0  0  0  0
   39.2780   21.3570   33.1360 C   0  0  0  0  0  0  0  0  0  0  0  0
   37.8850   21.3290   32.7820 N   0  0  0  0  0  0  0  0  0  0  0  0
   37.0400   20.1940   32.4210 C   0  0  0  0  0  0  0  0  0  0  0  0
   35.6250   20.3950   32.9390 C   0  0  0  0  0  0  0  0  0  0  0  0
   34.9940   21.6410   32.3520 C   0  0  0  0  0  0  0  0  0  0  0  0
   36.0380   22.5940   31.7970 C   0  0  0  0  0  0  0  0  0  0  0  0
   37.1650   22.6160   32.7640 C   0  0  0  0  0  0  0  0  0  0  0  0
   39.4685   22.8569   38.5207 H   0  0  0  0  0  0  0  0  0  0  0  0
   37.7644   24.7037   38.0915 H   0  0  0  0  0  0  0  0  0  0  0  0
   37.1370   25.1872   35.6902 H   0  0  0  0  0  0  0  0  0  0  0  0
   42.0975   21.9271   34.5774 H   0  0  0  0  0  0  0  0  0  0  0  0
   42.2808   20.4637   32.3565 H   0  0  0  0  0  0  0  0  0  0  0  0
   37.0137   20.0967   31.3256 H   0  0  0  0  0  0  0  0  0  0  0  0
   37.4575   19.2826   32.8738 H   0  0  0  0  0  0  0  0  0  0  0  0
   35.0156   19.5215   32.6640 H   0  0  0  0  0  0  0  0  0  0  0  0
   35.6693   20.5111   34.0320 H   0  0  0  0  0  0  0  0  0  0  0  0
   34.3132   21.3465   31.5398 H   0  0  0  0  0  0  0  0  0  0  0  0
   34.4502   22.1597   33.1552 H   0  0  0  0  0  0  0  0  0  0  0  0
   36.3888   22.2403   30.8163 H   0  0  0  0  0  0  0  0  0  0  0  0
   35.6172   23.6014   31.6622 H   0  0  0  0  0  0  0  0  0  0  0  0
   37.8660   23.4141   32.4783 H   0  0  0  0  0  0  0  0  0  0  0  0
   36.7552   22.7970   33.7686 H   0  0  0  0  0  0  0  0  0  0  0  0
  2  1  2  0
  3  2  1  0
  4  5  1  0
  4  3  2  0
  5  6  2  0
  6  1  1  0
  7  5  1  0
  8  7  1  0
  9  8  2  0
 10  9  1  0
 10 11  2  0
 11  7  1  0
 12 11  1  0
 13 12  1  0
 13 14  1  0
 15 14  1  0
 16 15  1  0
 16 17  1  0
 17 12  1  0
  1 18  1  0
  2 19  1  0
  3 20  1  0
  8 21  1  0
  9 22  1  0
 13 23  1  0
 13 24  1  0
 14 25  1  0
 14 26  1  0
 15 27  1  0
 15 28  1  0
 16 29  1  0
 16 30  1  0
 17 31  1  0
 17 32  1  0
M  ISO  8  18  14  19  14  20  14  21  14  22  14  23  13  24  13  25  13
M  ISO  7  26  13  27  13  28  13  29  13  30  13  31  13  32  13
M  END
>  <minimizedAffinity>  (1) 
-4.3169651

>  <minimizedRMSD>  (1) 
4.28043127

$$$$
