
     RDKit          3D

 25 27  0  0  0  0  0  0  0  0999 V2000
   39.4670   22.9790   36.5960 C   0  0  0  0  0  0  0  0  0  0  0  0
   38.1560   23.2800   37.0770 C   0  0  0  0  0  0  0  0  0  0  0  0
   37.5610   24.4990   36.6810 C   0  0  0  0  0  0  0  0  0  0  0  0
   38.3000   25.2950   35.8610 N   0  0  0  0  0  0  0  0  0  0  0  0
   39.5260   24.9990   35.4190 C   0  0  0  0  0  0  0  0  0  0  0  0
   40.0980   23.8400   35.7930 N   0  0  0  0  0  0  0  0  0  0  0  0
   40.2440   25.8780   34.5580 N   0  0  0  0  0  0  0  0  0  0  0  0
   41.5230   26.3060   34.6270 C   0  0  0  0  0  0  0  0  0  0  0  0
   41.8090   27.1500   33.5880 C   0  0  0  0  0  0  0  0  0  0  0  0
   40.6950   27.2510   32.8590 N   0  0  0  0  0  0  0  0  0  0  0  0
   39.7460   26.4700   33.4620 C   0  0  0  0  0  0  0  0  0  0  0  0
   38.4100   26.3830   32.8700 C   0  0  0  0  0  0  0  0  0  0  0  0
   37.5360   27.4500   32.8400 C   0  0  0  0  0  0  0  0  0  0  0  0
   36.2710   27.4260   32.2980 C   0  0  0  0  0  0  0  0  0  0  0  0
   35.8390   26.2900   31.7550 N   0  0  0  0  0  0  0  0  0  0  0  0
   36.6700   25.2440   31.7750 C   0  0  0  0  0  0  0  0  0  0  0  0
   37.9020   25.2790   32.3060 N   0  0  0  0  0  0  0  0  0  0  0  0
   39.9569   22.0381   36.8869 H   0  0  0  0  0  0  0  0  0  0  0  0
   37.6234   22.5809   37.7386 H   0  0  0  0  0  0  0  0  0  0  0  0
   36.5546   24.7889   37.0174 H   0  0  0  0  0  0  0  0  0  0  0  0
   42.2376   26.0159   35.4113 H   0  0  0  0  0  0  0  0  0  0  0  0
   42.7699   27.6482   33.3918 H   0  0  0  0  0  0  0  0  0  0  0  0
   37.8776   28.3962   33.2851 H   0  0  0  0  0  0  0  0  0  0  0  0
   35.6335   28.3223   32.3132 H   0  0  0  0  0  0  0  0  0  0  0  0
   36.3242   24.2992   31.3304 H   0  0  0  0  0  0  0  0  0  0  0  0
  1  2  2  0
  3  2  1  0
  4  3  2  0
  5  6  2  0
  5  4  1  0
  6  1  1  0
  7  8  1  0
  7  5  1  0
  9  8  2  0
 10 11  2  0
 10  9  1  0
 11  7  1  0
 12 11  1  0
 13 12  2  0
 14 13  1  0
 15 16  1  0
 15 14  2  0
 16 17  2  0
 17 12  1  0
  1 18  1  0
  2 19  1  0
  3 20  1  0
  8 21  1  0
  9 22  1  0
 13 23  1  0
 14 24  1  0
 16 25  1  0
M  ISO  8  18  14  19  14  20  14  21  14  22  14  23  14  24  14  25  14
M  END
>  <minimizedAffinity>  (1) 
-4.07407331

>  <minimizedRMSD>  (1) 
6.57911634

$$$$
