
     RDKit          3D

 28 29  0  0  0  0  0  0  0  0999 V2000
   38.1200   23.6910   37.1920 C   0  0  0  0  0  0  0  0  0  0  0  0
   41.4940   22.0060   37.1710 C   0  0  0  0  0  0  0  0  0  0  0  0
   40.1850   22.2990   37.5720 C   0  0  0  0  0  0  0  0  0  0  0  0
   39.4980   23.2940   36.8670 C   0  0  0  0  0  0  0  0  0  0  0  0
   40.1300   23.9210   35.8350 N   0  0  0  0  0  0  0  0  0  0  0  0
   41.3850   23.6120   35.4800 C   0  0  0  0  0  0  0  0  0  0  0  0
   42.0750   22.6540   36.1450 N   0  0  0  0  0  0  0  0  0  0  0  0
   38.1770   24.3710   38.5510 C   0  0  0  0  0  0  0  0  0  0  0  0
   37.4850   24.6080   36.1790 C   0  0  0  0  0  0  0  0  0  0  0  0
   37.2440   22.4490   37.3140 C   0  0  0  0  0  0  0  0  0  0  0  0
   36.9170   21.9030   36.0120 N   0  0  0  0  0  0  0  0  0  0  0  0
   35.8260   21.1250   35.8270 C   0  0  0  0  0  0  0  0  0  0  0  0
   35.7790   20.7660   34.5270 N   0  0  0  0  0  0  0  0  0  0  0  0
   36.8430   21.3190   33.8910 C   0  0  0  0  0  0  0  0  0  0  0  0
   37.5090   22.0020   34.8350 N   0  0  0  0  0  0  0  0  0  0  0  0
   42.0597   21.2292   37.7064 H   0  0  0  0  0  0  0  0  0  0  0  0
   39.7134   21.7664   38.4110 H   0  0  0  0  0  0  0  0  0  0  0  0
   41.8595   24.1413   34.6405 H   0  0  0  0  0  0  0  0  0  0  0  0
   38.1133   23.6114   39.3440 H   0  0  0  0  0  0  0  0  0  0  0  0
   39.1245   24.9217   38.6460 H   0  0  0  0  0  0  0  0  0  0  0  0
   37.3344   25.0718   38.6460 H   0  0  0  0  0  0  0  0  0  0  0  0
   36.9335   25.4044   36.7002 H   0  0  0  0  0  0  0  0  0  0  0  0
   38.2673   25.0559   35.5486 H   0  0  0  0  0  0  0  0  0  0  0  0
   36.7906   24.0332   35.5486 H   0  0  0  0  0  0  0  0  0  0  0  0
   37.7824   21.6871   37.8967 H   0  0  0  0  0  0  0  0  0  0  0  0
   36.3072   22.7338   37.8153 H   0  0  0  0  0  0  0  0  0  0  0  0
   35.1019   20.8349   36.6026 H   0  0  0  0  0  0  0  0  0  0  0  0
   37.1043   21.2268   32.8265 H   0  0  0  0  0  0  0  0  0  0  0  0
  1 10  1  0
  1  8  1  0
  2  3  2  0
  4  1  1  0
  4  3  1  0
  5  4  2  0
  6  5  1  0
  6  7  2  0
  7  2  1  0
  9  1  1  0
 11 10  1  0
 12 11  1  0
 13 12  2  0
 14 13  1  0
 14 15  2  0
 15 11  1  0
  2 16  1  0
  3 17  1  0
  6 18  1  0
  8 19  1  0
  8 20  1  0
  8 21  1  0
  9 22  1  0
  9 23  1  0
  9 24  1  0
 10 25  1  0
 10 26  1  0
 12 27  1  0
 14 28  1  0
M  ISO  8  16  14  17  14  18  14  19   8  20   8  21   8  22   8  23   8
M  ISO  5  24   8  25   8  26   8  27  14  28  14
M  END
>  <minimizedAffinity>  (1) 
-3.61951971

>  <minimizedRMSD>  (1) 
1.00962424

$$$$
