
     RDKit          3D

 19 20  0  0  0  0  0  0  0  0999 V2000
   40.2020   22.5580   37.0250 C   0  0  0  0  0  0  0  0  0  0  0  0
   39.6560   23.2110   38.1490 C   0  0  0  0  0  0  0  0  0  0  0  0
   38.2560   23.3940   38.1810 C   0  0  0  0  0  0  0  0  0  0  0  0
   37.4920   22.9350   37.1290 N   0  0  0  0  0  0  0  0  0  0  0  0
   38.0710   22.3170   36.0790 C   0  0  0  0  0  0  0  0  0  0  0  0
   39.4230   22.1250   36.0190 N   0  0  0  0  0  0  0  0  0  0  0  0
   37.3030   21.8350   34.9810 N   0  0  0  0  0  0  0  0  0  0  0  0
   37.4690   21.9710   33.6480 C   0  0  0  0  0  0  0  0  0  0  0  0
   36.4700   21.3270   32.9690 C   0  0  0  0  0  0  0  0  0  0  0  0
   35.6490   20.7660   33.8890 N   0  0  0  0  0  0  0  0  0  0  0  0
   36.1830   21.0930   35.1010 C   0  0  0  0  0  0  0  0  0  0  0  0
   35.5650   20.6600   36.3670 C   0  0  0  0  0  0  0  0  0  0  0  0
   34.6600   21.3330   36.9480 O   0  0  0  0  0  0  0  0  0  0  0  0
   41.2891   22.3995   36.9702 H   0  0  0  0  0  0  0  0  0  0  0  0
   40.2965   23.5647   38.9703 H   0  0  0  0  0  0  0  0  0  0  0  0
   37.7803   23.8972   39.0357 H   0  0  0  0  0  0  0  0  0  0  0  0
   38.2934   22.5232   33.1731 H   0  0  0  0  0  0  0  0  0  0  0  0
   36.3549   21.2746   31.8763 H   0  0  0  0  0  0  0  0  0  0  0  0
   35.9010   19.7181   36.8252 H   0  0  0  0  0  0  0  0  0  0  0  0
  1  2  2  0
  2  3  1  0
  4  3  2  0
  5  4  1  0
  6  5  2  0
  6  1  1  0
  7 11  1  0
  7  5  1  0
  8  7  1  0
  9  8  2  0
  9 10  1  0
 10 11  2  0
 11 12  1  0
 12 13  2  0
  1 14  1  0
  2 15  1  0
  3 16  1  0
  8 17  1  0
  9 18  1  0
 12 19  1  0
M  ISO  6  14  14  15  14  16  14  17  14  18  14  19   6
M  END
>  <minimizedAffinity>  (1) 
-3.79802299

>  <minimizedRMSD>  (1) 
0.536768317

$$$$
