
     RDKit          3D

 24 26  0  0  0  0  0  0  0  0999 V2000
   39.3520   22.7990   36.2870 C   0  0  0  0  0  0  0  0  0  0  0  0
   38.0640   23.1720   36.7810 C   0  0  0  0  0  0  0  0  0  0  0  0
   37.6110   24.4840   36.5280 C   0  0  0  0  0  0  0  0  0  0  0  0
   38.4290   25.3220   35.8270 N   0  0  0  0  0  0  0  0  0  0  0  0
   39.6310   24.9460   35.3760 C   0  0  0  0  0  0  0  0  0  0  0  0
   40.0690   23.6960   35.6140 N   0  0  0  0  0  0  0  0  0  0  0  0
   40.4910   25.8240   34.6410 N   0  0  0  0  0  0  0  0  0  0  0  0
   41.7990   26.0910   34.7630 C   0  0  0  0  0  0  0  0  0  0  0  0
   42.1700   27.0230   33.8020 C   0  0  0  0  0  0  0  0  0  0  0  0
   41.0810   27.3320   33.0820 N   0  0  0  0  0  0  0  0  0  0  0  0
   40.0540   26.5940   33.6010 C   0  0  0  0  0  0  0  0  0  0  0  0
   38.6770   26.6250   33.1100 C   0  0  0  0  0  0  0  0  0  0  0  0
   37.6940   27.5020   33.2920 C   0  0  0  0  0  0  0  0  0  0  0  0
   36.4650   27.3270   32.7280 C   0  0  0  0  0  0  0  0  0  0  0  0
   36.3330   26.1660   31.9550 C   0  0  0  0  0  0  0  0  0  0  0  0
   38.0350   25.3370   32.0680 S   0  0  0  0  0  0  0  0  0  0  0  0
   39.7448   21.7862   36.4602 H   0  0  0  0  0  0  0  0  0  0  0  0
   37.4440   22.4572   37.3420 H   0  0  0  0  0  0  0  0  0  0  0  0
   36.6270   24.8217   36.8854 H   0  0  0  0  0  0  0  0  0  0  0  0
   42.4730   25.6423   35.5075 H   0  0  0  0  0  0  0  0  0  0  0  0
   43.1794   27.4353   33.6569 H   0  0  0  0  0  0  0  0  0  0  0  0
   37.8770   28.3911   33.9133 H   0  0  0  0  0  0  0  0  0  0  0  0
   35.6410   28.0420   32.8690 H   0  0  0  0  0  0  0  0  0  0  0  0
   35.4454   25.8155   31.4078 H   0  0  0  0  0  0  0  0  0  0  0  0
  1  2  2  0
  3  2  1  0
  4  3  2  0
  5  6  2  0
  5  4  1  0
  6  1  1  0
  7  8  1  0
  7  5  1  0
  9  8  2  0
 10 11  2  0
 10  9  1  0
 11  7  1  0
 12 13  2  0
 12 11  1  0
 14 13  1  0
 15 16  1  0
 15 14  2  0
 16 12  1  0
  1 17  1  0
  2 18  1  0
  3 19  1  0
  8 20  1  0
  9 21  1  0
 13 22  1  0
 14 23  1  0
 15 24  1  0
M  ISO  8  17  14  18  14  19  14  20  14  21  14  22  14  23  14  24  14
M  END
>  <minimizedAffinity>  (1) 
-3.78541327

>  <minimizedRMSD>  (1) 
6.51227093

$$$$
