
     RDKit          3D

 23 25  0  0  0  0  0  0  0  0999 V2000
   39.5640   23.0650   36.7660 C   0  0  0  0  0  0  0  0  0  0  0  0
   38.2240   23.2220   37.1750 C   0  0  0  0  0  0  0  0  0  0  0  0
   37.5200   24.3050   36.6530 C   0  0  0  0  0  0  0  0  0  0  0  0
   38.1610   25.1450   35.7830 N   0  0  0  0  0  0  0  0  0  0  0  0
   39.4540   24.9570   35.4150 C   0  0  0  0  0  0  0  0  0  0  0  0
   40.1620   23.9130   35.9060 N   0  0  0  0  0  0  0  0  0  0  0  0
   40.0960   25.8540   34.5030 N   0  0  0  0  0  0  0  0  0  0  0  0
   41.2920   26.4620   34.5950 C   0  0  0  0  0  0  0  0  0  0  0  0
   41.5120   27.2430   33.4950 C   0  0  0  0  0  0  0  0  0  0  0  0
   40.4460   27.1240   32.7050 N   0  0  0  0  0  0  0  0  0  0  0  0
   39.5690   26.2680   33.3210 C   0  0  0  0  0  0  0  0  0  0  0  0
   38.2580   25.8980   32.7150 C   0  0  0  0  0  0  0  0  0  0  0  0
   37.9860   24.6430   32.2280 C   0  0  0  0  0  0  0  0  0  0  0  0
   36.3020   24.7410   31.6230 S   0  0  0  0  0  0  0  0  0  0  0  0
   36.1910   26.5670   32.1400 C   0  0  0  0  0  0  0  0  0  0  0  0
   37.2170   26.6840   32.5620 N   0  0  0  0  0  0  0  0  0  0  0  0
   40.1432   22.2186   37.1637 H   0  0  0  0  0  0  0  0  0  0  0  0
   37.7536   22.5183   37.8775 H   0  0  0  0  0  0  0  0  0  0  0  0
   36.4712   24.4813   36.9341 H   0  0  0  0  0  0  0  0  0  0  0  0
   41.9928   26.3472   35.4351 H   0  0  0  0  0  0  0  0  0  0  0  0
   42.4039   27.8561   33.2985 H   0  0  0  0  0  0  0  0  0  0  0  0
   38.6547   23.7697   32.2127 H   0  0  0  0  0  0  0  0  0  0  0  0
   35.3658   27.2888   32.0503 H   0  0  0  0  0  0  0  0  0  0  0  0
  1  2  2  0
  3  2  1  0
  4  3  2  0
  5  4  1  0
  5  6  2  0
  6  1  1  0
  7  8  1  0
  7  5  1  0
  9  8  2  0
 10 11  2  0
 10  9  1  0
 11  7  1  0
 12 11  1  0
 13 12  2  0
 14 15  1  0
 14 13  1  0
 15 16  2  0
 16 12  1  0
  1 17  1  0
  2 18  1  0
  3 19  1  0
  8 20  1  0
  9 21  1  0
 13 22  1  0
 15 23  1  0
M  ISO  7  17  14  18  14  19  14  20  14  21  14  22  14  23  14
M  END
>  <minimizedAffinity>  (1) 
-3.75771976

>  <minimizedRMSD>  (1) 
6.21327019

$$$$
