
     RDKit          3D

 24 26  0  0  0  0  0  0  0  0999 V2000
   39.9540   22.9410   38.0610 C   0  0  0  0  0  0  0  0  0  0  0  0
   38.7110   23.3180   38.6030 C   0  0  0  0  0  0  0  0  0  0  0  0
   37.6680   23.5720   37.7070 C   0  0  0  0  0  0  0  0  0  0  0  0
   37.8940   23.4450   36.3480 N   0  0  0  0  0  0  0  0  0  0  0  0
   39.1100   23.0790   35.8760 C   0  0  0  0  0  0  0  0  0  0  0  0
   40.1110   22.8360   36.7450 N   0  0  0  0  0  0  0  0  0  0  0  0
   39.3500   22.9460   34.4910 N   0  0  0  0  0  0  0  0  0  0  0  0
   40.3620   23.3960   33.7240 C   0  0  0  0  0  0  0  0  0  0  0  0
   40.1880   23.0310   32.4110 C   0  0  0  0  0  0  0  0  0  0  0  0
   39.0240   22.3280   32.3550 N   0  0  0  0  0  0  0  0  0  0  0  0
   38.5540   22.2990   33.6190 C   0  0  0  0  0  0  0  0  0  0  0  0
   37.3250   21.6140   33.8500 N   0  0  0  0  0  0  0  0  0  0  0  0
   36.8920   21.4750   35.1330 C   0  0  0  0  0  0  0  0  0  0  0  0
   35.6810   20.7770   35.0820 C   0  0  0  0  0  0  0  0  0  0  0  0
   35.4150   20.5110   33.7700 N   0  0  0  0  0  0  0  0  0  0  0  0
   36.4150   21.0220   33.0240 C   0  0  0  0  0  0  0  0  0  0  0  0
   40.8012   22.7318   38.7307 H   0  0  0  0  0  0  0  0  0  0  0  0
   38.5657   23.4093   39.6895 H   0  0  0  0  0  0  0  0  0  0  0  0
   36.6768   23.8701   38.0793 H   0  0  0  0  0  0  0  0  0  0  0  0
   41.2157   23.9792   34.0997 H   0  0  0  0  0  0  0  0  0  0  0  0
   40.8582   23.2617   31.5698 H   0  0  0  0  0  0  0  0  0  0  0  0
   37.3983   21.8419   36.0380 H   0  0  0  0  0  0  0  0  0  0  0  0
   35.0568   20.4940   35.9424 H   0  0  0  0  0  0  0  0  0  0  0  0
   36.4856   20.9700   31.9275 H   0  0  0  0  0  0  0  0  0  0  0  0
  1  2  2  0
  3  2  1  0
  4  3  2  0
  5  4  1  0
  5  6  2  0
  6  1  1  0
  7  5  1  0
  8  7  1  0
  9  8  2  0
 10  9  1  0
 10 11  2  0
 11 12  1  0
 11  7  1  0
 12 13  1  0
 14 13  2  0
 15 14  1  0
 16 15  2  0
 16 12  1  0
  1 17  1  0
  2 18  1  0
  3 19  1  0
  8 20  1  0
  9 21  1  0
 13 22  1  0
 14 23  1  0
 16 24  1  0
M  ISO  8  17  14  18  14  19  14  20  14  21  14  22  14  23  14  24  14
M  END
>  <minimizedAffinity>  (1) 
-4.24272919

>  <minimizedRMSD>  (1) 
3.04344916

$$$$
