
     RDKit          3D

 27 28  0  0  0  0  0  0  0  0999 V2000
   38.6800   23.5670   36.9480 C   0  0  0  0  0  0  0  0  0  0  0  0
   41.9600   21.6990   37.0010 C   0  0  0  0  0  0  0  0  0  0  0  0
   40.6360   22.0130   37.3150 C   0  0  0  0  0  0  0  0  0  0  0  0
   40.0640   23.1300   36.7030 C   0  0  0  0  0  0  0  0  0  0  0  0
   40.8190   23.8580   35.8350 N   0  0  0  0  0  0  0  0  0  0  0  0
   42.0910   23.5270   35.5570 C   0  0  0  0  0  0  0  0  0  0  0  0
   42.6660   22.4530   36.1340 N   0  0  0  0  0  0  0  0  0  0  0  0
   38.4420   23.3960   38.4540 C   0  0  0  0  0  0  0  0  0  0  0  0
   38.3850   24.9810   36.5310 C   0  0  0  0  0  0  0  0  0  0  0  0
   37.7120   22.6660   36.2020 C   0  0  0  0  0  0  0  0  0  0  0  0
   37.9750   22.6770   34.7650 C   0  0  0  0  0  0  0  0  0  0  0  0
   38.5190   21.6700   34.0590 N   0  0  0  0  0  0  0  0  0  0  0  0
   38.6180   22.0080   32.7890 O   0  0  0  0  0  0  0  0  0  0  0  0
   38.1460   23.2310   32.6320 C   0  0  0  0  0  0  0  0  0  0  0  0
   37.7460   23.6490   33.8630 N   0  0  0  0  0  0  0  0  0  0  0  0
   42.4343   20.8232   37.4680 H   0  0  0  0  0  0  0  0  0  0  0  0
   40.0609   21.3986   38.0234 H   0  0  0  0  0  0  0  0  0  0  0  0
   42.6700   24.1396   34.8503 H   0  0  0  0  0  0  0  0  0  0  0  0
   39.2119   23.9491   39.0120 H   0  0  0  0  0  0  0  0  0  0  0  0
   37.4477   23.7875   38.7149 H   0  0  0  0  0  0  0  0  0  0  0  0
   38.4958   22.3287   38.7149 H   0  0  0  0  0  0  0  0  0  0  0  0
   38.2543   25.6074   37.4257 H   0  0  0  0  0  0  0  0  0  0  0  0
   39.2216   25.3685   35.9311 H   0  0  0  0  0  0  0  0  0  0  0  0
   37.4632   25.0016   35.9311 H   0  0  0  0  0  0  0  0  0  0  0  0
   37.8180   21.6376   36.5776 H   0  0  0  0  0  0  0  0  0  0  0  0
   36.6910   23.0391   36.3705 H   0  0  0  0  0  0  0  0  0  0  0  0
   38.0878   23.7993   31.6920 H   0  0  0  0  0  0  0  0  0  0  0  0
  1  8  1  0
  2  3  2  0
  4  1  1  0
  4  3  1  0
  5  4  2  0
  6  5  1  0
  6  7  2  0
  7  2  1  0
  9  1  1  0
 10  1  1  0
 11 10  1  0
 12 11  2  0
 13 12  1  0
 14 13  1  0
 14 15  2  0
 15 11  1  0
  2 16  1  0
  3 17  1  0
  6 18  1  0
  8 19  1  0
  8 20  1  0
  8 21  1  0
  9 22  1  0
  9 23  1  0
  9 24  1  0
 10 25  1  0
 10 26  1  0
 14 27  1  0
M  ISO  8  16  14  17  14  18  14  19   8  20   8  21   8  22   8  23   8
M  ISO  4  24   8  25   8  26   8  27  14
M  END
>  <minimizedAffinity>  (1) 
-3.58488941

>  <minimizedRMSD>  (1) 
1.22982788

$$$$
