
     RDKit          3D

 35 39  0  0  0  0  0  0  0  0999 V2000
   39.2860   23.2290   38.4540 C   0  0  0  0  0  0  0  0  0  0  0  0
   38.0370   23.8990   38.4760 C   0  0  0  0  0  0  0  0  0  0  0  0
   37.3940   24.1060   37.2350 C   0  0  0  0  0  0  0  0  0  0  0  0
   37.9950   23.6570   36.0750 N   0  0  0  0  0  0  0  0  0  0  0  0
   39.1980   23.0190   36.1270 C   0  0  0  0  0  0  0  0  0  0  0  0
   39.8130   22.8200   37.3040 N   0  0  0  0  0  0  0  0  0  0  0  0
   39.8080   22.5350   34.9540 N   0  0  0  0  0  0  0  0  0  0  0  0
   41.0860   22.6260   34.5190 C   0  0  0  0  0  0  0  0  0  0  0  0
   41.2490   22.0040   33.3040 C   0  0  0  0  0  0  0  0  0  0  0  0
   40.0250   21.5020   32.9620 N   0  0  0  0  0  0  0  0  0  0  0  0
   39.1940   21.8430   33.9770 C   0  0  0  0  0  0  0  0  0  0  0  0
   37.8220   21.4550   33.8580 N   0  0  0  0  0  0  0  0  0  0  0  0
   37.0850   21.4590   35.0210 C   0  0  0  0  0  0  0  0  0  0  0  0
   35.7980   21.0990   34.5940 C   0  0  0  0  0  0  0  0  0  0  0  0
   35.7940   20.8870   33.2210 N   0  0  0  0  0  0  0  0  0  0  0  0
   37.0520   21.1070   32.7690 C   0  0  0  0  0  0  0  0  0  0  0  0
   37.6700   21.0520   31.4900 N   0  0  0  0  0  0  0  0  0  0  0  0
   38.4600   21.8770   30.7710 C   0  0  0  0  0  0  0  0  0  0  0  0
   38.7620   21.3050   29.5890 N   0  0  0  0  0  0  0  0  0  0  0  0
   38.1490   20.1000   29.5710 C   0  0  0  0  0  0  0  0  0  0  0  0
   38.1440   19.1320   28.5890 C   0  0  0  0  0  0  0  0  0  0  0  0
   37.4720   17.9680   28.7290 N   0  0  0  0  0  0  0  0  0  0  0  0
   36.8060   17.8320   29.9080 C   0  0  0  0  0  0  0  0  0  0  0  0
   36.7880   18.7550   30.8850 N   0  0  0  0  0  0  0  0  0  0  0  0
   37.4550   19.9330   30.7730 C   0  0  0  0  0  0  0  0  0  0  0  0
   39.8236   23.0460   39.3961 H   0  0  0  0  0  0  0  0  0  0  0  0
   37.5875   24.2431   39.4191 H   0  0  0  0  0  0  0  0  0  0  0  0
   36.4227   24.6205   37.1929 H   0  0  0  0  0  0  0  0  0  0  0  0
   41.8927   23.1336   35.0682 H   0  0  0  0  0  0  0  0  0  0  0  0
   42.1796   21.9259   32.7227 H   0  0  0  0  0  0  0  0  0  0  0  0
   37.4244   21.6895   36.0416 H   0  0  0  0  0  0  0  0  0  0  0  0
   34.9207   20.9992   35.2501 H   0  0  0  0  0  0  0  0  0  0  0  0
   38.8055   22.8679   31.1006 H   0  0  0  0  0  0  0  0  0  0  0  0
   38.7057   19.3133   27.6608 H   0  0  0  0  0  0  0  0  0  0  0  0
   36.2430   16.9015   30.0730 H   0  0  0  0  0  0  0  0  0  0  0  0
  1  2  2  0
  3  2  1  0
  4  5  1  0
  4  3  2  0
  5  6  2  0
  6  1  1  0
  7  5  1  0
  8  7  1  0
  9  8  2  0
 10  9  1  0
 10 11  2  0
 11  7  1  0
 12 11  1  0
 12 13  1  0
 14 13  2  0
 15 14  1  0
 16 15  2  0
 16 12  1  0
 17 16  1  0
 18 17  1  0
 19 18  2  0
 20 19  1  0
 20 25  2  0
 21 22  2  0
 21 20  1  0
 22 23  1  0
 23 24  2  0
 25 24  1  0
 25 17  1  0
  1 26  1  0
  2 27  1  0
  3 28  1  0
  8 29  1  0
  9 30  1  0
 13 31  1  0
 14 32  1  0
 18 33  1  0
 21 34  1  0
 23 35  1  0
M  ISO  8  26  14  27  14  28  14  29  14  30  14  31  14  32  14  33  14
M  ISO  2  34  14  35  14
M  END
>  <minimizedAffinity>  (1) 
-5.15080738

>  <minimizedRMSD>  (1) 
1.2535131

$$$$
