
     RDKit          3D

 36 38  0  0  0  0  0  0  0  0999 V2000
   39.9490   23.1520   38.2460 C   0  0  0  0  0  0  0  0  0  0  0  0
   38.7310   23.5840   38.7790 C   0  0  0  0  0  0  0  0  0  0  0  0
   37.6640   23.7970   37.8770 C   0  0  0  0  0  0  0  0  0  0  0  0
   37.8830   23.5700   36.5380 N   0  0  0  0  0  0  0  0  0  0  0  0
   39.1020   23.1450   36.0740 C   0  0  0  0  0  0  0  0  0  0  0  0
   40.1160   22.9430   36.9310 N   0  0  0  0  0  0  0  0  0  0  0  0
   39.2540   22.9360   34.6810 N   0  0  0  0  0  0  0  0  0  0  0  0
   40.2390   23.4120   33.8710 C   0  0  0  0  0  0  0  0  0  0  0  0
   39.9850   23.0500   32.5880 C   0  0  0  0  0  0  0  0  0  0  0  0
   38.8530   22.3620   32.6630 N   0  0  0  0  0  0  0  0  0  0  0  0
   38.4100   22.2780   33.8720 C   0  0  0  0  0  0  0  0  0  0  0  0
   37.2350   21.5980   34.1970 N   0  0  0  0  0  0  0  0  0  0  0  0
   36.9350   21.3900   35.5170 C   0  0  0  0  0  0  0  0  0  0  0  0
   35.6930   20.7760   35.4870 C   0  0  0  0  0  0  0  0  0  0  0  0
   35.2820   20.6240   34.1660 N   0  0  0  0  0  0  0  0  0  0  0  0
   36.2400   21.1330   33.3660 C   0  0  0  0  0  0  0  0  0  0  0  0
   36.0400   21.0840   31.9670 C   0  0  0  0  0  0  0  0  0  0  0  0
   36.9250   20.6940   30.9210 C   0  0  0  0  0  0  0  0  0  0  0  0
   34.7150   20.3140   31.6560 C   0  0  0  0  0  0  0  0  0  0  0  0
   35.5800   22.5270   31.5880 C   0  0  0  0  0  0  0  0  0  0  0  0
   40.7965   22.9781   38.9253 H   0  0  0  0  0  0  0  0  0  0  0  0
   38.6078   23.7517   39.8591 H   0  0  0  0  0  0  0  0  0  0  0  0
   36.6816   24.1363   38.2372 H   0  0  0  0  0  0  0  0  0  0  0  0
   41.1070   23.9995   34.2049 H   0  0  0  0  0  0  0  0  0  0  0  0
   40.5810   23.2753   31.6913 H   0  0  0  0  0  0  0  0  0  0  0  0
   37.5403   21.6503   36.3978 H   0  0  0  0  0  0  0  0  0  0  0  0
   35.1204   20.4579   36.3707 H   0  0  0  0  0  0  0  0  0  0  0  0
   37.8496   20.2865   31.3558 H   0  0  0  0  0  0  0  0  0  0  0  0
   36.4422   19.9253   30.2997 H   0  0  0  0  0  0  0  0  0  0  0  0
   37.1666   21.5690   30.2997 H   0  0  0  0  0  0  0  0  0  0  0  0
   34.2260   20.0298   32.5995 H   0  0  0  0  0  0  0  0  0  0  0  0
   34.0422   20.9618   31.0749 H   0  0  0  0  0  0  0  0  0  0  0  0
   34.9447   19.4087   31.0749 H   0  0  0  0  0  0  0  0  0  0  0  0
   35.3955   23.1058   32.5051 H   0  0  0  0  0  0  0  0  0  0  0  0
   36.3659   23.0188   30.9960 H   0  0  0  0  0  0  0  0  0  0  0  0
   34.6545   22.4732   30.9960 H   0  0  0  0  0  0  0  0  0  0  0  0
  1  2  2  0
  3  2  1  0
  4  3  2  0
  5  4  1  0
  5  6  2  0
  6  1  1  0
  7  5  1  0
  8  7  1  0
  9 10  1  0
  9  8  2  0
 10 11  2  0
 11 12  1  0
 11  7  1  0
 12 13  1  0
 14 13  2  0
 15 14  1  0
 16 15  2  0
 16 12  1  0
 17 16  1  0
 18 17  1  0
 19 17  1  0
 20 17  1  0
  1 21  1  0
  2 22  1  0
  3 23  1  0
  8 24  1  0
  9 25  1  0
 13 26  1  0
 14 27  1  0
 18 28  1  0
 18 29  1  0
 18 30  1  0
 19 31  1  0
 19 32  1  0
 19 33  1  0
 20 34  1  0
 20 35  1  0
 20 36  1  0
M  ISO  8  21  14  22  14  23  14  24  14  25  14  26  14  27  14  28   8
M  ISO  8  29   8  30   8  31   8  32   8  33   8  34   8  35   8  36   8
M  END
>  <minimizedAffinity>  (1) 
-5.15058756

>  <minimizedRMSD>  (1) 
0.332084328

$$$$
