
     RDKit          3D

 37 40  0  0  0  0  0  0  0  0999 V2000
   39.7120   23.1440   38.2950 C   0  0  0  0  0  0  0  0  0  0  0  0
   38.4410   23.6820   38.6280 C   0  0  0  0  0  0  0  0  0  0  0  0
   37.5220   23.8860   37.5780 C   0  0  0  0  0  0  0  0  0  0  0  0
   37.8960   23.5580   36.2930 N   0  0  0  0  0  0  0  0  0  0  0  0
   39.1270   23.0460   36.0350 C   0  0  0  0  0  0  0  0  0  0  0  0
   40.0210   22.8450   37.0290 N   0  0  0  0  0  0  0  0  0  0  0  0
   39.4940   22.6950   34.7050 N   0  0  0  0  0  0  0  0  0  0  0  0
   40.6240   22.9700   34.0190 C   0  0  0  0  0  0  0  0  0  0  0  0
   40.5610   22.4380   32.7530 C   0  0  0  0  0  0  0  0  0  0  0  0
   39.3610   21.8210   32.6590 N   0  0  0  0  0  0  0  0  0  0  0  0
   38.7410   21.9900   33.8430 C   0  0  0  0  0  0  0  0  0  0  0  0
   37.4390   21.4540   34.0170 N   0  0  0  0  0  0  0  0  0  0  0  0
   36.9600   21.3500   35.2860 C   0  0  0  0  0  0  0  0  0  0  0  0
   35.6650   20.8720   35.1380 C   0  0  0  0  0  0  0  0  0  0  0  0
   35.3890   20.6900   33.7850 N   0  0  0  0  0  0  0  0  0  0  0  0
   36.4990   21.0530   33.0870 C   0  0  0  0  0  0  0  0  0  0  0  0
   36.6240   21.0190   31.6810 N   0  0  0  0  0  0  0  0  0  0  0  0
   35.8200   20.2940   30.6930 C   0  0  0  0  0  0  0  0  0  0  0  0
   36.7370   19.1540   30.2400 C   0  0  0  0  0  0  0  0  0  0  0  0
   38.0530   19.5040   30.1710 O   0  0  0  0  0  0  0  0  0  0  0  0
   38.3650   20.8200   29.9770 C   0  0  0  0  0  0  0  0  0  0  0  0
   37.6720   21.7540   30.9450 C   0  0  0  0  0  0  0  0  0  0  0  0
   40.4527   22.9708   39.0895 H   0  0  0  0  0  0  0  0  0  0  0  0
   38.1824   23.9308   39.6678 H   0  0  0  0  0  0  0  0  0  0  0  0
   36.5234   24.3000   37.7814 H   0  0  0  0  0  0  0  0  0  0  0  0
   41.4761   23.5402   34.4176 H   0  0  0  0  0  0  0  0  0  0  0  0
   41.3329   22.5014   31.9719 H   0  0  0  0  0  0  0  0  0  0  0  0
   37.4834   21.5914   36.2229 H   0  0  0  0  0  0  0  0  0  0  0  0
   34.9651   20.6685   35.9619 H   0  0  0  0  0  0  0  0  0  0  0  0
   34.9006   19.8991   31.1499 H   0  0  0  0  0  0  0  0  0  0  0  0
   35.4930   20.9331   29.8596 H   0  0  0  0  0  0  0  0  0  0  0  0
   36.6357   18.3225   30.9530 H   0  0  0  0  0  0  0  0  0  0  0  0
   36.4247   18.8749   29.2229 H   0  0  0  0  0  0  0  0  0  0  0  0
   39.4520   20.9410   30.0943 H   0  0  0  0  0  0  0  0  0  0  0  0
   38.0218   21.0882   28.9669 H   0  0  0  0  0  0  0  0  0  0  0  0
   38.4080   22.1535   31.6582 H   0  0  0  0  0  0  0  0  0  0  0  0
   37.2122   22.5824   30.3862 H   0  0  0  0  0  0  0  0  0  0  0  0
  1  2  2  0
  3  2  1  0
  4  3  2  0
  5  4  1  0
  5  6  2  0
  6  1  1  0
  7  5  1  0
  8  7  1  0
  9  8  2  0
 10  9  1  0
 10 11  2  0
 11 12  1  0
 11  7  1  0
 12 13  1  0
 14 13  2  0
 15 14  1  0
 16 15  2  0
 16 12  1  0
 17 16  1  0
 18 17  1  0
 19 18  1  0
 20 19  1  0
 21 20  1  0
 21 22  1  0
 22 17  1  0
  1 23  1  0
  2 24  1  0
  3 25  1  0
  8 26  1  0
  9 27  1  0
 13 28  1  0
 14 29  1  0
 18 30  1  0
 18 31  1  0
 19 32  1  0
 19 33  1  0
 21 34  1  0
 21 35  1  0
 22 36  1  0
 22 37  1  0
M  ISO  8  23  14  24  14  25  14  26  14  27  14  28  14  29  14  30  13
M  ISO  7  31  13  32  13  33  13  34  13  35  13  36  13  37  13
M  END
>  <minimizedAffinity>  (1) 
-5.09938622

>  <minimizedRMSD>  (1) 
0.500391901

$$$$
