
     RDKit          3D

 31 34  0  0  0  0  0  0  0  0999 V2000
   39.5960   23.3160   38.3850 C   0  0  0  0  0  0  0  0  0  0  0  0
   38.3270   23.9080   38.6080 C   0  0  0  0  0  0  0  0  0  0  0  0
   37.4610   24.0380   37.5010 C   0  0  0  0  0  0  0  0  0  0  0  0
   37.8850   23.5880   36.2690 N   0  0  0  0  0  0  0  0  0  0  0  0
   39.1220   23.0240   36.1150 C   0  0  0  0  0  0  0  0  0  0  0  0
   39.9390   22.9020   37.1650 N   0  0  0  0  0  0  0  0  0  0  0  0
   39.5340   22.5550   34.8350 N   0  0  0  0  0  0  0  0  0  0  0  0
   40.6860   22.7790   34.1770 C   0  0  0  0  0  0  0  0  0  0  0  0
   40.6700   22.1560   32.9530 C   0  0  0  0  0  0  0  0  0  0  0  0
   39.4790   21.5410   32.8690 N   0  0  0  0  0  0  0  0  0  0  0  0
   38.8000   21.7790   33.9960 C   0  0  0  0  0  0  0  0  0  0  0  0
   37.4860   21.2800   34.1770 N   0  0  0  0  0  0  0  0  0  0  0  0
   36.9490   21.3150   35.4100 C   0  0  0  0  0  0  0  0  0  0  0  0
   35.6090   20.9120   35.2190 C   0  0  0  0  0  0  0  0  0  0  0  0
   35.4000   20.6430   33.8730 N   0  0  0  0  0  0  0  0  0  0  0  0
   36.5720   20.8710   33.2290 C   0  0  0  0  0  0  0  0  0  0  0  0
   36.4830   20.7440   31.8120 C   0  0  0  0  0  0  0  0  0  0  0  0
   36.6580   19.2920   31.7330 C   0  0  0  0  0  0  0  0  0  0  0  0
   36.6560   18.5980   30.5180 C   0  0  0  0  0  0  0  0  0  0  0  0
   36.4630   19.6930   29.7640 N   0  0  0  0  0  0  0  0  0  0  0  0
   36.4050   20.6320   30.5730 N   0  0  0  0  0  0  0  0  0  0  0  0
   40.3001   23.1979   39.2218 H   0  0  0  0  0  0  0  0  0  0  0  0
   38.0280   24.2538   39.6085 H   0  0  0  0  0  0  0  0  0  0  0  0
   36.4654   24.4904   37.6193 H   0  0  0  0  0  0  0  0  0  0  0  0
   41.5235   23.3774   34.5650 H   0  0  0  0  0  0  0  0  0  0  0  0
   41.4688   22.1600   32.1967 H   0  0  0  0  0  0  0  0  0  0  0  0
   37.4418   21.5942   36.3530 H   0  0  0  0  0  0  0  0  0  0  0  0
   34.8508   20.8250   36.0112 H   0  0  0  0  0  0  0  0  0  0  0  0
   36.7964   18.7249   32.6653 H   0  0  0  0  0  0  0  0  0  0  0  0
   36.7715   17.5329   30.2685 H   0  0  0  0  0  0  0  0  0  0  0  0
   36.3811   19.7423   28.7384 H   0  0  0  0  0  0  0  0  0  0  0  0
  1  2  2  0
  3  2  1  0
  4  3  2  0
  5  4  1  0
  5  6  2  0
  6  1  1  0
  7  5  1  0
  8  7  1  0
  9  8  2  0
 10  9  1  0
 10 11  2  0
 11 12  1  0
 11  7  1  0
 12 13  1  0
 14 13  2  0
 15 14  1  0
 16 15  2  0
 16 12  1  0
 17 16  1  0
 18 17  1  0
 19 18  2  0
 20 19  1  0
 20 21  1  0
 21 17  2  0
  1 22  1  0
  2 23  1  0
  3 24  1  0
  8 25  1  0
  9 26  1  0
 13 27  1  0
 14 28  1  0
 18 29  1  0
 19 30  1  0
 20 31  1  0
M  ISO  8  22  14  23  14  24  14  25  14  26  14  27  14  28  14  29  14
M  ISO  2  30  14  31   9
M  END
>  <minimizedAffinity>  (1) 
-4.63039541

>  <minimizedRMSD>  (1) 
1.0345428

$$$$
