
     RDKit          3D

 34 37  0  0  0  0  0  0  0  0999 V2000
   39.4470   23.0650   38.2860 C   0  0  0  0  0  0  0  0  0  0  0  0
   38.0890   23.4590   38.4030 C   0  0  0  0  0  0  0  0  0  0  0  0
   37.4220   23.8490   37.2230 C   0  0  0  0  0  0  0  0  0  0  0  0
   38.1000   23.8350   36.0210 N   0  0  0  0  0  0  0  0  0  0  0  0
   39.4000   23.4470   35.9750 C   0  0  0  0  0  0  0  0  0  0  0  0
   40.0480   23.0710   37.0980 N   0  0  0  0  0  0  0  0  0  0  0  0
   40.1020   23.4020   34.7550 N   0  0  0  0  0  0  0  0  0  0  0  0
   41.3370   23.8430   34.4190 C   0  0  0  0  0  0  0  0  0  0  0  0
   41.6220   23.5870   33.0990 C   0  0  0  0  0  0  0  0  0  0  0  0
   40.5300   22.9630   32.5830 N   0  0  0  0  0  0  0  0  0  0  0  0
   39.6400   22.8700   33.6040 C   0  0  0  0  0  0  0  0  0  0  0  0
   38.3760   22.2710   33.3210 N   0  0  0  0  0  0  0  0  0  0  0  0
   37.6450   21.8460   34.4050 C   0  0  0  0  0  0  0  0  0  0  0  0
   36.4560   21.3690   33.8370 C   0  0  0  0  0  0  0  0  0  0  0  0
   36.4970   21.5070   32.4570 N   0  0  0  0  0  0  0  0  0  0  0  0
   37.6940   22.0690   32.1390 C   0  0  0  0  0  0  0  0  0  0  0  0
   38.3340   22.4600   30.8870 C   0  0  0  0  0  0  0  0  0  0  0  0
   38.9140   21.3780   30.2460 C   0  0  0  0  0  0  0  0  0  0  0  0
   39.5770   21.5460   29.0340 C   0  0  0  0  0  0  0  0  0  0  0  0
   39.6240   22.8230   28.5130 C   0  0  0  0  0  0  0  0  0  0  0  0
   39.0490   23.9290   29.1350 C   0  0  0  0  0  0  0  0  0  0  0  0
   38.3980   23.7260   30.3410 C   0  0  0  0  0  0  0  0  0  0  0  0
   40.0057   22.7532   39.1808 H   0  0  0  0  0  0  0  0  0  0  0  0
   37.5763   23.4603   39.3762 H   0  0  0  0  0  0  0  0  0  0  0  0
   36.3682   24.1623   37.2605 H   0  0  0  0  0  0  0  0  0  0  0  0
   42.0261   24.3435   35.1152 H   0  0  0  0  0  0  0  0  0  0  0  0
   42.5506   23.8376   32.5653 H   0  0  0  0  0  0  0  0  0  0  0  0
   37.9270   21.8738   35.4679 H   0  0  0  0  0  0  0  0  0  0  0  0
   35.6127   20.9465   34.4030 H   0  0  0  0  0  0  0  0  0  0  0  0
   38.8501   20.3775   30.6986 H   0  0  0  0  0  0  0  0  0  0  0  0
   40.0438   20.6969   28.5134 H   0  0  0  0  0  0  0  0  0  0  0  0
   40.1432   22.9758   27.5554 H   0  0  0  0  0  0  0  0  0  0  0  0
   39.1098   24.9303   28.6836 H   0  0  0  0  0  0  0  0  0  0  0  0
   37.9319   24.5743   30.8637 H   0  0  0  0  0  0  0  0  0  0  0  0
  1  2  2  0
  3  2  1  0
  4  3  2  0
  5  4  1  0
  5  6  2  0
  6  1  1  0
  7  5  1  0
  8  7  1  0
  9  8  2  0
 10  9  1  0
 10 11  2  0
 11  7  1  0
 12 11  1  0
 12 13  1  0
 14 13  2  0
 15 14  1  0
 16 15  2  0
 16 12  1  0
 17 16  1  0
 18 17  2  0
 19 18  1  0
 20 19  2  0
 20 21  1  0
 21 22  2  0
 22 17  1  0
  1 23  1  0
  2 24  1  0
  3 25  1  0
  8 26  1  0
  9 27  1  0
 13 28  1  0
 14 29  1  0
 18 30  1  0
 19 31  1  0
 20 32  1  0
 21 33  1  0
 22 34  1  0
M  ISO  8  23  14  24  14  25  14  26  14  27  14  28  14  29  14  30  14
M  ISO  4  31  14  32  14  33  14  34  14
M  END
>  <minimizedAffinity>  (1) 
-4.58589888

>  <minimizedRMSD>  (1) 
1.74296331

$$$$
