
     RDKit          3D

 31 34  0  0  0  0  0  0  0  0999 V2000
   39.8860   23.0840   38.2410 C   0  0  0  0  0  0  0  0  0  0  0  0
   38.6120   23.4580   38.7340 C   0  0  0  0  0  0  0  0  0  0  0  0
   37.5930   23.6870   37.7850 C   0  0  0  0  0  0  0  0  0  0  0  0
   37.8750   23.5420   36.4400 N   0  0  0  0  0  0  0  0  0  0  0  0
   39.1050   23.1850   36.0320 C   0  0  0  0  0  0  0  0  0  0  0  0
   40.0920   22.9610   36.9330 N   0  0  0  0  0  0  0  0  0  0  0  0
   39.4050   23.0050   34.6590 N   0  0  0  0  0  0  0  0  0  0  0  0
   40.4510   23.4300   33.9210 C   0  0  0  0  0  0  0  0  0  0  0  0
   40.3420   23.0170   32.6150 C   0  0  0  0  0  0  0  0  0  0  0  0
   39.1900   22.3130   32.5440 N   0  0  0  0  0  0  0  0  0  0  0  0
   38.6470   22.3180   33.7690 C   0  0  0  0  0  0  0  0  0  0  0  0
   37.3990   21.6760   33.9710 N   0  0  0  0  0  0  0  0  0  0  0  0
   37.0450   21.3750   35.2650 C   0  0  0  0  0  0  0  0  0  0  0  0
   35.7650   20.8300   35.1510 C   0  0  0  0  0  0  0  0  0  0  0  0
   35.3780   20.8050   33.8140 N   0  0  0  0  0  0  0  0  0  0  0  0
   36.3960   21.3300   33.0890 C   0  0  0  0  0  0  0  0  0  0  0  0
   36.4580   21.5200   31.6230 C   0  0  0  0  0  0  0  0  0  0  0  0
   35.4640   20.7990   30.7800 C   0  0  0  0  0  0  0  0  0  0  0  0
   36.7960   20.2010   30.8600 C   0  0  0  0  0  0  0  0  0  0  0  0
   40.7101   22.8941   38.9444 H   0  0  0  0  0  0  0  0  0  0  0  0
   38.4245   23.5656   39.8126 H   0  0  0  0  0  0  0  0  0  0  0  0
   36.5841   23.9781   38.1127 H   0  0  0  0  0  0  0  0  0  0  0  0
   41.2846   24.0304   34.3143 H   0  0  0  0  0  0  0  0  0  0  0  0
   41.0475   23.2180   31.7953 H   0  0  0  0  0  0  0  0  0  0  0  0
   37.6353   21.5285   36.1804 H   0  0  0  0  0  0  0  0  0  0  0  0
   35.1530   20.4733   35.9926 H   0  0  0  0  0  0  0  0  0  0  0  0
   36.8100   22.5612   31.6687 H   0  0  0  0  0  0  0  0  0  0  0  0
   35.1317   21.2503   29.8335 H   0  0  0  0  0  0  0  0  0  0  0  0
   34.4513   20.4139   30.9703 H   0  0  0  0  0  0  0  0  0  0  0  0
   36.9491   19.2643   31.4160 H   0  0  0  0  0  0  0  0  0  0  0  0
   37.5606   19.8896   30.1331 H   0  0  0  0  0  0  0  0  0  0  0  0
  1  2  2  0
  3  2  1  0
  4  3  2  0
  5  4  1  0
  5  6  2  0
  6  1  1  0
  7  5  1  0
  8  7  1  0
  9  8  2  0
 10  9  1  0
 10 11  2  0
 11 12  1  0
 11  7  1  0
 12 13  1  0
 14 13  2  0
 15 14  1  0
 16 15  2  0
 16 12  1  0
 17 16  1  0
 18 19  1  0
 18 17  1  0
 19 17  1  0
  1 20  1  0
  2 21  1  0
  3 22  1  0
  8 23  1  0
  9 24  1  0
 13 25  1  0
 14 26  1  0
 17 27  1  0
 18 28  1  0
 18 29  1  0
 19 30  1  0
 19 31  1  0
M  ISO  8  20  14  21  14  22  14  23  14  24  14  25  14  26  14  27  13
M  ISO  4  28  13  29  13  30  13  31  13
M  END
>  <minimizedAffinity>  (1) 
-4.56423473

>  <minimizedRMSD>  (1) 
0.571326494

$$$$
