
     RDKit          3D

 26 28  0  0  0  0  0  0  0  0999 V2000
   39.9660   23.0490   37.9620 C   0  0  0  0  0  0  0  0  0  0  0  0
   38.7120   23.2630   38.5890 C   0  0  0  0  0  0  0  0  0  0  0  0
   37.6080   23.4970   37.7480 C   0  0  0  0  0  0  0  0  0  0  0  0
   37.7720   23.5120   36.3750 N   0  0  0  0  0  0  0  0  0  0  0  0
   38.9950   23.2990   35.8400 C   0  0  0  0  0  0  0  0  0  0  0  0
   40.0580   23.0740   36.6380 N   0  0  0  0  0  0  0  0  0  0  0  0
   39.1730   23.2860   34.4350 N   0  0  0  0  0  0  0  0  0  0  0  0
   40.1130   23.8800   33.6720 C   0  0  0  0  0  0  0  0  0  0  0  0
   39.9060   23.6010   32.3370 C   0  0  0  0  0  0  0  0  0  0  0  0
   38.8080   22.8130   32.2820 N   0  0  0  0  0  0  0  0  0  0  0  0
   38.3860   22.6380   33.5460 C   0  0  0  0  0  0  0  0  0  0  0  0
   37.2170   21.8650   33.7740 N   0  0  0  0  0  0  0  0  0  0  0  0
   37.0320   21.3880   35.0550 C   0  0  0  0  0  0  0  0  0  0  0  0
   35.7900   20.7310   34.9830 C   0  0  0  0  0  0  0  0  0  0  0  0
   35.2860   20.8290   33.6940 N   0  0  0  0  0  0  0  0  0  0  0  0
   36.1680   21.5260   32.9570 C   0  0  0  0  0  0  0  0  0  0  0  0
   36.0500   21.8670   31.5670 C   0  0  0  0  0  0  0  0  0  0  0  0
   35.6090   22.8220   30.9080 O   0  0  0  0  0  0  0  0  0  0  0  0
   40.8618   22.8624   38.5725 H   0  0  0  0  0  0  0  0  0  0  0  0
   38.6069   23.2468   39.6839 H   0  0  0  0  0  0  0  0  0  0  0  0
   36.6126   23.6683   38.1838 H   0  0  0  0  0  0  0  0  0  0  0  0
   40.9327   24.5019   34.0610 H   0  0  0  0  0  0  0  0  0  0  0  0
   40.5121   23.9494   31.4877 H   0  0  0  0  0  0  0  0  0  0  0  0
   37.6966   21.4956   35.9249 H   0  0  0  0  0  0  0  0  0  0  0  0
   35.2944   20.2181   35.8204 H   0  0  0  0  0  0  0  0  0  0  0  0
   36.4556   21.0770   30.9179 H   0  0  0  0  0  0  0  0  0  0  0  0
  1  2  2  0
  3  2  1  0
  4  3  2  0
  5  4  1  0
  5  6  2  0
  6  1  1  0
  7  5  1  0
  8  7  1  0
  9  8  2  0
 10  9  1  0
 10 11  2  0
 11 12  1  0
 11  7  1  0
 12 13  1  0
 14 13  2  0
 15 14  1  0
 16 15  2  0
 16 12  1  0
 17 16  1  0
 18 17  2  0
  1 19  1  0
  2 20  1  0
  3 21  1  0
  8 22  1  0
  9 23  1  0
 13 24  1  0
 14 25  1  0
 17 26  1  0
M  ISO  8  19  14  20  14  21  14  22  14  23  14  24  14  25  14  26   6
M  END
>  <minimizedAffinity>  (1) 
-4.3458271

>  <minimizedRMSD>  (1) 
0.372974724

$$$$
