
     RDKit          3D

 25 27  0  0  0  0  0  0  0  0999 V2000
   39.9210   22.9760   38.0830 C   0  0  0  0  0  0  0  0  0  0  0  0
   38.6590   23.3630   38.6020 C   0  0  0  0  0  0  0  0  0  0  0  0
   37.6310   23.6230   37.6720 C   0  0  0  0  0  0  0  0  0  0  0  0
   37.8830   23.4930   36.3180 N   0  0  0  0  0  0  0  0  0  0  0  0
   39.1200   23.1150   35.8880 C   0  0  0  0  0  0  0  0  0  0  0  0
   40.1010   22.8680   36.7700 N   0  0  0  0  0  0  0  0  0  0  0  0
   39.3790   22.9600   34.5130 N   0  0  0  0  0  0  0  0  0  0  0  0
   40.4140   23.3920   33.7580 C   0  0  0  0  0  0  0  0  0  0  0  0
   40.2610   23.0150   32.4440 C   0  0  0  0  0  0  0  0  0  0  0  0
   39.0930   22.3220   32.3700 N   0  0  0  0  0  0  0  0  0  0  0  0
   38.5930   22.3120   33.6300 C   0  0  0  0  0  0  0  0  0  0  0  0
   37.3360   21.6680   33.8350 N   0  0  0  0  0  0  0  0  0  0  0  0
   37.0210   21.3390   35.1350 C   0  0  0  0  0  0  0  0  0  0  0  0
   35.7320   20.7930   35.0340 C   0  0  0  0  0  0  0  0  0  0  0  0
   35.3120   20.8000   33.7100 N   0  0  0  0  0  0  0  0  0  0  0  0
   36.3130   21.3430   32.9730 C   0  0  0  0  0  0  0  0  0  0  0  0
   36.5080   21.6760   31.2310 S   0  0  0  0  0  0  0  0  0  0  0  0
   40.7541   22.7644   38.7694 H   0  0  0  0  0  0  0  0  0  0  0  0
   38.4891   23.4565   39.6848 H   0  0  0  0  0  0  0  0  0  0  0  0
   36.6336   23.9277   38.0217 H   0  0  0  0  0  0  0  0  0  0  0  0
   41.2669   23.9695   34.1440 H   0  0  0  0  0  0  0  0  0  0  0  0
   40.9496   23.2319   31.6141 H   0  0  0  0  0  0  0  0  0  0  0  0
   37.6344   21.4726   36.0383 H   0  0  0  0  0  0  0  0  0  0  0  0
   35.1402   20.4145   35.8805 H   0  0  0  0  0  0  0  0  0  0  0  0
   37.1952   22.8495   31.0645 H   0  0  0  0  0  0  0  0  0  0  0  0
  1  2  2  0
  3  2  1  0
  4  3  2  0
  5  4  1  0
  5  6  2  0
  6  1  1  0
  7  5  1  0
  8  7  1  0
  9  8  2  0
 10  9  1  0
 10 11  2  0
 11 12  1  0
 11  7  1  0
 12 13  1  0
 14 13  2  0
 15 14  1  0
 16 15  2  0
 16 12  1  0
 17 16  1  0
  1 18  1  0
  2 19  1  0
  3 20  1  0
  8 21  1  0
  9 22  1  0
 13 23  1  0
 14 24  1  0
 17 25  1  0
M  ISO  8  18  14  19  14  20  14  21  14  22  14  23  14  24  14  25  11
M  END
>  <minimizedAffinity>  (1) 
-4.32222033

>  <minimizedRMSD>  (1) 
0.0844606608

$$$$
