
     RDKit          3D

 29 30  0  0  0  0  0  0  0  0999 V2000
   38.5370   23.6000   36.9420 C   0  0  0  0  0  0  0  0  0  0  0  0
   41.7890   21.6810   37.1640 C   0  0  0  0  0  0  0  0  0  0  0  0
   40.4530   22.0310   37.4210 C   0  0  0  0  0  0  0  0  0  0  0  0
   39.9190   23.1360   36.7580 C   0  0  0  0  0  0  0  0  0  0  0  0
   40.7210   23.8270   35.8890 N   0  0  0  0  0  0  0  0  0  0  0  0
   41.9950   23.4630   35.6680 C   0  0  0  0  0  0  0  0  0  0  0  0
   42.5380   22.4040   36.2910 N   0  0  0  0  0  0  0  0  0  0  0  0
   38.2260   23.4190   38.4200 C   0  0  0  0  0  0  0  0  0  0  0  0
   38.2910   25.0150   36.5110 C   0  0  0  0  0  0  0  0  0  0  0  0
   37.5980   22.7010   36.1500 C   0  0  0  0  0  0  0  0  0  0  0  0
   38.1860   22.1890   34.8890 C   0  0  0  0  0  0  0  0  0  0  0  0
   37.7000   22.9550   33.6530 C   0  0  0  0  0  0  0  0  0  0  0  0
   37.3410   21.5150   33.8490 C   0  0  0  0  0  0  0  0  0  0  0  0
   42.2328   20.8135   37.6743 H   0  0  0  0  0  0  0  0  0  0  0  0
   39.8433   21.4484   38.1273 H   0  0  0  0  0  0  0  0  0  0  0  0
   42.6064   24.0443   34.9621 H   0  0  0  0  0  0  0  0  0  0  0  0
   39.0219   23.8822   39.0216 H   0  0  0  0  0  0  0  0  0  0  0  0
   37.2638   23.8982   38.6536 H   0  0  0  0  0  0  0  0  0  0  0  0
   38.1674   22.3457   38.6536 H   0  0  0  0  0  0  0  0  0  0  0  0
   38.1798   25.6547   37.3989 H   0  0  0  0  0  0  0  0  0  0  0  0
   39.1412   25.3680   35.9089 H   0  0  0  0  0  0  0  0  0  0  0  0
   37.3715   25.0603   35.9089 H   0  0  0  0  0  0  0  0  0  0  0  0
   37.3260   21.8416   36.7804 H   0  0  0  0  0  0  0  0  0  0  0  0
   36.7256   23.3113   35.8735 H   0  0  0  0  0  0  0  0  0  0  0  0
   39.1312   21.8962   35.3694 H   0  0  0  0  0  0  0  0  0  0  0  0
   38.4133   23.2439   32.8670 H   0  0  0  0  0  0  0  0  0  0  0  0
   37.1375   23.8844   33.4805 H   0  0  0  0  0  0  0  0  0  0  0  0
   36.3027   21.2387   34.0847 H   0  0  0  0  0  0  0  0  0  0  0  0
   37.4513   20.6056   33.2401 H   0  0  0  0  0  0  0  0  0  0  0  0
  1  8  1  0
  2  3  2  0
  4  1  1  0
  4  3  1  0
  5  4  2  0
  6  5  1  0
  6  7  2  0
  7  2  1  0
  9  1  1  0
 10  1  1  0
 11 10  1  0
 12 13  1  0
 12 11  1  0
 13 11  1  0
  2 14  1  0
  3 15  1  0
  6 16  1  0
  8 17  1  0
  8 18  1  0
  8 19  1  0
  9 20  1  0
  9 21  1  0
  9 22  1  0
 10 23  1  0
 10 24  1  0
 11 25  1  0
 12 26  1  0
 12 27  1  0
 13 28  1  0
 13 29  1  0
M  ISO  8  14  14  15  14  16  14  17   8  18   8  19   8  20   8  21   8
M  ISO  8  22   8  23   8  24   8  25  13  26  13  27  13  28  13  29  13
M  END
>  <minimizedAffinity>  (1) 
-3.42217374

>  <minimizedRMSD>  (1) 
1.2412169

$$$$
