
     RDKit          3D

 40 44  0  0  0  0  0  0  0  0999 V2000
   40.0320   23.0370   38.0110 C   0  0  0  0  0  0  0  0  0  0  0  0
   38.7880   23.4260   38.5990 C   0  0  0  0  0  0  0  0  0  0  0  0
   37.6980   23.6720   37.7200 C   0  0  0  0  0  0  0  0  0  0  0  0
   37.8540   23.5360   36.3630 N   0  0  0  0  0  0  0  0  0  0  0  0
   39.0700   23.1590   35.8720 C   0  0  0  0  0  0  0  0  0  0  0  0
   40.1360   22.9160   36.6790 N   0  0  0  0  0  0  0  0  0  0  0  0
   39.2620   22.9830   34.4880 N   0  0  0  0  0  0  0  0  0  0  0  0
   40.2490   23.4050   33.6620 C   0  0  0  0  0  0  0  0  0  0  0  0
   40.0280   22.9990   32.3580 C   0  0  0  0  0  0  0  0  0  0  0  0
   38.8550   22.2930   32.3740 N   0  0  0  0  0  0  0  0  0  0  0  0
   38.4250   22.3030   33.6580 C   0  0  0  0  0  0  0  0  0  0  0  0
   37.2070   21.6500   33.9550 N   0  0  0  0  0  0  0  0  0  0  0  0
   37.0080   21.2930   35.2560 C   0  0  0  0  0  0  0  0  0  0  0  0
   35.7260   20.7300   35.2590 C   0  0  0  0  0  0  0  0  0  0  0  0
   35.1900   20.7600   33.9620 N   0  0  0  0  0  0  0  0  0  0  0  0
   36.1290   21.3330   33.1680 C   0  0  0  0  0  0  0  0  0  0  0  0
   36.1790   21.5980   31.6960 C   0  0  0  0  0  0  0  0  0  0  0  0
   36.7330   20.4140   31.0730 N   0  0  0  0  0  0  0  0  0  0  0  0
   37.6620   20.1950   30.1290 C   0  0  0  0  0  0  0  0  0  0  0  0
   37.8360   18.8880   29.8710 N   0  0  0  0  0  0  0  0  0  0  0  0
   37.0120   18.1740   30.6500 C   0  0  0  0  0  0  0  0  0  0  0  0
   36.7800   16.8400   30.7950 C   0  0  0  0  0  0  0  0  0  0  0  0
   35.8500   16.4160   31.6980 N   0  0  0  0  0  0  0  0  0  0  0  0
   35.2010   17.3760   32.4110 C   0  0  0  0  0  0  0  0  0  0  0  0
   35.4240   18.6820   32.2710 N   0  0  0  0  0  0  0  0  0  0  0  0
   36.3470   19.1360   31.3760 C   0  0  0  0  0  0  0  0  0  0  0  0
   37.5140   15.9260   30.0000 N   0  0  0  0  0  0  0  0  0  0  0  0
   40.9040   22.8369   38.6510 H   0  0  0  0  0  0  0  0  0  0  0  0
   38.6787   23.5308   39.6885 H   0  0  0  0  0  0  0  0  0  0  0  0
   36.7229   23.9734   38.1302 H   0  0  0  0  0  0  0  0  0  0  0  0
   41.1176   23.9965   33.9872 H   0  0  0  0  0  0  0  0  0  0  0  0
   40.6656   23.2023   31.4850 H   0  0  0  0  0  0  0  0  0  0  0  0
   37.6951   21.4183   36.1058 H   0  0  0  0  0  0  0  0  0  0  0  0
   35.2153   20.3249   36.1451 H   0  0  0  0  0  0  0  0  0  0  0  0
   35.1662   21.7888   31.3116 H   0  0  0  0  0  0  0  0  0  0  0  0
   36.7947   22.4827   31.4763 H   0  0  0  0  0  0  0  0  0  0  0  0
   38.2192   20.9970   29.6227 H   0  0  0  0  0  0  0  0  0  0  0  0
   34.4482   17.0551   33.1460 H   0  0  0  0  0  0  0  0  0  0  0  0
   37.3515   14.9135   30.0965 H   0  0  0  0  0  0  0  0  0  0  0  0
   38.2103   16.2739   29.3254 H   0  0  0  0  0  0  0  0  0  0  0  0
  1  2  2  0
  3  2  1  0
  4  3  2  0
  5  4  1  0
  5  6  2  0
  6  1  1  0
  7  5  1  0
  8  7  1  0
  9 10  1  0
  9  8  2  0
 10 11  2  0
 11 12  1  0
 11  7  1  0
 12 13  1  0
 13 14  2  0
 15 14  1  0
 16 12  1  0
 16 15  2  0
 17 16  1  0
 18 26  1  0
 18 17  1  0
 19 18  1  0
 20 19  2  0
 20 21  1  0
 21 22  2  0
 21 26  1  0
 22 23  1  0
 23 24  2  0
 25 24  1  0
 26 25  2  0
 27 22  1  0
  1 28  1  0
  2 29  1  0
  3 30  1  0
  8 31  1  0
  9 32  1  0
 13 33  1  0
 14 34  1  0
 17 35  1  0
 17 36  1  0
 19 37  1  0
 24 38  1  0
 27 39  1  0
 27 40  1  0
M  ISO  8  28  14  29  14  30  14  31  14  32  14  33  14  34  14  35   8
M  ISO  3  36   8  37  14  38  14
M  END
>  <minimizedAffinity>  (1) 
-5.39547586

>  <minimizedRMSD>  (1) 
0.684051931

$$$$
