
     RDKit          3D

 38 42  0  0  0  0  0  0  0  0999 V2000
   40.0300   23.0820   38.0180 C   0  0  0  0  0  0  0  0  0  0  0  0
   38.7810   23.4380   38.6220 C   0  0  0  0  0  0  0  0  0  0  0  0
   37.6780   23.6700   37.7560 C   0  0  0  0  0  0  0  0  0  0  0  0
   37.8370   23.5500   36.3920 N   0  0  0  0  0  0  0  0  0  0  0  0
   39.0580   23.2060   35.8900 C   0  0  0  0  0  0  0  0  0  0  0  0
   40.1250   22.9800   36.6870 N   0  0  0  0  0  0  0  0  0  0  0  0
   39.2300   23.0530   34.5030 N   0  0  0  0  0  0  0  0  0  0  0  0
   40.1950   23.5220   33.6700 C   0  0  0  0  0  0  0  0  0  0  0  0
   39.9560   23.1260   32.3640 C   0  0  0  0  0  0  0  0  0  0  0  0
   38.8200   22.3960   32.3920 N   0  0  0  0  0  0  0  0  0  0  0  0
   38.4030   22.3640   33.6750 C   0  0  0  0  0  0  0  0  0  0  0  0
   37.2050   21.6780   33.9760 N   0  0  0  0  0  0  0  0  0  0  0  0
   37.0140   21.3080   35.2740 C   0  0  0  0  0  0  0  0  0  0  0  0
   35.7450   20.7230   35.2790 C   0  0  0  0  0  0  0  0  0  0  0  0
   35.2080   20.7490   33.9940 N   0  0  0  0  0  0  0  0  0  0  0  0
   36.1320   21.3440   33.1950 C   0  0  0  0  0  0  0  0  0  0  0  0
   36.1680   21.6040   31.7210 C   0  0  0  0  0  0  0  0  0  0  0  0
   36.7340   20.4250   31.1010 N   0  0  0  0  0  0  0  0  0  0  0  0
   37.6750   20.2230   30.1660 C   0  0  0  0  0  0  0  0  0  0  0  0
   37.8760   18.9260   29.8860 N   0  0  0  0  0  0  0  0  0  0  0  0
   37.0490   18.2060   30.6520 C   0  0  0  0  0  0  0  0  0  0  0  0
   36.8370   16.8550   30.7760 C   0  0  0  0  0  0  0  0  0  0  0  0
   35.9040   16.4230   31.6630 N   0  0  0  0  0  0  0  0  0  0  0  0
   35.2210   17.3540   32.3920 C   0  0  0  0  0  0  0  0  0  0  0  0
   35.4340   18.6680   32.2640 N   0  0  0  0  0  0  0  0  0  0  0  0
   36.3630   19.1370   31.3830 C   0  0  0  0  0  0  0  0  0  0  0  0
   40.9113   22.8924   38.6483 H   0  0  0  0  0  0  0  0  0  0  0  0
   38.6793   23.5283   39.7136 H   0  0  0  0  0  0  0  0  0  0  0  0
   36.6984   23.9451   38.1739 H   0  0  0  0  0  0  0  0  0  0  0  0
   41.0513   24.1341   33.9895 H   0  0  0  0  0  0  0  0  0  0  0  0
   40.5689   23.3595   31.4809 H   0  0  0  0  0  0  0  0  0  0  0  0
   37.7012   21.4397   36.1228 H   0  0  0  0  0  0  0  0  0  0  0  0
   35.2450   20.3046   36.1650 H   0  0  0  0  0  0  0  0  0  0  0  0
   35.1501   21.7790   31.3426 H   0  0  0  0  0  0  0  0  0  0  0  0
   36.7690   22.4965   31.4927 H   0  0  0  0  0  0  0  0  0  0  0  0
   38.2269   21.0395   29.6775 H   0  0  0  0  0  0  0  0  0  0  0  0
   37.4105   16.1382   30.1699 H   0  0  0  0  0  0  0  0  0  0  0  0
   34.4654   17.0094   33.1133 H   0  0  0  0  0  0  0  0  0  0  0  0
  1  2  2  0
  3  2  1  0
  4  3  2  0
  5  4  1  0
  5  6  2  0
  6  1  1  0
  7  5  1  0
  8  7  1  0
  9 10  1  0
  9  8  2  0
 10 11  2  0
 11 12  1  0
 11  7  1  0
 12 13  1  0
 13 14  2  0
 15 14  1  0
 16 12  1  0
 16 15  2  0
 17 16  1  0
 18 26  1  0
 18 17  1  0
 19 18  1  0
 20 19  2  0
 20 21  1  0
 21 22  2  0
 21 26  1  0
 22 23  1  0
 23 24  2  0
 25 24  1  0
 26 25  2  0
  1 27  1  0
  2 28  1  0
  3 29  1  0
  8 30  1  0
  9 31  1  0
 13 32  1  0
 14 33  1  0
 17 34  1  0
 17 35  1  0
 19 36  1  0
 22 37  1  0
 24 38  1  0
M  ISO  8  27  14  28  14  29  14  30  14  31  14  32  14  33  14  34   8
M  ISO  4  35   8  36  14  37  14  38  14
M  END
>  <minimizedAffinity>  (1) 
-5.30530071

>  <minimizedRMSD>  (1) 
0.437060267

$$$$
