
     RDKit          3D

 37 40  0  0  0  0  0  0  0  0999 V2000
   39.7250   23.0460   38.1300 C   0  0  0  0  0  0  0  0  0  0  0  0
   38.4460   23.5730   38.4930 C   0  0  0  0  0  0  0  0  0  0  0  0
   37.5220   23.8150   37.4410 C   0  0  0  0  0  0  0  0  0  0  0  0
   37.8670   23.5430   36.1370 N   0  0  0  0  0  0  0  0  0  0  0  0
   39.1050   23.0400   35.8640 C   0  0  0  0  0  0  0  0  0  0  0  0
   40.0140   22.7970   36.8420 N   0  0  0  0  0  0  0  0  0  0  0  0
   39.4760   22.7260   34.5490 N   0  0  0  0  0  0  0  0  0  0  0  0
   40.6020   23.0030   33.8480 C   0  0  0  0  0  0  0  0  0  0  0  0
   40.5410   22.4930   32.5600 C   0  0  0  0  0  0  0  0  0  0  0  0
   39.3350   21.8800   32.4630 N   0  0  0  0  0  0  0  0  0  0  0  0
   38.7200   22.0310   33.6540 C   0  0  0  0  0  0  0  0  0  0  0  0
   37.4190   21.5030   33.8140 N   0  0  0  0  0  0  0  0  0  0  0  0
   36.9900   21.2890   35.0900 C   0  0  0  0  0  0  0  0  0  0  0  0
   35.6760   20.8430   34.9380 C   0  0  0  0  0  0  0  0  0  0  0  0
   35.3490   20.7960   33.5770 N   0  0  0  0  0  0  0  0  0  0  0  0
   36.4440   21.2070   32.8960 C   0  0  0  0  0  0  0  0  0  0  0  0
   36.7260   21.3110   31.4350 C   0  0  0  0  0  0  0  0  0  0  0  0
   36.8290   19.9520   30.8940 C   0  0  0  0  0  0  0  0  0  0  0  0
   36.6020   19.4660   29.6430 C   0  0  0  0  0  0  0  0  0  0  0  0
   36.7460   18.1510   29.2610 C   0  0  0  0  0  0  0  0  0  0  0  0
   37.1490   17.2050   30.1780 C   0  0  0  0  0  0  0  0  0  0  0  0
   37.4010   17.6100   31.4720 C   0  0  0  0  0  0  0  0  0  0  0  0
   37.2360   18.9320   31.7730 C   0  0  0  0  0  0  0  0  0  0  0  0
   40.4751   22.8437   38.9087 H   0  0  0  0  0  0  0  0  0  0  0  0
   38.1886   23.7821   39.5418 H   0  0  0  0  0  0  0  0  0  0  0  0
   36.5260   24.2218   37.6702 H   0  0  0  0  0  0  0  0  0  0  0  0
   41.4586   23.5632   34.2509 H   0  0  0  0  0  0  0  0  0  0  0  0
   41.3114   22.5697   31.7785 H   0  0  0  0  0  0  0  0  0  0  0  0
   37.5507   21.4344   36.0251 H   0  0  0  0  0  0  0  0  0  0  0  0
   35.0002   20.5700   35.7619 H   0  0  0  0  0  0  0  0  0  0  0  0
   35.9084   21.8507   30.9348 H   0  0  0  0  0  0  0  0  0  0  0  0
   37.6634   21.8611   31.2656 H   0  0  0  0  0  0  0  0  0  0  0  0
   36.2769   20.1825   28.8742 H   0  0  0  0  0  0  0  0  0  0  0  0
   36.5389   17.8552   28.2219 H   0  0  0  0  0  0  0  0  0  0  0  0
   37.2670   16.1514   29.8849 H   0  0  0  0  0  0  0  0  0  0  0  0
   37.7250   16.8904   32.2383 H   0  0  0  0  0  0  0  0  0  0  0  0
   37.4430   19.2302   32.8114 H   0  0  0  0  0  0  0  0  0  0  0  0
  1  2  2  0
  3  2  1  0
  4  3  2  0
  5  4  1  0
  5  6  2  0
  6  1  1  0
  7  5  1  0
  8  7  1  0
  9  8  2  0
 10  9  1  0
 10 11  2  0
 11 12  1  0
 11  7  1  0
 12 13  1  0
 14 13  2  0
 15 14  1  0
 16 15  2  0
 16 12  1  0
 17 16  1  0
 18 17  1  0
 18 23  1  0
 19 18  2  0
 20 19  1  0
 20 21  2  0
 21 22  1  0
 22 23  2  0
  1 24  1  0
  2 25  1  0
  3 26  1  0
  8 27  1  0
  9 28  1  0
 13 29  1  0
 14 30  1  0
 17 31  1  0
 17 32  1  0
 19 33  1  0
 20 34  1  0
 21 35  1  0
 22 36  1  0
 23 37  1  0
M  ISO  8  24  14  25  14  26  14  27  14  28  14  29  14  30  14  31   8
M  ISO  6  32   8  33  14  34  14  35  14  36  14  37  14
M  END
>  <minimizedAffinity>  (1) 
-5.1887455

>  <minimizedRMSD>  (1) 
0.703288674

$$$$
