
     RDKit          3D

 43 46  0  0  0  0  0  0  0  0999 V2000
   39.7190   23.1270   38.2720 C   0  0  0  0  0  0  0  0  0  0  0  0
   38.4570   23.7230   38.5860 C   0  0  0  0  0  0  0  0  0  0  0  0
   37.5430   23.9350   37.5150 C   0  0  0  0  0  0  0  0  0  0  0  0
   37.8890   23.5700   36.2330 N   0  0  0  0  0  0  0  0  0  0  0  0
   39.1070   23.0050   36.0000 C   0  0  0  0  0  0  0  0  0  0  0  0
   40.0000   22.7910   37.0020 N   0  0  0  0  0  0  0  0  0  0  0  0
   39.4790   22.5940   34.7150 N   0  0  0  0  0  0  0  0  0  0  0  0
   40.6200   22.7790   34.0100 C   0  0  0  0  0  0  0  0  0  0  0  0
   40.5460   22.1890   32.7540 C   0  0  0  0  0  0  0  0  0  0  0  0
   39.3050   21.6110   32.6740 N   0  0  0  0  0  0  0  0  0  0  0  0
   38.6980   21.8750   33.8620 C   0  0  0  0  0  0  0  0  0  0  0  0
   37.3810   21.3980   34.0370 N   0  0  0  0  0  0  0  0  0  0  0  0
   36.9400   21.2840   35.3170 C   0  0  0  0  0  0  0  0  0  0  0  0
   35.6170   20.8480   35.2020 C   0  0  0  0  0  0  0  0  0  0  0  0
   35.2930   20.7090   33.8730 N   0  0  0  0  0  0  0  0  0  0  0  0
   36.3960   21.0500   33.1420 C   0  0  0  0  0  0  0  0  0  0  0  0
   36.7130   21.0650   31.6830 C   0  0  0  0  0  0  0  0  0  0  0  0
   37.1010   19.7110   31.1940 C   0  0  0  0  0  0  0  0  0  0  0  0
   37.2910   19.8870   29.6780 C   0  0  0  0  0  0  0  0  0  0  0  0
   37.9280   18.6410   29.0990 C   0  0  0  0  0  0  0  0  0  0  0  0
   36.8990   17.5360   29.3060 C   0  0  0  0  0  0  0  0  0  0  0  0
   36.6860   17.3620   30.7700 C   0  0  0  0  0  0  0  0  0  0  0  0
   36.1660   18.5950   31.4820 C   0  0  0  0  0  0  0  0  0  0  0  0
   40.4565   22.9445   39.0674 H   0  0  0  0  0  0  0  0  0  0  0  0
   38.2019   24.0072   39.6176 H   0  0  0  0  0  0  0  0  0  0  0  0
   36.5610   24.3901   37.7115 H   0  0  0  0  0  0  0  0  0  0  0  0
   41.4965   23.3280   34.3848 H   0  0  0  0  0  0  0  0  0  0  0  0
   41.3267   22.1862   31.9790 H   0  0  0  0  0  0  0  0  0  0  0  0
   37.5008   21.4896   36.2407 H   0  0  0  0  0  0  0  0  0  0  0  0
   34.9394   20.6470   36.0449 H   0  0  0  0  0  0  0  0  0  0  0  0
   35.8261   21.4048   31.1280 H   0  0  0  0  0  0  0  0  0  0  0  0
   37.5612   21.7464   31.5212 H   0  0  0  0  0  0  0  0  0  0  0  0
   38.0020   19.3930   31.7389 H   0  0  0  0  0  0  0  0  0  0  0  0
   36.3128   20.0528   29.2030 H   0  0  0  0  0  0  0  0  0  0  0  0
   37.9429   20.7527   29.4891 H   0  0  0  0  0  0  0  0  0  0  0  0
   38.8621   18.4030   29.6289 H   0  0  0  0  0  0  0  0  0  0  0  0
   38.1897   18.7669   28.0380 H   0  0  0  0  0  0  0  0  0  0  0  0
   35.9510   17.8156   28.8231 H   0  0  0  0  0  0  0  0  0  0  0  0
   37.2582   16.5962   28.8614 H   0  0  0  0  0  0  0  0  0  0  0  0
   35.9599   16.5489   30.9170 H   0  0  0  0  0  0  0  0  0  0  0  0
   37.6723   17.1429   31.2051 H   0  0  0  0  0  0  0  0  0  0  0  0
   36.1239   18.4118   32.5658 H   0  0  0  0  0  0  0  0  0  0  0  0
   35.1524   18.8422   31.1334 H   0  0  0  0  0  0  0  0  0  0  0  0
  1  2  2  0
  3  2  1  0
  4  3  2  0
  5  4  1  0
  5  6  2  0
  6  1  1  0
  7  5  1  0
  8  7  1  0
  9  8  2  0
 10  9  1  0
 10 11  2  0
 11 12  1  0
 11  7  1  0
 12 13  1  0
 14 13  2  0
 15 14  1  0
 16 15  2  0
 16 12  1  0
 17 16  1  0
 18 23  1  0
 18 17  1  0
 19 18  1  0
 20 21  1  0
 20 19  1  0
 21 22  1  0
 22 23  1  0
  1 24  1  0
  2 25  1  0
  3 26  1  0
  8 27  1  0
  9 28  1  0
 13 29  1  0
 14 30  1  0
 17 31  1  0
 17 32  1  0
 18 33  1  0
 19 34  1  0
 19 35  1  0
 20 36  1  0
 20 37  1  0
 21 38  1  0
 21 39  1  0
 22 40  1  0
 22 41  1  0
 23 42  1  0
 23 43  1  0
M  ISO  8  24  14  25  14  26  14  27  14  28  14  29  14  30  14  31   8
M  ISO  8  32   8  33  13  34  13  35  13  36  13  37  13  38  13  39  13
M  ISO  4  40  13  41  13  42  13  43  13
M  END
>  <minimizedAffinity>  (1) 
-4.88579226

>  <minimizedRMSD>  (1) 
2.33146095

$$$$
