
     RDKit          3D

 28 30  0  0  0  0  0  0  0  0999 V2000
   39.9040   22.9650   38.0020 C   0  0  0  0  0  0  0  0  0  0  0  0
   38.6330   23.3490   38.5320 C   0  0  0  0  0  0  0  0  0  0  0  0
   37.5970   23.6320   37.6020 C   0  0  0  0  0  0  0  0  0  0  0  0
   37.8260   23.5340   36.2500 N   0  0  0  0  0  0  0  0  0  0  0  0
   39.0680   23.1600   35.8190 C   0  0  0  0  0  0  0  0  0  0  0  0
   40.0850   22.8810   36.6740 N   0  0  0  0  0  0  0  0  0  0  0  0
   39.3330   23.0210   34.4420 N   0  0  0  0  0  0  0  0  0  0  0  0
   40.3680   23.4590   33.6850 C   0  0  0  0  0  0  0  0  0  0  0  0
   40.2170   23.0890   32.3570 C   0  0  0  0  0  0  0  0  0  0  0  0
   39.0450   22.3950   32.2870 N   0  0  0  0  0  0  0  0  0  0  0  0
   38.5400   22.3720   33.5490 C   0  0  0  0  0  0  0  0  0  0  0  0
   37.3010   21.7240   33.7570 N   0  0  0  0  0  0  0  0  0  0  0  0
   37.0250   21.3320   35.0330 C   0  0  0  0  0  0  0  0  0  0  0  0
   35.7400   20.7830   34.9470 C   0  0  0  0  0  0  0  0  0  0  0  0
   35.2720   20.8490   33.6290 N   0  0  0  0  0  0  0  0  0  0  0  0
   36.2680   21.4410   32.8980 C   0  0  0  0  0  0  0  0  0  0  0  0
   36.4090   21.7500   31.4410 C   0  0  0  0  0  0  0  0  0  0  0  0
   36.1500   23.0540   31.1160 O   0  0  0  0  0  0  0  0  0  0  0  0
   40.7364   22.7376   38.6842 H   0  0  0  0  0  0  0  0  0  0  0  0
   38.4640   23.4224   39.6165 H   0  0  0  0  0  0  0  0  0  0  0  0
   36.6035   23.9320   37.9667 H   0  0  0  0  0  0  0  0  0  0  0  0
   41.2202   24.0352   34.0746 H   0  0  0  0  0  0  0  0  0  0  0  0
   40.9042   23.3106   31.5271 H   0  0  0  0  0  0  0  0  0  0  0  0
   37.6637   21.4254   35.9237 H   0  0  0  0  0  0  0  0  0  0  0  0
   35.1786   20.3605   35.7934 H   0  0  0  0  0  0  0  0  0  0  0  0
   37.4403   21.5172   31.1373 H   0  0  0  0  0  0  0  0  0  0  0  0
   35.6611   21.1387   30.9146 H   0  0  0  0  0  0  0  0  0  0  0  0
   36.0444   23.5858   31.9443 H   0  0  0  0  0  0  0  0  0  0  0  0
  1  2  2  0
  3  2  1  0
  4  3  2  0
  5  4  1  0
  5  6  2  0
  6  1  1  0
  7  5  1  0
  8  7  1  0
  9  8  2  0
 10  9  1  0
 10 11  2  0
 11 12  1  0
 11  7  1  0
 12 13  1  0
 14 13  2  0
 15 14  1  0
 16 15  2  0
 16 12  1  0
 17 16  1  0
 18 17  1  0
  1 19  1  0
  2 20  1  0
  3 21  1  0
  8 22  1  0
  9 23  1  0
 13 24  1  0
 14 25  1  0
 17 26  1  0
 17 27  1  0
 18 28  1  0
M  ISO  8  19  14  20  14  21  14  22  14  23  14  24  14  25  14  26   8
M  ISO  2  27   8  28   3
M  END
>  <minimizedAffinity>  (1) 
-4.3139081

>  <minimizedRMSD>  (1) 
0.0623400323

$$$$
