
     RDKit          3D

 50 53  0  0  1  0  0  0  0  0999 V2000
   39.3820   23.4500   38.6370 C   0  0  0  0  0  0  0  0  0  0  0  0
   38.1220   24.1440   38.6980 C   0  0  0  0  0  0  0  0  0  0  0  0
   37.3970   24.3040   37.4660 C   0  0  0  0  0  0  0  0  0  0  0  0
   37.8910   23.8130   36.2820 N   0  0  0  0  0  0  0  0  0  0  0  0
   39.1030   23.1620   36.3180 C   0  0  0  0  0  0  0  0  0  0  0  0
   39.8420   22.9790   37.4640 N   0  0  0  0  0  0  0  0  0  0  0  0
   39.6380   22.6180   35.1420 N   0  0  0  0  0  0  0  0  0  0  0  0
   40.8790   22.6930   34.5980 C   0  0  0  0  0  0  0  0  0  0  0  0
   40.9600   21.9830   33.4070 C   0  0  0  0  0  0  0  0  0  0  0  0
   39.7260   21.4510   33.2100 N   0  0  0  0  0  0  0  0  0  0  0  0
   38.9520   21.8420   34.2560 C   0  0  0  0  0  0  0  0  0  0  0  0
   37.6080   21.4380   34.2790 N   0  0  0  0  0  0  0  0  0  0  0  0
   37.0090   21.4260   35.4890 C   0  0  0  0  0  0  0  0  0  0  0  0
   35.6950   21.0240   35.2130 C   0  0  0  0  0  0  0  0  0  0  0  0
   35.5400   20.8010   33.8360 N   0  0  0  0  0  0  0  0  0  0  0  0
   36.7560   21.0640   33.2530 C   0  0  0  0  0  0  0  0  0  0  0  0
   37.2200   21.0060   31.8450 C   0  0  1  0  0  0  0  0  0  0  0  0
   36.9650   19.6820   31.2980 N   0  0  0  0  0  0  0  0  0  0  0  0
   35.9140   18.8170   31.5880 C   0  0  0  0  0  0  0  0  0  0  0  0
   34.7300   19.1780   31.5790 N   0  0  0  0  0  0  0  0  0  0  0  0
   36.2150   17.4350   31.9290 N   0  0  0  0  0  0  0  0  0  0  0  0
   34.3550   20.0630   31.3620 H   0  0  0  0  0  0  0  0  0  0  0  0
   36.5920   22.1370   31.0580 C   0  0  0  0  0  0  0  0  0  0  0  0
   35.4460   22.7680   31.8550 C   0  0  0  0  0  0  0  0  0  0  0  0
   35.2620   24.1940   31.3580 C   0  0  0  0  0  0  0  0  0  0  0  0
   36.3940   25.1010   31.7820 C   0  0  0  0  0  0  0  0  0  0  0  0
   37.6690   24.2950   31.7420 C   0  0  0  0  0  0  0  0  0  0  0  0
   37.6140   23.1980   30.7080 C   0  0  0  0  0  0  0  0  0  0  0  0
   39.9714   23.3042   39.5542 H   0  0  0  0  0  0  0  0  0  0  0  0
   37.7298   24.5359   39.6480 H   0  0  0  0  0  0  0  0  0  0  0  0
   36.4302   24.8286   37.4721 H   0  0  0  0  0  0  0  0  0  0  0  0
   41.7172   23.2476   35.0451 H   0  0  0  0  0  0  0  0  0  0  0  0
   41.8412   21.8741   32.7577 H   0  0  0  0  0  0  0  0  0  0  0  0
   37.4502   21.6743   36.4656 H   0  0  0  0  0  0  0  0  0  0  0  0
   34.9017   20.9013   35.9651 H   0  0  0  0  0  0  0  0  0  0  0  0
   38.3079   21.1553   31.7807 H   0  0  0  0  0  0  0  0  0  0  0  0
   37.6498   19.3415   30.6081 H   0  0  0  0  0  0  0  0  0  0  0  0
   35.4505   16.7800   32.1467 H   0  0  0  0  0  0  0  0  0  0  0  0
   37.1926   17.1116   31.9527 H   0  0  0  0  0  0  0  0  0  0  0  0
   36.1969   21.7141   30.1226 H   0  0  0  0  0  0  0  0  0  0  0  0
   34.5206   22.1946   31.6971 H   0  0  0  0  0  0  0  0  0  0  0  0
   35.6784   22.7634   32.9302 H   0  0  0  0  0  0  0  0  0  0  0  0
   34.3199   24.5910   31.7639 H   0  0  0  0  0  0  0  0  0  0  0  0
   35.2468   24.1672   30.2584 H   0  0  0  0  0  0  0  0  0  0  0  0
   36.4687   25.9543   31.0918 H   0  0  0  0  0  0  0  0  0  0  0  0
   36.2164   25.4899   32.7955 H   0  0  0  0  0  0  0  0  0  0  0  0
   38.5062   24.9670   31.5021 H   0  0  0  0  0  0  0  0  0  0  0  0
   37.8043   23.8254   32.7275 H   0  0  0  0  0  0  0  0  0  0  0  0
   38.6053   22.7264   30.6380 H   0  0  0  0  0  0  0  0  0  0  0  0
   37.3188   23.6500   29.7496 H   0  0  0  0  0  0  0  0  0  0  0  0
  1  2  2  0
  3  2  1  0
  4  5  1  0
  4  3  2  0
  5  6  2  0
  6  1  1  0
  7  5  1  0
  8  7  1  0
  9  8  2  0
 10  9  1  0
 10 11  2  0
 11 12  1  0
 11  7  1  0
 12 13  1  0
 14 13  2  0
 15 14  1  0
 16 15  2  0
 16 12  1  0
 17 16  1  0
 18 19  1  0
 18 17  1  0
 19 21  1  0
 20 19  2  0
 22 20  1  0
 23 17  1  0
 23 24  1  0
 25 26  1  0
 25 24  1  0
 27 26  1  0
 28 23  1  0
 28 27  1  0
  1 29  1  0
  2 30  1  0
  3 31  1  0
  8 32  1  0
  9 33  1  0
 13 34  1  0
 14 35  1  0
 17 36  1  1
 18 37  1  0
 21 38  1  0
 21 39  1  0
 23 40  1  0
 24 41  1  0
 24 42  1  0
 25 43  1  0
 25 44  1  0
 26 45  1  0
 26 46  1  0
 27 47  1  0
 27 48  1  0
 28 49  1  0
 28 50  1  0
M  ISO  8  29  14  30  14  31  14  32  14  33  14  34  14  35  14  36   8
M  ISO  8  40  13  41  13  42  13  43  13  44  13  45  13  46  13  47  13
M  ISO  3  48  13  49  13  50  13
M  END
>  <minimizedAffinity>  (1) 
-5.89252567

>  <minimizedRMSD>  (1) 
2.2689991

$$$$
