
     RDKit          3D

 41 44  0  0  1  0  0  0  0  0999 V2000
   39.9680   22.8540   38.0710 C   0  0  0  0  0  0  0  0  0  0  0  0
   38.6970   23.2860   38.5840 C   0  0  0  0  0  0  0  0  0  0  0  0
   37.6900   23.6670   37.6370 C   0  0  0  0  0  0  0  0  0  0  0  0
   37.9330   23.6220   36.2870 N   0  0  0  0  0  0  0  0  0  0  0  0
   39.1790   23.1950   35.8820 C   0  0  0  0  0  0  0  0  0  0  0  0
   40.1800   22.8180   36.7430 N   0  0  0  0  0  0  0  0  0  0  0  0
   39.4690   23.1010   34.5090 N   0  0  0  0  0  0  0  0  0  0  0  0
   40.5260   23.5310   33.7770 C   0  0  0  0  0  0  0  0  0  0  0  0
   40.3910   23.2080   32.4330 C   0  0  0  0  0  0  0  0  0  0  0  0
   39.2020   22.5500   32.3310 N   0  0  0  0  0  0  0  0  0  0  0  0
   38.6760   22.5030   33.5820 C   0  0  0  0  0  0  0  0  0  0  0  0
   37.4160   21.8950   33.7370 N   0  0  0  0  0  0  0  0  0  0  0  0
   37.1280   21.4390   34.9780 C   0  0  0  0  0  0  0  0  0  0  0  0
   35.8230   20.9370   34.8450 C   0  0  0  0  0  0  0  0  0  0  0  0
   35.3800   21.1070   33.5220 N   0  0  0  0  0  0  0  0  0  0  0  0
   36.3730   21.7050   32.8230 C   0  0  0  0  0  0  0  0  0  0  0  0
   36.5020   22.0740   31.4250 C   0  0  2  0  0  0  0  0  0  0  0  0
   37.2420   21.1000   30.6490 N   0  0  0  0  0  0  0  0  0  0  0  0
   37.0960   19.6920   30.7470 C   0  0  0  0  0  0  0  0  0  0  0  0
   35.9620   19.1330   30.6850 N   0  0  0  0  0  0  0  0  0  0  0  0
   38.2400   18.8490   30.9160 N   0  0  0  0  0  0  0  0  0  0  0  0
   35.0800   19.6120   30.5460 H   0  0  0  0  0  0  0  0  0  0  0  0
   36.5250   23.4530   30.9780 C   0  0  0  0  0  0  0  0  0  0  0  0
   35.1700   24.2420   30.9340 C   0  0  0  0  0  0  0  0  0  0  0  0
   36.2400   24.5830   31.8640 C   0  0  0  0  0  0  0  0  0  0  0  0
   40.7674   22.5528   38.7640 H   0  0  0  0  0  0  0  0  0  0  0  0
   38.5033   23.3231   39.6662 H   0  0  0  0  0  0  0  0  0  0  0  0
   36.7063   24.0009   37.9986 H   0  0  0  0  0  0  0  0  0  0  0  0
   41.3873   24.0710   34.1972 H   0  0  0  0  0  0  0  0  0  0  0  0
   41.0966   23.4358   31.6204 H   0  0  0  0  0  0  0  0  0  0  0  0
   37.7635   21.4571   35.8757 H   0  0  0  0  0  0  0  0  0  0  0  0
   35.2357   20.4794   35.6548 H   0  0  0  0  0  0  0  0  0  0  0  0
   35.4421   22.0145   31.1368 H   0  0  0  0  0  0  0  0  0  0  0  0
   37.9298   21.4585   29.9713 H   0  0  0  0  0  0  0  0  0  0  0  0
   38.1217   17.8282   30.9859 H   0  0  0  0  0  0  0  0  0  0  0  0
   39.1817   19.2630   30.9677 H   0  0  0  0  0  0  0  0  0  0  0  0
   37.3518   23.2039   30.2966 H   0  0  0  0  0  0  0  0  0  0  0  0
   34.9386   24.9031   30.0858 H   0  0  0  0  0  0  0  0  0  0  0  0
   34.1031   23.9868   31.0149 H   0  0  0  0  0  0  0  0  0  0  0  0
   36.0951   24.3981   32.9386 H   0  0  0  0  0  0  0  0  0  0  0  0
   36.7755   25.5201   32.0764 H   0  0  0  0  0  0  0  0  0  0  0  0
  1  2  2  0
  3  2  1  0
  4  3  2  0
  5  4  1  0
  5  6  2  0
  6  1  1  0
  7  5  1  0
  8  7  1  0
  9  8  2  0
 10  9  1  0
 10 11  2  0
 11 12  1  0
 11  7  1  0
 12 13  1  0
 14 13  2  0
 15 14  1  0
 16 15  2  0
 16 12  1  0
 17 16  1  0
 18 19  1  0
 18 17  1  0
 19 21  1  0
 20 19  2  0
 22 20  1  0
 23 17  1  0
 23 25  1  0
 24 23  1  0
 24 25  1  0
  1 26  1  0
  2 27  1  0
  3 28  1  0
  8 29  1  0
  9 30  1  0
 13 31  1  0
 14 32  1  0
 17 33  1  6
 18 34  1  0
 21 35  1  0
 21 36  1  0
 23 37  1  0
 24 38  1  0
 24 39  1  0
 25 40  1  0
 25 41  1  0
M  ISO  8  26  14  27  14  28  14  29  14  30  14  31  14  32  14  33   8
M  ISO  5  37  13  38  13  39  13  40  13  41  13
M  END
>  <minimizedAffinity>  (1) 
-5.26535463

>  <minimizedRMSD>  (1) 
0.292642504

$$$$
