
     RDKit          3D

 47 50  0  0  1  0  0  0  0  0999 V2000
   39.4450   23.4380   38.5900 C   0  0  0  0  0  0  0  0  0  0  0  0
   38.1890   24.1350   38.7010 C   0  0  0  0  0  0  0  0  0  0  0  0
   37.4060   24.2780   37.5040 C   0  0  0  0  0  0  0  0  0  0  0  0
   37.8380   23.7720   36.3020 N   0  0  0  0  0  0  0  0  0  0  0  0
   39.0510   23.1210   36.2920 C   0  0  0  0  0  0  0  0  0  0  0  0
   39.8450   22.9520   37.4030 N   0  0  0  0  0  0  0  0  0  0  0  0
   39.5320   22.5600   35.0990 N   0  0  0  0  0  0  0  0  0  0  0  0
   40.7450   22.6310   34.4970 C   0  0  0  0  0  0  0  0  0  0  0  0
   40.7720   21.9030   33.3130 C   0  0  0  0  0  0  0  0  0  0  0  0
   39.5300   21.3640   33.1800 N   0  0  0  0  0  0  0  0  0  0  0  0
   38.8040   21.7710   34.2590 C   0  0  0  0  0  0  0  0  0  0  0  0
   37.4650   21.3650   34.3530 N   0  0  0  0  0  0  0  0  0  0  0  0
   36.9220   21.3740   35.5850 C   0  0  0  0  0  0  0  0  0  0  0  0
   35.5970   20.9660   35.3830 C   0  0  0  0  0  0  0  0  0  0  0  0
   35.3800   20.7180   34.0170 N   0  0  0  0  0  0  0  0  0  0  0  0
   36.5670   20.9720   33.3730 C   0  0  0  0  0  0  0  0  0  0  0  0
   36.9650   20.8910   31.9470 C   0  0  1  0  0  0  0  0  0  0  0  0
   36.7920   19.5270   31.4650 N   0  0  0  0  0  0  0  0  0  0  0  0
   35.8140   18.6090   31.8230 C   0  0  0  0  0  0  0  0  0  0  0  0
   34.6080   18.8850   31.8310 N   0  0  0  0  0  0  0  0  0  0  0  0
   36.2260   17.2680   32.2110 N   0  0  0  0  0  0  0  0  0  0  0  0
   34.1640   19.7280   31.5800 H   0  0  0  0  0  0  0  0  0  0  0  0
   36.2200   21.9240   31.1330 C   0  0  0  0  0  0  0  0  0  0  0  0
   37.1920   22.6680   30.2190 C   0  0  0  0  0  0  0  0  0  0  0  0
   37.8550   23.7170   31.0600 C   0  0  0  0  0  0  0  0  0  0  0  0
   36.8380   24.0580   32.1240 C   0  0  0  0  0  0  0  0  0  0  0  0
   35.7170   23.0570   31.9810 C   0  0  0  0  0  0  0  0  0  0  0  0
   40.0781   23.3034   39.4794 H   0  0  0  0  0  0  0  0  0  0  0  0
   37.8432   24.5413   39.6629 H   0  0  0  0  0  0  0  0  0  0  0  0
   36.4408   24.8035   37.5514 H   0  0  0  0  0  0  0  0  0  0  0  0
   41.6012   23.1946   34.8960 H   0  0  0  0  0  0  0  0  0  0  0  0
   41.6226   21.7867   32.6252 H   0  0  0  0  0  0  0  0  0  0  0  0
   37.4084   21.6411   36.5348 H   0  0  0  0  0  0  0  0  0  0  0  0
   34.8408   20.8564   36.1742 H   0  0  0  0  0  0  0  0  0  0  0  0
   38.0325   21.1314   31.8349 H   0  0  0  0  0  0  0  0  0  0  0  0
   37.4817   19.2033   30.7718 H   0  0  0  0  0  0  0  0  0  0  0  0
   35.5185   16.5697   32.4807 H   0  0  0  0  0  0  0  0  0  0  0  0
   37.2250   17.0174   32.2159 H   0  0  0  0  0  0  0  0  0  0  0  0
   35.4215   21.3630   30.6254 H   0  0  0  0  0  0  0  0  0  0  0  0
   36.6465   23.1376   29.3872 H   0  0  0  0  0  0  0  0  0  0  0  0
   37.9334   21.9806   29.7858 H   0  0  0  0  0  0  0  0  0  0  0  0
   38.7756   23.3236   31.5157 H   0  0  0  0  0  0  0  0  0  0  0  0
   38.1498   24.5973   30.4699 H   0  0  0  0  0  0  0  0  0  0  0  0
   37.2921   23.9800   33.1228 H   0  0  0  0  0  0  0  0  0  0  0  0
   36.4695   25.0878   32.0070 H   0  0  0  0  0  0  0  0  0  0  0  0
   34.8509   23.5315   31.4964 H   0  0  0  0  0  0  0  0  0  0  0  0
   35.4023   22.6882   32.9684 H   0  0  0  0  0  0  0  0  0  0  0  0
  1  2  2  0
  3  2  1  0
  4  3  2  0
  5  4  1  0
  5  6  2  0
  6  1  1  0
  7  5  1  0
  8  7  1  0
  9  8  2  0
 10  9  1  0
 10 11  2  0
 11 12  1  0
 11  7  1  0
 12 13  1  0
 14 13  2  0
 15 14  1  0
 16 15  2  0
 16 12  1  0
 17 16  1  0
 18 19  1  0
 18 17  1  0
 19 20  2  0
 19 21  1  0
 22 20  1  0
 23 17  1  0
 23 27  1  0
 24 25  1  0
 24 23  1  0
 25 26  1  0
 27 26  1  0
  1 28  1  0
  2 29  1  0
  3 30  1  0
  8 31  1  0
  9 32  1  0
 13 33  1  0
 14 34  1  0
 17 35  1  1
 18 36  1  0
 21 37  1  0
 21 38  1  0
 23 39  1  0
 24 40  1  0
 24 41  1  0
 25 42  1  0
 25 43  1  0
 26 44  1  0
 26 45  1  0
 27 46  1  0
 27 47  1  0
M  ISO  8  28  14  29  14  30  14  31  14  32  14  33  14  34  14  35   8
M  ISO  8  39  13  40  13  41  13  42  13  43  13  44  13  45  13  46  13
M  ISO  1  47  13
M  END
>  <minimizedAffinity>  (1) 
-5.05434895

>  <minimizedRMSD>  (1) 
1.51441503

$$$$
