
     RDKit          3D

 22 24  0  0  0  0  0  0  0  0999 V2000
   38.5450   22.0560   34.4810 O   0  0  0  0  0  0  0  0  0  0  0  0
   35.9120   23.4580   31.0170 N   0  0  0  0  0  0  0  0  0  0  0  0
   37.0370   24.2030   31.1300 C   0  0  0  0  0  0  0  0  0  0  0  0
   37.7750   23.7510   32.1610 N   0  0  0  0  0  0  0  0  0  0  0  0
   37.1280   22.7090   32.7190 C   0  0  0  0  0  0  0  0  0  0  0  0
   37.3690   21.8530   33.7750 C   0  0  0  0  0  0  0  0  0  0  0  0
   36.4630   20.8740   34.0690 N   0  0  0  0  0  0  0  0  0  0  0  0
   35.3300   20.7450   33.3230 C   0  0  0  0  0  0  0  0  0  0  0  0
   35.0230   21.5480   32.2700 N   0  0  0  0  0  0  0  0  0  0  0  0
   35.9470   22.5160   32.0010 C   0  0  0  0  0  0  0  0  0  0  0  0
   39.9820   22.6530   37.6630 C   0  0  0  0  0  0  0  0  0  0  0  0
   38.9470   23.2990   38.3920 C   0  0  0  0  0  0  0  0  0  0  0  0
   37.7420   23.5110   37.7260 C   0  0  0  0  0  0  0  0  0  0  0  0
   37.6000   23.1070   36.4440 N   0  0  0  0  0  0  0  0  0  0  0  0
   38.6290   22.4910   35.7900 C   0  0  0  0  0  0  0  0  0  0  0  0
   39.7970   22.2730   36.4030 N   0  0  0  0  0  0  0  0  0  0  0  0
   35.1670   23.5807   30.3164 H   0  0  0  0  0  0  0  0  0  0  0  0
   37.3065   25.0479   30.4792 H   0  0  0  0  0  0  0  0  0  0  0  0
   34.6231   19.9450   33.5882 H   0  0  0  0  0  0  0  0  0  0  0  0
   40.9507   22.4647   38.1490 H   0  0  0  0  0  0  0  0  0  0  0  0
   39.0910   23.6172   39.4351 H   0  0  0  0  0  0  0  0  0  0  0  0
   36.9070   24.0066   38.2428 H   0  0  0  0  0  0  0  0  0  0  0  0
  1 15  1  0
  2  3  1  0
  2 10  1  0
  3  4  2  0
  4  5  1  0
  5  6  2  0
  6  7  1  0
  6  1  1  0
  8  7  2  0
  9  8  1  0
 10  9  2  0
 10  5  1  0
 11 12  2  0
 13 12  1  0
 14 13  2  0
 15 16  2  0
 15 14  1  0
 16 11  1  0
  2 17  1  0
  3 18  1  0
  8 19  1  0
 11 20  1  0
 12 21  1  0
 13 22  1  0
M  ISO  6  17   9  18  14  19  14  20  14  21  14  22  14
M  END
>  <minimizedAffinity>  (1) 
-4.45506525

>  <minimizedRMSD>  (1) 
0.732901931

$$$$
