
     RDKit          3D

 18 19  0  0  0  0  0  0  0  0999 V2000
   39.8590   22.7050   37.6930 C   0  0  0  0  0  0  0  0  0  0  0  0
   38.7510   23.3740   38.2440 C   0  0  0  0  0  0  0  0  0  0  0  0
   37.5920   23.4960   37.4550 C   0  0  0  0  0  0  0  0  0  0  0  0
   37.6180   22.9570   36.2130 N   0  0  0  0  0  0  0  0  0  0  0  0
   38.6970   22.3200   35.7160 C   0  0  0  0  0  0  0  0  0  0  0  0
   39.7990   22.1970   36.4440 N   0  0  0  0  0  0  0  0  0  0  0  0
   38.7510   21.7630   34.4550 O   0  0  0  0  0  0  0  0  0  0  0  0
   37.5080   21.7490   33.7200 C   0  0  0  0  0  0  0  0  0  0  0  0
   36.4420   20.9820   33.7600 C   0  0  0  0  0  0  0  0  0  0  0  0
   35.4000   21.2120   32.9290 C   0  0  0  0  0  0  0  0  0  0  0  0
   35.5150   22.2590   32.0680 C   0  0  0  0  0  0  0  0  0  0  0  0
   37.2270   22.9310   32.5000 S   0  0  0  0  0  0  0  0  0  0  0  0
   40.7803   22.5952   38.2839 H   0  0  0  0  0  0  0  0  0  0  0  0
   38.7893   23.7896   39.2617 H   0  0  0  0  0  0  0  0  0  0  0  0
   36.6968   24.0109   37.8338 H   0  0  0  0  0  0  0  0  0  0  0  0
   36.3967   20.1468   34.4744 H   0  0  0  0  0  0  0  0  0  0  0  0
   34.4995   20.5805   32.9485 H   0  0  0  0  0  0  0  0  0  0  0  0
   34.7979   22.6202   31.3161 H   0  0  0  0  0  0  0  0  0  0  0  0
  1  2  2  0
  3  2  1  0
  4  3  2  0
  5  4  1  0
  5  6  2  0
  6  1  1  0
  7  5  1  0
  8  9  2  0
  8  7  1  0
 10  9  1  0
 11 12  1  0
 11 10  2  0
 12  8  1  0
  1 13  1  0
  2 14  1  0
  3 15  1  0
  9 16  1  0
 10 17  1  0
 11 18  1  0
M  ISO  6  13  14  14  14  15  14  16  14  17  14  18  14
M  END
>  <minimizedAffinity>  (1) 
-3.65769863

>  <minimizedRMSD>  (1) 
0.87064743

$$$$
