
     RDKit          3D

 16 17  0  0  0  0  0  0  0  0999 V2000
   39.8510   22.7170   37.8470 C   0  0  0  0  0  0  0  0  0  0  0  0
   39.0230   23.5390   38.6590 C   0  0  0  0  0  0  0  0  0  0  0  0
   37.8590   24.0640   38.0660 C   0  0  0  0  0  0  0  0  0  0  0  0
   37.5980   23.7630   36.7790 N   0  0  0  0  0  0  0  0  0  0  0  0
   38.4130   22.9770   36.0440 C   0  0  0  0  0  0  0  0  0  0  0  0
   39.5360   22.4530   36.5670 N   0  0  0  0  0  0  0  0  0  0  0  0
   38.1660   22.6480   34.7060 O   0  0  0  0  0  0  0  0  0  0  0  0
   37.1160   21.7960   34.4500 C   0  0  0  0  0  0  0  0  0  0  0  0
   36.4100   21.1810   35.3960 N   0  0  0  0  0  0  0  0  0  0  0  0
   35.4990   20.4540   34.8500 O   0  0  0  0  0  0  0  0  0  0  0  0
   35.5950   20.5810   33.5580 C   0  0  0  0  0  0  0  0  0  0  0  0
   36.5980   21.4170   33.2500 N   0  0  0  0  0  0  0  0  0  0  0  0
   40.7689   22.2878   38.2750 H   0  0  0  0  0  0  0  0  0  0  0  0
   39.2808   23.7557   39.7062 H   0  0  0  0  0  0  0  0  0  0  0  0
   37.1767   24.7067   38.6416 H   0  0  0  0  0  0  0  0  0  0  0  0
   34.9479   20.0763   32.8255 H   0  0  0  0  0  0  0  0  0  0  0  0
  1  2  2  0
  3  2  1  0
  4  3  2  0
  5  6  2  0
  5  4  1  0
  6  1  1  0
  7  5  1  0
  8  7  1  0
  8  9  2  0
 10  9  1  0
 11 10  1  0
 12 11  2  0
 12  8  1  0
  1 13  1  0
  2 14  1  0
  3 15  1  0
 11 16  1  0
M  ISO  4  13  14  14  14  15  14  16  14
M  END
>  <minimizedAffinity>  (1) 
-3.61108565

>  <minimizedRMSD>  (1) 
1.04578054

$$$$
