
     RDKit          3D

 24 25  0  0  0  0  0  0  0  0999 V2000
   38.3380   24.0960   35.1420 O   0  0  0  0  0  0  0  0  0  0  0  0
   36.9490   21.4070   33.3050 C   0  0  0  0  0  0  0  0  0  0  0  0
   36.6780   21.9600   32.0410 C   0  0  0  0  0  0  0  0  0  0  0  0
   36.9910   23.3010   31.8400 C   0  0  0  0  0  0  0  0  0  0  0  0
   37.5380   24.0080   32.8580 N   0  0  0  0  0  0  0  0  0  0  0  0
   37.7820   23.4300   34.0610 C   0  0  0  0  0  0  0  0  0  0  0  0
   37.4890   22.1400   34.2810 N   0  0  0  0  0  0  0  0  0  0  0  0
   42.4410   23.9830   35.7880 C   0  0  0  0  0  0  0  0  0  0  0  0
   41.9500   24.9190   34.8740 C   0  0  0  0  0  0  0  0  0  0  0  0
   40.6190   25.0140   34.6110 C   0  0  0  0  0  0  0  0  0  0  0  0
   39.7380   24.1700   35.2600 C   0  0  0  0  0  0  0  0  0  0  0  0
   40.1990   23.2280   36.1750 C   0  0  0  0  0  0  0  0  0  0  0  0
   41.5630   23.1320   36.4430 C   0  0  0  0  0  0  0  0  0  0  0  0
   44.1610   23.8810   36.1060 S   0  0  0  0  0  0  0  0  0  0  0  0
   44.5560   22.4340   36.1270 O   0  0  0  0  0  0  0  0  0  0  0  0
   44.4640   24.5600   37.4170 O   0  0  0  0  0  0  0  0  0  0  0  0
   36.7113   20.3496   33.4932 H   0  0  0  0  0  0  0  0  0  0  0  0
   36.2337   21.3533   31.2382 H   0  0  0  0  0  0  0  0  0  0  0  0
   36.7971   23.7799   30.8689 H   0  0  0  0  0  0  0  0  0  0  0  0
   42.6521   25.5906   34.3583 H   0  0  0  0  0  0  0  0  0  0  0  0
   40.2473   25.7556   33.8886 H   0  0  0  0  0  0  0  0  0  0  0  0
   39.4885   22.5611   36.6852 H   0  0  0  0  0  0  0  0  0  0  0  0
   41.9385   22.3913   37.1643 H   0  0  0  0  0  0  0  0  0  0  0  0
   44.8811   24.5156   35.1284 H   0  0  0  0  0  0  0  0  0  0  0  0
  1 11  1  0
  2  7  2  0
  3  2  1  0
  4  3  2  0
  4  5  1  0
  5  6  2  0
  6  7  1  0
  6  1  1  0
  8 14  1  0
  8 13  2  0
  9  8  1  0
 10  9  2  0
 10 11  1  0
 11 12  2  0
 12 13  1  0
 14 15  2  0
 14 16  2  0
  2 17  1  0
  3 18  1  0
  4 19  1  0
  9 20  1  0
 10 21  1  0
 12 22  1  0
 13 23  1  0
 14 24  1  0
M  ISO  8  17  14  18  14  19  14  20  14  21  14  22  14  23  14  24  11
M  END
>  <minimizedAffinity>  (1) 
-3.25007653

>  <minimizedRMSD>  (1) 
7.59435701

$$$$
