
     RDKit          3D

 14 14  0  0  0  0  0  0  0  0999 V2000
   39.9740   22.7240   37.7610 C   0  0  0  0  0  0  0  0  0  0  0  0
   38.9200   23.3410   38.4640 C   0  0  0  0  0  0  0  0  0  0  0  0
   37.6880   23.4450   37.8200 C   0  0  0  0  0  0  0  0  0  0  0  0
   37.5670   22.9510   36.5610 N   0  0  0  0  0  0  0  0  0  0  0  0
   38.6160   22.3610   35.9170 C   0  0  0  0  0  0  0  0  0  0  0  0
   39.8100   22.2540   36.5250 N   0  0  0  0  0  0  0  0  0  0  0  0
   38.5140   21.8520   34.6340 O   0  0  0  0  0  0  0  0  0  0  0  0
   37.2520   21.7280   33.9710 C   0  0  0  0  0  0  0  0  0  0  0  0
   40.9572   22.6279   38.2449 H   0  0  0  0  0  0  0  0  0  0  0  0
   39.0642   23.7266   39.4841 H   0  0  0  0  0  0  0  0  0  0  0  0
   36.8309   23.9179   38.3218 H   0  0  0  0  0  0  0  0  0  0  0  0
   36.4504   21.6492   34.7202 H   0  0  0  0  0  0  0  0  0  0  0  0
   37.0799   22.6136   33.3416 H   0  0  0  0  0  0  0  0  0  0  0  0
   37.2556   20.8259   33.3416 H   0  0  0  0  0  0  0  0  0  0  0  0
  1  2  2  0
  3  2  1  0
  4  3  2  0
  5  6  2  0
  5  4  1  0
  6  1  1  0
  7  5  1  0
  8  7  1  0
  1  9  1  0
  2 10  1  0
  3 11  1  0
  8 12  1  0
  8 13  1  0
  8 14  1  0
M  ISO  6   9  14  10  14  11  14  12   8  13   8  14   8
M  END
>  <minimizedAffinity>  (1) 
-2.7936604

>  <minimizedRMSD>  (1) 
0.292219579

$$$$
