
     RDKit          3D

 24 25  0  0  1  0  0  0  0  0999 V2000
   37.2120   21.7490   34.9740 O   0  0  0  0  0  0  0  0  0  0  0  0
   39.8640   22.6240   37.1170 C   0  0  0  0  0  0  0  0  0  0  0  0
   39.2430   23.2850   38.2000 C   0  0  0  0  0  0  0  0  0  0  0  0
   37.8470   23.4220   38.1580 C   0  0  0  0  0  0  0  0  0  0  0  0
   37.1780   22.9170   37.0900 N   0  0  0  0  0  0  0  0  0  0  0  0
   37.8510   22.2890   36.0780 C   0  0  0  0  0  0  0  0  0  0  0  0
   39.1910   22.1400   36.0840 N   0  0  0  0  0  0  0  0  0  0  0  0
   37.4970   22.1720   33.6450 C   0  0  1  0  0  0  0  0  0  0  0  0
   37.9740   21.0880   32.7220 C   0  0  0  0  0  0  0  0  0  0  0  0
   36.5810   21.6070   32.5880 C   0  0  1  0  0  0  0  0  0  0  0  0
   35.4800   20.7440   33.1520 C   0  0  0  0  0  0  0  0  0  0  0  0
   34.7560   19.9200   32.1380 C   0  0  0  0  0  0  0  0  0  0  0  0
   40.9575   22.5057   37.1323 H   0  0  0  0  0  0  0  0  0  0  0  0
   39.8307   23.6770   39.0432 H   0  0  0  0  0  0  0  0  0  0  0  0
   37.3069   23.9273   38.9722 H   0  0  0  0  0  0  0  0  0  0  0  0
   37.8501   23.1768   33.9203 H   0  0  0  0  0  0  0  0  0  0  0  0
   38.7213   21.3162   31.9478 H   0  0  0  0  0  0  0  0  0  0  0  0
   38.4197   20.0921   32.8615 H   0  0  0  0  0  0  0  0  0  0  0  0
   35.9944   22.0017   31.7453 H   0  0  0  0  0  0  0  0  0  0  0  0
   35.9231   20.0637   33.8942 H   0  0  0  0  0  0  0  0  0  0  0  0
   34.7369   21.4295   33.5854 H   0  0  0  0  0  0  0  0  0  0  0  0
   34.1136   19.1889   32.6506 H   0  0  0  0  0  0  0  0  0  0  0  0
   34.1359   20.5750   31.5083 H   0  0  0  0  0  0  0  0  0  0  0  0
   35.4853   19.3893   31.5083 H   0  0  0  0  0  0  0  0  0  0  0  0
  1  6  1  0
  2  3  2  0
  4  3  1  0
  5  4  2  0
  6  7  2  0
  6  5  1  0
  7  2  1  0
  8  1  1  0
  9  8  1  0
 10  9  1  0
 10 11  1  0
 10  8  1  0
 12 11  1  0
  2 13  1  0
  3 14  1  0
  4 15  1  0
  8 16  1  1
  9 17  1  0
  9 18  1  0
 10 19  1  6
 11 20  1  0
 11 21  1  0
 12 22  1  0
 12 23  1  0
 12 24  1  0
M  ISO  8  13  14  14  14  15  14  16  13  17  13  18  13  19  13  20   8
M  ISO  4  21   8  22   8  23   8  24   8
M  END
>  <minimizedAffinity>  (1) 
-3.6559639

>  <minimizedRMSD>  (1) 
1.49127305

$$$$
