
     RDKit          3D

 20 21  0  0  1  0  0  0  0  0999 V2000
   37.2130   21.8020   34.9300 O   0  0  0  0  0  0  0  0  0  0  0  0
   39.8620   22.6220   37.1060 C   0  0  0  0  0  0  0  0  0  0  0  0
   39.2330   23.2640   38.2020 C   0  0  0  0  0  0  0  0  0  0  0  0
   37.8260   23.4000   38.1440 C   0  0  0  0  0  0  0  0  0  0  0  0
   37.1800   22.9130   37.0560 N   0  0  0  0  0  0  0  0  0  0  0  0
   37.8570   22.3040   36.0330 C   0  0  0  0  0  0  0  0  0  0  0  0
   39.1710   22.1570   36.0480 N   0  0  0  0  0  0  0  0  0  0  0  0
   37.5650   22.1560   33.5910 C   0  0  1  0  0  0  0  0  0  0  0  0
   37.8830   21.0150   32.6770 C   0  0  0  0  0  0  0  0  0  0  0  0
   36.5560   21.6920   32.5760 C   0  0  1  0  0  0  0  0  0  0  0  0
   35.4190   20.8610   33.0530 C   0  0  0  0  0  0  0  0  0  0  0  0
   34.5390   20.4780   32.2690 O   0  0  0  0  0  0  0  0  0  0  0  0
   40.9550   22.4991   37.1203 H   0  0  0  0  0  0  0  0  0  0  0  0
   39.8123   23.6393   39.0585 H   0  0  0  0  0  0  0  0  0  0  0  0
   37.2713   23.8875   38.9593 H   0  0  0  0  0  0  0  0  0  0  0  0
   38.0697   23.1009   33.8407 H   0  0  0  0  0  0  0  0  0  0  0  0
   38.6270   21.1436   31.8770 H   0  0  0  0  0  0  0  0  0  0  0  0
   38.2143   19.9759   32.8204 H   0  0  0  0  0  0  0  0  0  0  0  0
   35.9741   22.2074   31.7976 H   0  0  0  0  0  0  0  0  0  0  0  0
   35.3582   20.5826   34.1155 H   0  0  0  0  0  0  0  0  0  0  0  0
  1  6  1  0
  2  3  2  0
  4  3  1  0
  5  4  2  0
  6  7  2  0
  6  5  1  0
  7  2  1  0
  8  1  1  0
  9  8  1  0
 10  9  1  0
 10 11  1  0
 10  8  1  0
 12 11  2  0
  2 13  1  0
  3 14  1  0
  4 15  1  0
  8 16  1  1
  9 17  1  0
  9 18  1  0
 10 19  1  6
 11 20  1  0
M  ISO  8  13  14  14  14  15  14  16  13  17  13  18  13  19  13  20   6
M  END
>  <minimizedAffinity>  (1) 
-3.4280827

>  <minimizedRMSD>  (1) 
1.47409213

$$$$
