
     RDKit          3D

 19 20  0  0  1  0  0  0  0  0999 V2000
   38.4360   21.7730   34.5990 O   0  0  0  0  0  0  0  0  0  0  0  0
   39.9660   22.6750   37.6370 C   0  0  0  0  0  0  0  0  0  0  0  0
   38.9660   23.3170   38.3750 C   0  0  0  0  0  0  0  0  0  0  0  0
   37.7080   23.4300   37.7600 C   0  0  0  0  0  0  0  0  0  0  0  0
   37.5490   22.9200   36.5180 N   0  0  0  0  0  0  0  0  0  0  0  0
   38.5730   22.3030   35.8530 C   0  0  0  0  0  0  0  0  0  0  0  0
   39.7910   22.1740   36.4030 N   0  0  0  0  0  0  0  0  0  0  0  0
   37.3960   22.1610   33.7010 C   0  0  1  0  0  0  0  0  0  0  0  0
   37.5690   21.7010   32.2860 C   0  0  0  0  0  0  0  0  0  0  0  0
   36.5810   21.0130   33.1630 C   0  0  2  0  0  0  0  0  0  0  0  0
   35.2420   21.2010   32.9100 O   0  0  0  0  0  0  0  0  0  0  0  0
   40.9601   22.5739   38.0970 H   0  0  0  0  0  0  0  0  0  0  0  0
   39.1548   23.7126   39.3839 H   0  0  0  0  0  0  0  0  0  0  0  0
   36.8713   23.9223   38.2772 H   0  0  0  0  0  0  0  0  0  0  0  0
   37.1781   23.1247   34.1846 H   0  0  0  0  0  0  0  0  0  0  0  0
   38.4917   21.1821   31.9870 H   0  0  0  0  0  0  0  0  0  0  0  0
   37.5222   22.1898   31.3017 H   0  0  0  0  0  0  0  0  0  0  0  0
   36.4049   19.9746   33.4804 H   0  0  0  0  0  0  0  0  0  0  0  0
   34.7508   21.2700   33.7668 H   0  0  0  0  0  0  0  0  0  0  0  0
  1  6  1  0
  2  3  2  0
  4  3  1  0
  5  4  2  0
  6  7  2  0
  6  5  1  0
  7  2  1  0
  8  1  1  0
  9 10  1  0
  9  8  1  0
 10  8  1  0
 11 10  1  0
  2 12  1  0
  3 13  1  0
  4 14  1  0
  8 15  1  6
  9 16  1  0
  9 17  1  0
 10 18  1  1
 11 19  1  0
M  ISO  8  12  14  13  14  14  14  15  13  16  13  17  13  18  13  19   3
M  END
>  <minimizedAffinity>  (1) 
-3.26305509

>  <minimizedRMSD>  (1) 
0.680142283

$$$$
