
     RDKit          3D

 47 50  0  0  1  0  0  0  0  0999 V2000
   41.6230   24.3430   34.7420 C   0  0  1  0  0  0  0  0  0  0  0  0
   42.2910   25.2440   33.7190 C   0  0  0  0  0  0  0  0  0  0  0  0
   42.6780   25.3060   35.1610 C   0  0  2  0  0  0  0  0  0  0  0  0
   44.0440   24.8570   35.4980 C   0  0  0  0  0  0  0  0  0  0  0  0
   44.0810   24.2360   36.8860 C   0  0  0  0  0  0  0  0  0  0  0  0
   44.8750   25.2230   37.7240 C   0  0  0  0  0  0  0  0  0  0  0  0
   45.7880   25.9340   36.7720 C   0  0  0  0  0  0  0  0  0  0  0  0
   44.9400   26.0730   35.5370 C   0  0  0  0  0  0  0  0  0  0  0  0
   40.2800   24.7440   35.0110 O   0  0  0  0  0  0  0  0  0  0  0  0
   37.9010   23.0770   37.0030 C   0  0  0  0  0  0  0  0  0  0  0  0
   37.2340   22.2060   36.0930 C   0  0  0  0  0  0  0  0  0  0  0  0
   37.6690   22.2370   34.7540 C   0  0  0  0  0  0  0  0  0  0  0  0
   38.6660   23.0750   34.4360 N   0  0  0  0  0  0  0  0  0  0  0  0
   39.2680   23.8930   35.3660 C   0  0  0  0  0  0  0  0  0  0  0  0
   38.9080   23.9110   36.6360 N   0  0  0  0  0  0  0  0  0  0  0  0
   37.0340   21.3720   33.7610 C   0  0  0  0  0  0  0  0  0  0  0  0
   36.6690   22.2170   32.5590 C   0  0  0  0  0  0  0  0  0  0  0  0
   35.3310   21.8680   31.9650 C   0  0  0  0  0  0  0  0  0  0  0  0
   35.1050   20.3990   31.8310 C   0  0  0  0  0  0  0  0  0  0  0  0
   35.4240   19.6860   33.1250 C   0  0  0  0  0  0  0  0  0  0  0  0
   35.7820   20.6820   34.2260 C   0  0  0  0  0  0  0  0  0  0  0  0
   41.4755   23.2626   34.8868 H   0  0  0  0  0  0  0  0  0  0  0  0
   42.9851   24.8193   32.9788 H   0  0  0  0  0  0  0  0  0  0  0  0
   41.9424   25.9709   32.9706 H   0  0  0  0  0  0  0  0  0  0  0  0
   42.7111   26.0734   35.9484 H   0  0  0  0  0  0  0  0  0  0  0  0
   44.3681   24.1188   34.7497 H   0  0  0  0  0  0  0  0  0  0  0  0
   43.0632   24.1172   37.2859 H   0  0  0  0  0  0  0  0  0  0  0  0
   44.5318   23.2326   36.8831 H   0  0  0  0  0  0  0  0  0  0  0  0
   44.1988   25.9401   38.2124 H   0  0  0  0  0  0  0  0  0  0  0  0
   45.4398   24.7134   38.5186 H   0  0  0  0  0  0  0  0  0  0  0  0
   46.0804   26.9190   37.1646 H   0  0  0  0  0  0  0  0  0  0  0  0
   46.7326   25.3994   36.5935 H   0  0  0  0  0  0  0  0  0  0  0  0
   45.5760   26.1062   34.6401 H   0  0  0  0  0  0  0  0  0  0  0  0
   44.3517   27.0022   35.5587 H   0  0  0  0  0  0  0  0  0  0  0  0
   37.5839   23.0735   38.0563 H   0  0  0  0  0  0  0  0  0  0  0  0
   36.4199   21.5426   36.4204 H   0  0  0  0  0  0  0  0  0  0  0  0
   37.7659   20.5816   33.5384 H   0  0  0  0  0  0  0  0  0  0  0  0
   36.6481   23.2724   32.8685 H   0  0  0  0  0  0  0  0  0  0  0  0
   37.4270   22.0245   31.7855 H   0  0  0  0  0  0  0  0  0  0  0  0
   34.5439   22.2840   32.6111 H   0  0  0  0  0  0  0  0  0  0  0  0
   35.3059   22.2934   30.9509 H   0  0  0  0  0  0  0  0  0  0  0  0
   34.0517   20.2186   31.5702 H   0  0  0  0  0  0  0  0  0  0  0  0
   35.7669   20.0112   31.0426 H   0  0  0  0  0  0  0  0  0  0  0  0
   34.5464   19.1023   33.4397 H   0  0  0  0  0  0  0  0  0  0  0  0
   36.2870   19.0250   32.9569 H   0  0  0  0  0  0  0  0  0  0  0  0
   35.9642   20.1557   35.1746 H   0  0  0  0  0  0  0  0  0  0  0  0
   34.9669   21.3986   34.4051 H   0  0  0  0  0  0  0  0  0  0  0  0
  1  9  1  0
  1  3  1  0
  2  1  1  0
  2  3  1  0
  3  4  1  0
  4  8  1  0
  4  5  1  0
  5  6  1  0
  7  6  1  0
  8  7  1  0
  9 14  1  0
 11 10  2  0
 12 11  1  0
 13 12  2  0
 13 14  1  0
 14 15  2  0
 15 10  1  0
 16 21  1  0
 16 12  1  0
 17 16  1  0
 18 17  1  0
 19 18  1  0
 19 20  1  0
 20 21  1  0
  1 22  1  6
  2 23  1  0
  2 24  1  0
  3 25  1  1
  4 26  1  0
  5 27  1  0
  5 28  1  0
  6 29  1  0
  6 30  1  0
  7 31  1  0
  7 32  1  0
  8 33  1  0
  8 34  1  0
 10 35  1  0
 11 36  1  0
 16 37  1  0
 17 38  1  0
 17 39  1  0
 18 40  1  0
 18 41  1  0
 19 42  1  0
 19 43  1  0
 20 44  1  0
 20 45  1  0
 21 46  1  0
 21 47  1  0
M  ISO  8  22  13  23  13  24  13  25  13  26  13  27  13  28  13  29  13
M  ISO  8  30  13  31  13  32  13  33  13  34  13  35  14  36  14  37  13
M  ISO  8  38  13  39  13  40  13  41  13  42  13  43  13  44  13  45  13
M  ISO  2  46  13  47  13
M  END
>  <minimizedAffinity>  (1) 
-5.31438589

>  <minimizedRMSD>  (1) 
2.4367516

$$$$
