
     RDKit          3D

 41 44  0  0  1  0  0  0  0  0999 V2000
   39.8220   23.2280   35.1850 C   0  0  1  0  0  0  0  0  0  0  0  0
   40.0290   24.7320   35.2060 C   0  0  0  0  0  0  0  0  0  0  0  0
   40.9610   23.8230   35.9380 C   0  0  2  0  0  0  0  0  0  0  0  0
   42.3510   23.7590   35.4370 C   0  0  0  0  0  0  0  0  0  0  0  0
   43.2730   23.1740   36.4940 C   0  0  0  0  0  0  0  0  0  0  0  0
   44.1580   24.3210   36.9180 C   0  0  0  0  0  0  0  0  0  0  0  0
   44.1690   25.3270   35.8090 C   0  0  0  0  0  0  0  0  0  0  0  0
   42.8240   25.1630   35.1680 C   0  0  0  0  0  0  0  0  0  0  0  0
   38.7090   22.8200   35.9480 O   0  0  0  0  0  0  0  0  0  0  0  0
   35.6570   21.0550   35.9100 C   0  0  0  0  0  0  0  0  0  0  0  0
   35.5710   20.5360   34.5880 C   0  0  0  0  0  0  0  0  0  0  0  0
   36.6450   20.8410   33.7170 C   0  0  0  0  0  0  0  0  0  0  0  0
   37.6530   21.5880   34.1980 N   0  0  0  0  0  0  0  0  0  0  0  0
   37.6710   22.0590   35.4920 C   0  0  0  0  0  0  0  0  0  0  0  0
   36.6980   21.8000   36.3290 N   0  0  0  0  0  0  0  0  0  0  0  0
   36.6380   20.3600   32.3790 N   0  0  0  0  0  0  0  0  0  0  0  0
   37.2900   21.0140   31.3780 C   0  0  0  0  0  0  0  0  0  0  0  0
   37.2720   20.5320   30.0840 C   0  0  0  0  0  0  0  0  0  0  0  0
   36.5750   19.3770   29.8500 C   0  0  0  0  0  0  0  0  0  0  0  0
   36.4390   18.7800   28.7480 O   0  0  0  0  0  0  0  0  0  0  0  0
   35.9380   18.7420   30.8400 N   0  0  0  0  0  0  0  0  0  0  0  0
   35.9530   19.2110   32.1140 C   0  0  0  0  0  0  0  0  0  0  0  0
   35.3640   18.6400   33.0630 O   0  0  0  0  0  0  0  0  0  0  0  0
   39.7419   22.4380   34.4237 H   0  0  0  0  0  0  0  0  0  0  0  0
   40.3669   25.2554   34.2994 H   0  0  0  0  0  0  0  0  0  0  0  0
   39.4130   25.6026   35.4756 H   0  0  0  0  0  0  0  0  0  0  0  0
   41.3093   23.6943   36.9734 H   0  0  0  0  0  0  0  0  0  0  0  0
   42.3712   23.1341   34.5319 H   0  0  0  0  0  0  0  0  0  0  0  0
   42.6917   22.7976   37.3487 H   0  0  0  0  0  0  0  0  0  0  0  0
   43.8548   22.3231   36.1099 H   0  0  0  0  0  0  0  0  0  0  0  0
   43.7611   24.7802   37.8354 H   0  0  0  0  0  0  0  0  0  0  0  0
   45.1781   23.9634   37.1216 H   0  0  0  0  0  0  0  0  0  0  0  0
   44.2935   26.3458   36.2047 H   0  0  0  0  0  0  0  0  0  0  0  0
   44.9991   25.1750   35.1035 H   0  0  0  0  0  0  0  0  0  0  0  0
   42.9041   25.3290   34.0836 H   0  0  0  0  0  0  0  0  0  0  0  0
   42.1116   25.8928   35.5802 H   0  0  0  0  0  0  0  0  0  0  0  0
   34.8422   20.8396   36.6169 H   0  0  0  0  0  0  0  0  0  0  0  0
   34.7144   19.9291   34.2595 H   0  0  0  0  0  0  0  0  0  0  0  0
   37.8392   21.9400   31.6036 H   0  0  0  0  0  0  0  0  0  0  0  0
   37.7976   21.0561   29.2722 H   0  0  0  0  0  0  0  0  0  0  0  0
   35.4229   17.8750   30.6305 H   0  0  0  0  0  0  0  0  0  0  0  0
  1  2  1  0
  1  3  1  0
  1  9  1  0
  2  3  1  0
  4  3  1  0
  4  5  1  0
  5  6  1  0
  7  6  1  0
  8  4  1  0
  8  7  1  0
 10 15  2  0
 11 10  1  0
 12 13  1  0
 12 11  2  0
 13 14  2  0
 14  9  1  0
 14 15  1  0
 16 12  1  0
 17 16  1  0
 18 17  2  0
 19 18  1  0
 19 21  1  0
 20 19  2  0
 21 22  1  0
 22 16  1  0
 22 23  2  0
  1 24  1  6
  2 25  1  0
  2 26  1  0
  3 27  1  1
  4 28  1  0
  5 29  1  0
  5 30  1  0
  6 31  1  0
  6 32  1  0
  7 33  1  0
  7 34  1  0
  8 35  1  0
  8 36  1  0
 10 37  1  0
 11 38  1  0
 17 39  1  0
 18 40  1  0
 21 41  1  0
M  ISO  8  24  13  25  13  26  13  27  13  28  13  29  13  30  13  31  13
M  ISO  8  32  13  33  13  34  13  35  13  36  13  37  14  38  14  39  14
M  ISO  2  40  14  41   9
M  END
>  <minimizedAffinity>  (1) 
-5.24871206

>  <minimizedRMSD>  (1) 
0.587914109

$$$$
