
     RDKit          3D

 44 47  0  0  1  0  0  0  0  0999 V2000
   39.7540   23.3010   34.9990 C   0  0  1  0  0  0  0  0  0  0  0  0
   39.9760   24.8000   35.1120 C   0  0  0  0  0  0  0  0  0  0  0  0
   40.8760   23.8540   35.8150 C   0  0  2  0  0  0  0  0  0  0  0  0
   42.2760   23.7600   35.3520 C   0  0  0  0  0  0  0  0  0  0  0  0
   43.1640   23.1740   36.4380 C   0  0  0  0  0  0  0  0  0  0  0  0
   44.0530   24.3230   36.8740 C   0  0  0  0  0  0  0  0  0  0  0  0
   44.1360   25.2680   35.6930 C   0  0  0  0  0  0  0  0  0  0  0  0
   42.7810   25.1500   35.0620 C   0  0  0  0  0  0  0  0  0  0  0  0
   38.6110   22.8800   35.7480 O   0  0  0  0  0  0  0  0  0  0  0  0
   35.6590   20.9650   35.6810 C   0  0  0  0  0  0  0  0  0  0  0  0
   35.6290   20.4250   34.3570 C   0  0  0  0  0  0  0  0  0  0  0  0
   36.7010   20.7710   33.5000 C   0  0  0  0  0  0  0  0  0  0  0  0
   37.6620   21.5760   33.9900 N   0  0  0  0  0  0  0  0  0  0  0  0
   37.6280   22.0620   35.2780 C   0  0  0  0  0  0  0  0  0  0  0  0
   36.6530   21.7650   36.1050 N   0  0  0  0  0  0  0  0  0  0  0  0
   36.7230   20.2660   32.1830 N   0  0  0  0  0  0  0  0  0  0  0  0
   37.7270   20.7180   31.3980 C   0  0  0  0  0  0  0  0  0  0  0  0
   37.8570   20.2980   30.0850 C   0  0  0  0  0  0  0  0  0  0  0  0
   38.9480   20.7680   29.1760 C   0  0  0  0  0  0  0  0  0  0  0  0
   36.9350   19.3880   29.5630 C   0  0  0  0  0  0  0  0  0  0  0  0
   37.0480   19.0040   28.3720 O   0  0  0  0  0  0  0  0  0  0  0  0
   35.9440   18.9580   30.3760 N   0  0  0  0  0  0  0  0  0  0  0  0
   35.8600   19.3920   31.6370 C   0  0  0  0  0  0  0  0  0  0  0  0
   34.9390   18.9860   32.3770 O   0  0  0  0  0  0  0  0  0  0  0  0
   39.6851   22.5541   34.1943 H   0  0  0  0  0  0  0  0  0  0  0  0
   40.3435   25.3694   34.2456 H   0  0  0  0  0  0  0  0  0  0  0  0
   39.3588   25.6593   35.4132 H   0  0  0  0  0  0  0  0  0  0  0  0
   41.1963   23.6949   36.8552 H   0  0  0  0  0  0  0  0  0  0  0  0
   42.3063   23.1181   34.4592 H   0  0  0  0  0  0  0  0  0  0  0  0
   42.5573   22.8120   37.2811 H   0  0  0  0  0  0  0  0  0  0  0  0
   43.7457   22.3124   36.0785 H   0  0  0  0  0  0  0  0  0  0  0  0
   43.6139   24.8361   37.7423 H   0  0  0  0  0  0  0  0  0  0  0  0
   45.0501   23.9664   37.1716 H   0  0  0  0  0  0  0  0  0  0  0  0
   44.3275   26.2988   36.0257 H   0  0  0  0  0  0  0  0  0  0  0  0
   44.9559   25.0228   35.0019 H   0  0  0  0  0  0  0  0  0  0  0  0
   42.8560   25.3051   33.9756 H   0  0  0  0  0  0  0  0  0  0  0  0
   42.0939   25.9081   35.4659 H   0  0  0  0  0  0  0  0  0  0  0  0
   34.8422   20.7178   36.3751 H   0  0  0  0  0  0  0  0  0  0  0  0
   34.8109   19.7712   34.0204 H   0  0  0  0  0  0  0  0  0  0  0  0
   38.4542   21.4329   31.8103 H   0  0  0  0  0  0  0  0  0  0  0  0
   39.7942   21.1326   29.7768 H   0  0  0  0  0  0  0  0  0  0  0  0
   39.2814   19.9337   28.5414 H   0  0  0  0  0  0  0  0  0  0  0  0
   38.5707   21.5834   28.5414 H   0  0  0  0  0  0  0  0  0  0  0  0
   35.2466   18.2890   30.0197 H   0  0  0  0  0  0  0  0  0  0  0  0
  1  2  1  0
  1  9  1  0
  1  3  1  0
  2  3  1  0
  4  3  1  0
  4  5  1  0
  5  6  1  0
  7  6  1  0
  8  4  1  0
  8  7  1  0
 10 15  2  0
 11 10  1  0
 12 13  1  0
 12 11  2  0
 13 14  2  0
 14  9  1  0
 14 15  1  0
 16 12  1  0
 17 16  1  0
 18 17  2  0
 19 18  1  0
 20 18  1  0
 20 22  1  0
 21 20  2  0
 22 23  1  0
 23 16  1  0
 23 24  2  0
  1 25  1  6
  2 26  1  0
  2 27  1  0
  3 28  1  1
  4 29  1  0
  5 30  1  0
  5 31  1  0
  6 32  1  0
  6 33  1  0
  7 34  1  0
  7 35  1  0
  8 36  1  0
  8 37  1  0
 10 38  1  0
 11 39  1  0
 17 40  1  0
 19 41  1  0
 19 42  1  0
 19 43  1  0
 22 44  1  0
M  ISO  8  25  13  26  13  27  13  28  13  29  13  30  13  31  13  32  13
M  ISO  8  33  13  34  13  35  13  36  13  37  13  38  14  39  14  40  14
M  ISO  4  41   8  42   8  43   8  44   9
M  END
>  <minimizedAffinity>  (1) 
-5.23347855

>  <minimizedRMSD>  (1) 
0.680139422

$$$$
