
     RDKit          3D

 45 49  0  0  1  0  0  0  0  0999 V2000
   39.7650   23.3370   35.1670 C   0  0  1  0  0  0  0  0  0  0  0  0
   40.0060   24.8300   35.1190 C   0  0  0  0  0  0  0  0  0  0  0  0
   40.9140   23.9480   35.9000 C   0  0  2  0  0  0  0  0  0  0  0  0
   42.3040   23.8130   35.4170 C   0  0  0  0  0  0  0  0  0  0  0  0
   43.2020   23.2210   36.4720 C   0  0  0  0  0  0  0  0  0  0  0  0
   44.1220   24.3520   36.8980 C   0  0  0  0  0  0  0  0  0  0  0  0
   44.1970   25.2930   35.7160 C   0  0  0  0  0  0  0  0  0  0  0  0
   42.8310   25.1900   35.1080 C   0  0  0  0  0  0  0  0  0  0  0  0
   38.6390   23.0010   35.9820 O   0  0  0  0  0  0  0  0  0  0  0  0
   35.7110   21.0440   36.1340 C   0  0  0  0  0  0  0  0  0  0  0  0
   35.5310   20.5880   34.8000 C   0  0  0  0  0  0  0  0  0  0  0  0
   36.4840   20.9990   33.8580 C   0  0  0  0  0  0  0  0  0  0  0  0
   37.4610   21.7800   34.3230 N   0  0  0  0  0  0  0  0  0  0  0  0
   37.6060   22.1970   35.5960 C   0  0  0  0  0  0  0  0  0  0  0  0
   36.7430   21.8390   36.5090 N   0  0  0  0  0  0  0  0  0  0  0  0
   36.5050   20.7010   32.4650 C   0  0  0  0  0  0  0  0  0  0  0  0
   36.4380   21.7090   31.4930 C   0  0  0  0  0  0  0  0  0  0  0  0
   36.4910   21.1950   30.2520 N   0  0  0  0  0  0  0  0  0  0  0  0
   36.5930   19.8570   30.3240 C   0  0  0  0  0  0  0  0  0  0  0  0
   36.6920   18.8510   29.3900 C   0  0  0  0  0  0  0  0  0  0  0  0
   36.8030   17.5190   29.7740 C   0  0  0  0  0  0  0  0  0  0  0  0
   36.8110   17.2590   31.1340 C   0  0  0  0  0  0  0  0  0  0  0  0
   36.7100   18.2900   32.0310 C   0  0  0  0  0  0  0  0  0  0  0  0
   36.6000   19.5940   31.6590 C   0  0  0  0  0  0  0  0  0  0  0  0
   39.6653   22.5172   34.4404 H   0  0  0  0  0  0  0  0  0  0  0  0
   40.3602   25.3012   34.1903 H   0  0  0  0  0  0  0  0  0  0  0  0
   39.4055   25.7242   35.3423 H   0  0  0  0  0  0  0  0  0  0  0  0
   41.2552   23.8761   36.9433 H   0  0  0  0  0  0  0  0  0  0  0  0
   42.2984   23.1557   34.5350 H   0  0  0  0  0  0  0  0  0  0  0  0
   42.6086   22.8645   37.3269 H   0  0  0  0  0  0  0  0  0  0  0  0
   43.7653   22.3560   36.0920 H   0  0  0  0  0  0  0  0  0  0  0  0
   43.7088   24.8716   37.7751 H   0  0  0  0  0  0  0  0  0  0  0  0
   45.1173   23.9784   37.1805 H   0  0  0  0  0  0  0  0  0  0  0  0
   44.4061   26.3220   36.0438 H   0  0  0  0  0  0  0  0  0  0  0  0
   45.0026   25.0374   35.0120 H   0  0  0  0  0  0  0  0  0  0  0  0
   42.8921   25.3338   34.0191 H   0  0  0  0  0  0  0  0  0  0  0  0
   42.1638   25.9626   35.5178 H   0  0  0  0  0  0  0  0  0  0  0  0
   34.9798   20.7380   36.8967 H   0  0  0  0  0  0  0  0  0  0  0  0
   34.6846   19.9436   34.5203 H   0  0  0  0  0  0  0  0  0  0  0  0
   36.3530   22.7826   31.7170 H   0  0  0  0  0  0  0  0  0  0  0  0
   36.4584   21.7425   29.3801 H   0  0  0  0  0  0  0  0  0  0  0  0
   36.6832   19.1053   28.3198 H   0  0  0  0  0  0  0  0  0  0  0  0
   36.8808   16.7103   29.0324 H   0  0  0  0  0  0  0  0  0  0  0  0
   36.8985   16.2236   31.4948 H   0  0  0  0  0  0  0  0  0  0  0  0
   36.7183   18.0515   33.1048 H   0  0  0  0  0  0  0  0  0  0  0  0
  1  3  1  0
  1  9  1  0
  2  1  1  0
  2  3  1  0
  4  3  1  0
  4  5  1  0
  5  6  1  0
  7  6  1  0
  8  4  1  0
  8  7  1  0
 10 15  2  0
 11 10  1  0
 12 13  1  0
 12 11  2  0
 13 14  2  0
 14  9  1  0
 14 15  1  0
 16 12  1  0
 17 16  2  0
 18 19  1  0
 18 17  1  0
 19 24  2  0
 20 21  2  0
 20 19  1  0
 21 22  1  0
 22 23  2  0
 24 23  1  0
 24 16  1  0
  1 25  1  6
  2 26  1  0
  2 27  1  0
  3 28  1  1
  4 29  1  0
  5 30  1  0
  5 31  1  0
  6 32  1  0
  6 33  1  0
  7 34  1  0
  7 35  1  0
  8 36  1  0
  8 37  1  0
 10 38  1  0
 11 39  1  0
 17 40  1  0
 18 41  1  0
 20 42  1  0
 21 43  1  0
 22 44  1  0
 23 45  1  0
M  ISO  8  25  13  26  13  27  13  28  13  29  13  30  13  31  13  32  13
M  ISO  8  33  13  34  13  35  13  36  13  37  13  38  14  39  14  40  14
M  ISO  5  41   9  42  14  43  14  44  14  45  14
M  END
>  <minimizedAffinity>  (1) 
-5.0576663

>  <minimizedRMSD>  (1) 
0.670763731

$$$$
