
     RDKit          3D

 44 47  0  0  1  0  0  0  0  0999 V2000
   39.7900   23.4170   35.1930 C   0  0  1  0  0  0  0  0  0  0  0  0
   40.0590   24.9120   35.2090 C   0  0  0  0  0  0  0  0  0  0  0  0
   40.9450   23.9810   35.9490 C   0  0  2  0  0  0  0  0  0  0  0  0
   42.3320   23.8320   35.4570 C   0  0  0  0  0  0  0  0  0  0  0  0
   43.2330   23.2620   36.5410 C   0  0  0  0  0  0  0  0  0  0  0  0
   44.1580   24.3980   36.9170 C   0  0  0  0  0  0  0  0  0  0  0  0
   44.2420   25.2950   35.7150 C   0  0  0  0  0  0  0  0  0  0  0  0
   42.8560   25.2150   35.1290 C   0  0  0  0  0  0  0  0  0  0  0  0
   38.6540   23.0610   35.9770 O   0  0  0  0  0  0  0  0  0  0  0  0
   35.7100   21.1340   36.0840 C   0  0  0  0  0  0  0  0  0  0  0  0
   35.6300   20.5630   34.7760 C   0  0  0  0  0  0  0  0  0  0  0  0
   36.6630   20.8900   33.8690 C   0  0  0  0  0  0  0  0  0  0  0  0
   37.6260   21.7090   34.3220 N   0  0  0  0  0  0  0  0  0  0  0  0
   37.6570   22.2270   35.5750 C   0  0  0  0  0  0  0  0  0  0  0  0
   36.7170   21.9530   36.4620 N   0  0  0  0  0  0  0  0  0  0  0  0
   36.6560   19.2570   29.9380 C   0  0  0  0  0  0  0  0  0  0  0  0
   37.2710   20.4900   30.1560 C   0  0  0  0  0  0  0  0  0  0  0  0
   37.2600   20.9980   31.4380 C   0  0  0  0  0  0  0  0  0  0  0  0
   36.6800   20.3630   32.5120 C   0  0  0  0  0  0  0  0  0  0  0  0
   36.0750   19.1460   32.2830 C   0  0  0  0  0  0  0  0  0  0  0  0
   36.0670   18.6060   31.0050 C   0  0  0  0  0  0  0  0  0  0  0  0
   36.6870   18.6410   28.3010 S   0  0  0  0  0  0  0  0  0  0  0  0
   38.0410   19.0230   27.7220 O   0  0  0  0  0  0  0  0  0  0  0  0
   36.6370   17.1370   28.3490 O   0  0  0  0  0  0  0  0  0  0  0  0
   39.6802   22.6272   34.4352 H   0  0  0  0  0  0  0  0  0  0  0  0
   40.4237   25.4162   34.3019 H   0  0  0  0  0  0  0  0  0  0  0  0
   39.4755   25.8072   35.4699 H   0  0  0  0  0  0  0  0  0  0  0  0
   41.2826   23.8653   36.9895 H   0  0  0  0  0  0  0  0  0  0  0  0
   42.3311   23.1606   34.5857 H   0  0  0  0  0  0  0  0  0  0  0  0
   42.6386   22.9433   37.4100 H   0  0  0  0  0  0  0  0  0  0  0  0
   43.7855   22.3757   36.1958 H   0  0  0  0  0  0  0  0  0  0  0  0
   43.7509   24.9511   37.7763 H   0  0  0  0  0  0  0  0  0  0  0  0
   45.1516   24.0236   37.2043 H   0  0  0  0  0  0  0  0  0  0  0  0
   44.4873   26.3263   36.0087 H   0  0  0  0  0  0  0  0  0  0  0  0
   45.0282   24.9949   35.0066 H   0  0  0  0  0  0  0  0  0  0  0  0
   42.8949   25.3584   34.0391 H   0  0  0  0  0  0  0  0  0  0  0  0
   42.2025   25.9974   35.5424 H   0  0  0  0  0  0  0  0  0  0  0  0
   34.9204   20.8975   36.8124 H   0  0  0  0  0  0  0  0  0  0  0  0
   34.8016   19.8989   34.4885 H   0  0  0  0  0  0  0  0  0  0  0  0
   37.7494   21.0394   29.3318 H   0  0  0  0  0  0  0  0  0  0  0  0
   37.7444   21.9700   31.6126 H   0  0  0  0  0  0  0  0  0  0  0  0
   35.5988   18.6032   33.1129 H   0  0  0  0  0  0  0  0  0  0  0  0
   35.5792   17.6345   30.8369 H   0  0  0  0  0  0  0  0  0  0  0  0
   35.6399   19.1348   27.5684 H   0  0  0  0  0  0  0  0  0  0  0  0
  1  2  1  0
  1  3  1  0
  1  9  1  0
  2  3  1  0
  4  3  1  0
  4  5  1  0
  5  6  1  0
  7  6  1  0
  8  4  1  0
  8  7  1  0
 10 15  2  0
 11 10  1  0
 12 13  1  0
 12 11  2  0
 13 14  2  0
 14  9  1  0
 14 15  1  0
 16 17  2  0
 16 21  1  0
 17 18  1  0
 18 19  2  0
 19 12  1  0
 20 19  1  0
 21 20  2  0
 22 24  2  0
 22 16  1  0
 23 22  2  0
  1 25  1  6
  2 26  1  0
  2 27  1  0
  3 28  1  1
  4 29  1  0
  5 30  1  0
  5 31  1  0
  6 32  1  0
  6 33  1  0
  7 34  1  0
  7 35  1  0
  8 36  1  0
  8 37  1  0
 10 38  1  0
 11 39  1  0
 17 40  1  0
 18 41  1  0
 20 42  1  0
 21 43  1  0
 22 44  1  0
M  ISO  8  25  13  26  13  27  13  28  13  29  13  30  13  31  13  32  13
M  ISO  8  33  13  34  13  35  13  36  13  37  13  38  14  39  14  40  14
M  ISO  4  41  14  42  14  43  14  44  11
M  END
>  <minimizedAffinity>  (1) 
-4.77945948

>  <minimizedRMSD>  (1) 
0.889936388

$$$$
