
     RDKit          3D

 43 45  0  0  1  0  0  0  0  0999 V2000
   39.7590   23.3180   35.0460 C   0  0  1  0  0  0  0  0  0  0  0  0
   40.0060   24.8200   35.0410 C   0  0  0  0  0  0  0  0  0  0  0  0
   40.8960   23.9000   35.8090 C   0  0  2  0  0  0  0  0  0  0  0  0
   42.2960   23.7750   35.3530 C   0  0  0  0  0  0  0  0  0  0  0  0
   43.1640   23.1810   36.4500 C   0  0  0  0  0  0  0  0  0  0  0  0
   44.0750   24.3020   36.8800 C   0  0  0  0  0  0  0  0  0  0  0  0
   44.1640   25.2650   35.7370 C   0  0  0  0  0  0  0  0  0  0  0  0
   42.8330   25.1460   35.0530 C   0  0  0  0  0  0  0  0  0  0  0  0
   38.6130   22.9660   35.7890 O   0  0  0  0  0  0  0  0  0  0  0  0
   35.7890   20.8580   35.8440 C   0  0  0  0  0  0  0  0  0  0  0  0
   35.5300   20.5900   34.4640 C   0  0  0  0  0  0  0  0  0  0  0  0
   36.4040   21.1870   33.5250 C   0  0  0  0  0  0  0  0  0  0  0  0
   37.4010   21.9560   33.9980 N   0  0  0  0  0  0  0  0  0  0  0  0
   37.5900   22.1720   35.3440 C   0  0  0  0  0  0  0  0  0  0  0  0
   36.8100   21.6420   36.2560 N   0  0  0  0  0  0  0  0  0  0  0  0
   36.1990   20.9550   32.0890 C   0  0  0  0  0  0  0  0  0  0  0  0
   35.0650   19.9500   31.8860 C   0  0  0  0  0  0  0  0  0  0  0  0
   35.8010   22.2090   31.3530 C   0  0  0  0  0  0  0  0  0  0  0  0
   37.4340   20.3060   31.4820 C   0  0  0  0  0  0  0  0  0  0  0  0
   39.6774   22.5101   34.3040 H   0  0  0  0  0  0  0  0  0  0  0  0
   40.3767   25.3158   34.1317 H   0  0  0  0  0  0  0  0  0  0  0  0
   39.4090   25.7124   35.2802 H   0  0  0  0  0  0  0  0  0  0  0  0
   41.2193   23.7900   36.8547 H   0  0  0  0  0  0  0  0  0  0  0  0
   42.3162   23.1268   34.4645 H   0  0  0  0  0  0  0  0  0  0  0  0
   42.5434   22.8428   37.2929 H   0  0  0  0  0  0  0  0  0  0  0  0
   43.7273   22.3033   36.1001 H   0  0  0  0  0  0  0  0  0  0  0  0
   43.6602   24.8058   37.7655 H   0  0  0  0  0  0  0  0  0  0  0  0
   45.0709   23.9160   37.1432 H   0  0  0  0  0  0  0  0  0  0  0  0
   44.3252   26.2901   36.1018 H   0  0  0  0  0  0  0  0  0  0  0  0
   45.0056   25.0445   35.0639 H   0  0  0  0  0  0  0  0  0  0  0  0
   42.9553   25.2728   33.9672 H   0  0  0  0  0  0  0  0  0  0  0  0
   42.1407   25.9219   35.4117 H   0  0  0  0  0  0  0  0  0  0  0  0
   35.1306   20.4078   36.6015 H   0  0  0  0  0  0  0  0  0  0  0  0
   34.6924   19.9510   34.1476 H   0  0  0  0  0  0  0  0  0  0  0  0
   34.6900   19.6176   32.8652 H   0  0  0  0  0  0  0  0  0  0  0  0
   34.2488   20.4268   31.3234 H   0  0  0  0  0  0  0  0  0  0  0  0
   35.4402   19.0825   31.3234 H   0  0  0  0  0  0  0  0  0  0  0  0
   35.5510   22.9966   32.0791 H   0  0  0  0  0  0  0  0  0  0  0  0
   36.6368   22.5444   30.7214 H   0  0  0  0  0  0  0  0  0  0  0  0
   34.9247   22.0010   30.7214 H   0  0  0  0  0  0  0  0  0  0  0  0
   38.0979   19.9571   32.2867 H   0  0  0  0  0  0  0  0  0  0  0  0
   37.1307   19.4508   30.8602 H   0  0  0  0  0  0  0  0  0  0  0  0
   37.9663   21.0409   30.8602 H   0  0  0  0  0  0  0  0  0  0  0  0
  1  9  1  0
  1  3  1  0
  2  1  1  0
  2  3  1  0
  4  3  1  0
  4  5  1  0
  5  6  1  0
  7  6  1  0
  8  4  1  0
  8  7  1  0
 10 15  2  0
 11 10  1  0
 12 13  1  0
 12 11  2  0
 13 14  2  0
 14  9  1  0
 14 15  1  0
 16 12  1  0
 17 16  1  0
 18 16  1  0
 19 16  1  0
  1 20  1  6
  2 21  1  0
  2 22  1  0
  3 23  1  1
  4 24  1  0
  5 25  1  0
  5 26  1  0
  6 27  1  0
  6 28  1  0
  7 29  1  0
  7 30  1  0
  8 31  1  0
  8 32  1  0
 10 33  1  0
 11 34  1  0
 17 35  1  0
 17 36  1  0
 17 37  1  0
 18 38  1  0
 18 39  1  0
 18 40  1  0
 19 41  1  0
 19 42  1  0
 19 43  1  0
M  ISO  8  20  13  21  13  22  13  23  13  24  13  25  13  26  13  27  13
M  ISO  8  28  13  29  13  30  13  31  13  32  13  33  14  34  14  35   8
M  ISO  8  36   8  37   8  38   8  39   8  40   8  41   8  42   8  43   8
M  END
>  <minimizedAffinity>  (1) 
-4.74840498

>  <minimizedRMSD>  (1) 
0.591553807

$$$$
