
     RDKit          3D

 41 44  0  0  1  0  0  0  0  0999 V2000
   39.8120   23.5330   35.2910 C   0  0  1  0  0  0  0  0  0  0  0  0
   40.1120   25.0040   35.0560 C   0  0  0  0  0  0  0  0  0  0  0  0
   40.9990   24.1660   35.9210 C   0  0  2  0  0  0  0  0  0  0  0  0
   42.3700   23.9190   35.4300 C   0  0  0  0  0  0  0  0  0  0  0  0
   43.2150   23.2530   36.5050 C   0  0  0  0  0  0  0  0  0  0  0  0
   44.2230   24.3150   36.9130 C   0  0  0  0  0  0  0  0  0  0  0  0
   44.3860   25.2240   35.7320 C   0  0  0  0  0  0  0  0  0  0  0  0
   43.0110   25.2470   35.1130 C   0  0  0  0  0  0  0  0  0  0  0  0
   38.6810   23.3410   36.1160 O   0  0  0  0  0  0  0  0  0  0  0  0
   35.7900   21.3960   36.6370 C   0  0  0  0  0  0  0  0  0  0  0  0
   35.5680   20.7620   35.3740 C   0  0  0  0  0  0  0  0  0  0  0  0
   36.4930   21.0600   34.3470 C   0  0  0  0  0  0  0  0  0  0  0  0
   37.4980   21.9060   34.6310 N   0  0  0  0  0  0  0  0  0  0  0  0
   37.6510   22.4820   35.8690 C   0  0  0  0  0  0  0  0  0  0  0  0
   36.8180   22.2340   36.8500 N   0  0  0  0  0  0  0  0  0  0  0  0
   36.4040   20.4950   33.0150 C   0  0  0  0  0  0  0  0  0  0  0  0
   35.6560   19.3440   32.8880 C   0  0  0  0  0  0  0  0  0  0  0  0
   35.5300   18.7490   31.6270 C   0  0  0  0  0  0  0  0  0  0  0  0
   36.1620   19.3330   30.5310 C   0  0  0  0  0  0  0  0  0  0  0  0
   36.9250   20.5000   30.6400 C   0  0  0  0  0  0  0  0  0  0  0  0
   37.0110   21.0400   31.9060 C   0  0  0  0  0  0  0  0  0  0  0  0
   39.6713   22.6301   34.6787 H   0  0  0  0  0  0  0  0  0  0  0  0
   40.4633   25.3460   34.0713 H   0  0  0  0  0  0  0  0  0  0  0  0
   39.5586   25.9463   35.1816 H   0  0  0  0  0  0  0  0  0  0  0  0
   41.3600   24.1918   36.9598 H   0  0  0  0  0  0  0  0  0  0  0  0
   42.3141   23.2681   34.5450 H   0  0  0  0  0  0  0  0  0  0  0  0
   42.5917   22.9594   37.3625 H   0  0  0  0  0  0  0  0  0  0  0  0
   43.7001   22.3339   36.1445 H   0  0  0  0  0  0  0  0  0  0  0  0
   43.8492   24.8808   37.7792 H   0  0  0  0  0  0  0  0  0  0  0  0
   45.1830   23.8620   37.2015 H   0  0  0  0  0  0  0  0  0  0  0  0
   44.6906   26.2318   36.0506 H   0  0  0  0  0  0  0  0  0  0  0  0
   45.1646   24.8835   35.0336 H   0  0  0  0  0  0  0  0  0  0  0  0
   43.0879   25.3803   34.0238 H   0  0  0  0  0  0  0  0  0  0  0  0
   42.4124   26.0799   35.5104 H   0  0  0  0  0  0  0  0  0  0  0  0
   35.0939   21.1899   37.4634 H   0  0  0  0  0  0  0  0  0  0  0  0
   34.7219   20.0784   35.2104 H   0  0  0  0  0  0  0  0  0  0  0  0
   35.1647   18.8990   33.7658 H   0  0  0  0  0  0  0  0  0  0  0  0
   34.9383   17.8301   31.5027 H   0  0  0  0  0  0  0  0  0  0  0  0
   36.0569   18.8588   29.5440 H   0  0  0  0  0  0  0  0  0  0  0  0
   37.4238   20.9572   29.7727 H   0  0  0  0  0  0  0  0  0  0  0  0
   37.5991   21.9602   32.0375 H   0  0  0  0  0  0  0  0  0  0  0  0
  1  3  1  0
  1  9  1  0
  2  1  1  0
  2  3  1  0
  4  3  1  0
  4  5  1  0
  5  6  1  0
  7  6  1  0
  8  4  1  0
  8  7  1  0
 10 15  2  0
 11 10  1  0
 12 13  1  0
 12 11  2  0
 13 14  2  0
 14  9  1  0
 14 15  1  0
 16 12  1  0
 17 16  2  0
 18 17  1  0
 19 20  1  0
 19 18  2  0
 20 21  2  0
 21 16  1  0
  1 22  1  6
  2 23  1  0
  2 24  1  0
  3 25  1  1
  4 26  1  0
  5 27  1  0
  5 28  1  0
  6 29  1  0
  6 30  1  0
  7 31  1  0
  7 32  1  0
  8 33  1  0
  8 34  1  0
 10 35  1  0
 11 36  1  0
 17 37  1  0
 18 38  1  0
 19 39  1  0
 20 40  1  0
 21 41  1  0
M  ISO  8  22  13  23  13  24  13  25  13  26  13  27  13  28  13  29  13
M  ISO  8  30  13  31  13  32  13  33  13  34  13  35  14  36  14  37  14
M  ISO  4  38  14  39  14  40  14  41  14
M  END
>  <minimizedAffinity>  (1) 
-4.73630381

>  <minimizedRMSD>  (1) 
1.06806839

$$$$
