
     RDKit          3D

 36 39  0  0  1  0  0  0  0  0999 V2000
   39.7900   23.3510   35.1420 C   0  0  1  0  0  0  0  0  0  0  0  0
   40.0250   24.8490   35.1230 C   0  0  0  0  0  0  0  0  0  0  0  0
   40.9330   23.9480   35.8910 C   0  0  2  0  0  0  0  0  0  0  0  0
   42.3240   23.8250   35.4100 C   0  0  0  0  0  0  0  0  0  0  0  0
   43.2180   23.2280   36.4850 C   0  0  0  0  0  0  0  0  0  0  0  0
   44.1300   24.3500   36.9110 C   0  0  0  0  0  0  0  0  0  0  0  0
   44.2020   25.3180   35.7510 C   0  0  0  0  0  0  0  0  0  0  0  0
   42.8540   25.2090   35.1100 C   0  0  0  0  0  0  0  0  0  0  0  0
   38.6580   22.9950   35.9370 O   0  0  0  0  0  0  0  0  0  0  0  0
   35.7370   21.0210   35.9910 C   0  0  0  0  0  0  0  0  0  0  0  0
   35.5740   20.5770   34.6630 C   0  0  0  0  0  0  0  0  0  0  0  0
   36.5520   21.0080   33.7340 C   0  0  0  0  0  0  0  0  0  0  0  0
   37.5370   21.7910   34.1870 N   0  0  0  0  0  0  0  0  0  0  0  0
   37.6370   22.1860   35.4900 C   0  0  0  0  0  0  0  0  0  0  0  0
   36.7600   21.8160   36.3930 N   0  0  0  0  0  0  0  0  0  0  0  0
   36.4310   20.5800   32.3490 C   0  0  0  0  0  0  0  0  0  0  0  0
   36.3280   21.1890   31.1530 N   0  0  0  0  0  0  0  0  0  0  0  0
   36.2450   20.2890   30.2080 O   0  0  0  0  0  0  0  0  0  0  0  0
   36.2920   19.0850   30.7570 C   0  0  0  0  0  0  0  0  0  0  0  0
   36.4090   19.2620   32.1060 N   0  0  0  0  0  0  0  0  0  0  0  0
   39.6986   22.5437   34.4004 H   0  0  0  0  0  0  0  0  0  0  0  0
   40.3817   25.3398   34.2055 H   0  0  0  0  0  0  0  0  0  0  0  0
   39.4217   25.7375   35.3610 H   0  0  0  0  0  0  0  0  0  0  0  0
   41.2696   23.8546   36.9341 H   0  0  0  0  0  0  0  0  0  0  0  0
   42.3275   23.1787   34.5199 H   0  0  0  0  0  0  0  0  0  0  0  0
   42.6158   22.8767   37.3358 H   0  0  0  0  0  0  0  0  0  0  0  0
   43.7817   22.3592   36.1142 H   0  0  0  0  0  0  0  0  0  0  0  0
   43.7216   24.8534   37.7997 H   0  0  0  0  0  0  0  0  0  0  0  0
   45.1290   23.9700   37.1709 H   0  0  0  0  0  0  0  0  0  0  0  0
   44.3850   26.3427   36.1066 H   0  0  0  0  0  0  0  0  0  0  0  0
   45.0231   25.0883   35.0560 H   0  0  0  0  0  0  0  0  0  0  0  0
   42.9416   25.3510   34.0227 H   0  0  0  0  0  0  0  0  0  0  0  0
   42.1735   25.9798   35.5008 H   0  0  0  0  0  0  0  0  0  0  0  0
   34.9959   20.7063   36.7405 H   0  0  0  0  0  0  0  0  0  0  0  0
   34.7342   19.9320   34.3651 H   0  0  0  0  0  0  0  0  0  0  0  0
   36.2455   18.1227   30.2261 H   0  0  0  0  0  0  0  0  0  0  0  0
  1  3  1  0
  1  9  1  0
  2  1  1  0
  2  3  1  0
  4  3  1  0
  4  5  1  0
  5  6  1  0
  7  6  1  0
  8  4  1  0
  8  7  1  0
 10 15  2  0
 11 10  1  0
 12 13  1  0
 12 11  2  0
 13 14  2  0
 14  9  1  0
 14 15  1  0
 16 12  1  0
 17 16  2  0
 18 19  1  0
 18 17  1  0
 19 20  2  0
 20 16  1  0
  1 21  1  6
  2 22  1  0
  2 23  1  0
  3 24  1  1
  4 25  1  0
  5 26  1  0
  5 27  1  0
  6 28  1  0
  6 29  1  0
  7 30  1  0
  7 31  1  0
  8 32  1  0
  8 33  1  0
 10 34  1  0
 11 35  1  0
 19 36  1  0
M  ISO  8  21  13  22  13  23  13  24  13  25  13  26  13  27  13  28  13
M  ISO  8  29  13  30  13  31  13  32  13  33  13  34  14  35  14  36  14
M  END
>  <minimizedAffinity>  (1) 
-4.54916716

>  <minimizedRMSD>  (1) 
0.440436393

$$$$
