
     RDKit          3D

 43 46  0  0  0  0  0  0  0  0999 V2000
   37.3170   22.5380   37.3000 C   0  0  0  0  0  0  0  0  0  0  0  0
   36.9860   21.9490   36.0170 C   0  0  0  0  0  0  0  0  0  0  0  0
   35.9120   21.1650   35.8170 C   0  0  0  0  0  0  0  0  0  0  0  0
   35.5390   20.5930   34.6670 C   0  0  0  0  0  0  0  0  0  0  0  0
   36.5080   20.9530   33.5940 C   0  0  0  0  0  0  0  0  0  0  0  0
   37.7870   22.0540   34.4390 S   0  0  0  0  0  0  0  0  0  0  0  0
   36.5940   20.6310   32.2240 N   0  0  0  0  0  0  0  0  0  0  0  0
   36.7790   21.4630   31.1890 C   0  0  0  0  0  0  0  0  0  0  0  0
   36.7940   20.7090   30.0820 N   0  0  0  0  0  0  0  0  0  0  0  0
   36.6210   19.4280   30.4080 C   0  0  0  0  0  0  0  0  0  0  0  0
   36.5680   18.3050   29.5880 C   0  0  0  0  0  0  0  0  0  0  0  0
   36.6870   18.3670   28.3310 O   0  0  0  0  0  0  0  0  0  0  0  0
   36.3820   17.0970   30.1590 N   0  0  0  0  0  0  0  0  0  0  0  0
   36.2550   17.0290   31.5030 C   0  0  0  0  0  0  0  0  0  0  0  0
   36.0550   15.8160   32.2220 N   0  0  0  0  0  0  0  0  0  0  0  0
   36.3100   18.1260   32.2660 N   0  0  0  0  0  0  0  0  0  0  0  0
   36.4920   19.3650   31.7760 C   0  0  0  0  0  0  0  0  0  0  0  0
   38.2070   23.7590   37.2180 C   0  0  0  0  0  0  0  0  0  0  0  0
   41.5230   21.9870   37.2010 C   0  0  0  0  0  0  0  0  0  0  0  0
   40.2270   22.3040   37.5930 C   0  0  0  0  0  0  0  0  0  0  0  0
   39.5700   23.3410   36.8930 C   0  0  0  0  0  0  0  0  0  0  0  0
   40.2250   23.9730   35.8810 N   0  0  0  0  0  0  0  0  0  0  0  0
   41.4760   23.6320   35.5370 C   0  0  0  0  0  0  0  0  0  0  0  0
   42.1290   22.6430   36.1910 N   0  0  0  0  0  0  0  0  0  0  0  0
   38.2470   24.4050   38.6130 C   0  0  0  0  0  0  0  0  0  0  0  0
   37.5900   24.6920   36.2170 C   0  0  0  0  0  0  0  0  0  0  0  0
   36.3796   22.8286   37.7969 H   0  0  0  0  0  0  0  0  0  0  0  0
   37.8809   21.7762   37.8583 H   0  0  0  0  0  0  0  0  0  0  0  0
   35.2727   20.9739   36.6915 H   0  0  0  0  0  0  0  0  0  0  0  0
   34.6530   19.9548   34.5338 H   0  0  0  0  0  0  0  0  0  0  0  0
   36.8960   22.5556   31.2393 H   0  0  0  0  0  0  0  0  0  0  0  0
   36.3377   16.2443   29.5829 H   0  0  0  0  0  0  0  0  0  0  0  0
   35.9659   15.8342   33.2480 H   0  0  0  0  0  0  0  0  0  0  0  0
   35.9994   14.9206   31.7160 H   0  0  0  0  0  0  0  0  0  0  0  0
   42.0642   21.1855   37.7251 H   0  0  0  0  0  0  0  0  0  0  0  0
   39.7322   21.7681   38.4164 H   0  0  0  0  0  0  0  0  0  0  0  0
   41.9770   24.1623   34.7138 H   0  0  0  0  0  0  0  0  0  0  0  0
   38.1984   23.6201   39.3821 H   0  0  0  0  0  0  0  0  0  0  0  0
   39.1820   24.9730   38.7274 H   0  0  0  0  0  0  0  0  0  0  0  0
   37.3892   25.0840   38.7274 H   0  0  0  0  0  0  0  0  0  0  0  0
   37.0578   25.4968   36.7453 H   0  0  0  0  0  0  0  0  0  0  0  0
   38.3792   25.1269   35.5861 H   0  0  0  0  0  0  0  0  0  0  0  0
   36.8809   24.1361   35.5861 H   0  0  0  0  0  0  0  0  0  0  0  0
  2  1  1  0
  3  2  2  0
  4  3  1  0
  5  6  1  0
  5  4  2  0
  6  2  1  0
  7  5  1  0
  8  7  1  0
  9 10  1  0
  9  8  2  0
 10 17  2  0
 11 13  1  0
 11 10  1  0
 12 11  2  0
 13 14  1  0
 14 15  1  0
 14 16  2  0
 17  7  1  0
 17 16  1  0
 18  1  1  0
 18 25  1  0
 19 20  2  0
 21 18  1  0
 21 20  1  0
 22 21  2  0
 23 22  1  0
 23 24  2  0
 24 19  1  0
 26 18  1  0
  1 27  1  0
  1 28  1  0
  3 29  1  0
  4 30  1  0
  8 31  1  0
 13 32  1  0
 15 33  1  0
 15 34  1  0
 19 35  1  0
 20 36  1  0
 23 37  1  0
 25 38  1  0
 25 39  1  0
 25 40  1  0
 26 41  1  0
 26 42  1  0
 26 43  1  0
M  ISO  8  27   8  28   8  29  14  30  14  31  14  32   9  35  14  36  14
M  ISO  7  37  14  38   8  39   8  40   8  41   8  42   8  43   8
M  END
>  <minimizedAffinity>  (1) 
-5.47903442

>  <minimizedRMSD>  (1) 
1.18528569

$$$$
