
     RDKit          3D

 38 41  0  0  1  0  0  0  0  0999 V2000
   39.7220   23.3130   35.0190 C   0  0  1  0  0  0  0  0  0  0  0  0
   39.9700   24.7820   35.3030 C   0  0  0  0  0  0  0  0  0  0  0  0
   40.8630   23.7410   35.8780 C   0  0  2  0  0  0  0  0  0  0  0  0
   42.2560   23.7060   35.3860 C   0  0  0  0  0  0  0  0  0  0  0  0
   43.1880   23.1560   36.4540 C   0  0  0  0  0  0  0  0  0  0  0  0
   44.0410   24.3220   36.8750 C   0  0  0  0  0  0  0  0  0  0  0  0
   44.0750   25.2600   35.6870 C   0  0  0  0  0  0  0  0  0  0  0  0
   42.6940   25.1280   35.1200 C   0  0  0  0  0  0  0  0  0  0  0  0
   38.5870   22.8130   35.7270 O   0  0  0  0  0  0  0  0  0  0  0  0
   35.6710   20.8570   35.4320 C   0  0  0  0  0  0  0  0  0  0  0  0
   35.6740   20.4020   34.0990 C   0  0  0  0  0  0  0  0  0  0  0  0
   36.7610   20.8160   33.2930 C   0  0  0  0  0  0  0  0  0  0  0  0
   37.6940   21.6010   33.8530 N   0  0  0  0  0  0  0  0  0  0  0  0
   37.6250   22.0060   35.1670 C   0  0  0  0  0  0  0  0  0  0  0  0
   36.6370   21.6510   35.9620 N   0  0  0  0  0  0  0  0  0  0  0  0
   36.8340   20.3920   31.9200 C   0  0  0  0  0  0  0  0  0  0  0  0
   35.8760   19.6700   31.2380 C   0  0  0  0  0  0  0  0  0  0  0  0
   36.3150   19.4720   29.9810 N   0  0  0  0  0  0  0  0  0  0  0  0
   37.5310   20.0790   29.9280 C   0  0  0  0  0  0  0  0  0  0  0  0
   37.8750   20.6540   31.1100 N   0  0  0  0  0  0  0  0  0  0  0  0
   39.6273   22.6731   34.1293 H   0  0  0  0  0  0  0  0  0  0  0  0
   40.3371   25.4436   34.5046 H   0  0  0  0  0  0  0  0  0  0  0  0
   39.3720   25.6100   35.7115 H   0  0  0  0  0  0  0  0  0  0  0  0
   41.1913   23.4390   36.8835 H   0  0  0  0  0  0  0  0  0  0  0  0
   42.2978   23.0748   34.4861 H   0  0  0  0  0  0  0  0  0  0  0  0
   42.6111   22.7722   37.3084 H   0  0  0  0  0  0  0  0  0  0  0  0
   43.7943   22.3189   36.0777 H   0  0  0  0  0  0  0  0  0  0  0  0
   43.5983   24.8250   37.7474 H   0  0  0  0  0  0  0  0  0  0  0  0
   45.0520   23.9996   37.1647 H   0  0  0  0  0  0  0  0  0  0  0  0
   44.2759   26.2939   36.0042 H   0  0  0  0  0  0  0  0  0  0  0  0
   44.8677   25.0181   34.9637 H   0  0  0  0  0  0  0  0  0  0  0  0
   42.7068   25.3258   34.0380 H   0  0  0  0  0  0  0  0  0  0  0  0
   42.0037   25.8500   35.5807 H   0  0  0  0  0  0  0  0  0  0  0  0
   34.8376   20.5514   36.0817 H   0  0  0  0  0  0  0  0  0  0  0  0
   34.8734   19.7586   33.7052 H   0  0  0  0  0  0  0  0  0  0  0  0
   34.9191   19.3173   31.6502 H   0  0  0  0  0  0  0  0  0  0  0  0
   38.1647   20.1018   29.0292 H   0  0  0  0  0  0  0  0  0  0  0  0
   38.7364   21.1722   31.3344 H   0  0  0  0  0  0  0  0  0  0  0  0
  1  2  1  0
  1  9  1  0
  1  3  1  0
  2  3  1  0
  4  3  1  0
  4  5  1  0
  5  6  1  0
  7  6  1  0
  8  4  1  0
  8  7  1  0
 10 15  2  0
 11 10  1  0
 12 13  1  0
 12 11  2  0
 13 14  2  0
 14  9  1  0
 14 15  1  0
 16 12  1  0
 17 16  2  0
 18 17  1  0
 19 18  2  0
 19 20  1  0
 20 16  1  0
  1 21  1  6
  2 22  1  0
  2 23  1  0
  3 24  1  1
  4 25  1  0
  5 26  1  0
  5 27  1  0
  6 28  1  0
  6 29  1  0
  7 30  1  0
  7 31  1  0
  8 32  1  0
  8 33  1  0
 10 34  1  0
 11 35  1  0
 17 36  1  0
 19 37  1  0
 20 38  1  0
M  ISO  8  21  13  22  13  23  13  24  13  25  13  26  13  27  13  28  13
M  ISO  8  29  13  30  13  31  13  32  13  33  13  34  14  35  14  36  14
M  ISO  2  37  14  38   9
M  END
>  <minimizedAffinity>  (1) 
-4.44699287

>  <minimizedRMSD>  (1) 
0.527068734

$$$$
