
     RDKit          3D

 44 47  0  0  1  0  0  0  0  0999 V2000
   39.7920   23.3380   35.0670 C   0  0  1  0  0  0  0  0  0  0  0  0
   40.0450   24.7800   35.4560 C   0  0  0  0  0  0  0  0  0  0  0  0
   40.9420   23.6870   35.9420 C   0  0  2  0  0  0  0  0  0  0  0  0
   42.3320   23.6900   35.4450 C   0  0  0  0  0  0  0  0  0  0  0  0
   43.2930   23.2030   36.5110 C   0  0  0  0  0  0  0  0  0  0  0  0
   44.0850   24.4160   36.9250 C   0  0  0  0  0  0  0  0  0  0  0  0
   44.0710   25.3590   35.7440 C   0  0  0  0  0  0  0  0  0  0  0  0
   42.7240   25.1090   35.1320 C   0  0  0  0  0  0  0  0  0  0  0  0
   38.6580   22.7880   35.7230 O   0  0  0  0  0  0  0  0  0  0  0  0
   35.7290   20.8830   35.2890 C   0  0  0  0  0  0  0  0  0  0  0  0
   35.7720   20.4610   33.9490 C   0  0  0  0  0  0  0  0  0  0  0  0
   36.8910   20.8760   33.1910 C   0  0  0  0  0  0  0  0  0  0  0  0
   37.8260   21.6340   33.7810 N   0  0  0  0  0  0  0  0  0  0  0  0
   37.7050   22.0050   35.1020 C   0  0  0  0  0  0  0  0  0  0  0  0
   36.6840   21.6510   35.8750 N   0  0  0  0  0  0  0  0  0  0  0  0
   37.0130   20.4960   31.8390 N   0  0  0  0  0  0  0  0  0  0  0  0
   37.5340   21.3550   30.8040 C   0  0  0  0  0  0  0  0  0  0  0  0
   38.2440   20.4950   29.7800 C   0  0  0  0  0  0  0  0  0  0  0  0
   37.4860   19.4710   29.2730 O   0  0  0  0  0  0  0  0  0  0  0  0
   36.3140   19.2180   29.9400 C   0  0  0  0  0  0  0  0  0  0  0  0
   36.5990   19.1690   31.4250 C   0  0  0  0  0  0  0  0  0  0  0  0
   39.6902   22.7664   34.1327 H   0  0  0  0  0  0  0  0  0  0  0  0
   40.4068   25.4989   34.7062 H   0  0  0  0  0  0  0  0  0  0  0  0
   39.4548   25.5774   35.9312 H   0  0  0  0  0  0  0  0  0  0  0  0
   41.2781   23.2992   36.9150 H   0  0  0  0  0  0  0  0  0  0  0  0
   42.3819   23.0338   34.5636 H   0  0  0  0  0  0  0  0  0  0  0  0
   42.7397   22.7941   37.3693 H   0  0  0  0  0  0  0  0  0  0  0  0
   43.9441   22.3994   36.1365 H   0  0  0  0  0  0  0  0  0  0  0  0
   43.6190   24.8943   37.7991 H   0  0  0  0  0  0  0  0  0  0  0  0
   45.1132   24.1439   37.2055 H   0  0  0  0  0  0  0  0  0  0  0  0
   44.1692   26.4046   36.0712 H   0  0  0  0  0  0  0  0  0  0  0  0
   44.9037   25.1923   35.0449 H   0  0  0  0  0  0  0  0  0  0  0  0
   42.7759   25.2511   34.0425 H   0  0  0  0  0  0  0  0  0  0  0  0
   41.9812   25.8111   35.5386 H   0  0  0  0  0  0  0  0  0  0  0  0
   34.8692   20.5723   35.9007 H   0  0  0  0  0  0  0  0  0  0  0  0
   34.9760   19.8398   33.5125 H   0  0  0  0  0  0  0  0  0  0  0  0
   36.7082   21.8997   30.3230 H   0  0  0  0  0  0  0  0  0  0  0  0
   38.2353   22.0840   31.2361 H   0  0  0  0  0  0  0  0  0  0  0  0
   38.5526   21.1402   28.9443 H   0  0  0  0  0  0  0  0  0  0  0  0
   39.0935   20.0276   30.2994 H   0  0  0  0  0  0  0  0  0  0  0  0
   35.5885   20.0175   29.7290 H   0  0  0  0  0  0  0  0  0  0  0  0
   35.8950   18.2567   29.6079 H   0  0  0  0  0  0  0  0  0  0  0  0
   35.6913   18.8724   31.9710 H   0  0  0  0  0  0  0  0  0  0  0  0
   37.3884   18.4342   31.6416 H   0  0  0  0  0  0  0  0  0  0  0  0
  1  2  1  0
  1  9  1  0
  1  3  1  0
  2  3  1  0
  4  3  1  0
  4  5  1  0
  5  6  1  0
  7  6  1  0
  8  4  1  0
  8  7  1  0
 10 15  2  0
 11 10  1  0
 12 13  1  0
 12 11  2  0
 13 14  2  0
 14  9  1  0
 14 15  1  0
 16 12  1  0
 17 16  1  0
 18 17  1  0
 19 18  1  0
 19 20  1  0
 20 21  1  0
 21 16  1  0
  1 22  1  6
  2 23  1  0
  2 24  1  0
  3 25  1  1
  4 26  1  0
  5 27  1  0
  5 28  1  0
  6 29  1  0
  6 30  1  0
  7 31  1  0
  7 32  1  0
  8 33  1  0
  8 34  1  0
 10 35  1  0
 11 36  1  0
 17 37  1  0
 17 38  1  0
 18 39  1  0
 18 40  1  0
 20 41  1  0
 20 42  1  0
 21 43  1  0
 21 44  1  0
M  ISO  8  22  13  23  13  24  13  25  13  26  13  27  13  28  13  29  13
M  ISO  8  30  13  31  13  32  13  33  13  34  13  35  14  36  14  37  13
M  ISO  7  38  13  39  13  40  13  41  13  42  13  43  13  44  13
M  END
>  <minimizedAffinity>  (1) 
-4.38980675

>  <minimizedRMSD>  (1) 
0.455613375

$$$$
