
     RDKit          3D

 32 34  0  0  1  0  0  0  0  0999 V2000
   39.7520   23.2350   35.0630 C   0  0  1  0  0  0  0  0  0  0  0  0
   39.9680   24.7260   35.2620 C   0  0  0  0  0  0  0  0  0  0  0  0
   40.8860   23.7350   35.8880 C   0  0  2  0  0  0  0  0  0  0  0  0
   42.2810   23.7020   35.3970 C   0  0  0  0  0  0  0  0  0  0  0  0
   43.2130   23.1540   36.4640 C   0  0  0  0  0  0  0  0  0  0  0  0
   44.0600   24.3230   36.8910 C   0  0  0  0  0  0  0  0  0  0  0  0
   44.0680   25.3050   35.7510 C   0  0  0  0  0  0  0  0  0  0  0  0
   42.7270   25.1020   35.1010 C   0  0  0  0  0  0  0  0  0  0  0  0
   38.6260   22.7540   35.7770 O   0  0  0  0  0  0  0  0  0  0  0  0
   35.6870   20.8230   35.5430 C   0  0  0  0  0  0  0  0  0  0  0  0
   35.5530   20.5340   34.1720 C   0  0  0  0  0  0  0  0  0  0  0  0
   36.5560   21.0540   33.3210 C   0  0  0  0  0  0  0  0  0  0  0  0
   37.5430   21.7710   33.8790 N   0  0  0  0  0  0  0  0  0  0  0  0
   37.6100   22.0140   35.2310 C   0  0  0  0  0  0  0  0  0  0  0  0
   36.7050   21.5560   36.0630 N   0  0  0  0  0  0  0  0  0  0  0  0
   36.4890   20.7500   31.5640 S   0  0  0  0  0  0  0  0  0  0  0  0
   39.6740   22.5381   34.2155 H   0  0  0  0  0  0  0  0  0  0  0  0
   40.3165   25.3496   34.4256 H   0  0  0  0  0  0  0  0  0  0  0  0
   39.3546   25.5630   35.6270 H   0  0  0  0  0  0  0  0  0  0  0  0
   41.2253   23.4953   36.9065 H   0  0  0  0  0  0  0  0  0  0  0  0
   42.3152   23.0645   34.5012 H   0  0  0  0  0  0  0  0  0  0  0  0
   42.6364   22.7645   37.3160 H   0  0  0  0  0  0  0  0  0  0  0  0
   43.8244   22.3214   36.0858 H   0  0  0  0  0  0  0  0  0  0  0  0
   43.6311   24.7913   37.7891 H   0  0  0  0  0  0  0  0  0  0  0  0
   45.0823   23.9972   37.1336 H   0  0  0  0  0  0  0  0  0  0  0  0
   44.1733   26.3356   36.1209 H   0  0  0  0  0  0  0  0  0  0  0  0
   44.9075   25.1486   35.0576 H   0  0  0  0  0  0  0  0  0  0  0  0
   42.8127   25.2453   34.0138 H   0  0  0  0  0  0  0  0  0  0  0  0
   41.9978   25.8277   35.4903 H   0  0  0  0  0  0  0  0  0  0  0  0
   34.9237   20.4329   36.2324 H   0  0  0  0  0  0  0  0  0  0  0  0
   34.7147   19.9368   33.7839 H   0  0  0  0  0  0  0  0  0  0  0  0
   36.1981   19.4302   31.3397 H   0  0  0  0  0  0  0  0  0  0  0  0
  1  2  1  0
  1  9  1  0
  1  3  1  0
  2  3  1  0
  4  3  1  0
  4  5  1  0
  5  6  1  0
  7  6  1  0
  8  4  1  0
  8  7  1  0
 10 15  2  0
 11 10  1  0
 12 13  1  0
 12 11  2  0
 13 14  2  0
 14  9  1  0
 14 15  1  0
 16 12  1  0
  1 17  1  6
  2 18  1  0
  2 19  1  0
  3 20  1  1
  4 21  1  0
  5 22  1  0
  5 23  1  0
  6 24  1  0
  6 25  1  0
  7 26  1  0
  7 27  1  0
  8 28  1  0
  8 29  1  0
 10 30  1  0
 11 31  1  0
 16 32  1  0
M  ISO  8  17  13  18  13  19  13  20  13  21  13  22  13  23  13  24  13
M  ISO  8  25  13  26  13  27  13  28  13  29  13  30  14  31  14  32  11
M  END
>  <minimizedAffinity>  (1) 
-4.06983137

>  <minimizedRMSD>  (1) 
0.0709870756

$$$$
