
     RDKit          3D

 33 35  0  0  1  0  0  0  0  0999 V2000
   39.7630   23.2260   35.0490 C   0  0  1  0  0  0  0  0  0  0  0  0
   39.9840   24.7140   35.2550 C   0  0  0  0  0  0  0  0  0  0  0  0
   40.8890   23.7230   35.8900 C   0  0  2  0  0  0  0  0  0  0  0  0
   42.2850   23.6860   35.4010 C   0  0  0  0  0  0  0  0  0  0  0  0
   43.2180   23.1600   36.4800 C   0  0  0  0  0  0  0  0  0  0  0  0
   44.0650   24.3360   36.8830 C   0  0  0  0  0  0  0  0  0  0  0  0
   44.0940   25.2690   35.7010 C   0  0  0  0  0  0  0  0  0  0  0  0
   42.7140   25.1090   35.1220 C   0  0  0  0  0  0  0  0  0  0  0  0
   38.6230   22.7600   35.7760 O   0  0  0  0  0  0  0  0  0  0  0  0
   35.6870   20.8210   35.5520 C   0  0  0  0  0  0  0  0  0  0  0  0
   35.5540   20.5340   34.1740 C   0  0  0  0  0  0  0  0  0  0  0  0
   36.5530   21.0590   33.3210 C   0  0  0  0  0  0  0  0  0  0  0  0
   37.5390   21.7790   33.8780 N   0  0  0  0  0  0  0  0  0  0  0  0
   37.6080   22.0190   35.2310 C   0  0  0  0  0  0  0  0  0  0  0  0
   36.7020   21.5510   36.0560 N   0  0  0  0  0  0  0  0  0  0  0  0
   36.4680   20.8020   31.9370 N   0  0  0  0  0  0  0  0  0  0  0  0
   39.6900   22.5314   34.1992 H   0  0  0  0  0  0  0  0  0  0  0  0
   40.3455   25.3379   34.4243 H   0  0  0  0  0  0  0  0  0  0  0  0
   39.3690   25.5522   35.6144 H   0  0  0  0  0  0  0  0  0  0  0  0
   41.2150   23.4839   36.9130 H   0  0  0  0  0  0  0  0  0  0  0  0
   42.3330   23.0412   34.5111 H   0  0  0  0  0  0  0  0  0  0  0  0
   42.6413   22.7883   37.3398 H   0  0  0  0  0  0  0  0  0  0  0  0
   43.8294   22.3200   36.1186 H   0  0  0  0  0  0  0  0  0  0  0  0
   43.6234   24.8411   37.7547 H   0  0  0  0  0  0  0  0  0  0  0  0
   45.0800   24.0172   37.1624 H   0  0  0  0  0  0  0  0  0  0  0  0
   44.2734   26.3067   36.0186 H   0  0  0  0  0  0  0  0  0  0  0  0
   44.8977   25.0427   34.9848 H   0  0  0  0  0  0  0  0  0  0  0  0
   42.7348   25.2925   34.0376 H   0  0  0  0  0  0  0  0  0  0  0  0
   42.0123   25.8277   35.5703 H   0  0  0  0  0  0  0  0  0  0  0  0
   34.9271   20.4305   36.2449 H   0  0  0  0  0  0  0  0  0  0  0  0
   34.7178   19.9341   33.7856 H   0  0  0  0  0  0  0  0  0  0  0  0
   35.6879   20.2423   31.5641 H   0  0  0  0  0  0  0  0  0  0  0  0
   37.1860   21.1740   31.2991 H   0  0  0  0  0  0  0  0  0  0  0  0
  1  2  1  0
  1  9  1  0
  1  3  1  0
  2  3  1  0
  4  3  1  0
  4  5  1  0
  5  6  1  0
  7  6  1  0
  8  4  1  0
  8  7  1  0
 10 15  2  0
 11 10  1  0
 12 13  1  0
 12 11  2  0
 13 14  2  0
 14  9  1  0
 14 15  1  0
 16 12  1  0
  1 17  1  6
  2 18  1  0
  2 19  1  0
  3 20  1  1
  4 21  1  0
  5 22  1  0
  5 23  1  0
  6 24  1  0
  6 25  1  0
  7 26  1  0
  7 27  1  0
  8 28  1  0
  8 29  1  0
 10 30  1  0
 11 31  1  0
 16 32  1  0
 16 33  1  0
M  ISO  8  17  13  18  13  19  13  20  13  21  13  22  13  23  13  24  13
M  ISO  7  25  13  26  13  27  13  28  13  29  13  30  14  31  14
M  END
>  <minimizedAffinity>  (1) 
-4.04949856

>  <minimizedRMSD>  (1) 
0.0790572539

$$$$
