
     RDKit          3D

 43 46  0  0  0  0  0  0  0  0999 V2000
   37.2400   22.5680   37.1640 C   0  0  0  0  0  0  0  0  0  0  0  0
   36.9900   21.9210   35.8920 C   0  0  0  0  0  0  0  0  0  0  0  0
   35.8990   21.1690   35.6430 C   0  0  0  0  0  0  0  0  0  0  0  0
   35.5960   20.5540   34.4680 C   0  0  0  0  0  0  0  0  0  0  0  0
   36.6420   20.8230   33.4800 C   0  0  0  0  0  0  0  0  0  0  0  0
   37.8990   21.9090   34.3720 S   0  0  0  0  0  0  0  0  0  0  0  0
   36.7640   20.3990   32.1300 C   0  0  0  0  0  0  0  0  0  0  0  0
   36.9550   21.2650   31.0840 C   0  0  0  0  0  0  0  0  0  0  0  0
   37.0210   20.4930   29.9670 N   0  0  0  0  0  0  0  0  0  0  0  0
   36.8800   19.1890   30.2720 C   0  0  0  0  0  0  0  0  0  0  0  0
   36.8780   18.0540   29.4900 C   0  0  0  0  0  0  0  0  0  0  0  0
   36.7040   16.8460   30.1290 C   0  0  0  0  0  0  0  0  0  0  0  0
   36.5360   16.7260   31.5050 C   0  0  0  0  0  0  0  0  0  0  0  0
   36.5460   17.8870   32.2440 C   0  0  0  0  0  0  0  0  0  0  0  0
   36.7130   19.1140   31.6600 C   0  0  0  0  0  0  0  0  0  0  0  0
   38.1380   23.7830   37.0820 C   0  0  0  0  0  0  0  0  0  0  0  0
   41.4480   21.9980   37.2550 C   0  0  0  0  0  0  0  0  0  0  0  0
   40.1440   22.3250   37.5680 C   0  0  0  0  0  0  0  0  0  0  0  0
   39.5160   23.3500   36.8270 C   0  0  0  0  0  0  0  0  0  0  0  0
   40.2200   23.9860   35.8250 N   0  0  0  0  0  0  0  0  0  0  0  0
   41.4970   23.6260   35.5590 C   0  0  0  0  0  0  0  0  0  0  0  0
   42.1080   22.6390   36.2690 N   0  0  0  0  0  0  0  0  0  0  0  0
   38.1210   24.4630   38.4540 C   0  0  0  0  0  0  0  0  0  0  0  0
   37.5720   24.6710   36.0250 C   0  0  0  0  0  0  0  0  0  0  0  0
   36.2739   22.8822   37.5858 H   0  0  0  0  0  0  0  0  0  0  0  0
   37.7638   21.8326   37.7924 H   0  0  0  0  0  0  0  0  0  0  0  0
   35.1849   21.0403   36.4698 H   0  0  0  0  0  0  0  0  0  0  0  0
   34.6981   19.9449   34.2872 H   0  0  0  0  0  0  0  0  0  0  0  0
   37.0379   22.3606   31.1378 H   0  0  0  0  0  0  0  0  0  0  0  0
   37.1604   20.8572   29.0137 H   0  0  0  0  0  0  0  0  0  0  0  0
   37.0100   18.1105   28.3994 H   0  0  0  0  0  0  0  0  0  0  0  0
   36.6976   15.9297   29.5204 H   0  0  0  0  0  0  0  0  0  0  0  0
   36.4008   15.7442   31.9822 H   0  0  0  0  0  0  0  0  0  0  0  0
   36.4161   17.8274   33.3347 H   0  0  0  0  0  0  0  0  0  0  0  0
   41.9568   21.2021   37.8186 H   0  0  0  0  0  0  0  0  0  0  0  0
   39.6082   21.8011   38.3733 H   0  0  0  0  0  0  0  0  0  0  0  0
   42.0490   24.1385   34.7574 H   0  0  0  0  0  0  0  0  0  0  0  0
   38.1402   23.6969   39.2432 H   0  0  0  0  0  0  0  0  0  0  0  0
   39.0032   25.1127   38.5522 H   0  0  0  0  0  0  0  0  0  0  0  0
   37.2075   25.0678   38.5522 H   0  0  0  0  0  0  0  0  0  0  0  0
   37.0380   25.5088   36.4972 H   0  0  0  0  0  0  0  0  0  0  0  0
   38.3877   25.0622   35.3993 H   0  0  0  0  0  0  0  0  0  0  0  0
   36.8730   24.0967   35.3993 H   0  0  0  0  0  0  0  0  0  0  0  0
  2  1  1  0
  3  2  2  0
  4  3  1  0
  5  6  1  0
  5  4  2  0
  6  2  1  0
  7  5  1  0
  8  7  2  0
  9 10  1  0
  9  8  1  0
 10 15  2  0
 11 12  2  0
 11 10  1  0
 12 13  1  0
 13 14  2  0
 15  7  1  0
 15 14  1  0
 16  1  1  0
 16 23  1  0
 17 18  2  0
 19 16  1  0
 19 18  1  0
 20 19  2  0
 21 20  1  0
 21 22  2  0
 22 17  1  0
 24 16  1  0
  1 25  1  0
  1 26  1  0
  3 27  1  0
  4 28  1  0
  8 29  1  0
  9 30  1  0
 11 31  1  0
 12 32  1  0
 13 33  1  0
 14 34  1  0
 17 35  1  0
 18 36  1  0
 21 37  1  0
 23 38  1  0
 23 39  1  0
 23 40  1  0
 24 41  1  0
 24 42  1  0
 24 43  1  0
M  ISO  8  25   8  26   8  27  14  28  14  29  14  30   9  31  14  32  14
M  ISO  8  33  14  34  14  35  14  36  14  37  14  38   8  39   8  40   8
M  ISO  3  41   8  42   8  43   8
M  END
>  <minimizedAffinity>  (1) 
-5.13923407

>  <minimizedRMSD>  (1) 
0.673903108

$$$$
