
     RDKit          3D

 47 51  0  0  1  0  0  0  0  0999 V2000
   41.9450   24.7760   34.5670 O   0  0  0  0  0  0  0  0  0  0  0  0
   39.0750   23.2680   35.9690 C   0  0  0  0  0  0  0  0  0  0  0  0
   38.0510   23.5680   35.0780 C   0  0  0  0  0  0  0  0  0  0  0  0
   38.3810   24.3390   33.9340 C   0  0  0  0  0  0  0  0  0  0  0  0
   39.6680   24.7190   33.7940 N   0  0  0  0  0  0  0  0  0  0  0  0
   40.6440   24.3850   34.7160 C   0  0  0  0  0  0  0  0  0  0  0  0
   40.3610   23.6680   35.7960 N   0  0  0  0  0  0  0  0  0  0  0  0
   37.3960   24.6590   32.9860 N   0  0  0  0  0  0  0  0  0  0  0  0
   37.0460   25.9160   32.6720 N   0  0  0  0  0  0  0  0  0  0  0  0
   36.1580   25.9120   31.6500 C   0  0  0  0  0  0  0  0  0  0  0  0
   35.9730   24.5580   31.3470 C   0  0  0  0  0  0  0  0  0  0  0  0
   36.7660   23.7760   32.2150 C   0  0  0  0  0  0  0  0  0  0  0  0
   36.6360   22.3370   32.1750 C   0  0  0  0  0  0  0  0  0  0  0  0
   35.3520   21.7870   32.2230 C   0  0  0  0  0  0  0  0  0  0  0  0
   35.0630   20.4640   32.2020 C   0  0  0  0  0  0  0  0  0  0  0  0
   36.0500   19.5300   32.1270 C   0  0  0  0  0  0  0  0  0  0  0  0
   37.2960   20.0840   32.0800 C   0  0  0  0  0  0  0  0  0  0  0  0
   37.4850   21.3620   32.1050 N   0  0  0  0  0  0  0  0  0  0  0  0
   43.0240   24.2100   35.2930 C   0  0  1  0  0  0  0  0  0  0  0  0
   44.3500   24.8290   34.8650 C   0  0  0  0  0  0  0  0  0  0  0  0
   43.7620   25.1070   36.2060 C   0  0  2  0  0  0  0  0  0  0  0  0
   44.5110   24.6010   37.3640 C   0  0  0  0  0  0  0  0  0  0  0  0
   44.7780   25.7170   38.3580 C   0  0  0  0  0  0  0  0  0  0  0  0
   46.2700   25.9560   38.2880 C   0  0  0  0  0  0  0  0  0  0  0  0
   46.9010   24.7100   37.7830 C   0  0  0  0  0  0  0  0  0  0  0  0
   45.8540   24.1110   36.9060 C   0  0  0  0  0  0  0  0  0  0  0  0
   38.8303   22.6746   36.8623 H   0  0  0  0  0  0  0  0  0  0  0  0
   37.0223   23.2202   35.2537 H   0  0  0  0  0  0  0  0  0  0  0  0
   35.6867   26.7798   31.1655 H   0  0  0  0  0  0  0  0  0  0  0  0
   35.3145   24.1655   30.5581 H   0  0  0  0  0  0  0  0  0  0  0  0
   34.5056   22.4870   32.2828 H   0  0  0  0  0  0  0  0  0  0  0  0
   34.0130   20.1390   32.2463 H   0  0  0  0  0  0  0  0  0  0  0  0
   35.8635   18.4461   32.1065 H   0  0  0  0  0  0  0  0  0  0  0  0
   38.1703   19.4193   32.0187 H   0  0  0  0  0  0  0  0  0  0  0  0
   42.5915   23.2062   35.4171 H   0  0  0  0  0  0  0  0  0  0  0  0
   45.2496   24.2026   34.7740 H   0  0  0  0  0  0  0  0  0  0  0  0
   44.6949   25.4386   34.0168 H   0  0  0  0  0  0  0  0  0  0  0  0
   43.4464   25.9942   36.7746 H   0  0  0  0  0  0  0  0  0  0  0  0
   43.9159   23.8016   37.8296 H   0  0  0  0  0  0  0  0  0  0  0  0
   44.2273   26.6263   38.0753 H   0  0  0  0  0  0  0  0  0  0  0  0
   44.4495   25.4524   39.3739 H   0  0  0  0  0  0  0  0  0  0  0  0
   46.4847   26.7895   37.6030 H   0  0  0  0  0  0  0  0  0  0  0  0
   46.6668   26.2152   39.2807 H   0  0  0  0  0  0  0  0  0  0  0  0
   47.8110   24.9368   37.2081 H   0  0  0  0  0  0  0  0  0  0  0  0
   47.2156   24.0344   38.5921 H   0  0  0  0  0  0  0  0  0  0  0  0
   45.8930   23.0140   36.9779 H   0  0  0  0  0  0  0  0  0  0  0  0
   46.0255   24.4048   35.8599 H   0  0  0  0  0  0  0  0  0  0  0  0
  1  6  1  0
  1 19  1  0
  3  2  2  0
  4  3  1  0
  5  4  2  0
  5  6  1  0
  6  7  2  0
  7  2  1  0
  8  4  1  0
  9  8  1  0
 10  9  2  0
 11 10  1  0
 11 12  2  0
 12  8  1  0
 13 12  1  0
 13 14  2  0
 15 14  1  0
 16 15  2  0
 17 18  2  0
 17 16  1  0
 18 13  1  0
 19 21  1  0
 20 19  1  0
 20 21  1  0
 21 22  1  0
 22 23  1  0
 24 23  1  0
 25 24  1  0
 26 22  1  0
 26 25  1  0
  2 27  1  0
  3 28  1  0
 10 29  1  0
 11 30  1  0
 14 31  1  0
 15 32  1  0
 16 33  1  0
 17 34  1  0
 19 35  1  1
 20 36  1  0
 20 37  1  0
 21 38  1  1
 22 39  1  0
 23 40  1  0
 23 41  1  0
 24 42  1  0
 24 43  1  0
 25 44  1  0
 25 45  1  0
 26 46  1  0
 26 47  1  0
M  ISO  8  27  14  28  14  29  14  30  14  31  14  32  14  33  14  34  14
M  ISO  8  35  13  36  13  37  13  38  13  39  13  40  13  41  13  42  13
M  ISO  5  43  13  44  13  45  13  46  13  47  13
M  END
>  <minimizedAffinity>  (1) 
-5.83981657

>  <minimizedRMSD>  (1) 
4.16925097

$$$$
