
     RDKit          3D

 42 45  0  0  0  0  0  0  0  0999 V2000
   37.3080   22.5500   37.3060 C   0  0  0  0  0  0  0  0  0  0  0  0
   36.9730   21.9410   36.0380 C   0  0  0  0  0  0  0  0  0  0  0  0
   35.9030   21.1430   35.8580 C   0  0  0  0  0  0  0  0  0  0  0  0
   35.5200   20.5480   34.7250 C   0  0  0  0  0  0  0  0  0  0  0  0
   36.4730   20.8920   33.6330 C   0  0  0  0  0  0  0  0  0  0  0  0
   37.7590   22.0220   34.4440 S   0  0  0  0  0  0  0  0  0  0  0  0
   36.5640   20.5570   32.2630 N   0  0  0  0  0  0  0  0  0  0  0  0
   36.6410   21.4580   31.2440 C   0  0  0  0  0  0  0  0  0  0  0  0
   36.7150   20.7940   30.0800 N   0  0  0  0  0  0  0  0  0  0  0  0
   36.6850   19.4900   30.3830 C   0  0  0  0  0  0  0  0  0  0  0  0
   36.7350   18.3850   29.5450 C   0  0  0  0  0  0  0  0  0  0  0  0
   36.6890   17.1570   30.0900 N   0  0  0  0  0  0  0  0  0  0  0  0
   36.5950   16.9830   31.4320 C   0  0  0  0  0  0  0  0  0  0  0  0
   36.5470   18.0670   32.2580 N   0  0  0  0  0  0  0  0  0  0  0  0
   36.5900   19.3090   31.7620 C   0  0  0  0  0  0  0  0  0  0  0  0
   36.8330   18.5860   28.1320 N   0  0  0  0  0  0  0  0  0  0  0  0
   38.1970   23.7740   37.1960 C   0  0  0  0  0  0  0  0  0  0  0  0
   41.5190   21.9930   37.1950 C   0  0  0  0  0  0  0  0  0  0  0  0
   40.2260   22.3070   37.5850 C   0  0  0  0  0  0  0  0  0  0  0  0
   39.5610   23.3410   36.8870 C   0  0  0  0  0  0  0  0  0  0  0  0
   40.2160   23.9750   35.8730 N   0  0  0  0  0  0  0  0  0  0  0  0
   41.4710   23.6350   35.5310 C   0  0  0  0  0  0  0  0  0  0  0  0
   42.1320   22.6430   36.1860 N   0  0  0  0  0  0  0  0  0  0  0  0
   38.2520   24.4240   38.5900 C   0  0  0  0  0  0  0  0  0  0  0  0
   37.5760   24.6740   36.1890 C   0  0  0  0  0  0  0  0  0  0  0  0
   36.3728   22.8472   37.8030 H   0  0  0  0  0  0  0  0  0  0  0  0
   37.8754   21.7992   37.8755 H   0  0  0  0  0  0  0  0  0  0  0  0
   35.2746   20.9610   36.7423 H   0  0  0  0  0  0  0  0  0  0  0  0
   34.6360   19.9027   34.6152 H   0  0  0  0  0  0  0  0  0  0  0  0
   36.6423   22.5522   31.3569 H   0  0  0  0  0  0  0  0  0  0  0  0
   36.5575   15.9678   31.8538 H   0  0  0  0  0  0  0  0  0  0  0  0
   36.8660   19.5415   27.7488 H   0  0  0  0  0  0  0  0  0  0  0  0
   36.8706   17.7752   27.4979 H   0  0  0  0  0  0  0  0  0  0  0  0
   42.0584   21.1927   37.7228 H   0  0  0  0  0  0  0  0  0  0  0  0
   39.7344   21.7698   38.4095 H   0  0  0  0  0  0  0  0  0  0  0  0
   41.9711   24.1674   34.7086 H   0  0  0  0  0  0  0  0  0  0  0  0
   38.1859   23.6429   39.3617 H   0  0  0  0  0  0  0  0  0  0  0  0
   39.1996   24.9711   38.7023 H   0  0  0  0  0  0  0  0  0  0  0  0
   37.4098   25.1226   38.7023 H   0  0  0  0  0  0  0  0  0  0  0  0
   37.0238   25.4743   36.7035 H   0  0  0  0  0  0  0  0  0  0  0  0
   38.3616   25.1169   35.5592 H   0  0  0  0  0  0  0  0  0  0  0  0
   36.8831   24.0968   35.5592 H   0  0  0  0  0  0  0  0  0  0  0  0
  2  1  1  0
  3  2  2  0
  4  3  1  0
  5  6  1  0
  5  4  2  0
  6  2  1  0
  7  5  1  0
  8  7  1  0
  9 10  1  0
  9  8  2  0
 10 15  2  0
 11 12  2  0
 11 10  1  0
 12 13  1  0
 13 14  2  0
 15 14  1  0
 15  7  1  0
 16 11  1  0
 17  1  1  0
 17 24  1  0
 18 19  2  0
 20 17  1  0
 20 19  1  0
 21 20  2  0
 22 21  1  0
 22 23  2  0
 23 18  1  0
 25 17  1  0
  1 26  1  0
  1 27  1  0
  3 28  1  0
  4 29  1  0
  8 30  1  0
 13 31  1  0
 16 32  1  0
 16 33  1  0
 18 34  1  0
 19 35  1  0
 22 36  1  0
 24 37  1  0
 24 38  1  0
 24 39  1  0
 25 40  1  0
 25 41  1  0
 25 42  1  0
M  ISO  8  26   8  27   8  28  14  29  14  30  14  31  14  34  14  35  14
M  ISO  7  36  14  37   8  38   8  39   8  40   8  41   8  42   8
M  END
>  <minimizedAffinity>  (1) 
-5.09845066

>  <minimizedRMSD>  (1) 
0.672106683

$$$$
