
     RDKit          3D

 46 50  0  0  1  0  0  0  0  0999 V2000
   41.2470   24.2030   34.9810 O   0  0  0  0  0  0  0  0  0  0  0  0
   38.3460   22.7500   36.4090 C   0  0  0  0  0  0  0  0  0  0  0  0
   37.6710   22.1940   35.3100 C   0  0  0  0  0  0  0  0  0  0  0  0
   38.2480   22.3480   34.0330 C   0  0  0  0  0  0  0  0  0  0  0  0
   39.4200   23.0160   33.9680 N   0  0  0  0  0  0  0  0  0  0  0  0
   40.0410   23.5350   35.0790 C   0  0  0  0  0  0  0  0  0  0  0  0
   39.5280   23.4170   36.2900 N   0  0  0  0  0  0  0  0  0  0  0  0
   37.6280   21.7960   32.8920 N   0  0  0  0  0  0  0  0  0  0  0  0
   37.7090   20.4920   32.5610 N   0  0  0  0  0  0  0  0  0  0  0  0
   36.8990   20.2900   31.4800 C   0  0  0  0  0  0  0  0  0  0  0  0
   36.3280   21.5490   31.1800 C   0  0  0  0  0  0  0  0  0  0  0  0
   36.8050   22.5000   32.0820 C   0  0  0  0  0  0  0  0  0  0  0  0
   36.4420   23.8830   31.9040 C   0  0  0  0  0  0  0  0  0  0  0  0
   35.3660   24.2090   31.1050 C   0  0  0  0  0  0  0  0  0  0  0  0
   34.9180   25.4780   30.8520 C   0  0  0  0  0  0  0  0  0  0  0  0
   35.5510   26.5180   31.4060 N   0  0  0  0  0  0  0  0  0  0  0  0
   36.6010   26.2640   32.1890 C   0  0  0  0  0  0  0  0  0  0  0  0
   36.9330   25.0120   32.3560 N   0  0  0  0  0  0  0  0  0  0  0  0
   42.4700   23.7030   35.5260 C   0  0  1  0  0  0  0  0  0  0  0  0
   43.6480   24.2350   34.7390 C   0  0  0  0  0  0  0  0  0  0  0  0
   43.3890   24.7080   36.1180 C   0  0  2  0  0  0  0  0  0  0  0  0
   44.3760   24.3440   37.1490 C   0  0  0  0  0  0  0  0  0  0  0  0
   44.8180   25.5490   37.9440 C   0  0  0  0  0  0  0  0  0  0  0  0
   46.2530   25.8010   37.5230 C   0  0  0  0  0  0  0  0  0  0  0  0
   46.8010   24.4970   37.0620 C   0  0  0  0  0  0  0  0  0  0  0  0
   45.6130   23.8120   36.4640 C   0  0  0  0  0  0  0  0  0  0  0  0
   37.9010   22.6423   37.4092 H   0  0  0  0  0  0  0  0  0  0  0  0
   36.7212   21.6549   35.4416 H   0  0  0  0  0  0  0  0  0  0  0  0
   36.7259   19.3415   30.9505 H   0  0  0  0  0  0  0  0  0  0  0  0
   35.6186   21.7471   30.3630 H   0  0  0  0  0  0  0  0  0  0  0  0
   34.8215   23.3791   30.6308 H   0  0  0  0  0  0  0  0  0  0  0  0
   34.0469   25.6404   30.2002 H   0  0  0  0  0  0  0  0  0  0  0  0
   37.1637   27.0754   32.6738 H   0  0  0  0  0  0  0  0  0  0  0  0
   42.0890   22.7336   35.8796 H   0  0  0  0  0  0  0  0  0  0  0  0
   44.5113   23.5856   34.5317 H   0  0  0  0  0  0  0  0  0  0  0  0
   43.7787   24.7179   33.7593 H   0  0  0  0  0  0  0  0  0  0  0  0
   43.2129   25.6766   36.6088 H   0  0  0  0  0  0  0  0  0  0  0  0
   43.9061   23.6063   37.8161 H   0  0  0  0  0  0  0  0  0  0  0  0
   44.1883   26.4192   37.7070 H   0  0  0  0  0  0  0  0  0  0  0  0
   44.7319   25.3799   39.0275 H   0  0  0  0  0  0  0  0  0  0  0  0
   46.2842   26.5354   36.7047 H   0  0  0  0  0  0  0  0  0  0  0  0
   46.8443   26.2045   38.3582 H   0  0  0  0  0  0  0  0  0  0  0  0
   47.5895   24.6456   36.3095 H   0  0  0  0  0  0  0  0  0  0  0  0
   47.2675   23.9173   37.8722 H   0  0  0  0  0  0  0  0  0  0  0  0
   45.5632   24.0236   35.3857 H   0  0  0  0  0  0  0  0  0  0  0  0
   45.6890   22.7233   36.6021 H   0  0  0  0  0  0  0  0  0  0  0  0
  1  6  1  0
  1 19  1  0
  3  2  2  0
  4  3  1  0
  5  4  2  0
  5  6  1  0
  6  7  2  0
  7  2  1  0
  8  4  1  0
  9  8  1  0
 10  9  2  0
 11 10  1  0
 11 12  2  0
 12  8  1  0
 13 12  1  0
 13 18  1  0
 14 13  2  0
 15 14  1  0
 15 16  2  0
 16 17  1  0
 17 18  2  0
 19 21  1  0
 20 19  1  0
 20 21  1  0
 21 22  1  0
 22 23  1  0
 24 23  1  0
 25 24  1  0
 26 25  1  0
 26 22  1  0
  2 27  1  0
  3 28  1  0
 10 29  1  0
 11 30  1  0
 14 31  1  0
 15 32  1  0
 17 33  1  0
 19 34  1  1
 20 35  1  0
 20 36  1  0
 21 37  1  6
 22 38  1  0
 23 39  1  0
 23 40  1  0
 24 41  1  0
 24 42  1  0
 25 43  1  0
 25 44  1  0
 26 45  1  0
 26 46  1  0
M  ISO  8  27  14  28  14  29  14  30  14  31  14  32  14  33  14  34  13
M  ISO  8  35  13  36  13  37  13  38  13  39  13  40  13  41  13  42  13
M  ISO  4  43  13  44  13  45  13  46  13
M  END
>  <minimizedAffinity>  (1) 
-5.66619349

>  <minimizedRMSD>  (1) 
3.90923762

$$$$
