
     RDKit          3D

 45 49  0  0  1  0  0  0  0  0999 V2000
   40.5540   24.9220   34.8550 O   0  0  0  0  0  0  0  0  0  0  0  0
   38.3660   22.6900   36.5140 C   0  0  0  0  0  0  0  0  0  0  0  0
   37.6100   22.0990   35.4870 C   0  0  0  0  0  0  0  0  0  0  0  0
   37.8930   22.5230   34.1650 C   0  0  0  0  0  0  0  0  0  0  0  0
   38.8620   23.4500   34.0020 N   0  0  0  0  0  0  0  0  0  0  0  0
   39.5680   23.9850   35.0500 C   0  0  0  0  0  0  0  0  0  0  0  0
   39.3330   23.6230   36.2940 N   0  0  0  0  0  0  0  0  0  0  0  0
   37.1780   21.9950   33.0750 N   0  0  0  0  0  0  0  0  0  0  0  0
   36.9850   20.7320   32.8060 N   0  0  0  0  0  0  0  0  0  0  0  0
   36.1750   20.5710   31.7170 C   0  0  0  0  0  0  0  0  0  0  0  0
   35.8790   21.8480   31.3280 C   0  0  0  0  0  0  0  0  0  0  0  0
   36.5250   22.6970   32.1920 C   0  0  0  0  0  0  0  0  0  0  0  0
   36.3450   24.0900   31.8250 C   0  0  0  0  0  0  0  0  0  0  0  0
   35.2680   24.5870   31.0340 C   0  0  0  0  0  0  0  0  0  0  0  0
   35.2480   25.9190   30.8830 N   0  0  0  0  0  0  0  0  0  0  0  0
   36.2960   26.4170   31.5490 C   0  0  0  0  0  0  0  0  0  0  0  0
   36.8650   25.3380   32.0510 N   0  0  0  0  0  0  0  0  0  0  0  0
   41.9220   24.5900   34.6130 C   0  0  1  0  0  0  0  0  0  0  0  0
   42.6170   25.7170   33.8720 C   0  0  0  0  0  0  0  0  0  0  0  0
   42.9370   25.4200   35.2940 C   0  0  2  0  0  0  0  0  0  0  0  0
   44.2930   24.9200   35.5670 C   0  0  0  0  0  0  0  0  0  0  0  0
   44.3550   24.1940   36.8940 C   0  0  0  0  0  0  0  0  0  0  0  0
   45.1670   25.0870   37.8010 C   0  0  0  0  0  0  0  0  0  0  0  0
   46.0230   25.9420   36.9400 C   0  0  0  0  0  0  0  0  0  0  0  0
   45.2390   26.0870   35.6800 C   0  0  0  0  0  0  0  0  0  0  0  0
   38.1657   22.3823   37.5509 H   0  0  0  0  0  0  0  0  0  0  0  0
   36.8375   21.3452   35.6989 H   0  0  0  0  0  0  0  0  0  0  0  0
   35.8383   19.6296   31.2584 H   0  0  0  0  0  0  0  0  0  0  0  0
   35.2418   22.1406   30.4804 H   0  0  0  0  0  0  0  0  0  0  0  0
   34.5116   23.9283   30.5823 H   0  0  0  0  0  0  0  0  0  0  0  0
   36.6066   27.4672   31.6524 H   0  0  0  0  0  0  0  0  0  0  0  0
   37.7158   25.4350   32.6234 H   0  0  0  0  0  0  0  0  0  0  0  0
   41.7895   23.5026   34.5125 H   0  0  0  0  0  0  0  0  0  0  0  0
   43.3481   25.4911   33.0818 H   0  0  0  0  0  0  0  0  0  0  0  0
   42.2908   26.6048   33.3105 H   0  0  0  0  0  0  0  0  0  0  0  0
   42.9216   25.9648   36.2495 H   0  0  0  0  0  0  0  0  0  0  0  0
   44.5641   24.2396   34.7463 H   0  0  0  0  0  0  0  0  0  0  0  0
   43.3435   24.0492   37.3013 H   0  0  0  0  0  0  0  0  0  0  0  0
   44.8045   23.1951   36.7936 H   0  0  0  0  0  0  0  0  0  0  0  0
   44.4972   25.7156   38.4062 H   0  0  0  0  0  0  0  0  0  0  0  0
   45.7847   24.4851   38.4838 H   0  0  0  0  0  0  0  0  0  0  0  0
   46.1936   26.9222   37.4091 H   0  0  0  0  0  0  0  0  0  0  0  0
   47.0194   25.5080   36.7704 H   0  0  0  0  0  0  0  0  0  0  0  0
   45.9216   26.0958   34.8175 H   0  0  0  0  0  0  0  0  0  0  0  0
   44.6730   27.0301   35.6954 H   0  0  0  0  0  0  0  0  0  0  0  0
  1  6  1  0
  3  2  2  0
  4  3  1  0
  5  4  2  0
  5  6  1  0
  6  7  2  0
  7  2  1  0
  8  4  1  0
  9  8  1  0
 10  9  2  0
 11 10  1  0
 11 12  2  0
 12  8  1  0
 13 17  1  0
 13 12  1  0
 14 13  2  0
 15 14  1  0
 15 16  2  0
 16 17  1  0
 18  1  1  0
 18 20  1  0
 19 18  1  0
 19 20  1  0
 20 21  1  0
 21 25  1  0
 21 22  1  0
 22 23  1  0
 24 23  1  0
 25 24  1  0
  2 26  1  0
  3 27  1  0
 10 28  1  0
 11 29  1  0
 14 30  1  0
 16 31  1  0
 17 32  1  0
 18 33  1  6
 19 34  1  0
 19 35  1  0
 20 36  1  1
 21 37  1  0
 22 38  1  0
 22 39  1  0
 23 40  1  0
 23 41  1  0
 24 42  1  0
 24 43  1  0
 25 44  1  0
 25 45  1  0
M  ISO  8  26  14  27  14  28  14  29  14  30  14  31  14  32   9  33  13
M  ISO  8  34  13  35  13  36  13  37  13  38  13  39  13  40  13  41  13
M  ISO  4  42  13  43  13  44  13  45  13
M  END
>  <minimizedAffinity>  (1) 
-5.3014617

>  <minimizedRMSD>  (1) 
3.88399482

$$$$
