
     RDKit          3D

 40 43  0  0  1  0  0  0  0  0999 V2000
   39.7140   23.2230   35.0840 C   0  0  1  0  0  0  0  0  0  0  0  0
   39.9640   24.7180   35.2470 C   0  0  0  0  0  0  0  0  0  0  0  0
   40.8610   23.7040   35.8830 C   0  0  2  0  0  0  0  0  0  0  0  0
   42.2490   23.6560   35.3930 C   0  0  0  0  0  0  0  0  0  0  0  0
   43.1780   23.1210   36.4690 C   0  0  0  0  0  0  0  0  0  0  0  0
   44.0320   24.3020   36.8730 C   0  0  0  0  0  0  0  0  0  0  0  0
   44.0500   25.2510   35.7240 C   0  0  0  0  0  0  0  0  0  0  0  0
   42.6990   25.0760   35.1120 C   0  0  0  0  0  0  0  0  0  0  0  0
   38.5570   22.8150   35.7930 O   0  0  0  0  0  0  0  0  0  0  0  0
   35.6170   20.8640   35.5660 C   0  0  0  0  0  0  0  0  0  0  0  0
   35.6090   20.3860   34.2420 C   0  0  0  0  0  0  0  0  0  0  0  0
   36.6820   20.7730   33.4220 C   0  0  0  0  0  0  0  0  0  0  0  0
   37.6300   21.5660   33.9540 N   0  0  0  0  0  0  0  0  0  0  0  0
   37.5800   22.0020   35.2610 C   0  0  0  0  0  0  0  0  0  0  0  0
   36.5990   21.6670   36.0640 N   0  0  0  0  0  0  0  0  0  0  0  0
   36.7380   20.3380   32.0810 N   0  0  0  0  0  0  0  0  0  0  0  0
   37.6780   20.6500   31.2000 N   0  0  0  0  0  0  0  0  0  0  0  0
   37.4200   20.0630   30.0010 C   0  0  0  0  0  0  0  0  0  0  0  0
   36.2420   19.3540   30.1880 C   0  0  0  0  0  0  0  0  0  0  0  0
   35.8480   19.5480   31.4880 C   0  0  0  0  0  0  0  0  0  0  0  0
   34.6620   18.9280   31.9120 N   0  0  0  0  0  0  0  0  0  0  0  0
   39.6258   22.4954   34.2637 H   0  0  0  0  0  0  0  0  0  0  0  0
   40.3204   25.3160   34.3953 H   0  0  0  0  0  0  0  0  0  0  0  0
   39.3772   25.5792   35.5992 H   0  0  0  0  0  0  0  0  0  0  0  0
   41.1999   23.4536   36.8991 H   0  0  0  0  0  0  0  0  0  0  0  0
   42.2844   23.0129   34.5013 H   0  0  0  0  0  0  0  0  0  0  0  0
   42.6005   22.7497   37.3285 H   0  0  0  0  0  0  0  0  0  0  0  0
   43.7846   22.2772   36.1084 H   0  0  0  0  0  0  0  0  0  0  0  0
   43.6017   24.7919   37.7589 H   0  0  0  0  0  0  0  0  0  0  0  0
   45.0521   23.9764   37.1246 H   0  0  0  0  0  0  0  0  0  0  0  0
   44.1950   26.2852   36.0695 H   0  0  0  0  0  0  0  0  0  0  0  0
   44.8707   25.0562   35.0179 H   0  0  0  0  0  0  0  0  0  0  0  0
   42.7544   25.2440   34.0263 H   0  0  0  0  0  0  0  0  0  0  0  0
   41.9861   25.7983   35.5364 H   0  0  0  0  0  0  0  0  0  0  0  0
   34.7900   20.5752   36.2313 H   0  0  0  0  0  0  0  0  0  0  0  0
   34.8011   19.7403   33.8673 H   0  0  0  0  0  0  0  0  0  0  0  0
   38.0172   20.1348   29.0800 H   0  0  0  0  0  0  0  0  0  0  0  0
   35.7200   18.7479   29.4329 H   0  0  0  0  0  0  0  0  0  0  0  0
   34.3346   19.0508   32.8808 H   0  0  0  0  0  0  0  0  0  0  0  0
   34.1192   18.3503   31.2543 H   0  0  0  0  0  0  0  0  0  0  0  0
  1  2  1  0
  1  9  1  0
  1  3  1  0
  2  3  1  0
  4  3  1  0
  4  5  1  0
  5  6  1  0
  7  6  1  0
  8  4  1  0
  8  7  1  0
 10 15  2  0
 11 10  1  0
 12 13  1  0
 12 11  2  0
 13 14  2  0
 14  9  1  0
 14 15  1  0
 16 12  1  0
 17 16  1  0
 18 19  1  0
 18 17  2  0
 19 20  2  0
 20 21  1  0
 20 16  1  0
  1 22  1  6
  2 23  1  0
  2 24  1  0
  3 25  1  1
  4 26  1  0
  5 27  1  0
  5 28  1  0
  6 29  1  0
  6 30  1  0
  7 31  1  0
  7 32  1  0
  8 33  1  0
  8 34  1  0
 10 35  1  0
 11 36  1  0
 18 37  1  0
 19 38  1  0
 21 39  1  0
 21 40  1  0
M  ISO  8  22  13  23  13  24  13  25  13  26  13  27  13  28  13  29  13
M  ISO  8  30  13  31  13  32  13  33  13  34  13  35  14  36  14  37  14
M  ISO  1  38  14
M  END
>  <minimizedAffinity>  (1) 
-4.96397066

>  <minimizedRMSD>  (1) 
0.19742094

$$$$
