
     RDKit          3D

 35 37  0  0  1  0  0  0  0  0999 V2000
   38.9700   23.8410   36.1840 N   0  0  0  0  0  0  0  0  0  0  0  0
   38.0200   24.7510   36.7960 C   0  0  0  0  0  0  0  0  0  0  0  0
   37.8910   24.1510   38.2080 C   0  0  0  0  0  0  0  0  0  0  0  0
   39.0380   23.1580   38.3370 C   0  0  0  0  0  0  0  0  0  0  0  0
   39.9470   23.6840   37.2330 C   0  0  1  0  0  0  0  0  0  0  0  0
   38.9360   23.2580   34.8770 C   0  0  0  0  0  0  0  0  0  0  0  0
   38.3290   22.0060   34.6350 C   0  0  0  0  0  0  0  0  0  0  0  0
   38.3360   21.4970   33.3410 C   0  0  0  0  0  0  0  0  0  0  0  0
   38.9400   22.2550   32.3670 N   0  0  0  0  0  0  0  0  0  0  0  0
   39.5060   23.4400   32.6410 C   0  0  0  0  0  0  0  0  0  0  0  0
   39.5070   23.9430   33.8790 N   0  0  0  0  0  0  0  0  0  0  0  0
   43.4000   21.3420   36.3290 C   0  0  0  0  0  0  0  0  0  0  0  0
   42.3220   20.7650   36.9980 C   0  0  0  0  0  0  0  0  0  0  0  0
   41.2030   21.5140   37.2940 C   0  0  0  0  0  0  0  0  0  0  0  0
   41.0950   22.8440   36.9510 C   0  0  0  0  0  0  0  0  0  0  0  0
   42.2080   23.3670   36.2820 C   0  0  0  0  0  0  0  0  0  0  0  0
   43.3490   22.6710   35.9600 C   0  0  0  0  0  0  0  0  0  0  0  0
   44.8760   20.4900   35.9000 S   0  0  0  0  0  0  0  0  0  0  0  0
   46.0520   21.4450   36.0380 O   0  0  0  0  0  0  0  0  0  0  0  0
   45.1430   19.3350   36.8310 O   0  0  0  0  0  0  0  0  0  0  0  0
   38.4114   25.7785   36.8296 H   0  0  0  0  0  0  0  0  0  0  0  0
   37.0662   24.8363   36.2547 H   0  0  0  0  0  0  0  0  0  0  0  0
   37.9783   24.9397   38.9698 H   0  0  0  0  0  0  0  0  0  0  0  0
   36.9146   23.6668   38.3570 H   0  0  0  0  0  0  0  0  0  0  0  0
   39.5185   23.2113   39.3251 H   0  0  0  0  0  0  0  0  0  0  0  0
   38.7545   22.0990   38.2469 H   0  0  0  0  0  0  0  0  0  0  0  0
   40.4953   24.6109   37.4573 H   0  0  0  0  0  0  0  0  0  0  0  0
   37.8592   21.4436   35.4554 H   0  0  0  0  0  0  0  0  0  0  0  0
   37.8761   20.5257   33.1063 H   0  0  0  0  0  0  0  0  0  0  0  0
   39.9798   24.0103   31.8285 H   0  0  0  0  0  0  0  0  0  0  0  0
   42.3643   19.7057   37.2916 H   0  0  0  0  0  0  0  0  0  0  0  0
   40.3670   21.0328   37.8226 H   0  0  0  0  0  0  0  0  0  0  0  0
   42.1659   24.4263   35.9886 H   0  0  0  0  0  0  0  0  0  0  0  0
   44.1849   23.1523   35.4313 H   0  0  0  0  0  0  0  0  0  0  0  0
   44.7277   20.0246   34.6200 H   0  0  0  0  0  0  0  0  0  0  0  0
  1  2  1  0
  1  5  1  0
  2  3  1  0
  3  4  1  0
  5  4  1  0
  6  1  1  0
  7  6  2  0
  8  7  1  0
  9 10  1  0
  9  8  2  0
 10 11  2  0
 11  6  1  0
 12 13  2  0
 13 14  1  0
 15  5  1  0
 15 14  2  0
 16 15  1  0
 17 16  2  0
 17 12  1  0
 18 19  2  0
 18 12  1  0
 18 20  2  0
  2 21  1  0
  2 22  1  0
  3 23  1  0
  3 24  1  0
  4 25  1  0
  4 26  1  0
  5 27  1  1
  7 28  1  0
  8 29  1  0
 10 30  1  0
 13 31  1  0
 14 32  1  0
 16 33  1  0
 17 34  1  0
 18 35  1  0
M  ISO  8  21  13  22  13  23  13  24  13  25  13  26  13  27  13  28  14
M  ISO  7  29  14  30  14  31  14  32  14  33  14  34  14  35  11
M  END
>  <minimizedAffinity>  (1) 
-4.31149817

>  <minimizedRMSD>  (1) 
2.75604463

$$$$
