
     RDKit          3D

 35 37  0  0  1  0  0  0  0  0999 V2000
   38.5210   23.6320   36.1280 N   0  0  0  0  0  0  0  0  0  0  0  0
   37.7650   24.1240   37.2810 C   0  0  0  0  0  0  0  0  0  0  0  0
   38.4510   23.3730   38.4300 C   0  0  0  0  0  0  0  0  0  0  0  0
   39.7330   22.7900   37.8330 C   0  0  0  0  0  0  0  0  0  0  0  0
   39.8820   23.6640   36.6330 C   0  0  1  0  0  0  0  0  0  0  0  0
   40.8960   23.3550   35.7090 N   0  0  0  0  0  0  0  0  0  0  0  0
   41.3610   22.0770   35.5630 C   0  0  0  0  0  0  0  0  0  0  0  0
   42.3560   21.7340   34.6630 C   0  0  0  0  0  0  0  0  0  0  0  0
   42.8080   20.3150   34.5660 C   0  0  0  0  0  0  0  0  0  0  0  0
   42.9060   22.7370   33.8740 C   0  0  0  0  0  0  0  0  0  0  0  0
   43.8160   22.4380   33.0470 O   0  0  0  0  0  0  0  0  0  0  0  0
   42.4470   23.9970   34.0170 N   0  0  0  0  0  0  0  0  0  0  0  0
   41.4760   24.2590   34.9120 C   0  0  0  0  0  0  0  0  0  0  0  0
   41.1390   25.4590   34.9500 O   0  0  0  0  0  0  0  0  0  0  0  0
   38.0270   23.2290   34.8470 C   0  0  0  0  0  0  0  0  0  0  0  0
   37.6480   21.9130   34.5750 C   0  0  0  0  0  0  0  0  0  0  0  0
   37.1760   21.6240   33.2890 C   0  0  0  0  0  0  0  0  0  0  0  0
   37.1160   22.6460   32.3830 N   0  0  0  0  0  0  0  0  0  0  0  0
   37.4920   23.8990   32.6910 C   0  0  0  0  0  0  0  0  0  0  0  0
   37.9470   24.2080   33.9100 N   0  0  0  0  0  0  0  0  0  0  0  0
   37.8663   25.2135   37.3943 H   0  0  0  0  0  0  0  0  0  0  0  0
   36.6801   23.9545   37.2151 H   0  0  0  0  0  0  0  0  0  0  0  0
   38.6898   24.0640   39.2519 H   0  0  0  0  0  0  0  0  0  0  0  0
   37.8030   22.5883   38.8476 H   0  0  0  0  0  0  0  0  0  0  0  0
   40.5860   22.8914   38.5201 H   0  0  0  0  0  0  0  0  0  0  0  0
   39.6951   21.7118   37.6185 H   0  0  0  0  0  0  0  0  0  0  0  0
   40.2648   24.6662   36.8759 H   0  0  0  0  0  0  0  0  0  0  0  0
   40.9245   21.2851   36.1894 H   0  0  0  0  0  0  0  0  0  0  0  0
   42.9395   19.9021   35.5771 H   0  0  0  0  0  0  0  0  0  0  0  0
   42.0530   19.7259   34.0247 H   0  0  0  0  0  0  0  0  0  0  0  0
   43.7646   20.2711   34.0247 H   0  0  0  0  0  0  0  0  0  0  0  0
   42.8384   24.7572   33.4428 H   0  0  0  0  0  0  0  0  0  0  0  0
   37.7179   21.1302   35.3446 H   0  0  0  0  0  0  0  0  0  0  0  0
   36.8629   20.6055   33.0159 H   0  0  0  0  0  0  0  0  0  0  0  0
   37.4242   24.6859   31.9253 H   0  0  0  0  0  0  0  0  0  0  0  0
  1  5  1  0
  1  2  1  0
  2  3  1  0
  4  3  1  0
  5  4  1  0
  6  5  1  0
  7  6  1  0
  8  7  2  0
  9  8  1  0
 10 12  1  0
 10  8  1  0
 11 10  2  0
 12 13  1  0
 13 14  2  0
 13  6  1  0
 15  1  1  0
 16 15  2  0
 17 16  1  0
 18 19  1  0
 18 17  2  0
 19 20  2  0
 20 15  1  0
  2 21  1  0
  2 22  1  0
  3 23  1  0
  3 24  1  0
  4 25  1  0
  4 26  1  0
  5 27  1  1
  7 28  1  0
  9 29  1  0
  9 30  1  0
  9 31  1  0
 12 32  1  0
 16 33  1  0
 17 34  1  0
 19 35  1  0
M  ISO  8  21  13  22  13  23  13  24  13  25  13  26  13  27  13  28  14
M  ISO  7  29   8  30   8  31   8  32   9  33  14  34  14  35  14
M  END
>  <minimizedAffinity>  (1) 
-4.12256479

>  <minimizedRMSD>  (1) 
1.03177047

$$$$
