
     RDKit          3D

 31 32  0  0  1  0  0  0  0  0999 V2000
   38.4980   23.7180   36.2080 N   0  0  0  0  0  0  0  0  0  0  0  0
   37.7980   24.6870   37.0410 C   0  0  0  0  0  0  0  0  0  0  0  0
   38.0230   24.1350   38.4480 C   0  0  0  0  0  0  0  0  0  0  0  0
   39.1310   23.1070   38.2900 C   0  0  0  0  0  0  0  0  0  0  0  0
   39.7060   23.5330   36.9730 C   0  0  1  0  0  0  0  0  0  0  0  0
   38.0890   23.1330   34.9860 C   0  0  0  0  0  0  0  0  0  0  0  0
   37.4550   21.8950   34.9170 C   0  0  0  0  0  0  0  0  0  0  0  0
   37.0860   21.3940   33.6650 C   0  0  0  0  0  0  0  0  0  0  0  0
   37.3730   22.1570   32.5680 N   0  0  0  0  0  0  0  0  0  0  0  0
   37.9920   23.3580   32.6710 C   0  0  0  0  0  0  0  0  0  0  0  0
   38.3520   23.8510   33.8620 N   0  0  0  0  0  0  0  0  0  0  0  0
   40.6270   22.5210   36.3410 C   0  0  0  0  0  0  0  0  0  0  0  0
   41.7330   23.2050   35.5440 C   0  0  0  0  0  0  0  0  0  0  0  0
   41.2190   21.5810   37.3600 C   0  0  0  0  0  0  0  0  0  0  0  0
   38.2329   25.6916   36.9336 H   0  0  0  0  0  0  0  0  0  0  0  0
   36.7359   24.8043   36.7800 H   0  0  0  0  0  0  0  0  0  0  0  0
   38.3337   24.9371   39.1337 H   0  0  0  0  0  0  0  0  0  0  0  0
   37.1079   23.6967   38.8730 H   0  0  0  0  0  0  0  0  0  0  0  0
   39.8718   23.1793   39.1000 H   0  0  0  0  0  0  0  0  0  0  0  0
   38.7964   22.0598   38.3291 H   0  0  0  0  0  0  0  0  0  0  0  0
   40.3575   24.4160   37.0490 H   0  0  0  0  0  0  0  0  0  0  0  0
   37.2480   21.3209   35.8322 H   0  0  0  0  0  0  0  0  0  0  0  0
   36.5828   20.4208   33.5664 H   0  0  0  0  0  0  0  0  0  0  0  0
   38.2022   23.9377   31.7601 H   0  0  0  0  0  0  0  0  0  0  0  0
   40.0155   21.9222   35.6500 H   0  0  0  0  0  0  0  0  0  0  0  0
   42.4598   23.6545   36.2366 H   0  0  0  0  0  0  0  0  0  0  0  0
   42.2408   22.4630   34.9103 H   0  0  0  0  0  0  0  0  0  0  0  0
   41.2960   23.9908   34.9103 H   0  0  0  0  0  0  0  0  0  0  0  0
   40.9894   21.9456   38.3721 H   0  0  0  0  0  0  0  0  0  0  0  0
   40.7898   20.5771   37.2257 H   0  0  0  0  0  0  0  0  0  0  0  0
   42.3098   21.5344   37.2257 H   0  0  0  0  0  0  0  0  0  0  0  0
  1  5  1  0
  1  2  1  0
  2  3  1  0
  4  3  1  0
  5  4  1  0
  6  1  1  0
  7  6  2  0
  8  7  1  0
  9 10  1  0
  9  8  2  0
 10 11  2  0
 11  6  1  0
 12  5  1  0
 12 14  1  0
 13 12  1  0
  2 15  1  0
  2 16  1  0
  3 17  1  0
  3 18  1  0
  4 19  1  0
  4 20  1  0
  5 21  1  1
  7 22  1  0
  8 23  1  0
 10 24  1  0
 12 25  1  0
 13 26  1  0
 13 27  1  0
 13 28  1  0
 14 29  1  0
 14 30  1  0
 14 31  1  0
M  ISO  8  15  13  16  13  17  13  18  13  19  13  20  13  21  13  22  14
M  ISO  8  23  14  24  14  25   8  26   8  27   8  28   8  29   8  30   8
M  ISO  1  31   8
M  END
>  <minimizedAffinity>  (1) 
-3.81284571

>  <minimizedRMSD>  (1) 
1.13546634

$$$$
