
     RDKit          3D

 41 43  0  0  0  0  0  0  0  0999 V2000
   38.2160   23.6930   37.0960 C   0  0  0  0  0  0  0  0  0  0  0  0
   41.6050   22.0470   37.1720 C   0  0  0  0  0  0  0  0  0  0  0  0
   40.2820   22.3010   37.5270 C   0  0  0  0  0  0  0  0  0  0  0  0
   39.6110   23.3130   36.8300 C   0  0  0  0  0  0  0  0  0  0  0  0
   40.2780   24.0010   35.8390 N   0  0  0  0  0  0  0  0  0  0  0  0
   41.5520   23.7190   35.5360 C   0  0  0  0  0  0  0  0  0  0  0  0
   42.2220   22.7370   36.2050 N   0  0  0  0  0  0  0  0  0  0  0  0
   38.1800   24.3000   38.5090 C   0  0  0  0  0  0  0  0  0  0  0  0
   37.6080   24.6080   36.0870 C   0  0  0  0  0  0  0  0  0  0  0  0
   37.3800   22.4190   37.1190 C   0  0  0  0  0  0  0  0  0  0  0  0
   37.0400   21.9050   35.8120 C   0  0  0  0  0  0  0  0  0  0  0  0
   35.9880   21.1010   35.5800 C   0  0  0  0  0  0  0  0  0  0  0  0
   35.5980   20.5960   34.4060 C   0  0  0  0  0  0  0  0  0  0  0  0
   36.5180   21.0590   33.3420 C   0  0  0  0  0  0  0  0  0  0  0  0
   37.7900   22.1450   34.2230 S   0  0  0  0  0  0  0  0  0  0  0  0
   36.6160   20.8470   31.9540 N   0  0  0  0  0  0  0  0  0  0  0  0
   35.6500   20.0210   31.2200 C   0  0  0  0  0  0  0  0  0  0  0  0
   36.4990   19.1930   30.2800 C   0  0  0  0  0  0  0  0  0  0  0  0
   37.7770   19.9900   30.1570 C   0  0  0  0  0  0  0  0  0  0  0  0
   37.5140   21.2740   30.8830 C   0  0  0  0  0  0  0  0  0  0  0  0
   42.1582   21.2572   37.7013 H   0  0  0  0  0  0  0  0  0  0  0  0
   39.7841   21.7289   38.3237 H   0  0  0  0  0  0  0  0  0  0  0  0
   42.0619   24.2837   34.7415 H   0  0  0  0  0  0  0  0  0  0  0  0
   38.2278   23.4937   39.2558 H   0  0  0  0  0  0  0  0  0  0  0  0
   39.0398   24.9733   38.6408 H   0  0  0  0  0  0  0  0  0  0  0  0
   37.2466   24.8670   38.6408 H   0  0  0  0  0  0  0  0  0  0  0  0
   37.0703   25.4172   36.6028 H   0  0  0  0  0  0  0  0  0  0  0  0
   38.4007   25.0378   35.4571 H   0  0  0  0  0  0  0  0  0  0  0  0
   36.9046   24.0437   35.4571 H   0  0  0  0  0  0  0  0  0  0  0  0
   37.9473   21.6448   37.6564 H   0  0  0  0  0  0  0  0  0  0  0  0
   36.4309   22.6750   37.6126 H   0  0  0  0  0  0  0  0  0  0  0  0
   35.3798   20.8281   36.4550 H   0  0  0  0  0  0  0  0  0  0  0  0
   34.7291   19.9389   34.2537 H   0  0  0  0  0  0  0  0  0  0  0  0
   35.0885   19.3735   31.9096 H   0  0  0  0  0  0  0  0  0  0  0  0
   34.9020   20.6257   30.6862 H   0  0  0  0  0  0  0  0  0  0  0  0
   36.6967   18.1974   30.7038 H   0  0  0  0  0  0  0  0  0  0  0  0
   36.0120   19.0153   29.3098 H   0  0  0  0  0  0  0  0  0  0  0  0
   38.6145   19.4492   30.6218 H   0  0  0  0  0  0  0  0  0  0  0  0
   38.0532   20.1623   29.1063 H   0  0  0  0  0  0  0  0  0  0  0  0
   38.4435   21.7001   31.2885 H   0  0  0  0  0  0  0  0  0  0  0  0
   37.0930   22.0637   30.2434 H   0  0  0  0  0  0  0  0  0  0  0  0
  1 10  1  0
  1  8  1  0
  2  3  2  0
  4  1  1  0
  4  3  1  0
  5  4  2  0
  6  5  1  0
  6  7  2  0
  7  2  1  0
  9  1  1  0
 11 10  1  0
 12 11  2  0
 13 12  1  0
 14 15  1  0
 14 13  2  0
 15 11  1  0
 16 14  1  0
 17 16  1  0
 18 17  1  0
 19 18  1  0
 19 20  1  0
 20 16  1  0
  2 21  1  0
  3 22  1  0
  6 23  1  0
  8 24  1  0
  8 25  1  0
  8 26  1  0
  9 27  1  0
  9 28  1  0
  9 29  1  0
 10 30  1  0
 10 31  1  0
 12 32  1  0
 13 33  1  0
 17 34  1  0
 17 35  1  0
 18 36  1  0
 18 37  1  0
 19 38  1  0
 19 39  1  0
 20 40  1  0
 20 41  1  0
M  ISO  8  21  14  22  14  23  14  24   8  25   8  26   8  27   8  28   8
M  ISO  8  29   8  30   8  31   8  32  14  33  14  34  13  35  13  36  13
M  ISO  5  37  13  38  13  39  13  40  13  41  13
M  END
>  <minimizedAffinity>  (1) 
-4.70338535

>  <minimizedRMSD>  (1) 
0.717481554

$$$$
