
     RDKit          3D

 42 44  0  0  0  0  0  0  0  0999 V2000
   38.1810   23.7270   37.1450 C   0  0  0  0  0  0  0  0  0  0  0  0
   41.5030   21.9730   37.2090 C   0  0  0  0  0  0  0  0  0  0  0  0
   40.2020   22.2810   37.5530 C   0  0  0  0  0  0  0  0  0  0  0  0
   39.5530   23.3220   36.8570 C   0  0  0  0  0  0  0  0  0  0  0  0
   40.2420   23.9720   35.8840 N   0  0  0  0  0  0  0  0  0  0  0  0
   41.5070   23.6490   35.5730 C   0  0  0  0  0  0  0  0  0  0  0  0
   42.1410   22.6430   36.2400 N   0  0  0  0  0  0  0  0  0  0  0  0
   38.1670   24.3380   38.5580 C   0  0  0  0  0  0  0  0  0  0  0  0
   37.5950   24.6830   36.1350 C   0  0  0  0  0  0  0  0  0  0  0  0
   37.2920   22.5140   37.1700 C   0  0  0  0  0  0  0  0  0  0  0  0
   37.0210   21.9380   35.8530 C   0  0  0  0  0  0  0  0  0  0  0  0
   35.9560   21.1500   35.6070 C   0  0  0  0  0  0  0  0  0  0  0  0
   35.6460   20.6010   34.4060 C   0  0  0  0  0  0  0  0  0  0  0  0
   36.6400   20.9870   33.4010 C   0  0  0  0  0  0  0  0  0  0  0  0
   37.8890   22.0840   34.3030 S   0  0  0  0  0  0  0  0  0  0  0  0
   36.7240   20.6340   32.0480 N   0  0  0  0  0  0  0  0  0  0  0  0
   37.9930   20.8500   31.3350 C   0  0  0  0  0  0  0  0  0  0  0  0
   38.6180   19.4470   31.2820 C   0  0  0  0  0  0  0  0  0  0  0  0
   37.5830   18.4910   31.2860 O   0  0  0  0  0  0  0  0  0  0  0  0
   36.5510   18.8740   30.4400 C   0  0  0  0  0  0  0  0  0  0  0  0
   35.7850   20.0320   31.0960 C   0  0  0  0  0  0  0  0  0  0  0  0
   42.0250   21.1632   37.7398 H   0  0  0  0  0  0  0  0  0  0  0  0
   39.6841   21.7280   38.3505 H   0  0  0  0  0  0  0  0  0  0  0  0
   42.0336   24.1973   34.7780 H   0  0  0  0  0  0  0  0  0  0  0  0
   38.1855   23.5319   39.3062 H   0  0  0  0  0  0  0  0  0  0  0  0
   39.0507   24.9799   38.6887 H   0  0  0  0  0  0  0  0  0  0  0  0
   37.2549   24.9388   38.6887 H   0  0  0  0  0  0  0  0  0  0  0  0
   37.0899   25.5070   36.6602 H   0  0  0  0  0  0  0  0  0  0  0  0
   38.3997   25.0888   35.5043 H   0  0  0  0  0  0  0  0  0  0  0  0
   36.8683   24.1500   35.5043 H   0  0  0  0  0  0  0  0  0  0  0  0
   37.7765   21.7447   37.7892 H   0  0  0  0  0  0  0  0  0  0  0  0
   36.3234   22.8421   37.5752 H   0  0  0  0  0  0  0  0  0  0  0  0
   35.2825   20.9342   36.4495 H   0  0  0  0  0  0  0  0  0  0  0  0
   34.7740   19.9585   34.2141 H   0  0  0  0  0  0  0  0  0  0  0  0
   37.8135   21.2390   30.3219 H   0  0  0  0  0  0  0  0  0  0  0  0
   38.6411   21.5894   31.8282 H   0  0  0  0  0  0  0  0  0  0  0  0
   39.2644   19.2964   32.1592 H   0  0  0  0  0  0  0  0  0  0  0  0
   39.2231   19.3405   30.3696 H   0  0  0  0  0  0  0  0  0  0  0  0
   35.8709   18.0250   30.2769 H   0  0  0  0  0  0  0  0  0  0  0  0
   36.9591   19.1946   29.4701 H   0  0  0  0  0  0  0  0  0  0  0  0
   35.4801   20.7691   30.3385 H   0  0  0  0  0  0  0  0  0  0  0  0
   34.8672   19.6844   31.5928 H   0  0  0  0  0  0  0  0  0  0  0  0
  1 10  1  0
  1  8  1  0
  2  3  2  0
  4  1  1  0
  4  3  1  0
  5  4  2  0
  6  5  1  0
  6  7  2  0
  7  2  1  0
  9  1  1  0
 11 10  1  0
 12 11  2  0
 13 12  1  0
 14 15  1  0
 14 13  2  0
 15 11  1  0
 16 14  1  0
 17 16  1  0
 18 19  1  0
 18 17  1  0
 20 21  1  0
 20 19  1  0
 21 16  1  0
  2 22  1  0
  3 23  1  0
  6 24  1  0
  8 25  1  0
  8 26  1  0
  8 27  1  0
  9 28  1  0
  9 29  1  0
  9 30  1  0
 10 31  1  0
 10 32  1  0
 12 33  1  0
 13 34  1  0
 17 35  1  0
 17 36  1  0
 18 37  1  0
 18 38  1  0
 20 39  1  0
 20 40  1  0
 21 41  1  0
 21 42  1  0
M  ISO  8  22  14  23  14  24  14  25   8  26   8  27   8  28   8  29   8
M  ISO  8  30   8  31   8  32   8  33  14  34  14  35  13  36  13  37  13
M  ISO  5  38  13  39  13  40  13  41  13  42  13
M  END
>  <minimizedAffinity>  (1) 
-4.69900846

>  <minimizedRMSD>  (1) 
0.30047214

$$$$
