
     RDKit          3D

 40 43  0  0  1  0  0  0  0  0999 V2000
   38.8760   23.8260   36.3210 N   0  0  0  0  0  0  0  0  0  0  0  0
   37.9010   24.7130   36.9310 C   0  0  0  0  0  0  0  0  0  0  0  0
   37.8260   24.1580   38.3520 C   0  0  0  0  0  0  0  0  0  0  0  0
   38.9890   23.1830   38.4690 C   0  0  0  0  0  0  0  0  0  0  0  0
   39.8870   23.6910   37.3800 C   0  0  1  0  0  0  0  0  0  0  0  0
   38.8580   23.2420   35.0240 C   0  0  0  0  0  0  0  0  0  0  0  0
   38.2000   22.0300   34.7620 C   0  0  0  0  0  0  0  0  0  0  0  0
   38.2370   21.5330   33.4620 C   0  0  0  0  0  0  0  0  0  0  0  0
   38.9160   22.2580   32.5110 N   0  0  0  0  0  0  0  0  0  0  0  0
   39.5240   23.4020   32.8090 C   0  0  0  0  0  0  0  0  0  0  0  0
   39.5200   23.9290   34.0500 N   0  0  0  0  0  0  0  0  0  0  0  0
   41.0150   22.8410   37.0470 C   0  0  0  0  0  0  0  0  0  0  0  0
   41.1840   21.5120   37.4580 C   0  0  0  0  0  0  0  0  0  0  0  0
   42.3820   21.0830   36.9200 C   0  0  0  0  0  0  0  0  0  0  0  0
   42.8820   22.1690   36.2110 C   0  0  0  0  0  0  0  0  0  0  0  0
   42.0580   23.1760   36.3070 O   0  0  0  0  0  0  0  0  0  0  0  0
   44.1330   22.0040   35.5410 N   0  0  0  0  0  0  0  0  0  0  0  0
   44.1760   21.0020   34.6380 C   0  0  0  0  0  0  0  0  0  0  0  0
   45.3690   20.7930   33.9530 C   0  0  0  0  0  0  0  0  0  0  0  0
   46.4870   21.5970   34.1950 C   0  0  0  0  0  0  0  0  0  0  0  0
   47.7220   21.4140   33.5150 N   0  0  0  0  0  0  0  0  0  0  0  0
   46.3710   22.5780   35.1090 N   0  0  0  0  0  0  0  0  0  0  0  0
   45.2150   22.7800   35.7710 C   0  0  0  0  0  0  0  0  0  0  0  0
   45.0730   23.6900   36.6340 O   0  0  0  0  0  0  0  0  0  0  0  0
   38.2492   25.7564   36.9257 H   0  0  0  0  0  0  0  0  0  0  0  0
   36.9328   24.7393   36.4096 H   0  0  0  0  0  0  0  0  0  0  0  0
   37.9289   24.9693   39.0876 H   0  0  0  0  0  0  0  0  0  0  0  0
   36.8610   23.6680   38.5486 H   0  0  0  0  0  0  0  0  0  0  0  0
   39.4724   23.2449   39.4551 H   0  0  0  0  0  0  0  0  0  0  0  0
   38.7086   22.1237   38.3732 H   0  0  0  0  0  0  0  0  0  0  0  0
   40.4462   24.6058   37.6259 H   0  0  0  0  0  0  0  0  0  0  0  0
   37.6708   21.4889   35.5602 H   0  0  0  0  0  0  0  0  0  0  0  0
   37.7375   20.5877   33.2031 H   0  0  0  0  0  0  0  0  0  0  0  0
   40.0527   23.9414   32.0093 H   0  0  0  0  0  0  0  0  0  0  0  0
   40.4974   20.9253   38.0859 H   0  0  0  0  0  0  0  0  0  0  0  0
   42.8433   20.0904   37.0297 H   0  0  0  0  0  0  0  0  0  0  0  0
   43.2955   20.3703   34.4494 H   0  0  0  0  0  0  0  0  0  0  0  0
   45.4334   19.9838   33.2106 H   0  0  0  0  0  0  0  0  0  0  0  0
   48.5211   22.0294   33.7240 H   0  0  0  0  0  0  0  0  0  0  0  0
   47.8177   20.6660   32.8134 H   0  0  0  0  0  0  0  0  0  0  0  0
  1  2  1  0
  1  5  1  0
  2  3  1  0
  3  4  1  0
  5  4  1  0
  6  1  1  0
  7  6  2  0
  8  7  1  0
  9 10  1  0
  9  8  2  0
 10 11  2  0
 11  6  1  0
 12  5  1  0
 12 13  2  0
 14 13  1  0
 15 16  1  0
 15 14  2  0
 16 12  1  0
 17 23  1  0
 17 15  1  0
 18 17  1  0
 19 20  1  0
 19 18  2  0
 20 22  2  0
 21 20  1  0
 22 23  1  0
 23 24  2  0
  2 25  1  0
  2 26  1  0
  3 27  1  0
  3 28  1  0
  4 29  1  0
  4 30  1  0
  5 31  1  1
  7 32  1  0
  8 33  1  0
 10 34  1  0
 13 35  1  0
 14 36  1  0
 18 37  1  0
 19 38  1  0
 21 39  1  0
 21 40  1  0
M  ISO  8  25  13  26  13  27  13  28  13  29  13  30  13  31  13  32  14
M  ISO  6  33  14  34  14  35  14  36  14  37  14  38  14
M  END
>  <minimizedAffinity>  (1) 
-4.14324808

>  <minimizedRMSD>  (1) 
1.41720212

$$$$
