
     RDKit          3D

 38 41  0  0  1  0  0  0  0  0999 V2000
   38.8670   23.7800   36.2160 N   0  0  0  0  0  0  0  0  0  0  0  0
   37.8070   24.6240   36.7600 C   0  0  0  0  0  0  0  0  0  0  0  0
   37.6630   24.0560   38.1740 C   0  0  0  0  0  0  0  0  0  0  0  0
   38.8620   23.1480   38.3740 C   0  0  0  0  0  0  0  0  0  0  0  0
   39.8050   23.6930   37.3430 C   0  0  1  0  0  0  0  0  0  0  0  0
   38.9550   23.1990   34.9170 C   0  0  0  0  0  0  0  0  0  0  0  0
   38.3310   21.9810   34.6080 C   0  0  0  0  0  0  0  0  0  0  0  0
   38.4780   21.4900   33.3120 C   0  0  0  0  0  0  0  0  0  0  0  0
   39.2220   22.2300   32.4200 N   0  0  0  0  0  0  0  0  0  0  0  0
   39.7910   23.3810   32.7680 C   0  0  0  0  0  0  0  0  0  0  0  0
   39.6840   23.9020   34.0030 N   0  0  0  0  0  0  0  0  0  0  0  0
   40.9840   22.8880   37.0830 C   0  0  0  0  0  0  0  0  0  0  0  0
   41.1040   21.5120   37.3240 C   0  0  0  0  0  0  0  0  0  0  0  0
   42.3720   21.1360   36.9400 C   0  0  0  0  0  0  0  0  0  0  0  0
   42.9670   22.3050   36.4810 C   0  0  0  0  0  0  0  0  0  0  0  0
   42.1330   23.3030   36.5780 O   0  0  0  0  0  0  0  0  0  0  0  0
   44.3540   22.3520   35.9650 C   0  0  0  0  0  0  0  0  0  0  0  0
   45.1790   23.4480   36.2050 C   0  0  0  0  0  0  0  0  0  0  0  0
   46.4600   23.4030   35.6830 C   0  0  0  0  0  0  0  0  0  0  0  0
   46.8780   22.3050   34.9590 C   0  0  0  0  0  0  0  0  0  0  0  0
   46.0450   21.2200   34.7280 C   0  0  0  0  0  0  0  0  0  0  0  0
   44.8010   21.2870   35.2470 N   0  0  0  0  0  0  0  0  0  0  0  0
   38.1061   25.6824   36.7803 H   0  0  0  0  0  0  0  0  0  0  0  0
   36.8765   24.6106   36.1735 H   0  0  0  0  0  0  0  0  0  0  0  0
   37.6684   24.8679   38.9162 H   0  0  0  0  0  0  0  0  0  0  0  0
   36.7153   23.5117   38.2990 H   0  0  0  0  0  0  0  0  0  0  0  0
   39.2750   23.2411   39.3893 H   0  0  0  0  0  0  0  0  0  0  0  0
   38.6427   22.0753   38.2677 H   0  0  0  0  0  0  0  0  0  0  0  0
   40.3025   24.6323   37.6262 H   0  0  0  0  0  0  0  0  0  0  0  0
   37.7465   21.4331   35.3618 H   0  0  0  0  0  0  0  0  0  0  0  0
   38.0135   20.5396   33.0104 H   0  0  0  0  0  0  0  0  0  0  0  0
   40.3737   23.9298   32.0135 H   0  0  0  0  0  0  0  0  0  0  0  0
   40.3283   20.8540   37.7427 H   0  0  0  0  0  0  0  0  0  0  0  0
   42.8164   20.1308   36.9864 H   0  0  0  0  0  0  0  0  0  0  0  0
   44.8271   24.3136   36.7854 H   0  0  0  0  0  0  0  0  0  0  0  0
   47.1478   24.2459   35.8459 H   0  0  0  0  0  0  0  0  0  0  0  0
   47.9005   22.2897   34.5537 H   0  0  0  0  0  0  0  0  0  0  0  0
   46.3822   20.3471   34.1497 H   0  0  0  0  0  0  0  0  0  0  0  0
  1  2  1  0
  1  5  1  0
  2  3  1  0
  3  4  1  0
  5  4  1  0
  6  1  1  0
  7  6  2  0
  8  7  1  0
  9 10  1  0
  9  8  2  0
 10 11  2  0
 11  6  1  0
 12 13  2  0
 12  5  1  0
 14 13  1  0
 15 16  1  0
 15 14  2  0
 16 12  1  0
 17 18  2  0
 17 15  1  0
 19 18  1  0
 20 19  2  0
 21 20  1  0
 21 22  2  0
 22 17  1  0
  2 23  1  0
  2 24  1  0
  3 25  1  0
  3 26  1  0
  4 27  1  0
  4 28  1  0
  5 29  1  1
  7 30  1  0
  8 31  1  0
 10 32  1  0
 13 33  1  0
 14 34  1  0
 18 35  1  0
 19 36  1  0
 20 37  1  0
 21 38  1  0
M  ISO  8  23  13  24  13  25  13  26  13  27  13  28  13  29  13  30  14
M  ISO  8  31  14  32  14  33  14  34  14  35  14  36  14  37  14  38  14
M  END
>  <minimizedAffinity>  (1) 
-4.11927843

>  <minimizedRMSD>  (1) 
1.60325837

$$$$
