
     RDKit          3D

 36 39  0  0  1  0  0  0  0  0999 V2000
   38.8910   23.7910   36.2350 N   0  0  0  0  0  0  0  0  0  0  0  0
   37.8460   24.6460   36.7790 C   0  0  0  0  0  0  0  0  0  0  0  0
   37.7060   24.0930   38.1960 C   0  0  0  0  0  0  0  0  0  0  0  0
   38.8890   23.1610   38.3900 C   0  0  0  0  0  0  0  0  0  0  0  0
   39.8330   23.6990   37.3580 C   0  0  1  0  0  0  0  0  0  0  0  0
   38.9690   23.2020   34.9360 C   0  0  0  0  0  0  0  0  0  0  0  0
   38.3320   21.9880   34.6390 C   0  0  0  0  0  0  0  0  0  0  0  0
   38.4670   21.4910   33.3410 C   0  0  0  0  0  0  0  0  0  0  0  0
   39.2150   22.2240   32.4420 N   0  0  0  0  0  0  0  0  0  0  0  0
   39.7980   23.3690   32.7780 C   0  0  0  0  0  0  0  0  0  0  0  0
   39.7000   23.8930   34.0130 N   0  0  0  0  0  0  0  0  0  0  0  0
   40.9960   22.8710   37.0940 C   0  0  0  0  0  0  0  0  0  0  0  0
   41.1200   21.5050   37.3710 C   0  0  0  0  0  0  0  0  0  0  0  0
   42.3740   21.1000   36.9670 C   0  0  0  0  0  0  0  0  0  0  0  0
   42.9600   22.2540   36.4590 C   0  0  0  0  0  0  0  0  0  0  0  0
   42.1420   23.2440   36.5490 O   0  0  0  0  0  0  0  0  0  0  0  0
   44.3320   22.2870   35.9040 C   0  0  0  0  0  0  0  0  0  0  0  0
   45.2950   23.2780   36.1020 C   0  0  0  0  0  0  0  0  0  0  0  0
   46.3850   22.8320   35.3750 C   0  0  0  0  0  0  0  0  0  0  0  0
   46.1070   21.6550   34.7780 N   0  0  0  0  0  0  0  0  0  0  0  0
   44.8610   21.3380   35.1060 N   0  0  0  0  0  0  0  0  0  0  0  0
   38.1551   25.7016   36.7885 H   0  0  0  0  0  0  0  0  0  0  0  0
   36.9112   24.6354   36.1993 H   0  0  0  0  0  0  0  0  0  0  0  0
   37.7364   24.9102   38.9317 H   0  0  0  0  0  0  0  0  0  0  0  0
   36.7486   23.5696   38.3357 H   0  0  0  0  0  0  0  0  0  0  0  0
   39.3073   23.2415   39.4042 H   0  0  0  0  0  0  0  0  0  0  0  0
   38.6528   22.0921   38.2821 H   0  0  0  0  0  0  0  0  0  0  0  0
   40.3406   24.6344   37.6362 H   0  0  0  0  0  0  0  0  0  0  0  0
   37.7485   21.4482   35.3994 H   0  0  0  0  0  0  0  0  0  0  0  0
   37.9918   20.5444   33.0441 H   0  0  0  0  0  0  0  0  0  0  0  0
   40.3825   23.9087   32.0184 H   0  0  0  0  0  0  0  0  0  0  0  0
   40.3514   20.8663   37.8306 H   0  0  0  0  0  0  0  0  0  0  0  0
   42.8116   20.0929   37.0318 H   0  0  0  0  0  0  0  0  0  0  0  0
   45.2078   24.1989   36.6972 H   0  0  0  0  0  0  0  0  0  0  0  0
   47.3447   23.3636   35.2952 H   0  0  0  0  0  0  0  0  0  0  0  0
   46.7417   21.1062   34.1806 H   0  0  0  0  0  0  0  0  0  0  0  0
  1  2  1  0
  1  5  1  0
  2  3  1  0
  3  4  1  0
  5  4  1  0
  6  1  1  0
  7  6  2  0
  8  7  1  0
  9 10  1  0
  9  8  2  0
 10 11  2  0
 11  6  1  0
 12  5  1  0
 12 13  2  0
 14 13  1  0
 15 16  1  0
 15 14  2  0
 16 12  1  0
 17 18  1  0
 17 15  1  0
 19 18  2  0
 20 21  1  0
 20 19  1  0
 21 17  2  0
  2 22  1  0
  2 23  1  0
  3 24  1  0
  3 25  1  0
  4 26  1  0
  4 27  1  0
  5 28  1  1
  7 29  1  0
  8 30  1  0
 10 31  1  0
 13 32  1  0
 14 33  1  0
 18 34  1  0
 19 35  1  0
 20 36  1  0
M  ISO  8  22  13  23  13  24  13  25  13  26  13  27  13  28  13  29  14
M  ISO  7  30  14  31  14  32  14  33  14  34  14  35  14  36   9
M  END
>  <minimizedAffinity>  (1) 
-4.00975418

>  <minimizedRMSD>  (1) 
1.38296568

$$$$
