
     RDKit          3D

 35 38  0  0  1  0  0  0  0  0999 V2000
   38.6780   23.8620   36.2820 N   0  0  0  0  0  0  0  0  0  0  0  0
   37.7930   24.7940   36.9700 C   0  0  0  0  0  0  0  0  0  0  0  0
   37.8230   24.2440   38.3940 C   0  0  0  0  0  0  0  0  0  0  0  0
   38.9730   23.2500   38.4230 C   0  0  0  0  0  0  0  0  0  0  0  0
   39.7780   23.7100   37.2440 C   0  0  1  0  0  0  0  0  0  0  0  0
   38.5080   23.2610   34.9960 C   0  0  0  0  0  0  0  0  0  0  0  0
   37.8530   22.0310   34.8390 C   0  0  0  0  0  0  0  0  0  0  0  0
   37.7380   21.5210   33.5450 C   0  0  0  0  0  0  0  0  0  0  0  0
   38.2770   22.2610   32.5120 N   0  0  0  0  0  0  0  0  0  0  0  0
   38.8890   23.4240   32.7140 C   0  0  0  0  0  0  0  0  0  0  0  0
   39.0240   23.9570   33.9430 N   0  0  0  0  0  0  0  0  0  0  0  0
   40.8240   22.7950   36.8190 C   0  0  0  0  0  0  0  0  0  0  0  0
   41.1270   21.5560   37.4010 C   0  0  0  0  0  0  0  0  0  0  0  0
   42.1810   21.0120   36.6950 C   0  0  0  0  0  0  0  0  0  0  0  0
   42.4690   21.9540   35.7130 C   0  0  0  0  0  0  0  0  0  0  0  0
   41.6720   22.9680   35.8110 O   0  0  0  0  0  0  0  0  0  0  0  0
   43.5120   21.7660   34.7590 N   0  0  0  0  0  0  0  0  0  0  0  0
   44.4270   22.4540   34.0750 C   0  0  0  0  0  0  0  0  0  0  0  0
   45.1390   21.6130   33.2980 N   0  0  0  0  0  0  0  0  0  0  0  0
   44.6600   20.3880   33.5030 C   0  0  0  0  0  0  0  0  0  0  0  0
   43.6490   20.4780   34.4090 N   0  0  0  0  0  0  0  0  0  0  0  0
   38.1809   25.8225   36.9278 H   0  0  0  0  0  0  0  0  0  0  0  0
   36.7848   24.8605   36.5351 H   0  0  0  0  0  0  0  0  0  0  0  0
   37.9983   25.0555   39.1156 H   0  0  0  0  0  0  0  0  0  0  0  0
   36.8685   23.7710   38.6683 H   0  0  0  0  0  0  0  0  0  0  0  0
   39.5475   23.3240   39.3581 H   0  0  0  0  0  0  0  0  0  0  0  0
   38.6626   22.1957   38.3768 H   0  0  0  0  0  0  0  0  0  0  0  0
   40.3883   24.6085   37.4179 H   0  0  0  0  0  0  0  0  0  0  0  0
   37.4448   21.4880   35.7042 H   0  0  0  0  0  0  0  0  0  0  0  0
   37.2347   20.5616   33.3547 H   0  0  0  0  0  0  0  0  0  0  0  0
   39.2979   23.9679   31.8497 H   0  0  0  0  0  0  0  0  0  0  0  0
   40.6177   21.1005   38.2630 H   0  0  0  0  0  0  0  0  0  0  0  0
   42.6816   20.0483   36.8700 H   0  0  0  0  0  0  0  0  0  0  0  0
   44.5779   23.5419   34.1355 H   0  0  0  0  0  0  0  0  0  0  0  0
   45.0186   19.4650   33.0240 H   0  0  0  0  0  0  0  0  0  0  0  0
  1  2  1  0
  1  5  1  0
  2  3  1  0
  3  4  1  0
  5  4  1  0
  6  1  1  0
  7  6  2  0
  8  7  1  0
  9 10  1  0
  9  8  2  0
 10 11  2  0
 11  6  1  0
 12  5  1  0
 12 13  2  0
 14 13  1  0
 15 16  1  0
 15 14  2  0
 16 12  1  0
 17 15  1  0
 18 17  1  0
 19 20  1  0
 19 18  2  0
 20 21  2  0
 21 17  1  0
  2 22  1  0
  2 23  1  0
  3 24  1  0
  3 25  1  0
  4 26  1  0
  4 27  1  0
  5 28  1  1
  7 29  1  0
  8 30  1  0
 10 31  1  0
 13 32  1  0
 14 33  1  0
 18 34  1  0
 20 35  1  0
M  ISO  8  22  13  23  13  24  13  25  13  26  13  27  13  28  13  29  14
M  ISO  6  30  14  31  14  32  14  33  14  34  14  35  14
M  END
>  <minimizedAffinity>  (1) 
-3.89284825

>  <minimizedRMSD>  (1) 
0.397426009

$$$$
