
     RDKit          3D

 42 45  0  0  1  0  0  0  0  0999 V2000
   38.8290   23.7220   36.2550 N   0  0  0  0  0  0  0  0  0  0  0  0
   37.7230   24.5040   36.8140 C   0  0  0  0  0  0  0  0  0  0  0  0
   37.5950   23.8930   38.2030 C   0  0  0  0  0  0  0  0  0  0  0  0
   38.8470   23.0620   38.3900 C   0  0  0  0  0  0  0  0  0  0  0  0
   39.7750   23.6580   37.4040 C   0  0  1  0  0  0  0  0  0  0  0  0
   38.9480   23.1780   34.9470 C   0  0  0  0  0  0  0  0  0  0  0  0
   38.3760   21.9580   34.6030 C   0  0  0  0  0  0  0  0  0  0  0  0
   38.5530   21.5090   33.2940 C   0  0  0  0  0  0  0  0  0  0  0  0
   39.2850   22.3100   32.4260 N   0  0  0  0  0  0  0  0  0  0  0  0
   39.8140   23.4790   32.8130 C   0  0  0  0  0  0  0  0  0  0  0  0
   39.6690   23.9470   34.0620 N   0  0  0  0  0  0  0  0  0  0  0  0
   40.9950   22.9470   37.1160 C   0  0  0  0  0  0  0  0  0  0  0  0
   41.1800   21.5600   37.3010 C   0  0  0  0  0  0  0  0  0  0  0  0
   42.4780   21.2810   36.9080 C   0  0  0  0  0  0  0  0  0  0  0  0
   43.0080   22.5000   36.5080 C   0  0  0  0  0  0  0  0  0  0  0  0
   42.1100   23.4480   36.6460 O   0  0  0  0  0  0  0  0  0  0  0  0
   44.3910   22.6940   36.0000 C   0  0  0  0  0  0  0  0  0  0  0  0
   44.6300   24.1990   35.9020 C   0  0  0  0  0  0  0  0  0  0  0  0
   45.3430   24.6510   37.1370 C   0  0  0  0  0  0  0  0  0  0  0  0
   44.7650   25.5300   38.0290 C   0  0  0  0  0  0  0  0  0  0  0  0
   45.7530   25.6740   39.0060 C   0  0  0  0  0  0  0  0  0  0  0  0
   46.8430   24.9100   38.6800 C   0  0  0  0  0  0  0  0  0  0  0  0
   46.5240   24.3370   37.5630 O   0  0  0  0  0  0  0  0  0  0  0  0
   37.9730   25.5739   36.8666 H   0  0  0  0  0  0  0  0  0  0  0  0
   36.7988   24.4651   36.2187 H   0  0  0  0  0  0  0  0  0  0  0  0
   37.5383   24.6820   38.9674 H   0  0  0  0  0  0  0  0  0  0  0  0
   36.6819   23.2877   38.3026 H   0  0  0  0  0  0  0  0  0  0  0  0
   39.2388   23.1576   39.4134 H   0  0  0  0  0  0  0  0  0  0  0  0
   38.6844   21.9839   38.2443 H   0  0  0  0  0  0  0  0  0  0  0  0
   40.2338   24.5996   37.7402 H   0  0  0  0  0  0  0  0  0  0  0  0
   37.8052   21.3688   35.3358 H   0  0  0  0  0  0  0  0  0  0  0  0
   38.1268   20.5516   32.9598 H   0  0  0  0  0  0  0  0  0  0  0  0
   40.3847   24.0731   32.0841 H   0  0  0  0  0  0  0  0  0  0  0  0
   40.4389   20.8421   37.6823 H   0  0  0  0  0  0  0  0  0  0  0  0
   42.9814   20.3029   36.9119 H   0  0  0  0  0  0  0  0  0  0  0  0
   45.1144   22.2421   36.6947 H   0  0  0  0  0  0  0  0  0  0  0  0
   44.5168   22.2143   35.0182 H   0  0  0  0  0  0  0  0  0  0  0  0
   45.2453   24.4196   35.0173 H   0  0  0  0  0  0  0  0  0  0  0  0
   43.6693   24.7265   35.8087 H   0  0  0  0  0  0  0  0  0  0  0  0
   43.7720   26.0010   37.9826 H   0  0  0  0  0  0  0  0  0  0  0  0
   45.6687   26.3058   39.9025 H   0  0  0  0  0  0  0  0  0  0  0  0
   47.7822   24.8062   39.2431 H   0  0  0  0  0  0  0  0  0  0  0  0
  1  2  1  0
  1  5  1  0
  2  3  1  0
  3  4  1  0
  5  4  1  0
  6  1  1  0
  7  6  2  0
  8  7  1  0
  9 10  1  0
  9  8  2  0
 10 11  2  0
 11  6  1  0
 12 13  2  0
 12  5  1  0
 14 13  1  0
 15 16  1  0
 15 14  2  0
 16 12  1  0
 17 15  1  0
 18 17  1  0
 18 19  1  0
 19 23  1  0
 19 20  2  0
 20 21  1  0
 22 21  2  0
 23 22  1  0
  2 24  1  0
  2 25  1  0
  3 26  1  0
  3 27  1  0
  4 28  1  0
  4 29  1  0
  5 30  1  1
  7 31  1  0
  8 32  1  0
 10 33  1  0
 13 34  1  0
 14 35  1  0
 17 36  1  0
 17 37  1  0
 18 38  1  0
 18 39  1  0
 20 40  1  0
 21 41  1  0
 22 42  1  0
M  ISO  8  24  13  25  13  26  13  27  13  28  13  29  13  30  13  31  14
M  ISO  8  32  14  33  14  34  14  35  14  36   8  37   8  38   8  39   8
M  ISO  3  40  14  41  14  42  14
M  END
>  <minimizedAffinity>  (1) 
-5.10767269

>  <minimizedRMSD>  (1) 
1.67524624

$$$$
