
     RDKit          3D

 43 46  0  0  1  0  0  0  0  0999 V2000
   38.8460   23.7310   36.2250 N   0  0  0  0  0  0  0  0  0  0  0  0
   37.7760   24.5530   36.7940 C   0  0  0  0  0  0  0  0  0  0  0  0
   37.6300   23.9420   38.1790 C   0  0  0  0  0  0  0  0  0  0  0  0
   38.8650   23.0910   38.3740 C   0  0  0  0  0  0  0  0  0  0  0  0
   39.7950   23.6480   37.3690 C   0  0  1  0  0  0  0  0  0  0  0  0
   38.9380   23.1710   34.9190 C   0  0  0  0  0  0  0  0  0  0  0  0
   38.3360   21.9590   34.5990 C   0  0  0  0  0  0  0  0  0  0  0  0
   38.4900   21.4940   33.2920 C   0  0  0  0  0  0  0  0  0  0  0  0
   39.2280   22.2710   32.4070 N   0  0  0  0  0  0  0  0  0  0  0  0
   39.7850   23.4340   32.7780 C   0  0  0  0  0  0  0  0  0  0  0  0
   39.6630   23.9180   34.0220 N   0  0  0  0  0  0  0  0  0  0  0  0
   40.9920   22.8990   37.0780 C   0  0  0  0  0  0  0  0  0  0  0  0
   41.1680   21.5250   37.3480 C   0  0  0  0  0  0  0  0  0  0  0  0
   42.4460   21.2010   36.9170 C   0  0  0  0  0  0  0  0  0  0  0  0
   42.9730   22.3930   36.4110 C   0  0  0  0  0  0  0  0  0  0  0  0
   42.0940   23.3470   36.5270 O   0  0  0  0  0  0  0  0  0  0  0  0
   44.3310   22.5260   35.8340 C   0  0  0  0  0  0  0  0  0  0  0  0
   44.5800   24.0170   35.6150 C   0  0  0  0  0  0  0  0  0  0  0  0
   45.3290   24.4550   36.8480 C   0  0  0  0  0  0  0  0  0  0  0  0
   44.6630   25.3060   37.7040 C   0  0  0  0  0  0  0  0  0  0  0  0
   45.3660   25.6890   38.8160 C   0  0  0  0  0  0  0  0  0  0  0  0
   46.6180   25.2650   39.0560 N   0  0  0  0  0  0  0  0  0  0  0  0
   47.2520   24.4390   38.2170 C   0  0  0  0  0  0  0  0  0  0  0  0
   46.5930   24.0430   37.1160 N   0  0  0  0  0  0  0  0  0  0  0  0
   38.0692   25.6117   36.8505 H   0  0  0  0  0  0  0  0  0  0  0  0
   36.8480   24.5537   36.2034 H   0  0  0  0  0  0  0  0  0  0  0  0
   37.5810   24.7305   38.9444 H   0  0  0  0  0  0  0  0  0  0  0  0
   36.7069   23.3508   38.2704 H   0  0  0  0  0  0  0  0  0  0  0  0
   39.2670   23.2001   39.3921 H   0  0  0  0  0  0  0  0  0  0  0  0
   38.6803   22.0134   38.2529 H   0  0  0  0  0  0  0  0  0  0  0  0
   40.2795   24.5814   37.6915 H   0  0  0  0  0  0  0  0  0  0  0  0
   37.7620   21.3901   35.3453 H   0  0  0  0  0  0  0  0  0  0  0  0
   38.0411   20.5420   32.9723 H   0  0  0  0  0  0  0  0  0  0  0  0
   40.3603   24.0088   32.0373 H   0  0  0  0  0  0  0  0  0  0  0  0
   40.4363   20.8453   37.8091 H   0  0  0  0  0  0  0  0  0  0  0  0
   42.9385   20.2185   36.9633 H   0  0  0  0  0  0  0  0  0  0  0  0
   45.0785   22.1164   36.5293 H   0  0  0  0  0  0  0  0  0  0  0  0
   44.4109   21.9718   34.8872 H   0  0  0  0  0  0  0  0  0  0  0  0
   45.1858   24.1823   34.7119 H   0  0  0  0  0  0  0  0  0  0  0  0
   43.6475   24.5814   35.4672 H   0  0  0  0  0  0  0  0  0  0  0  0
   43.6380   25.6536   37.5078 H   0  0  0  0  0  0  0  0  0  0  0  0
   44.8883   26.3678   39.5379 H   0  0  0  0  0  0  0  0  0  0  0  0
   48.2770   24.0961   38.4215 H   0  0  0  0  0  0  0  0  0  0  0  0
  1  2  1  0
  1  5  1  0
  2  3  1  0
  3  4  1  0
  5  4  1  0
  6  1  1  0
  7  6  2  0
  8  7  1  0
  9 10  1  0
  9  8  2  0
 10 11  2  0
 11  6  1  0
 12 13  2  0
 12  5  1  0
 14 13  1  0
 15 16  1  0
 15 14  2  0
 16 12  1  0
 17 15  1  0
 18 17  1  0
 18 19  1  0
 19 24  1  0
 19 20  2  0
 20 21  1  0
 21 22  2  0
 23 22  1  0
 24 23  2  0
  2 25  1  0
  2 26  1  0
  3 27  1  0
  3 28  1  0
  4 29  1  0
  4 30  1  0
  5 31  1  1
  7 32  1  0
  8 33  1  0
 10 34  1  0
 13 35  1  0
 14 36  1  0
 17 37  1  0
 17 38  1  0
 18 39  1  0
 18 40  1  0
 20 41  1  0
 21 42  1  0
 23 43  1  0
M  ISO  8  25  13  26  13  27  13  28  13  29  13  30  13  31  13  32  14
M  ISO  8  33  14  34  14  35  14  36  14  37   8  38   8  39   8  40   8
M  ISO  3  41  14  42  14  43  14
M  END
>  <minimizedAffinity>  (1) 
-5.03769445

>  <minimizedRMSD>  (1) 
1.8709681

$$$$
