
     RDKit          3D

 46 50  0  0  1  0  0  0  0  0999 V2000
   41.0100   22.8740   37.1200 C   0  0  0  0  0  0  0  0  0  0  0  0
   41.1710   21.5090   37.4350 C   0  0  0  0  0  0  0  0  0  0  0  0
   42.4070   21.1360   36.9280 C   0  0  0  0  0  0  0  0  0  0  0  0
   42.9280   22.2940   36.3350 C   0  0  0  0  0  0  0  0  0  0  0  0
   42.0780   23.2750   36.4750 O   0  0  0  0  0  0  0  0  0  0  0  0
   38.8680   23.8090   36.3620 N   0  0  0  0  0  0  0  0  0  0  0  0
   37.8470   24.6630   36.9760 C   0  0  0  0  0  0  0  0  0  0  0  0
   37.7470   24.0720   38.3710 C   0  0  0  0  0  0  0  0  0  0  0  0
   38.9360   23.1320   38.4940 C   0  0  0  0  0  0  0  0  0  0  0  0
   39.8570   23.6660   37.4640 C   0  0  1  0  0  0  0  0  0  0  0  0
   38.8910   23.2700   35.0480 C   0  0  0  0  0  0  0  0  0  0  0  0
   38.3110   22.0420   34.7450 C   0  0  0  0  0  0  0  0  0  0  0  0
   38.3880   21.5970   33.4270 C   0  0  0  0  0  0  0  0  0  0  0  0
   39.0400   22.4080   32.5060 N   0  0  0  0  0  0  0  0  0  0  0  0
   39.5790   23.5770   32.8510 C   0  0  0  0  0  0  0  0  0  0  0  0
   39.5280   24.0460   34.1090 N   0  0  0  0  0  0  0  0  0  0  0  0
   44.2480   22.3860   35.6520 C   0  0  0  0  0  0  0  0  0  0  0  0
   44.5960   23.8500   35.5390 C   0  0  0  0  0  0  0  0  0  0  0  0
   45.2360   24.3650   36.7320 N   0  0  0  0  0  0  0  0  0  0  0  0
   44.8310   25.2050   37.7070 C   0  0  0  0  0  0  0  0  0  0  0  0
   45.8200   25.3660   38.6130 N   0  0  0  0  0  0  0  0  0  0  0  0
   46.8510   24.6250   38.2100 C   0  0  0  0  0  0  0  0  0  0  0  0
   48.0910   24.4720   38.8200 C   0  0  0  0  0  0  0  0  0  0  0  0
   48.9710   23.6470   38.1880 N   0  0  0  0  0  0  0  0  0  0  0  0
   48.6160   23.0270   37.0300 C   0  0  0  0  0  0  0  0  0  0  0  0
   47.4230   23.1670   36.4330 N   0  0  0  0  0  0  0  0  0  0  0  0
   46.5110   23.9860   37.0320 C   0  0  0  0  0  0  0  0  0  0  0  0
   40.4586   20.8680   37.9750 H   0  0  0  0  0  0  0  0  0  0  0  0
   42.8778   20.1432   36.9802 H   0  0  0  0  0  0  0  0  0  0  0  0
   38.1702   25.7139   37.0083 H   0  0  0  0  0  0  0  0  0  0  0  0
   36.8925   24.6800   36.4295 H   0  0  0  0  0  0  0  0  0  0  0  0
   37.8029   24.8656   39.1307 H   0  0  0  0  0  0  0  0  0  0  0  0
   36.7922   23.5486   38.5275 H   0  0  0  0  0  0  0  0  0  0  0  0
   39.3846   23.1837   39.4970 H   0  0  0  0  0  0  0  0  0  0  0  0
   38.6799   22.0715   38.3537 H   0  0  0  0  0  0  0  0  0  0  0  0
   40.3972   24.5707   37.7799 H   0  0  0  0  0  0  0  0  0  0  0  0
   37.8090   21.4433   35.5193 H   0  0  0  0  0  0  0  0  0  0  0  0
   37.9472   20.6354   33.1254 H   0  0  0  0  0  0  0  0  0  0  0  0
   40.0827   24.1782   32.0797 H   0  0  0  0  0  0  0  0  0  0  0  0
   45.0141   21.8618   36.2421 H   0  0  0  0  0  0  0  0  0  0  0  0
   44.2041   21.9191   34.6570 H   0  0  0  0  0  0  0  0  0  0  0  0
   45.2786   23.9849   34.6870 H   0  0  0  0  0  0  0  0  0  0  0  0
   43.6569   24.4054   35.3990 H   0  0  0  0  0  0  0  0  0  0  0  0
   43.8433   25.6867   37.7567 H   0  0  0  0  0  0  0  0  0  0  0  0
   48.3462   24.9870   39.7579 H   0  0  0  0  0  0  0  0  0  0  0  0
   49.3557   22.3679   36.5522 H   0  0  0  0  0  0  0  0  0  0  0  0
  1  2  2  0
  1 10  1  0
  3  2  1  0
  4  5  1  0
  4  3  2  0
  5  1  1  0
  6  7  1  0
  6 10  1  0
  7  8  1  0
  8  9  1  0
 10  9  1  0
 11  6  1  0
 12 11  2  0
 13 12  1  0
 14 15  1  0
 14 13  2  0
 15 16  2  0
 16 11  1  0
 17  4  1  0
 18 17  1  0
 18 19  1  0
 19 27  1  0
 19 20  1  0
 20 21  2  0
 22 21  1  0
 22 23  2  0
 24 23  1  0
 25 24  2  0
 26 25  1  0
 26 27  2  0
 27 22  1  0
  2 28  1  0
  3 29  1  0
  7 30  1  0
  7 31  1  0
  8 32  1  0
  8 33  1  0
  9 34  1  0
  9 35  1  0
 10 36  1  1
 12 37  1  0
 13 38  1  0
 15 39  1  0
 17 40  1  0
 17 41  1  0
 18 42  1  0
 18 43  1  0
 20 44  1  0
 23 45  1  0
 25 46  1  0
M  ISO  8  28  14  29  14  30  13  31  13  32  13  33  13  34  13  35  13
M  ISO  8  36  13  37  14  38  14  39  14  40   8  41   8  42   8  43   8
M  ISO  3  44  14  45  14  46  14
M  END
>  <minimizedAffinity>  (1) 
-5.01785994

>  <minimizedRMSD>  (1) 
2.16469336

$$$$
