
     RDKit          3D

 46 49  0  0  1  0  0  0  0  0999 V2000
   40.9990   22.9040   37.0330 C   0  0  0  0  0  0  0  0  0  0  0  0
   41.1800   21.5380   37.3420 C   0  0  0  0  0  0  0  0  0  0  0  0
   42.4380   21.1980   36.8700 C   0  0  0  0  0  0  0  0  0  0  0  0
   42.9460   22.3540   36.3080 C   0  0  0  0  0  0  0  0  0  0  0  0
   42.0770   23.3310   36.4220 O   0  0  0  0  0  0  0  0  0  0  0  0
   38.8430   23.7630   36.2270 N   0  0  0  0  0  0  0  0  0  0  0  0
   37.7870   24.5930   36.8100 C   0  0  0  0  0  0  0  0  0  0  0  0
   37.6780   24.0020   38.2070 C   0  0  0  0  0  0  0  0  0  0  0  0
   38.8970   23.1200   38.3700 C   0  0  0  0  0  0  0  0  0  0  0  0
   39.8170   23.6660   37.3480 C   0  0  1  0  0  0  0  0  0  0  0  0
   38.9040   23.2060   34.9190 C   0  0  0  0  0  0  0  0  0  0  0  0
   38.3230   21.9790   34.6160 C   0  0  0  0  0  0  0  0  0  0  0  0
   38.4390   21.5170   33.3050 C   0  0  0  0  0  0  0  0  0  0  0  0
   39.1250   22.3120   32.3970 N   0  0  0  0  0  0  0  0  0  0  0  0
   39.6630   23.4820   32.7460 C   0  0  0  0  0  0  0  0  0  0  0  0
   39.5770   23.9690   33.9940 N   0  0  0  0  0  0  0  0  0  0  0  0
   44.2860   22.4730   35.6670 C   0  0  0  0  0  0  0  0  0  0  0  0
   44.7400   23.9210   35.8200 C   0  0  0  0  0  0  0  0  0  0  0  0
   45.8140   24.0700   36.7760 N   0  0  0  0  0  0  0  0  0  0  0  0
   46.9100   23.3410   36.4880 C   0  0  0  0  0  0  0  0  0  0  0  0
   48.0170   23.3820   37.3120 C   0  0  0  0  0  0  0  0  0  0  0  0
   47.9290   24.2060   38.4320 C   0  0  0  0  0  0  0  0  0  0  0  0
   49.0700   24.2490   39.2830 N   0  0  0  0  0  0  0  0  0  0  0  0
   46.8070   24.9190   38.6790 N   0  0  0  0  0  0  0  0  0  0  0  0
   45.7370   24.8650   37.8620 C   0  0  0  0  0  0  0  0  0  0  0  0
   44.6850   25.5200   38.0740 O   0  0  0  0  0  0  0  0  0  0  0  0
   40.4659   20.8766   37.8544 H   0  0  0  0  0  0  0  0  0  0  0  0
   42.9287   20.2153   36.9300 H   0  0  0  0  0  0  0  0  0  0  0  0
   38.0803   25.6527   36.8431 H   0  0  0  0  0  0  0  0  0  0  0  0
   36.8442   24.5849   36.2434 H   0  0  0  0  0  0  0  0  0  0  0  0
   37.6777   24.8008   38.9633 H   0  0  0  0  0  0  0  0  0  0  0  0
   36.7443   23.4355   38.3384 H   0  0  0  0  0  0  0  0  0  0  0  0
   39.3233   23.2115   39.3799 H   0  0  0  0  0  0  0  0  0  0  0  0
   38.6858   22.0476   38.2460 H   0  0  0  0  0  0  0  0  0  0  0  0
   40.3238   24.5910   37.6603 H   0  0  0  0  0  0  0  0  0  0  0  0
   37.7918   21.3947   35.3818 H   0  0  0  0  0  0  0  0  0  0  0  0
   38.0015   20.5547   33.0007 H   0  0  0  0  0  0  0  0  0  0  0  0
   40.1963   24.0687   31.9836 H   0  0  0  0  0  0  0  0  0  0  0  0
   44.2169   22.2117   34.6007 H   0  0  0  0  0  0  0  0  0  0  0  0
   45.0049   21.7892   36.1419 H   0  0  0  0  0  0  0  0  0  0  0  0
   45.0860   24.2867   34.8420 H   0  0  0  0  0  0  0  0  0  0  0  0
   43.8820   24.5012   36.1905 H   0  0  0  0  0  0  0  0  0  0  0  0
   46.9228   22.7078   35.5886 H   0  0  0  0  0  0  0  0  0  0  0  0
   48.9215   22.7946   37.0955 H   0  0  0  0  0  0  0  0  0  0  0  0
   49.0618   24.8410   40.1258 H   0  0  0  0  0  0  0  0  0  0  0  0
   49.9034   23.6881   39.0557 H   0  0  0  0  0  0  0  0  0  0  0  0
  1  2  2  0
  1 10  1  0
  3  2  1  0
  4  5  1  0
  4  3  2  0
  5  1  1  0
  6  7  1  0
  6 10  1  0
  7  8  1  0
  8  9  1  0
 10  9  1  0
 11  6  1  0
 12 11  2  0
 13 12  1  0
 14 15  1  0
 14 13  2  0
 15 16  2  0
 16 11  1  0
 17 18  1  0
 17  4  1  0
 18 19  1  0
 19 25  1  0
 20 19  1  0
 20 21  2  0
 21 22  1  0
 22 24  2  0
 22 23  1  0
 25 26  2  0
 25 24  1  0
  2 27  1  0
  3 28  1  0
  7 29  1  0
  7 30  1  0
  8 31  1  0
  8 32  1  0
  9 33  1  0
  9 34  1  0
 10 35  1  1
 12 36  1  0
 13 37  1  0
 15 38  1  0
 17 39  1  0
 17 40  1  0
 18 41  1  0
 18 42  1  0
 20 43  1  0
 21 44  1  0
 23 45  1  0
 23 46  1  0
M  ISO  8  27  14  28  14  29  13  30  13  31  13  32  13  33  13  34  13
M  ISO  8  35  13  36  14  37  14  38  14  39   8  40   8  41   8  42   8
M  ISO  2  43  14  44  14
M  END
>  <minimizedAffinity>  (1) 
-4.97882748

>  <minimizedRMSD>  (1) 
1.68680108

$$$$
