
     RDKit          3D

 42 45  0  0  1  0  0  0  0  0999 V2000
   38.8110   23.7790   36.3690 N   0  0  0  0  0  0  0  0  0  0  0  0
   37.8000   24.6420   36.9860 C   0  0  0  0  0  0  0  0  0  0  0  0
   37.7290   24.0620   38.3980 C   0  0  0  0  0  0  0  0  0  0  0  0
   38.9400   23.1610   38.5190 C   0  0  0  0  0  0  0  0  0  0  0  0
   39.8260   23.6670   37.4510 C   0  0  1  0  0  0  0  0  0  0  0  0
   38.8070   23.2090   35.0700 C   0  0  0  0  0  0  0  0  0  0  0  0
   38.1640   22.0080   34.7920 C   0  0  0  0  0  0  0  0  0  0  0  0
   38.2220   21.5290   33.4840 C   0  0  0  0  0  0  0  0  0  0  0  0
   38.9170   22.2840   32.5470 N   0  0  0  0  0  0  0  0  0  0  0  0
   39.5160   23.4280   32.8670 C   0  0  0  0  0  0  0  0  0  0  0  0
   39.4860   23.9260   34.1140 N   0  0  0  0  0  0  0  0  0  0  0  0
   40.9780   22.8760   37.0980 C   0  0  0  0  0  0  0  0  0  0  0  0
   41.1500   21.5160   37.4320 C   0  0  0  0  0  0  0  0  0  0  0  0
   42.3770   21.1400   36.9100 C   0  0  0  0  0  0  0  0  0  0  0  0
   42.8770   22.2730   36.2960 C   0  0  0  0  0  0  0  0  0  0  0  0
   42.0320   23.2710   36.4270 O   0  0  0  0  0  0  0  0  0  0  0  0
   44.1870   22.3560   35.5880 C   0  0  0  0  0  0  0  0  0  0  0  0
   44.5820   23.8300   35.5350 C   0  0  0  0  0  0  0  0  0  0  0  0
   45.2500   24.3300   36.6820 C   0  0  0  0  0  0  0  0  0  0  0  0
   44.8200   25.1250   37.7230 C   0  0  0  0  0  0  0  0  0  0  0  0
   45.6730   25.4820   38.7380 C   0  0  0  0  0  0  0  0  0  0  0  0
   47.0270   24.9820   38.6460 C   0  0  0  0  0  0  0  0  0  0  0  0
   46.9710   24.0090   37.0700 S   0  0  0  0  0  0  0  0  0  0  0  0
   38.1224   25.6936   36.9988 H   0  0  0  0  0  0  0  0  0  0  0  0
   36.8360   24.6548   36.4563 H   0  0  0  0  0  0  0  0  0  0  0  0
   37.7700   24.8659   39.1477 H   0  0  0  0  0  0  0  0  0  0  0  0
   36.7906   23.5146   38.5707 H   0  0  0  0  0  0  0  0  0  0  0  0
   39.4123   23.2611   39.5074 H   0  0  0  0  0  0  0  0  0  0  0  0
   38.7015   22.0918   38.4197 H   0  0  0  0  0  0  0  0  0  0  0  0
   40.3677   24.5827   37.7305 H   0  0  0  0  0  0  0  0  0  0  0  0
   37.6279   21.4547   35.5772 H   0  0  0  0  0  0  0  0  0  0  0  0
   37.7336   20.5843   33.2029 H   0  0  0  0  0  0  0  0  0  0  0  0
   40.0534   23.9842   32.0848 H   0  0  0  0  0  0  0  0  0  0  0  0
   40.4497   20.8810   37.9945 H   0  0  0  0  0  0  0  0  0  0  0  0
   42.8524   20.1499   36.9712 H   0  0  0  0  0  0  0  0  0  0  0  0
   44.9483   21.7818   36.1364 H   0  0  0  0  0  0  0  0  0  0  0  0
   44.1088   21.9371   34.5739 H   0  0  0  0  0  0  0  0  0  0  0  0
   45.2457   23.9710   34.6692 H   0  0  0  0  0  0  0  0  0  0  0  0
   43.6380   24.3909   35.4698 H   0  0  0  0  0  0  0  0  0  0  0  0
   43.7785   25.4784   37.7407 H   0  0  0  0  0  0  0  0  0  0  0  0
   45.3443   26.1142   39.5760 H   0  0  0  0  0  0  0  0  0  0  0  0
   47.8713   25.1387   39.3335 H   0  0  0  0  0  0  0  0  0  0  0  0
  1  2  1  0
  1  5  1  0
  2  3  1  0
  3  4  1  0
  5  4  1  0
  6  1  1  0
  7  6  2  0
  8  7  1  0
  9 10  1  0
  9  8  2  0
 10 11  2  0
 11  6  1  0
 12 13  2  0
 12  5  1  0
 14 13  1  0
 15 16  1  0
 15 14  2  0
 16 12  1  0
 17 15  1  0
 18 17  1  0
 18 19  1  0
 19 23  1  0
 19 20  2  0
 20 21  1  0
 22 21  2  0
 23 22  1  0
  2 24  1  0
  2 25  1  0
  3 26  1  0
  3 27  1  0
  4 28  1  0
  4 29  1  0
  5 30  1  1
  7 31  1  0
  8 32  1  0
 10 33  1  0
 13 34  1  0
 14 35  1  0
 17 36  1  0
 17 37  1  0
 18 38  1  0
 18 39  1  0
 20 40  1  0
 21 41  1  0
 22 42  1  0
M  ISO  8  24  13  25  13  26  13  27  13  28  13  29  13  30  13  31  14
M  ISO  8  32  14  33  14  34  14  35  14  36   8  37   8  38   8  39   8
M  ISO  3  40  14  41  14  42  14
M  END
>  <minimizedAffinity>  (1) 
-4.94468641

>  <minimizedRMSD>  (1) 
1.59033775

$$$$
