
     RDKit          3D

 48 52  0  0  1  0  0  0  0  0999 V2000
   41.0410   22.8940   37.1190 C   0  0  0  0  0  0  0  0  0  0  0  0
   41.2040   21.5220   37.4060 C   0  0  0  0  0  0  0  0  0  0  0  0
   42.4450   21.1630   36.9070 C   0  0  0  0  0  0  0  0  0  0  0  0
   42.9690   22.3310   36.3470 C   0  0  0  0  0  0  0  0  0  0  0  0
   42.1160   23.3110   36.4940 O   0  0  0  0  0  0  0  0  0  0  0  0
   38.8870   23.8070   36.3680 N   0  0  0  0  0  0  0  0  0  0  0  0
   37.8560   24.6470   36.9840 C   0  0  0  0  0  0  0  0  0  0  0  0
   37.7660   24.0400   38.3800 C   0  0  0  0  0  0  0  0  0  0  0  0
   38.9710   23.1320   38.5000 C   0  0  0  0  0  0  0  0  0  0  0  0
   39.8800   23.6730   37.4670 C   0  0  1  0  0  0  0  0  0  0  0  0
   38.9140   23.2680   35.0480 C   0  0  0  0  0  0  0  0  0  0  0  0
   38.3450   22.0340   34.7460 C   0  0  0  0  0  0  0  0  0  0  0  0
   38.4290   21.5970   33.4270 C   0  0  0  0  0  0  0  0  0  0  0  0
   39.0710   22.4130   32.5050 N   0  0  0  0  0  0  0  0  0  0  0  0
   39.5990   23.5880   32.8560 C   0  0  0  0  0  0  0  0  0  0  0  0
   39.5420   24.0530   34.1140 N   0  0  0  0  0  0  0  0  0  0  0  0
   44.2920   22.4300   35.6860 C   0  0  0  0  0  0  0  0  0  0  0  0
   44.6730   23.9020   35.6550 C   0  0  0  0  0  0  0  0  0  0  0  0
   45.7260   24.0810   36.6540 N   0  0  0  0  0  0  0  0  0  0  0  0
   45.5450   24.8850   37.7420 C   0  0  0  0  0  0  0  0  0  0  0  0
   46.6480   24.9020   38.5300 N   0  0  0  0  0  0  0  0  0  0  0  0
   47.5460   24.0920   37.9310 C   0  0  0  0  0  0  0  0  0  0  0  0
   48.8350   23.6800   38.2030 C   0  0  0  0  0  0  0  0  0  0  0  0
   49.4850   22.8400   37.3870 N   0  0  0  0  0  0  0  0  0  0  0  0
   48.8720   22.3750   36.2590 C   0  0  0  0  0  0  0  0  0  0  0  0
   47.6020   22.7410   35.9320 N   0  0  0  0  0  0  0  0  0  0  0  0
   46.9750   23.5920   36.7810 C   0  0  0  0  0  0  0  0  0  0  0  0
   49.4120   24.2130   39.4070 N   0  0  0  0  0  0  0  0  0  0  0  0
   40.4873   20.8674   37.9235 H   0  0  0  0  0  0  0  0  0  0  0  0
   42.9174   20.1703   36.9437 H   0  0  0  0  0  0  0  0  0  0  0  0
   38.1669   25.7014   37.0233 H   0  0  0  0  0  0  0  0  0  0  0  0
   36.9015   24.6600   36.4374 H   0  0  0  0  0  0  0  0  0  0  0  0
   37.8003   24.8288   39.1459 H   0  0  0  0  0  0  0  0  0  0  0  0
   36.8237   23.4923   38.5287 H   0  0  0  0  0  0  0  0  0  0  0  0
   39.4216   23.1989   39.5012 H   0  0  0  0  0  0  0  0  0  0  0  0
   38.7341   22.0666   38.3628 H   0  0  0  0  0  0  0  0  0  0  0  0
   40.4115   24.5834   37.7812 H   0  0  0  0  0  0  0  0  0  0  0  0
   37.8488   21.4284   35.5187 H   0  0  0  0  0  0  0  0  0  0  0  0
   37.9984   20.6314   33.1233 H   0  0  0  0  0  0  0  0  0  0  0  0
   40.0982   24.1963   32.0874 H   0  0  0  0  0  0  0  0  0  0  0  0
   45.0407   21.8593   36.2549 H   0  0  0  0  0  0  0  0  0  0  0  0
   44.2503   22.0170   34.6673 H   0  0  0  0  0  0  0  0  0  0  0  0
   45.0455   24.1769   34.6572 H   0  0  0  0  0  0  0  0  0  0  0  0
   43.8052   24.5416   35.8737 H   0  0  0  0  0  0  0  0  0  0  0  0
   44.6230   25.4468   37.9524 H   0  0  0  0  0  0  0  0  0  0  0  0
   49.4184   21.6868   35.5973 H   0  0  0  0  0  0  0  0  0  0  0  0
   50.3708   23.9520   39.6779 H   0  0  0  0  0  0  0  0  0  0  0  0
   48.8666   24.8559   39.9987 H   0  0  0  0  0  0  0  0  0  0  0  0
  1  2  2  0
  1 10  1  0
  3  2  1  0
  4  5  1  0
  4  3  2  0
  5  1  1  0
  6  7  1  0
  6 10  1  0
  7  8  1  0
  8  9  1  0
 10  9  1  0
 11  6  1  0
 12 11  2  0
 13 12  1  0
 14 15  1  0
 14 13  2  0
 15 16  2  0
 16 11  1  0
 17  4  1  0
 18 17  1  0
 18 19  1  0
 19 27  1  0
 19 20  1  0
 20 21  2  0
 22 23  2  0
 22 21  1  0
 23 28  1  0
 24 23  1  0
 25 24  2  0
 26 25  1  0
 26 27  2  0
 27 22  1  0
  2 29  1  0
  3 30  1  0
  7 31  1  0
  7 32  1  0
  8 33  1  0
  8 34  1  0
  9 35  1  0
  9 36  1  0
 10 37  1  1
 12 38  1  0
 13 39  1  0
 15 40  1  0
 17 41  1  0
 17 42  1  0
 18 43  1  0
 18 44  1  0
 20 45  1  0
 25 46  1  0
 28 47  1  0
 28 48  1  0
M  ISO  8  29  14  30  14  31  13  32  13  33  13  34  13  35  13  36  13
M  ISO  8  37  13  38  14  39  14  40  14  41   8  42   8  43   8  44   8
M  ISO  2  45  14  46  14
M  END
>  <minimizedAffinity>  (1) 
-4.8148036

>  <minimizedRMSD>  (1) 
2.07487154

$$$$
