
     RDKit          3D

 43 45  0  0  0  0  0  0  0  0999 V2000
   38.1310   23.7280   37.0630 C   0  0  0  0  0  0  0  0  0  0  0  0
   41.4710   22.0130   37.2640 C   0  0  0  0  0  0  0  0  0  0  0  0
   40.1550   22.3100   37.5600 C   0  0  0  0  0  0  0  0  0  0  0  0
   39.5230   23.3420   36.8250 C   0  0  0  0  0  0  0  0  0  0  0  0
   40.2320   24.0080   35.8510 N   0  0  0  0  0  0  0  0  0  0  0  0
   41.5230   23.6730   35.6040 C   0  0  0  0  0  0  0  0  0  0  0  0
   42.1450   22.6790   36.3050 N   0  0  0  0  0  0  0  0  0  0  0  0
   38.0690   24.3660   38.4500 C   0  0  0  0  0  0  0  0  0  0  0  0
   37.5740   24.6630   36.0260 C   0  0  0  0  0  0  0  0  0  0  0  0
   37.2560   22.5030   37.0630 C   0  0  0  0  0  0  0  0  0  0  0  0
   37.0480   21.9180   35.7480 C   0  0  0  0  0  0  0  0  0  0  0  0
   35.9620   21.1850   35.4270 C   0  0  0  0  0  0  0  0  0  0  0  0
   35.6860   20.6170   34.2490 C   0  0  0  0  0  0  0  0  0  0  0  0
   36.7860   20.9130   33.2910 C   0  0  0  0  0  0  0  0  0  0  0  0
   38.0180   21.9570   34.2660 S   0  0  0  0  0  0  0  0  0  0  0  0
   37.0020   20.5670   31.9400 N   0  0  0  0  0  0  0  0  0  0  0  0
   35.9850   19.7860   31.2260 C   0  0  0  0  0  0  0  0  0  0  0  0
   36.4810   19.2850   29.9080 C   0  0  0  0  0  0  0  0  0  0  0  0
   37.9200   19.2900   29.7670 N   0  0  0  0  0  0  0  0  0  0  0  0
   38.3500   20.6750   29.8910 C   0  0  0  0  0  0  0  0  0  0  0  0
   38.2500   21.0260   31.3500 C   0  0  0  0  0  0  0  0  0  0  0  0
   41.9808   21.2148   37.8235 H   0  0  0  0  0  0  0  0  0  0  0  0
   39.6135   21.7606   38.3442 H   0  0  0  0  0  0  0  0  0  0  0  0
   42.0801   24.2124   34.8238 H   0  0  0  0  0  0  0  0  0  0  0  0
   38.1452   23.5821   39.2179 H   0  0  0  0  0  0  0  0  0  0  0  0
   38.9025   25.0745   38.5653 H   0  0  0  0  0  0  0  0  0  0  0  0
   37.1147   24.9007   38.5653 H   0  0  0  0  0  0  0  0  0  0  0  0
   37.0720   25.5057   36.5239 H   0  0  0  0  0  0  0  0  0  0  0  0
   38.3928   25.0434   35.3976 H   0  0  0  0  0  0  0  0  0  0  0  0
   36.8496   24.1241   35.3976 H   0  0  0  0  0  0  0  0  0  0  0  0
   37.7245   21.7447   37.7076 H   0  0  0  0  0  0  0  0  0  0  0  0
   36.2678   22.8209   37.4270 H   0  0  0  0  0  0  0  0  0  0  0  0
   35.2195   21.0381   36.2252 H   0  0  0  0  0  0  0  0  0  0  0  0
   34.7874   20.0241   34.0231 H   0  0  0  0  0  0  0  0  0  0  0  0
   35.6987   18.9247   31.8475 H   0  0  0  0  0  0  0  0  0  0  0  0
   35.1252   20.4450   31.0351 H   0  0  0  0  0  0  0  0  0  0  0  0
   36.1267   18.2518   29.7779 H   0  0  0  0  0  0  0  0  0  0  0  0
   36.0897   19.9735   29.1446 H   0  0  0  0  0  0  0  0  0  0  0  0
   38.1872   18.9170   28.8448 H   0  0  0  0  0  0  0  0  0  0  0  0
   39.3886   20.7826   29.5449 H   0  0  0  0  0  0  0  0  0  0  0  0
   37.7247   21.3413   29.2785 H   0  0  0  0  0  0  0  0  0  0  0  0
   39.0888   20.5574   31.8856 H   0  0  0  0  0  0  0  0  0  0  0  0
   38.2825   22.1221   31.4372 H   0  0  0  0  0  0  0  0  0  0  0  0
  1 10  1  0
  1  8  1  0
  2  3  2  0
  4  1  1  0
  4  3  1  0
  5  4  2  0
  6  5  1  0
  6  7  2  0
  7  2  1  0
  9  1  1  0
 11 10  1  0
 12 11  2  0
 13 12  1  0
 14 13  2  0
 14 15  1  0
 15 11  1  0
 16 14  1  0
 17 16  1  0
 18 17  1  0
 19 20  1  0
 19 18  1  0
 20 21  1  0
 21 16  1  0
  2 22  1  0
  3 23  1  0
  6 24  1  0
  8 25  1  0
  8 26  1  0
  8 27  1  0
  9 28  1  0
  9 29  1  0
  9 30  1  0
 10 31  1  0
 10 32  1  0
 12 33  1  0
 13 34  1  0
 17 35  1  0
 17 36  1  0
 18 37  1  0
 18 38  1  0
 19 39  1  0
 20 40  1  0
 20 41  1  0
 21 42  1  0
 21 43  1  0
M  ISO  8  22  14  23  14  24  14  25   8  26   8  27   8  28   8  29   8
M  ISO  8  30   8  31   8  32   8  33  14  34  14  35  13  36  13  37  13
M  ISO  6  38  13  39   5  40  13  41  13  42  13  43  13
M  END
>  <minimizedAffinity>  (1) 
-4.61433554

>  <minimizedRMSD>  (1) 
0.256603718

$$$$
