
     RDKit          3D

 42 45  0  0  1  0  0  0  0  0999 V2000
   38.8810   23.7900   36.3670 N   0  0  0  0  0  0  0  0  0  0  0  0
   37.8440   24.6260   36.9710 C   0  0  0  0  0  0  0  0  0  0  0  0
   37.7170   24.0160   38.3560 C   0  0  0  0  0  0  0  0  0  0  0  0
   38.9330   23.1110   38.5050 C   0  0  0  0  0  0  0  0  0  0  0  0
   39.8520   23.6640   37.4870 C   0  0  1  0  0  0  0  0  0  0  0  0
   38.9310   23.2560   35.0580 C   0  0  0  0  0  0  0  0  0  0  0  0
   38.3770   22.0170   34.7410 C   0  0  0  0  0  0  0  0  0  0  0  0
   38.4800   21.5750   33.4230 C   0  0  0  0  0  0  0  0  0  0  0  0
   39.1290   22.4000   32.5130 N   0  0  0  0  0  0  0  0  0  0  0  0
   39.6450   23.5830   32.8710 C   0  0  0  0  0  0  0  0  0  0  0  0
   39.5650   24.0400   34.1310 N   0  0  0  0  0  0  0  0  0  0  0  0
   41.0260   22.8890   37.1580 C   0  0  0  0  0  0  0  0  0  0  0  0
   41.1650   21.5030   37.3780 C   0  0  0  0  0  0  0  0  0  0  0  0
   42.4280   21.1600   36.9220 C   0  0  0  0  0  0  0  0  0  0  0  0
   42.9880   22.3330   36.4550 C   0  0  0  0  0  0  0  0  0  0  0  0
   42.1380   23.3160   36.6100 O   0  0  0  0  0  0  0  0  0  0  0  0
   44.3420   22.4820   35.8620 C   0  0  0  0  0  0  0  0  0  0  0  0
   44.6770   23.9580   35.7980 C   0  0  0  0  0  0  0  0  0  0  0  0
   45.4130   24.4360   36.9310 N   0  0  0  0  0  0  0  0  0  0  0  0
   46.6470   24.2990   37.4400 C   0  0  0  0  0  0  0  0  0  0  0  0
   46.8090   25.0250   38.6000 C   0  0  0  0  0  0  0  0  0  0  0  0
   45.6380   25.6300   38.8110 N   0  0  0  0  0  0  0  0  0  0  0  0
   44.8000   25.2790   37.8140 C   0  0  0  0  0  0  0  0  0  0  0  0
   38.1595   25.6784   37.0248 H   0  0  0  0  0  0  0  0  0  0  0  0
   36.9011   24.6431   36.4047 H   0  0  0  0  0  0  0  0  0  0  0  0
   37.7238   24.8016   39.1259 H   0  0  0  0  0  0  0  0  0  0  0  0
   36.7743   23.4623   38.4772 H   0  0  0  0  0  0  0  0  0  0  0  0
   39.3641   23.1832   39.5144 H   0  0  0  0  0  0  0  0  0  0  0  0
   38.7107   22.0423   38.3691 H   0  0  0  0  0  0  0  0  0  0  0  0
   40.3648   24.5814   37.8116 H   0  0  0  0  0  0  0  0  0  0  0  0
   37.8745   21.4074   35.5064 H   0  0  0  0  0  0  0  0  0  0  0  0
   38.0616   20.6058   33.1139 H   0  0  0  0  0  0  0  0  0  0  0  0
   40.1489   24.1980   32.1108 H   0  0  0  0  0  0  0  0  0  0  0  0
   40.4191   20.8281   37.8231 H   0  0  0  0  0  0  0  0  0  0  0  0
   42.8887   20.1612   36.9303 H   0  0  0  0  0  0  0  0  0  0  0  0
   45.0810   21.9603   36.4878 H   0  0  0  0  0  0  0  0  0  0  0  0
   44.3621   22.0461   34.8523 H   0  0  0  0  0  0  0  0  0  0  0  0
   45.2773   24.1380   34.8940 H   0  0  0  0  0  0  0  0  0  0  0  0
   43.7211   24.5022   35.7855 H   0  0  0  0  0  0  0  0  0  0  0  0
   47.4353   23.6809   36.9855 H   0  0  0  0  0  0  0  0  0  0  0  0
   47.7139   25.0920   39.2219 H   0  0  0  0  0  0  0  0  0  0  0  0
   43.7600   25.6259   37.7239 H   0  0  0  0  0  0  0  0  0  0  0  0
  1  2  1  0
  1  5  1  0
  2  3  1  0
  3  4  1  0
  5  4  1  0
  6  1  1  0
  7  6  2  0
  8  7  1  0
  9 10  1  0
  9  8  2  0
 10 11  2  0
 11  6  1  0
 12 13  2  0
 12  5  1  0
 14 13  1  0
 15 16  1  0
 15 14  2  0
 16 12  1  0
 17 15  1  0
 18 17  1  0
 18 19  1  0
 19 20  1  0
 19 23  1  0
 20 21  2  0
 21 22  1  0
 23 22  2  0
  2 24  1  0
  2 25  1  0
  3 26  1  0
  3 27  1  0
  4 28  1  0
  4 29  1  0
  5 30  1  1
  7 31  1  0
  8 32  1  0
 10 33  1  0
 13 34  1  0
 14 35  1  0
 17 36  1  0
 17 37  1  0
 18 38  1  0
 18 39  1  0
 20 40  1  0
 21 41  1  0
 23 42  1  0
M  ISO  8  24  13  25  13  26  13  27  13  28  13  29  13  30  13  31  14
M  ISO  8  32  14  33  14  34  14  35  14  36   8  37   8  38   8  39   8
M  ISO  3  40  14  41  14  42  14
M  END
>  <minimizedAffinity>  (1) 
-4.66668367

>  <minimizedRMSD>  (1) 
0.865207076

$$$$
