
     RDKit          3D

 50 54  0  0  1  0  0  0  0  0999 V2000
   40.9060   22.9940   36.8110 C   0  0  0  0  0  0  0  0  0  0  0  0
   41.2690   21.6860   37.2280 C   0  0  0  0  0  0  0  0  0  0  0  0
   42.4740   21.3940   36.6150 C   0  0  0  0  0  0  0  0  0  0  0  0
   42.7800   22.5300   35.8620 C   0  0  0  0  0  0  0  0  0  0  0  0
   41.8330   23.4330   36.0110 O   0  0  0  0  0  0  0  0  0  0  0  0
   38.6530   23.7250   36.1620 N   0  0  0  0  0  0  0  0  0  0  0  0
   37.5990   24.4860   36.8420 C   0  0  0  0  0  0  0  0  0  0  0  0
   37.6050   23.8630   38.2260 C   0  0  0  0  0  0  0  0  0  0  0  0
   38.8970   23.0850   38.2970 C   0  0  0  0  0  0  0  0  0  0  0  0
   39.7120   23.6650   37.2300 C   0  0  1  0  0  0  0  0  0  0  0  0
   38.6550   23.1990   34.8500 C   0  0  0  0  0  0  0  0  0  0  0  0
   38.1860   21.9240   34.5690 C   0  0  0  0  0  0  0  0  0  0  0  0
   38.2350   21.5010   33.2430 C   0  0  0  0  0  0  0  0  0  0  0  0
   38.7470   22.3800   32.2940 N   0  0  0  0  0  0  0  0  0  0  0  0
   39.1840   23.5970   32.6250 C   0  0  0  0  0  0  0  0  0  0  0  0
   39.1590   24.0510   33.8880 N   0  0  0  0  0  0  0  0  0  0  0  0
   44.0020   22.6920   35.0150 C   0  0  0  0  0  0  0  0  0  0  0  0
   45.0710   23.3020   35.9050 C   0  0  0  0  0  0  0  0  0  0  0  0
   44.7380   24.5300   36.3620 O   0  0  0  0  0  0  0  0  0  0  0  0
   44.5440   25.6340   35.5720 C   0  0  0  0  0  0  0  0  0  0  0  0
   43.5780   26.2990   34.8600 C   0  0  0  0  0  0  0  0  0  0  0  0
   44.0350   27.4020   34.2490 N   0  0  0  0  0  0  0  0  0  0  0  0
   45.3400   27.4890   34.5510 C   0  0  0  0  0  0  0  0  0  0  0  0
   46.1940   28.4830   34.1230 C   0  0  0  0  0  0  0  0  0  0  0  0
   47.5050   28.4300   34.5200 C   0  0  0  0  0  0  0  0  0  0  0  0
   47.9050   27.4030   35.3180 C   0  0  0  0  0  0  0  0  0  0  0  0
   47.0340   26.4230   35.7330 C   0  0  0  0  0  0  0  0  0  0  0  0
   45.6920   26.4110   35.3700 C   0  0  0  0  0  0  0  0  0  0  0  0
   40.7019   21.0320   37.9068 H   0  0  0  0  0  0  0  0  0  0  0  0
   43.0629   20.4690   36.7016 H   0  0  0  0  0  0  0  0  0  0  0  0
   37.8436   25.5576   36.8847 H   0  0  0  0  0  0  0  0  0  0  0  0
   36.6222   24.4395   36.3383 H   0  0  0  0  0  0  0  0  0  0  0  0
   37.5798   24.6428   39.0014 H   0  0  0  0  0  0  0  0  0  0  0  0
   36.7266   23.2229   38.3955 H   0  0  0  0  0  0  0  0  0  0  0  0
   39.3810   23.2174   39.2759 H   0  0  0  0  0  0  0  0  0  0  0  0
   38.7485   22.0016   38.1780 H   0  0  0  0  0  0  0  0  0  0  0  0
   40.1972   24.6024   37.5396 H   0  0  0  0  0  0  0  0  0  0  0  0
   37.7909   21.2726   35.3625 H   0  0  0  0  0  0  0  0  0  0  0  0
   37.8792   20.5009   32.9544 H   0  0  0  0  0  0  0  0  0  0  0  0
   39.5789   24.2516   31.8341 H   0  0  0  0  0  0  0  0  0  0  0  0
   44.3349   21.7135   34.6385 H   0  0  0  0  0  0  0  0  0  0  0  0
   43.7984   23.3328   34.1444 H   0  0  0  0  0  0  0  0  0  0  0  0
   45.2304   22.6380   36.7674 H   0  0  0  0  0  0  0  0  0  0  0  0
   45.9821   23.4117   35.2984 H   0  0  0  0  0  0  0  0  0  0  0  0
   42.5331   25.9613   34.7966 H   0  0  0  0  0  0  0  0  0  0  0  0
   43.4922   28.0532   33.6640 H   0  0  0  0  0  0  0  0  0  0  0  0
   45.8325   29.2982   33.4790 H   0  0  0  0  0  0  0  0  0  0  0  0
   48.2196   29.2025   34.1998 H   0  0  0  0  0  0  0  0  0  0  0  0
   48.9556   27.3553   35.6405 H   0  0  0  0  0  0  0  0  0  0  0  0
   47.4141   25.6168   36.3776 H   0  0  0  0  0  0  0  0  0  0  0  0
  1  2  2  0
  1 10  1  0
  3  2  1  0
  4  5  1  0
  4  3  2  0
  5  1  1  0
  6  7  1  0
  6 10  1  0
  7  8  1  0
  8  9  1  0
 10  9  1  0
 11  6  1  0
 12 11  2  0
 13 12  1  0
 14 15  1  0
 14 13  2  0
 15 16  2  0
 16 11  1  0
 17  4  1  0
 17 18  1  0
 18 19  1  0
 20 19  1  0
 21 20  2  0
 22 23  1  0
 22 21  1  0
 23 28  2  0
 24 25  2  0
 24 23  1  0
 25 26  1  0
 26 27  2  0
 28 20  1  0
 28 27  1  0
  2 29  1  0
  3 30  1  0
  7 31  1  0
  7 32  1  0
  8 33  1  0
  8 34  1  0
  9 35  1  0
  9 36  1  0
 10 37  1  1
 12 38  1  0
 13 39  1  0
 15 40  1  0
 17 41  1  0
 17 42  1  0
 18 43  1  0
 18 44  1  0
 21 45  1  0
 22 46  1  0
 24 47  1  0
 25 48  1  0
 26 49  1  0
 27 50  1  0
M  ISO  8  29  14  30  14  31  13  32  13  33  13  34  13  35  13  36  13
M  ISO  8  37  13  38  14  39  14  40  14  41   8  42   8  43   8  44   8
M  ISO  6  45  14  46   9  47  14  48  14  49  14  50  14
M  END
>  <minimizedAffinity>  (1) 
-4.89683771

>  <minimizedRMSD>  (1) 
1.14665616

$$$$
