
     RDKit          3D

 35 37  0  0  0  0  0  0  0  0999 V2000
   38.1330   23.7620   37.0370 C   0  0  0  0  0  0  0  0  0  0  0  0
   41.4510   22.0060   37.2500 C   0  0  0  0  0  0  0  0  0  0  0  0
   40.1350   22.3300   37.5440 C   0  0  0  0  0  0  0  0  0  0  0  0
   39.5170   23.3430   36.8110 C   0  0  0  0  0  0  0  0  0  0  0  0
   40.2390   23.9660   35.8390 N   0  0  0  0  0  0  0  0  0  0  0  0
   41.5110   23.6330   35.5750 C   0  0  0  0  0  0  0  0  0  0  0  0
   42.1180   22.6510   36.2820 N   0  0  0  0  0  0  0  0  0  0  0  0
   38.0840   24.4360   38.4140 C   0  0  0  0  0  0  0  0  0  0  0  0
   37.5730   24.6640   35.9740 C   0  0  0  0  0  0  0  0  0  0  0  0
   37.2530   22.5290   37.0910 C   0  0  0  0  0  0  0  0  0  0  0  0
   37.0130   21.9090   35.8040 C   0  0  0  0  0  0  0  0  0  0  0  0
   35.9270   21.1590   35.5330 C   0  0  0  0  0  0  0  0  0  0  0  0
   35.6280   20.5690   34.3710 C   0  0  0  0  0  0  0  0  0  0  0  0
   36.6870   20.8580   33.3800 C   0  0  0  0  0  0  0  0  0  0  0  0
   37.9490   21.9370   34.2870 S   0  0  0  0  0  0  0  0  0  0  0  0
   36.8790   20.5010   32.0330 N   0  0  0  0  0  0  0  0  0  0  0  0
   35.9460   19.8940   31.2740 C   0  0  0  0  0  0  0  0  0  0  0  0
   36.4010   19.6690   30.0210 N   0  0  0  0  0  0  0  0  0  0  0  0
   37.6700   20.1640   30.0270 C   0  0  0  0  0  0  0  0  0  0  0  0
   37.9590   20.6710   31.2530 N   0  0  0  0  0  0  0  0  0  0  0  0
   41.9541   21.2097   37.8182 H   0  0  0  0  0  0  0  0  0  0  0  0
   39.5900   21.7993   38.3386 H   0  0  0  0  0  0  0  0  0  0  0  0
   42.0625   24.1592   34.7819 H   0  0  0  0  0  0  0  0  0  0  0  0
   38.1398   23.6685   39.2001 H   0  0  0  0  0  0  0  0  0  0  0  0
   38.9343   25.1265   38.5147 H   0  0  0  0  0  0  0  0  0  0  0  0
   37.1428   24.9963   38.5147 H   0  0  0  0  0  0  0  0  0  0  0  0
   37.0493   25.5075   36.4475 H   0  0  0  0  0  0  0  0  0  0  0  0
   38.3929   25.0462   35.3481 H   0  0  0  0  0  0  0  0  0  0  0  0
   36.8668   24.0987   35.3481 H   0  0  0  0  0  0  0  0  0  0  0  0
   37.7375   21.7887   37.7446 H   0  0  0  0  0  0  0  0  0  0  0  0
   36.2737   22.8582   37.4687 H   0  0  0  0  0  0  0  0  0  0  0  0
   35.2101   21.0170   36.3551 H   0  0  0  0  0  0  0  0  0  0  0  0
   34.7310   19.9613   34.1811 H   0  0  0  0  0  0  0  0  0  0  0  0
   34.9422   19.6169   31.6285 H   0  0  0  0  0  0  0  0  0  0  0  0
   38.3571   20.1544   29.1681 H   0  0  0  0  0  0  0  0  0  0  0  0
  1 10  1  0
  1  8  1  0
  2  3  2  0
  4  1  1  0
  4  3  1  0
  5  4  2  0
  6  5  1  0
  6  7  2  0
  7  2  1  0
  9  1  1  0
 11 10  1  0
 12 11  2  0
 13 12  1  0
 14 15  1  0
 14 13  2  0
 15 11  1  0
 16 14  1  0
 17 16  1  0
 18 19  1  0
 18 17  2  0
 19 20  2  0
 20 16  1  0
  2 21  1  0
  3 22  1  0
  6 23  1  0
  8 24  1  0
  8 25  1  0
  8 26  1  0
  9 27  1  0
  9 28  1  0
  9 29  1  0
 10 30  1  0
 10 31  1  0
 12 32  1  0
 13 33  1  0
 17 34  1  0
 19 35  1  0
M  ISO  8  21  14  22  14  23  14  24   8  25   8  26   8  27   8  28   8
M  ISO  7  29   8  30   8  31   8  32  14  33  14  34  14  35  14
M  END
>  <minimizedAffinity>  (1) 
-4.56796265

>  <minimizedRMSD>  (1) 
0.28277272

$$$$
