
     RDKit          3D

 45 47  0  0  1  0  0  0  0  0999 V2000
   38.9660   23.7830   36.3640 N   0  0  0  0  0  0  0  0  0  0  0  0
   37.9440   24.6530   36.9660 C   0  0  0  0  0  0  0  0  0  0  0  0
   37.7880   24.0510   38.3400 C   0  0  0  0  0  0  0  0  0  0  0  0
   38.9980   23.1430   38.5100 C   0  0  0  0  0  0  0  0  0  0  0  0
   39.9380   23.6320   37.5050 C   0  0  1  0  0  0  0  0  0  0  0  0
   39.0070   23.2450   35.0540 C   0  0  0  0  0  0  0  0  0  0  0  0
   38.4170   22.0330   34.7410 C   0  0  0  0  0  0  0  0  0  0  0  0
   38.5200   21.5980   33.4220 C   0  0  0  0  0  0  0  0  0  0  0  0
   39.2000   22.3980   32.5160 N   0  0  0  0  0  0  0  0  0  0  0  0
   39.7490   23.5580   32.8780 C   0  0  0  0  0  0  0  0  0  0  0  0
   39.6780   24.0240   34.1360 N   0  0  0  0  0  0  0  0  0  0  0  0
   41.0920   22.8520   37.1700 C   0  0  0  0  0  0  0  0  0  0  0  0
   41.2030   21.4580   37.4250 C   0  0  0  0  0  0  0  0  0  0  0  0
   42.4520   21.0820   36.9610 C   0  0  0  0  0  0  0  0  0  0  0  0
   43.0210   22.2450   36.4580 C   0  0  0  0  0  0  0  0  0  0  0  0
   42.1890   23.2560   36.6020 O   0  0  0  0  0  0  0  0  0  0  0  0
   44.3810   22.3280   35.8450 C   0  0  0  0  0  0  0  0  0  0  0  0
   44.8490   23.7640   36.0070 C   0  0  0  0  0  0  0  0  0  0  0  0
   45.9980   23.8690   36.7300 O   0  0  0  0  0  0  0  0  0  0  0  0
   46.0910   25.0210   37.4560 C   0  0  0  0  0  0  0  0  0  0  0  0
   46.9260   24.8690   38.7130 C   0  0  0  0  0  0  0  0  0  0  0  0
   44.7290   25.5170   37.9320 C   0  0  0  0  0  0  0  0  0  0  0  0
   38.2903   25.6955   37.0236 H   0  0  0  0  0  0  0  0  0  0  0  0
   37.0063   24.6974   36.3926 H   0  0  0  0  0  0  0  0  0  0  0  0
   37.7835   24.8377   39.1089 H   0  0  0  0  0  0  0  0  0  0  0  0
   36.8406   23.5023   38.4464 H   0  0  0  0  0  0  0  0  0  0  0  0
   39.4204   23.2367   39.5214 H   0  0  0  0  0  0  0  0  0  0  0  0
   38.7540   22.0777   38.3847 H   0  0  0  0  0  0  0  0  0  0  0  0
   40.4886   24.5195   37.8502 H   0  0  0  0  0  0  0  0  0  0  0  0
   37.8893   21.4386   35.5014 H   0  0  0  0  0  0  0  0  0  0  0  0
   38.0731   20.6436   33.1067 H   0  0  0  0  0  0  0  0  0  0  0  0
   40.2785   24.1541   32.1202 H   0  0  0  0  0  0  0  0  0  0  0  0
   40.4493   20.8095   37.8956 H   0  0  0  0  0  0  0  0  0  0  0  0
   42.8984   20.0770   36.9854 H   0  0  0  0  0  0  0  0  0  0  0  0
   44.3323   22.0637   34.7783 H   0  0  0  0  0  0  0  0  0  0  0  0
   45.0767   21.6290   36.3322 H   0  0  0  0  0  0  0  0  0  0  0  0
   45.0226   24.1913   35.0083 H   0  0  0  0  0  0  0  0  0  0  0  0
   44.0642   24.3069   36.5541 H   0  0  0  0  0  0  0  0  0  0  0  0
   46.5610   25.7301   36.7587 H   0  0  0  0  0  0  0  0  0  0  0  0
   46.2822   24.9862   39.5972 H   0  0  0  0  0  0  0  0  0  0  0  0
   47.3898   23.8717   38.7267 H   0  0  0  0  0  0  0  0  0  0  0  0
   47.7115   25.6389   38.7267 H   0  0  0  0  0  0  0  0  0  0  0  0
   44.7057   25.5255   39.0317 H   0  0  0  0  0  0  0  0  0  0  0  0
   44.5570   26.5355   37.5537 H   0  0  0  0  0  0  0  0  0  0  0  0
   43.9423   24.8476   37.5537 H   0  0  0  0  0  0  0  0  0  0  0  0
  1  2  1  0
  1  5  1  0
  2  3  1  0
  3  4  1  0
  5  4  1  0
  6  1  1  0
  7  6  2  0
  8  7  1  0
  9 10  1  0
  9  8  2  0
 10 11  2  0
 11  6  1  0
 12 13  2  0
 12  5  1  0
 14 13  1  0
 15 16  1  0
 15 14  2  0
 16 12  1  0
 17 18  1  0
 17 15  1  0
 18 19  1  0
 19 20  1  0
 20 22  1  0
 20 21  1  0
  2 23  1  0
  2 24  1  0
  3 25  1  0
  3 26  1  0
  4 27  1  0
  4 28  1  0
  5 29  1  1
  7 30  1  0
  8 31  1  0
 10 32  1  0
 13 33  1  0
 14 34  1  0
 17 35  1  0
 17 36  1  0
 18 37  1  0
 18 38  1  0
 20 39  1  0
 21 40  1  0
 21 41  1  0
 21 42  1  0
 22 43  1  0
 22 44  1  0
 22 45  1  0
M  ISO  8  23  13  24  13  25  13  26  13  27  13  28  13  29  13  30  14
M  ISO  8  31  14  32  14  33  14  34  14  35   8  36   8  37   8  38   8
M  ISO  7  39   8  40   8  41   8  42   8  43   8  44   8  45   8
M  END
>  <minimizedAffinity>  (1) 
-4.46493769

>  <minimizedRMSD>  (1) 
1.80453789

$$$$
