
     RDKit          3D

 39 41  0  0  1  0  0  0  0  0999 V2000
   38.9410   23.7810   36.3470 N   0  0  0  0  0  0  0  0  0  0  0  0
   37.9160   24.6400   36.9700 C   0  0  0  0  0  0  0  0  0  0  0  0
   37.8050   24.0350   38.3520 C   0  0  0  0  0  0  0  0  0  0  0  0
   39.0240   23.1420   38.4870 C   0  0  0  0  0  0  0  0  0  0  0  0
   39.9400   23.6390   37.4660 C   0  0  1  0  0  0  0  0  0  0  0  0
   38.9580   23.2450   35.0330 C   0  0  0  0  0  0  0  0  0  0  0  0
   38.4000   22.0200   34.7380 C   0  0  0  0  0  0  0  0  0  0  0  0
   38.4760   21.5890   33.4120 C   0  0  0  0  0  0  0  0  0  0  0  0
   39.1060   22.4230   32.4850 N   0  0  0  0  0  0  0  0  0  0  0  0
   39.6250   23.5930   32.8360 C   0  0  0  0  0  0  0  0  0  0  0  0
   39.5780   24.0550   34.0990 N   0  0  0  0  0  0  0  0  0  0  0  0
   41.0930   22.8660   37.1040 C   0  0  0  0  0  0  0  0  0  0  0  0
   41.2210   21.4740   37.3620 C   0  0  0  0  0  0  0  0  0  0  0  0
   42.4620   21.1090   36.8640 C   0  0  0  0  0  0  0  0  0  0  0  0
   43.0140   22.2880   36.3350 C   0  0  0  0  0  0  0  0  0  0  0  0
   42.1700   23.2770   36.5050 O   0  0  0  0  0  0  0  0  0  0  0  0
   44.3400   22.3660   35.6960 C   0  0  0  0  0  0  0  0  0  0  0  0
   45.1000   23.5070   36.3730 C   0  0  0  0  0  0  0  0  0  0  0  0
   45.1140   24.6530   35.6150 O   0  0  0  0  0  0  0  0  0  0  0  0
   44.9940   25.9170   36.1750 C   0  0  0  0  0  0  0  0  0  0  0  0
   45.2960   26.8700   35.3920 O   0  0  0  0  0  0  0  0  0  0  0  0
   44.5730   26.1050   37.4960 O   0  0  0  0  0  0  0  0  0  0  0  0
   38.2462   25.6882   37.0168 H   0  0  0  0  0  0  0  0  0  0  0  0
   36.9646   24.6702   36.4188 H   0  0  0  0  0  0  0  0  0  0  0  0
   37.8147   24.8218   39.1207 H   0  0  0  0  0  0  0  0  0  0  0  0
   36.8664   23.4770   38.4853 H   0  0  0  0  0  0  0  0  0  0  0  0
   39.4678   23.2350   39.4892 H   0  0  0  0  0  0  0  0  0  0  0  0
   38.7845   22.0761   38.3584 H   0  0  0  0  0  0  0  0  0  0  0  0
   40.4924   24.5294   37.8007 H   0  0  0  0  0  0  0  0  0  0  0  0
   37.9157   21.4083   35.5134 H   0  0  0  0  0  0  0  0  0  0  0  0
   38.0522   20.6211   33.1062 H   0  0  0  0  0  0  0  0  0  0  0  0
   40.1121   24.2084   32.0652 H   0  0  0  0  0  0  0  0  0  0  0  0
   40.4863   20.8208   37.8554 H   0  0  0  0  0  0  0  0  0  0  0  0
   42.9182   20.1082   36.8796 H   0  0  0  0  0  0  0  0  0  0  0  0
   44.8813   21.4184   35.8337 H   0  0  0  0  0  0  0  0  0  0  0  0
   44.2433   22.5475   34.6154 H   0  0  0  0  0  0  0  0  0  0  0  0
   44.6190   23.7278   37.3373 H   0  0  0  0  0  0  0  0  0  0  0  0
   46.1423   23.1816   36.5058 H   0  0  0  0  0  0  0  0  0  0  0  0
   44.4977   27.0202   37.8660 H   0  0  0  0  0  0  0  0  0  0  0  0
  1  2  1  0
  1  5  1  0
  2  3  1  0
  3  4  1  0
  5  4  1  0
  6  1  1  0
  7  6  2  0
  8  7  1  0
  9 10  1  0
  9  8  2  0
 10 11  2  0
 11  6  1  0
 12 13  2  0
 12  5  1  0
 14 13  1  0
 15 16  1  0
 15 14  2  0
 16 12  1  0
 17 15  1  0
 17 18  1  0
 19 20  1  0
 19 18  1  0
 20 22  1  0
 21 20  2  0
  2 23  1  0
  2 24  1  0
  3 25  1  0
  3 26  1  0
  4 27  1  0
  4 28  1  0
  5 29  1  1
  7 30  1  0
  8 31  1  0
 10 32  1  0
 13 33  1  0
 14 34  1  0
 17 35  1  0
 17 36  1  0
 18 37  1  0
 18 38  1  0
 22 39  1  0
M  ISO  8  23  13  24  13  25  13  26  13  27  13  28  13  29  13  30  14
M  ISO  8  31  14  32  14  33  14  34  14  35   8  36   8  37   8  38   8
M  ISO  1  39   3
M  END
>  <minimizedAffinity>  (1) 
-4.24036074

>  <minimizedRMSD>  (1) 
0.573252738

$$$$
