
     RDKit          3D

 41 44  0  0  1  0  0  0  0  0999 V2000
   39.0240   23.7880   36.1500 N   0  0  0  0  0  0  0  0  0  0  0  0
   37.9550   24.6450   36.6970 C   0  0  0  0  0  0  0  0  0  0  0  0
   37.7470   24.0510   38.0680 C   0  0  0  0  0  0  0  0  0  0  0  0
   38.9490   23.1440   38.2880 C   0  0  0  0  0  0  0  0  0  0  0  0
   39.9390   23.6460   37.3370 C   0  0  1  0  0  0  0  0  0  0  0  0
   39.1350   23.2530   34.8420 C   0  0  0  0  0  0  0  0  0  0  0  0
   38.6160   22.0190   34.5080 C   0  0  0  0  0  0  0  0  0  0  0  0
   38.7880   21.5910   33.1930 C   0  0  0  0  0  0  0  0  0  0  0  0
   39.4640   22.4280   32.3110 N   0  0  0  0  0  0  0  0  0  0  0  0
   39.9460   23.6160   32.6940 C   0  0  0  0  0  0  0  0  0  0  0  0
   39.8060   24.0690   33.9470 N   0  0  0  0  0  0  0  0  0  0  0  0
   41.1130   22.8690   37.0610 C   0  0  0  0  0  0  0  0  0  0  0  0
   41.2220   21.4770   37.3260 C   0  0  0  0  0  0  0  0  0  0  0  0
   42.4950   21.1120   36.9210 C   0  0  0  0  0  0  0  0  0  0  0  0
   43.0800   22.2820   36.4410 C   0  0  0  0  0  0  0  0  0  0  0  0
   42.2330   23.2810   36.5430 O   0  0  0  0  0  0  0  0  0  0  0  0
   44.4600   22.3850   35.8930 C   0  0  0  0  0  0  0  0  0  0  0  0
   45.0780   23.6610   36.4360 C   0  0  0  0  0  0  0  0  0  0  0  0
   45.7760   24.3450   35.4650 O   0  0  0  0  0  0  0  0  0  0  0  0
   45.2080   25.5320   34.9860 C   0  0  0  0  0  0  0  0  0  0  0  0
   45.6780   26.7790   35.1630 N   0  0  0  0  0  0  0  0  0  0  0  0
   44.8970   27.6360   34.5800 O   0  0  0  0  0  0  0  0  0  0  0  0
   43.9030   27.0010   34.0080 C   0  0  0  0  0  0  0  0  0  0  0  0
   44.0690   25.6660   34.2440 N   0  0  0  0  0  0  0  0  0  0  0  0
   38.2777   25.6946   36.7610 H   0  0  0  0  0  0  0  0  0  0  0  0
   37.0445   24.6662   36.0802 H   0  0  0  0  0  0  0  0  0  0  0  0
   37.7141   24.8421   38.8316 H   0  0  0  0  0  0  0  0  0  0  0  0
   36.7959   23.5034   38.1422 H   0  0  0  0  0  0  0  0  0  0  0  0
   39.3194   23.2268   39.3205 H   0  0  0  0  0  0  0  0  0  0  0  0
   38.7140   22.0800   38.1376 H   0  0  0  0  0  0  0  0  0  0  0  0
   40.4652   24.5374   37.7093 H   0  0  0  0  0  0  0  0  0  0  0  0
   38.0888   21.3993   35.2483 H   0  0  0  0  0  0  0  0  0  0  0  0
   38.3995   20.6169   32.8611 H   0  0  0  0  0  0  0  0  0  0  0  0
   40.4734   24.2399   31.9574 H   0  0  0  0  0  0  0  0  0  0  0  0
   40.4528   20.8234   37.7632 H   0  0  0  0  0  0  0  0  0  0  0  0
   42.9482   20.1108   36.9682 H   0  0  0  0  0  0  0  0  0  0  0  0
   44.4249   22.4238   34.7942 H   0  0  0  0  0  0  0  0  0  0  0  0
   45.0584   21.5107   36.1890 H   0  0  0  0  0  0  0  0  0  0  0  0
   44.2768   24.3087   36.8214 H   0  0  0  0  0  0  0  0  0  0  0  0
   45.7830   23.3865   37.2345 H   0  0  0  0  0  0  0  0  0  0  0  0
   43.0816   27.4613   33.4393 H   0  0  0  0  0  0  0  0  0  0  0  0
  1  2  1  0
  1  5  1  0
  2  3  1  0
  3  4  1  0
  5  4  1  0
  6  1  1  0
  7  6  2  0
  8  7  1  0
  9 10  1  0
  9  8  2  0
 10 11  2  0
 11  6  1  0
 12 13  2  0
 12  5  1  0
 14 13  1  0
 15 16  1  0
 15 14  2  0
 16 12  1  0
 17 18  1  0
 17 15  1  0
 19 18  1  0
 20 21  2  0
 20 19  1  0
 22 21  1  0
 23 24  2  0
 23 22  1  0
 24 20  1  0
  2 25  1  0
  2 26  1  0
  3 27  1  0
  3 28  1  0
  4 29  1  0
  4 30  1  0
  5 31  1  1
  7 32  1  0
  8 33  1  0
 10 34  1  0
 13 35  1  0
 14 36  1  0
 17 37  1  0
 17 38  1  0
 18 39  1  0
 18 40  1  0
 23 41  1  0
M  ISO  8  25  13  26  13  27  13  28  13  29  13  30  13  31  13  32  14
M  ISO  8  33  14  34  14  35  14  36  14  37   8  38   8  39   8  40   8
M  ISO  1  41  14
M  END
>  <minimizedAffinity>  (1) 
-4.16330194

>  <minimizedRMSD>  (1) 
1.25701237

$$$$
