
     RDKit          3D

 36 38  0  0  0  0  0  0  0  0999 V2000
   38.1510   23.7610   37.0120 C   0  0  0  0  0  0  0  0  0  0  0  0
   41.4900   22.0380   37.2220 C   0  0  0  0  0  0  0  0  0  0  0  0
   40.1730   22.3310   37.5280 C   0  0  0  0  0  0  0  0  0  0  0  0
   39.5380   23.3530   36.7840 C   0  0  0  0  0  0  0  0  0  0  0  0
   40.2470   23.9910   35.8120 N   0  0  0  0  0  0  0  0  0  0  0  0
   41.5220   23.6730   35.5500 C   0  0  0  0  0  0  0  0  0  0  0  0
   42.1480   22.6990   36.2510 N   0  0  0  0  0  0  0  0  0  0  0  0
   38.1090   24.4500   38.3830 C   0  0  0  0  0  0  0  0  0  0  0  0
   37.5730   24.6410   35.9520 C   0  0  0  0  0  0  0  0  0  0  0  0
   37.2850   22.5210   37.1000 C   0  0  0  0  0  0  0  0  0  0  0  0
   36.9990   21.9050   35.8250 C   0  0  0  0  0  0  0  0  0  0  0  0
   35.9130   21.1460   35.5820 C   0  0  0  0  0  0  0  0  0  0  0  0
   35.5970   20.5570   34.3990 C   0  0  0  0  0  0  0  0  0  0  0  0
   36.6120   20.8580   33.3980 C   0  0  0  0  0  0  0  0  0  0  0  0
   37.8820   21.9410   34.2740 S   0  0  0  0  0  0  0  0  0  0  0  0
   36.7770   20.5040   32.0270 C   0  0  0  0  0  0  0  0  0  0  0  0
   35.8910   19.8640   31.2240 C   0  0  0  0  0  0  0  0  0  0  0  0
   36.4750   19.7470   30.0180 N   0  0  0  0  0  0  0  0  0  0  0  0
   37.6920   20.3130   30.1120 C   0  0  0  0  0  0  0  0  0  0  0  0
   37.9060   20.7990   31.3720 N   0  0  0  0  0  0  0  0  0  0  0  0
   42.0105   21.2484   37.7838 H   0  0  0  0  0  0  0  0  0  0  0  0
   39.6385   21.7885   38.3217 H   0  0  0  0  0  0  0  0  0  0  0  0
   42.0652   24.2087   34.7576 H   0  0  0  0  0  0  0  0  0  0  0  0
   38.1553   23.6900   39.1769 H   0  0  0  0  0  0  0  0  0  0  0  0
   38.9673   25.1315   38.4773 H   0  0  0  0  0  0  0  0  0  0  0  0
   37.1743   25.0222   38.4773 H   0  0  0  0  0  0  0  0  0  0  0  0
   37.0272   25.4720   36.4227 H   0  0  0  0  0  0  0  0  0  0  0  0
   38.3838   25.0425   35.3264 H   0  0  0  0  0  0  0  0  0  0  0  0
   36.8824   24.0564   35.3264 H   0  0  0  0  0  0  0  0  0  0  0  0
   37.8024   21.7833   37.7309 H   0  0  0  0  0  0  0  0  0  0  0  0
   36.3196   22.8397   37.5200 H   0  0  0  0  0  0  0  0  0  0  0  0
   35.2172   20.9883   36.4192 H   0  0  0  0  0  0  0  0  0  0  0  0
   34.7029   19.9411   34.2223 H   0  0  0  0  0  0  0  0  0  0  0  0
   34.8884   19.5091   31.5048 H   0  0  0  0  0  0  0  0  0  0  0  0
   38.4167   20.3762   29.2869 H   0  0  0  0  0  0  0  0  0  0  0  0
   38.7420   21.2803   31.7331 H   0  0  0  0  0  0  0  0  0  0  0  0
  1 10  1  0
  1  8  1  0
  2  3  2  0
  4  1  1  0
  4  3  1  0
  5  4  2  0
  6  5  1  0
  6  7  2  0
  7  2  1  0
  9  1  1  0
 11 10  1  0
 12 11  2  0
 13 12  1  0
 14 15  1  0
 14 13  2  0
 15 11  1  0
 16 14  1  0
 17 16  2  0
 18 19  2  0
 18 17  1  0
 19 20  1  0
 20 16  1  0
  2 21  1  0
  3 22  1  0
  6 23  1  0
  8 24  1  0
  8 25  1  0
  8 26  1  0
  9 27  1  0
  9 28  1  0
  9 29  1  0
 10 30  1  0
 10 31  1  0
 12 32  1  0
 13 33  1  0
 17 34  1  0
 19 35  1  0
 20 36  1  0
M  ISO  8  21  14  22  14  23  14  24   8  25   8  26   8  27   8  28   8
M  ISO  8  29   8  30   8  31   8  32  14  33  14  34  14  35  14  36   9
M  END
>  <minimizedAffinity>  (1) 
-4.55418062

>  <minimizedRMSD>  (1) 
0.238165885

$$$$
