
     RDKit          3D

 36 38  0  0  0  0  0  0  0  0999 V2000
   38.2040   23.7170   37.1390 C   0  0  0  0  0  0  0  0  0  0  0  0
   41.5650   22.0260   37.1860 C   0  0  0  0  0  0  0  0  0  0  0  0
   40.2580   22.3000   37.5500 C   0  0  0  0  0  0  0  0  0  0  0  0
   39.5950   23.3200   36.8610 C   0  0  0  0  0  0  0  0  0  0  0  0
   40.2530   24.0050   35.8630 N   0  0  0  0  0  0  0  0  0  0  0  0
   41.5350   23.6930   35.5500 C   0  0  0  0  0  0  0  0  0  0  0  0
   42.1870   22.7000   36.2160 N   0  0  0  0  0  0  0  0  0  0  0  0
   38.1930   24.3340   38.5440 C   0  0  0  0  0  0  0  0  0  0  0  0
   37.5900   24.6370   36.1380 C   0  0  0  0  0  0  0  0  0  0  0  0
   37.3330   22.4740   37.1790 C   0  0  0  0  0  0  0  0  0  0  0  0
   37.0220   21.9280   35.8780 C   0  0  0  0  0  0  0  0  0  0  0  0
   35.9670   21.1240   35.6420 C   0  0  0  0  0  0  0  0  0  0  0  0
   35.5970   20.5910   34.4740 C   0  0  0  0  0  0  0  0  0  0  0  0
   36.5350   21.0150   33.4230 C   0  0  0  0  0  0  0  0  0  0  0  0
   37.8120   22.1190   34.2820 S   0  0  0  0  0  0  0  0  0  0  0  0
   36.6740   20.7810   31.9710 C   0  0  0  0  0  0  0  0  0  0  0  0
   35.6960   19.8850   31.3750 C   0  0  0  0  0  0  0  0  0  0  0  0
   35.6150   21.3720   31.0470 C   0  0  0  0  0  0  0  0  0  0  0  0
   42.1083   21.2276   37.7127 H   0  0  0  0  0  0  0  0  0  0  0  0
   39.7592   21.7359   38.3519 H   0  0  0  0  0  0  0  0  0  0  0  0
   42.0522   24.2461   34.7522 H   0  0  0  0  0  0  0  0  0  0  0  0
   38.2073   23.5320   39.2968 H   0  0  0  0  0  0  0  0  0  0  0  0
   39.0799   24.9721   38.6712 H   0  0  0  0  0  0  0  0  0  0  0  0
   37.2839   24.9401   38.6712 H   0  0  0  0  0  0  0  0  0  0  0  0
   37.0528   25.4420   36.6609 H   0  0  0  0  0  0  0  0  0  0  0  0
   38.3793   25.0723   35.5075 H   0  0  0  0  0  0  0  0  0  0  0  0
   36.8852   24.0751   35.5075 H   0  0  0  0  0  0  0  0  0  0  0  0
   37.8590   21.7025   37.7604 H   0  0  0  0  0  0  0  0  0  0  0  0
   36.3769   22.7719   37.6342 H   0  0  0  0  0  0  0  0  0  0  0  0
   35.3382   20.8782   36.5104 H   0  0  0  0  0  0  0  0  0  0  0  0
   34.7260   19.9366   34.3219 H   0  0  0  0  0  0  0  0  0  0  0  0
   37.7725   20.8337   31.9958 H   0  0  0  0  0  0  0  0  0  0  0  0
   36.0110   19.1714   30.5994 H   0  0  0  0  0  0  0  0  0  0  0  0
   34.9860   19.1462   31.7750 H   0  0  0  0  0  0  0  0  0  0  0  0
   35.8887   21.7387   30.0467 H   0  0  0  0  0  0  0  0  0  0  0  0
   34.8513   22.1608   31.1146 H   0  0  0  0  0  0  0  0  0  0  0  0
  1 10  1  0
  1  8  1  0
  2  3  2  0
  4  1  1  0
  4  3  1  0
  5  4  2  0
  6  5  1  0
  6  7  2  0
  7  2  1  0
  9  1  1  0
 11 10  1  0
 12 11  2  0
 13 12  1  0
 14 15  1  0
 14 13  2  0
 15 11  1  0
 16 14  1  0
 17 16  1  0
 18 17  1  0
 18 16  1  0
  2 19  1  0
  3 20  1  0
  6 21  1  0
  8 22  1  0
  8 23  1  0
  8 24  1  0
  9 25  1  0
  9 26  1  0
  9 27  1  0
 10 28  1  0
 10 29  1  0
 12 30  1  0
 13 31  1  0
 16 32  1  0
 17 33  1  0
 17 34  1  0
 18 35  1  0
 18 36  1  0
M  ISO  8  19  14  20  14  21  14  22   8  23   8  24   8  25   8  26   8
M  ISO  8  27   8  28   8  29   8  30  14  31  14  32  13  33  13  34  13
M  ISO  2  35  13  36  13
M  END
>  <minimizedAffinity>  (1) 
-4.55308771

>  <minimizedRMSD>  (1) 
0.38684988

$$$$
