
     RDKit          3D

 39 42  0  0  1  0  0  0  0  0999 V2000
   40.7450   23.5700   35.3020 N   0  0  0  0  0  0  0  0  0  0  0  0
   42.0030   22.9960   35.7280 C   0  0  0  0  0  0  0  0  0  0  0  0
   43.1030   23.9060   36.0390 C   0  0  0  0  0  0  0  0  0  0  0  0
   43.1210   25.2390   35.3900 C   0  0  0  0  0  0  0  0  0  0  0  0
   41.7670   25.7310   34.9780 C   0  0  0  0  0  0  0  0  0  0  0  0
   40.9900   24.5820   34.3210 C   0  0  2  0  0  0  0  0  0  0  0  0
   39.8090   25.1150   33.6360 C   0  0  0  0  0  0  0  0  0  0  0  0
   39.2730   24.8060   32.3990 C   0  0  0  0  0  0  0  0  0  0  0  0
   38.1590   25.5040   32.1170 N   0  0  0  0  0  0  0  0  0  0  0  0
   37.9170   26.3040   33.1610 C   0  0  0  0  0  0  0  0  0  0  0  0
   36.9010   27.2150   33.3730 C   0  0  0  0  0  0  0  0  0  0  0  0
   36.8790   27.9270   34.5570 C   0  0  0  0  0  0  0  0  0  0  0  0
   37.8540   27.7230   35.4990 C   0  0  0  0  0  0  0  0  0  0  0  0
   38.8750   26.8050   35.2830 C   0  0  0  0  0  0  0  0  0  0  0  0
   38.8980   26.0830   34.0830 C   0  0  0  0  0  0  0  0  0  0  0  0
   39.4630   23.1790   35.7920 C   0  0  0  0  0  0  0  0  0  0  0  0
   38.6210   22.2530   35.1690 C   0  0  0  0  0  0  0  0  0  0  0  0
   37.3990   22.0060   35.8060 C   0  0  0  0  0  0  0  0  0  0  0  0
   37.0900   22.6600   36.9770 N   0  0  0  0  0  0  0  0  0  0  0  0
   37.9410   23.5340   37.5200 C   0  0  0  0  0  0  0  0  0  0  0  0
   39.1130   23.7920   36.9400 N   0  0  0  0  0  0  0  0  0  0  0  0
   41.8024   22.4042   36.6333 H   0  0  0  0  0  0  0  0  0  0  0  0
   42.3554   22.4284   34.8541 H   0  0  0  0  0  0  0  0  0  0  0  0
   43.0887   24.0738   37.1260 H   0  0  0  0  0  0  0  0  0  0  0  0
   43.9940   23.3992   35.6399 H   0  0  0  0  0  0  0  0  0  0  0  0
   43.5523   25.9629   36.0971 H   0  0  0  0  0  0  0  0  0  0  0  0
   43.7181   25.1394   34.4715 H   0  0  0  0  0  0  0  0  0  0  0  0
   41.2196   26.0860   35.8636 H   0  0  0  0  0  0  0  0  0  0  0  0
   41.8771   26.5590   34.2623 H   0  0  0  0  0  0  0  0  0  0  0  0
   41.5678   24.0851   33.5277 H   0  0  0  0  0  0  0  0  0  0  0  0
   39.7132   24.0649   31.7157 H   0  0  0  0  0  0  0  0  0  0  0  0
   37.5966   25.4353   31.2569 H   0  0  0  0  0  0  0  0  0  0  0  0
   36.1222   27.3712   32.6120 H   0  0  0  0  0  0  0  0  0  0  0  0
   36.0786   28.6580   34.7439 H   0  0  0  0  0  0  0  0  0  0  0  0
   37.8279   28.2938   36.4389 H   0  0  0  0  0  0  0  0  0  0  0  0
   39.6539   26.6477   36.0436 H   0  0  0  0  0  0  0  0  0  0  0  0
   38.9022   21.7480   34.2331 H   0  0  0  0  0  0  0  0  0  0  0  0
   36.6864   21.2898   35.3710 H   0  0  0  0  0  0  0  0  0  0  0  0
   37.6721   24.0463   38.4555 H   0  0  0  0  0  0  0  0  0  0  0  0
  1  2  1  0
  1 16  1  0
  2  3  1  0
  4  3  1  0
  5  4  1  0
  6  5  1  0
  6  1  1  0
  7 15  1  0
  7  6  1  0
  8  7  2  0
  9  8  1  0
  9 10  1  0
 10 11  2  0
 10 15  1  0
 11 12  1  0
 12 13  2  0
 14 13  1  0
 15 14  2  0
 16 21  1  0
 17 16  2  0
 17 18  1  0
 18 19  2  0
 19 20  1  0
 21 20  2  0
  2 22  1  0
  2 23  1  0
  3 24  1  0
  3 25  1  0
  4 26  1  0
  4 27  1  0
  5 28  1  0
  5 29  1  0
  6 30  1  6
  8 31  1  0
  9 32  1  0
 11 33  1  0
 12 34  1  0
 13 35  1  0
 14 36  1  0
 17 37  1  0
 18 38  1  0
 20 39  1  0
M  ISO  8  22  13  23  13  24  13  25  13  26  13  27  13  28  13  29  13
M  ISO  8  30  13  31  14  32   9  33  14  34  14  35  14  36  14  37  14
M  ISO  2  38  14  39  14
M  END
>  <minimizedAffinity>  (1) 
-5.24008751

>  <minimizedRMSD>  (1) 
3.53168702

$$$$
