
     RDKit          3D

 32 34  0  0  1  0  0  0  0  0999 V2000
   38.2810   22.6410   35.5010 N   0  0  0  0  0  0  0  0  0  0  0  0
   39.6670   22.4670   35.8060 C   0  0  0  0  0  0  0  0  0  0  0  0
   40.0610   22.5280   37.2290 C   0  0  0  0  0  0  0  0  0  0  0  0
   39.2510   23.3800   38.1400 C   0  0  0  0  0  0  0  0  0  0  0  0
   37.8090   23.5310   37.7070 C   0  0  0  0  0  0  0  0  0  0  0  0
   37.7830   23.8100   36.1960 C   0  0  1  0  0  0  0  0  0  0  0  0
   37.5000   21.8040   34.6500 C   0  0  0  0  0  0  0  0  0  0  0  0
   37.7990   21.5010   33.3250 C   0  0  0  0  0  0  0  0  0  0  0  0
   36.9500   20.6710   32.6110 C   0  0  0  0  0  0  0  0  0  0  0  0
   35.8570   20.1920   33.2520 N   0  0  0  0  0  0  0  0  0  0  0  0
   35.5910   20.4990   34.5290 C   0  0  0  0  0  0  0  0  0  0  0  0
   36.4020   21.2960   35.2230 N   0  0  0  0  0  0  0  0  0  0  0  0
   38.5090   25.0480   35.8710 C   0  0  0  0  0  0  0  0  0  0  0  0
   38.1270   26.2830   36.3400 C   0  0  0  0  0  0  0  0  0  0  0  0
   39.0250   27.2270   35.8460 C   0  0  0  0  0  0  0  0  0  0  0  0
   39.9240   26.4830   35.0830 C   0  0  0  0  0  0  0  0  0  0  0  0
   39.5810   25.1980   35.1260 O   0  0  0  0  0  0  0  0  0  0  0  0
   39.9686   21.4815   35.4216 H   0  0  0  0  0  0  0  0  0  0  0  0
   40.1692   23.3260   35.3370 H   0  0  0  0  0  0  0  0  0  0  0  0
   40.0256   21.5015   37.6229 H   0  0  0  0  0  0  0  0  0  0  0  0
   41.0542   23.0008   37.2199 H   0  0  0  0  0  0  0  0  0  0  0  0
   39.2673   22.9294   39.1433 H   0  0  0  0  0  0  0  0  0  0  0  0
   39.6989   24.3846   38.1247 H   0  0  0  0  0  0  0  0  0  0  0  0
   37.2572   22.6043   37.9232 H   0  0  0  0  0  0  0  0  0  0  0  0
   37.3354   24.3604   38.2527 H   0  0  0  0  0  0  0  0  0  0  0  0
   36.7524   23.9878   35.8551 H   0  0  0  0  0  0  0  0  0  0  0  0
   38.6999   21.9161   32.8496 H   0  0  0  0  0  0  0  0  0  0  0  0
   37.1559   20.4106   31.5623 H   0  0  0  0  0  0  0  0  0  0  0  0
   34.6915   20.0876   35.0103 H   0  0  0  0  0  0  0  0  0  0  0  0
   37.2644   26.4893   36.9906 H   0  0  0  0  0  0  0  0  0  0  0  0
   39.0247   28.3133   36.0189 H   0  0  0  0  0  0  0  0  0  0  0  0
   40.7826   26.8940   34.5317 H   0  0  0  0  0  0  0  0  0  0  0  0
  1  2  1  0
  1  6  1  0
  2  3  1  0
  3  4  1  0
  5  4  1  0
  6  5  1  0
  7 12  1  0
  7  1  1  0
  8  7  2  0
  9 10  2  0
  9  8  1  0
 10 11  1  0
 11 12  2  0
 13  6  1  0
 13 14  2  0
 15 14  1  0
 16 17  1  0
 16 15  2  0
 17 13  1  0
  2 18  1  0
  2 19  1  0
  3 20  1  0
  3 21  1  0
  4 22  1  0
  4 23  1  0
  5 24  1  0
  5 25  1  0
  6 26  1  6
  8 27  1  0
  9 28  1  0
 11 29  1  0
 14 30  1  0
 15 31  1  0
 16 32  1  0
M  ISO  8  18  13  19  13  20  13  21  13  22  13  23  13  24  13  25  13
M  ISO  7  26  13  27  14  28  14  29  14  30  14  31  14  32  14
M  END
>  <minimizedAffinity>  (1) 
-4.90701342

>  <minimizedRMSD>  (1) 
1.67280197

$$$$
