
     RDKit          3D

 38 40  0  0  1  0  0  0  0  0999 V2000
   38.3420   22.6300   35.8400 N   0  0  0  0  0  0  0  0  0  0  0  0
   39.6950   22.2680   36.1390 C   0  0  0  0  0  0  0  0  0  0  0  0
   40.1140   22.3480   37.5610 C   0  0  0  0  0  0  0  0  0  0  0  0
   39.4430   23.3680   38.4260 C   0  0  0  0  0  0  0  0  0  0  0  0
   38.0330   23.6920   37.9890 C   0  0  0  0  0  0  0  0  0  0  0  0
   38.0500   23.8730   36.4660 C   0  0  1  0  0  0  0  0  0  0  0  0
   37.4420   21.8660   35.0440 C   0  0  0  0  0  0  0  0  0  0  0  0
   37.5250   21.6860   33.6670 C   0  0  0  0  0  0  0  0  0  0  0  0
   36.5800   20.9150   33.0140 C   0  0  0  0  0  0  0  0  0  0  0  0
   35.5970   20.3600   33.7630 N   0  0  0  0  0  0  0  0  0  0  0  0
   35.5370   20.5480   35.0930 C   0  0  0  0  0  0  0  0  0  0  0  0
   36.4530   21.2940   35.7200 N   0  0  0  0  0  0  0  0  0  0  0  0
   38.9130   24.9670   36.1080 N   0  0  0  0  0  0  0  0  0  0  0  0
   38.2620   26.1840   36.6200 C   0  0  0  0  0  0  0  0  0  0  0  0
   38.2570   27.2840   35.5770 C   0  0  0  0  0  0  0  0  0  0  0  0
   39.4780   27.4640   34.9760 O   0  0  0  0  0  0  0  0  0  0  0  0
   39.8260   26.3070   34.2920 C   0  0  0  0  0  0  0  0  0  0  0  0
   38.9920   25.1230   34.6950 C   0  0  0  0  0  0  0  0  0  0  0  0
   39.8420   21.2295   35.8073 H   0  0  0  0  0  0  0  0  0  0  0  0
   40.3129   23.0128   35.6161 H   0  0  0  0  0  0  0  0  0  0  0  0
   39.9318   21.3621   38.0135 H   0  0  0  0  0  0  0  0  0  0  0  0
   41.1671   22.6635   37.5239 H   0  0  0  0  0  0  0  0  0  0  0  0
   39.4091   22.9835   39.4561 H   0  0  0  0  0  0  0  0  0  0  0  0
   40.0285   24.2959   38.3474 H   0  0  0  0  0  0  0  0  0  0  0  0
   37.3571   22.8680   38.2614 H   0  0  0  0  0  0  0  0  0  0  0  0
   37.6760   24.6077   38.4831 H   0  0  0  0  0  0  0  0  0  0  0  0
   37.0588   24.1622   36.0867 H   0  0  0  0  0  0  0  0  0  0  0  0
   38.3408   22.1560   33.0983 H   0  0  0  0  0  0  0  0  0  0  0  0
   36.6251   20.7583   31.9262 H   0  0  0  0  0  0  0  0  0  0  0  0
   34.7254   20.0830   35.6719 H   0  0  0  0  0  0  0  0  0  0  0  0
   37.2240   25.9465   36.8958 H   0  0  0  0  0  0  0  0  0  0  0  0
   38.8253   26.5377   37.4961 H   0  0  0  0  0  0  0  0  0  0  0  0
   37.5200   27.0275   34.8017 H   0  0  0  0  0  0  0  0  0  0  0  0
   38.0045   28.2224   36.0924 H   0  0  0  0  0  0  0  0  0  0  0  0
   40.8824   26.0802   34.4984 H   0  0  0  0  0  0  0  0  0  0  0  0
   39.6511   26.4882   33.2212 H   0  0  0  0  0  0  0  0  0  0  0  0
   37.9750   25.2562   34.2975 H   0  0  0  0  0  0  0  0  0  0  0  0
   39.4716   24.2217   34.2856 H   0  0  0  0  0  0  0  0  0  0  0  0
  1  2  1  0
  1  6  1  0
  2  3  1  0
  3  4  1  0
  5  4  1  0
  6  5  1  0
  7 12  1  0
  7  1  1  0
  8  7  2  0
  9  8  1  0
  9 10  2  0
 10 11  1  0
 11 12  2  0
 13  6  1  0
 13 14  1  0
 15 14  1  0
 16 15  1  0
 17 18  1  0
 17 16  1  0
 18 13  1  0
  2 19  1  0
  2 20  1  0
  3 21  1  0
  3 22  1  0
  4 23  1  0
  4 24  1  0
  5 25  1  0
  5 26  1  0
  6 27  1  6
  8 28  1  0
  9 29  1  0
 11 30  1  0
 14 31  1  0
 14 32  1  0
 15 33  1  0
 15 34  1  0
 17 35  1  0
 17 36  1  0
 18 37  1  0
 18 38  1  0
M  ISO  8  19  13  20  13  21  13  22  13  23  13  24  13  25  13  26  13
M  ISO  8  27  13  28  14  29  14  30  14  31  13  32  13  33  13  34  13
M  ISO  4  35  13  36  13  37  13  38  13
M  END
>  <minimizedAffinity>  (1) 
-4.84742785

>  <minimizedRMSD>  (1) 
1.6713289

$$$$
