
     RDKit          3D

 38 40  0  0  1  0  0  0  0  0999 V2000
   39.1810   23.4150   36.0840 N   0  0  0  0  0  0  0  0  0  0  0  0
   39.6070   22.8720   37.3550 C   0  0  0  0  0  0  0  0  0  0  0  0
   38.7970   23.1920   38.5350 C   0  0  0  0  0  0  0  0  0  0  0  0
   38.0580   24.4860   38.5400 C   0  0  0  0  0  0  0  0  0  0  0  0
   37.6940   24.9710   37.1760 C   0  0  0  0  0  0  0  0  0  0  0  0
   38.9200   24.8160   36.2510 C   0  0  2  0  0  0  0  0  0  0  0  0
   39.0480   22.6630   34.8710 C   0  0  0  0  0  0  0  0  0  0  0  0
   40.1310   22.3920   34.0100 C   0  0  0  0  0  0  0  0  0  0  0  0
   39.8220   21.6470   32.8670 C   0  0  0  0  0  0  0  0  0  0  0  0
   38.5440   21.2380   32.6520 N   0  0  0  0  0  0  0  0  0  0  0  0
   37.5590   21.5320   33.5150 C   0  0  0  0  0  0  0  0  0  0  0  0
   37.7930   22.2430   34.6280 N   0  0  0  0  0  0  0  0  0  0  0  0
   38.2170   27.0180   32.6070 C   0  0  0  0  0  0  0  0  0  0  0  0
   39.4970   26.8310   33.0620 C   0  0  0  0  0  0  0  0  0  0  0  0
   39.7170   26.1250   34.2260 C   0  0  0  0  0  0  0  0  0  0  0  0
   38.7190   25.5700   35.0000 C   0  0  0  0  0  0  0  0  0  0  0  0
   37.4460   25.8080   34.4640 C   0  0  0  0  0  0  0  0  0  0  0  0
   37.1650   26.4930   33.3260 C   0  0  0  0  0  0  0  0  0  0  0  0
   37.8880   27.9000   31.1460 S   0  0  0  0  0  0  0  0  0  0  0  0
   37.0780   29.1400   31.4830 O   0  0  0  0  0  0  0  0  0  0  0  0
   39.1220   28.2190   30.3930 O   0  0  0  0  0  0  0  0  0  0  0  0
   39.6255   21.7767   37.2555 H   0  0  0  0  0  0  0  0  0  0  0  0
   40.5815   23.3441   37.5483 H   0  0  0  0  0  0  0  0  0  0  0  0
   38.0538   22.3893   38.6504 H   0  0  0  0  0  0  0  0  0  0  0  0
   39.5253   23.2856   39.3540 H   0  0  0  0  0  0  0  0  0  0  0  0
   37.1332   24.3562   39.1213 H   0  0  0  0  0  0  0  0  0  0  0  0
   38.7276   25.2384   38.9821 H   0  0  0  0  0  0  0  0  0  0  0  0
   36.8565   24.3759   36.7830 H   0  0  0  0  0  0  0  0  0  0  0  0
   37.3915   26.0275   37.2227 H   0  0  0  0  0  0  0  0  0  0  0  0
   39.8255   25.2570   36.6932 H   0  0  0  0  0  0  0  0  0  0  0  0
   41.1515   22.7431   34.2229 H   0  0  0  0  0  0  0  0  0  0  0  0
   40.6113   21.3929   32.1442 H   0  0  0  0  0  0  0  0  0  0  0  0
   36.5375   21.1822   33.3049 H   0  0  0  0  0  0  0  0  0  0  0  0
   40.3473   27.2436   32.4992 H   0  0  0  0  0  0  0  0  0  0  0  0
   40.7573   25.9958   34.5594 H   0  0  0  0  0  0  0  0  0  0  0  0
   36.5897   25.3993   35.0205 H   0  0  0  0  0  0  0  0  0  0  0  0
   36.1268   26.6252   32.9874 H   0  0  0  0  0  0  0  0  0  0  0  0
   37.1479   27.1074   30.3088 H   0  0  0  0  0  0  0  0  0  0  0  0
  1  6  1  0
  1  2  1  0
  2  3  1  0
  3  4  1  0
  5  4  1  0
  6  5  1  0
  7  1  1  0
  8  7  2  0
  9  8  1  0
 10  9  2  0
 10 11  1  0
 11 12  2  0
 12  7  1  0
 13 14  2  0
 13 18  1  0
 14 15  1  0
 15 16  2  0
 16  6  1  0
 17 16  1  0
 18 17  2  0
 19 20  2  0
 19 13  1  0
 21 19  2  0
  2 22  1  0
  2 23  1  0
  3 24  1  0
  3 25  1  0
  4 26  1  0
  4 27  1  0
  5 28  1  0
  5 29  1  0
  6 30  1  1
  8 31  1  0
  9 32  1  0
 11 33  1  0
 14 34  1  0
 15 35  1  0
 17 36  1  0
 18 37  1  0
 19 38  1  0
M  ISO  8  22  13  23  13  24  13  25  13  26  13  27  13  28  13  29  13
M  ISO  8  30  13  31  14  32  14  33  14  34  14  35  14  36  14  37  14
M  ISO  1  38  11
M  END
>  <minimizedAffinity>  (1) 
-4.75958586

>  <minimizedRMSD>  (1) 
3.07050562

$$$$
