
     RDKit          3D

 40 42  0  0  1  0  0  0  0  0999 V2000
   39.0850   23.3250   36.0400 N   0  0  0  0  0  0  0  0  0  0  0  0
   39.6240   22.8410   37.2980 C   0  0  0  0  0  0  0  0  0  0  0  0
   38.8860   23.1970   38.5120 C   0  0  0  0  0  0  0  0  0  0  0  0
   38.0710   24.4270   38.5200 C   0  0  0  0  0  0  0  0  0  0  0  0
   37.6170   24.8820   37.1440 C   0  0  0  0  0  0  0  0  0  0  0  0
   38.7660   24.7250   36.1610 C   0  0  2  0  0  0  0  0  0  0  0  0
   38.9070   22.5090   34.8720 C   0  0  0  0  0  0  0  0  0  0  0  0
   39.9370   22.1010   34.0230 C   0  0  0  0  0  0  0  0  0  0  0  0
   39.6090   21.3230   32.9270 C   0  0  0  0  0  0  0  0  0  0  0  0
   38.2860   20.9950   32.7340 N   0  0  0  0  0  0  0  0  0  0  0  0
   37.3340   21.4080   33.5740 C   0  0  0  0  0  0  0  0  0  0  0  0
   37.6260   22.1610   34.6410 N   0  0  0  0  0  0  0  0  0  0  0  0
   38.6130   25.4400   34.9400 N   0  0  0  0  0  0  0  0  0  0  0  0
   39.7150   26.3460   34.6790 C   0  0  0  0  0  0  0  0  0  0  0  0
   39.6440   27.0040   33.3440 C   0  0  0  0  0  0  0  0  0  0  0  0
   38.2650   27.3140   32.8560 C   0  0  0  0  0  0  0  0  0  0  0  0
   37.1890   26.3710   33.3270 C   0  0  0  0  0  0  0  0  0  0  0  0
   37.3550   26.1680   34.8160 C   0  0  0  0  0  0  0  0  0  0  0  0
   39.6642   21.7431   37.2426 H   0  0  0  0  0  0  0  0  0  0  0  0
   40.6025   23.3329   37.4007 H   0  0  0  0  0  0  0  0  0  0  0  0
   38.2079   22.3598   38.7339 H   0  0  0  0  0  0  0  0  0  0  0  0
   39.6758   23.3996   39.2504 H   0  0  0  0  0  0  0  0  0  0  0  0
   37.1776   24.2448   39.1353 H   0  0  0  0  0  0  0  0  0  0  0  0
   38.7099   25.2269   38.9226 H   0  0  0  0  0  0  0  0  0  0  0  0
   36.7656   24.2677   36.8158 H   0  0  0  0  0  0  0  0  0  0  0  0
   37.3089   25.9371   37.1868 H   0  0  0  0  0  0  0  0  0  0  0  0
   39.6534   25.2308   36.5692 H   0  0  0  0  0  0  0  0  0  0  0  0
   40.9800   22.3899   34.2197 H   0  0  0  0  0  0  0  0  0  0  0  0
   40.3846   20.9758   32.2285 H   0  0  0  0  0  0  0  0  0  0  0  0
   36.2883   21.1235   33.3852 H   0  0  0  0  0  0  0  0  0  0  0  0
   39.7127   27.1281   35.4525 H   0  0  0  0  0  0  0  0  0  0  0  0
   40.6364   25.7453   34.6935 H   0  0  0  0  0  0  0  0  0  0  0  0
   40.2046   27.9487   33.4007 H   0  0  0  0  0  0  0  0  0  0  0  0
   40.0650   26.2834   32.6274 H   0  0  0  0  0  0  0  0  0  0  0  0
   38.2802   27.2904   31.7564 H   0  0  0  0  0  0  0  0  0  0  0  0
   38.0093   28.2997   33.2719 H   0  0  0  0  0  0  0  0  0  0  0  0
   36.1988   26.8023   33.1184 H   0  0  0  0  0  0  0  0  0  0  0  0
   37.2718   25.4082   32.8014 H   0  0  0  0  0  0  0  0  0  0  0  0
   37.4107   27.1348   35.3377 H   0  0  0  0  0  0  0  0  0  0  0  0
   36.5089   25.6265   35.2643 H   0  0  0  0  0  0  0  0  0  0  0  0
  1  6  1  0
  1  2  1  0
  2  3  1  0
  3  4  1  0
  5  4  1  0
  6  5  1  0
  7  1  1  0
  8  7  2  0
  9  8  1  0
 10  9  2  0
 10 11  1  0
 11 12  2  0
 12  7  1  0
 13  6  1  0
 14 13  1  0
 15 14  1  0
 16 17  1  0
 16 15  1  0
 17 18  1  0
 18 13  1  0
  2 19  1  0
  2 20  1  0
  3 21  1  0
  3 22  1  0
  4 23  1  0
  4 24  1  0
  5 25  1  0
  5 26  1  0
  6 27  1  1
  8 28  1  0
  9 29  1  0
 11 30  1  0
 14 31  1  0
 14 32  1  0
 15 33  1  0
 15 34  1  0
 16 35  1  0
 16 36  1  0
 17 37  1  0
 17 38  1  0
 18 39  1  0
 18 40  1  0
M  ISO  8  19  13  20  13  21  13  22  13  23  13  24  13  25  13  26  13
M  ISO  8  27  13  28  14  29  14  30  14  31  13  32  13  33  13  34  13
M  ISO  6  35  13  36  13  37  13  38  13  39  13  40  13
M  END
>  <minimizedAffinity>  (1) 
-4.68408632

>  <minimizedRMSD>  (1) 
2.26547694

$$$$
