
     RDKit          3D

 28 29  0  0  1  0  0  0  0  0999 V2000
   38.2630   22.8160   36.0280 N   0  0  0  0  0  0  0  0  0  0  0  0
   39.6190   22.5120   36.3900 C   0  0  0  0  0  0  0  0  0  0  0  0
   39.9710   22.6330   37.8160 C   0  0  0  0  0  0  0  0  0  0  0  0
   39.2290   23.6080   38.6500 C   0  0  0  0  0  0  0  0  0  0  0  0
   37.8220   23.8660   38.1510 C   0  0  0  0  0  0  0  0  0  0  0  0
   37.8530   24.0490   36.6420 C   0  0  1  0  0  0  0  0  0  0  0  0
   37.4360   22.0090   35.1770 C   0  0  0  0  0  0  0  0  0  0  0  0
   37.6180   21.8560   33.8060 C   0  0  0  0  0  0  0  0  0  0  0  0
   36.7190   21.0300   33.1250 C   0  0  0  0  0  0  0  0  0  0  0  0
   35.7250   20.4230   33.8260 N   0  0  0  0  0  0  0  0  0  0  0  0
   35.5880   20.6010   35.1610 C   0  0  0  0  0  0  0  0  0  0  0  0
   36.4340   21.3850   35.8260 N   0  0  0  0  0  0  0  0  0  0  0  0
   38.5840   25.2410   36.2030 C   0  0  0  0  0  0  0  0  0  0  0  0
   39.4930   25.2500   35.3110 O   0  0  0  0  0  0  0  0  0  0  0  0
   38.2310   26.4290   36.8300 O   0  0  0  0  0  0  0  0  0  0  0  0
   39.8199   21.4744   36.0849 H   0  0  0  0  0  0  0  0  0  0  0  0
   40.2296   23.2705   35.8783 H   0  0  0  0  0  0  0  0  0  0  0  0
   39.8271   21.6418   38.2707 H   0  0  0  0  0  0  0  0  0  0  0  0
   41.0013   23.0182   37.8060 H   0  0  0  0  0  0  0  0  0  0  0  0
   39.1704   23.2176   39.6767 H   0  0  0  0  0  0  0  0  0  0  0  0
   39.7742   24.5622   38.6032 H   0  0  0  0  0  0  0  0  0  0  0  0
   37.1789   23.0105   38.4048 H   0  0  0  0  0  0  0  0  0  0  0  0
   37.4221   24.7743   38.6255 H   0  0  0  0  0  0  0  0  0  0  0  0
   36.8351   24.2689   36.2878 H   0  0  0  0  0  0  0  0  0  0  0  0
   38.4378   22.3654   33.2783 H   0  0  0  0  0  0  0  0  0  0  0  0
   36.8143   20.8739   32.0403 H   0  0  0  0  0  0  0  0  0  0  0  0
   34.7731   20.0950   35.6994 H   0  0  0  0  0  0  0  0  0  0  0  0
   38.6847   27.2733   36.5822 H   0  0  0  0  0  0  0  0  0  0  0  0
  1  2  1  0
  1  6  1  0
  2  3  1  0
  3  4  1  0
  5  4  1  0
  6  5  1  0
  7 12  1  0
  7  1  1  0
  8  7  2  0
  9  8  1  0
  9 10  2  0
 10 11  1  0
 11 12  2  0
 13  6  1  0
 13 15  1  0
 14 13  2  0
  2 16  1  0
  2 17  1  0
  3 18  1  0
  3 19  1  0
  4 20  1  0
  4 21  1  0
  5 22  1  0
  5 23  1  0
  6 24  1  6
  8 25  1  0
  9 26  1  0
 11 27  1  0
 15 28  1  0
M  ISO  8  16  13  17  13  18  13  19  13  20  13  21  13  22  13  23  13
M  ISO  5  24  13  25  14  26  14  27  14  28   3
M  END
>  <minimizedAffinity>  (1) 
-4.33921385

>  <minimizedRMSD>  (1) 
1.55014241

$$$$
