
     RDKit          3D

 33 35  0  0  1  0  0  0  0  0999 V2000
   40.5240   25.2920   35.0510 N   0  0  0  0  0  0  0  0  0  0  0  0
   41.8350   25.7710   34.7110 C   0  0  0  0  0  0  0  0  0  0  0  0
   42.7140   24.8760   33.9450 C   0  0  0  0  0  0  0  0  0  0  0  0
   42.5130   23.4100   34.0810 C   0  0  0  0  0  0  0  0  0  0  0  0
   41.1330   23.0200   34.5140 C   0  0  0  0  0  0  0  0  0  0  0  0
   40.6640   23.9860   35.6200 C   0  0  2  0  0  0  0  0  0  0  0  0
   39.3070   26.0060   34.8500 C   0  0  0  0  0  0  0  0  0  0  0  0
   38.8580   27.0480   35.6840 C   0  0  0  0  0  0  0  0  0  0  0  0
   37.6580   27.6650   35.3840 C   0  0  0  0  0  0  0  0  0  0  0  0
   36.9710   27.2330   34.2980 N   0  0  0  0  0  0  0  0  0  0  0  0
   37.4280   26.2270   33.5160 C   0  0  0  0  0  0  0  0  0  0  0  0
   38.5900   25.6270   33.8020 N   0  0  0  0  0  0  0  0  0  0  0  0
   39.3530   23.4640   36.1050 C   0  0  0  0  0  0  0  0  0  0  0  0
   38.6340   22.5140   35.3740 C   0  0  0  0  0  0  0  0  0  0  0  0
   37.4310   22.0010   35.7690 C   0  0  0  0  0  0  0  0  0  0  0  0
   36.9160   22.4470   36.9360 N   0  0  0  0  0  0  0  0  0  0  0  0
   37.6140   23.3720   37.6500 C   0  0  0  0  0  0  0  0  0  0  0  0
   38.8000   23.8810   37.2660 N   0  0  0  0  0  0  0  0  0  0  0  0
   41.7056   26.6892   34.1193 H   0  0  0  0  0  0  0  0  0  0  0  0
   42.3433   25.8975   35.6783 H   0  0  0  0  0  0  0  0  0  0  0  0
   43.7479   25.0934   34.2513 H   0  0  0  0  0  0  0  0  0  0  0  0
   42.4703   25.0884   32.8936 H   0  0  0  0  0  0  0  0  0  0  0  0
   42.7146   22.9417   33.1063 H   0  0  0  0  0  0  0  0  0  0  0  0
   43.2013   23.0668   34.8674 H   0  0  0  0  0  0  0  0  0  0  0  0
   40.4465   23.0794   33.6566 H   0  0  0  0  0  0  0  0  0  0  0  0
   41.1408   21.9894   34.8985 H   0  0  0  0  0  0  0  0  0  0  0  0
   41.3755   24.0539   36.4562 H   0  0  0  0  0  0  0  0  0  0  0  0
   39.4497   27.3643   36.5557 H   0  0  0  0  0  0  0  0  0  0  0  0
   37.2713   28.4835   36.0089 H   0  0  0  0  0  0  0  0  0  0  0  0
   36.8429   25.9017   32.6432 H   0  0  0  0  0  0  0  0  0  0  0  0
   39.0619   22.1586   34.4250 H   0  0  0  0  0  0  0  0  0  0  0  0
   36.9017   21.2532   35.1602 H   0  0  0  0  0  0  0  0  0  0  0  0
   37.1830   23.7252   38.5984 H   0  0  0  0  0  0  0  0  0  0  0  0
  1  6  1  0
  2  1  1  0
  3  4  1  0
  3  2  1  0
  4  5  1  0
  5  6  1  0
  6 13  1  0
  7  1  1  0
  7  8  2  0
  9  8  1  0
 10  9  2  0
 11 12  2  0
 11 10  1  0
 12  7  1  0
 13 18  2  0
 14 15  2  0
 14 13  1  0
 15 16  1  0
 16 17  2  0
 18 17  1  0
  2 19  1  0
  2 20  1  0
  3 21  1  0
  3 22  1  0
  4 23  1  0
  4 24  1  0
  5 25  1  0
  5 26  1  0
  6 27  1  1
  8 28  1  0
  9 29  1  0
 11 30  1  0
 14 31  1  0
 15 32  1  0
 17 33  1  0
M  ISO  8  19  13  20  13  21  13  22  13  23  13  24  13  25  13  26  13
M  ISO  7  27  13  28  14  29  14  30  14  31  14  32  14  33  14
M  END
>  <minimizedAffinity>  (1) 
-4.254601

>  <minimizedRMSD>  (1) 
4.34597349

$$$$
