
     RDKit          3D

 28 29  0  0  1  0  0  0  0  0999 V2000
   38.4500   23.5770   35.5400 N   0  0  0  0  0  0  0  0  0  0  0  0
   39.7700   23.3650   36.0540 C   0  0  0  0  0  0  0  0  0  0  0  0
   39.9030   22.9340   37.4450 C   0  0  0  0  0  0  0  0  0  0  0  0
   38.8420   23.2990   38.4110 C   0  0  0  0  0  0  0  0  0  0  0  0
   37.4970   23.5460   37.7620 C   0  0  0  0  0  0  0  0  0  0  0  0
   37.7230   24.3720   36.4850 C   0  0  1  0  0  0  0  0  0  0  0  0
   37.9520   23.0760   34.2960 C   0  0  0  0  0  0  0  0  0  0  0  0
   37.9360   23.8080   33.1030 C   0  0  0  0  0  0  0  0  0  0  0  0
   37.4240   23.1970   31.9700 C   0  0  0  0  0  0  0  0  0  0  0  0
   36.9630   21.9100   32.0760 N   0  0  0  0  0  0  0  0  0  0  0  0
   37.0000   21.2520   33.2400 C   0  0  0  0  0  0  0  0  0  0  0  0
   37.4930   21.8300   34.3500 N   0  0  0  0  0  0  0  0  0  0  0  0
   38.3600   25.6760   36.8280 C   0  0  0  0  0  0  0  0  0  0  0  0
   40.2462   22.5972   35.4265 H   0  0  0  0  0  0  0  0  0  0  0  0
   40.2385   24.3599   36.0282 H   0  0  0  0  0  0  0  0  0  0  0  0
   39.9695   21.8360   37.4380 H   0  0  0  0  0  0  0  0  0  0  0  0
   40.7891   23.4759   37.8070 H   0  0  0  0  0  0  0  0  0  0  0  0
   38.7338   22.4791   39.1363 H   0  0  0  0  0  0  0  0  0  0  0  0
   39.1490   24.2403   38.8902 H   0  0  0  0  0  0  0  0  0  0  0  0
   37.0255   22.5858   37.5056 H   0  0  0  0  0  0  0  0  0  0  0  0
   36.8360   24.0893   38.4534 H   0  0  0  0  0  0  0  0  0  0  0  0
   36.7712   24.6349   36.0002 H   0  0  0  0  0  0  0  0  0  0  0  0
   38.3189   24.8386   33.0662 H   0  0  0  0  0  0  0  0  0  0  0  0
   37.3882   23.7311   31.0091 H   0  0  0  0  0  0  0  0  0  0  0  0
   36.6208   20.2207   33.2903 H   0  0  0  0  0  0  0  0  0  0  0  0
   38.4119   25.7823   37.9216 H   0  0  0  0  0  0  0  0  0  0  0  0
   39.3760   25.7096   36.4077 H   0  0  0  0  0  0  0  0  0  0  0  0
   37.7620   26.4980   36.4077 H   0  0  0  0  0  0  0  0  0  0  0  0
  1  2  1  0
  1  6  1  0
  2  3  1  0
  3  4  1  0
  5  4  1  0
  6 13  1  0
  6  5  1  0
  7 12  1  0
  7  1  1  0
  8  7  2  0
  9 10  2  0
  9  8  1  0
 10 11  1  0
 11 12  2  0
  2 14  1  0
  2 15  1  0
  3 16  1  0
  3 17  1  0
  4 18  1  0
  4 19  1  0
  5 20  1  0
  5 21  1  0
  6 22  1  6
  8 23  1  0
  9 24  1  0
 11 25  1  0
 13 26  1  0
 13 27  1  0
 13 28  1  0
M  ISO  8  14  13  15  13  16  13  17  13  18  13  19  13  20  13  21  13
M  ISO  7  22  13  23  14  24  14  25  14  26   8  27   8  28   8
M  END
>  <minimizedAffinity>  (1) 
-3.6706934

>  <minimizedRMSD>  (1) 
0.476131201

$$$$
