
     RDKit          3D

 27 28  0  0  1  0  0  0  0  0999 V2000
   39.0810   23.5430   35.8100 N   0  0  0  0  0  0  0  0  0  0  0  0
   40.1770   23.0270   36.5540 C   0  0  0  0  0  0  0  0  0  0  0  0
   39.9550   22.7330   37.9910 C   0  0  0  0  0  0  0  0  0  0  0  0
   38.9760   23.5600   38.7250 C   0  0  0  0  0  0  0  0  0  0  0  0
   37.8690   24.1030   37.8410 C   0  0  0  0  0  0  0  0  0  0  0  0
   38.5160   24.6400   36.5470 C   0  0  2  0  0  0  0  0  0  0  0  0
   38.6130   23.0660   34.5530 C   0  0  0  0  0  0  0  0  0  0  0  0
   39.1350   23.4500   33.3070 C   0  0  0  0  0  0  0  0  0  0  0  0
   38.5680   22.8930   32.1670 C   0  0  0  0  0  0  0  0  0  0  0  0
   37.5380   22.0070   32.3100 N   0  0  0  0  0  0  0  0  0  0  0  0
   37.0670   21.6650   33.5170 C   0  0  0  0  0  0  0  0  0  0  0  0
   37.6050   22.1940   34.6310 N   0  0  0  0  0  0  0  0  0  0  0  0
   37.4560   25.2000   35.7660 N   0  0  0  0  0  0  0  0  0  0  0  0
   40.4902   22.0896   36.0710 H   0  0  0  0  0  0  0  0  0  0  0  0
   40.9240   23.8345   36.5466 H   0  0  0  0  0  0  0  0  0  0  0  0
   39.6195   21.6879   38.0630 H   0  0  0  0  0  0  0  0  0  0  0  0
   40.9192   22.9592   38.4697 H   0  0  0  0  0  0  0  0  0  0  0  0
   38.5218   22.9446   39.5156 H   0  0  0  0  0  0  0  0  0  0  0  0
   39.5202   24.4238   39.1345 H   0  0  0  0  0  0  0  0  0  0  0  0
   37.1572   23.3004   37.5978 H   0  0  0  0  0  0  0  0  0  0  0  0
   37.3241   24.9060   38.3589 H   0  0  0  0  0  0  0  0  0  0  0  0
   39.3011   25.3768   36.7723 H   0  0  0  0  0  0  0  0  0  0  0  0
   39.9653   24.1680   33.2358 H   0  0  0  0  0  0  0  0  0  0  0  0
   38.9418   23.1607   31.1677 H   0  0  0  0  0  0  0  0  0  0  0  0
   36.2365   20.9483   33.5974 H   0  0  0  0  0  0  0  0  0  0  0  0
   36.7330   25.5820   36.3923 H   0  0  0  0  0  0  0  0  0  0  0  0
   37.8288   25.9542   35.1718 H   0  0  0  0  0  0  0  0  0  0  0  0
  1  6  1  0
  1  2  1  0
  2  3  1  0
  3  4  1  0
  5  4  1  0
  6  5  1  0
  7 12  1  0
  7  1  1  0
  8  7  2  0
  9 10  2  0
  9  8  1  0
 10 11  1  0
 11 12  2  0
 13  6  1  0
  2 14  1  0
  2 15  1  0
  3 16  1  0
  3 17  1  0
  4 18  1  0
  4 19  1  0
  5 20  1  0
  5 21  1  0
  6 22  1  1
  8 23  1  0
  9 24  1  0
 11 25  1  0
 13 26  1  0
 13 27  1  0
M  ISO  8  14  13  15  13  16  13  17  13  18  13  19  13  20  13  21  13
M  ISO  6  22  13  23  14  24  14  25  14  26   5  27   5
M  END
>  <minimizedAffinity>  (1) 
-3.51365018

>  <minimizedRMSD>  (1) 
0.683057189

$$$$
