
     RDKit          3D

 36 37  0  0  0  0  0  0  0  0999 V2000
   38.1540   23.7370   36.9130 C   0  0  0  0  0  0  0  0  0  0  0  0
   41.4520   21.9690   37.2680 C   0  0  0  0  0  0  0  0  0  0  0  0
   40.1230   22.3060   37.4970 C   0  0  0  0  0  0  0  0  0  0  0  0
   39.5390   23.3200   36.7380 C   0  0  0  0  0  0  0  0  0  0  0  0
   40.3050   23.9450   35.7930 N   0  0  0  0  0  0  0  0  0  0  0  0
   41.5860   23.6010   35.5890 C   0  0  0  0  0  0  0  0  0  0  0  0
   42.1600   22.6220   36.3190 N   0  0  0  0  0  0  0  0  0  0  0  0
   38.0650   24.4850   38.2450 C   0  0  0  0  0  0  0  0  0  0  0  0
   37.6210   24.6000   35.7980 C   0  0  0  0  0  0  0  0  0  0  0  0
   37.2680   22.5150   36.9900 C   0  0  0  0  0  0  0  0  0  0  0  0
   37.0210   21.8700   35.7150 C   0  0  0  0  0  0  0  0  0  0  0  0
   35.9050   21.1700   35.4400 C   0  0  0  0  0  0  0  0  0  0  0  0
   35.6020   20.5630   34.2810 C   0  0  0  0  0  0  0  0  0  0  0  0
   36.6960   20.7740   33.3120 C   0  0  0  0  0  0  0  0  0  0  0  0
   37.9790   21.8060   34.2240 S   0  0  0  0  0  0  0  0  0  0  0  0
   36.9610   20.4080   31.9970 N   0  0  0  0  0  0  0  0  0  0  0  0
   36.1250   19.5860   31.1900 C   0  0  0  0  0  0  0  0  0  0  0  0
   35.3290   18.8220   31.8630 N   0  0  0  0  0  0  0  0  0  0  0  0
   36.3240   19.7610   29.7710 N   0  0  0  0  0  0  0  0  0  0  0  0
   34.6480   18.1560   31.4880 H   0  0  0  0  0  0  0  0  0  0  0  0
   41.9273   21.1718   37.8583 H   0  0  0  0  0  0  0  0  0  0  0  0
   39.5395   21.7798   38.2668 H   0  0  0  0  0  0  0  0  0  0  0  0
   42.1739   24.1222   34.8191 H   0  0  0  0  0  0  0  0  0  0  0  0
   38.1503   23.7678   39.0747 H   0  0  0  0  0  0  0  0  0  0  0  0
   38.8822   25.2186   38.3089 H   0  0  0  0  0  0  0  0  0  0  0  0
   37.0985   25.0063   38.3089 H   0  0  0  0  0  0  0  0  0  0  0  0
   37.0882   25.4626   36.2247 H   0  0  0  0  0  0  0  0  0  0  0  0
   38.4571   24.9555   35.1778 H   0  0  0  0  0  0  0  0  0  0  0  0
   36.9288   24.0116   35.1778 H   0  0  0  0  0  0  0  0  0  0  0  0
   37.7480   21.7842   37.6575 H   0  0  0  0  0  0  0  0  0  0  0  0
   36.2913   22.8596   37.3607 H   0  0  0  0  0  0  0  0  0  0  0  0
   35.1639   21.0863   36.2486 H   0  0  0  0  0  0  0  0  0  0  0  0
   34.6804   19.9958   34.0838 H   0  0  0  0  0  0  0  0  0  0  0  0
   37.8314   20.7597   31.5732 H   0  0  0  0  0  0  0  0  0  0  0  0
   37.0232   20.4352   29.4283 H   0  0  0  0  0  0  0  0  0  0  0  0
   35.7668   19.2116   29.1012 H   0  0  0  0  0  0  0  0  0  0  0  0
  1 10  1  0
  1  8  1  0
  2  3  2  0
  4  1  1  0
  4  3  1  0
  5  4  2  0
  6  5  1  0
  6  7  2  0
  7  2  1  0
  9  1  1  0
 11 10  1  0
 12 11  2  0
 13 12  1  0
 14 15  1  0
 14 13  2  0
 15 11  1  0
 16 14  1  0
 17 18  2  0
 17 16  1  0
 19 17  1  0
 20 18  1  0
  2 21  1  0
  3 22  1  0
  6 23  1  0
  8 24  1  0
  8 25  1  0
  8 26  1  0
  9 27  1  0
  9 28  1  0
  9 29  1  0
 10 30  1  0
 10 31  1  0
 12 32  1  0
 13 33  1  0
 16 34  1  0
 19 35  1  0
 19 36  1  0
M  ISO  8  21  14  22  14  23  14  24   8  25   8  26   8  27   8  28   8
M  ISO  5  29   8  30   8  31   8  32  14  33  14
M  END
>  <minimizedAffinity>  (1) 
-4.40680122

>  <minimizedRMSD>  (1) 
0.272155881

$$$$
