
     RDKit          3D

 31 32  0  0  1  0  0  0  0  0999 V2000
   38.8440   23.5090   35.7520 N   0  0  0  0  0  0  0  0  0  0  0  0
   39.9250   22.8220   36.4240 C   0  0  0  0  0  0  0  0  0  0  0  0
   39.8160   22.6310   37.8770 C   0  0  0  0  0  0  0  0  0  0  0  0
   39.0160   23.6120   38.6540 C   0  0  0  0  0  0  0  0  0  0  0  0
   37.9500   24.2950   37.8460 C   0  0  0  0  0  0  0  0  0  0  0  0
   38.5440   24.6980   36.4810 C   0  0  2  0  0  0  0  0  0  0  0  0
   38.2080   23.0480   34.5730 C   0  0  0  0  0  0  0  0  0  0  0  0
   38.3240   23.6250   33.3150 C   0  0  0  0  0  0  0  0  0  0  0  0
   37.6450   23.0770   32.2430 C   0  0  0  0  0  0  0  0  0  0  0  0
   36.8810   21.9810   32.4680 N   0  0  0  0  0  0  0  0  0  0  0  0
   36.7760   21.4320   33.6890 C   0  0  0  0  0  0  0  0  0  0  0  0
   37.4390   21.9720   34.7220 N   0  0  0  0  0  0  0  0  0  0  0  0
   37.6490   25.6770   35.7830 C   0  0  0  0  0  0  0  0  0  0  0  0
   38.3100   27.0480   35.8790 C   0  0  0  0  0  0  0  0  0  0  0  0
   40.0144   21.8251   35.9677 H   0  0  0  0  0  0  0  0  0  0  0  0
   40.7956   23.4820   36.2955 H   0  0  0  0  0  0  0  0  0  0  0  0
   39.3686   21.6400   38.0434 H   0  0  0  0  0  0  0  0  0  0  0  0
   40.8434   22.7613   38.2477 H   0  0  0  0  0  0  0  0  0  0  0  0
   38.5337   23.0832   39.4893 H   0  0  0  0  0  0  0  0  0  0  0  0
   39.7099   24.3933   38.9975 H   0  0  0  0  0  0  0  0  0  0  0  0
   37.1046   23.6081   37.6932 H   0  0  0  0  0  0  0  0  0  0  0  0
   37.5931   25.1895   38.3775 H   0  0  0  0  0  0  0  0  0  0  0  0
   39.4938   25.2413   36.5937 H   0  0  0  0  0  0  0  0  0  0  0  0
   38.9542   24.5152   33.1722 H   0  0  0  0  0  0  0  0  0  0  0  0
   37.7226   23.5173   31.2379 H   0  0  0  0  0  0  0  0  0  0  0  0
   36.1479   20.5419   33.8414 H   0  0  0  0  0  0  0  0  0  0  0  0
   36.6635   25.6997   36.2711 H   0  0  0  0  0  0  0  0  0  0  0  0
   37.5034   25.3888   34.7315 H   0  0  0  0  0  0  0  0  0  0  0  0
   38.4406   27.3188   36.9371 H   0  0  0  0  0  0  0  0  0  0  0  0
   39.2921   27.0170   35.3846 H   0  0  0  0  0  0  0  0  0  0  0  0
   37.6741   27.7971   35.3846 H   0  0  0  0  0  0  0  0  0  0  0  0
  1  2  1  0
  1  6  1  0
  2  3  1  0
  3  4  1  0
  5  4  1  0
  6  5  1  0
  7 12  1  0
  7  1  1  0
  8  7  2  0
  9 10  2  0
  9  8  1  0
 10 11  1  0
 11 12  2  0
 13 14  1  0
 13  6  1  0
  2 15  1  0
  2 16  1  0
  3 17  1  0
  3 18  1  0
  4 19  1  0
  4 20  1  0
  5 21  1  0
  5 22  1  0
  6 23  1  1
  8 24  1  0
  9 25  1  0
 11 26  1  0
 13 27  1  0
 13 28  1  0
 14 29  1  0
 14 30  1  0
 14 31  1  0
M  ISO  8  15  13  16  13  17  13  18  13  19  13  20  13  21  13  22  13
M  ISO  8  23  13  24  14  25  14  26  14  27   8  28   8  29   8  30   8
M  ISO  1  31   8
M  END
>  <minimizedAffinity>  (1) 
-4.13666916

>  <minimizedRMSD>  (1) 
0.515721798

$$$$
