
     RDKit          3D

 45 48  0  0  1  0  0  0  0  0999 V2000
   38.9790   23.3680   35.6430 N   0  0  0  0  0  0  0  0  0  0  0  0
   40.1220   22.7350   36.2680 C   0  0  0  0  0  0  0  0  0  0  0  0
   40.0710   22.5170   37.7160 C   0  0  0  0  0  0  0  0  0  0  0  0
   39.2280   23.4200   38.5310 C   0  0  0  0  0  0  0  0  0  0  0  0
   38.0610   23.9810   37.7730 C   0  0  0  0  0  0  0  0  0  0  0  0
   38.5990   24.5100   36.4110 C   0  0  2  0  0  0  0  0  0  0  0  0
   38.3610   22.8900   34.4500 C   0  0  0  0  0  0  0  0  0  0  0  0
   38.6550   23.3160   33.1730 C   0  0  0  0  0  0  0  0  0  0  0  0
   37.9700   22.7630   32.1030 C   0  0  0  0  0  0  0  0  0  0  0  0
   37.0250   21.8120   32.3560 N   0  0  0  0  0  0  0  0  0  0  0  0
   36.7530   21.4090   33.6120 C   0  0  0  0  0  0  0  0  0  0  0  0
   37.4220   21.9510   34.6400 N   0  0  0  0  0  0  0  0  0  0  0  0
   37.5820   25.3970   35.7820 C   0  0  0  0  0  0  0  0  0  0  0  0
   38.2450   26.7340   35.4830 C   0  0  0  0  0  0  0  0  0  0  0  0
   38.0830   27.1660   34.0740 C   0  0  0  0  0  0  0  0  0  0  0  0
   38.9940   26.7180   33.1620 N   0  0  0  0  0  0  0  0  0  0  0  0
   38.9610   27.0110   31.8600 C   0  0  0  0  0  0  0  0  0  0  0  0
   37.9990   27.7900   31.3490 N   0  0  0  0  0  0  0  0  0  0  0  0
   37.0640   28.2650   32.2130 C   0  0  0  0  0  0  0  0  0  0  0  0
   36.0260   29.0800   31.8080 C   0  0  0  0  0  0  0  0  0  0  0  0
   35.0830   29.5680   32.6670 C   0  0  0  0  0  0  0  0  0  0  0  0
   35.1420   29.2510   33.9980 C   0  0  0  0  0  0  0  0  0  0  0  0
   36.1630   28.4390   34.4450 C   0  0  0  0  0  0  0  0  0  0  0  0
   37.0890   27.9690   33.5590 C   0  0  0  0  0  0  0  0  0  0  0  0
   40.2546   21.7522   35.7920 H   0  0  0  0  0  0  0  0  0  0  0  0
   40.9485   23.4461   36.1223 H   0  0  0  0  0  0  0  0  0  0  0  0
   39.7036   21.4930   37.8787 H   0  0  0  0  0  0  0  0  0  0  0  0
   41.0966   22.7200   38.0579 H   0  0  0  0  0  0  0  0  0  0  0  0
   38.8458   22.8567   39.3951 H   0  0  0  0  0  0  0  0  0  0  0  0
   39.8578   24.2682   38.8374 H   0  0  0  0  0  0  0  0  0  0  0  0
   37.3116   23.1943   37.6009 H   0  0  0  0  0  0  0  0  0  0  0  0
   37.5827   24.7917   38.3421 H   0  0  0  0  0  0  0  0  0  0  0  0
   39.4908   25.1461   36.5112 H   0  0  0  0  0  0  0  0  0  0  0  0
   39.4234   24.0850   33.0052 H   0  0  0  0  0  0  0  0  0  0  0  0
   38.1833   23.0836   31.0726 H   0  0  0  0  0  0  0  0  0  0  0  0
   35.9872   20.6404   33.7933 H   0  0  0  0  0  0  0  0  0  0  0  0
   37.2177   24.9438   34.8482 H   0  0  0  0  0  0  0  0  0  0  0  0
   36.7263   25.5375   36.4588 H   0  0  0  0  0  0  0  0  0  0  0  0
   37.7994   27.4987   36.1362 H   0  0  0  0  0  0  0  0  0  0  0  0
   39.3229   26.6113   35.6646 H   0  0  0  0  0  0  0  0  0  0  0  0
   39.7378   26.6054   31.1951 H   0  0  0  0  0  0  0  0  0  0  0  0
   35.9551   29.3489   30.7437 H   0  0  0  0  0  0  0  0  0  0  0  0
   34.2770   30.2149   32.2902 H   0  0  0  0  0  0  0  0  0  0  0  0
   34.3875   29.6377   34.6989 H   0  0  0  0  0  0  0  0  0  0  0  0
   36.2309   28.1715   35.5098 H   0  0  0  0  0  0  0  0  0  0  0  0
  1  2  1  0
  1  6  1  0
  2  3  1  0
  3  4  1  0
  5  4  1  0
  6  5  1  0
  7 12  1  0
  7  1  1  0
  8  7  2  0
  9 10  2  0
  9  8  1  0
 10 11  1  0
 11 12  2  0
 13  6  1  0
 14 13  1  0
 15 14  1  0
 16 15  2  0
 17 16  1  0
 18 17  2  0
 18 19  1  0
 19 24  2  0
 20 19  1  0
 20 21  2  0
 21 22  1  0
 22 23  2  0
 24 15  1  0
 24 23  1  0
  2 25  1  0
  2 26  1  0
  3 27  1  0
  3 28  1  0
  4 29  1  0
  4 30  1  0
  5 31  1  0
  5 32  1  0
  6 33  1  1
  8 34  1  0
  9 35  1  0
 11 36  1  0
 13 37  1  0
 13 38  1  0
 14 39  1  0
 14 40  1  0
 17 41  1  0
 20 42  1  0
 21 43  1  0
 22 44  1  0
 23 45  1  0
M  ISO  8  25  13  26  13  27  13  28  13  29  13  30  13  31  13  32  13
M  ISO  8  33  13  34  14  35  14  36  14  37   8  38   8  39   8  40   8
M  ISO  5  41  14  42  14  43  14  44  14  45  14
M  END
>  <minimizedAffinity>  (1) 
-5.65168047

>  <minimizedRMSD>  (1) 
2.00641346

$$$$
