
     RDKit          3D

 44 46  0  0  1  0  0  0  0  0999 V2000
   38.8950   23.3970   35.7250 N   0  0  0  0  0  0  0  0  0  0  0  0
   40.0010   22.7320   36.3810 C   0  0  0  0  0  0  0  0  0  0  0  0
   39.9250   22.5790   37.8420 C   0  0  0  0  0  0  0  0  0  0  0  0
   39.0910   23.5390   38.6130 C   0  0  0  0  0  0  0  0  0  0  0  0
   37.9690   24.1450   37.8060 C   0  0  0  0  0  0  0  0  0  0  0  0
   38.5660   24.5780   36.4350 C   0  0  2  0  0  0  0  0  0  0  0  0
   38.2690   22.8940   34.5460 C   0  0  0  0  0  0  0  0  0  0  0  0
   38.5000   23.3190   33.2540 C   0  0  0  0  0  0  0  0  0  0  0  0
   37.8250   22.7490   32.2000 C   0  0  0  0  0  0  0  0  0  0  0  0
   36.9410   21.7720   32.4690 N   0  0  0  0  0  0  0  0  0  0  0  0
   36.7120   21.3500   33.7340 C   0  0  0  0  0  0  0  0  0  0  0  0
   37.3780   21.9180   34.7410 N   0  0  0  0  0  0  0  0  0  0  0  0
   37.5910   25.4850   35.7570 C   0  0  0  0  0  0  0  0  0  0  0  0
   38.3590   26.6420   35.1520 C   0  0  0  0  0  0  0  0  0  0  0  0
   37.6080   27.3840   34.1710 N   0  0  0  0  0  0  0  0  0  0  0  0
   36.5110   28.1180   34.4360 C   0  0  0  0  0  0  0  0  0  0  0  0
   35.8350   28.8090   33.4420 C   0  0  0  0  0  0  0  0  0  0  0  0
   34.6380   29.5820   33.8630 C   0  0  0  0  0  0  0  0  0  0  0  0
   36.2940   28.7510   32.1290 C   0  0  0  0  0  0  0  0  0  0  0  0
   35.5990   29.4120   31.3430 O   0  0  0  0  0  0  0  0  0  0  0  0
   37.3940   28.0070   31.9040 N   0  0  0  0  0  0  0  0  0  0  0  0
   38.0220   27.3520   32.8890 C   0  0  0  0  0  0  0  0  0  0  0  0
   39.0390   26.7070   32.4730 O   0  0  0  0  0  0  0  0  0  0  0  0
   40.0853   21.7247   35.9471 H   0  0  0  0  0  0  0  0  0  0  0  0
   40.8669   23.3886   36.2103 H   0  0  0  0  0  0  0  0  0  0  0  0
   39.5309   21.5719   38.0431 H   0  0  0  0  0  0  0  0  0  0  0  0
   40.9508   22.7753   38.1873 H   0  0  0  0  0  0  0  0  0  0  0  0
   38.6548   23.0090   39.4726 H   0  0  0  0  0  0  0  0  0  0  0  0
   39.7496   24.3641   38.9220 H   0  0  0  0  0  0  0  0  0  0  0  0
   37.1724   23.4022   37.6519 H   0  0  0  0  0  0  0  0  0  0  0  0
   37.5337   25.0080   38.3311 H   0  0  0  0  0  0  0  0  0  0  0  0
   39.4947   25.1613   36.5207 H   0  0  0  0  0  0  0  0  0  0  0  0
   39.2298   24.1201   33.0654 H   0  0  0  0  0  0  0  0  0  0  0  0
   38.0030   23.0826   31.1670 H   0  0  0  0  0  0  0  0  0  0  0  0
   35.9852   20.5479   33.9299 H   0  0  0  0  0  0  0  0  0  0  0  0
   37.0608   24.9358   34.9650 H   0  0  0  0  0  0  0  0  0  0  0  0
   36.8529   25.8580   36.4823 H   0  0  0  0  0  0  0  0  0  0  0  0
   38.6474   27.3289   35.9614 H   0  0  0  0  0  0  0  0  0  0  0  0
   39.2307   26.2147   34.6348 H   0  0  0  0  0  0  0  0  0  0  0  0
   36.1405   28.1710   35.4704 H   0  0  0  0  0  0  0  0  0  0  0  0
   34.5895   29.6133   34.9615 H   0  0  0  0  0  0  0  0  0  0  0  0
   34.7064   30.6070   33.4696 H   0  0  0  0  0  0  0  0  0  0  0  0
   33.7319   29.0980   33.4696 H   0  0  0  0  0  0  0  0  0  0  0  0
   37.7636   27.9397   30.9449 H   0  0  0  0  0  0  0  0  0  0  0  0
  1  2  1  0
  1  6  1  0
  2  3  1  0
  3  4  1  0
  5  4  1  0
  6  5  1  0
  7 12  1  0
  7  1  1  0
  8  7  2  0
  9 10  2  0
  9  8  1  0
 10 11  1  0
 11 12  2  0
 13  6  1  0
 14 13  1  0
 15 16  1  0
 15 14  1  0
 17 18  1  0
 17 16  2  0
 19 17  1  0
 20 19  2  0
 21 19  1  0
 21 22  1  0
 22 15  1  0
 23 22  2  0
  2 24  1  0
  2 25  1  0
  3 26  1  0
  3 27  1  0
  4 28  1  0
  4 29  1  0
  5 30  1  0
  5 31  1  0
  6 32  1  1
  8 33  1  0
  9 34  1  0
 11 35  1  0
 13 36  1  0
 13 37  1  0
 14 38  1  0
 14 39  1  0
 16 40  1  0
 18 41  1  0
 18 42  1  0
 18 43  1  0
 21 44  1  0
M  ISO  8  24  13  25  13  26  13  27  13  28  13  29  13  30  13  31  13
M  ISO  8  32  13  33  14  34  14  35  14  36   8  37   8  38   8  39   8
M  ISO  5  40  14  41   8  42   8  43   8  44   9
M  END
>  <minimizedAffinity>  (1) 
-5.28237486

>  <minimizedRMSD>  (1) 
1.30799103

$$$$
