
     RDKit          3D

 42 45  0  0  1  0  0  0  0  0999 V2000
   38.9740   23.4910   35.6410 N   0  0  0  0  0  0  0  0  0  0  0  0
   40.1170   22.8280   36.2490 C   0  0  0  0  0  0  0  0  0  0  0  0
   40.0550   22.5630   37.6900 C   0  0  0  0  0  0  0  0  0  0  0  0
   39.1610   23.3990   38.5360 C   0  0  0  0  0  0  0  0  0  0  0  0
   38.0310   24.0370   37.7810 C   0  0  0  0  0  0  0  0  0  0  0  0
   38.5900   24.5960   36.4400 C   0  0  2  0  0  0  0  0  0  0  0  0
   38.3680   23.0550   34.4260 C   0  0  0  0  0  0  0  0  0  0  0  0
   38.5950   23.5700   33.1670 C   0  0  0  0  0  0  0  0  0  0  0  0
   37.9380   23.0560   32.0770 C   0  0  0  0  0  0  0  0  0  0  0  0
   37.0770   22.0440   32.2810 N   0  0  0  0  0  0  0  0  0  0  0  0
   36.8460   21.5290   33.5120 C   0  0  0  0  0  0  0  0  0  0  0  0
   37.4980   22.0450   34.5720 N   0  0  0  0  0  0  0  0  0  0  0  0
   37.5700   25.5050   35.8370 C   0  0  0  0  0  0  0  0  0  0  0  0
   38.2370   26.8580   35.6110 C   0  0  0  0  0  0  0  0  0  0  0  0
   38.7060   27.0230   34.2620 N   0  0  0  0  0  0  0  0  0  0  0  0
   39.9510   26.9690   33.7550 C   0  0  0  0  0  0  0  0  0  0  0  0
   39.9170   27.1870   32.4180 N   0  0  0  0  0  0  0  0  0  0  0  0
   38.6430   27.3850   32.0300 C   0  0  0  0  0  0  0  0  0  0  0  0
   38.0020   27.6450   30.8360 C   0  0  0  0  0  0  0  0  0  0  0  0
   36.6670   27.7930   30.8140 N   0  0  0  0  0  0  0  0  0  0  0  0
   35.9530   27.6880   31.9590 C   0  0  0  0  0  0  0  0  0  0  0  0
   36.5690   27.4340   33.1310 N   0  0  0  0  0  0  0  0  0  0  0  0
   37.9180   27.2770   33.2000 C   0  0  0  0  0  0  0  0  0  0  0  0
   40.2464   21.8610   35.7409 H   0  0  0  0  0  0  0  0  0  0  0  0
   40.9501   23.5362   36.1286 H   0  0  0  0  0  0  0  0  0  0  0  0
   39.7322   21.5186   37.8128 H   0  0  0  0  0  0  0  0  0  0  0  0
   41.0655   22.8083   38.0487 H   0  0  0  0  0  0  0  0  0  0  0  0
   38.7345   22.7615   39.3244 H   0  0  0  0  0  0  0  0  0  0  0  0
   39.7764   24.2161   38.9405 H   0  0  0  0  0  0  0  0  0  0  0  0
   37.2520   23.2881   37.5754 H   0  0  0  0  0  0  0  0  0  0  0  0
   37.5910   24.8511   38.3757 H   0  0  0  0  0  0  0  0  0  0  0  0
   39.4905   25.2155   36.5642 H   0  0  0  0  0  0  0  0  0  0  0  0
   39.3071   24.3980   33.0355 H   0  0  0  0  0  0  0  0  0  0  0  0
   38.1106   23.4595   31.0683 H   0  0  0  0  0  0  0  0  0  0  0  0
   36.1352   20.7001   33.6447 H   0  0  0  0  0  0  0  0  0  0  0  0
   37.2206   25.0939   34.8784 H   0  0  0  0  0  0  0  0  0  0  0  0
   36.7011   25.6083   36.5036 H   0  0  0  0  0  0  0  0  0  0  0  0
   37.5077   27.6517   35.8303 H   0  0  0  0  0  0  0  0  0  0  0  0
   39.1103   26.9152   36.2774 H   0  0  0  0  0  0  0  0  0  0  0  0
   40.8625   26.7762   34.3398 H   0  0  0  0  0  0  0  0  0  0  0  0
   38.5822   27.7308   29.9054 H   0  0  0  0  0  0  0  0  0  0  0  0
   34.8602   27.8110   31.9331 H   0  0  0  0  0  0  0  0  0  0  0  0
  1  2  1  0
  1  6  1  0
  2  3  1  0
  3  4  1  0
  5  4  1  0
  6  5  1  0
  7 12  1  0
  7  1  1  0
  8  7  2  0
  9 10  2  0
  9  8  1  0
 10 11  1  0
 11 12  2  0
 13  6  1  0
 14 13  1  0
 15 14  1  0
 16 15  1  0
 17 16  2  0
 18 17  1  0
 18 23  2  0
 19 18  1  0
 20 19  2  0
 20 21  1  0
 21 22  2  0
 22 23  1  0
 23 15  1  0
  2 24  1  0
  2 25  1  0
  3 26  1  0
  3 27  1  0
  4 28  1  0
  4 29  1  0
  5 30  1  0
  5 31  1  0
  6 32  1  1
  8 33  1  0
  9 34  1  0
 11 35  1  0
 13 36  1  0
 13 37  1  0
 14 38  1  0
 14 39  1  0
 16 40  1  0
 19 41  1  0
 21 42  1  0
M  ISO  8  24  13  25  13  26  13  27  13  28  13  29  13  30  13  31  13
M  ISO  8  32  13  33  14  34  14  35  14  36   8  37   8  38   8  39   8
M  ISO  3  40  14  41  14  42  14
M  END
>  <minimizedAffinity>  (1) 
-5.18378448

>  <minimizedRMSD>  (1) 
2.47868013

$$$$
