
     RDKit          3D

 42 44  0  0  1  0  0  0  0  0999 V2000
   38.9820   23.4200   35.8080 N   0  0  0  0  0  0  0  0  0  0  0  0
   40.0830   22.8910   36.5790 C   0  0  0  0  0  0  0  0  0  0  0  0
   39.8990   22.7970   38.0390 C   0  0  0  0  0  0  0  0  0  0  0  0
   38.9210   23.7100   38.6920 C   0  0  0  0  0  0  0  0  0  0  0  0
   37.8140   24.1580   37.7640 C   0  0  0  0  0  0  0  0  0  0  0  0
   38.4880   24.5990   36.4300 C   0  0  2  0  0  0  0  0  0  0  0  0
   38.5020   22.8120   34.6090 C   0  0  0  0  0  0  0  0  0  0  0  0
   39.0230   22.9830   33.3410 C   0  0  0  0  0  0  0  0  0  0  0  0
   38.4600   22.3350   32.2660 C   0  0  0  0  0  0  0  0  0  0  0  0
   37.3970   21.5370   32.4900 N   0  0  0  0  0  0  0  0  0  0  0  0
   36.8840   21.3680   33.7300 C   0  0  0  0  0  0  0  0  0  0  0  0
   37.4430   22.0050   34.7660 N   0  0  0  0  0  0  0  0  0  0  0  0
   37.5110   25.3870   35.6220 C   0  0  0  0  0  0  0  0  0  0  0  0
   38.2370   26.5470   34.9940 C   0  0  0  0  0  0  0  0  0  0  0  0
   37.8620   26.8540   33.6520 N   0  0  0  0  0  0  0  0  0  0  0  0
   38.4260   26.3080   32.5580 C   0  0  0  0  0  0  0  0  0  0  0  0
   38.0390   26.6260   31.2520 C   0  0  0  0  0  0  0  0  0  0  0  0
   37.0160   27.5600   31.1380 C   0  0  0  0  0  0  0  0  0  0  0  0
   36.5430   27.9580   29.8550 N   0  0  0  0  0  0  0  0  0  0  0  0
   36.4540   28.1050   32.2360 N   0  0  0  0  0  0  0  0  0  0  0  0
   36.8760   27.7520   33.4860 C   0  0  0  0  0  0  0  0  0  0  0  0
   36.2980   28.3090   34.4310 O   0  0  0  0  0  0  0  0  0  0  0  0
   40.2917   21.8775   36.2058 H   0  0  0  0  0  0  0  0  0  0  0  0
   40.8993   23.6155   36.4420 H   0  0  0  0  0  0  0  0  0  0  0  0
   39.5803   21.7677   38.2605 H   0  0  0  0  0  0  0  0  0  0  0  0
   40.8710   23.1030   38.4531 H   0  0  0  0  0  0  0  0  0  0  0  0
   38.4697   23.1854   39.5471 H   0  0  0  0  0  0  0  0  0  0  0  0
   39.4712   24.6101   39.0036 H   0  0  0  0  0  0  0  0  0  0  0  0
   37.1172   23.3273   37.5786 H   0  0  0  0  0  0  0  0  0  0  0  0
   37.2416   24.9863   38.2071 H   0  0  0  0  0  0  0  0  0  0  0  0
   39.3438   25.2754   36.5721 H   0  0  0  0  0  0  0  0  0  0  0  0
   39.8920   23.6403   33.1902 H   0  0  0  0  0  0  0  0  0  0  0  0
   38.8660   22.4645   31.2519 H   0  0  0  0  0  0  0  0  0  0  0  0
   36.0145   20.7124   33.8858 H   0  0  0  0  0  0  0  0  0  0  0  0
   37.0798   24.7496   34.8360 H   0  0  0  0  0  0  0  0  0  0  0  0
   36.6986   25.7546   36.2661 H   0  0  0  0  0  0  0  0  0  0  0  0
   38.0486   27.4383   35.6106 H   0  0  0  0  0  0  0  0  0  0  0  0
   39.2959   26.2523   34.9512 H   0  0  0  0  0  0  0  0  0  0  0  0
   39.2329   25.5738   32.6986 H   0  0  0  0  0  0  0  0  0  0  0  0
   38.5135   26.1667   30.3723 H   0  0  0  0  0  0  0  0  0  0  0  0
   35.7846   28.6506   29.7778 H   0  0  0  0  0  0  0  0  0  0  0  0
   36.9593   27.5532   29.0043 H   0  0  0  0  0  0  0  0  0  0  0  0
  1  6  1  0
  1  2  1  0
  2  3  1  0
  3  4  1  0
  5  4  1  0
  6  5  1  0
  7 12  1  0
  7  1  1  0
  8  7  2  0
  9 10  2  0
  9  8  1  0
 10 11  1  0
 11 12  2  0
 13  6  1  0
 14 13  1  0
 15 14  1  0
 16 15  1  0
 17 16  2  0
 18 17  1  0
 18 20  2  0
 19 18  1  0
 20 21  1  0
 21 15  1  0
 21 22  2  0
  2 23  1  0
  2 24  1  0
  3 25  1  0
  3 26  1  0
  4 27  1  0
  4 28  1  0
  5 29  1  0
  5 30  1  0
  6 31  1  1
  8 32  1  0
  9 33  1  0
 11 34  1  0
 13 35  1  0
 13 36  1  0
 14 37  1  0
 14 38  1  0
 16 39  1  0
 17 40  1  0
 19 41  1  0
 19 42  1  0
M  ISO  8  23  13  24  13  25  13  26  13  27  13  28  13  29  13  30  13
M  ISO  8  31  13  32  14  33  14  34  14  35   8  36   8  37   8  38   8
M  ISO  2  39  14  40  14
M  END
>  <minimizedAffinity>  (1) 
-5.12906981

>  <minimizedRMSD>  (1) 
2.20518661

$$$$
