
     RDKit          3D

 41 43  0  0  1  0  0  0  0  0999 V2000
   38.8630   23.3940   35.7340 N   0  0  0  0  0  0  0  0  0  0  0  0
   39.9540   22.7410   36.4200 C   0  0  0  0  0  0  0  0  0  0  0  0
   39.8500   22.6260   37.8900 C   0  0  0  0  0  0  0  0  0  0  0  0
   38.9810   23.5720   38.6250 C   0  0  0  0  0  0  0  0  0  0  0  0
   37.9160   24.2000   37.7860 C   0  0  0  0  0  0  0  0  0  0  0  0
   38.5300   24.6000   36.4110 C   0  0  2  0  0  0  0  0  0  0  0  0
   38.2450   22.8730   34.5640 C   0  0  0  0  0  0  0  0  0  0  0  0
   38.5060   23.2850   33.2680 C   0  0  0  0  0  0  0  0  0  0  0  0
   37.8370   22.7010   32.2090 C   0  0  0  0  0  0  0  0  0  0  0  0
   36.9280   21.7210   32.4910 N   0  0  0  0  0  0  0  0  0  0  0  0
   36.6850   21.3300   33.7560 C   0  0  0  0  0  0  0  0  0  0  0  0
   37.3400   21.9050   34.7710 N   0  0  0  0  0  0  0  0  0  0  0  0
   37.5820   25.5030   35.6970 C   0  0  0  0  0  0  0  0  0  0  0  0
   38.3860   26.6780   35.1410 C   0  0  0  0  0  0  0  0  0  0  0  0
   37.5880   27.4180   34.2050 N   0  0  0  0  0  0  0  0  0  0  0  0
   36.4970   28.1480   34.4840 C   0  0  0  0  0  0  0  0  0  0  0  0
   35.8620   28.7930   33.4390 C   0  0  0  0  0  0  0  0  0  0  0  0
   36.3010   28.7150   32.1330 C   0  0  0  0  0  0  0  0  0  0  0  0
   35.7240   29.3000   31.1820 O   0  0  0  0  0  0  0  0  0  0  0  0
   37.4020   27.9700   31.8890 N   0  0  0  0  0  0  0  0  0  0  0  0
   38.0060   27.3520   32.9220 C   0  0  0  0  0  0  0  0  0  0  0  0
   39.0240   26.6860   32.5730 O   0  0  0  0  0  0  0  0  0  0  0  0
   40.0399   21.7228   36.0128 H   0  0  0  0  0  0  0  0  0  0  0  0
   40.8279   23.3858   36.2452 H   0  0  0  0  0  0  0  0  0  0  0  0
   39.4808   21.6131   38.1086 H   0  0  0  0  0  0  0  0  0  0  0  0
   40.8625   22.8681   38.2453 H   0  0  0  0  0  0  0  0  0  0  0  0
   38.4958   23.0271   39.4482 H   0  0  0  0  0  0  0  0  0  0  0  0
   39.6283   24.3879   38.9789 H   0  0  0  0  0  0  0  0  0  0  0  0
   37.0969   23.4824   37.6303 H   0  0  0  0  0  0  0  0  0  0  0  0
   37.5197   25.0927   38.2920 H   0  0  0  0  0  0  0  0  0  0  0  0
   39.4592   25.1827   36.4953 H   0  0  0  0  0  0  0  0  0  0  0  0
   39.2459   24.0772   33.0813 H   0  0  0  0  0  0  0  0  0  0  0  0
   38.0302   23.0151   31.1727 H   0  0  0  0  0  0  0  0  0  0  0  0
   35.9481   20.5380   33.9551 H   0  0  0  0  0  0  0  0  0  0  0  0
   37.0955   24.9594   34.8737 H   0  0  0  0  0  0  0  0  0  0  0  0
   36.8016   25.8620   36.3841 H   0  0  0  0  0  0  0  0  0  0  0  0
   38.6848   27.3390   35.9679 H   0  0  0  0  0  0  0  0  0  0  0  0
   39.2808   26.2940   34.6292 H   0  0  0  0  0  0  0  0  0  0  0  0
   36.1192   28.2307   35.5138 H   0  0  0  0  0  0  0  0  0  0  0  0
   34.9676   29.3947   33.6581 H   0  0  0  0  0  0  0  0  0  0  0  0
   37.7717   27.8768   30.9322 H   0  0  0  0  0  0  0  0  0  0  0  0
  1  6  1  0
  1  2  1  0
  2  3  1  0
  3  4  1  0
  5  4  1  0
  6  5  1  0
  7 12  1  0
  7  1  1  0
  8  7  2  0
  9 10  2  0
  9  8  1  0
 10 11  1  0
 11 12  2  0
 13  6  1  0
 14 13  1  0
 15 16  1  0
 15 14  1  0
 17 16  2  0
 18 17  1  0
 19 18  2  0
 20 18  1  0
 20 21  1  0
 21 15  1  0
 22 21  2  0
  2 23  1  0
  2 24  1  0
  3 25  1  0
  3 26  1  0
  4 27  1  0
  4 28  1  0
  5 29  1  0
  5 30  1  0
  6 31  1  1
  8 32  1  0
  9 33  1  0
 11 34  1  0
 13 35  1  0
 13 36  1  0
 14 37  1  0
 14 38  1  0
 16 39  1  0
 17 40  1  0
 20 41  1  0
M  ISO  8  23  13  24  13  25  13  26  13  27  13  28  13  29  13  30  13
M  ISO  8  31  13  32  14  33  14  34  14  35   8  36   8  37   8  38   8
M  ISO  3  39  14  40  14  41   9
M  END
>  <minimizedAffinity>  (1) 
-5.08355761

>  <minimizedRMSD>  (1) 
1.05876315

$$$$
