
     RDKit          3D

 37 39  0  0  1  0  0  0  0  0999 V2000
   38.9510   23.4120   35.6760 N   0  0  0  0  0  0  0  0  0  0  0  0
   40.1180   22.7820   36.2500 C   0  0  0  0  0  0  0  0  0  0  0  0
   40.0990   22.5320   37.7040 C   0  0  0  0  0  0  0  0  0  0  0  0
   39.2070   23.3490   38.5620 C   0  0  0  0  0  0  0  0  0  0  0  0
   38.0350   23.9410   37.8220 C   0  0  0  0  0  0  0  0  0  0  0  0
   38.5700   24.5170   36.4790 C   0  0  2  0  0  0  0  0  0  0  0  0
   38.3230   22.9450   34.4830 C   0  0  0  0  0  0  0  0  0  0  0  0
   38.5330   23.4320   33.2100 C   0  0  0  0  0  0  0  0  0  0  0  0
   37.8600   22.8930   32.1330 C   0  0  0  0  0  0  0  0  0  0  0  0
   36.9970   21.8800   32.3750 N   0  0  0  0  0  0  0  0  0  0  0  0
   36.7890   21.4020   33.6240 C   0  0  0  0  0  0  0  0  0  0  0  0
   37.4550   21.9400   34.6550 N   0  0  0  0  0  0  0  0  0  0  0  0
   37.5200   25.4000   35.8840 C   0  0  0  0  0  0  0  0  0  0  0  0
   38.1150   26.7740   35.6710 C   0  0  0  0  0  0  0  0  0  0  0  0
   37.5320   27.4030   34.4330 C   0  0  0  0  0  0  0  0  0  0  0  0
   38.0440   27.1810   33.1100 C   0  0  0  0  0  0  0  0  0  0  0  0
   36.8920   28.2230   32.1170 S   0  0  0  0  0  0  0  0  0  0  0  0
   35.9360   28.7650   33.6500 C   0  0  0  0  0  0  0  0  0  0  0  0
   36.4820   28.2100   34.5670 N   0  0  0  0  0  0  0  0  0  0  0  0
   40.2516   21.8121   35.7485 H   0  0  0  0  0  0  0  0  0  0  0  0
   40.9355   23.5015   36.0952 H   0  0  0  0  0  0  0  0  0  0  0  0
   39.8091   21.4805   37.8466 H   0  0  0  0  0  0  0  0  0  0  0  0
   41.1107   22.8117   38.0332 H   0  0  0  0  0  0  0  0  0  0  0  0
   38.8213   22.7104   39.3704 H   0  0  0  0  0  0  0  0  0  0  0  0
   39.8062   24.1893   38.9427 H   0  0  0  0  0  0  0  0  0  0  0  0
   37.2842   23.1619   37.6236 H   0  0  0  0  0  0  0  0  0  0  0  0
   37.5598   24.7324   38.4202 H   0  0  0  0  0  0  0  0  0  0  0  0
   39.4582   25.1556   36.5945 H   0  0  0  0  0  0  0  0  0  0  0  0
   39.2431   24.2571   33.0520 H   0  0  0  0  0  0  0  0  0  0  0  0
   38.0196   23.2737   31.1134 H   0  0  0  0  0  0  0  0  0  0  0  0
   36.0791   20.5786   33.7915 H   0  0  0  0  0  0  0  0  0  0  0  0
   37.1885   24.9855   34.9205 H   0  0  0  0  0  0  0  0  0  0  0  0
   36.6538   25.4642   36.5589 H   0  0  0  0  0  0  0  0  0  0  0  0
   37.8896   27.4073   36.5417 H   0  0  0  0  0  0  0  0  0  0  0  0
   39.2042   26.6802   35.5490 H   0  0  0  0  0  0  0  0  0  0  0  0
   38.8902   26.5604   32.7800 H   0  0  0  0  0  0  0  0  0  0  0  0
   35.0691   29.4406   33.6955 H   0  0  0  0  0  0  0  0  0  0  0  0
  1  2  1  0
  1  6  1  0
  2  3  1  0
  3  4  1  0
  5  4  1  0
  6  5  1  0
  7 12  1  0
  7  1  1  0
  8  7  2  0
  9 10  2  0
  9  8  1  0
 10 11  1  0
 11 12  2  0
 13  6  1  0
 14 13  1  0
 15 19  1  0
 15 14  1  0
 16 15  2  0
 17 16  1  0
 17 18  1  0
 18 19  2  0
  2 20  1  0
  2 21  1  0
  3 22  1  0
  3 23  1  0
  4 24  1  0
  4 25  1  0
  5 26  1  0
  5 27  1  0
  6 28  1  1
  8 29  1  0
  9 30  1  0
 11 31  1  0
 13 32  1  0
 13 33  1  0
 14 34  1  0
 14 35  1  0
 16 36  1  0
 18 37  1  0
M  ISO  8  20  13  21  13  22  13  23  13  24  13  25  13  26  13  27  13
M  ISO  8  28  13  29  14  30  14  31  14  32   8  33   8  34   8  35   8
M  ISO  2  36  14  37  14
M  END
>  <minimizedAffinity>  (1) 
-4.65263414

>  <minimizedRMSD>  (1) 
0.890074909

$$$$
