
     RDKit          3D

 45 47  0  0  1  0  0  0  0  0999 V2000
   39.0780   23.3170   36.0470 N   0  0  0  0  0  0  0  0  0  0  0  0
   39.5730   22.7910   37.3150 C   0  0  0  0  0  0  0  0  0  0  0  0
   38.8370   23.1790   38.5260 C   0  0  0  0  0  0  0  0  0  0  0  0
   38.0800   24.4660   38.5120 C   0  0  0  0  0  0  0  0  0  0  0  0
   37.6380   24.8880   37.1430 C   0  0  0  0  0  0  0  0  0  0  0  0
   38.8240   24.7180   36.1850 C   0  0  2  0  0  0  0  0  0  0  0  0
   38.8960   22.5170   34.8960 C   0  0  0  0  0  0  0  0  0  0  0  0
   39.9070   22.0930   34.0360 C   0  0  0  0  0  0  0  0  0  0  0  0
   39.6020   21.3200   32.9420 C   0  0  0  0  0  0  0  0  0  0  0  0
   38.3020   20.9890   32.7290 N   0  0  0  0  0  0  0  0  0  0  0  0
   37.3310   21.4070   33.5720 C   0  0  0  0  0  0  0  0  0  0  0  0
   37.6340   22.1640   34.6420 N   0  0  0  0  0  0  0  0  0  0  0  0
   38.5810   25.4390   34.8990 C   0  0  0  0  0  0  0  0  0  0  0  0
   37.3140   26.2600   35.0460 C   0  0  0  0  0  0  0  0  0  0  0  0
   37.0040   27.0990   33.9500 N   0  0  0  0  0  0  0  0  0  0  0  0
   37.9910   27.2860   32.9490 C   0  0  0  0  0  0  0  0  0  0  0  0
   37.4060   28.0490   31.7790 C   0  0  0  0  0  0  0  0  0  0  0  0
   36.5220   29.1070   32.1330 N   0  0  0  0  0  0  0  0  0  0  0  0
   35.5590   28.7840   33.1550 C   0  0  0  0  0  0  0  0  0  0  0  0
   36.3660   28.3430   34.3590 C   0  0  0  0  0  0  0  0  0  0  0  0
   39.5523   21.6931   37.2505 H   0  0  0  0  0  0  0  0  0  0  0  0
   40.5756   23.2271   37.4356 H   0  0  0  0  0  0  0  0  0  0  0  0
   38.1137   22.3779   38.7383 H   0  0  0  0  0  0  0  0  0  0  0  0
   39.6206   23.3330   39.2825 H   0  0  0  0  0  0  0  0  0  0  0  0
   37.1880   24.3516   39.1455 H   0  0  0  0  0  0  0  0  0  0  0  0
   38.7613   25.2448   38.8851 H   0  0  0  0  0  0  0  0  0  0  0  0
   36.7984   24.2591   36.8120 H   0  0  0  0  0  0  0  0  0  0  0  0
   37.3065   25.9368   37.1563 H   0  0  0  0  0  0  0  0  0  0  0  0
   39.7370   25.1828   36.5855 H   0  0  0  0  0  0  0  0  0  0  0  0
   40.9510   22.3777   34.2333 H   0  0  0  0  0  0  0  0  0  0  0  0
   40.3907   20.9778   32.2558 H   0  0  0  0  0  0  0  0  0  0  0  0
   36.2848   21.1258   33.3813 H   0  0  0  0  0  0  0  0  0  0  0  0
   38.4608   24.7123   34.0820 H   0  0  0  0  0  0  0  0  0  0  0  0
   39.4327   26.0946   34.6650 H   0  0  0  0  0  0  0  0  0  0  0  0
   36.4738   25.5647   35.1894 H   0  0  0  0  0  0  0  0  0  0  0  0
   37.4845   26.9298   35.9017 H   0  0  0  0  0  0  0  0  0  0  0  0
   38.8332   27.8547   33.3700 H   0  0  0  0  0  0  0  0  0  0  0  0
   38.3410   26.3034   32.5998 H   0  0  0  0  0  0  0  0  0  0  0  0
   36.8516   27.3369   31.1501 H   0  0  0  0  0  0  0  0  0  0  0  0
   38.2559   28.5182   31.2618 H   0  0  0  0  0  0  0  0  0  0  0  0
   37.0898   29.8982   32.4684 H   0  0  0  0  0  0  0  0  0  0  0  0
   34.9529   29.6678   33.4031 H   0  0  0  0  0  0  0  0  0  0  0  0
   34.8651   27.9977   32.8230 H   0  0  0  0  0  0  0  0  0  0  0  0
   35.7083   28.1739   35.2244 H   0  0  0  0  0  0  0  0  0  0  0  0
   37.1002   29.1028   34.6651 H   0  0  0  0  0  0  0  0  0  0  0  0
  1  6  1  0
  1  2  1  0
  2  3  1  0
  4  3  1  0
  5  4  1  0
  6  5  1  0
  7  1  1  0
  8  7  2  0
  9  8  1  0
 10  9  2  0
 10 11  1  0
 11 12  2  0
 12  7  1  0
 13 14  1  0
 13  6  1  0
 15 20  1  0
 15 14  1  0
 16 15  1  0
 17 18  1  0
 17 16  1  0
 18 19  1  0
 19 20  1  0
  2 21  1  0
  2 22  1  0
  3 23  1  0
  3 24  1  0
  4 25  1  0
  4 26  1  0
  5 27  1  0
  5 28  1  0
  6 29  1  1
  8 30  1  0
  9 31  1  0
 11 32  1  0
 13 33  1  0
 13 34  1  0
 14 35  1  0
 14 36  1  0
 16 37  1  0
 16 38  1  0
 17 39  1  0
 17 40  1  0
 18 41  1  0
 19 42  1  0
 19 43  1  0
 20 44  1  0
 20 45  1  0
M  ISO  8  21  13  22  13  23  13  24  13  25  13  26  13  27  13  28  13
M  ISO  8  29  13  30  14  31  14  32  14  33   8  34   8  35   8  36   8
M  ISO  8  37  13  38  13  39  13  40  13  41   5  42  13  43  13  44  13
M  ISO  1  45  13
M  END
>  <minimizedAffinity>  (1) 
-4.57019615

>  <minimizedRMSD>  (1) 
1.72042537

$$$$
