
     RDKit          3D

 31 32  0  0  0  0  0  0  0  0999 V2000
   38.1680   23.6920   37.0750 C   0  0  0  0  0  0  0  0  0  0  0  0
   41.5370   22.0330   37.2110 C   0  0  0  0  0  0  0  0  0  0  0  0
   40.2150   22.3080   37.5320 C   0  0  0  0  0  0  0  0  0  0  0  0
   39.5560   23.3170   36.8260 C   0  0  0  0  0  0  0  0  0  0  0  0
   40.2480   23.9790   35.8570 N   0  0  0  0  0  0  0  0  0  0  0  0
   41.5250   23.6920   35.5680 C   0  0  0  0  0  0  0  0  0  0  0  0
   42.1710   22.7190   36.2440 N   0  0  0  0  0  0  0  0  0  0  0  0
   38.1140   24.3340   38.4600 C   0  0  0  0  0  0  0  0  0  0  0  0
   37.5720   24.6130   36.0470 C   0  0  0  0  0  0  0  0  0  0  0  0
   37.3180   22.4360   37.0940 C   0  0  0  0  0  0  0  0  0  0  0  0
   37.0320   21.8850   35.7870 C   0  0  0  0  0  0  0  0  0  0  0  0
   35.9550   21.1210   35.5230 C   0  0  0  0  0  0  0  0  0  0  0  0
   35.6190   20.5980   34.3380 C   0  0  0  0  0  0  0  0  0  0  0  0
   36.6150   20.9770   33.3220 C   0  0  0  0  0  0  0  0  0  0  0  0
   37.8910   22.0340   34.2300 S   0  0  0  0  0  0  0  0  0  0  0  0
   36.7470   20.7090   31.9500 N   0  0  0  0  0  0  0  0  0  0  0  0
   42.0738   21.2423   37.7557 H   0  0  0  0  0  0  0  0  0  0  0  0
   39.6987   21.7449   38.3234 H   0  0  0  0  0  0  0  0  0  0  0  0
   42.0477   24.2510   34.7778 H   0  0  0  0  0  0  0  0  0  0  0  0
   38.1799   23.5511   39.2299 H   0  0  0  0  0  0  0  0  0  0  0  0
   38.9566   25.0319   38.5737 H   0  0  0  0  0  0  0  0  0  0  0  0
   37.1666   24.8813   38.5737 H   0  0  0  0  0  0  0  0  0  0  0  0
   37.0414   25.4330   36.5530 H   0  0  0  0  0  0  0  0  0  0  0  0
   38.3733   25.0279   35.4179 H   0  0  0  0  0  0  0  0  0  0  0  0
   36.8652   24.0520   35.4179 H   0  0  0  0  0  0  0  0  0  0  0  0
   37.8481   21.6713   37.6807 H   0  0  0  0  0  0  0  0  0  0  0  0
   36.3499   22.7201   37.5323 H   0  0  0  0  0  0  0  0  0  0  0  0
   35.2834   20.9049   36.3670 H   0  0  0  0  0  0  0  0  0  0  0  0
   34.7305   19.9771   34.1507 H   0  0  0  0  0  0  0  0  0  0  0  0
   36.0436   20.1311   31.4681 H   0  0  0  0  0  0  0  0  0  0  0  0
   37.5472   21.0903   31.4254 H   0  0  0  0  0  0  0  0  0  0  0  0
  1 10  1  0
  1  8  1  0
  2  3  2  0
  4  1  1  0
  4  3  1  0
  5  4  2  0
  6  5  1  0
  6  7  2  0
  7  2  1  0
  9  1  1  0
 11 10  1  0
 12 11  2  0
 13 12  1  0
 14 15  1  0
 14 13  2  0
 15 11  1  0
 16 14  1  0
  2 17  1  0
  3 18  1  0
  6 19  1  0
  8 20  1  0
  8 21  1  0
  8 22  1  0
  9 23  1  0
  9 24  1  0
  9 25  1  0
 10 26  1  0
 10 27  1  0
 12 28  1  0
 13 29  1  0
 16 30  1  0
 16 31  1  0
M  ISO  8  17  14  18  14  19  14  20   8  21   8  22   8  23   8  24   8
M  ISO  5  25   8  26   8  27   8  28  14  29  14
M  END
>  <minimizedAffinity>  (1) 
-4.06200266

>  <minimizedRMSD>  (1) 
0.122426808

$$$$
