
     RDKit          3D

 52 56  0  0  1  0  0  0  0  0999 V2000
   37.8030   25.0020   36.1950 C   0  0  0  0  0  0  0  0  0  0  0  0
   39.1080   23.1500   35.2260 N   0  0  0  0  0  0  0  0  0  0  0  0
   40.3900   22.4820   35.3090 C   0  0  0  0  0  0  0  0  0  0  0  0
   40.7970   21.9840   36.6400 C   0  0  0  0  0  0  0  0  0  0  0  0
   40.2240   22.6270   37.8430 C   0  0  0  0  0  0  0  0  0  0  0  0
   38.8760   23.2820   37.6090 C   0  0  0  0  0  0  0  0  0  0  0  0
   39.0000   24.0960   36.2740 C   0  0  2  0  0  0  0  0  0  0  0  0
   38.1430   22.8550   34.2150 C   0  0  0  0  0  0  0  0  0  0  0  0
   37.9340   23.5890   33.0690 C   0  0  0  0  0  0  0  0  0  0  0  0
   36.9670   23.1990   32.1650 C   0  0  0  0  0  0  0  0  0  0  0  0
   36.2410   22.0890   32.4410 N   0  0  0  0  0  0  0  0  0  0  0  0
   36.4460   21.3710   33.5640 C   0  0  0  0  0  0  0  0  0  0  0  0
   37.3940   21.7620   34.4380 N   0  0  0  0  0  0  0  0  0  0  0  0
   38.3190   26.4110   35.9550 C   0  0  0  0  0  0  0  0  0  0  0  0
   37.7330   27.0380   34.7480 C   0  0  0  0  0  0  0  0  0  0  0  0
   36.6110   27.8210   34.6530 C   0  0  0  0  0  0  0  0  0  0  0  0
   36.5620   28.1080   33.3150 C   0  0  0  0  0  0  0  0  0  0  0  0
   37.5890   27.5370   32.6220 C   0  0  0  0  0  0  0  0  0  0  0  0
   38.2330   26.9200   33.5670 O   0  0  0  0  0  0  0  0  0  0  0  0
   38.0850   27.4620   31.2620 C   0  0  0  0  0  0  0  0  0  0  0  0
   38.8420   26.3830   30.9080 N   0  0  0  0  0  0  0  0  0  0  0  0
   39.4460   26.2330   29.7320 C   0  0  0  0  0  0  0  0  0  0  0  0
   39.3430   27.1820   28.7700 N   0  0  0  0  0  0  0  0  0  0  0  0
   38.6070   28.3060   29.0130 C   0  0  0  0  0  0  0  0  0  0  0  0
   38.4420   29.2910   28.0700 C   0  0  0  0  0  0  0  0  0  0  0  0
   37.6740   30.4130   28.3000 C   0  0  0  0  0  0  0  0  0  0  0  0
   37.0710   30.4970   29.5400 C   0  0  0  0  0  0  0  0  0  0  0  0
   37.2650   29.4890   30.4530 C   0  0  0  0  0  0  0  0  0  0  0  0
   38.0250   28.3650   30.2530 C   0  0  0  0  0  0  0  0  0  0  0  0
   37.1511   24.6931   35.3646 H   0  0  0  0  0  0  0  0  0  0  0  0
   37.2163   24.9547   37.1243 H   0  0  0  0  0  0  0  0  0  0  0  0
   40.3612   21.6204   34.6258 H   0  0  0  0  0  0  0  0  0  0  0  0
   41.1326   23.2510   35.0499 H   0  0  0  0  0  0  0  0  0  0  0  0
   40.5286   20.9181   36.6832 H   0  0  0  0  0  0  0  0  0  0  0  0
   41.8704   22.2178   36.6968 H   0  0  0  0  0  0  0  0  0  0  0  0
   40.1052   21.8596   38.6221 H   0  0  0  0  0  0  0  0  0  0  0  0
   40.9194   23.4263   38.1387 H   0  0  0  0  0  0  0  0  0  0  0  0
   38.0926   22.5155   37.5150 H   0  0  0  0  0  0  0  0  0  0  0  0
   38.6015   23.9367   38.4492 H   0  0  0  0  0  0  0  0  0  0  0  0
   39.8863   24.7442   36.2092 H   0  0  0  0  0  0  0  0  0  0  0  0
   38.5384   24.4871   32.8738 H   0  0  0  0  0  0  0  0  0  0  0  0
   36.7903   23.7744   31.2443 H   0  0  0  0  0  0  0  0  0  0  0  0
   35.8437   20.4728   33.7650 H   0  0  0  0  0  0  0  0  0  0  0  0
   38.0698   27.0304   36.8292 H   0  0  0  0  0  0  0  0  0  0  0  0
   39.4059   26.3441   35.7994 H   0  0  0  0  0  0  0  0  0  0  0  0
   35.9235   28.1385   35.4508 H   0  0  0  0  0  0  0  0  0  0  0  0
   35.7819   28.7294   32.8509 H   0  0  0  0  0  0  0  0  0  0  0  0
   40.0373   25.3260   29.5378 H   0  0  0  0  0  0  0  0  0  0  0  0
   38.9407   29.1808   27.0958 H   0  0  0  0  0  0  0  0  0  0  0  0
   37.5486   31.1971   27.5388 H   0  0  0  0  0  0  0  0  0  0  0  0
   36.4416   31.3627   29.7939 H   0  0  0  0  0  0  0  0  0  0  0  0
   36.7678   29.5923   31.4288 H   0  0  0  0  0  0  0  0  0  0  0  0
  1  7  1  0
  2  3  1  0
  2  7  1  0
  3  4  1  0
  4  5  1  0
  6  5  1  0
  7  6  1  0
  8 13  1  0
  8  2  1  0
  9  8  2  0
 10 11  2  0
 10  9  1  0
 11 12  1  0
 12 13  2  0
 14  1  1  0
 15 14  1  0
 16 15  2  0
 17 16  1  0
 18 17  2  0
 18 19  1  0
 19 15  1  0
 20 18  1  0
 21 20  2  0
 22 21  1  0
 23 24  1  0
 23 22  2  0
 24 29  2  0
 25 26  2  0
 25 24  1  0
 26 27  1  0
 27 28  2  0
 29 28  1  0
 29 20  1  0
  1 30  1  0
  1 31  1  0
  3 32  1  0
  3 33  1  0
  4 34  1  0
  4 35  1  0
  5 36  1  0
  5 37  1  0
  6 38  1  0
  6 39  1  0
  7 40  1  1
  9 41  1  0
 10 42  1  0
 12 43  1  0
 14 44  1  0
 14 45  1  0
 16 46  1  0
 17 47  1  0
 22 48  1  0
 25 49  1  0
 26 50  1  0
 27 51  1  0
 28 52  1  0
M  ISO  8  30   8  31   8  32  13  33  13  34  13  35  13  36  13  37  13
M  ISO  8  38  13  39  13  40  13  41  14  42  14  43  14  44   8  45   8
M  ISO  7  46  14  47  14  48  14  49  14  50  14  51  14  52  14
M  END
>  <minimizedAffinity>  (1) 
-6.21041584

>  <minimizedRMSD>  (1) 
0.801334202

$$$$
