
     RDKit          3D

 51 55  0  0  1  0  0  0  0  0999 V2000
   37.7030   25.2750   36.0420 C   0  0  0  0  0  0  0  0  0  0  0  0
   38.9690   23.2990   35.3280 N   0  0  0  0  0  0  0  0  0  0  0  0
   40.1840   22.5610   35.5720 C   0  0  0  0  0  0  0  0  0  0  0  0
   40.4520   22.1500   36.9640 C   0  0  0  0  0  0  0  0  0  0  0  0
   39.7980   22.8850   38.0690 C   0  0  0  0  0  0  0  0  0  0  0  0
   38.5160   23.5880   37.6590 C   0  0  0  0  0  0  0  0  0  0  0  0
   38.8020   24.3120   36.3090 C   0  0  2  0  0  0  0  0  0  0  0  0
   38.1000   23.0030   34.2380 C   0  0  0  0  0  0  0  0  0  0  0  0
   37.9240   23.7770   33.1020 C   0  0  0  0  0  0  0  0  0  0  0  0
   37.0470   23.3730   32.1160 C   0  0  0  0  0  0  0  0  0  0  0  0
   36.3770   22.2150   32.2920 N   0  0  0  0  0  0  0  0  0  0  0  0
   36.5460   21.4530   33.4010 C   0  0  0  0  0  0  0  0  0  0  0  0
   37.4050   21.8590   34.3560 N   0  0  0  0  0  0  0  0  0  0  0  0
   38.3030   26.6260   35.7170 C   0  0  0  0  0  0  0  0  0  0  0  0
   37.6880   27.2750   34.5510 C   0  0  0  0  0  0  0  0  0  0  0  0
   36.5020   27.9860   34.5420 C   0  0  0  0  0  0  0  0  0  0  0  0
   36.3830   28.3750   33.2270 C   0  0  0  0  0  0  0  0  0  0  0  0
   37.4610   27.9090   32.4840 C   0  0  0  0  0  0  0  0  0  0  0  0
   38.1880   27.2690   33.3330 O   0  0  0  0  0  0  0  0  0  0  0  0
   37.6680   28.1210   31.0930 N   0  0  0  0  0  0  0  0  0  0  0  0
   36.7790   28.5810   30.2100 C   0  0  0  0  0  0  0  0  0  0  0  0
   37.3600   28.6420   28.9760 N   0  0  0  0  0  0  0  0  0  0  0  0
   38.6270   28.2110   29.1070 C   0  0  0  0  0  0  0  0  0  0  0  0
   39.7070   28.0330   28.2680 C   0  0  0  0  0  0  0  0  0  0  0  0
   40.9070   27.5730   28.6520 N   0  0  0  0  0  0  0  0  0  0  0  0
   41.0730   27.2600   29.9570 C   0  0  0  0  0  0  0  0  0  0  0  0
   40.0310   27.4260   30.7930 N   0  0  0  0  0  0  0  0  0  0  0  0
   38.8290   27.8820   30.4320 C   0  0  0  0  0  0  0  0  0  0  0  0
   39.5770   28.3500   26.8910 N   0  0  0  0  0  0  0  0  0  0  0  0
   37.1025   24.9231   35.1902 H   0  0  0  0  0  0  0  0  0  0  0  0
   37.0566   25.3578   36.9282 H   0  0  0  0  0  0  0  0  0  0  0  0
   40.1468   21.6489   34.9583 H   0  0  0  0  0  0  0  0  0  0  0  0
   40.9965   23.2581   35.3193 H   0  0  0  0  0  0  0  0  0  0  0  0
   40.1474   21.0968   37.0531 H   0  0  0  0  0  0  0  0  0  0  0  0
   41.5218   22.3665   37.1009 H   0  0  0  0  0  0  0  0  0  0  0  0
   39.5609   22.1692   38.8699 H   0  0  0  0  0  0  0  0  0  0  0  0
   40.5013   23.6643   38.3978 H   0  0  0  0  0  0  0  0  0  0  0  0
   37.7077   22.8533   37.5293 H   0  0  0  0  0  0  0  0  0  0  0  0
   38.2000   24.3067   38.4294 H   0  0  0  0  0  0  0  0  0  0  0  0
   39.7212   24.9162   36.3139 H   0  0  0  0  0  0  0  0  0  0  0  0
   38.4849   24.7161   32.9859 H   0  0  0  0  0  0  0  0  0  0  0  0
   36.8980   23.9792   31.2102 H   0  0  0  0  0  0  0  0  0  0  0  0
   35.9873   20.5129   33.5195 H   0  0  0  0  0  0  0  0  0  0  0  0
   38.1742   27.2832   36.5896 H   0  0  0  0  0  0  0  0  0  0  0  0
   39.3626   26.4594   35.4732 H   0  0  0  0  0  0  0  0  0  0  0  0
   35.8203   28.1907   35.3807 H   0  0  0  0  0  0  0  0  0  0  0  0
   35.5519   28.9707   32.8215 H   0  0  0  0  0  0  0  0  0  0  0  0
   35.7418   28.8660   30.4402 H   0  0  0  0  0  0  0  0  0  0  0  0
   42.0364   26.8789   30.3266 H   0  0  0  0  0  0  0  0  0  0  0  0
   38.6825   28.7084   26.5273 H   0  0  0  0  0  0  0  0  0  0  0  0
   40.3771   28.2217   26.2552 H   0  0  0  0  0  0  0  0  0  0  0  0
  1  7  1  0
  2  3  1  0
  2  7  1  0
  3  4  1  0
  4  5  1  0
  6  5  1  0
  7  6  1  0
  8 13  1  0
  8  2  1  0
  9  8  2  0
 10 11  2  0
 10  9  1  0
 11 12  1  0
 12 13  2  0
 14  1  1  0
 15 14  1  0
 16 15  2  0
 17 16  1  0
 18 17  2  0
 18 19  1  0
 19 15  1  0
 20 18  1  0
 21 20  1  0
 22 23  1  0
 22 21  2  0
 23 28  2  0
 24 25  2  0
 24 23  1  0
 25 26  1  0
 26 27  2  0
 28 27  1  0
 28 20  1  0
 29 24  1  0
  1 30  1  0
  1 31  1  0
  3 32  1  0
  3 33  1  0
  4 34  1  0
  4 35  1  0
  5 36  1  0
  5 37  1  0
  6 38  1  0
  6 39  1  0
  7 40  1  1
  9 41  1  0
 10 42  1  0
 12 43  1  0
 14 44  1  0
 14 45  1  0
 16 46  1  0
 17 47  1  0
 21 48  1  0
 26 49  1  0
 29 50  1  0
 29 51  1  0
M  ISO  8  30   8  31   8  32  13  33  13  34  13  35  13  36  13  37  13
M  ISO  8  38  13  39  13  40  13  41  14  42  14  43  14  44   8  45   8
M  ISO  4  46  14  47  14  48  14  49  14
M  END
>  <minimizedAffinity>  (1) 
-6.15047741

>  <minimizedRMSD>  (1) 
1.50522947

$$$$
