
     RDKit          3D

 51 54  0  0  1  0  0  0  0  0999 V2000
   38.8750   23.4620   35.7450 N   0  0  0  0  0  0  0  0  0  0  0  0
   40.0500   22.7960   36.2550 C   0  0  0  0  0  0  0  0  0  0  0  0
   40.0770   22.5190   37.7100 C   0  0  0  0  0  0  0  0  0  0  0  0
   39.2380   23.3470   38.6130 C   0  0  0  0  0  0  0  0  0  0  0  0
   38.0370   23.9580   37.9320 C   0  0  0  0  0  0  0  0  0  0  0  0
   38.5340   24.5520   36.5700 C   0  0  2  0  0  0  0  0  0  0  0  0
   38.2020   23.0280   34.5650 C   0  0  0  0  0  0  0  0  0  0  0  0
   38.2640   23.6340   33.3220 C   0  0  0  0  0  0  0  0  0  0  0  0
   37.5650   23.1150   32.2580 C   0  0  0  0  0  0  0  0  0  0  0  0
   36.8230   22.0080   32.4620 N   0  0  0  0  0  0  0  0  0  0  0  0
   36.7550   21.4070   33.6750 C   0  0  0  0  0  0  0  0  0  0  0  0
   37.4460   21.9270   34.7100 N   0  0  0  0  0  0  0  0  0  0  0  0
   37.4610   25.4550   36.0480 C   0  0  0  0  0  0  0  0  0  0  0  0
   38.0820   26.8080   35.7340 C   0  0  0  0  0  0  0  0  0  0  0  0
   37.7580   27.2920   34.3890 C   0  0  0  0  0  0  0  0  0  0  0  0
   36.6150   27.9880   34.0140 C   0  0  0  0  0  0  0  0  0  0  0  0
   36.7930   28.2050   32.6720 C   0  0  0  0  0  0  0  0  0  0  0  0
   37.9880   27.6630   32.2680 C   0  0  0  0  0  0  0  0  0  0  0  0
   38.5160   27.1350   33.3380 O   0  0  0  0  0  0  0  0  0  0  0  0
   38.4510   27.7300   30.9220 N   0  0  0  0  0  0  0  0  0  0  0  0
   39.7330   27.4510   30.6050 C   0  0  0  0  0  0  0  0  0  0  0  0
   40.1230   27.5340   29.2760 C   0  0  0  0  0  0  0  0  0  0  0  0
   41.5360   27.2370   28.8530 C   0  0  0  0  0  0  0  0  0  0  0  0
   39.2230   27.8940   28.2830 C   0  0  0  0  0  0  0  0  0  0  0  0
   39.5370   27.9820   27.0570 O   0  0  0  0  0  0  0  0  0  0  0  0
   37.9490   28.1650   28.6460 N   0  0  0  0  0  0  0  0  0  0  0  0
   37.5590   28.0860   29.9500 C   0  0  0  0  0  0  0  0  0  0  0  0
   36.3740   28.3360   30.3010 O   0  0  0  0  0  0  0  0  0  0  0  0
   40.1421   21.8336   35.7304 H   0  0  0  0  0  0  0  0  0  0  0  0
   40.8798   23.4961   36.0778 H   0  0  0  0  0  0  0  0  0  0  0  0
   39.7629   21.4736   37.8456 H   0  0  0  0  0  0  0  0  0  0  0  0
   41.1075   22.7631   38.0074 H   0  0  0  0  0  0  0  0  0  0  0  0
   38.8839   22.7116   39.4382 H   0  0  0  0  0  0  0  0  0  0  0  0
   39.8666   24.1784   38.9647 H   0  0  0  0  0  0  0  0  0  0  0  0
   37.2728   23.1876   37.7515 H   0  0  0  0  0  0  0  0  0  0  0  0
   37.5863   24.7407   38.5599 H   0  0  0  0  0  0  0  0  0  0  0  0
   39.4359   25.1774   36.6441 H   0  0  0  0  0  0  0  0  0  0  0  0
   38.8768   24.5371   33.1846 H   0  0  0  0  0  0  0  0  0  0  0  0
   37.6099   23.5901   31.2669 H   0  0  0  0  0  0  0  0  0  0  0  0
   36.1423   20.5041   33.8139 H   0  0  0  0  0  0  0  0  0  0  0  0
   37.0258   25.0249   35.1339 H   0  0  0  0  0  0  0  0  0  0  0  0
   36.6654   25.5697   36.7989 H   0  0  0  0  0  0  0  0  0  0  0  0
   37.7142   27.5406   36.4675 H   0  0  0  0  0  0  0  0  0  0  0  0
   39.1741   26.6868   35.7843 H   0  0  0  0  0  0  0  0  0  0  0  0
   35.7673   28.2929   34.6452 H   0  0  0  0  0  0  0  0  0  0  0  0
   36.0848   28.7339   32.0173 H   0  0  0  0  0  0  0  0  0  0  0  0
   40.4540   27.1636   31.3845 H   0  0  0  0  0  0  0  0  0  0  0  0
   42.1657   27.1046   29.7452 H   0  0  0  0  0  0  0  0  0  0  0  0
   41.5529   26.3157   28.2523 H   0  0  0  0  0  0  0  0  0  0  0  0
   41.9224   28.0735   28.2523 H   0  0  0  0  0  0  0  0  0  0  0  0
   37.2630   28.4351   27.9267 H   0  0  0  0  0  0  0  0  0  0  0  0
  1  2  1  0
  1  6  1  0
  2  3  1  0
  3  4  1  0
  5  4  1  0
  6  5  1  0
  7 12  1  0
  7  1  1  0
  8  7  2  0
  9 10  2  0
  9  8  1  0
 10 11  1  0
 11 12  2  0
 13  6  1  0
 14 13  1  0
 15 14  1  0
 16 15  2  0
 17 16  1  0
 18 17  2  0
 18 19  1  0
 19 15  1  0
 20 18  1  0
 21 20  1  0
 22 21  2  0
 23 22  1  0
 24 26  1  0
 24 22  1  0
 25 24  2  0
 26 27  1  0
 27 28  2  0
 27 20  1  0
  2 29  1  0
  2 30  1  0
  3 31  1  0
  3 32  1  0
  4 33  1  0
  4 34  1  0
  5 35  1  0
  5 36  1  0
  6 37  1  1
  8 38  1  0
  9 39  1  0
 11 40  1  0
 13 41  1  0
 13 42  1  0
 14 43  1  0
 14 44  1  0
 16 45  1  0
 17 46  1  0
 21 47  1  0
 23 48  1  0
 23 49  1  0
 23 50  1  0
 26 51  1  0
M  ISO  8  29  13  30  13  31  13  32  13  33  13  34  13  35  13  36  13
M  ISO  8  37  13  38  14  39  14  40  14  41   8  42   8  43   8  44   8
M  ISO  7  45  14  46  14  47  14  48   8  49   8  50   8  51   9
M  END
>  <minimizedAffinity>  (1) 
-6.04083776

>  <minimizedRMSD>  (1) 
0.866221905

$$$$
