
     RDKit          3D

 48 51  0  0  1  0  0  0  0  0999 V2000
   38.8550   23.4770   35.7310 N   0  0  0  0  0  0  0  0  0  0  0  0
   40.0410   22.7920   36.2300 C   0  0  0  0  0  0  0  0  0  0  0  0
   40.0810   22.5110   37.6740 C   0  0  0  0  0  0  0  0  0  0  0  0
   39.2570   23.3220   38.5980 C   0  0  0  0  0  0  0  0  0  0  0  0
   38.0530   23.9610   37.9290 C   0  0  0  0  0  0  0  0  0  0  0  0
   38.5380   24.5570   36.5770 C   0  0  2  0  0  0  0  0  0  0  0  0
   38.1720   23.0580   34.5560 C   0  0  0  0  0  0  0  0  0  0  0  0
   38.1960   23.7030   33.3370 C   0  0  0  0  0  0  0  0  0  0  0  0
   37.4810   23.1830   32.2740 C   0  0  0  0  0  0  0  0  0  0  0  0
   36.7750   22.0470   32.4650 N   0  0  0  0  0  0  0  0  0  0  0  0
   36.7530   21.4160   33.6560 C   0  0  0  0  0  0  0  0  0  0  0  0
   37.4500   21.9270   34.6890 N   0  0  0  0  0  0  0  0  0  0  0  0
   37.4730   25.4720   36.0580 C   0  0  0  0  0  0  0  0  0  0  0  0
   38.1040   26.8130   35.7250 C   0  0  0  0  0  0  0  0  0  0  0  0
   37.6260   27.3640   34.4550 C   0  0  0  0  0  0  0  0  0  0  0  0
   36.4810   28.0950   34.2140 C   0  0  0  0  0  0  0  0  0  0  0  0
   36.5220   28.3520   32.8680 C   0  0  0  0  0  0  0  0  0  0  0  0
   37.6480   27.7980   32.3150 C   0  0  0  0  0  0  0  0  0  0  0  0
   38.2540   27.2280   33.3160 O   0  0  0  0  0  0  0  0  0  0  0  0
   38.1480   27.7790   30.9820 N   0  0  0  0  0  0  0  0  0  0  0  0
   39.3340   27.2050   30.7080 C   0  0  0  0  0  0  0  0  0  0  0  0
   39.7770   27.2150   29.3820 C   0  0  0  0  0  0  0  0  0  0  0  0
   39.0040   27.8020   28.4020 C   0  0  0  0  0  0  0  0  0  0  0  0
   39.4650   27.7740   27.2330 O   0  0  0  0  0  0  0  0  0  0  0  0
   37.8320   28.3550   28.7520 N   0  0  0  0  0  0  0  0  0  0  0  0
   37.3880   28.3550   30.0320 C   0  0  0  0  0  0  0  0  0  0  0  0
   36.2780   28.9070   30.2040 O   0  0  0  0  0  0  0  0  0  0  0  0
   40.1187   21.8309   35.7007 H   0  0  0  0  0  0  0  0  0  0  0  0
   40.8751   23.4851   36.0462 H   0  0  0  0  0  0  0  0  0  0  0  0
   39.7712   21.4637   37.8047 H   0  0  0  0  0  0  0  0  0  0  0  0
   41.1129   22.7652   37.9578 H   0  0  0  0  0  0  0  0  0  0  0  0
   38.9002   22.6710   39.4098 H   0  0  0  0  0  0  0  0  0  0  0  0
   39.8937   24.1386   38.9694 H   0  0  0  0  0  0  0  0  0  0  0  0
   37.2759   23.2034   37.7494 H   0  0  0  0  0  0  0  0  0  0  0  0
   37.6226   24.7456   38.5687 H   0  0  0  0  0  0  0  0  0  0  0  0
   39.4466   25.1706   36.6660 H   0  0  0  0  0  0  0  0  0  0  0  0
   38.7808   24.6261   33.2113 H   0  0  0  0  0  0  0  0  0  0  0  0
   37.4868   23.6832   31.2943 H   0  0  0  0  0  0  0  0  0  0  0  0
   36.1707   20.4915   33.7831 H   0  0  0  0  0  0  0  0  0  0  0  0
   37.0224   25.0397   35.1524 H   0  0  0  0  0  0  0  0  0  0  0  0
   36.6892   25.6047   36.8183 H   0  0  0  0  0  0  0  0  0  0  0  0
   37.8641   27.5240   36.5293 H   0  0  0  0  0  0  0  0  0  0  0  0
   39.1885   26.6551   35.6309 H   0  0  0  0  0  0  0  0  0  0  0  0
   35.7108   28.4017   34.9370 H   0  0  0  0  0  0  0  0  0  0  0  0
   35.7618   28.9203   32.3121 H   0  0  0  0  0  0  0  0  0  0  0  0
   39.9366   26.7420   31.5033 H   0  0  0  0  0  0  0  0  0  0  0  0
   40.7414   26.7550   29.1204 H   0  0  0  0  0  0  0  0  0  0  0  0
   37.2511   28.7938   28.0234 H   0  0  0  0  0  0  0  0  0  0  0  0
  1  2  1  0
  1  6  1  0
  2  3  1  0
  3  4  1  0
  5  4  1  0
  6  5  1  0
  7 12  1  0
  7  1  1  0
  8  7  2  0
  9 10  2  0
  9  8  1  0
 10 11  1  0
 11 12  2  0
 13  6  1  0
 14 13  1  0
 15 14  1  0
 16 15  2  0
 17 16  1  0
 18 17  2  0
 18 19  1  0
 19 15  1  0
 20 18  1  0
 21 20  1  0
 22 21  2  0
 23 25  1  0
 23 22  1  0
 24 23  2  0
 25 26  1  0
 26 27  2  0
 26 20  1  0
  2 28  1  0
  2 29  1  0
  3 30  1  0
  3 31  1  0
  4 32  1  0
  4 33  1  0
  5 34  1  0
  5 35  1  0
  6 36  1  1
  8 37  1  0
  9 38  1  0
 11 39  1  0
 13 40  1  0
 13 41  1  0
 14 42  1  0
 14 43  1  0
 16 44  1  0
 17 45  1  0
 21 46  1  0
 22 47  1  0
 25 48  1  0
M  ISO  8  28  13  29  13  30  13  31  13  32  13  33  13  34  13  35  13
M  ISO  8  36  13  37  14  38  14  39  14  40   8  41   8  42   8  43   8
M  ISO  5  44  14  45  14  46  14  47  14  48   9
M  END
>  <minimizedAffinity>  (1) 
-6.00775337

>  <minimizedRMSD>  (1) 
0.377349019

$$$$
