
     RDKit          3D

 45 47  0  0  1  0  0  0  0  0999 V2000
   39.0170   23.2810   35.3130 N   0  0  0  0  0  0  0  0  0  0  0  0
   40.2640   22.5800   35.4870 C   0  0  0  0  0  0  0  0  0  0  0  0
   40.5970   22.1360   36.8570 C   0  0  0  0  0  0  0  0  0  0  0  0
   39.9590   22.8280   38.0090 C   0  0  0  0  0  0  0  0  0  0  0  0
   38.6410   23.4880   37.6660 C   0  0  0  0  0  0  0  0  0  0  0  0
   38.8610   24.2590   36.3180 C   0  0  2  0  0  0  0  0  0  0  0  0
   38.1120   22.9780   34.2490 C   0  0  0  0  0  0  0  0  0  0  0  0
   37.9080   23.7390   33.1140 C   0  0  0  0  0  0  0  0  0  0  0  0
   37.0020   23.3340   32.1610 C   0  0  0  0  0  0  0  0  0  0  0  0
   36.3280   22.1790   32.3710 N   0  0  0  0  0  0  0  0  0  0  0  0
   36.5240   21.4300   33.4800 C   0  0  0  0  0  0  0  0  0  0  0  0
   37.4150   21.8430   34.4030 N   0  0  0  0  0  0  0  0  0  0  0  0
   37.6990   25.1930   36.1350 C   0  0  0  0  0  0  0  0  0  0  0  0
   38.2440   26.5860   35.8930 C   0  0  0  0  0  0  0  0  0  0  0  0
   37.7090   27.2060   34.6800 C   0  0  0  0  0  0  0  0  0  0  0  0
   36.5900   28.0070   34.5750 C   0  0  0  0  0  0  0  0  0  0  0  0
   36.5210   28.3270   33.2370 C   0  0  0  0  0  0  0  0  0  0  0  0
   37.5640   27.7350   32.5740 C   0  0  0  0  0  0  0  0  0  0  0  0
   38.2130   27.0980   33.4840 O   0  0  0  0  0  0  0  0  0  0  0  0
   37.8630   27.8080   31.1850 N   0  0  0  0  0  0  0  0  0  0  0  0
   36.8750   27.5860   30.1890 C   0  0  0  0  0  0  0  0  0  0  0  0
   35.9810   26.6690   30.4560 N   0  0  0  0  0  0  0  0  0  0  0  0
   36.9200   28.3590   28.9870 N   0  0  0  0  0  0  0  0  0  0  0  0
   35.2660   26.5280   29.7040 H   0  0  0  0  0  0  0  0  0  0  0  0
   40.2350   21.6865   34.8461 H   0  0  0  0  0  0  0  0  0  0  0  0
   41.0427   23.3117   35.2259 H   0  0  0  0  0  0  0  0  0  0  0  0
   40.3248   21.0725   36.9274 H   0  0  0  0  0  0  0  0  0  0  0  0
   41.6657   22.3745   36.9618 H   0  0  0  0  0  0  0  0  0  0  0  0
   39.7810   22.0884   38.8036 H   0  0  0  0  0  0  0  0  0  0  0  0
   40.6462   23.6262   38.3262 H   0  0  0  0  0  0  0  0  0  0  0  0
   37.8563   22.7269   37.5438 H   0  0  0  0  0  0  0  0  0  0  0  0
   38.3209   24.1721   38.4657 H   0  0  0  0  0  0  0  0  0  0  0  0
   39.7616   24.8900   36.2896 H   0  0  0  0  0  0  0  0  0  0  0  0
   38.4722   24.6725   32.9717 H   0  0  0  0  0  0  0  0  0  0  0  0
   36.8302   23.9320   31.2539 H   0  0  0  0  0  0  0  0  0  0  0  0
   35.9631   20.4952   33.6268 H   0  0  0  0  0  0  0  0  0  0  0  0
   37.0970   24.8736   35.2715 H   0  0  0  0  0  0  0  0  0  0  0  0
   37.0609   25.1853   37.0310 H   0  0  0  0  0  0  0  0  0  0  0  0
   37.9838   27.2188   36.7543 H   0  0  0  0  0  0  0  0  0  0  0  0
   39.3327   26.4959   35.7641 H   0  0  0  0  0  0  0  0  0  0  0  0
   35.9071   28.3195   35.3787 H   0  0  0  0  0  0  0  0  0  0  0  0
   35.7493   28.9590   32.7732 H   0  0  0  0  0  0  0  0  0  0  0  0
   38.8257   28.0287   30.8926 H   0  0  0  0  0  0  0  0  0  0  0  0
   37.6598   29.0634   28.8551 H   0  0  0  0  0  0  0  0  0  0  0  0
   36.2126   28.2115   28.2530 H   0  0  0  0  0  0  0  0  0  0  0  0
  1  2  1  0
  1  6  1  0
  2  3  1  0
  3  4  1  0
  5  4  1  0
  6  5  1  0
  7 12  1  0
  7  1  1  0
  8  7  2  0
  9 10  2  0
  9  8  1  0
 10 11  1  0
 11 12  2  0
 13  6  1  0
 14 13  1  0
 15 14  1  0
 16 15  2  0
 17 16  1  0
 18 17  2  0
 18 19  1  0
 19 15  1  0
 20 18  1  0
 21 22  2  0
 21 20  1  0
 23 21  1  0
 24 22  1  0
  2 25  1  0
  2 26  1  0
  3 27  1  0
  3 28  1  0
  4 29  1  0
  4 30  1  0
  5 31  1  0
  5 32  1  0
  6 33  1  1
  8 34  1  0
  9 35  1  0
 11 36  1  0
 13 37  1  0
 13 38  1  0
 14 39  1  0
 14 40  1  0
 16 41  1  0
 17 42  1  0
 20 43  1  0
 23 44  1  0
 23 45  1  0
M  ISO  8  25  13  26  13  27  13  28  13  29  13  30  13  31  13  32  13
M  ISO  8  33  13  34  14  35  14  36  14  37   8  38   8  39   8  40   8
M  ISO  2  41  14  42  14
M  END
>  <minimizedAffinity>  (1) 
-5.77657557

>  <minimizedRMSD>  (1) 
0.735905349

$$$$
