
     RDKit          3D

 51 54  0  0  1  0  0  0  0  0999 V2000
   38.8670   23.4840   35.7380 N   0  0  0  0  0  0  0  0  0  0  0  0
   40.0530   22.8260   36.2380 C   0  0  0  0  0  0  0  0  0  0  0  0
   40.0770   22.5410   37.6880 C   0  0  0  0  0  0  0  0  0  0  0  0
   39.2460   23.3520   38.6050 C   0  0  0  0  0  0  0  0  0  0  0  0
   38.0340   23.9580   37.9300 C   0  0  0  0  0  0  0  0  0  0  0  0
   38.5120   24.5760   36.5750 C   0  0  2  0  0  0  0  0  0  0  0  0
   38.1870   23.0510   34.5590 C   0  0  0  0  0  0  0  0  0  0  0  0
   38.2200   23.6650   33.3240 C   0  0  0  0  0  0  0  0  0  0  0  0
   37.5200   23.1500   32.2600 C   0  0  0  0  0  0  0  0  0  0  0  0
   36.7990   22.0230   32.4670 N   0  0  0  0  0  0  0  0  0  0  0  0
   36.7590   21.4110   33.6750 C   0  0  0  0  0  0  0  0  0  0  0  0
   37.4520   21.9330   34.7040 N   0  0  0  0  0  0  0  0  0  0  0  0
   37.4390   25.4650   36.0560 C   0  0  0  0  0  0  0  0  0  0  0  0
   38.0640   26.7970   35.6750 C   0  0  0  0  0  0  0  0  0  0  0  0
   37.4760   27.3890   34.4700 C   0  0  0  0  0  0  0  0  0  0  0  0
   36.4260   28.2790   34.4030 C   0  0  0  0  0  0  0  0  0  0  0  0
   36.2750   28.5150   33.0630 C   0  0  0  0  0  0  0  0  0  0  0  0
   37.2150   27.7820   32.3480 C   0  0  0  0  0  0  0  0  0  0  0  0
   37.8770   27.1500   33.2540 O   0  0  0  0  0  0  0  0  0  0  0  0
   37.4430   27.7120   30.8600 C   0  0  0  0  0  0  0  0  0  0  0  0
   38.9030   27.9190   30.5470 C   0  0  0  0  0  0  0  0  0  0  0  0
   38.9510   28.5520   29.1720 C   0  0  0  0  0  0  0  0  0  0  0  0
   37.6190   29.1840   28.9360 C   0  0  0  0  0  0  0  0  0  0  0  0
   36.7920   28.8420   30.1320 C   0  0  0  0  0  0  0  0  0  0  0  0
   40.1558   21.8688   35.7058 H   0  0  0  0  0  0  0  0  0  0  0  0
   40.8783   23.5317   36.0623 H   0  0  0  0  0  0  0  0  0  0  0  0
   39.7629   21.4943   37.8133 H   0  0  0  0  0  0  0  0  0  0  0  0
   41.1065   22.7921   37.9830 H   0  0  0  0  0  0  0  0  0  0  0  0
   38.9027   22.7080   39.4281 H   0  0  0  0  0  0  0  0  0  0  0  0
   39.8705   24.1830   38.9647 H   0  0  0  0  0  0  0  0  0  0  0  0
   37.2797   23.1796   37.7427 H   0  0  0  0  0  0  0  0  0  0  0  0
   37.5791   24.7292   38.5691 H   0  0  0  0  0  0  0  0  0  0  0  0
   39.3989   25.2215   36.6569 H   0  0  0  0  0  0  0  0  0  0  0  0
   38.8154   24.5801   33.1893 H   0  0  0  0  0  0  0  0  0  0  0  0
   37.5445   23.6366   31.2738 H   0  0  0  0  0  0  0  0  0  0  0  0
   36.1653   20.4954   33.8137 H   0  0  0  0  0  0  0  0  0  0  0  0
   36.9721   25.0069   35.1716 H   0  0  0  0  0  0  0  0  0  0  0  0
   36.6670   25.6153   36.8250 H   0  0  0  0  0  0  0  0  0  0  0  0
   37.9276   27.4987   36.5111 H   0  0  0  0  0  0  0  0  0  0  0  0
   39.1265   26.6093   35.4610 H   0  0  0  0  0  0  0  0  0  0  0  0
   35.8435   28.7022   35.2346 H   0  0  0  0  0  0  0  0  0  0  0  0
   35.5231   29.1839   32.6190 H   0  0  0  0  0  0  0  0  0  0  0  0
   37.0458   26.7325   30.5555 H   0  0  0  0  0  0  0  0  0  0  0  0
   39.3622   28.5865   31.2910 H   0  0  0  0  0  0  0  0  0  0  0  0
   39.4584   26.9699   30.5726 H   0  0  0  0  0  0  0  0  0  0  0  0
   39.7429   29.3145   29.1345 H   0  0  0  0  0  0  0  0  0  0  0  0
   39.1707   27.7992   28.4006 H   0  0  0  0  0  0  0  0  0  0  0  0
   37.7235   30.2749   28.8411 H   0  0  0  0  0  0  0  0  0  0  0  0
   37.1569   28.8220   28.0057 H   0  0  0  0  0  0  0  0  0  0  0  0
   36.7211   29.7169   30.7949 H   0  0  0  0  0  0  0  0  0  0  0  0
   35.7801   28.5491   29.8154 H   0  0  0  0  0  0  0  0  0  0  0  0
  1  2  1  0
  1  6  1  0
  2  3  1  0
  3  4  1  0
  5  4  1  0
  6  5  1  0
  7 12  1  0
  7  1  1  0
  8  7  2  0
  9 10  2  0
  9  8  1  0
 10 11  1  0
 11 12  2  0
 13  6  1  0
 14 13  1  0
 15 14  1  0
 16 15  2  0
 17 16  1  0
 18 17  2  0
 18 19  1  0
 19 15  1  0
 20 18  1  0
 21 20  1  0
 22 21  1  0
 23 22  1  0
 23 24  1  0
 24 20  1  0
  2 25  1  0
  2 26  1  0
  3 27  1  0
  3 28  1  0
  4 29  1  0
  4 30  1  0
  5 31  1  0
  5 32  1  0
  6 33  1  1
  8 34  1  0
  9 35  1  0
 11 36  1  0
 13 37  1  0
 13 38  1  0
 14 39  1  0
 14 40  1  0
 16 41  1  0
 17 42  1  0
 20 43  1  0
 21 44  1  0
 21 45  1  0
 22 46  1  0
 22 47  1  0
 23 48  1  0
 23 49  1  0
 24 50  1  0
 24 51  1  0
M  ISO  8  25  13  26  13  27  13  28  13  29  13  30  13  31  13  32  13
M  ISO  8  33  13  34  14  35  14  36  14  37   8  38   8  39   8  40   8
M  ISO  8  41  14  42  14  43  13  44  13  45  13  46  13  47  13  48  13
M  ISO  3  49  13  50  13  51  13
M  END
>  <minimizedAffinity>  (1) 
-5.61761904

>  <minimizedRMSD>  (1) 
0.158027321

$$$$
