
     RDKit          3D

 53 56  0  0  1  0  0  0  0  0999 V2000
   38.9240   23.3430   35.5910 N   0  0  0  0  0  0  0  0  0  0  0  0
   40.1370   22.6350   35.9330 C   0  0  0  0  0  0  0  0  0  0  0  0
   40.3350   22.2970   37.3610 C   0  0  0  0  0  0  0  0  0  0  0  0
   39.6040   23.0790   38.3940 C   0  0  0  0  0  0  0  0  0  0  0  0
   38.3420   23.7330   37.8790 C   0  0  0  0  0  0  0  0  0  0  0  0
   38.6990   24.3950   36.5070 C   0  0  2  0  0  0  0  0  0  0  0  0
   38.1190   22.9740   34.4780 C   0  0  0  0  0  0  0  0  0  0  0  0
   38.0320   23.6610   33.2740 C   0  0  0  0  0  0  0  0  0  0  0  0
   37.2110   23.1970   32.2680 C   0  0  0  0  0  0  0  0  0  0  0  0
   36.5060   22.0720   32.4860 N   0  0  0  0  0  0  0  0  0  0  0  0
   36.5850   21.3900   33.6630 C   0  0  0  0  0  0  0  0  0  0  0  0
   37.3940   21.8570   34.6390 N   0  0  0  0  0  0  0  0  0  0  0  0
   37.5850   25.3300   36.1460 C   0  0  0  0  0  0  0  0  0  0  0  0
   38.1970   26.6850   35.8150 C   0  0  0  0  0  0  0  0  0  0  0  0
   37.6500   27.2630   34.5850 C   0  0  0  0  0  0  0  0  0  0  0  0
   36.5360   28.0860   34.4570 C   0  0  0  0  0  0  0  0  0  0  0  0
   36.4530   28.3460   33.1100 C   0  0  0  0  0  0  0  0  0  0  0  0
   37.4780   27.7010   32.4710 C   0  0  0  0  0  0  0  0  0  0  0  0
   38.1500   27.0810   33.3750 O   0  0  0  0  0  0  0  0  0  0  0  0
   37.6980   27.7500   31.0660 N   0  0  0  0  0  0  0  0  0  0  0  0
   36.7080   28.3290   30.1800 C   0  0  0  0  0  0  0  0  0  0  0  0
   37.3350   29.4980   29.4530 C   0  0  0  0  0  0  0  0  0  0  0  0
   38.7030   29.2270   28.9230 C   0  0  0  0  0  0  0  0  0  0  0  0
   39.5900   28.4210   29.8120 C   0  0  0  0  0  0  0  0  0  0  0  0
   38.9050   27.2320   30.4500 C   0  0  0  0  0  0  0  0  0  0  0  0
   40.1438   21.6933   35.3645 H   0  0  0  0  0  0  0  0  0  0  0  0
   40.9537   23.3294   35.6866 H   0  0  0  0  0  0  0  0  0  0  0  0
   40.0428   21.2440   37.4868 H   0  0  0  0  0  0  0  0  0  0  0  0
   41.3922   22.5383   37.5457 H   0  0  0  0  0  0  0  0  0  0  0  0
   39.3332   22.4006   39.2164 H   0  0  0  0  0  0  0  0  0  0  0  0
   40.2750   23.8869   38.7211 H   0  0  0  0  0  0  0  0  0  0  0  0
   37.5542   22.9779   37.7408 H   0  0  0  0  0  0  0  0  0  0  0  0
   37.9685   24.4827   38.5920 H   0  0  0  0  0  0  0  0  0  0  0  0
   39.6131   25.0068   36.5209 H   0  0  0  0  0  0  0  0  0  0  0  0
   38.6200   24.5782   33.1225 H   0  0  0  0  0  0  0  0  0  0  0  0
   37.1343   23.7335   31.3107 H   0  0  0  0  0  0  0  0  0  0  0  0
   35.9984   20.4722   33.8163 H   0  0  0  0  0  0  0  0  0  0  0  0
   37.0408   24.9426   35.2721 H   0  0  0  0  0  0  0  0  0  0  0  0
   36.8782   25.4241   36.9836 H   0  0  0  0  0  0  0  0  0  0  0  0
   37.9974   27.3751   36.6480 H   0  0  0  0  0  0  0  0  0  0  0  0
   39.2761   26.5358   35.6627 H   0  0  0  0  0  0  0  0  0  0  0  0
   35.8707   28.4476   35.2549 H   0  0  0  0  0  0  0  0  0  0  0  0
   35.6882   28.9702   32.6246 H   0  0  0  0  0  0  0  0  0  0  0  0
   36.3763   27.5745   29.4515 H   0  0  0  0  0  0  0  0  0  0  0  0
   35.8384   28.6705   30.7606 H   0  0  0  0  0  0  0  0  0  0  0  0
   36.6848   29.7672   28.6076 H   0  0  0  0  0  0  0  0  0  0  0  0
   37.4364   30.3096   30.1885 H   0  0  0  0  0  0  0  0  0  0  0  0
   38.5963   28.6864   27.9710 H   0  0  0  0  0  0  0  0  0  0  0  0
   39.1879   30.2094   28.8241 H   0  0  0  0  0  0  0  0  0  0  0  0
   40.4367   28.0527   29.2141 H   0  0  0  0  0  0  0  0  0  0  0  0
   39.9066   29.0834   30.6311 H   0  0  0  0  0  0  0  0  0  0  0  0
   38.6528   26.4811   29.6867 H   0  0  0  0  0  0  0  0  0  0  0  0
   39.5554   26.7402   31.1883 H   0  0  0  0  0  0  0  0  0  0  0  0
  1  2  1  0
  1  6  1  0
  2  3  1  0
  3  4  1  0
  5  4  1  0
  6  5  1  0
  7 12  1  0
  7  1  1  0
  8  7  2  0
  9 10  2  0
  9  8  1  0
 10 11  1  0
 11 12  2  0
 13  6  1  0
 14 13  1  0
 15 14  1  0
 16 15  2  0
 17 16  1  0
 18 17  2  0
 18 19  1  0
 19 15  1  0
 20 18  1  0
 21 20  1  0
 22 21  1  0
 23 22  1  0
 23 24  1  0
 24 25  1  0
 25 20  1  0
  2 26  1  0
  2 27  1  0
  3 28  1  0
  3 29  1  0
  4 30  1  0
  4 31  1  0
  5 32  1  0
  5 33  1  0
  6 34  1  1
  8 35  1  0
  9 36  1  0
 11 37  1  0
 13 38  1  0
 13 39  1  0
 14 40  1  0
 14 41  1  0
 16 42  1  0
 17 43  1  0
 21 44  1  0
 21 45  1  0
 22 46  1  0
 22 47  1  0
 23 48  1  0
 23 49  1  0
 24 50  1  0
 24 51  1  0
 25 52  1  0
 25 53  1  0
M  ISO  8  26  13  27  13  28  13  29  13  30  13  31  13  32  13  33  13
M  ISO  8  34  13  35  14  36  14  37  14  38   8  39   8  40   8  41   8
M  ISO  8  42  14  43  14  44  13  45  13  46  13  47  13  48  13  49  13
M  ISO  4  50  13  51  13  52  13  53  13
M  END
>  <minimizedAffinity>  (1) 
-5.61737061

>  <minimizedRMSD>  (1) 
0.283275753

$$$$
