
     RDKit          3D

 50 52  0  0  1  0  0  0  0  0999 V2000
   38.9040   22.5980   35.4890 N   0  0  0  0  0  0  0  0  0  0  0  0
   40.2370   22.0350   35.3440 C   0  0  0  0  0  0  0  0  0  0  0  0
   41.0010   21.8010   36.5850 C   0  0  0  0  0  0  0  0  0  0  0  0
   40.6440   22.5700   37.8000 C   0  0  0  0  0  0  0  0  0  0  0  0
   39.2150   23.0700   37.8140 C   0  0  0  0  0  0  0  0  0  0  0  0
   38.9330   23.6730   36.4010 C   0  0  2  0  0  0  0  0  0  0  0  0
   37.7840   22.0880   34.7810 C   0  0  0  0  0  0  0  0  0  0  0  0
   37.5220   22.2550   33.4330 C   0  0  0  0  0  0  0  0  0  0  0  0
   36.4010   21.7090   32.8670 C   0  0  0  0  0  0  0  0  0  0  0  0
   35.5580   21.0070   33.6490 N   0  0  0  0  0  0  0  0  0  0  0  0
   35.8050   20.8350   34.9800 C   0  0  0  0  0  0  0  0  0  0  0  0
   36.9150   21.3780   35.5250 N   0  0  0  0  0  0  0  0  0  0  0  0
   37.6760   24.4780   36.4690 C   0  0  0  0  0  0  0  0  0  0  0  0
   38.0190   25.9350   36.2440 C   0  0  0  0  0  0  0  0  0  0  0  0
   37.5020   26.4520   34.9620 C   0  0  0  0  0  0  0  0  0  0  0  0
   37.0420   27.7440   34.7260 C   0  0  0  0  0  0  0  0  0  0  0  0
   36.6850   27.6830   33.3860 C   0  0  0  0  0  0  0  0  0  0  0  0
   36.9260   26.4180   32.8700 C   0  0  0  0  0  0  0  0  0  0  0  0
   37.4090   25.7460   33.8680 O   0  0  0  0  0  0  0  0  0  0  0  0
   36.6720   25.9660   31.4770 C   0  0  0  0  0  0  0  0  0  0  0  0
   36.3540   27.1900   30.6130 C   0  0  0  0  0  0  0  0  0  0  0  0
   35.4720   25.0480   31.3760 C   0  0  0  0  0  0  0  0  0  0  0  0
   37.8540   25.2170   30.9050 C   0  0  0  0  0  0  0  0  0  0  0  0
   40.1354   21.0684   34.8289 H   0  0  0  0  0  0  0  0  0  0  0  0
   40.8109   22.7943   34.7925 H   0  0  0  0  0  0  0  0  0  0  0  0
   40.8937   20.7350   36.8343 H   0  0  0  0  0  0  0  0  0  0  0  0
   42.0163   22.1467   36.3408 H   0  0  0  0  0  0  0  0  0  0  0  0
   40.7922   21.9214   38.6760 H   0  0  0  0  0  0  0  0  0  0  0  0
   41.2924   23.4584   37.8165 H   0  0  0  0  0  0  0  0  0  0  0  0
   38.5246   22.2375   38.0149 H   0  0  0  0  0  0  0  0  0  0  0  0
   39.0689   23.8245   38.6010 H   0  0  0  0  0  0  0  0  0  0  0  0
   39.7110   24.3692   36.0546 H   0  0  0  0  0  0  0  0  0  0  0  0
   38.2210   22.8320   32.8097 H   0  0  0  0  0  0  0  0  0  0  0  0
   36.1929   21.8410   31.7950 H   0  0  0  0  0  0  0  0  0  0  0  0
   35.1058   20.2589   35.6039 H   0  0  0  0  0  0  0  0  0  0  0  0
   36.9765   24.1382   35.6911 H   0  0  0  0  0  0  0  0  0  0  0  0
   37.2038   24.3524   37.4545 H   0  0  0  0  0  0  0  0  0  0  0  0
   37.5862   26.5286   37.0627 H   0  0  0  0  0  0  0  0  0  0  0  0
   39.1156   26.0171   36.2166 H   0  0  0  0  0  0  0  0  0  0  0  0
   36.9779   28.5938   35.4215 H   0  0  0  0  0  0  0  0  0  0  0  0
   36.2678   28.5232   32.8115 H   0  0  0  0  0  0  0  0  0  0  0  0
   36.1308   28.0493   31.2625 H   0  0  0  0  0  0  0  0  0  0  0  0
   37.2207   27.4258   29.9780 H   0  0  0  0  0  0  0  0  0  0  0  0
   35.4821   26.9741   29.9780 H   0  0  0  0  0  0  0  0  0  0  0  0
   35.1265   24.7837   32.3863 H   0  0  0  0  0  0  0  0  0  0  0  0
   34.6632   25.5601   30.8342 H   0  0  0  0  0  0  0  0  0  0  0  0
   35.7546   24.1334   30.8342 H   0  0  0  0  0  0  0  0  0  0  0  0
   38.4722   24.8253   31.7262 H   0  0  0  0  0  0  0  0  0  0  0  0
   37.4942   24.3817   30.2863 H   0  0  0  0  0  0  0  0  0  0  0  0
   38.4557   25.8990   30.2863 H   0  0  0  0  0  0  0  0  0  0  0  0
  1  6  1  0
  2  1  1  0
  2  3  1  0
  3  4  1  0
  4  5  1  0
  6 13  1  0
  6  5  1  0
  7  1  1  0
  7 12  1  0
  8  7  2  0
  9  8  1  0
  9 10  2  0
 10 11  1  0
 11 12  2  0
 14 13  1  0
 15 14  1  0
 16 15  2  0
 17 16  1  0
 18 17  2  0
 18 19  1  0
 19 15  1  0
 20 18  1  0
 21 20  1  0
 22 20  1  0
 23 20  1  0
  2 24  1  0
  2 25  1  0
  3 26  1  0
  3 27  1  0
  4 28  1  0
  4 29  1  0
  5 30  1  0
  5 31  1  0
  6 32  1  6
  8 33  1  0
  9 34  1  0
 11 35  1  0
 13 36  1  0
 13 37  1  0
 14 38  1  0
 14 39  1  0
 16 40  1  0
 17 41  1  0
 21 42  1  0
 21 43  1  0
 21 44  1  0
 22 45  1  0
 22 46  1  0
 22 47  1  0
 23 48  1  0
 23 49  1  0
 23 50  1  0
M  ISO  8  24  13  25  13  26  13  27  13  28  13  29  13  30  13  31  13
M  ISO  8  32  13  33  14  34  14  35  14  36   8  37   8  38   8  39   8
M  ISO  8  40  14  41  14  42   8  43   8  44   8  45   8  46   8  47   8
M  ISO  3  48   8  49   8  50   8
M  END
>  <minimizedAffinity>  (1) 
-5.52196646

>  <minimizedRMSD>  (1) 
1.67011726

$$$$
