
     RDKit          3D

 44 47  0  0  1  0  0  0  0  0999 V2000
   38.8460   23.4760   35.7110 N   0  0  0  0  0  0  0  0  0  0  0  0
   40.0130   22.7860   36.2340 C   0  0  0  0  0  0  0  0  0  0  0  0
   40.0390   22.5180   37.6840 C   0  0  0  0  0  0  0  0  0  0  0  0
   39.2110   23.3620   38.5850 C   0  0  0  0  0  0  0  0  0  0  0  0
   38.0250   24.0070   37.8990 C   0  0  0  0  0  0  0  0  0  0  0  0
   38.5330   24.5730   36.5360 C   0  0  2  0  0  0  0  0  0  0  0  0
   38.1740   23.0470   34.5350 C   0  0  0  0  0  0  0  0  0  0  0  0
   38.2060   23.6710   33.3020 C   0  0  0  0  0  0  0  0  0  0  0  0
   37.5050   23.1500   32.2330 C   0  0  0  0  0  0  0  0  0  0  0  0
   36.7970   22.0240   32.4300 N   0  0  0  0  0  0  0  0  0  0  0  0
   36.7580   21.4020   33.6350 C   0  0  0  0  0  0  0  0  0  0  0  0
   37.4470   21.9230   34.6680 N   0  0  0  0  0  0  0  0  0  0  0  0
   37.4880   25.4940   35.9920 C   0  0  0  0  0  0  0  0  0  0  0  0
   38.1390   26.8140   35.6250 C   0  0  0  0  0  0  0  0  0  0  0  0
   37.5400   27.4520   34.4420 C   0  0  0  0  0  0  0  0  0  0  0  0
   36.3570   28.1670   34.3910 C   0  0  0  0  0  0  0  0  0  0  0  0
   36.2660   28.5370   33.0650 C   0  0  0  0  0  0  0  0  0  0  0  0
   37.3550   28.0570   32.3690 C   0  0  0  0  0  0  0  0  0  0  0  0
   38.0790   27.4180   33.2460 O   0  0  0  0  0  0  0  0  0  0  0  0
   37.7410   28.1560   31.0020 N   0  0  0  0  0  0  0  0  0  0  0  0
   36.8930   28.7230   30.1110 C   0  0  0  0  0  0  0  0  0  0  0  0
   37.4290   28.7240   28.8830 N   0  0  0  0  0  0  0  0  0  0  0  0
   38.6420   28.1430   29.0090 C   0  0  0  0  0  0  0  0  0  0  0  0
   38.8230   27.8010   30.2970 N   0  0  0  0  0  0  0  0  0  0  0  0
   40.0858   21.8181   35.7164 H   0  0  0  0  0  0  0  0  0  0  0  0
   40.8541   23.4721   36.0554 H   0  0  0  0  0  0  0  0  0  0  0  0
   39.7123   21.4773   37.8259 H   0  0  0  0  0  0  0  0  0  0  0  0
   41.0729   22.7513   37.9782 H   0  0  0  0  0  0  0  0  0  0  0  0
   38.8366   22.7308   39.4044 H   0  0  0  0  0  0  0  0  0  0  0  0
   39.8566   24.1775   38.9430 H   0  0  0  0  0  0  0  0  0  0  0  0
   37.2368   23.2594   37.7265 H   0  0  0  0  0  0  0  0  0  0  0  0
   37.6018   24.8089   38.5218 H   0  0  0  0  0  0  0  0  0  0  0  0
   39.4499   25.1743   36.6235 H   0  0  0  0  0  0  0  0  0  0  0  0
   38.7952   24.5907   33.1715 H   0  0  0  0  0  0  0  0  0  0  0  0
   37.5250   23.6415   31.2491 H   0  0  0  0  0  0  0  0  0  0  0  0
   36.1698   20.4819   33.7668 H   0  0  0  0  0  0  0  0  0  0  0  0
   37.0310   25.0463   35.0972 H   0  0  0  0  0  0  0  0  0  0  0  0
   36.7079   25.6611   36.7493 H   0  0  0  0  0  0  0  0  0  0  0  0
   38.0407   27.5006   36.4788 H   0  0  0  0  0  0  0  0  0  0  0  0
   39.1904   26.6010   35.3817 H   0  0  0  0  0  0  0  0  0  0  0  0
   35.6572   28.3875   35.2105 H   0  0  0  0  0  0  0  0  0  0  0  0
   35.4468   29.1270   32.6282 H   0  0  0  0  0  0  0  0  0  0  0  0
   35.9009   29.1270   30.3611 H   0  0  0  0  0  0  0  0  0  0  0  0
   39.3618   27.9772   28.1939 H   0  0  0  0  0  0  0  0  0  0  0  0
  1  2  1  0
  1  6  1  0
  2  3  1  0
  3  4  1  0
  5  4  1  0
  6  5  1  0
  7 12  1  0
  7  1  1  0
  8  7  2  0
  9 10  2  0
  9  8  1  0
 10 11  1  0
 11 12  2  0
 13  6  1  0
 14 13  1  0
 15 14  1  0
 16 15  2  0
 17 16  1  0
 18 17  2  0
 18 19  1  0
 19 15  1  0
 20 18  1  0
 21 20  1  0
 22 23  1  0
 22 21  2  0
 23 24  2  0
 24 20  1  0
  2 25  1  0
  2 26  1  0
  3 27  1  0
  3 28  1  0
  4 29  1  0
  4 30  1  0
  5 31  1  0
  5 32  1  0
  6 33  1  1
  8 34  1  0
  9 35  1  0
 11 36  1  0
 13 37  1  0
 13 38  1  0
 14 39  1  0
 14 40  1  0
 16 41  1  0
 17 42  1  0
 21 43  1  0
 23 44  1  0
M  ISO  8  25  13  26  13  27  13  28  13  29  13  30  13  31  13  32  13
M  ISO  8  33  13  34  14  35  14  36  14  37   8  38   8  39   8  40   8
M  ISO  4  41  14  42  14  43  14  44  14
M  END
>  <minimizedAffinity>  (1) 
-5.47398901

>  <minimizedRMSD>  (1) 
0.19620885

$$$$
