
     RDKit          3D

 44 46  0  0  1  0  0  0  0  0999 V2000
   38.8450   23.4960   35.7380 N   0  0  0  0  0  0  0  0  0  0  0  0
   40.0170   22.8110   36.2360 C   0  0  0  0  0  0  0  0  0  0  0  0
   40.0540   22.5200   37.6820 C   0  0  0  0  0  0  0  0  0  0  0  0
   39.2330   23.3560   38.6010 C   0  0  0  0  0  0  0  0  0  0  0  0
   38.0290   23.9850   37.9340 C   0  0  0  0  0  0  0  0  0  0  0  0
   38.5250   24.5890   36.5740 C   0  0  2  0  0  0  0  0  0  0  0  0
   38.1570   23.0760   34.5640 C   0  0  0  0  0  0  0  0  0  0  0  0
   38.1400   23.7270   33.3470 C   0  0  0  0  0  0  0  0  0  0  0  0
   37.4370   23.2260   32.2810 C   0  0  0  0  0  0  0  0  0  0  0  0
   36.7560   22.0600   32.4700 N   0  0  0  0  0  0  0  0  0  0  0  0
   36.7660   21.4130   33.6570 C   0  0  0  0  0  0  0  0  0  0  0  0
   37.4630   21.9280   34.6860 N   0  0  0  0  0  0  0  0  0  0  0  0
   37.4620   25.4970   36.0560 C   0  0  0  0  0  0  0  0  0  0  0  0
   38.1050   26.8320   35.7050 C   0  0  0  0  0  0  0  0  0  0  0  0
   37.5370   27.4280   34.4840 C   0  0  0  0  0  0  0  0  0  0  0  0
   36.4080   28.2280   34.3890 C   0  0  0  0  0  0  0  0  0  0  0  0
   36.3320   28.5030   33.0290 C   0  0  0  0  0  0  0  0  0  0  0  0
   37.3680   27.8900   32.3760 C   0  0  0  0  0  0  0  0  0  0  0  0
   38.0480   27.2700   33.2750 O   0  0  0  0  0  0  0  0  0  0  0  0
   37.5890   27.9780   30.9010 C   0  0  0  0  0  0  0  0  0  0  0  0
   36.7110   29.0000   30.2570 C   0  0  0  0  0  0  0  0  0  0  0  0
   40.0943   21.8526   35.7017 H   0  0  0  0  0  0  0  0  0  0  0  0
   40.8520   23.5054   36.0610 H   0  0  0  0  0  0  0  0  0  0  0  0
   39.7250   21.4783   37.8111 H   0  0  0  0  0  0  0  0  0  0  0  0
   41.0911   22.7431   37.9728 H   0  0  0  0  0  0  0  0  0  0  0  0
   38.8808   22.7212   39.4274 H   0  0  0  0  0  0  0  0  0  0  0  0
   39.8751   24.1782   38.9497 H   0  0  0  0  0  0  0  0  0  0  0  0
   37.2572   23.2230   37.7504 H   0  0  0  0  0  0  0  0  0  0  0  0
   37.5872   24.7639   38.5728 H   0  0  0  0  0  0  0  0  0  0  0  0
   39.4301   25.2088   36.6554 H   0  0  0  0  0  0  0  0  0  0  0  0
   38.7011   24.6658   33.2297 H   0  0  0  0  0  0  0  0  0  0  0  0
   37.4232   23.7449   31.3112 H   0  0  0  0  0  0  0  0  0  0  0  0
   36.2086   20.4728   33.7805 H   0  0  0  0  0  0  0  0  0  0  0  0
   37.0022   25.0578   35.1584 H   0  0  0  0  0  0  0  0  0  0  0  0
   36.6810   25.6403   36.8172 H   0  0  0  0  0  0  0  0  0  0  0  0
   37.9509   27.5287   36.5422 H   0  0  0  0  0  0  0  0  0  0  0  0
   39.1743   26.6500   35.5218 H   0  0  0  0  0  0  0  0  0  0  0  0
   35.7368   28.5629   35.1936 H   0  0  0  0  0  0  0  0  0  0  0  0
   35.5573   29.1195   32.5497 H   0  0  0  0  0  0  0  0  0  0  0  0
   38.6395   28.2468   30.7160 H   0  0  0  0  0  0  0  0  0  0  0  0
   37.3424   26.9989   30.4645 H   0  0  0  0  0  0  0  0  0  0  0  0
   36.2040   29.5902   31.0346 H   0  0  0  0  0  0  0  0  0  0  0  0
   37.3224   29.6666   29.6310 H   0  0  0  0  0  0  0  0  0  0  0  0
   35.9599   28.4960   29.6310 H   0  0  0  0  0  0  0  0  0  0  0  0
  1  2  1  0
  1  6  1  0
  2  3  1  0
  3  4  1  0
  5  4  1  0
  6  5  1  0
  7 12  1  0
  7  1  1  0
  8  7  2  0
  9 10  2  0
  9  8  1  0
 10 11  1  0
 11 12  2  0
 13  6  1  0
 14 13  1  0
 15 14  1  0
 16 15  2  0
 17 16  1  0
 18 17  2  0
 18 19  1  0
 19 15  1  0
 20 18  1  0
 21 20  1  0
  2 22  1  0
  2 23  1  0
  3 24  1  0
  3 25  1  0
  4 26  1  0
  4 27  1  0
  5 28  1  0
  5 29  1  0
  6 30  1  1
  8 31  1  0
  9 32  1  0
 11 33  1  0
 13 34  1  0
 13 35  1  0
 14 36  1  0
 14 37  1  0
 16 38  1  0
 17 39  1  0
 20 40  1  0
 20 41  1  0
 21 42  1  0
 21 43  1  0
 21 44  1  0
M  ISO  8  22  13  23  13  24  13  25  13  26  13  27  13  28  13  29  13
M  ISO  8  30  13  31  14  32  14  33  14  34   8  35   8  36   8  37   8
M  ISO  7  38  14  39  14  40   8  41   8  42   8  43   8  44   8
M  END
>  <minimizedAffinity>  (1) 
-5.07815409

>  <minimizedRMSD>  (1) 
0.0946905315

$$$$
