
     RDKit          3D

 26 27  0  0  0  0  0  0  0  0999 V2000
   36.5010   20.6860   33.1120 C   0  0  0  0  0  0  0  0  0  0  0  0
   35.7940   20.6430   34.3090 C   0  0  0  0  0  0  0  0  0  0  0  0
   36.3780   21.2560   35.3950 C   0  0  0  0  0  0  0  0  0  0  0  0
   37.5920   21.8910   35.3470 C   0  0  0  0  0  0  0  0  0  0  0  0
   38.2550   21.9010   34.1220 C   0  0  0  0  0  0  0  0  0  0  0  0
   37.7350   21.3060   32.9790 C   0  0  0  0  0  0  0  0  0  0  0  0
   39.9320   22.9420   37.9650 C   0  0  0  0  0  0  0  0  0  0  0  0
   39.1400   23.7610   38.7820 C   0  0  0  0  0  0  0  0  0  0  0  0
   37.8160   23.9340   38.4160 C   0  0  0  0  0  0  0  0  0  0  0  0
   37.3450   23.3150   37.2980 N   0  0  0  0  0  0  0  0  0  0  0  0
   38.1570   22.5290   36.5370 C   0  0  0  0  0  0  0  0  0  0  0  0
   39.4340   22.3390   36.8560 N   0  0  0  0  0  0  0  0  0  0  0  0
   35.7960   19.9190   31.7310 S   0  0  0  0  0  0  0  0  0  0  0  0
   36.2150   20.5730   30.4370 O   0  0  0  0  0  0  0  0  0  0  0  0
   36.2380   18.4860   31.7410 O   0  0  0  0  0  0  0  0  0  0  0  0
   34.0180   19.9270   31.8330 C   0  0  0  0  0  0  0  0  0  0  0  0
   34.8166   20.1440   34.3844 H   0  0  0  0  0  0  0  0  0  0  0  0
   35.8405   21.2350   36.3545 H   0  0  0  0  0  0  0  0  0  0  0  0
   39.2324   22.4015   34.0566 H   0  0  0  0  0  0  0  0  0  0  0  0
   38.2731   21.3255   32.0198 H   0  0  0  0  0  0  0  0  0  0  0  0
   40.9876   22.7836   38.2306 H   0  0  0  0  0  0  0  0  0  0  0  0
   39.5539   24.2467   39.6780 H   0  0  0  0  0  0  0  0  0  0  0  0
   37.1505   24.5657   39.0227 H   0  0  0  0  0  0  0  0  0  0  0  0
   33.7113   19.9284   32.8894 H   0  0  0  0  0  0  0  0  0  0  0  0
   33.6263   20.8269   31.3363 H   0  0  0  0  0  0  0  0  0  0  0  0
   33.6182   19.0306   31.3363 H   0  0  0  0  0  0  0  0  0  0  0  0
  1  2  2  0
  2  3  1  0
  4  3  2  0
  4 11  1  0
  5  4  1  0
  6  1  1  0
  6  5  2  0
  7  8  2  0
  9  8  1  0
 10  9  2  0
 11 12  2  0
 11 10  1  0
 12  7  1  0
 13 15  2  0
 13 16  1  0
 13  1  1  0
 14 13  2  0
  2 17  1  0
  3 18  1  0
  5 19  1  0
  6 20  1  0
  7 21  1  0
  8 22  1  0
  9 23  1  0
 16 24  1  0
 16 25  1  0
 16 26  1  0
M  ISO  8  17  14  18  14  19  14  20  14  21  14  22  14  23  14  24   8
M  ISO  2  25   8  26   8
M  END
>  <minimizedAffinity>  (1) 
-4.04010916

>  <minimizedRMSD>  (1) 
0.640165806

$$$$
