
     RDKit          3D

 43 46  0  0  1  0  0  0  0  0999 V2000
   35.8390   20.4370   31.4900 S   0  0  0  0  0  0  0  0  0  0  0  0
   34.7110   19.5050   31.7490 O   0  0  0  0  0  0  0  0  0  0  0  0
   35.3220   21.6080   30.6390 O   0  0  0  0  0  0  0  0  0  0  0  0
   37.9680   18.9600   31.6200 N   0  0  0  0  0  0  0  0  0  0  0  0
   37.3140   17.8450   32.1970 C   0  0  0  0  0  0  0  0  0  0  0  0
   36.3400   17.3610   31.1460 C   0  0  0  0  0  0  0  0  0  0  0  0
   36.5130   18.3360   29.9780 C   0  0  0  0  0  0  0  0  0  0  0  0
   37.0750   19.5630   30.5970 C   0  0  1  0  0  0  0  0  0  0  0  0
   38.0280   20.3580   29.8150 C   0  0  0  0  0  0  0  0  0  0  0  0
   38.2870   19.6270   28.6530 C   0  0  0  0  0  0  0  0  0  0  0  0
   39.1530   19.9760   27.6250 C   0  0  0  0  0  0  0  0  0  0  0  0
   39.8410   21.1550   27.7310 N   0  0  0  0  0  0  0  0  0  0  0  0
   39.6060   21.8830   28.8530 C   0  0  0  0  0  0  0  0  0  0  0  0
   38.7670   21.4510   29.7520 N   0  0  0  0  0  0  0  0  0  0  0  0
   36.5370   21.1570   32.8870 C   0  0  0  0  0  0  0  0  0  0  0  0
   36.0180   20.7140   34.1210 C   0  0  0  0  0  0  0  0  0  0  0  0
   36.5770   21.2450   35.2530 C   0  0  0  0  0  0  0  0  0  0  0  0
   37.6120   22.1810   35.2290 C   0  0  0  0  0  0  0  0  0  0  0  0
   38.0570   22.5590   34.0010 C   0  0  0  0  0  0  0  0  0  0  0  0
   37.5360   22.0620   32.8210 C   0  0  0  0  0  0  0  0  0  0  0  0
   39.9300   22.8620   37.9840 C   0  0  0  0  0  0  0  0  0  0  0  0
   39.1470   23.6440   38.8570 C   0  0  0  0  0  0  0  0  0  0  0  0
   37.8380   23.9210   38.4790 C   0  0  0  0  0  0  0  0  0  0  0  0
   37.3690   23.4340   37.2980 N   0  0  0  0  0  0  0  0  0  0  0  0
   38.1480   22.6890   36.4890 C   0  0  0  0  0  0  0  0  0  0  0  0
   39.4310   22.3960   36.8190 N   0  0  0  0  0  0  0  0  0  0  0  0
   38.1762   19.6554   32.3507 H   0  0  0  0  0  0  0  0  0  0  0  0
   38.0410   17.0561   32.4401 H   0  0  0  0  0  0  0  0  0  0  0  0
   36.8044   18.1105   33.1350 H   0  0  0  0  0  0  0  0  0  0  0  0
   36.5840   16.3347   30.8341 H   0  0  0  0  0  0  0  0  0  0  0  0
   35.3050   17.3359   31.5176 H   0  0  0  0  0  0  0  0  0  0  0  0
   35.5441   18.5492   29.5029 H   0  0  0  0  0  0  0  0  0  0  0  0
   37.1629   17.9310   29.1883 H   0  0  0  0  0  0  0  0  0  0  0  0
   37.7482   18.6746   28.5405 H   0  0  0  0  0  0  0  0  0  0  0  0
   39.2827   19.3230   26.7494 H   0  0  0  0  0  0  0  0  0  0  0  0
   40.1256   22.8408   29.0037 H   0  0  0  0  0  0  0  0  0  0  0  0
   35.2030   19.9770   34.1720 H   0  0  0  0  0  0  0  0  0  0  0  0
   36.1910   20.9175   36.2296 H   0  0  0  0  0  0  0  0  0  0  0  0
   38.8713   23.2963   33.9438 H   0  0  0  0  0  0  0  0  0  0  0  0
   37.9273   22.3970   31.8490 H   0  0  0  0  0  0  0  0  0  0  0  0
   40.9691   22.6264   38.2574 H   0  0  0  0  0  0  0  0  0  0  0  0
   39.5575   24.0222   39.8049 H   0  0  0  0  0  0  0  0  0  0  0  0
   37.1885   24.5272   39.1276 H   0  0  0  0  0  0  0  0  0  0  0  0
  1  2  2  0
  1 15  1  0
  3  1  2  0
  4  5  1  0
  6  5  1  0
  7  8  1  0
  7  6  1  0
  8  1  1  0
  8  4  1  0
  8  9  1  6
 10  9  2  0
 11 12  2  0
 11 10  1  0
 12 13  1  0
 13 14  2  0
 14  9  1  0
 15 16  2  0
 16 17  1  0
 18 17  2  0
 18 25  1  0
 19 18  1  0
 20 15  1  0
 20 19  2  0
 21 22  2  0
 23 22  1  0
 24 23  2  0
 25 26  2  0
 25 24  1  0
 26 21  1  0
  4 27  1  0
  5 28  1  0
  5 29  1  0
  6 30  1  0
  6 31  1  0
  7 32  1  0
  7 33  1  0
 10 34  1  0
 11 35  1  0
 13 36  1  0
 16 37  1  0
 17 38  1  0
 19 39  1  0
 20 40  1  0
 21 41  1  0
 22 42  1  0
 23 43  1  0
M  ISO  8  27   5  28  13  29  13  30  13  31  13  32  13  33  13  34  14
M  ISO  8  35  14  36  14  37  14  38  14  39  14  40  14  41  14  42  14
M  ISO  1  43  14
M  END
>  <minimizedAffinity>  (1) 
-4.86604023

>  <minimizedRMSD>  (1) 
0.691041946

$$$$
