
     RDKit          3D

 42 45  0  0  1  0  0  0  0  0999 V2000
   35.9060   20.4920   31.4580 S   0  0  0  0  0  0  0  0  0  0  0  0
   34.8040   19.5270   31.7050 O   0  0  0  0  0  0  0  0  0  0  0  0
   35.3610   21.6660   30.6270 O   0  0  0  0  0  0  0  0  0  0  0  0
   38.0340   19.0150   31.5520 N   0  0  0  0  0  0  0  0  0  0  0  0
   37.3720   17.8690   32.0630 C   0  0  0  0  0  0  0  0  0  0  0  0
   36.4180   17.4350   30.9720 C   0  0  0  0  0  0  0  0  0  0  0  0
   36.6120   18.4680   29.8580 C   0  0  0  0  0  0  0  0  0  0  0  0
   37.1550   19.6630   30.5460 C   0  0  1  0  0  0  0  0  0  0  0  0
   38.1270   20.5110   29.8230 C   0  0  0  0  0  0  0  0  0  0  0  0
   38.6130   19.7500   28.7400 C   0  0  0  0  0  0  0  0  0  0  0  0
   39.5520   20.4860   27.9960 C   0  0  0  0  0  0  0  0  0  0  0  0
   39.5610   21.6640   28.7010 C   0  0  0  0  0  0  0  0  0  0  0  0
   38.7620   21.6280   29.6960 O   0  0  0  0  0  0  0  0  0  0  0  0
   36.5880   21.2070   32.8650 C   0  0  0  0  0  0  0  0  0  0  0  0
   36.0710   20.7360   34.0920 C   0  0  0  0  0  0  0  0  0  0  0  0
   36.6200   21.2610   35.2330 C   0  0  0  0  0  0  0  0  0  0  0  0
   37.6330   22.2110   35.2310 C   0  0  0  0  0  0  0  0  0  0  0  0
   38.0740   22.6120   34.0080 C   0  0  0  0  0  0  0  0  0  0  0  0
   37.5720   22.1310   32.8160 C   0  0  0  0  0  0  0  0  0  0  0  0
   39.9120   22.8820   38.0150 C   0  0  0  0  0  0  0  0  0  0  0  0
   39.1320   23.6590   38.8780 C   0  0  0  0  0  0  0  0  0  0  0  0
   37.8230   23.9420   38.4870 C   0  0  0  0  0  0  0  0  0  0  0  0
   37.3660   23.4600   37.2990 N   0  0  0  0  0  0  0  0  0  0  0  0
   38.1550   22.7130   36.4980 C   0  0  0  0  0  0  0  0  0  0  0  0
   39.4300   22.4150   36.8410 N   0  0  0  0  0  0  0  0  0  0  0  0
   38.2276   19.6744   32.3192 H   0  0  0  0  0  0  0  0  0  0  0  0
   38.0970   17.0707   32.2800 H   0  0  0  0  0  0  0  0  0  0  0  0
   36.8451   18.0869   33.0037 H   0  0  0  0  0  0  0  0  0  0  0  0
   36.6700   16.4258   30.6143 H   0  0  0  0  0  0  0  0  0  0  0  0
   35.3762   17.3887   31.3220 H   0  0  0  0  0  0  0  0  0  0  0  0
   35.6524   18.7015   29.3736 H   0  0  0  0  0  0  0  0  0  0  0  0
   37.2807   18.1043   29.0639 H   0  0  0  0  0  0  0  0  0  0  0  0
   38.3002   18.7211   28.5088 H   0  0  0  0  0  0  0  0  0  0  0  0
   40.1206   20.1983   27.0994 H   0  0  0  0  0  0  0  0  0  0  0  0
   40.1817   22.5338   28.4400 H   0  0  0  0  0  0  0  0  0  0  0  0
   35.2679   19.9853   34.1301 H   0  0  0  0  0  0  0  0  0  0  0  0
   36.2374   20.9108   36.2030 H   0  0  0  0  0  0  0  0  0  0  0  0
   38.8769   23.3628   33.9670 H   0  0  0  0  0  0  0  0  0  0  0  0
   37.9625   22.4902   31.8524 H   0  0  0  0  0  0  0  0  0  0  0  0
   40.9475   22.6440   38.2996 H   0  0  0  0  0  0  0  0  0  0  0  0
   39.5360   24.0332   39.8302 H   0  0  0  0  0  0  0  0  0  0  0  0
   37.1682   24.5473   39.1310 H   0  0  0  0  0  0  0  0  0  0  0  0
  1  2  2  0
  1 14  1  0
  3  1  2  0
  4  5  1  0
  6  5  1  0
  7  8  1  0
  7  6  1  0
  8  1  1  0
  8  4  1  0
  8  9  1  6
 10  9  2  0
 11 12  2  0
 11 10  1  0
 12 13  1  0
 13  9  1  0
 14 15  2  0
 15 16  1  0
 17 16  2  0
 17 24  1  0
 18 17  1  0
 19 14  1  0
 19 18  2  0
 20 21  2  0
 22 21  1  0
 23 22  2  0
 24 25  2  0
 24 23  1  0
 25 20  1  0
  4 26  1  0
  5 27  1  0
  5 28  1  0
  6 29  1  0
  6 30  1  0
  7 31  1  0
  7 32  1  0
 10 33  1  0
 11 34  1  0
 12 35  1  0
 15 36  1  0
 16 37  1  0
 18 38  1  0
 19 39  1  0
 20 40  1  0
 21 41  1  0
 22 42  1  0
M  ISO  8  26   5  27  13  28  13  29  13  30  13  31  13  32  13  33  14
M  ISO  8  34  14  35  14  36  14  37  14  38  14  39  14  40  14  41  14
M  ISO  1  42  14
M  END
>  <minimizedAffinity>  (1) 
-4.8293848

>  <minimizedRMSD>  (1) 
0.875710487

$$$$
