
     RDKit          3D

 42 45  0  0  1  0  0  0  0  0999 V2000
   35.8500   20.3970   31.4930 S   0  0  0  0  0  0  0  0  0  0  0  0
   34.7120   19.4780   31.7500 O   0  0  0  0  0  0  0  0  0  0  0  0
   35.3480   21.5700   30.6280 O   0  0  0  0  0  0  0  0  0  0  0  0
   37.9520   18.8870   31.6480 N   0  0  0  0  0  0  0  0  0  0  0  0
   37.2690   17.7860   32.2160 C   0  0  0  0  0  0  0  0  0  0  0  0
   36.3150   17.3180   31.1450 C   0  0  0  0  0  0  0  0  0  0  0  0
   36.5200   18.2890   29.9840 C   0  0  0  0  0  0  0  0  0  0  0  0
   37.0700   19.5060   30.6100 C   0  0  1  0  0  0  0  0  0  0  0  0
   38.0190   20.2150   29.8020 C   0  0  0  0  0  0  0  0  0  0  0  0
   38.2570   19.5560   28.5780 C   0  0  0  0  0  0  0  0  0  0  0  0
   39.1410   19.9920   27.6170 C   0  0  0  0  0  0  0  0  0  0  0  0
   39.8070   21.1670   27.9470 C   0  0  0  0  0  0  0  0  0  0  0  0
   39.2000   21.6520   29.5850 S   0  0  0  0  0  0  0  0  0  0  0  0
   36.5490   21.1270   32.8820 C   0  0  0  0  0  0  0  0  0  0  0  0
   36.0050   20.7120   34.1180 C   0  0  0  0  0  0  0  0  0  0  0  0
   36.5550   21.2370   35.2540 C   0  0  0  0  0  0  0  0  0  0  0  0
   37.6120   22.1500   35.2310 C   0  0  0  0  0  0  0  0  0  0  0  0
   38.0790   22.5010   34.0030 C   0  0  0  0  0  0  0  0  0  0  0  0
   37.5710   22.0090   32.8160 C   0  0  0  0  0  0  0  0  0  0  0  0
   39.9300   22.8610   37.9760 C   0  0  0  0  0  0  0  0  0  0  0  0
   39.1500   23.6440   38.8450 C   0  0  0  0  0  0  0  0  0  0  0  0
   37.8340   23.9150   38.4670 C   0  0  0  0  0  0  0  0  0  0  0  0
   37.3610   23.4190   37.2900 N   0  0  0  0  0  0  0  0  0  0  0  0
   38.1490   22.6700   36.4860 C   0  0  0  0  0  0  0  0  0  0  0  0
   39.4290   22.3850   36.8170 N   0  0  0  0  0  0  0  0  0  0  0  0
   38.1658   19.5790   32.3803 H   0  0  0  0  0  0  0  0  0  0  0  0
   37.9772   16.9862   32.4783 H   0  0  0  0  0  0  0  0  0  0  0  0
   36.7443   18.0610   33.1428 H   0  0  0  0  0  0  0  0  0  0  0  0
   36.5542   16.2897   30.8362 H   0  0  0  0  0  0  0  0  0  0  0  0
   35.2725   17.3062   31.4957 H   0  0  0  0  0  0  0  0  0  0  0  0
   35.5635   18.5066   29.4862 H   0  0  0  0  0  0  0  0  0  0  0  0
   37.1866   17.8799   29.2105 H   0  0  0  0  0  0  0  0  0  0  0  0
   37.6979   18.6301   28.3775 H   0  0  0  0  0  0  0  0  0  0  0  0
   39.3061   19.4571   26.6701 H   0  0  0  0  0  0  0  0  0  0  0  0
   40.5531   21.6965   27.3363 H   0  0  0  0  0  0  0  0  0  0  0  0
   35.1721   19.9950   34.1644 H   0  0  0  0  0  0  0  0  0  0  0  0
   36.1479   20.9273   36.2278 H   0  0  0  0  0  0  0  0  0  0  0  0
   38.9105   23.2193   33.9516 H   0  0  0  0  0  0  0  0  0  0  0  0
   37.9855   22.3253   31.8474 H   0  0  0  0  0  0  0  0  0  0  0  0
   40.9712   22.6315   38.2467 H   0  0  0  0  0  0  0  0  0  0  0  0
   39.5622   24.0293   39.7892 H   0  0  0  0  0  0  0  0  0  0  0  0
   37.1848   24.5236   39.1137 H   0  0  0  0  0  0  0  0  0  0  0  0
  1  2  2  0
  1 14  1  0
  3  1  2  0
  4  5  1  0
  6  5  1  0
  7  8  1  0
  7  6  1  0
  8  1  1  0
  8  4  1  0
  8  9  1  6
 10  9  2  0
 11 12  2  0
 11 10  1  0
 12 13  1  0
 13  9  1  0
 14 15  2  0
 15 16  1  0
 17 16  2  0
 17 24  1  0
 18 17  1  0
 19 14  1  0
 19 18  2  0
 20 21  2  0
 22 21  1  0
 23 22  2  0
 24 25  2  0
 24 23  1  0
 25 20  1  0
  4 26  1  0
  5 27  1  0
  5 28  1  0
  6 29  1  0
  6 30  1  0
  7 31  1  0
  7 32  1  0
 10 33  1  0
 11 34  1  0
 12 35  1  0
 15 36  1  0
 16 37  1  0
 18 38  1  0
 19 39  1  0
 20 40  1  0
 21 41  1  0
 22 42  1  0
M  ISO  8  26   5  27  13  28  13  29  13  30  13  31  13  32  13  33  14
M  ISO  8  34  14  35  14  36  14  37  14  38  14  39  14  40  14  41  14
M  ISO  1  42  14
M  END
>  <minimizedAffinity>  (1) 
-4.81267357

>  <minimizedRMSD>  (1) 
0.688548982

$$$$
