
     RDKit          3D

 47 50  0  0  1  0  0  0  0  0999 V2000
   35.9880   20.4350   31.4130 S   0  0  0  0  0  0  0  0  0  0  0  0
   34.8530   19.5040   31.6660 O   0  0  0  0  0  0  0  0  0  0  0  0
   35.4640   21.6100   30.5610 O   0  0  0  0  0  0  0  0  0  0  0  0
   38.0780   18.9260   31.5570 N   0  0  0  0  0  0  0  0  0  0  0  0
   37.3980   17.8090   32.0780 C   0  0  0  0  0  0  0  0  0  0  0  0
   36.4440   17.3630   31.0030 C   0  0  0  0  0  0  0  0  0  0  0  0
   36.6220   18.3640   29.8770 C   0  0  0  0  0  0  0  0  0  0  0  0
   37.2250   19.5840   30.5140 C   0  0  1  0  0  0  0  0  0  0  0  0
   38.1010   20.2260   29.6570 N   0  0  0  0  0  0  0  0  0  0  0  0
   38.8540   21.3370   29.7270 C   0  0  0  0  0  0  0  0  0  0  0  0
   39.8640   21.3600   28.5760 C   0  0  0  0  0  0  0  0  0  0  0  0
   39.1950   20.4590   27.5700 C   0  0  0  0  0  0  0  0  0  0  0  0
   38.4390   19.4860   28.4500 C   0  0  0  0  0  0  0  0  0  0  0  0
   36.6500   21.1650   32.8170 C   0  0  0  0  0  0  0  0  0  0  0  0
   36.0750   20.7440   34.0410 C   0  0  0  0  0  0  0  0  0  0  0  0
   36.6060   21.2620   35.1920 C   0  0  0  0  0  0  0  0  0  0  0  0
   37.6550   22.1610   35.2050 C   0  0  0  0  0  0  0  0  0  0  0  0
   38.1590   22.5240   33.9730 C   0  0  0  0  0  0  0  0  0  0  0  0
   37.6630   22.0330   32.7870 C   0  0  0  0  0  0  0  0  0  0  0  0
   39.9210   22.8730   37.9930 C   0  0  0  0  0  0  0  0  0  0  0  0
   39.1100   23.6490   38.8530 C   0  0  0  0  0  0  0  0  0  0  0  0
   37.8090   23.9050   38.4520 C   0  0  0  0  0  0  0  0  0  0  0  0
   37.3630   23.4120   37.2630 N   0  0  0  0  0  0  0  0  0  0  0  0
   38.1720   22.6740   36.4710 C   0  0  0  0  0  0  0  0  0  0  0  0
   39.4470   22.3990   36.8220 N   0  0  0  0  0  0  0  0  0  0  0  0
   38.2716   19.5954   32.3155 H   0  0  0  0  0  0  0  0  0  0  0  0
   38.1101   17.0046   32.3144 H   0  0  0  0  0  0  0  0  0  0  0  0
   36.8669   18.0595   33.0082 H   0  0  0  0  0  0  0  0  0  0  0  0
   36.6948   16.3481   30.6608 H   0  0  0  0  0  0  0  0  0  0  0  0
   35.4051   17.3274   31.3626 H   0  0  0  0  0  0  0  0  0  0  0  0
   35.6503   18.6082   29.4229 H   0  0  0  0  0  0  0  0  0  0  0  0
   37.2604   17.9655   29.0747 H   0  0  0  0  0  0  0  0  0  0  0  0
   38.2043   22.2220   29.6590 H   0  0  0  0  0  0  0  0  0  0  0  0
   39.3971   21.3448   30.6835 H   0  0  0  0  0  0  0  0  0  0  0  0
   39.9969   22.3770   28.1785 H   0  0  0  0  0  0  0  0  0  0  0  0
   40.8765   21.0388   28.8618 H   0  0  0  0  0  0  0  0  0  0  0  0
   39.9376   19.9376   26.9481 H   0  0  0  0  0  0  0  0  0  0  0  0
   38.5509   20.9982   26.8598 H   0  0  0  0  0  0  0  0  0  0  0  0
   37.5256   19.1409   27.9434 H   0  0  0  0  0  0  0  0  0  0  0  0
   39.0398   18.5929   28.6766 H   0  0  0  0  0  0  0  0  0  0  0  0
   35.2375   20.0313   34.0659 H   0  0  0  0  0  0  0  0  0  0  0  0
   36.1760   20.9467   36.1541 H   0  0  0  0  0  0  0  0  0  0  0  0
   38.9950   23.2381   33.9372 H   0  0  0  0  0  0  0  0  0  0  0  0
   38.0957   22.3518   31.8272 H   0  0  0  0  0  0  0  0  0  0  0  0
   40.9583   22.6515   38.2843 H   0  0  0  0  0  0  0  0  0  0  0  0
   39.4985   24.0357   39.8067 H   0  0  0  0  0  0  0  0  0  0  0  0
   37.1405   24.5024   39.0894 H   0  0  0  0  0  0  0  0  0  0  0  0
  1  2  2  0
  1 14  1  0
  3  1  2  0
  4  5  1  0
  6  5  1  0
  7  8  1  0
  7  6  1  0
  8  1  1  0
  8  4  1  0
  9 10  1  0
  8  9  1  6
 11 10  1  0
 12 13  1  0
 12 11  1  0
 13  9  1  0
 14 15  2  0
 15 16  1  0
 16 17  2  0
 17 24  1  0
 18 17  1  0
 19 14  1  0
 19 18  2  0
 20 21  2  0
 22 21  1  0
 23 22  2  0
 24 25  2  0
 24 23  1  0
 25 20  1  0
  4 26  1  0
  5 27  1  0
  5 28  1  0
  6 29  1  0
  6 30  1  0
  7 31  1  0
  7 32  1  0
 10 33  1  0
 10 34  1  0
 11 35  1  0
 11 36  1  0
 12 37  1  0
 12 38  1  0
 13 39  1  0
 13 40  1  0
 15 41  1  0
 16 42  1  0
 18 43  1  0
 19 44  1  0
 20 45  1  0
 21 46  1  0
 22 47  1  0
M  ISO  8  26   5  27  13  28  13  29  13  30  13  31  13  32  13  33  13
M  ISO  8  34  13  35  13  36  13  37  13  38  13  39  13  40  13  41  14
M  ISO  6  42  14  43  14  44  14  45  14  46  14  47  14
M  END
>  <minimizedAffinity>  (1) 
-4.78969908

>  <minimizedRMSD>  (1) 
0.871231079

$$$$
