
     RDKit          3D

 45 48  0  0  1  0  0  0  0  0999 V2000
   35.9360   20.7120   31.5020 S   0  0  0  0  0  0  0  0  0  0  0  0
   34.8410   19.7490   31.7140 O   0  0  0  0  0  0  0  0  0  0  0  0
   35.4250   21.8970   30.6710 O   0  0  0  0  0  0  0  0  0  0  0  0
   38.0250   19.1550   31.6130 N   0  0  0  0  0  0  0  0  0  0  0  0
   37.3050   18.0170   32.0380 C   0  0  0  0  0  0  0  0  0  0  0  0
   36.3920   17.6710   30.8830 C   0  0  0  0  0  0  0  0  0  0  0  0
   36.6780   18.7430   29.8280 C   0  0  0  0  0  0  0  0  0  0  0  0
   37.2130   19.8880   30.5960 C   0  0  1  0  0  0  0  0  0  0  0  0
   38.2280   20.7690   30.0040 C   0  0  0  0  0  0  0  0  0  0  0  0
   39.3460   20.3100   29.3220 C   0  0  0  0  0  0  0  0  0  0  0  0
   40.3210   21.0950   28.7440 C   0  0  0  0  0  0  0  0  0  0  0  0
   40.1920   22.4630   28.8390 C   0  0  0  0  0  0  0  0  0  0  0  0
   39.1320   23.0190   29.4860 C   0  0  0  0  0  0  0  0  0  0  0  0
   38.2100   22.1720   30.0320 C   0  0  0  0  0  0  0  0  0  0  0  0
   36.6220   21.4110   32.9180 C   0  0  0  0  0  0  0  0  0  0  0  0
   36.1770   20.8400   34.1320 C   0  0  0  0  0  0  0  0  0  0  0  0
   36.7140   21.3500   35.2810 C   0  0  0  0  0  0  0  0  0  0  0  0
   37.6500   22.3750   35.3070 C   0  0  0  0  0  0  0  0  0  0  0  0
   38.0320   22.8790   34.0920 C   0  0  0  0  0  0  0  0  0  0  0  0
   37.5410   22.4230   32.8700 C   0  0  0  0  0  0  0  0  0  0  0  0
   39.9050   22.9410   38.1330 C   0  0  0  0  0  0  0  0  0  0  0  0
   39.1420   23.7580   38.9820 C   0  0  0  0  0  0  0  0  0  0  0  0
   37.8690   24.0950   38.5620 C   0  0  0  0  0  0  0  0  0  0  0  0
   37.4030   23.6390   37.3680 N   0  0  0  0  0  0  0  0  0  0  0  0
   38.1690   22.8560   36.5830 C   0  0  0  0  0  0  0  0  0  0  0  0
   39.4210   22.4980   36.9500 N   0  0  0  0  0  0  0  0  0  0  0  0
   38.2071   19.7700   32.4189 H   0  0  0  0  0  0  0  0  0  0  0  0
   37.9910   17.1837   32.2504 H   0  0  0  0  0  0  0  0  0  0  0  0
   36.7424   18.2086   32.9636 H   0  0  0  0  0  0  0  0  0  0  0  0
   36.6240   16.6696   30.4915 H   0  0  0  0  0  0  0  0  0  0  0  0
   35.3332   17.6514   31.1805 H   0  0  0  0  0  0  0  0  0  0  0  0
   35.7546   19.0259   29.3015 H   0  0  0  0  0  0  0  0  0  0  0  0
   37.3801   18.3930   29.0570 H   0  0  0  0  0  0  0  0  0  0  0  0
   39.4653   19.2200   29.2345 H   0  0  0  0  0  0  0  0  0  0  0  0
   41.1769   20.6420   28.2222 H   0  0  0  0  0  0  0  0  0  0  0  0
   40.9548   23.1136   28.3865 H   0  0  0  0  0  0  0  0  0  0  0  0
   39.0216   24.1105   29.5664 H   0  0  0  0  0  0  0  0  0  0  0  0
   37.3605   22.6408   30.5503 H   0  0  0  0  0  0  0  0  0  0  0  0
   35.4365   20.0268   34.1512 H   0  0  0  0  0  0  0  0  0  0  0  0
   36.3855   20.9236   36.2403 H   0  0  0  0  0  0  0  0  0  0  0  0
   38.7714   23.6933   34.0800 H   0  0  0  0  0  0  0  0  0  0  0  0
   37.8755   22.8550   31.9153 H   0  0  0  0  0  0  0  0  0  0  0  0
   40.9223   22.6537   38.4374 H   0  0  0  0  0  0  0  0  0  0  0  0
   39.5410   24.1156   39.9427 H   0  0  0  0  0  0  0  0  0  0  0  0
   37.2324   24.7322   39.1935 H   0  0  0  0  0  0  0  0  0  0  0  0
  1  2  2  0
  1 15  1  0
  3  1  2  0
  4  5  1  0
  6  5  1  0
  7  8  1  0
  7  6  1  0
  8  1  1  0
  8  4  1  0
  9 14  1  0
  8  9  1  6
 10  9  2  0
 11 12  2  0
 11 10  1  0
 12 13  1  0
 13 14  2  0
 15 16  2  0
 16 17  1  0
 17 18  2  0
 18 25  1  0
 19 18  1  0
 20 15  1  0
 20 19  2  0
 21 22  2  0
 23 22  1  0
 24 23  2  0
 25 26  2  0
 25 24  1  0
 26 21  1  0
  4 27  1  0
  5 28  1  0
  5 29  1  0
  6 30  1  0
  6 31  1  0
  7 32  1  0
  7 33  1  0
 10 34  1  0
 11 35  1  0
 12 36  1  0
 13 37  1  0
 14 38  1  0
 16 39  1  0
 17 40  1  0
 19 41  1  0
 20 42  1  0
 21 43  1  0
 22 44  1  0
 23 45  1  0
M  ISO  8  27   5  28  13  29  13  30  13  31  13  32  13  33  13  34  14
M  ISO  8  35  14  36  14  37  14  38  14  39  14  40  14  41  14  42  14
M  ISO  3  43  14  44  14  45  14
M  END
>  <minimizedAffinity>  (1) 
-4.77715492

>  <minimizedRMSD>  (1) 
0.432045937

$$$$
