
     RDKit          3D

 45 48  0  0  1  0  0  0  0  0999 V2000
   35.8030   20.3920   31.4410 S   0  0  0  0  0  0  0  0  0  0  0  0
   34.6090   19.5610   31.6850 O   0  0  0  0  0  0  0  0  0  0  0  0
   35.4320   21.5660   30.5270 O   0  0  0  0  0  0  0  0  0  0  0  0
   37.9270   18.8970   31.6890 N   0  0  0  0  0  0  0  0  0  0  0  0
   37.2770   17.8850   32.4260 C   0  0  0  0  0  0  0  0  0  0  0  0
   36.2620   17.2870   31.4780 C   0  0  0  0  0  0  0  0  0  0  0  0
   36.4230   18.0930   30.1850 C   0  0  0  0  0  0  0  0  0  0  0  0
   37.0050   19.3830   30.6200 C   0  0  1  0  0  0  0  0  0  0  0  0
   37.9430   20.1030   29.7580 C   0  0  0  0  0  0  0  0  0  0  0  0
   38.6500   21.2660   30.0930 C   0  0  0  0  0  0  0  0  0  0  0  0
   39.5440   21.9550   29.3090 C   0  0  0  0  0  0  0  0  0  0  0  0
   39.7820   21.4550   28.0470 C   0  0  0  0  0  0  0  0  0  0  0  0
   39.1370   20.3150   27.6200 C   0  0  0  0  0  0  0  0  0  0  0  0
   38.2560   19.6880   28.4730 C   0  0  0  0  0  0  0  0  0  0  0  0
   36.5330   21.1040   32.8270 C   0  0  0  0  0  0  0  0  0  0  0  0
   35.9730   20.7020   34.0620 C   0  0  0  0  0  0  0  0  0  0  0  0
   36.5370   21.2260   35.1910 C   0  0  0  0  0  0  0  0  0  0  0  0
   37.5980   22.1060   35.1840 C   0  0  0  0  0  0  0  0  0  0  0  0
   38.0950   22.4560   33.9470 C   0  0  0  0  0  0  0  0  0  0  0  0
   37.5860   21.9730   32.7400 C   0  0  0  0  0  0  0  0  0  0  0  0
   39.9370   22.8320   37.9050 C   0  0  0  0  0  0  0  0  0  0  0  0
   39.1540   23.5880   38.7940 C   0  0  0  0  0  0  0  0  0  0  0  0
   37.8370   23.8300   38.4370 C   0  0  0  0  0  0  0  0  0  0  0  0
   37.3560   23.3390   37.2620 N   0  0  0  0  0  0  0  0  0  0  0  0
   38.1420   22.6190   36.4380 C   0  0  0  0  0  0  0  0  0  0  0  0
   39.4310   22.3570   36.7440 N   0  0  0  0  0  0  0  0  0  0  0  0
   38.1728   19.6772   32.3149 H   0  0  0  0  0  0  0  0  0  0  0  0
   37.9987   17.1205   32.7494 H   0  0  0  0  0  0  0  0  0  0  0  0
   36.8029   18.2818   33.3358 H   0  0  0  0  0  0  0  0  0  0  0  0
   36.4749   16.2223   31.3015 H   0  0  0  0  0  0  0  0  0  0  0  0
   35.2379   17.3359   31.8765 H   0  0  0  0  0  0  0  0  0  0  0  0
   35.4477   18.2503   29.7013 H   0  0  0  0  0  0  0  0  0  0  0  0
   37.0555   17.5772   29.4475 H   0  0  0  0  0  0  0  0  0  0  0  0
   38.4685   21.6738   31.0984 H   0  0  0  0  0  0  0  0  0  0  0  0
   40.0465   22.8637   29.6720 H   0  0  0  0  0  0  0  0  0  0  0  0
   40.4892   21.9678   27.3785 H   0  0  0  0  0  0  0  0  0  0  0  0
   39.3227   19.9118   26.6135 H   0  0  0  0  0  0  0  0  0  0  0  0
   37.7579   18.7798   28.1027 H   0  0  0  0  0  0  0  0  0  0  0  0
   35.1256   20.0023   34.1112 H   0  0  0  0  0  0  0  0  0  0  0  0
   36.1192   20.9277   36.1639 H   0  0  0  0  0  0  0  0  0  0  0  0
   38.9421   23.1567   33.9085 H   0  0  0  0  0  0  0  0  0  0  0  0
   38.0091   22.2751   31.7706 H   0  0  0  0  0  0  0  0  0  0  0  0
   40.9863   22.6215   38.1594 H   0  0  0  0  0  0  0  0  0  0  0  0
   39.5703   23.9727   39.7367 H   0  0  0  0  0  0  0  0  0  0  0  0
   37.1835   24.4160   39.0999 H   0  0  0  0  0  0  0  0  0  0  0  0
  1  2  2  0
  1 15  1  0
  3  1  2  0
  4  5  1  0
  6  5  1  0
  7  8  1  0
  7  6  1  0
  8  1  1  0
  8  4  1  0
  9 10  2  0
  8  9  1  6
 11 10  1  0
 12 11  2  0
 13 12  1  0
 13 14  2  0
 14  9  1  0
 15 16  2  0
 16 17  1  0
 18 17  2  0
 18 25  1  0
 19 18  1  0
 20 15  1  0
 20 19  2  0
 21 22  2  0
 23 22  1  0
 24 23  2  0
 25 26  2  0
 25 24  1  0
 26 21  1  0
  4 27  1  0
  5 28  1  0
  5 29  1  0
  6 30  1  0
  6 31  1  0
  7 32  1  0
  7 33  1  0
 10 34  1  0
 11 35  1  0
 12 36  1  0
 13 37  1  0
 14 38  1  0
 16 39  1  0
 17 40  1  0
 19 41  1  0
 20 42  1  0
 21 43  1  0
 22 44  1  0
 23 45  1  0
M  ISO  8  27   5  28  13  29  13  30  13  31  13  32  13  33  13  34  14
M  ISO  8  35  14  36  14  37  14  38  14  39  14  40  14  41  14  42  14
M  ISO  3  43  14  44  14  45  14
M  END
>  <minimizedAffinity>  (1) 
-4.75623274

>  <minimizedRMSD>  (1) 
0.783844173

$$$$
