
     RDKit          3D

 46 50  0  0  1  0  0  0  0  0999 V2000
   35.9700   20.0310   31.3640 S   0  0  0  0  0  0  0  0  0  0  0  0
   34.7270   19.2660   31.6150 O   0  0  0  0  0  0  0  0  0  0  0  0
   35.6390   21.1860   30.3960 O   0  0  0  0  0  0  0  0  0  0  0  0
   37.9680   18.4360   31.7340 N   0  0  0  0  0  0  0  0  0  0  0  0
   37.2350   17.4650   32.4480 C   0  0  0  0  0  0  0  0  0  0  0  0
   36.2340   16.9130   31.4560 C   0  0  0  0  0  0  0  0  0  0  0  0
   36.4890   17.7000   30.1690 C   0  0  0  0  0  0  0  0  0  0  0  0
   37.1250   18.9560   30.6160 C   0  0  1  0  0  0  0  0  0  0  0  0
   38.0380   19.5180   29.6760 N   0  0  0  0  0  0  0  0  0  0  0  0
   39.1690   20.2390   29.7870 C   0  0  0  0  0  0  0  0  0  0  0  0
   39.6420   20.5620   28.5750 N   0  0  0  0  0  0  0  0  0  0  0  0
   38.7750   20.0240   27.6640 C   0  0  0  0  0  0  0  0  0  0  0  0
   38.9560   20.1730   26.3080 C   0  0  0  0  0  0  0  0  0  0  0  0
   37.9770   19.5700   25.5690 N   0  0  0  0  0  0  0  0  0  0  0  0
   36.9700   18.9160   26.1760 C   0  0  0  0  0  0  0  0  0  0  0  0
   36.8670   18.8180   27.5030 N   0  0  0  0  0  0  0  0  0  0  0  0
   37.7660   19.3670   28.3370 C   0  0  0  0  0  0  0  0  0  0  0  0
   36.6790   20.7910   32.7330 C   0  0  0  0  0  0  0  0  0  0  0  0
   35.9530   20.6280   33.9380 C   0  0  0  0  0  0  0  0  0  0  0  0
   36.4930   21.1830   35.0670 C   0  0  0  0  0  0  0  0  0  0  0  0
   37.7020   21.8860   35.0690 C   0  0  0  0  0  0  0  0  0  0  0  0
   38.3420   21.9990   33.8660 C   0  0  0  0  0  0  0  0  0  0  0  0
   37.8490   21.4610   32.6940 C   0  0  0  0  0  0  0  0  0  0  0  0
   39.9820   22.7850   37.7880 C   0  0  0  0  0  0  0  0  0  0  0  0
   39.1420   23.5020   38.6700 C   0  0  0  0  0  0  0  0  0  0  0  0
   37.8080   23.6590   38.3060 C   0  0  0  0  0  0  0  0  0  0  0  0
   37.3670   23.1260   37.1340 N   0  0  0  0  0  0  0  0  0  0  0  0
   38.2040   22.4470   36.3190 C   0  0  0  0  0  0  0  0  0  0  0  0
   39.5080   22.2710   36.6330 N   0  0  0  0  0  0  0  0  0  0  0  0
   38.2214   19.2101   32.3644 H   0  0  0  0  0  0  0  0  0  0  0  0
   37.9010   16.6671   32.8082 H   0  0  0  0  0  0  0  0  0  0  0  0
   36.7424   17.8918   33.3341 H   0  0  0  0  0  0  0  0  0  0  0  0
   36.4015   15.8381   31.2931 H   0  0  0  0  0  0  0  0  0  0  0  0
   35.1974   17.0167   31.8090 H   0  0  0  0  0  0  0  0  0  0  0  0
   35.5428   17.9085   29.6481 H   0  0  0  0  0  0  0  0  0  0  0  0
   37.1198   17.1440   29.4598 H   0  0  0  0  0  0  0  0  0  0  0  0
   39.6397   20.5236   30.7396 H   0  0  0  0  0  0  0  0  0  0  0  0
   39.8009   20.7205   25.8648 H   0  0  0  0  0  0  0  0  0  0  0  0
   36.1984   18.4417   25.5517 H   0  0  0  0  0  0  0  0  0  0  0  0
   34.9992   20.0807   33.9655 H   0  0  0  0  0  0  0  0  0  0  0  0
   35.9504   21.0707   36.0173 H   0  0  0  0  0  0  0  0  0  0  0  0
   39.2962   22.5452   33.8302 H   0  0  0  0  0  0  0  0  0  0  0  0
   38.3988   21.5763   31.7483 H   0  0  0  0  0  0  0  0  0  0  0  0
   41.0415   22.6431   38.0474 H   0  0  0  0  0  0  0  0  0  0  0  0
   39.5289   23.9210   39.6106 H   0  0  0  0  0  0  0  0  0  0  0  0
   37.1158   24.2093   38.9602 H   0  0  0  0  0  0  0  0  0  0  0  0
  1  2  2  0
  1 18  1  0
  3  1  2  0
  4  5  1  0
  6  5  1  0
  7  8  1  0
  7  6  1  0
  8  1  1  0
  8  4  1  0
  9 10  1  0
  8  9  1  6
 11 10  2  0
 12 17  2  0
 12 11  1  0
 13 12  1  0
 14 15  1  0
 14 13  2  0
 15 16  2  0
 16 17  1  0
 17  9  1  0
 18 19  2  0
 19 20  1  0
 20 21  2  0
 21 28  1  0
 22 21  1  0
 23 18  1  0
 23 22  2  0
 24 25  2  0
 26 25  1  0
 27 26  2  0
 28 29  2  0
 28 27  1  0
 29 24  1  0
  4 30  1  0
  5 31  1  0
  5 32  1  0
  6 33  1  0
  6 34  1  0
  7 35  1  0
  7 36  1  0
 10 37  1  0
 13 38  1  0
 15 39  1  0
 19 40  1  0
 20 41  1  0
 22 42  1  0
 23 43  1  0
 24 44  1  0
 25 45  1  0
 26 46  1  0
M  ISO  8  30   5  31  13  32  13  33  13  34  13  35  13  36  13  37  14
M  ISO  8  38  14  39  14  40  14  41  14  42  14  43  14  44  14  45  14
M  ISO  1  46  14
M  END
>  <minimizedAffinity>  (1) 
-4.72445345

>  <minimizedRMSD>  (1) 
1.35870945

$$$$
