
     RDKit          3D

 42 45  0  0  1  0  0  0  0  0999 V2000
   35.8840   20.4830   31.4400 S   0  0  0  0  0  0  0  0  0  0  0  0
   34.7460   19.5790   31.6710 O   0  0  0  0  0  0  0  0  0  0  0  0
   35.4480   21.6650   30.5590 O   0  0  0  0  0  0  0  0  0  0  0  0
   38.0030   18.9640   31.6200 N   0  0  0  0  0  0  0  0  0  0  0  0
   37.3110   17.8750   32.2050 C   0  0  0  0  0  0  0  0  0  0  0  0
   36.3540   17.3950   31.1390 C   0  0  0  0  0  0  0  0  0  0  0  0
   36.5750   18.3450   29.9590 C   0  0  0  0  0  0  0  0  0  0  0  0
   37.1350   19.5690   30.5710 C   0  0  1  0  0  0  0  0  0  0  0  0
   38.0660   20.3820   29.8520 N   0  0  0  0  0  0  0  0  0  0  0  0
   38.7820   21.5450   29.8870 C   0  0  0  0  0  0  0  0  0  0  0  0
   39.5350   21.6830   28.7520 C   0  0  0  0  0  0  0  0  0  0  0  0
   39.2860   20.5840   27.9890 N   0  0  0  0  0  0  0  0  0  0  0  0
   38.3940   19.8040   28.6680 C   0  0  0  0  0  0  0  0  0  0  0  0
   36.5960   21.1960   32.8350 C   0  0  0  0  0  0  0  0  0  0  0  0
   36.0590   20.7440   34.0620 C   0  0  0  0  0  0  0  0  0  0  0  0
   36.6060   21.2620   35.2030 C   0  0  0  0  0  0  0  0  0  0  0  0
   37.6450   22.1950   35.2010 C   0  0  0  0  0  0  0  0  0  0  0  0
   38.1100   22.5810   33.9800 C   0  0  0  0  0  0  0  0  0  0  0  0
   37.6110   22.1050   32.7710 C   0  0  0  0  0  0  0  0  0  0  0  0
   39.9190   22.8650   37.9870 C   0  0  0  0  0  0  0  0  0  0  0  0
   39.1290   23.6320   38.8590 C   0  0  0  0  0  0  0  0  0  0  0  0
   37.8340   23.9020   38.4680 C   0  0  0  0  0  0  0  0  0  0  0  0
   37.3740   23.4280   37.2810 N   0  0  0  0  0  0  0  0  0  0  0  0
   38.1660   22.6940   36.4720 C   0  0  0  0  0  0  0  0  0  0  0  0
   39.4350   22.4050   36.8110 N   0  0  0  0  0  0  0  0  0  0  0  0
   38.2171   19.6672   32.3415 H   0  0  0  0  0  0  0  0  0  0  0  0
   38.0137   17.0750   32.4811 H   0  0  0  0  0  0  0  0  0  0  0  0
   36.7865   18.1684   33.1263 H   0  0  0  0  0  0  0  0  0  0  0  0
   36.5834   16.3586   30.8504 H   0  0  0  0  0  0  0  0  0  0  0  0
   35.3101   17.3991   31.4857 H   0  0  0  0  0  0  0  0  0  0  0  0
   35.6236   18.5637   29.4521 H   0  0  0  0  0  0  0  0  0  0  0  0
   37.2404   17.9164   29.1951 H   0  0  0  0  0  0  0  0  0  0  0  0
   38.7569   22.2706   30.7134 H   0  0  0  0  0  0  0  0  0  0  0  0
   40.2082   22.5173   28.5055 H   0  0  0  0  0  0  0  0  0  0  0  0
   37.9975   18.8436   28.3069 H   0  0  0  0  0  0  0  0  0  0  0  0
   35.2401   20.0105   34.0972 H   0  0  0  0  0  0  0  0  0  0  0  0
   36.2073   20.9267   36.1718 H   0  0  0  0  0  0  0  0  0  0  0  0
   38.9299   23.3136   33.9477 H   0  0  0  0  0  0  0  0  0  0  0  0
   38.0169   22.4465   31.8073 H   0  0  0  0  0  0  0  0  0  0  0  0
   40.9570   22.6328   38.2676 H   0  0  0  0  0  0  0  0  0  0  0  0
   39.5270   24.0025   39.8152 H   0  0  0  0  0  0  0  0  0  0  0  0
   37.1756   24.4995   39.1157 H   0  0  0  0  0  0  0  0  0  0  0  0
  1  2  2  0
  1 14  1  0
  3  1  2  0
  4  5  1  0
  6  5  1  0
  7  8  1  0
  7  6  1  0
  8  1  1  0
  8  4  1  0
  9 10  1  0
  8  9  1  6
 11 10  2  0
 12 13  2  0
 12 11  1  0
 13  9  1  0
 14 15  2  0
 15 16  1  0
 17 16  2  0
 17 24  1  0
 18 17  1  0
 19 14  1  0
 19 18  2  0
 20 21  2  0
 22 21  1  0
 23 22  2  0
 24 25  2  0
 24 23  1  0
 25 20  1  0
  4 26  1  0
  5 27  1  0
  5 28  1  0
  6 29  1  0
  6 30  1  0
  7 31  1  0
  7 32  1  0
 10 33  1  0
 11 34  1  0
 13 35  1  0
 15 36  1  0
 16 37  1  0
 18 38  1  0
 19 39  1  0
 20 40  1  0
 21 41  1  0
 22 42  1  0
M  ISO  8  26   5  27  13  28  13  29  13  30  13  31  13  32  13  33  14
M  ISO  8  34  14  35  14  36  14  37  14  38  14  39  14  40  14  41  14
M  ISO  1  42  14
M  END
>  <minimizedAffinity>  (1) 
-4.70353746

>  <minimizedRMSD>  (1) 
0.96568352

$$$$
