
     RDKit          3D

 38 40  0  0  1  0  0  0  0  0999 V2000
   36.6450   21.0910   32.8550 C   0  0  0  0  0  0  0  0  0  0  0  0
   36.0400   20.7270   34.0800 C   0  0  0  0  0  0  0  0  0  0  0  0
   36.5760   21.2610   35.2240 C   0  0  0  0  0  0  0  0  0  0  0  0
   37.6610   22.1230   35.2230 C   0  0  0  0  0  0  0  0  0  0  0  0
   38.1910   22.4310   33.9930 C   0  0  0  0  0  0  0  0  0  0  0  0
   37.6910   21.9220   32.8090 C   0  0  0  0  0  0  0  0  0  0  0  0
   39.9260   22.8770   37.9920 C   0  0  0  0  0  0  0  0  0  0  0  0
   39.1210   23.6550   38.8480 C   0  0  0  0  0  0  0  0  0  0  0  0
   37.8080   23.9050   38.4520 C   0  0  0  0  0  0  0  0  0  0  0  0
   37.3570   23.3970   37.2700 N   0  0  0  0  0  0  0  0  0  0  0  0
   38.1730   22.6540   36.4810 C   0  0  0  0  0  0  0  0  0  0  0  0
   39.4470   22.3920   36.8320 N   0  0  0  0  0  0  0  0  0  0  0  0
   35.9750   20.3530   31.4590 S   0  0  0  0  0  0  0  0  0  0  0  0
   34.8320   19.4330   31.7100 O   0  0  0  0  0  0  0  0  0  0  0  0
   35.4710   21.5210   30.5870 O   0  0  0  0  0  0  0  0  0  0  0  0
   38.0100   18.7740   31.6290 N   0  0  0  0  0  0  0  0  0  0  0  0
   37.2820   17.6690   32.1220 C   0  0  0  0  0  0  0  0  0  0  0  0
   36.3430   17.2730   31.0050 C   0  0  0  0  0  0  0  0  0  0  0  0
   36.6190   18.2810   29.8930 C   0  0  0  0  0  0  0  0  0  0  0  0
   37.1850   19.4680   30.5840 C   0  0  1  0  0  0  0  0  0  0  0  0
   38.1810   20.1780   29.7410 C   0  0  0  0  0  0  0  0  0  0  0  0
   38.2540   21.5180   29.7430 F   0  0  0  0  0  0  0  0  0  0  0  0
   37.9650   19.8420   28.3740 F   0  0  0  0  0  0  0  0  0  0  0  0
   39.4370   19.5880   29.9800 F   0  0  0  0  0  0  0  0  0  0  0  0
   35.1773   20.0454   34.1140 H   0  0  0  0  0  0  0  0  0  0  0  0
   36.1225   20.9919   36.1894 H   0  0  0  0  0  0  0  0  0  0  0  0
   39.0524   23.1137   33.9486 H   0  0  0  0  0  0  0  0  0  0  0  0
   38.1460   22.1960   31.8457 H   0  0  0  0  0  0  0  0  0  0  0  0
   40.9662   22.6621   38.2778 H   0  0  0  0  0  0  0  0  0  0  0  0
   39.5150   24.0512   39.7955 H   0  0  0  0  0  0  0  0  0  0  0  0
   37.1418   24.5068   39.0876 H   0  0  0  0  0  0  0  0  0  0  0  0
   38.2133   19.4265   32.3996 H   0  0  0  0  0  0  0  0  0  0  0  0
   37.9613   16.8388   32.3656 H   0  0  0  0  0  0  0  0  0  0  0  0
   36.7368   17.9182   33.0443 H   0  0  0  0  0  0  0  0  0  0  0  0
   36.5565   16.2496   30.6629 H   0  0  0  0  0  0  0  0  0  0  0  0
   35.2900   17.2814   31.3231 H   0  0  0  0  0  0  0  0  0  0  0  0
   35.6878   18.5451   29.3703 H   0  0  0  0  0  0  0  0  0  0  0  0
   37.3039   17.8798   29.1315 H   0  0  0  0  0  0  0  0  0  0  0  0
  1  2  2  0
  2  3  1  0
  4  3  2  0
  4 11  1  0
  5  4  1  0
  6  1  1  0
  6  5  2  0
  7  8  2  0
  9  8  1  0
 10  9  2  0
 11 12  2  0
 11 10  1  0
 12  7  1  0
 13 14  2  0
 13  1  1  0
 15 13  2  0
 16 17  1  0
 18 17  1  0
 19 20  1  0
 19 18  1  0
 20 21  1  6
 20 13  1  0
 20 16  1  0
 21 22  1  0
 21 24  1  0
 23 21  1  0
  2 25  1  0
  3 26  1  0
  5 27  1  0
  6 28  1  0
  7 29  1  0
  8 30  1  0
  9 31  1  0
 16 32  1  0
 17 33  1  0
 17 34  1  0
 18 35  1  0
 18 36  1  0
 19 37  1  0
 19 38  1  0
M  ISO  8  25  14  26  14  27  14  28  14  29  14  30  14  31  14  32   5
M  ISO  6  33  13  34  13  35  13  36  13  37  13  38  13
M  END
>  <minimizedAffinity>  (1) 
-4.6992774

>  <minimizedRMSD>  (1) 
0.556541502

$$$$
