
     RDKit          3D

 41 44  0  0  1  0  0  0  0  0999 V2000
   35.8780   20.4630   31.4360 S   0  0  0  0  0  0  0  0  0  0  0  0
   34.7360   19.5700   31.6680 O   0  0  0  0  0  0  0  0  0  0  0  0
   35.4680   21.6460   30.5420 O   0  0  0  0  0  0  0  0  0  0  0  0
   37.9960   18.9360   31.6340 N   0  0  0  0  0  0  0  0  0  0  0  0
   37.3040   17.8620   32.2370 C   0  0  0  0  0  0  0  0  0  0  0  0
   36.3390   17.3680   31.1860 C   0  0  0  0  0  0  0  0  0  0  0  0
   36.5570   18.2990   29.9880 C   0  0  0  0  0  0  0  0  0  0  0  0
   37.1220   19.5270   30.5800 C   0  0  1  0  0  0  0  0  0  0  0  0
   38.0530   20.3330   29.8380 N   0  0  0  0  0  0  0  0  0  0  0  0
   38.7350   21.4920   29.9650 C   0  0  0  0  0  0  0  0  0  0  0  0
   39.4630   21.6670   28.8490 N   0  0  0  0  0  0  0  0  0  0  0  0
   39.2440   20.6160   28.0080 C   0  0  0  0  0  0  0  0  0  0  0  0
   38.3600   19.7980   28.6500 N   0  0  0  0  0  0  0  0  0  0  0  0
   36.5980   21.1770   32.8270 C   0  0  0  0  0  0  0  0  0  0  0  0
   36.0500   20.7360   34.0530 C   0  0  0  0  0  0  0  0  0  0  0  0
   36.5960   21.2540   35.1960 C   0  0  0  0  0  0  0  0  0  0  0  0
   37.6430   22.1780   35.1940 C   0  0  0  0  0  0  0  0  0  0  0  0
   38.1170   22.5550   33.9730 C   0  0  0  0  0  0  0  0  0  0  0  0
   37.6220   22.0790   32.7620 C   0  0  0  0  0  0  0  0  0  0  0  0
   39.9140   22.8610   37.9780 C   0  0  0  0  0  0  0  0  0  0  0  0
   39.1330   23.6190   38.8450 C   0  0  0  0  0  0  0  0  0  0  0  0
   37.8240   23.8910   38.4610 C   0  0  0  0  0  0  0  0  0  0  0  0
   37.3700   23.4100   37.2700 N   0  0  0  0  0  0  0  0  0  0  0  0
   38.1630   22.6790   36.4630 C   0  0  0  0  0  0  0  0  0  0  0  0
   39.4330   22.4000   36.8050 N   0  0  0  0  0  0  0  0  0  0  0  0
   38.2167   19.6496   32.3433 H   0  0  0  0  0  0  0  0  0  0  0  0
   38.0051   17.0636   32.5218 H   0  0  0  0  0  0  0  0  0  0  0  0
   36.7851   18.1733   33.1556 H   0  0  0  0  0  0  0  0  0  0  0  0
   36.5628   16.3261   30.9132 H   0  0  0  0  0  0  0  0  0  0  0  0
   35.2972   17.3813   31.5388 H   0  0  0  0  0  0  0  0  0  0  0  0
   35.6040   18.5129   29.4820 H   0  0  0  0  0  0  0  0  0  0  0  0
   37.2164   17.8572   29.2264 H   0  0  0  0  0  0  0  0  0  0  0  0
   38.7006   22.1721   30.8289 H   0  0  0  0  0  0  0  0  0  0  0  0
   39.6892   20.4594   27.0144 H   0  0  0  0  0  0  0  0  0  0  0  0
   35.2237   20.0107   34.0868 H   0  0  0  0  0  0  0  0  0  0  0  0
   36.1900   20.9262   36.1643 H   0  0  0  0  0  0  0  0  0  0  0  0
   38.9427   23.2811   33.9425 H   0  0  0  0  0  0  0  0  0  0  0  0
   38.0355   22.4131   31.7990 H   0  0  0  0  0  0  0  0  0  0  0  0
   40.9529   22.6312   38.2570 H   0  0  0  0  0  0  0  0  0  0  0  0
   39.5360   23.9895   39.7991 H   0  0  0  0  0  0  0  0  0  0  0  0
   37.1647   24.4861   39.1099 H   0  0  0  0  0  0  0  0  0  0  0  0
  1  2  2  0
  1 14  1  0
  3  1  2  0
  4  5  1  0
  6  5  1  0
  7  8  1  0
  7  6  1  0
  8  1  1  0
  8  4  1  0
  9 10  1  0
  8  9  1  6
 11 10  2  0
 12 13  2  0
 12 11  1  0
 13  9  1  0
 14 15  2  0
 15 16  1  0
 17 16  2  0
 17 24  1  0
 18 17  1  0
 19 14  1  0
 19 18  2  0
 20 21  2  0
 22 21  1  0
 23 22  2  0
 24 25  2  0
 24 23  1  0
 25 20  1  0
  4 26  1  0
  5 27  1  0
  5 28  1  0
  6 29  1  0
  6 30  1  0
  7 31  1  0
  7 32  1  0
 10 33  1  0
 12 34  1  0
 15 35  1  0
 16 36  1  0
 18 37  1  0
 19 38  1  0
 20 39  1  0
 21 40  1  0
 22 41  1  0
M  ISO  8  26   5  27  13  28  13  29  13  30  13  31  13  32  13  33  14
M  ISO  8  34  14  35  14  36  14  37  14  38  14  39  14  40  14  41  14
M  END
>  <minimizedAffinity>  (1) 
-4.67540503

>  <minimizedRMSD>  (1) 
0.565496087

$$$$
