
     RDKit          3D

 42 45  0  0  1  0  0  0  0  0999 V2000
   36.6030   21.1060   32.8620 C   0  0  0  0  0  0  0  0  0  0  0  0
   36.0250   20.7170   34.0900 C   0  0  0  0  0  0  0  0  0  0  0  0
   36.5660   21.2490   35.2300 C   0  0  0  0  0  0  0  0  0  0  0  0
   37.6310   22.1320   35.2260 C   0  0  0  0  0  0  0  0  0  0  0  0
   38.1450   22.4680   33.9880 C   0  0  0  0  0  0  0  0  0  0  0  0
   37.6400   21.9630   32.8090 C   0  0  0  0  0  0  0  0  0  0  0  0
   39.9330   22.8680   37.9790 C   0  0  0  0  0  0  0  0  0  0  0  0
   39.1340   23.6500   38.8420 C   0  0  0  0  0  0  0  0  0  0  0  0
   37.8170   23.9080   38.4560 C   0  0  0  0  0  0  0  0  0  0  0  0
   37.3610   23.4010   37.2780 N   0  0  0  0  0  0  0  0  0  0  0  0
   38.1570   22.6580   36.4820 C   0  0  0  0  0  0  0  0  0  0  0  0
   39.4420   22.3850   36.8190 N   0  0  0  0  0  0  0  0  0  0  0  0
   35.9200   20.3800   31.4620 S   0  0  0  0  0  0  0  0  0  0  0  0
   34.8120   19.4230   31.7270 O   0  0  0  0  0  0  0  0  0  0  0  0
   35.3740   21.5430   30.6210 O   0  0  0  0  0  0  0  0  0  0  0  0
   38.0290   18.8790   31.5760 N   0  0  0  0  0  0  0  0  0  0  0  0
   37.3500   17.7430   32.0930 C   0  0  0  0  0  0  0  0  0  0  0  0
   36.4040   17.3140   30.9870 C   0  0  0  0  0  0  0  0  0  0  0  0
   36.6090   18.3420   29.8790 C   0  0  0  0  0  0  0  0  0  0  0  0
   37.1550   19.5290   30.5660 C   0  0  1  0  0  0  0  0  0  0  0  0
   38.1580   20.3760   29.8230 C   0  0  0  0  0  0  0  0  0  0  0  0
   39.5550   20.0090   29.6630 C   0  0  0  0  0  0  0  0  0  0  0  0
   38.6230   19.8500   28.4760 C   0  0  0  0  0  0  0  0  0  0  0  0
   35.1772   20.0172   34.1293 H   0  0  0  0  0  0  0  0  0  0  0  0
   36.1316   20.9595   36.1982 H   0  0  0  0  0  0  0  0  0  0  0  0
   38.9925   23.1677   33.9415 H   0  0  0  0  0  0  0  0  0  0  0  0
   38.0764   22.2549   31.8424 H   0  0  0  0  0  0  0  0  0  0  0  0
   40.9743   22.6488   38.2577 H   0  0  0  0  0  0  0  0  0  0  0  0
   39.5360   24.0430   39.7875 H   0  0  0  0  0  0  0  0  0  0  0  0
   37.1570   24.5128   39.0953 H   0  0  0  0  0  0  0  0  0  0  0  0
   38.2304   19.5408   32.3391 H   0  0  0  0  0  0  0  0  0  0  0  0
   38.0635   16.9386   32.3251 H   0  0  0  0  0  0  0  0  0  0  0  0
   36.8167   17.9704   33.0278 H   0  0  0  0  0  0  0  0  0  0  0  0
   36.6568   16.3045   30.6307 H   0  0  0  0  0  0  0  0  0  0  0  0
   35.3587   17.2728   31.3272 H   0  0  0  0  0  0  0  0  0  0  0  0
   35.6530   18.5819   29.3906 H   0  0  0  0  0  0  0  0  0  0  0  0
   37.2790   17.9737   29.0882 H   0  0  0  0  0  0  0  0  0  0  0  0
   37.6850   21.2868   30.2189 H   0  0  0  0  0  0  0  0  0  0  0  0
   40.3272   20.7923   29.6497 H   0  0  0  0  0  0  0  0  0  0  0  0
   40.2395   19.3352   30.1991 H   0  0  0  0  0  0  0  0  0  0  0  0
   38.7018   20.5248   27.6109 H   0  0  0  0  0  0  0  0  0  0  0  0
   38.3318   19.0334   27.7990 H   0  0  0  0  0  0  0  0  0  0  0  0
  1  2  2  0
  2  3  1  0
  4  3  2  0
  4 11  1  0
  5  4  1  0
  6  1  1  0
  6  5  2  0
  7  8  2  0
  9  8  1  0
 10  9  2  0
 11 12  2  0
 11 10  1  0
 12  7  1  0
 13 14  2  0
 13  1  1  0
 15 13  2  0
 16 17  1  0
 18 17  1  0
 19 20  1  0
 19 18  1  0
 20 13  1  0
 20 16  1  0
 20 21  1  6
 22 21  1  0
 23 22  1  0
 23 21  1  0
  2 24  1  0
  3 25  1  0
  5 26  1  0
  6 27  1  0
  7 28  1  0
  8 29  1  0
  9 30  1  0
 16 31  1  0
 17 32  1  0
 17 33  1  0
 18 34  1  0
 18 35  1  0
 19 36  1  0
 19 37  1  0
 21 38  1  0
 22 39  1  0
 22 40  1  0
 23 41  1  0
 23 42  1  0
M  ISO  8  24  14  25  14  26  14  27  14  28  14  29  14  30  14  31   5
M  ISO  8  32  13  33  13  34  13  35  13  36  13  37  13  38  13  39  13
M  ISO  3  40  13  41  13  42  13
M  END
>  <minimizedAffinity>  (1) 
-4.65352964

>  <minimizedRMSD>  (1) 
0.491996348

$$$$
