
     RDKit          3D

 42 44  0  0  1  0  0  0  0  0999 V2000
   35.8100   20.4290   31.5030 S   0  0  0  0  0  0  0  0  0  0  0  0
   34.7460   19.4510   31.7610 O   0  0  0  0  0  0  0  0  0  0  0  0
   35.2750   21.6050   30.6650 O   0  0  0  0  0  0  0  0  0  0  0  0
   38.0000   19.0030   31.5550 N   0  0  0  0  0  0  0  0  0  0  0  0
   37.3810   17.8590   32.1010 C   0  0  0  0  0  0  0  0  0  0  0  0
   36.4110   17.3850   31.0410 C   0  0  0  0  0  0  0  0  0  0  0  0
   36.5440   18.4050   29.9080 C   0  0  0  0  0  0  0  0  0  0  0  0
   37.0780   19.6110   30.5590 C   0  0  1  0  0  0  0  0  0  0  0  0
   37.8610   20.5690   29.8650 N   0  0  0  0  0  0  0  0  0  0  0  0
   39.1910   20.3110   29.3810 C   0  0  0  0  0  0  0  0  0  0  0  0
   39.4780   19.0710   29.0640 N   0  0  0  0  0  0  0  0  0  0  0  0
   40.1640   21.3710   29.2480 N   0  0  0  0  0  0  0  0  0  0  0  0
   40.4490   18.9160   28.7170 H   0  0  0  0  0  0  0  0  0  0  0  0
   36.5430   21.1590   32.8780 C   0  0  0  0  0  0  0  0  0  0  0  0
   36.0170   20.7200   34.1150 C   0  0  0  0  0  0  0  0  0  0  0  0
   36.5710   21.2420   35.2510 C   0  0  0  0  0  0  0  0  0  0  0  0
   37.6120   22.1730   35.2300 C   0  0  0  0  0  0  0  0  0  0  0  0
   38.0680   22.5500   33.9990 C   0  0  0  0  0  0  0  0  0  0  0  0
   37.5560   22.0630   32.8040 C   0  0  0  0  0  0  0  0  0  0  0  0
   39.9220   22.8690   37.9820 C   0  0  0  0  0  0  0  0  0  0  0  0
   39.1510   23.6480   38.8490 C   0  0  0  0  0  0  0  0  0  0  0  0
   37.8440   23.9250   38.4730 C   0  0  0  0  0  0  0  0  0  0  0  0
   37.3690   23.4340   37.2930 N   0  0  0  0  0  0  0  0  0  0  0  0
   38.1490   22.6860   36.4860 C   0  0  0  0  0  0  0  0  0  0  0  0
   39.4200   22.3980   36.8180 N   0  0  0  0  0  0  0  0  0  0  0  0
   38.1979   19.6815   32.3042 H   0  0  0  0  0  0  0  0  0  0  0  0
   38.1289   17.0811   32.3143 H   0  0  0  0  0  0  0  0  0  0  0  0
   36.8733   18.0817   33.0511 H   0  0  0  0  0  0  0  0  0  0  0  0
   36.6815   16.3782   30.6901 H   0  0  0  0  0  0  0  0  0  0  0  0
   35.3808   17.3168   31.4205 H   0  0  0  0  0  0  0  0  0  0  0  0
   35.5639   18.6105   29.4528 H   0  0  0  0  0  0  0  0  0  0  0  0
   37.1932   18.0458   29.0959 H   0  0  0  0  0  0  0  0  0  0  0  0
   37.4548   21.5008   29.6984 H   0  0  0  0  0  0  0  0  0  0  0  0
   41.1100   21.1609   28.8990 H   0  0  0  0  0  0  0  0  0  0  0  0
   39.9115   22.3367   29.5022 H   0  0  0  0  0  0  0  0  0  0  0  0
   35.1963   19.9890   34.1615 H   0  0  0  0  0  0  0  0  0  0  0  0
   36.1792   20.9140   36.2251 H   0  0  0  0  0  0  0  0  0  0  0  0
   38.8881   23.2816   33.9517 H   0  0  0  0  0  0  0  0  0  0  0  0
   37.9546   22.3958   31.8343 H   0  0  0  0  0  0  0  0  0  0  0  0
   40.9618   22.6334   38.2528 H   0  0  0  0  0  0  0  0  0  0  0  0
   39.5648   24.0277   39.7948 H   0  0  0  0  0  0  0  0  0  0  0  0
   37.1974   24.5350   39.1209 H   0  0  0  0  0  0  0  0  0  0  0  0
  1  2  2  0
  1 14  1  0
  3  1  2  0
  4  5  1  0
  6  5  1  0
  7  8  1  0
  7  6  1  0
  8  9  1  6
  8  1  1  0
  8  4  1  0
 10  9  1  0
 11 10  2  0
 12 10  1  0
 13 11  1  0
 14 15  2  0
 15 16  1  0
 17 16  2  0
 17 24  1  0
 18 17  1  0
 19 14  1  0
 19 18  2  0
 20 21  2  0
 22 21  1  0
 23 22  2  0
 24 25  2  0
 24 23  1  0
 25 20  1  0
  4 26  1  0
  5 27  1  0
  5 28  1  0
  6 29  1  0
  6 30  1  0
  7 31  1  0
  7 32  1  0
  9 33  1  0
 12 34  1  0
 12 35  1  0
 15 36  1  0
 16 37  1  0
 18 38  1  0
 19 39  1  0
 20 40  1  0
 21 41  1  0
 22 42  1  0
M  ISO  8  26   5  27  13  28  13  29  13  30  13  31  13  32  13  36  14
M  ISO  6  37  14  38  14  39  14  40  14  41  14  42  14
M  END
>  <minimizedAffinity>  (1) 
-4.6275506

>  <minimizedRMSD>  (1) 
0.854057968

$$$$
