
     RDKit          3D

 48 52  0  0  1  0  0  0  0  0999 V2000
   37.9390   18.5490   31.7220 N   0  0  0  0  0  0  0  0  0  0  0  0
   37.2400   17.6080   32.5120 C   0  0  0  0  0  0  0  0  0  0  0  0
   36.2080   17.0000   31.5890 C   0  0  0  0  0  0  0  0  0  0  0  0
   36.4090   17.7250   30.2530 C   0  0  0  0  0  0  0  0  0  0  0  0
   37.0440   19.0070   30.6200 C   0  0  2  0  0  0  0  0  0  0  0  0
   37.9790   19.6290   29.7250 N   0  0  0  0  0  0  0  0  0  0  0  0
   39.0900   20.4010   29.9340 C   0  0  0  0  0  0  0  0  0  0  0  0
   39.6560   20.7520   28.7650 N   0  0  0  0  0  0  0  0  0  0  0  0
   38.9140   20.2070   27.7550 C   0  0  0  0  0  0  0  0  0  0  0  0
   39.1550   20.3260   26.4050 C   0  0  0  0  0  0  0  0  0  0  0  0
   38.2630   19.6820   25.5980 N   0  0  0  0  0  0  0  0  0  0  0  0
   37.2300   18.9880   26.1470 C   0  0  0  0  0  0  0  0  0  0  0  0
   37.0810   18.9330   27.4810 N   0  0  0  0  0  0  0  0  0  0  0  0
   37.8870   19.5200   28.3680 C   0  0  0  0  0  0  0  0  0  0  0  0
   40.2610   21.0720   25.9080 N   0  0  0  0  0  0  0  0  0  0  0  0
   35.8790   20.1120   31.3680 S   0  0  0  0  0  0  0  0  0  0  0  0
   34.6400   19.3570   31.6140 O   0  0  0  0  0  0  0  0  0  0  0  0
   35.6050   21.2660   30.3920 O   0  0  0  0  0  0  0  0  0  0  0  0
   36.6130   20.8460   32.7410 C   0  0  0  0  0  0  0  0  0  0  0  0
   35.9250   20.6340   33.9570 C   0  0  0  0  0  0  0  0  0  0  0  0
   36.4810   21.1770   35.0850 C   0  0  0  0  0  0  0  0  0  0  0  0
   37.6520   21.9020   35.0860 C   0  0  0  0  0  0  0  0  0  0  0  0
   38.2730   22.0730   33.8640 C   0  0  0  0  0  0  0  0  0  0  0  0
   37.7760   21.5560   32.6740 C   0  0  0  0  0  0  0  0  0  0  0  0
   39.9790   22.7760   37.7740 C   0  0  0  0  0  0  0  0  0  0  0  0
   39.1600   23.4930   38.6680 C   0  0  0  0  0  0  0  0  0  0  0  0
   37.8310   23.6570   38.3260 C   0  0  0  0  0  0  0  0  0  0  0  0
   37.3650   23.1320   37.1590 N   0  0  0  0  0  0  0  0  0  0  0  0
   38.1820   22.4520   36.3310 C   0  0  0  0  0  0  0  0  0  0  0  0
   39.4810   22.2700   36.6280 N   0  0  0  0  0  0  0  0  0  0  0  0
   38.2131   19.3540   32.3032 H   0  0  0  0  0  0  0  0  0  0  0  0
   37.9260   16.8338   32.8861 H   0  0  0  0  0  0  0  0  0  0  0  0
   36.7769   18.0759   33.3933 H   0  0  0  0  0  0  0  0  0  0  0  0
   36.3786   15.9194   31.4739 H   0  0  0  0  0  0  0  0  0  0  0  0
   35.1844   17.1135   31.9753 H   0  0  0  0  0  0  0  0  0  0  0  0
   35.4434   17.8978   29.7552 H   0  0  0  0  0  0  0  0  0  0  0  0
   37.0203   17.1419   29.5485 H   0  0  0  0  0  0  0  0  0  0  0  0
   39.4688   20.6947   30.9241 H   0  0  0  0  0  0  0  0  0  0  0  0
   36.5124   18.4687   25.4948 H   0  0  0  0  0  0  0  0  0  0  0  0
   40.4184   21.1450   24.8927 H   0  0  0  0  0  0  0  0  0  0  0  0
   40.9038   21.5387   26.5637 H   0  0  0  0  0  0  0  0  0  0  0  0
   34.9874   20.0601   33.9959 H   0  0  0  0  0  0  0  0  0  0  0  0
   35.9633   21.0255   36.0436 H   0  0  0  0  0  0  0  0  0  0  0  0
   39.2099   22.6485   33.8313 H   0  0  0  0  0  0  0  0  0  0  0  0
   38.2980   21.7125   31.7185 H   0  0  0  0  0  0  0  0  0  0  0  0
   41.0419   22.6266   38.0148 H   0  0  0  0  0  0  0  0  0  0  0  0
   39.5633   23.9071   39.6039 H   0  0  0  0  0  0  0  0  0  0  0  0
   37.1528   24.2090   38.9933 H   0  0  0  0  0  0  0  0  0  0  0  0
  1  2  1  0
  3  2  1  0
  4  5  1  0
  4  3  1  0
  5 16  1  0
  5  1  1  0
  6  7  1  0
  5  6  1  6
  8  7  2  0
  9 14  2  0
  9  8  1  0
 10  9  1  0
 11 12  1  0
 11 10  2  0
 12 13  2  0
 13 14  1  0
 14  6  1  0
 15 10  1  0
 16 17  2  0
 16 19  1  0
 18 16  2  0
 19 20  2  0
 20 21  1  0
 21 22  2  0
 22 29  1  0
 23 22  1  0
 24 19  1  0
 24 23  2  0
 25 26  2  0
 27 26  1  0
 28 27  2  0
 29 30  2  0
 29 28  1  0
 30 25  1  0
  1 31  1  0
  2 32  1  0
  2 33  1  0
  3 34  1  0
  3 35  1  0
  4 36  1  0
  4 37  1  0
  7 38  1  0
 12 39  1  0
 15 40  1  0
 15 41  1  0
 20 42  1  0
 21 43  1  0
 23 44  1  0
 24 45  1  0
 25 46  1  0
 26 47  1  0
 27 48  1  0
M  ISO  8  31   5  32  13  33  13  34  13  35  13  36  13  37  13  38  14
M  ISO  8  39  14  42  14  43  14  44  14  45  14  46  14  47  14  48  14
M  END
>  <minimizedAffinity>  (1) 
-4.59268856

>  <minimizedRMSD>  (1) 
1.27674711

$$$$
