
     RDKit          3D

 37 39  0  0  1  0  0  0  0  0999 V2000
   36.5750   21.1720   32.8620 C   0  0  0  0  0  0  0  0  0  0  0  0
   36.0410   20.7240   34.0920 C   0  0  0  0  0  0  0  0  0  0  0  0
   36.5910   21.2470   35.2320 C   0  0  0  0  0  0  0  0  0  0  0  0
   37.6190   22.1710   35.2300 C   0  0  0  0  0  0  0  0  0  0  0  0
   38.0900   22.5630   33.9970 C   0  0  0  0  0  0  0  0  0  0  0  0
   37.5890   22.0820   32.7880 C   0  0  0  0  0  0  0  0  0  0  0  0
   39.9210   22.8740   37.9860 C   0  0  0  0  0  0  0  0  0  0  0  0
   39.1350   23.6580   38.8530 C   0  0  0  0  0  0  0  0  0  0  0  0
   37.8390   23.9240   38.4700 C   0  0  0  0  0  0  0  0  0  0  0  0
   37.3680   23.4300   37.2900 N   0  0  0  0  0  0  0  0  0  0  0  0
   38.1530   22.6850   36.4890 C   0  0  0  0  0  0  0  0  0  0  0  0
   39.4200   22.4030   36.8250 N   0  0  0  0  0  0  0  0  0  0  0  0
   35.8520   20.4530   31.4750 S   0  0  0  0  0  0  0  0  0  0  0  0
   34.7750   19.4840   31.7210 O   0  0  0  0  0  0  0  0  0  0  0  0
   35.3350   21.6300   30.6310 O   0  0  0  0  0  0  0  0  0  0  0  0
   38.0230   18.9930   31.5570 N   0  0  0  0  0  0  0  0  0  0  0  0
   37.3770   17.8560   32.0940 C   0  0  0  0  0  0  0  0  0  0  0  0
   36.4190   17.4000   31.0180 C   0  0  0  0  0  0  0  0  0  0  0  0
   36.5930   18.4160   29.8830 C   0  0  0  0  0  0  0  0  0  0  0  0
   37.1220   19.6220   30.5500 C   0  0  1  0  0  0  0  0  0  0  0  0
   38.0410   20.5290   29.8500 C   0  0  0  0  0  0  0  0  0  0  0  0
   38.6270   20.1320   28.8760 O   0  0  0  0  0  0  0  0  0  0  0  0
   35.2225   19.9901   34.1315 H   0  0  0  0  0  0  0  0  0  0  0  0
   36.1931   20.9137   36.2018 H   0  0  0  0  0  0  0  0  0  0  0  0
   38.9082   23.2975   33.9639 H   0  0  0  0  0  0  0  0  0  0  0  0
   37.9916   22.4197   31.8216 H   0  0  0  0  0  0  0  0  0  0  0  0
   40.9607   22.6418   38.2600 H   0  0  0  0  0  0  0  0  0  0  0  0
   39.5409   24.0432   39.8000 H   0  0  0  0  0  0  0  0  0  0  0  0
   37.1867   24.5325   39.1136 H   0  0  0  0  0  0  0  0  0  0  0  0
   38.2242   19.6658   32.3105 H   0  0  0  0  0  0  0  0  0  0  0  0
   38.1092   17.0664   32.3186 H   0  0  0  0  0  0  0  0  0  0  0  0
   36.8582   18.0846   33.0366 H   0  0  0  0  0  0  0  0  0  0  0  0
   36.6759   16.3872   30.6743 H   0  0  0  0  0  0  0  0  0  0  0  0
   35.3808   17.3538   31.3786 H   0  0  0  0  0  0  0  0  0  0  0  0
   35.6281   18.6296   29.4000 H   0  0  0  0  0  0  0  0  0  0  0  0
   37.2598   18.0486   29.0890 H   0  0  0  0  0  0  0  0  0  0  0  0
   38.1919   21.5572   30.2107 H   0  0  0  0  0  0  0  0  0  0  0  0
  1  2  2  0
  2  3  1  0
  4  3  2  0
  4 11  1  0
  5  4  1  0
  6  1  1  0
  6  5  2  0
  7  8  2  0
  9  8  1  0
 10  9  2  0
 11 12  2  0
 11 10  1  0
 12  7  1  0
 13 14  2  0
 13  1  1  0
 15 13  2  0
 16 17  1  0
 18 17  1  0
 19 20  1  0
 19 18  1  0
 20 21  1  6
 20 13  1  0
 20 16  1  0
 22 21  2  0
  2 23  1  0
  3 24  1  0
  5 25  1  0
  6 26  1  0
  7 27  1  0
  8 28  1  0
  9 29  1  0
 16 30  1  0
 17 31  1  0
 17 32  1  0
 18 33  1  0
 18 34  1  0
 19 35  1  0
 19 36  1  0
 21 37  1  0
M  ISO  8  23  14  24  14  25  14  26  14  27  14  28  14  29  14  30   5
M  ISO  7  31  13  32  13  33  13  34  13  35  13  36  13  37   6
M  END
>  <minimizedAffinity>  (1) 
-4.51558256

>  <minimizedRMSD>  (1) 
0.5235309

$$$$
