
     RDKit          3D

 44 46  0  0  1  0  0  0  0  0999 V2000
   36.5700   21.1370   32.8620 C   0  0  0  0  0  0  0  0  0  0  0  0
   36.0430   20.6920   34.0930 C   0  0  0  0  0  0  0  0  0  0  0  0
   36.5890   21.2270   35.2280 C   0  0  0  0  0  0  0  0  0  0  0  0
   37.6190   22.1700   35.2120 C   0  0  0  0  0  0  0  0  0  0  0  0
   38.0710   22.5470   33.9850 C   0  0  0  0  0  0  0  0  0  0  0  0
   37.5650   22.0490   32.7950 C   0  0  0  0  0  0  0  0  0  0  0  0
   39.9180   22.8740   37.9790 C   0  0  0  0  0  0  0  0  0  0  0  0
   39.1310   23.6540   38.8400 C   0  0  0  0  0  0  0  0  0  0  0  0
   37.8170   23.9260   38.4530 C   0  0  0  0  0  0  0  0  0  0  0  0
   37.3540   23.4310   37.2710 N   0  0  0  0  0  0  0  0  0  0  0  0
   38.1450   22.6850   36.4730 C   0  0  0  0  0  0  0  0  0  0  0  0
   39.4270   22.3990   36.8140 N   0  0  0  0  0  0  0  0  0  0  0  0
   35.9000   20.4110   31.4560 S   0  0  0  0  0  0  0  0  0  0  0  0
   34.7380   19.5110   31.7030 O   0  0  0  0  0  0  0  0  0  0  0  0
   35.4220   21.5800   30.5800 O   0  0  0  0  0  0  0  0  0  0  0  0
   37.9510   18.8590   31.6660 N   0  0  0  0  0  0  0  0  0  0  0  0
   37.2520   17.7700   32.2140 C   0  0  0  0  0  0  0  0  0  0  0  0
   36.2990   17.3170   31.1310 C   0  0  0  0  0  0  0  0  0  0  0  0
   36.5450   18.2830   29.9700 C   0  0  0  0  0  0  0  0  0  0  0  0
   37.1250   19.4920   30.6040 C   0  0  1  0  0  0  0  0  0  0  0  0
   38.1690   20.2650   29.8580 C   0  0  0  0  0  0  0  0  0  0  0  0
   39.4850   20.1680   30.6220 C   0  0  0  0  0  0  0  0  0  0  0  0
   38.3970   19.8420   28.4490 C   0  0  0  0  0  0  0  0  0  0  0  0
   35.2319   19.9503   34.1381 H   0  0  0  0  0  0  0  0  0  0  0  0
   36.1970   20.8978   36.2017 H   0  0  0  0  0  0  0  0  0  0  0  0
   38.8826   23.2878   33.9351 H   0  0  0  0  0  0  0  0  0  0  0  0
   37.9611   22.3857   31.8256 H   0  0  0  0  0  0  0  0  0  0  0  0
   40.9568   22.6446   38.2589 H   0  0  0  0  0  0  0  0  0  0  0  0
   39.5355   24.0383   39.7880 H   0  0  0  0  0  0  0  0  0  0  0  0
   37.1627   24.5334   39.0956 H   0  0  0  0  0  0  0  0  0  0  0  0
   38.1473   19.5486   32.4055 H   0  0  0  0  0  0  0  0  0  0  0  0
   37.9477   16.9598   32.4777 H   0  0  0  0  0  0  0  0  0  0  0  0
   36.7204   18.0480   33.1360 H   0  0  0  0  0  0  0  0  0  0  0  0
   36.5188   16.2825   30.8284 H   0  0  0  0  0  0  0  0  0  0  0  0
   35.2515   17.3271   31.4667 H   0  0  0  0  0  0  0  0  0  0  0  0
   35.6007   18.5267   29.4612 H   0  0  0  0  0  0  0  0  0  0  0  0
   37.2091   17.8544   29.2050 H   0  0  0  0  0  0  0  0  0  0  0  0
   37.7882   21.2951   29.7953 H   0  0  0  0  0  0  0  0  0  0  0  0
   39.2832   20.1829   31.7032 H   0  0  0  0  0  0  0  0  0  0  0  0
   39.9946   19.2299   30.3570 H   0  0  0  0  0  0  0  0  0  0  0  0
   40.1266   21.0213   30.3570 H   0  0  0  0  0  0  0  0  0  0  0  0
   38.9189   18.8738   28.4367 H   0  0  0  0  0  0  0  0  0  0  0  0
   37.4297   19.7437   27.9346 H   0  0  0  0  0  0  0  0  0  0  0  0
   39.0109   20.5960   27.9346 H   0  0  0  0  0  0  0  0  0  0  0  0
  1  2  2  0
  2  3  1  0
  4  3  2  0
  4 11  1  0
  5  4  1  0
  6  1  1  0
  6  5  2  0
  7  8  2  0
  9  8  1  0
 10  9  2  0
 11 12  2  0
 11 10  1  0
 12  7  1  0
 13 14  2  0
 13  1  1  0
 15 13  2  0
 16 17  1  0
 18 17  1  0
 19 20  1  0
 19 18  1  0
 20 21  1  6
 20 13  1  0
 20 16  1  0
 21 22  1  0
 23 21  1  0
  2 24  1  0
  3 25  1  0
  5 26  1  0
  6 27  1  0
  7 28  1  0
  8 29  1  0
  9 30  1  0
 16 31  1  0
 17 32  1  0
 17 33  1  0
 18 34  1  0
 18 35  1  0
 19 36  1  0
 19 37  1  0
 21 38  1  0
 22 39  1  0
 22 40  1  0
 22 41  1  0
 23 42  1  0
 23 43  1  0
 23 44  1  0
M  ISO  8  24  14  25  14  26  14  27  14  28  14  29  14  30  14  31   5
M  ISO  8  32  13  33  13  34  13  35  13  36  13  37  13  38   8  39   8
M  ISO  5  40   8  41   8  42   8  43   8  44   8
M  END
>  <minimizedAffinity>  (1) 
-4.50909662

>  <minimizedRMSD>  (1) 
0.604368687

$$$$
