
     RDKit          3D

 26 27  0  0  1  0  0  0  0  0999 V2000
   39.5750   23.7660   36.0960 C   0  0  2  0  0  0  0  0  0  0  0  0
   40.9970   23.4550   35.6960 C   0  0  0  0  0  0  0  0  0  0  0  0
   41.3160   22.2600   36.5300 C   0  0  0  0  0  0  0  0  0  0  0  0
   40.5860   22.5540   37.8090 C   0  0  0  0  0  0  0  0  0  0  0  0
   39.2300   22.9530   37.2800 C   0  0  1  0  0  0  0  0  0  0  0  0
   38.6810   23.4360   34.9380 C   0  0  0  0  0  0  0  0  0  0  0  0
   38.4060   24.3780   33.9070 C   0  0  0  0  0  0  0  0  0  0  0  0
   37.5640   23.9880   32.8690 C   0  0  0  0  0  0  0  0  0  0  0  0
   37.0530   22.7340   32.8940 N   0  0  0  0  0  0  0  0  0  0  0  0
   37.3310   21.8600   33.8830 C   0  0  0  0  0  0  0  0  0  0  0  0
   38.1350   22.2190   34.8850 N   0  0  0  0  0  0  0  0  0  0  0  0
   38.3810   23.6500   38.2990 C   0  0  0  0  0  0  0  0  0  0  0  0
   37.9540   24.8330   37.7110 F   0  0  0  0  0  0  0  0  0  0  0  0
   39.0320   23.9060   39.4710 F   0  0  0  0  0  0  0  0  0  0  0  0
   37.2720   22.8810   38.5960 F   0  0  0  0  0  0  0  0  0  0  0  0
   39.4528   24.8287   36.3524 H   0  0  0  0  0  0  0  0  0  0  0  0
   41.0655   23.2204   34.6235 H   0  0  0  0  0  0  0  0  0  0  0  0
   41.6893   24.2953   35.8529 H   0  0  0  0  0  0  0  0  0  0  0  0
   40.9427   21.3372   36.0620 H   0  0  0  0  0  0  0  0  0  0  0  0
   42.3949   22.0961   36.6679 H   0  0  0  0  0  0  0  0  0  0  0  0
   40.5230   21.6639   38.4522 H   0  0  0  0  0  0  0  0  0  0  0  0
   41.0677   23.3136   38.4423 H   0  0  0  0  0  0  0  0  0  0  0  0
   38.5873   22.0991   37.0197 H   0  0  0  0  0  0  0  0  0  0  0  0
   38.8463   25.3858   33.9297 H   0  0  0  0  0  0  0  0  0  0  0  0
   37.3201   24.6804   32.0498 H   0  0  0  0  0  0  0  0  0  0  0  0
   36.8944   20.8505   33.8633 H   0  0  0  0  0  0  0  0  0  0  0  0
  1  5  1  0
  2  1  1  0
  2  3  1  0
  3  4  1  0
  5  4  1  0
  5 12  1  0
  6  1  1  0
  7  6  2  0
  8  9  2  0
  8  7  1  0
  9 10  1  0
 10 11  2  0
 11  6  1  0
 12 15  1  0
 12 14  1  0
 13 12  1  0
  1 16  1  1
  2 17  1  0
  2 18  1  0
  3 19  1  0
  3 20  1  0
  4 21  1  0
  4 22  1  0
  5 23  1  6
  7 24  1  0
  8 25  1  0
 10 26  1  0
M  ISO  8  16  13  17  13  18  13  19  13  20  13  21  13  22  13  23  13
M  ISO  3  24  14  25  14  26  14
M  END
>  <minimizedAffinity>  (1) 
-4.67502928

>  <minimizedRMSD>  (1) 
3.91583037

$$$$
