
     RDKit          3D

 29 30  0  0  1  0  0  0  0  0999 V2000
   40.9270   23.3020   35.4950 C   0  0  2  0  0  0  0  0  0  0  0  0
   41.7970   22.1990   36.0810 C   0  0  0  0  0  0  0  0  0  0  0  0
   43.0380   22.9410   36.5040 C   0  0  0  0  0  0  0  0  0  0  0  0
   43.1740   23.9770   35.4100 C   0  0  0  0  0  0  0  0  0  0  0  0
   41.7680   24.5050   35.3420 C   0  0  1  0  0  0  0  0  0  0  0  0
   39.7820   23.5350   36.4310 C   0  0  0  0  0  0  0  0  0  0  0  0
   39.7840   22.9850   37.7360 C   0  0  0  0  0  0  0  0  0  0  0  0
   38.6810   23.2450   38.5490 C   0  0  0  0  0  0  0  0  0  0  0  0
   37.6730   24.0080   38.0410 N   0  0  0  0  0  0  0  0  0  0  0  0
   37.7090   24.5180   36.7830 C   0  0  0  0  0  0  0  0  0  0  0  0
   38.7600   24.2790   35.9880 N   0  0  0  0  0  0  0  0  0  0  0  0
   41.4980   25.3300   34.1090 C   0  0  0  0  0  0  0  0  0  0  0  0
   40.9960   26.7060   34.4030 C   0  0  0  0  0  0  0  0  0  0  0  0
   40.5176   23.0344   34.5097 H   0  0  0  0  0  0  0  0  0  0  0  0
   41.3065   21.7236   36.9432 H   0  0  0  0  0  0  0  0  0  0  0  0
   41.9987   21.3815   35.3732 H   0  0  0  0  0  0  0  0  0  0  0  0
   42.9047   23.4142   37.4881 H   0  0  0  0  0  0  0  0  0  0  0  0
   43.9226   22.2970   36.6171 H   0  0  0  0  0  0  0  0  0  0  0  0
   43.8892   24.7657   35.6866 H   0  0  0  0  0  0  0  0  0  0  0  0
   43.5584   23.5840   34.4572 H   0  0  0  0  0  0  0  0  0  0  0  0
   41.5477   25.2372   36.1328 H   0  0  0  0  0  0  0  0  0  0  0  0
   40.6254   22.3745   38.0956 H   0  0  0  0  0  0  0  0  0  0  0  0
   38.6264   22.8450   39.5723 H   0  0  0  0  0  0  0  0  0  0  0  0
   36.8719   25.1297   36.4155 H   0  0  0  0  0  0  0  0  0  0  0  0
   40.7444   24.8084   33.5007 H   0  0  0  0  0  0  0  0  0  0  0  0
   42.4574   25.4442   33.5832 H   0  0  0  0  0  0  0  0  0  0  0  0
   40.9427   26.8520   35.4920 H   0  0  0  0  0  0  0  0  0  0  0  0
   41.6816   27.4474   33.9668 H   0  0  0  0  0  0  0  0  0  0  0  0
   39.9941   26.8318   33.9668 H   0  0  0  0  0  0  0  0  0  0  0  0
  1  2  1  0
  1  6  1  0
  2  3  1  0
  4  3  1  0
  5  4  1  0
  5  1  1  0
  6  7  2  0
  7  8  1  0
  9  8  2  0
 10  9  1  0
 11  6  1  0
 11 10  2  0
 12 13  1  0
 12  5  1  0
  1 14  1  6
  2 15  1  0
  2 16  1  0
  3 17  1  0
  3 18  1  0
  4 19  1  0
  4 20  1  0
  5 21  1  1
  7 22  1  0
  8 23  1  0
 10 24  1  0
 12 25  1  0
 12 26  1  0
 13 27  1  0
 13 28  1  0
 13 29  1  0
M  ISO  8  14  13  15  13  16  13  17  13  18  13  19  13  20  13  21  13
M  ISO  8  22  14  23  14  24  14  25   8  26   8  27   8  28   8  29   8
M  END
>  <minimizedAffinity>  (1) 
-3.68030286

>  <minimizedRMSD>  (1) 
3.59531665

$$$$
