
     RDKit          3D

 26 27  0  0  1  0  0  0  0  0999 V2000
   41.4150   22.5890   36.9960 C   0  0  2  0  0  0  0  0  0  0  0  0
   41.9230   23.6890   36.0800 C   0  0  0  0  0  0  0  0  0  0  0  0
   42.3960   22.9240   34.8740 C   0  0  0  0  0  0  0  0  0  0  0  0
   42.9400   21.6610   35.4660 C   0  0  0  0  0  0  0  0  0  0  0  0
   41.8490   21.2950   36.4520 C   0  0  1  0  0  0  0  0  0  0  0  0
   39.9250   22.7110   37.0520 C   0  0  0  0  0  0  0  0  0  0  0  0
   39.2700   23.2720   38.1850 C   0  0  0  0  0  0  0  0  0  0  0  0
   37.8740   23.3480   38.1560 C   0  0  0  0  0  0  0  0  0  0  0  0
   37.2170   22.8840   37.0550 N   0  0  0  0  0  0  0  0  0  0  0  0
   37.8760   22.3600   36.0020 C   0  0  0  0  0  0  0  0  0  0  0  0
   39.2110   22.2700   35.9900 N   0  0  0  0  0  0  0  0  0  0  0  0
   42.5140   20.4340   37.5060 C   0  0  0  0  0  0  0  0  0  0  0  0
   41.8147   22.6708   38.0176 H   0  0  0  0  0  0  0  0  0  0  0  0
   41.1163   24.3882   35.8147 H   0  0  0  0  0  0  0  0  0  0  0  0
   42.7070   24.3103   36.5376 H   0  0  0  0  0  0  0  0  0  0  0  0
   43.1799   23.4783   34.3371 H   0  0  0  0  0  0  0  0  0  0  0  0
   41.6012   22.7479   34.1342 H   0  0  0  0  0  0  0  0  0  0  0  0
   43.0682   20.8812   34.7008 H   0  0  0  0  0  0  0  0  0  0  0  0
   43.9360   21.7711   35.9197 H   0  0  0  0  0  0  0  0  0  0  0  0
   40.9908   20.7446   36.0391 H   0  0  0  0  0  0  0  0  0  0  0  0
   39.8420   23.6329   39.0525 H   0  0  0  0  0  0  0  0  0  0  0  0
   37.3173   23.7734   39.0040 H   0  0  0  0  0  0  0  0  0  0  0  0
   37.3042   21.9989   35.1345 H   0  0  0  0  0  0  0  0  0  0  0  0
   42.2339   20.7967   38.5060 H   0  0  0  0  0  0  0  0  0  0  0  0
   42.1847   19.3910   37.3887 H   0  0  0  0  0  0  0  0  0  0  0  0
   43.6063   20.4890   37.3887 H   0  0  0  0  0  0  0  0  0  0  0  0
  1  6  1  0
  2  1  1  0
  3  4  1  0
  3  2  1  0
  4  5  1  0
  5  1  1  0
  5 12  1  0
  6  7  2  0
  8  7  1  0
  9  8  2  0
 10  9  1  0
 11 10  2  0
 11  6  1  0
  1 13  1  1
  2 14  1  0
  2 15  1  0
  3 16  1  0
  3 17  1  0
  4 18  1  0
  4 19  1  0
  5 20  1  6
  7 21  1  0
  8 22  1  0
 10 23  1  0
 12 24  1  0
 12 25  1  0
 12 26  1  0
M  ISO  8  13  13  14  13  15  13  16  13  17  13  18  13  19  13  20  13
M  ISO  6  21  14  22  14  23  14  24   8  25   8  26   8
M  END
>  <minimizedAffinity>  (1) 
-3.64486885

>  <minimizedRMSD>  (1) 
0.637918293

$$$$
