
     RDKit          3D

 48 52  0  0  0  0  0  0  0  0999 V2000
   36.9660   21.9270   35.9550 C   0  0  0  0  0  0  0  0  0  0  0  0
   35.9000   21.1500   35.7310 C   0  0  0  0  0  0  0  0  0  0  0  0
   35.5930   20.5550   34.5570 C   0  0  0  0  0  0  0  0  0  0  0  0
   36.5750   20.8620   33.5470 C   0  0  0  0  0  0  0  0  0  0  0  0
   37.8280   21.9710   34.3950 S   0  0  0  0  0  0  0  0  0  0  0  0
   36.7440   20.4890   32.1700 C   0  0  0  0  0  0  0  0  0  0  0  0
   35.9630   19.5790   31.5250 C   0  0  0  0  0  0  0  0  0  0  0  0
   36.7430   19.5320   29.8030 S   0  0  0  0  0  0  0  0  0  0  0  0
   38.0000   20.8050   30.3610 C   0  0  0  0  0  0  0  0  0  0  0  0
   37.6650   20.9490   31.4100 N   0  0  0  0  0  0  0  0  0  0  0  0
   39.0100   21.2640   29.4090 N   0  0  0  0  0  0  0  0  0  0  0  0
   39.7550   20.5530   28.5770 C   0  0  0  0  0  0  0  0  0  0  0  0
   40.5480   21.4210   27.8920 N   0  0  0  0  0  0  0  0  0  0  0  0
   40.2670   22.6810   28.3300 C   0  0  0  0  0  0  0  0  0  0  0  0
   40.7640   23.9140   27.9890 C   0  0  0  0  0  0  0  0  0  0  0  0
   40.2830   25.0250   28.6080 N   0  0  0  0  0  0  0  0  0  0  0  0
   39.3170   24.8950   29.5570 C   0  0  0  0  0  0  0  0  0  0  0  0
   38.8050   23.6870   29.9160 N   0  0  0  0  0  0  0  0  0  0  0  0
   39.2740   22.5750   29.3100 C   0  0  0  0  0  0  0  0  0  0  0  0
   41.7830   24.0370   26.9870 N   0  0  0  0  0  0  0  0  0  0  0  0
   37.2560   22.5790   37.2250 C   0  0  0  0  0  0  0  0  0  0  0  0
   38.1500   23.7840   37.1230 C   0  0  0  0  0  0  0  0  0  0  0  0
   41.4390   21.9930   37.2340 C   0  0  0  0  0  0  0  0  0  0  0  0
   40.1410   22.3390   37.5670 C   0  0  0  0  0  0  0  0  0  0  0  0
   39.5080   23.3630   36.8420 C   0  0  0  0  0  0  0  0  0  0  0  0
   40.2100   23.9630   35.8450 N   0  0  0  0  0  0  0  0  0  0  0  0
   41.4780   23.6030   35.5440 C   0  0  0  0  0  0  0  0  0  0  0  0
   42.0800   22.6200   36.2410 N   0  0  0  0  0  0  0  0  0  0  0  0
   38.1520   24.4900   38.4760 C   0  0  0  0  0  0  0  0  0  0  0  0
   37.5620   24.6930   36.0690 C   0  0  0  0  0  0  0  0  0  0  0  0
   35.2147   20.9810   36.5747 H   0  0  0  0  0  0  0  0  0  0  0  0
   34.7099   19.9199   34.3935 H   0  0  0  0  0  0  0  0  0  0  0  0
   35.0993   19.0154   31.9077 H   0  0  0  0  0  0  0  0  0  0  0  0
   39.7363   19.4593   28.4606 H   0  0  0  0  0  0  0  0  0  0  0  0
   38.9359   25.8002   30.0523 H   0  0  0  0  0  0  0  0  0  0  0  0
   42.1502   24.9663   26.7373 H   0  0  0  0  0  0  0  0  0  0  0  0
   42.1475   23.1960   26.5172 H   0  0  0  0  0  0  0  0  0  0  0  0
   36.3027   22.8965   37.6727 H   0  0  0  0  0  0  0  0  0  0  0  0
   37.7969   21.8417   37.8364 H   0  0  0  0  0  0  0  0  0  0  0  0
   41.9492   21.1939   37.7918 H   0  0  0  0  0  0  0  0  0  0  0  0
   39.6150   21.8225   38.3834 H   0  0  0  0  0  0  0  0  0  0  0  0
   42.0171   24.1119   34.7314 H   0  0  0  0  0  0  0  0  0  0  0  0
   38.1499   23.7402   39.2808 H   0  0  0  0  0  0  0  0  0  0  0  0
   39.0519   25.1168   38.5612 H   0  0  0  0  0  0  0  0  0  0  0  0
   37.2556   25.1219   38.5612 H   0  0  0  0  0  0  0  0  0  0  0  0
   37.0264   25.5210   36.5563 H   0  0  0  0  0  0  0  0  0  0  0  0
   38.3699   25.0977   35.4417 H   0  0  0  0  0  0  0  0  0  0  0  0
   36.8617   24.1221   35.4417 H   0  0  0  0  0  0  0  0  0  0  0  0
  1 21  1  0
  2  1  2  0
  3  2  1  0
  4  5  1  0
  4  3  2  0
  5  1  1  0
  6  4  1  0
  7  6  2  0
  8  9  1  0
  8  7  1  0
  9 10  2  0
 10  6  1  0
 11  9  1  0
 12 11  1  0
 13 14  1  0
 13 12  2  0
 14 19  2  0
 15 14  1  0
 15 16  2  0
 16 17  1  0
 17 18  2  0
 19 11  1  0
 19 18  1  0
 20 15  1  0
 22 21  1  0
 22 29  1  0
 23 24  2  0
 25 22  1  0
 25 24  1  0
 26 25  2  0
 27 26  1  0
 27 28  2  0
 28 23  1  0
 30 22  1  0
  2 31  1  0
  3 32  1  0
  7 33  1  0
 12 34  1  0
 17 35  1  0
 20 36  1  0
 20 37  1  0
 21 38  1  0
 21 39  1  0
 23 40  1  0
 24 41  1  0
 27 42  1  0
 29 43  1  0
 29 44  1  0
 29 45  1  0
 30 46  1  0
 30 47  1  0
 30 48  1  0
M  ISO  8  31  14  32  14  33  14  34  14  35  14  38   8  39   8  40  14
M  ISO  8  41  14  42  14  43   8  44   8  45   8  46   8  47   8  48   8
M  END
>  <minimizedAffinity>  (1) 
-5.33694458

>  <minimizedRMSD>  (1) 
0.171979606

$$$$
