
     RDKit          3D

 36 38  0  0  1  0  0  0  0  0999 V2000
   43.2210   22.8400   36.6910 C   0  0  2  0  0  0  0  0  0  0  0  0
   43.8660   21.7140   35.8990 C   0  0  0  0  0  0  0  0  0  0  0  0
   42.7160   21.2020   35.0960 C   0  0  0  0  0  0  0  0  0  0  0  0
   41.5640   21.3340   36.0420 C   0  0  0  0  0  0  0  0  0  0  0  0
   41.7490   22.7590   36.5340 C   0  0  1  0  0  0  0  0  0  0  0  0
   43.7570   24.1220   36.1860 C   0  0  0  0  0  0  0  0  0  0  0  0
   44.9220   24.7290   36.7390 C   0  0  0  0  0  0  0  0  0  0  0  0
   45.3590   25.9330   36.2070 C   0  0  0  0  0  0  0  0  0  0  0  0
   44.6510   26.4760   35.1770 N   0  0  0  0  0  0  0  0  0  0  0  0
   43.5460   25.8760   34.6690 C   0  0  0  0  0  0  0  0  0  0  0  0
   43.1160   24.7220   35.1700 N   0  0  0  0  0  0  0  0  0  0  0  0
   41.0330   23.0080   37.6810 O   0  0  0  0  0  0  0  0  0  0  0  0
   38.8700   22.7410   38.5750 N   0  0  0  0  0  0  0  0  0  0  0  0
   37.6360   23.4040   38.2800 C   0  0  0  0  0  0  0  0  0  0  0  0
   37.7520   24.0160   36.9010 C   0  0  0  0  0  0  0  0  0  0  0  0
   39.2230   23.9690   36.5580 C   0  0  0  0  0  0  0  0  0  0  0  0
   39.6880   22.7990   37.3910 C   0  0  1  0  0  0  0  0  0  0  0  0
   43.4493   22.7604   37.7641 H   0  0  0  0  0  0  0  0  0  0  0  0
   44.6702   22.0912   35.2502 H   0  0  0  0  0  0  0  0  0  0  0  0
   44.3452   20.9480   36.5264 H   0  0  0  0  0  0  0  0  0  0  0  0
   42.5598   21.8124   34.1943 H   0  0  0  0  0  0  0  0  0  0  0  0
   42.8635   20.1748   34.7311 H   0  0  0  0  0  0  0  0  0  0  0  0
   40.6013   21.2077   35.5251 H   0  0  0  0  0  0  0  0  0  0  0  0
   41.5472   20.5787   36.8415 H   0  0  0  0  0  0  0  0  0  0  0  0
   41.3629   23.5333   35.8548 H   0  0  0  0  0  0  0  0  0  0  0  0
   45.4630   24.2527   37.5700 H   0  0  0  0  0  0  0  0  0  0  0  0
   46.2525   26.4358   36.6055 H   0  0  0  0  0  0  0  0  0  0  0  0
   43.0020   26.3471   33.8371 H   0  0  0  0  0  0  0  0  0  0  0  0
   39.3464   23.2160   39.3549 H   0  0  0  0  0  0  0  0  0  0  0  0
   36.8090   22.6789   38.2982 H   0  0  0  0  0  0  0  0  0  0  0  0
   37.4329   24.1841   39.0284 H   0  0  0  0  0  0  0  0  0  0  0  0
   37.1690   23.4338   36.1722 H   0  0  0  0  0  0  0  0  0  0  0  0
   37.3613   25.0440   36.8777 H   0  0  0  0  0  0  0  0  0  0  0  0
   39.3799   23.7859   35.4847 H   0  0  0  0  0  0  0  0  0  0  0  0
   39.7614   24.9066   36.7608 H   0  0  0  0  0  0  0  0  0  0  0  0
   39.5895   21.8354   36.8698 H   0  0  0  0  0  0  0  0  0  0  0  0
  2  1  1  0
  3  2  1  0
  3  4  1  0
  4  5  1  0
  5  1  1  0
  5 12  1  0
  6  1  1  0
  6  7  2  0
  8  7  1  0
  9  8  2  0
 10 11  2  0
 10  9  1  0
 11  6  1  0
 14 13  1  0
 15 14  1  0
 16 15  1  0
 16 17  1  0
 17 12  1  0
 17 13  1  0
  1 18  1  1
  2 19  1  0
  2 20  1  0
  3 21  1  0
  3 22  1  0
  4 23  1  0
  4 24  1  0
  5 25  1  6
  7 26  1  0
  8 27  1  0
 10 28  1  0
 13 29  1  0
 14 30  1  0
 14 31  1  0
 15 32  1  0
 15 33  1  0
 16 34  1  0
 16 35  1  0
 17 36  1  6
M  ISO  8  18  13  19  13  20  13  21  13  22  13  23  13  24  13  25  13
M  ISO  8  26  14  27  14  28  14  29   5  30  13  31  13  32  13  33  13
M  ISO  3  34  13  35  13  36  13
M  END
>  <minimizedAffinity>  (1) 
-4.25617933

>  <minimizedRMSD>  (1) 
5.30338335

$$$$
