
     RDKit          3D

 43 46  0  0  1  0  0  0  0  0999 V2000
   42.9210   23.6120   36.4020 C   0  0  2  0  0  0  0  0  0  0  0  0
   44.1760   22.7630   36.1730 C   0  0  0  0  0  0  0  0  0  0  0  0
   43.5550   21.4790   35.7990 C   0  0  0  0  0  0  0  0  0  0  0  0
   42.3950   21.4320   36.8080 C   0  0  0  0  0  0  0  0  0  0  0  0
   41.7220   22.7720   36.4350 C   0  0  1  0  0  0  0  0  0  0  0  0
   42.8650   24.6260   35.3490 C   0  0  0  0  0  0  0  0  0  0  0  0
   43.8830   25.6250   35.1840 C   0  0  0  0  0  0  0  0  0  0  0  0
   43.7200   26.5440   34.1430 C   0  0  0  0  0  0  0  0  0  0  0  0
   42.6100   26.4360   33.3570 N   0  0  0  0  0  0  0  0  0  0  0  0
   41.6640   25.4680   33.5540 C   0  0  0  0  0  0  0  0  0  0  0  0
   41.7980   24.5820   34.5370 N   0  0  0  0  0  0  0  0  0  0  0  0
   40.9100   22.9500   37.4670 O   0  0  0  0  0  0  0  0  0  0  0  0
   38.8180   22.6190   38.3680 N   0  0  0  0  0  0  0  0  0  0  0  0
   37.6200   23.4120   38.3320 C   0  0  0  0  0  0  0  0  0  0  0  0
   37.6800   24.2430   37.0820 C   0  0  0  0  0  0  0  0  0  0  0  0
   39.1750   24.3620   36.8250 C   0  0  0  0  0  0  0  0  0  0  0  0
   39.5960   22.9390   37.2210 C   0  0  1  0  0  0  0  0  0  0  0  0
   39.0290   22.0300   36.1700 C   0  0  0  0  0  0  0  0  0  0  0  0
   39.4970   22.0590   34.7010 C   0  0  0  0  0  0  0  0  0  0  0  0
   38.0960   22.3100   35.1000 C   0  0  0  0  0  0  0  0  0  0  0  0
   42.9650   24.1139   37.3799 H   0  0  0  0  0  0  0  0  0  0  0  0
   44.7988   23.1666   35.3611 H   0  0  0  0  0  0  0  0  0  0  0  0
   44.8625   22.7119   37.0310 H   0  0  0  0  0  0  0  0  0  0  0  0
   43.1915   21.4896   34.7609 H   0  0  0  0  0  0  0  0  0  0  0  0
   44.2316   20.6124   35.8338 H   0  0  0  0  0  0  0  0  0  0  0  0
   41.7308   20.5718   36.6379 H   0  0  0  0  0  0  0  0  0  0  0  0
   42.6812   21.3158   37.8637 H   0  0  0  0  0  0  0  0  0  0  0  0
   41.1323   22.9184   35.5180 H   0  0  0  0  0  0  0  0  0  0  0  0
   44.7571   25.6657   35.8506 H   0  0  0  0  0  0  0  0  0  0  0  0
   44.4659   27.3321   33.9627 H   0  0  0  0  0  0  0  0  0  0  0  0
   40.7852   25.4218   32.8941 H   0  0  0  0  0  0  0  0  0  0  0  0
   39.3521   22.8324   39.2225 H   0  0  0  0  0  0  0  0  0  0  0  0
   36.7353   22.7588   38.3091 H   0  0  0  0  0  0  0  0  0  0  0  0
   37.5454   24.0507   39.2245 H   0  0  0  0  0  0  0  0  0  0  0  0
   37.1737   23.7379   36.2462 H   0  0  0  0  0  0  0  0  0  0  0  0
   37.1775   25.2163   37.1826 H   0  0  0  0  0  0  0  0  0  0  0  0
   39.3968   24.5800   35.7699 H   0  0  0  0  0  0  0  0  0  0  0  0
   39.6858   25.1750   37.3617 H   0  0  0  0  0  0  0  0  0  0  0  0
   38.9978   21.3304   37.0183 H   0  0  0  0  0  0  0  0  0  0  0  0
   39.7713   21.1272   34.1847 H   0  0  0  0  0  0  0  0  0  0  0  0
   40.2657   22.5930   34.1231 H   0  0  0  0  0  0  0  0  0  0  0  0
   37.6792   23.3229   34.9987 H   0  0  0  0  0  0  0  0  0  0  0  0
   37.1341   21.8681   34.8009 H   0  0  0  0  0  0  0  0  0  0  0  0
  1  5  1  0
  2  1  1  0
  3  2  1  0
  3  4  1  0
  5  4  1  0
  5 12  1  0
  6  1  1  0
  7  6  2  0
  8  7  1  0
  9 10  1  0
  9  8  2  0
 10 11  2  0
 11  6  1  0
 14 13  1  0
 15 14  1  0
 16 15  1  0
 16 17  1  0
 17 12  1  1
 17 13  1  0
 18 17  1  0
 19 20  1  0
 19 18  1  0
 20 18  1  0
  1 21  1  1
  2 22  1  0
  2 23  1  0
  3 24  1  0
  3 25  1  0
  4 26  1  0
  4 27  1  0
  5 28  1  6
  7 29  1  0
  8 30  1  0
 10 31  1  0
 13 32  1  0
 14 33  1  0
 14 34  1  0
 15 35  1  0
 15 36  1  0
 16 37  1  0
 16 38  1  0
 18 39  1  0
 19 40  1  0
 19 41  1  0
 20 42  1  0
 20 43  1  0
M  ISO  8  21  13  22  13  23  13  24  13  25  13  26  13  27  13  28  13
M  ISO  8  29  14  30  14  31  14  32   5  33  13  34  13  35  13  36  13
M  ISO  7  37  13  38  13  39  13  40  13  41  13  42  13  43  13
M  END
>  <minimizedAffinity>  (1) 
-4.45008659

>  <minimizedRMSD>  (1) 
1.35696316

$$$$
