
     RDKit          3D

 41 43  0  0  1  0  0  0  0  0999 V2000
   42.8070   23.0330   36.5310 C   0  0  2  0  0  0  0  0  0  0  0  0
   43.6130   21.7920   36.1580 C   0  0  0  0  0  0  0  0  0  0  0  0
   42.8740   21.3110   34.9950 C   0  0  0  0  0  0  0  0  0  0  0  0
   41.4330   21.6090   35.3340 C   0  0  0  0  0  0  0  0  0  0  0  0
   41.5460   23.0750   35.8210 C   0  0  1  0  0  0  0  0  0  0  0  0
   43.6400   24.2180   36.2970 C   0  0  0  0  0  0  0  0  0  0  0  0
   44.5220   24.7660   37.2880 C   0  0  0  0  0  0  0  0  0  0  0  0
   45.2540   25.9010   36.9310 C   0  0  0  0  0  0  0  0  0  0  0  0
   45.0910   26.4180   35.6810 N   0  0  0  0  0  0  0  0  0  0  0  0
   44.2380   25.8640   34.7670 C   0  0  0  0  0  0  0  0  0  0  0  0
   43.5260   24.7800   35.0780 N   0  0  0  0  0  0  0  0  0  0  0  0
   40.4470   23.3090   36.5400 O   0  0  0  0  0  0  0  0  0  0  0  0
   38.5690   24.6450   36.7470 N   0  0  0  0  0  0  0  0  0  0  0  0
   38.0080   25.7270   36.0020 C   0  0  0  0  0  0  0  0  0  0  0  0
   38.9230   25.9910   34.8240 C   0  0  0  0  0  0  0  0  0  0  0  0
   40.0810   25.0290   34.9590 C   0  0  0  0  0  0  0  0  0  0  0  0
   39.4970   23.9970   35.8650 C   0  0  1  0  0  0  0  0  0  0  0  0
   38.5130   23.1310   35.1140 C   0  0  0  0  0  0  0  0  0  0  0  0
   37.9710   22.2230   35.8420 O   0  0  0  0  0  0  0  0  0  0  0  0
   37.5840   22.2770   34.5000 O   0  0  0  0  0  0  0  0  0  0  0  0
   42.5388   23.0051   37.5974 H   0  0  0  0  0  0  0  0  0  0  0  0
   44.6506   22.0486   35.8981 H   0  0  0  0  0  0  0  0  0  0  0  0
   43.7068   21.0548   36.9690 H   0  0  0  0  0  0  0  0  0  0  0  0
   43.0276   20.2311   34.8525 H   0  0  0  0  0  0  0  0  0  0  0  0
   43.1978   21.7886   34.0585 H   0  0  0  0  0  0  0  0  0  0  0  0
   40.7836   21.5251   34.4501 H   0  0  0  0  0  0  0  0  0  0  0  0
   40.9854   20.9197   36.0651 H   0  0  0  0  0  0  0  0  0  0  0  0
   41.5724   23.8950   35.0882 H   0  0  0  0  0  0  0  0  0  0  0  0
   44.6174   24.3119   38.2853 H   0  0  0  0  0  0  0  0  0  0  0  0
   45.9483   26.3681   37.6450 H   0  0  0  0  0  0  0  0  0  0  0  0
   44.1384   26.3153   33.7688 H   0  0  0  0  0  0  0  0  0  0  0  0
   39.0569   25.0002   37.5817 H   0  0  0  0  0  0  0  0  0  0  0  0
   37.0038   25.4559   35.6442 H   0  0  0  0  0  0  0  0  0  0  0  0
   37.9173   26.6248   36.6311 H   0  0  0  0  0  0  0  0  0  0  0  0
   39.2859   27.0291   34.8493 H   0  0  0  0  0  0  0  0  0  0  0  0
   38.3953   25.8484   33.8694 H   0  0  0  0  0  0  0  0  0  0  0  0
   40.3629   24.5987   33.9867 H   0  0  0  0  0  0  0  0  0  0  0  0
   41.0073   25.4877   35.3353 H   0  0  0  0  0  0  0  0  0  0  0  0
   37.7177   23.7758   34.7119 H   0  0  0  0  0  0  0  0  0  0  0  0
   39.0744   22.6170   34.3198 H   0  0  0  0  0  0  0  0  0  0  0  0
   36.6051   22.4136   34.4441 H   0  0  0  0  0  0  0  0  0  0  0  0
  2  1  1  0
  3  4  1  0
  3  2  1  0
  4  5  1  0
  5  1  1  0
  5 12  1  0
  6  1  1  0
  6  7  2  0
  8  7  1  0
  9  8  2  0
 10 11  2  0
 10  9  1  0
 11  6  1  0
 14 13  1  0
 15 16  1  0
 15 14  1  0
 16 17  1  0
 17 18  1  0
 17 12  1  1
 17 13  1  0
 18 19  1  0
 20 19  1  0
  1 21  1  1
  2 22  1  0
  2 23  1  0
  3 24  1  0
  3 25  1  0
  4 26  1  0
  4 27  1  0
  5 28  1  6
  7 29  1  0
  8 30  1  0
 10 31  1  0
 13 32  1  0
 14 33  1  0
 14 34  1  0
 15 35  1  0
 15 36  1  0
 16 37  1  0
 16 38  1  0
 18 39  1  0
 18 40  1  0
 20 41  1  0
M  ISO  8  21  13  22  13  23  13  24  13  25  13  26  13  27  13  28  13
M  ISO  8  29  14  30  14  31  14  32   5  33  13  34  13  35  13  36  13
M  ISO  5  37  13  38  13  39   8  40   8  41   3
M  END
>  <minimizedAffinity>  (1) 
-4.17241144

>  <minimizedRMSD>  (1) 
1.73035538

$$$$
