
     RDKit          3D

 31 34  0  0  0  0  0  0  0  0999 V2000
   39.7750   22.7900   37.8330 C   0  0  0  0  0  0  0  0  0  0  0  0
   38.8220   23.4910   38.5890 C   0  0  0  0  0  0  0  0  0  0  0  0
   37.7500   24.0730   37.8910 C   0  0  0  0  0  0  0  0  0  0  0  0
   37.6970   23.9280   36.5410 N   0  0  0  0  0  0  0  0  0  0  0  0
   38.6350   23.2460   35.8520 C   0  0  0  0  0  0  0  0  0  0  0  0
   39.6690   22.6810   36.5020 N   0  0  0  0  0  0  0  0  0  0  0  0
   38.5960   23.0830   34.4340 N   0  0  0  0  0  0  0  0  0  0  0  0
   38.9790   22.0430   33.6570 C   0  0  0  0  0  0  0  0  0  0  0  0
   38.7370   22.3810   32.3800 N   0  0  0  0  0  0  0  0  0  0  0  0
   38.2080   23.6110   32.3020 C   0  0  0  0  0  0  0  0  0  0  0  0
   37.7950   24.3900   31.2270 C   0  0  0  0  0  0  0  0  0  0  0  0
   37.2990   25.6110   31.5320 N   0  0  0  0  0  0  0  0  0  0  0  0
   37.2210   26.0200   32.7940 C   0  0  0  0  0  0  0  0  0  0  0  0
   37.6200   25.2750   33.8580 N   0  0  0  0  0  0  0  0  0  0  0  0
   38.1250   24.0440   33.6150 C   0  0  0  0  0  0  0  0  0  0  0  0
   36.6760   27.3470   33.0590 C   0  0  0  0  0  0  0  0  0  0  0  0
   36.6070   27.8600   34.3570 C   0  0  0  0  0  0  0  0  0  0  0  0
   36.0960   29.0980   34.5870 C   0  0  0  0  0  0  0  0  0  0  0  0
   35.6440   29.8570   33.5340 C   0  0  0  0  0  0  0  0  0  0  0  0
   35.6960   29.3860   32.2380 C   0  0  0  0  0  0  0  0  0  0  0  0
   36.2160   28.1270   32.0130 C   0  0  0  0  0  0  0  0  0  0  0  0
   40.6276   22.3199   38.3449 H   0  0  0  0  0  0  0  0  0  0  0  0
   38.9107   23.5809   39.6817 H   0  0  0  0  0  0  0  0  0  0  0  0
   36.9701   24.6343   38.4264 H   0  0  0  0  0  0  0  0  0  0  0  0
   39.4100   21.0937   34.0077 H   0  0  0  0  0  0  0  0  0  0  0  0
   37.8674   24.0341   30.1887 H   0  0  0  0  0  0  0  0  0  0  0  0
   36.9701   27.2555   35.2013 H   0  0  0  0  0  0  0  0  0  0  0  0
   36.0443   29.4915   35.6129 H   0  0  0  0  0  0  0  0  0  0  0  0
   35.2331   30.8587   33.7280 H   0  0  0  0  0  0  0  0  0  0  0  0
   35.3309   30.0006   31.4019 H   0  0  0  0  0  0  0  0  0  0  0  0
   36.2654   27.7377   30.9854 H   0  0  0  0  0  0  0  0  0  0  0  0
  1  2  2  0
  3  2  1  0
  4  3  2  0
  5  6  2  0
  5  4  1  0
  6  1  1  0
  7  5  1  0
  8  7  1  0
  9  8  2  0
 10  9  1  0
 10 15  2  0
 11 12  2  0
 11 10  1  0
 12 13  1  0
 13 16  1  0
 13 14  2  0
 15 14  1  0
 15  7  1  0
 16 17  2  0
 17 18  1  0
 19 18  2  0
 20 19  1  0
 21 20  2  0
 21 16  1  0
  1 22  1  0
  2 23  1  0
  3 24  1  0
  8 25  1  0
 11 26  1  0
 17 27  1  0
 18 28  1  0
 19 29  1  0
 20 30  1  0
 21 31  1  0
M  ISO  8  22  14  23  14  24  14  25  14  26  14  27  14  28  14  29  14
M  ISO  2  30  14  31  14
M  END
>  <minimizedAffinity>  (1) 
-5.6955061

>  <minimizedRMSD>  (1) 
2.28667569

$$$$
