
     RDKit          3D

 30 33  0  0  0  0  0  0  0  0999 V2000
   39.9150   22.6400   37.6570 C   0  0  0  0  0  0  0  0  0  0  0  0
   38.9580   23.3590   38.4140 C   0  0  0  0  0  0  0  0  0  0  0  0
   37.8690   23.8880   37.7370 C   0  0  0  0  0  0  0  0  0  0  0  0
   37.7680   23.6980   36.3970 N   0  0  0  0  0  0  0  0  0  0  0  0
   38.7060   23.0030   35.7070 C   0  0  0  0  0  0  0  0  0  0  0  0
   39.7680   22.4820   36.3410 N   0  0  0  0  0  0  0  0  0  0  0  0
   38.6260   22.7870   34.2980 N   0  0  0  0  0  0  0  0  0  0  0  0
   38.9940   21.7360   33.5380 C   0  0  0  0  0  0  0  0  0  0  0  0
   38.7090   22.0240   32.2620 N   0  0  0  0  0  0  0  0  0  0  0  0
   38.1530   23.2560   32.1680 C   0  0  0  0  0  0  0  0  0  0  0  0
   37.7000   23.9730   31.0730 C   0  0  0  0  0  0  0  0  0  0  0  0
   37.2000   25.1850   31.3420 N   0  0  0  0  0  0  0  0  0  0  0  0
   37.1530   25.6460   32.5980 C   0  0  0  0  0  0  0  0  0  0  0  0
   37.5890   24.9590   33.6750 N   0  0  0  0  0  0  0  0  0  0  0  0
   38.1080   23.7240   33.4660 C   0  0  0  0  0  0  0  0  0  0  0  0
   36.5940   26.9860   32.8520 C   0  0  0  0  0  0  0  0  0  0  0  0
   36.7520   27.5740   34.1080 C   0  0  0  0  0  0  0  0  0  0  0  0
   36.2330   28.8250   34.3540 C   0  0  0  0  0  0  0  0  0  0  0  0
   35.5480   29.5380   33.3960 C   0  0  0  0  0  0  0  0  0  0  0  0
   35.4240   28.9020   32.1740 C   0  0  0  0  0  0  0  0  0  0  0  0
   35.9190   27.6820   31.9040 N   0  0  0  0  0  0  0  0  0  0  0  0
   40.7911   22.2062   38.1612 H   0  0  0  0  0  0  0  0  0  0  0  0
   39.0741   23.4931   39.4996 H   0  0  0  0  0  0  0  0  0  0  0  0
   37.0973   24.4541   38.2792 H   0  0  0  0  0  0  0  0  0  0  0  0
   39.4494   20.8036   33.9030 H   0  0  0  0  0  0  0  0  0  0  0  0
   37.7480   23.5727   30.0496 H   0  0  0  0  0  0  0  0  0  0  0  0
   37.2918   27.0372   34.9020 H   0  0  0  0  0  0  0  0  0  0  0  0
   36.3703   29.2704   35.3504 H   0  0  0  0  0  0  0  0  0  0  0  0
   35.1309   30.5376   33.5878 H   0  0  0  0  0  0  0  0  0  0  0  0
   34.8859   29.4284   31.3719 H   0  0  0  0  0  0  0  0  0  0  0  0
  1  2  2  0
  3  2  1  0
  4  3  2  0
  5  6  2  0
  5  4  1  0
  6  1  1  0
  7  5  1  0
  8  7  1  0
  9  8  2  0
 10  9  1  0
 10 15  2  0
 11 12  2  0
 11 10  1  0
 12 13  1  0
 13 16  1  0
 13 14  2  0
 15 14  1  0
 15  7  1  0
 16 17  2  0
 17 18  1  0
 19 18  2  0
 20 19  1  0
 21 20  2  0
 21 16  1  0
  1 22  1  0
  2 23  1  0
  3 24  1  0
  8 25  1  0
 11 26  1  0
 17 27  1  0
 18 28  1  0
 19 29  1  0
 20 30  1  0
M  ISO  8  22  14  23  14  24  14  25  14  26  14  27  14  28  14  29  14
M  ISO  1  30  14
M  END
>  <minimizedAffinity>  (1) 
-5.58215475

>  <minimizedRMSD>  (1) 
2.60909271

$$$$
