
     RDKit          3D

 28 31  0  0  0  0  0  0  0  0999 V2000
   39.8660   22.6900   37.7690 C   0  0  0  0  0  0  0  0  0  0  0  0
   38.9780   23.4250   38.5610 C   0  0  0  0  0  0  0  0  0  0  0  0
   37.8880   23.9750   37.9040 C   0  0  0  0  0  0  0  0  0  0  0  0
   37.7340   23.7850   36.5650 N   0  0  0  0  0  0  0  0  0  0  0  0
   38.6270   23.0620   35.8420 C   0  0  0  0  0  0  0  0  0  0  0  0
   39.6860   22.5200   36.4500 N   0  0  0  0  0  0  0  0  0  0  0  0
   38.4860   22.8510   34.4500 N   0  0  0  0  0  0  0  0  0  0  0  0
   38.7990   21.7720   33.6880 C   0  0  0  0  0  0  0  0  0  0  0  0
   38.4790   22.0520   32.4190 N   0  0  0  0  0  0  0  0  0  0  0  0
   37.9590   23.2980   32.3270 C   0  0  0  0  0  0  0  0  0  0  0  0
   37.4880   24.0240   31.2410 C   0  0  0  0  0  0  0  0  0  0  0  0
   37.0350   25.2540   31.5170 N   0  0  0  0  0  0  0  0  0  0  0  0
   37.0490   25.7240   32.7710 C   0  0  0  0  0  0  0  0  0  0  0  0
   37.5000   25.0400   33.8440 N   0  0  0  0  0  0  0  0  0  0  0  0
   37.9720   23.7860   33.6210 C   0  0  0  0  0  0  0  0  0  0  0  0
   36.5280   27.0540   32.8800 N   0  0  0  0  0  0  0  0  0  0  0  0
   35.7360   27.4750   31.8920 N   0  0  0  0  0  0  0  0  0  0  0  0
   35.3210   28.7310   32.1210 C   0  0  0  0  0  0  0  0  0  0  0  0
   35.8860   29.1190   33.3210 C   0  0  0  0  0  0  0  0  0  0  0  0
   36.6480   28.0550   33.7960 C   0  0  0  0  0  0  0  0  0  0  0  0
   40.7460   22.2336   38.2457 H   0  0  0  0  0  0  0  0  0  0  0  0
   39.1351   23.5588   39.6415 H   0  0  0  0  0  0  0  0  0  0  0  0
   37.1479   24.5648   38.4647 H   0  0  0  0  0  0  0  0  0  0  0  0
   39.2391   20.8313   34.0505 H   0  0  0  0  0  0  0  0  0  0  0  0
   37.4870   23.6153   30.2197 H   0  0  0  0  0  0  0  0  0  0  0  0
   34.6608   29.3331   31.4794 H   0  0  0  0  0  0  0  0  0  0  0  0
   35.7568   30.0943   33.8130 H   0  0  0  0  0  0  0  0  0  0  0  0
   37.2321   28.0280   34.7277 H   0  0  0  0  0  0  0  0  0  0  0  0
  1  2  2  0
  3  2  1  0
  4  3  2  0
  5  6  2  0
  5  4  1  0
  6  1  1  0
  7  5  1  0
  8  7  1  0
  9  8  2  0
 10  9  1  0
 10 15  2  0
 11 12  2  0
 11 10  1  0
 12 13  1  0
 13 16  1  0
 13 14  2  0
 15 14  1  0
 15  7  1  0
 16 20  1  0
 17 18  2  0
 17 16  1  0
 18 19  1  0
 19 20  2  0
  1 21  1  0
  2 22  1  0
  3 23  1  0
  8 24  1  0
 11 25  1  0
 18 26  1  0
 19 27  1  0
 20 28  1  0
M  ISO  8  21  14  22  14  23  14  24  14  25  14  26  14  27  14  28  14
M  END
>  <minimizedAffinity>  (1) 
-5.53445101

>  <minimizedRMSD>  (1) 
2.40496373

$$$$
