
     RDKit          3D

 28 31  0  0  0  0  0  0  0  0999 V2000
   39.8570   22.7080   37.7590 C   0  0  0  0  0  0  0  0  0  0  0  0
   38.9480   23.4420   38.5460 C   0  0  0  0  0  0  0  0  0  0  0  0
   37.8590   24.0260   37.8960 C   0  0  0  0  0  0  0  0  0  0  0  0
   37.7310   23.8590   36.5510 N   0  0  0  0  0  0  0  0  0  0  0  0
   38.6140   23.1550   35.8360 C   0  0  0  0  0  0  0  0  0  0  0  0
   39.6780   22.5790   36.4430 N   0  0  0  0  0  0  0  0  0  0  0  0
   38.5270   22.9490   34.4220 N   0  0  0  0  0  0  0  0  0  0  0  0
   38.8590   21.9170   33.6360 C   0  0  0  0  0  0  0  0  0  0  0  0
   38.5690   22.2480   32.3690 N   0  0  0  0  0  0  0  0  0  0  0  0
   38.0470   23.4920   32.3060 C   0  0  0  0  0  0  0  0  0  0  0  0
   37.6070   24.2440   31.2250 C   0  0  0  0  0  0  0  0  0  0  0  0
   37.1410   25.4640   31.5340 N   0  0  0  0  0  0  0  0  0  0  0  0
   37.1160   25.8950   32.8010 C   0  0  0  0  0  0  0  0  0  0  0  0
   37.5400   25.1780   33.8650 N   0  0  0  0  0  0  0  0  0  0  0  0
   38.0280   23.9230   33.6160 C   0  0  0  0  0  0  0  0  0  0  0  0
   36.6330   27.1860   33.2070 N   0  0  0  0  0  0  0  0  0  0  0  0
   36.6120   27.7450   34.4230 C   0  0  0  0  0  0  0  0  0  0  0  0
   36.0550   29.0050   34.3460 C   0  0  0  0  0  0  0  0  0  0  0  0
   35.7250   29.2230   33.0580 N   0  0  0  0  0  0  0  0  0  0  0  0
   36.0800   28.1190   32.3870 C   0  0  0  0  0  0  0  0  0  0  0  0
   40.7273   22.2341   38.2364 H   0  0  0  0  0  0  0  0  0  0  0  0
   39.0907   23.5509   39.6313 H   0  0  0  0  0  0  0  0  0  0  0  0
   37.1177   24.6106   38.4606 H   0  0  0  0  0  0  0  0  0  0  0  0
   39.2938   20.9638   33.9711 H   0  0  0  0  0  0  0  0  0  0  0  0
   37.6381   23.8677   30.1918 H   0  0  0  0  0  0  0  0  0  0  0  0
   36.9826   27.2716   35.3442 H   0  0  0  0  0  0  0  0  0  0  0  0
   35.9074   29.7035   35.1828 H   0  0  0  0  0  0  0  0  0  0  0  0
   35.9410   27.9838   31.3042 H   0  0  0  0  0  0  0  0  0  0  0  0
  1  2  2  0
  3  2  1  0
  4  3  2  0
  5  6  2  0
  5  4  1  0
  6  1  1  0
  7  5  1  0
  8  7  1  0
  9  8  2  0
 10  9  1  0
 10 15  2  0
 11 12  2  0
 11 10  1  0
 12 13  1  0
 13 16  1  0
 13 14  2  0
 15 14  1  0
 15  7  1  0
 16 17  1  0
 18 17  2  0
 19 18  1  0
 20 19  2  0
 20 16  1  0
  1 21  1  0
  2 22  1  0
  3 23  1  0
  8 24  1  0
 11 25  1  0
 17 26  1  0
 18 27  1  0
 20 28  1  0
M  ISO  8  21  14  22  14  23  14  24  14  25  14  26  14  27  14  28  14
M  END
>  <minimizedAffinity>  (1) 
-5.39080048

>  <minimizedRMSD>  (1) 
2.22231531

$$$$
