
     RDKit          3D

 42 45  0  0  0  0  0  0  0  0999 V2000
   37.2480   22.5960   37.2240 C   0  0  0  0  0  0  0  0  0  0  0  0
   36.9530   21.9410   35.9560 C   0  0  0  0  0  0  0  0  0  0  0  0
   35.8730   21.1630   35.7440 C   0  0  0  0  0  0  0  0  0  0  0  0
   35.6010   20.5520   34.5590 C   0  0  0  0  0  0  0  0  0  0  0  0
   36.5870   20.8280   33.5660 C   0  0  0  0  0  0  0  0  0  0  0  0
   37.8330   21.9450   34.4110 S   0  0  0  0  0  0  0  0  0  0  0  0
   36.7500   20.4470   32.1950 C   0  0  0  0  0  0  0  0  0  0  0  0
   35.9930   19.5040   31.5680 C   0  0  0  0  0  0  0  0  0  0  0  0
   36.7320   19.4770   29.8350 S   0  0  0  0  0  0  0  0  0  0  0  0
   37.9510   20.8040   30.3560 C   0  0  0  0  0  0  0  0  0  0  0  0
   37.6360   20.9420   31.4130 N   0  0  0  0  0  0  0  0  0  0  0  0
   38.9270   21.3060   29.3830 N   0  0  0  0  0  0  0  0  0  0  0  0
   39.2720   22.5870   29.4100 N   0  0  0  0  0  0  0  0  0  0  0  0
   40.1760   22.8360   28.4370 C   0  0  0  0  0  0  0  0  0  0  0  0
   40.3700   21.6060   27.7990 C   0  0  0  0  0  0  0  0  0  0  0  0
   39.5630   20.6530   28.4220 C   0  0  0  0  0  0  0  0  0  0  0  0
   38.1580   23.7810   37.1270 C   0  0  0  0  0  0  0  0  0  0  0  0
   41.4460   21.9880   37.2430 C   0  0  0  0  0  0  0  0  0  0  0  0
   40.1470   22.3430   37.5690 C   0  0  0  0  0  0  0  0  0  0  0  0
   39.5140   23.3600   36.8380 C   0  0  0  0  0  0  0  0  0  0  0  0
   40.2190   23.9480   35.8380 N   0  0  0  0  0  0  0  0  0  0  0  0
   41.4800   23.5850   35.5400 C   0  0  0  0  0  0  0  0  0  0  0  0
   42.0850   22.6130   36.2390 N   0  0  0  0  0  0  0  0  0  0  0  0
   38.1580   24.4820   38.4860 C   0  0  0  0  0  0  0  0  0  0  0  0
   37.5620   24.6890   36.0720 C   0  0  0  0  0  0  0  0  0  0  0  0
   36.2973   22.9309   37.6645 H   0  0  0  0  0  0  0  0  0  0  0  0
   37.7760   21.8522   37.8389 H   0  0  0  0  0  0  0  0  0  0  0  0
   35.1707   21.0133   36.5773 H   0  0  0  0  0  0  0  0  0  0  0  0
   34.7198   19.9167   34.3863 H   0  0  0  0  0  0  0  0  0  0  0  0
   35.1606   18.9087   31.9714 H   0  0  0  0  0  0  0  0  0  0  0  0
   40.6552   23.7969   28.1984 H   0  0  0  0  0  0  0  0  0  0  0  0
   41.0445   21.4214   26.9499 H   0  0  0  0  0  0  0  0  0  0  0  0
   39.4740   19.5862   28.1688 H   0  0  0  0  0  0  0  0  0  0  0  0
   41.9556   21.1929   37.8071 H   0  0  0  0  0  0  0  0  0  0  0  0
   39.6192   21.8347   38.3894 H   0  0  0  0  0  0  0  0  0  0  0  0
   42.0162   24.0867   34.7210 H   0  0  0  0  0  0  0  0  0  0  0  0
   39.1951   24.6501   38.8119 H   0  0  0  0  0  0  0  0  0  0  0  0
   37.6395   25.4483   38.4001 H   0  0  0  0  0  0  0  0  0  0  0  0
   37.6395   23.8519   39.2236 H   0  0  0  0  0  0  0  0  0  0  0  0
   37.0212   25.5130   36.5604 H   0  0  0  0  0  0  0  0  0  0  0  0
   38.3668   25.0997   35.4446 H   0  0  0  0  0  0  0  0  0  0  0  0
   36.8651   24.1140   35.4446 H   0  0  0  0  0  0  0  0  0  0  0  0
  2  1  1  0
  3  2  2  0
  4  3  1  0
  5  6  1  0
  5  4  2  0
  6  2  1  0
  7  5  1  0
  8  7  2  0
  9 10  1  0
  9  8  1  0
 10 11  2  0
 11  7  1  0
 12 13  1  0
 12 10  1  0
 14 13  2  0
 15 16  2  0
 15 14  1  0
 16 12  1  0
 17  1  1  0
 17 24  1  0
 18 19  2  0
 20 17  1  0
 20 19  1  0
 21 20  2  0
 22 21  1  0
 22 23  2  0
 23 18  1  0
 25 17  1  0
  1 26  1  0
  1 27  1  0
  3 28  1  0
  4 29  1  0
  8 30  1  0
 14 31  1  0
 15 32  1  0
 16 33  1  0
 18 34  1  0
 19 35  1  0
 22 36  1  0
 24 37  1  0
 24 38  1  0
 24 39  1  0
 25 40  1  0
 25 41  1  0
 25 42  1  0
M  ISO  8  26   8  27   8  28  14  29  14  30  14  31  14  32  14  33  14
M  ISO  8  34  14  35  14  36  14  37   8  38   8  39   8  40   8  41   8
M  ISO  1  42   8
M  END
>  <minimizedAffinity>  (1) 
-4.92648029

>  <minimizedRMSD>  (1) 
0.153183788

$$$$
