
     RDKit          3D

 28 31  0  0  0  0  0  0  0  0999 V2000
   39.8770   22.6500   37.6710 C   0  0  0  0  0  0  0  0  0  0  0  0
   38.9510   23.3880   38.4210 C   0  0  0  0  0  0  0  0  0  0  0  0
   37.8630   23.9410   37.7300 C   0  0  0  0  0  0  0  0  0  0  0  0
   37.7810   23.7270   36.3950 N   0  0  0  0  0  0  0  0  0  0  0  0
   38.6890   23.0130   35.7060 C   0  0  0  0  0  0  0  0  0  0  0  0
   39.7430   22.4730   36.3510 N   0  0  0  0  0  0  0  0  0  0  0  0
   38.6190   22.7760   34.3000 N   0  0  0  0  0  0  0  0  0  0  0  0
   38.9780   21.7140   33.5520 C   0  0  0  0  0  0  0  0  0  0  0  0
   38.7020   22.0000   32.2630 N   0  0  0  0  0  0  0  0  0  0  0  0
   38.1670   23.2430   32.1710 C   0  0  0  0  0  0  0  0  0  0  0  0
   37.7340   23.9500   31.0590 C   0  0  0  0  0  0  0  0  0  0  0  0
   37.2490   25.1740   31.3150 N   0  0  0  0  0  0  0  0  0  0  0  0
   37.2020   25.6410   32.5670 C   0  0  0  0  0  0  0  0  0  0  0  0
   37.6230   24.9560   33.6550 N   0  0  0  0  0  0  0  0  0  0  0  0
   38.1250   23.7100   33.4600 C   0  0  0  0  0  0  0  0  0  0  0  0
   36.6800   26.9850   32.9460 C   0  0  0  0  0  0  0  0  0  0  0  0
   36.7290   27.5650   34.2460 C   0  0  0  0  0  0  0  0  0  0  0  0
   36.1870   28.8110   34.3580 C   0  0  0  0  0  0  0  0  0  0  0  0
   35.6520   29.4270   33.3000 C   0  0  0  0  0  0  0  0  0  0  0  0
   35.8320   28.2790   31.8760 S   0  0  0  0  0  0  0  0  0  0  0  0
   40.7412   22.2021   38.1834 H   0  0  0  0  0  0  0  0  0  0  0  0
   39.0724   23.5275   39.5053 H   0  0  0  0  0  0  0  0  0  0  0  0
   37.0987   24.5312   38.2567 H   0  0  0  0  0  0  0  0  0  0  0  0
   39.4187   20.7784   33.9268 H   0  0  0  0  0  0  0  0  0  0  0  0
   37.7847   23.5367   30.0408 H   0  0  0  0  0  0  0  0  0  0  0  0
   37.1754   27.0414   35.1043 H   0  0  0  0  0  0  0  0  0  0  0  0
   36.1902   29.3170   35.3347 H   0  0  0  0  0  0  0  0  0  0  0  0
   35.1931   30.4266   33.2842 H   0  0  0  0  0  0  0  0  0  0  0  0
  1  2  2  0
  3  2  1  0
  4  3  2  0
  5  6  2  0
  5  4  1  0
  6  1  1  0
  7  5  1  0
  8  7  1  0
  9  8  2  0
 10  9  1  0
 10 15  2  0
 11 12  2  0
 11 10  1  0
 12 13  1  0
 13 16  1  0
 13 14  2  0
 15 14  1  0
 15  7  1  0
 16 17  2  0
 17 18  1  0
 19 18  2  0
 20 16  1  0
 20 19  1  0
  1 21  1  0
  2 22  1  0
  3 23  1  0
  8 24  1  0
 11 25  1  0
 17 26  1  0
 18 27  1  0
 19 28  1  0
M  ISO  8  21  14  22  14  23  14  24  14  25  14  26  14  27  14  28  14
M  END
>  <minimizedAffinity>  (1) 
-5.29709005

>  <minimizedRMSD>  (1) 
2.52959037

$$$$
