
     RDKit          3D

 28 31  0  0  0  0  0  0  0  0999 V2000
   39.5160   24.9090   34.4570 C   0  0  0  0  0  0  0  0  0  0  0  0
   39.0210   24.7980   35.7810 C   0  0  0  0  0  0  0  0  0  0  0  0
   37.8070   25.4510   36.0640 C   0  0  0  0  0  0  0  0  0  0  0  0
   37.1850   26.1410   35.0740 N   0  0  0  0  0  0  0  0  0  0  0  0
   37.6920   26.2240   33.8200 C   0  0  0  0  0  0  0  0  0  0  0  0
   38.8400   25.6070   33.5460 N   0  0  0  0  0  0  0  0  0  0  0  0
   37.0480   26.9370   32.7820 N   0  0  0  0  0  0  0  0  0  0  0  0
   36.9730   26.6720   31.4510 C   0  0  0  0  0  0  0  0  0  0  0  0
   36.2360   27.6500   30.8860 N   0  0  0  0  0  0  0  0  0  0  0  0
   35.8350   28.5410   31.8220 C   0  0  0  0  0  0  0  0  0  0  0  0
   35.0720   29.6960   31.7260 C   0  0  0  0  0  0  0  0  0  0  0  0
   34.8640   30.3530   32.8730 N   0  0  0  0  0  0  0  0  0  0  0  0
   35.3660   29.9070   34.0210 C   0  0  0  0  0  0  0  0  0  0  0  0
   36.1100   28.7860   34.1430 N   0  0  0  0  0  0  0  0  0  0  0  0
   36.3550   28.0740   33.0060 C   0  0  0  0  0  0  0  0  0  0  0  0
   35.0490   30.7360   35.1810 C   0  0  0  0  0  0  0  0  0  0  0  0
   33.8090   31.0260   35.7190 C   0  0  0  0  0  0  0  0  0  0  0  0
   34.0580   31.8460   36.8020 C   0  0  0  0  0  0  0  0  0  0  0  0
   35.4140   32.0030   36.8550 N   0  0  0  0  0  0  0  0  0  0  0  0
   35.9910   31.3400   35.8890 N   0  0  0  0  0  0  0  0  0  0  0  0
   40.4607   24.4174   34.1815 H   0  0  0  0  0  0  0  0  0  0  0  0
   39.5609   24.2278   36.5513 H   0  0  0  0  0  0  0  0  0  0  0  0
   37.3688   25.4031   37.0718 H   0  0  0  0  0  0  0  0  0  0  0  0
   37.4294   25.8172   30.9305 H   0  0  0  0  0  0  0  0  0  0  0  0
   34.6639   30.0492   30.7675 H   0  0  0  0  0  0  0  0  0  0  0  0
   32.8296   30.6769   35.3599 H   0  0  0  0  0  0  0  0  0  0  0  0
   33.3146   32.2842   37.4842 H   0  0  0  0  0  0  0  0  0  0  0  0
   35.9122   32.5661   37.5590 H   0  0  0  0  0  0  0  0  0  0  0  0
  1  2  2  0
  2  3  1  0
  4  3  2  0
  5  4  1  0
  6  5  2  0
  6  1  1  0
  7 15  1  0
  7  5  1  0
  8  7  1  0
  9  8  2  0
  9 10  1  0
 10 15  2  0
 11 10  1  0
 11 12  2  0
 12 13  1  0
 13 14  2  0
 13 16  1  0
 15 14  1  0
 16 17  1  0
 16 20  2  0
 17 18  2  0
 18 19  1  0
 20 19  1  0
  1 21  1  0
  2 22  1  0
  3 23  1  0
  8 24  1  0
 11 25  1  0
 17 26  1  0
 18 27  1  0
 19 28  1  0
M  ISO  8  21  14  22  14  23  14  24  14  25  14  26  14  27  14  28   9
M  END
>  <minimizedAffinity>  (1) 
-5.2336278

>  <minimizedRMSD>  (1) 
3.0647521

$$$$
