
     RDKit          3D

 33 35  0  0  0  0  0  0  0  0999 V2000
   39.6980   22.6700   37.6030 C   0  0  0  0  0  0  0  0  0  0  0  0
   38.9510   23.6180   38.3360 C   0  0  0  0  0  0  0  0  0  0  0  0
   37.9360   24.2980   37.6440 C   0  0  0  0  0  0  0  0  0  0  0  0
   37.7420   24.0020   36.3380 N   0  0  0  0  0  0  0  0  0  0  0  0
   38.4680   23.0940   35.6660 C   0  0  0  0  0  0  0  0  0  0  0  0
   39.4360   22.4440   36.3150 N   0  0  0  0  0  0  0  0  0  0  0  0
   38.2650   22.7840   34.2980 N   0  0  0  0  0  0  0  0  0  0  0  0
   38.3940   21.6040   33.6340 C   0  0  0  0  0  0  0  0  0  0  0  0
   38.0840   21.8350   32.3540 N   0  0  0  0  0  0  0  0  0  0  0  0
   37.7570   23.1310   32.1600 C   0  0  0  0  0  0  0  0  0  0  0  0
   37.3800   23.8170   31.0160 C   0  0  0  0  0  0  0  0  0  0  0  0
   37.1320   25.1250   31.1940 N   0  0  0  0  0  0  0  0  0  0  0  0
   37.2490   25.6890   32.3960 C   0  0  0  0  0  0  0  0  0  0  0  0
   37.6120   25.0390   33.5180 N   0  0  0  0  0  0  0  0  0  0  0  0
   37.8770   23.7160   33.4040 C   0  0  0  0  0  0  0  0  0  0  0  0
   36.9550   27.1620   32.5240 C   0  0  0  0  0  0  0  0  0  0  0  0
   35.6300   27.5160   31.8870 C   0  0  0  0  0  0  0  0  0  0  0  0
   36.8950   27.5990   33.9720 C   0  0  0  0  0  0  0  0  0  0  0  0
   38.0090   27.9610   31.7650 C   0  0  0  0  0  0  0  0  0  0  0  0
   40.5051   22.1117   38.0999 H   0  0  0  0  0  0  0  0  0  0  0  0
   39.1547   23.8145   39.3990 H   0  0  0  0  0  0  0  0  0  0  0  0
   37.3149   25.0516   38.1503 H   0  0  0  0  0  0  0  0  0  0  0  0
   38.6967   20.6400   34.0687 H   0  0  0  0  0  0  0  0  0  0  0  0
   37.2906   23.3267   30.0354 H   0  0  0  0  0  0  0  0  0  0  0  0
   34.8867   27.7146   32.6731 H   0  0  0  0  0  0  0  0  0  0  0  0
   35.7516   28.4132   31.2622 H   0  0  0  0  0  0  0  0  0  0  0  0
   35.2879   26.6777   31.2622 H   0  0  0  0  0  0  0  0  0  0  0  0
   37.0154   26.7220   34.6250 H   0  0  0  0  0  0  0  0  0  0  0  0
   37.7028   28.3185   34.1716 H   0  0  0  0  0  0  0  0  0  0  0  0
   35.9232   28.0741   34.1716 H   0  0  0  0  0  0  0  0  0  0  0  0
   38.6738   28.4649   32.4820 H   0  0  0  0  0  0  0  0  0  0  0  0
   38.5993   27.2815   31.1327 H   0  0  0  0  0  0  0  0  0  0  0  0
   37.5142   28.7129   31.1327 H   0  0  0  0  0  0  0  0  0  0  0  0
  1  2  2  0
  3  2  1  0
  4  3  2  0
  5  6  2  0
  5  4  1  0
  6  1  1  0
  7  5  1  0
  8  7  1  0
  9  8  2  0
 10  9  1  0
 10 15  2  0
 11 12  2  0
 11 10  1  0
 12 13  1  0
 13 16  1  0
 13 14  2  0
 15 14  1  0
 15  7  1  0
 16 18  1  0
 17 16  1  0
 19 16  1  0
  1 20  1  0
  2 21  1  0
  3 22  1  0
  8 23  1  0
 11 24  1  0
 17 25  1  0
 17 26  1  0
 17 27  1  0
 18 28  1  0
 18 29  1  0
 18 30  1  0
 19 31  1  0
 19 32  1  0
 19 33  1  0
M  ISO  8  20  14  21  14  22  14  23  14  24  14  25   8  26   8  27   8
M  ISO  6  28   8  29   8  30   8  31   8  32   8  33   8
M  END
>  <minimizedAffinity>  (1) 
-4.97385645

>  <minimizedRMSD>  (1) 
2.48887992

$$$$
