
     RDKit          3D

 24 26  0  0  0  0  0  0  0  0999 V2000
   39.7590   22.7700   37.7890 C   0  0  0  0  0  0  0  0  0  0  0  0
   38.9470   23.3500   38.7740 C   0  0  0  0  0  0  0  0  0  0  0  0
   37.8710   24.1160   38.3440 C   0  0  0  0  0  0  0  0  0  0  0  0
   37.6490   24.2740   37.0060 N   0  0  0  0  0  0  0  0  0  0  0  0
   38.4520   23.7000   36.0920 C   0  0  0  0  0  0  0  0  0  0  0  0
   39.4880   22.9620   36.4950 N   0  0  0  0  0  0  0  0  0  0  0  0
   38.2570   23.8390   34.6890 N   0  0  0  0  0  0  0  0  0  0  0  0
   38.4770   22.9790   33.6700 C   0  0  0  0  0  0  0  0  0  0  0  0
   38.1330   23.5820   32.5310 N   0  0  0  0  0  0  0  0  0  0  0  0
   37.6860   24.8260   32.7660 C   0  0  0  0  0  0  0  0  0  0  0  0
   37.2180   25.8390   31.9280 C   0  0  0  0  0  0  0  0  0  0  0  0
   36.8500   26.9790   32.5270 N   0  0  0  0  0  0  0  0  0  0  0  0
   36.9310   27.1210   33.8520 C   0  0  0  0  0  0  0  0  0  0  0  0
   37.3790   26.1600   34.6820 N   0  0  0  0  0  0  0  0  0  0  0  0
   37.7690   24.9820   34.1450 C   0  0  0  0  0  0  0  0  0  0  0  0
   36.5170   28.3780   34.4440 C   0  0  0  0  0  0  0  0  0  0  0  0
   35.5870   29.0950   33.9560 O   0  0  0  0  0  0  0  0  0  0  0  0
   37.0720   28.9290   35.5790 O   0  0  0  0  0  0  0  0  0  0  0  0
   40.6222   22.1547   38.0827 H   0  0  0  0  0  0  0  0  0  0  0  0
   39.1538   23.2042   39.8445 H   0  0  0  0  0  0  0  0  0  0  0  0
   37.2023   24.5920   39.0763 H   0  0  0  0  0  0  0  0  0  0  0  0
   38.8721   21.9567   33.7638 H   0  0  0  0  0  0  0  0  0  0  0  0
   37.1549   25.7086   30.8376 H   0  0  0  0  0  0  0  0  0  0  0  0
   36.7357   29.7935   35.9249 H   0  0  0  0  0  0  0  0  0  0  0  0
  1  2  2  0
  3  2  1  0
  4  3  2  0
  5  6  2  0
  5  4  1  0
  6  1  1  0
  7  5  1  0
  8  7  1  0
  9 10  1  0
  9  8  2  0
 10 15  2  0
 11 12  2  0
 11 10  1  0
 12 13  1  0
 13 16  1  0
 13 14  2  0
 15 14  1  0
 15  7  1  0
 16 18  1  0
 17 16  2  0
  1 19  1  0
  2 20  1  0
  3 21  1  0
  8 22  1  0
 11 23  1  0
 18 24  1  0
M  ISO  6  19  14  20  14  21  14  22  14  23  14  24   3
M  END
>  <minimizedAffinity>  (1) 
-4.79691935

>  <minimizedRMSD>  (1) 
0.859557033

$$$$
