
     RDKit          3D

 36 40  0  0  0  0  0  0  0  0999 V2000
   39.7370   22.7440   37.6180 C   0  0  0  0  0  0  0  0  0  0  0  0
   38.9040   23.6200   38.3400 C   0  0  0  0  0  0  0  0  0  0  0  0
   37.8820   24.2080   37.6420 C   0  0  0  0  0  0  0  0  0  0  0  0
   37.7200   23.9280   36.3210 N   0  0  0  0  0  0  0  0  0  0  0  0
   38.5500   23.0710   35.6580 C   0  0  0  0  0  0  0  0  0  0  0  0
   39.5330   22.5020   36.3170 N   0  0  0  0  0  0  0  0  0  0  0  0
   38.3740   22.7510   34.2900 N   0  0  0  0  0  0  0  0  0  0  0  0
   38.5410   21.5870   33.6290 C   0  0  0  0  0  0  0  0  0  0  0  0
   38.1820   21.7860   32.3370 N   0  0  0  0  0  0  0  0  0  0  0  0
   37.7840   23.0660   32.1540 C   0  0  0  0  0  0  0  0  0  0  0  0
   37.3260   23.7390   31.0430 C   0  0  0  0  0  0  0  0  0  0  0  0
   37.0180   25.0020   31.2410 N   0  0  0  0  0  0  0  0  0  0  0  0
   37.1280   25.6110   32.3930 C   0  0  0  0  0  0  0  0  0  0  0  0
   37.5760   24.9510   33.4830 N   0  0  0  0  0  0  0  0  0  0  0  0
   37.9160   23.6510   33.3950 C   0  0  0  0  0  0  0  0  0  0  0  0
   36.7990   26.9840   32.8140 C   0  0  0  0  0  0  0  0  0  0  0  0
   36.4010   27.3490   34.0500 N   0  0  0  0  0  0  0  0  0  0  0  0
   36.0050   28.5600   34.4150 C   0  0  0  0  0  0  0  0  0  0  0  0
   35.9670   29.5800   33.5300 N   0  0  0  0  0  0  0  0  0  0  0  0
   36.3520   29.3150   32.2560 C   0  0  0  0  0  0  0  0  0  0  0  0
   36.3280   30.3450   31.3590 C   0  0  0  0  0  0  0  0  0  0  0  0
   36.7230   30.1510   30.0660 C   0  0  0  0  0  0  0  0  0  0  0  0
   37.1450   28.8800   29.7100 C   0  0  0  0  0  0  0  0  0  0  0  0
   37.1390   27.8940   30.6720 C   0  0  0  0  0  0  0  0  0  0  0  0
   36.7500   28.0450   31.9610 C   0  0  0  0  0  0  0  0  0  0  0  0
   37.6110   26.7450   30.0740 O   0  0  0  0  0  0  0  0  0  0  0  0
   40.5727   22.2482   38.1335 H   0  0  0  0  0  0  0  0  0  0  0  0
   39.0654   23.8219   39.4092 H   0  0  0  0  0  0  0  0  0  0  0  0
   37.1958   24.9033   38.1477 H   0  0  0  0  0  0  0  0  0  0  0  0
   38.9043   20.6432   34.0618 H   0  0  0  0  0  0  0  0  0  0  0  0
   37.2251   23.2547   30.0605 H   0  0  0  0  0  0  0  0  0  0  0  0
   35.7018   28.7378   35.4573 H   0  0  0  0  0  0  0  0  0  0  0  0
   35.9873   31.3401   31.6811 H   0  0  0  0  0  0  0  0  0  0  0  0
   36.7067   30.9727   29.3348 H   0  0  0  0  0  0  0  0  0  0  0  0
   37.4768   28.6636   28.6838 H   0  0  0  0  0  0  0  0  0  0  0  0
   37.6869   25.9091   30.5989 H   0  0  0  0  0  0  0  0  0  0  0  0
  1  2  2  0
  3  2  1  0
  4  3  2  0
  5  6  2  0
  5  4  1  0
  6  1  1  0
  7  5  1  0
  8  7  1  0
  9  8  2  0
 10  9  1  0
 10 15  2  0
 11 12  2  0
 11 10  1  0
 12 13  1  0
 13 16  1  0
 13 14  2  0
 15 14  1  0
 15  7  1  0
 16 17  2  0
 17 18  1  0
 19 18  2  0
 20 19  1  0
 21 20  2  0
 22 21  1  0
 23 22  2  0
 23 24  1  0
 24 25  2  0
 25 20  1  0
 25 16  1  0
 26 24  1  0
  1 27  1  0
  2 28  1  0
  3 29  1  0
  8 30  1  0
 11 31  1  0
 18 32  1  0
 21 33  1  0
 22 34  1  0
 23 35  1  0
 26 36  1  0
M  ISO  8  27  14  28  14  29  14  30  14  31  14  32  14  33  14  34  14
M  ISO  2  35  14  36   3
M  END
>  <minimizedAffinity>  (1) 
-6.49070358

>  <minimizedRMSD>  (1) 
0.249141455

$$$$
