
     RDKit          3D

 49 52  0  0  0  0  0  0  0  0999 V2000
   37.2790   22.5740   37.1900 C   0  0  0  0  0  0  0  0  0  0  0  0
   36.9740   21.9210   35.9240 C   0  0  0  0  0  0  0  0  0  0  0  0
   35.8780   21.1650   35.6950 C   0  0  0  0  0  0  0  0  0  0  0  0
   35.5990   20.5570   34.5190 C   0  0  0  0  0  0  0  0  0  0  0  0
   36.5980   20.8050   33.5190 C   0  0  0  0  0  0  0  0  0  0  0  0
   37.8710   21.8990   34.3710 S   0  0  0  0  0  0  0  0  0  0  0  0
   36.7620   20.4280   32.1550 C   0  0  0  0  0  0  0  0  0  0  0  0
   35.9890   19.5070   31.5160 C   0  0  0  0  0  0  0  0  0  0  0  0
   36.7500   19.4700   29.7800 S   0  0  0  0  0  0  0  0  0  0  0  0
   37.9890   20.7550   30.3200 C   0  0  0  0  0  0  0  0  0  0  0  0
   37.6770   20.9080   31.3760 N   0  0  0  0  0  0  0  0  0  0  0  0
   38.9400   21.1760   29.3220 N   0  0  0  0  0  0  0  0  0  0  0  0
   39.2480   20.2600   28.2350 C   0  0  0  0  0  0  0  0  0  0  0  0
   40.7180   19.8850   28.4370 C   0  0  0  0  0  0  0  0  0  0  0  0
   41.5520   21.0590   28.4850 N   0  0  0  0  0  0  0  0  0  0  0  0
   41.1340   22.0240   29.4860 C   0  0  0  0  0  0  0  0  0  0  0  0
   39.7000   22.4140   29.1820 C   0  0  0  0  0  0  0  0  0  0  0  0
   38.1650   23.7780   37.0640 C   0  0  0  0  0  0  0  0  0  0  0  0
   41.4710   22.0260   37.2190 C   0  0  0  0  0  0  0  0  0  0  0  0
   40.1670   22.3340   37.5540 C   0  0  0  0  0  0  0  0  0  0  0  0
   39.5370   23.3590   36.8050 C   0  0  0  0  0  0  0  0  0  0  0  0
   40.2340   23.9680   35.8210 N   0  0  0  0  0  0  0  0  0  0  0  0
   41.4950   23.6460   35.5210 C   0  0  0  0  0  0  0  0  0  0  0  0
   42.1140   22.6730   36.2230 N   0  0  0  0  0  0  0  0  0  0  0  0
   38.1380   24.4900   38.4290 C   0  0  0  0  0  0  0  0  0  0  0  0
   37.5630   24.6590   36.0110 C   0  0  0  0  0  0  0  0  0  0  0  0
   36.3320   22.8896   37.6521 H   0  0  0  0  0  0  0  0  0  0  0  0
   37.8275   21.8407   37.7994 H   0  0  0  0  0  0  0  0  0  0  0  0
   35.1636   21.0349   36.5212 H   0  0  0  0  0  0  0  0  0  0  0  0
   34.7044   19.9401   34.3481 H   0  0  0  0  0  0  0  0  0  0  0  0
   35.1382   18.9303   31.9079 H   0  0  0  0  0  0  0  0  0  0  0  0
   39.1050   20.7528   27.2620 H   0  0  0  0  0  0  0  0  0  0  0  0
   38.5920   19.3770   28.2405 H   0  0  0  0  0  0  0  0  0  0  0  0
   40.8210   19.3325   29.3826 H   0  0  0  0  0  0  0  0  0  0  0  0
   41.0393   19.2632   27.5884 H   0  0  0  0  0  0  0  0  0  0  0  0
   42.5163   20.7658   28.6971 H   0  0  0  0  0  0  0  0  0  0  0  0
   41.1953   21.5744   30.4881 H   0  0  0  0  0  0  0  0  0  0  0  0
   41.7866   22.9092   29.4631 H   0  0  0  0  0  0  0  0  0  0  0  0
   39.6141   22.8079   28.1586 H   0  0  0  0  0  0  0  0  0  0  0  0
   39.3333   23.2048   29.8530 H   0  0  0  0  0  0  0  0  0  0  0  0
   41.9973   21.2365   37.7755 H   0  0  0  0  0  0  0  0  0  0  0  0
   39.6416   21.8080   38.3648 H   0  0  0  0  0  0  0  0  0  0  0  0
   42.0239   24.1683   34.7101 H   0  0  0  0  0  0  0  0  0  0  0  0
   38.1664   23.7408   39.2339 H   0  0  0  0  0  0  0  0  0  0  0  0
   39.0117   25.1529   38.5141 H   0  0  0  0  0  0  0  0  0  0  0  0
   37.2167   25.0849   38.5141 H   0  0  0  0  0  0  0  0  0  0  0  0
   37.0048   25.4759   36.4916 H   0  0  0  0  0  0  0  0  0  0  0  0
   38.3628   25.0805   35.3844 H   0  0  0  0  0  0  0  0  0  0  0  0
   36.8797   24.0670   35.3844 H   0  0  0  0  0  0  0  0  0  0  0  0
  2  1  1  0
  3  2  2  0
  4  3  1  0
  5  6  1  0
  5  4  2  0
  6  2  1  0
  7  5  1  0
  8  7  2  0
  9 10  1  0
  9  8  1  0
 10 11  2  0
 11  7  1  0
 12 10  1  0
 13 14  1  0
 13 12  1  0
 14 15  1  0
 15 16  1  0
 17 12  1  0
 17 16  1  0
 18  1  1  0
 18 25  1  0
 19 20  2  0
 21 18  1  0
 21 20  1  0
 22 21  2  0
 23 22  1  0
 23 24  2  0
 24 19  1  0
 26 18  1  0
  1 27  1  0
  1 28  1  0
  3 29  1  0
  4 30  1  0
  8 31  1  0
 13 32  1  0
 13 33  1  0
 14 34  1  0
 14 35  1  0
 15 36  1  0
 16 37  1  0
 16 38  1  0
 17 39  1  0
 17 40  1  0
 19 41  1  0
 20 42  1  0
 23 43  1  0
 25 44  1  0
 25 45  1  0
 25 46  1  0
 26 47  1  0
 26 48  1  0
 26 49  1  0
M  ISO  8  27   8  28   8  29  14  30  14  31  14  32  13  33  13  34  13
M  ISO  8  35  13  36   5  37  13  38  13  39  13  40  13  41  14  42  14
M  ISO  7  43  14  44   8  45   8  46   8  47   8  48   8  49   8
M  END
>  <minimizedAffinity>  (1) 
-4.83703136

>  <minimizedRMSD>  (1) 
0.0766998008

$$$$
