
     RDKit          3D

 36 40  0  0  0  0  0  0  0  0999 V2000
   39.6430   22.8600   37.6400 C   0  0  0  0  0  0  0  0  0  0  0  0
   38.8030   23.7270   38.3680 C   0  0  0  0  0  0  0  0  0  0  0  0
   37.8000   24.3290   37.6730 C   0  0  0  0  0  0  0  0  0  0  0  0
   37.6530   24.0770   36.3440 N   0  0  0  0  0  0  0  0  0  0  0  0
   38.4900   23.2280   35.6750 C   0  0  0  0  0  0  0  0  0  0  0  0
   39.4600   22.6420   36.3290 N   0  0  0  0  0  0  0  0  0  0  0  0
   38.3260   22.9280   34.2970 N   0  0  0  0  0  0  0  0  0  0  0  0
   38.4600   21.7660   33.6250 C   0  0  0  0  0  0  0  0  0  0  0  0
   38.0920   21.9830   32.3370 N   0  0  0  0  0  0  0  0  0  0  0  0
   37.7220   23.2750   32.1680 C   0  0  0  0  0  0  0  0  0  0  0  0
   37.2650   23.9670   31.0720 C   0  0  0  0  0  0  0  0  0  0  0  0
   36.9910   25.2410   31.2900 N   0  0  0  0  0  0  0  0  0  0  0  0
   37.1300   25.8310   32.4360 C   0  0  0  0  0  0  0  0  0  0  0  0
   37.5760   25.1530   33.5190 N   0  0  0  0  0  0  0  0  0  0  0  0
   37.8830   23.8450   33.4130 C   0  0  0  0  0  0  0  0  0  0  0  0
   36.7900   27.1950   32.8850 C   0  0  0  0  0  0  0  0  0  0  0  0
   36.1870   27.4980   34.0500 N   0  0  0  0  0  0  0  0  0  0  0  0
   35.7080   28.6860   34.4040 C   0  0  0  0  0  0  0  0  0  0  0  0
   35.7970   29.7420   33.5600 N   0  0  0  0  0  0  0  0  0  0  0  0
   36.3970   29.5380   32.3530 C   0  0  0  0  0  0  0  0  0  0  0  0
   36.5000   30.6080   31.5310 C   0  0  0  0  0  0  0  0  0  0  0  0
   37.1290   30.4730   30.3110 C   0  0  0  0  0  0  0  0  0  0  0  0
   37.6470   29.2160   29.9740 C   0  0  0  0  0  0  0  0  0  0  0  0
   37.4840   28.2020   30.8850 C   0  0  0  0  0  0  0  0  0  0  0  0
   36.8640   28.2870   32.0800 C   0  0  0  0  0  0  0  0  0  0  0  0
   38.4940   26.8680   30.2730 S   0  0  0  0  0  0  0  0  0  0  0  0
   40.4680   22.3502   38.1591 H   0  0  0  0  0  0  0  0  0  0  0  0
   38.9508   23.9076   39.4430 H   0  0  0  0  0  0  0  0  0  0  0  0
   37.1103   25.0171   38.1838 H   0  0  0  0  0  0  0  0  0  0  0  0
   38.8065   20.8110   34.0467 H   0  0  0  0  0  0  0  0  0  0  0  0
   37.1369   23.4953   30.0866 H   0  0  0  0  0  0  0  0  0  0  0  0
   35.2359   28.8128   35.3894 H   0  0  0  0  0  0  0  0  0  0  0  0
   36.0843   31.5802   31.8342 H   0  0  0  0  0  0  0  0  0  0  0  0
   37.2211   31.3267   29.6234 H   0  0  0  0  0  0  0  0  0  0  0  0
   38.1638   29.0480   29.0176 H   0  0  0  0  0  0  0  0  0  0  0  0
   39.0207   26.1723   31.3292 H   0  0  0  0  0  0  0  0  0  0  0  0
  1  2  2  0
  3  2  1  0
  4  3  2  0
  5  6  2  0
  5  4  1  0
  6  1  1  0
  7  5  1  0
  8  7  1  0
  9  8  2  0
 10  9  1  0
 10 15  2  0
 11 12  2  0
 11 10  1  0
 12 13  1  0
 13 16  1  0
 13 14  2  0
 15 14  1  0
 15  7  1  0
 16 17  2  0
 17 18  1  0
 19 18  2  0
 20 19  1  0
 21 20  2  0
 22 21  1  0
 23 22  2  0
 23 24  1  0
 24 25  2  0
 25 20  1  0
 25 16  1  0
 26 24  1  0
  1 27  1  0
  2 28  1  0
  3 29  1  0
  8 30  1  0
 11 31  1  0
 18 32  1  0
 21 33  1  0
 22 34  1  0
 23 35  1  0
 26 36  1  0
M  ISO  8  27  14  28  14  29  14  30  14  31  14  32  14  33  14  34  14
M  ISO  2  35  14  36  11
M  END
>  <minimizedAffinity>  (1) 
-5.94447184

>  <minimizedRMSD>  (1) 
0.404528439

$$$$
