
     RDKit          3D

 20 21  0  0  0  0  0  0  0  0999 V2000
   40.4930   22.8510   37.2340 C   0  0  0  0  0  0  0  0  0  0  0  0
   40.3710   23.2780   35.8900 C   0  0  0  0  0  0  0  0  0  0  0  0
   41.0430   22.5490   34.9110 C   0  0  0  0  0  0  0  0  0  0  0  0
   41.7790   21.4720   35.2910 N   0  0  0  0  0  0  0  0  0  0  0  0
   41.8750   21.0900   36.5800 C   0  0  0  0  0  0  0  0  0  0  0  0
   41.2380   21.7720   37.5490 N   0  0  0  0  0  0  0  0  0  0  0  0
   39.5650   24.4130   35.7200 N   0  0  0  0  0  0  0  0  0  0  0  0
   40.2500   25.5020   35.3280 C   0  0  0  0  0  0  0  0  0  0  0  0
   39.5750   26.7080   35.1190 C   0  0  0  0  0  0  0  0  0  0  0  0
   38.2030   26.6950   35.3370 C   0  0  0  0  0  0  0  0  0  0  0  0
   37.5230   27.7160   35.1780 O   0  0  0  0  0  0  0  0  0  0  0  0
   37.5340   25.5930   35.7310 N   0  0  0  0  0  0  0  0  0  0  0  0
   38.2290   24.4440   35.9230 C   0  0  0  0  0  0  0  0  0  0  0  0
   37.6590   23.3940   36.2870 O   0  0  0  0  0  0  0  0  0  0  0  0
   39.9745   23.4053   38.0301 H   0  0  0  0  0  0  0  0  0  0  0  0
   40.9789   22.8395   33.8520 H   0  0  0  0  0  0  0  0  0  0  0  0
   42.4812   20.2105   36.8427 H   0  0  0  0  0  0  0  0  0  0  0  0
   41.3374   25.4438   35.1724 H   0  0  0  0  0  0  0  0  0  0  0  0
   40.1021   27.6189   34.7989 H   0  0  0  0  0  0  0  0  0  0  0  0
   36.5157   25.6228   35.8832 H   0  0  0  0  0  0  0  0  0  0  0  0
  1  6  2  0
  2  1  1  0
  3  4  1  0
  3  2  2  0
  4  5  2  0
  5  6  1  0
  7  2  1  0
  7 13  1  0
  8  7  1  0
  9  8  2  0
  9 10  1  0
 10 12  1  0
 11 10  2  0
 12 13  1  0
 13 14  2  0
  1 15  1  0
  3 16  1  0
  5 17  1  0
  8 18  1  0
  9 19  1  0
 12 20  1  0
M  ISO  6  15  14  16  14  17  14  18  14  19  14  20   9
M  END
>  <minimizedAffinity>  (1) 
-3.52959299

>  <minimizedRMSD>  (1) 
5.2180438

$$$$
