
     RDKit          3D

 28 30  0  0  0  0  0  0  0  0999 V2000
   38.9360   24.6540   35.7580 N   0  0  0  0  0  0  0  0  0  0  0  0
   38.2330   24.0450   36.7270 C   0  0  0  0  0  0  0  0  0  0  0  0
   38.8310   23.0510   37.5130 C   0  0  0  0  0  0  0  0  0  0  0  0
   40.1540   22.7600   37.2200 C   0  0  0  0  0  0  0  0  0  0  0  0
   40.7660   21.8940   37.8640 O   0  0  0  0  0  0  0  0  0  0  0  0
   40.8470   23.3810   36.2420 N   0  0  0  0  0  0  0  0  0  0  0  0
   40.2240   24.3310   35.5140 C   0  0  0  0  0  0  0  0  0  0  0  0
   40.8270   24.9380   34.5910 O   0  0  0  0  0  0  0  0  0  0  0  0
   38.1040   26.8660   35.7330 C   0  0  0  0  0  0  0  0  0  0  0  0
   38.2080   25.6220   35.0570 C   0  0  0  0  0  0  0  0  0  0  0  0
   37.5980   25.5080   33.8190 C   0  0  0  0  0  0  0  0  0  0  0  0
   36.9330   26.5750   33.3060 N   0  0  0  0  0  0  0  0  0  0  0  0
   36.8480   27.7410   33.9650 C   0  0  0  0  0  0  0  0  0  0  0  0
   37.4310   27.8950   35.1800 N   0  0  0  0  0  0  0  0  0  0  0  0
   42.2060   23.0760   35.9470 C   0  0  0  0  0  0  0  0  0  0  0  0
   43.3630   23.6180   36.4740 C   0  0  0  0  0  0  0  0  0  0  0  0
   44.5840   23.1530   36.0250 C   0  0  0  0  0  0  0  0  0  0  0  0
   44.6670   22.1820   35.0810 N   0  0  0  0  0  0  0  0  0  0  0  0
   43.5150   21.6640   34.5770 C   0  0  0  0  0  0  0  0  0  0  0  0
   42.3100   22.1020   35.0010 N   0  0  0  0  0  0  0  0  0  0  0  0
   37.1847   24.3274   36.9041 H   0  0  0  0  0  0  0  0  0  0  0  0
   38.2835   22.5330   38.3142 H   0  0  0  0  0  0  0  0  0  0  0  0
   38.5773   26.9916   36.7180 H   0  0  0  0  0  0  0  0  0  0  0  0
   37.6516   24.5636   33.2575 H   0  0  0  0  0  0  0  0  0  0  0  0
   36.2993   28.5814   33.5147 H   0  0  0  0  0  0  0  0  0  0  0  0
   43.3125   24.4070   37.2388 H   0  0  0  0  0  0  0  0  0  0  0  0
   45.5086   23.5791   36.4417 H   0  0  0  0  0  0  0  0  0  0  0  0
   43.5656   20.8755   33.8116 H   0  0  0  0  0  0  0  0  0  0  0  0
  1  2  1  0
  2  3  2  0
  4  3  1  0
  4  5  2  0
  6  4  1  0
  7  1  1  0
  7  6  1  0
  8  7  2  0
 10  9  2  0
 10  1  1  0
 11 10  1  0
 12 11  2  0
 12 13  1  0
 13 14  2  0
 14  9  1  0
 15  6  1  0
 15 16  2  0
 17 16  1  0
 18 17  2  0
 19 20  2  0
 19 18  1  0
 20 15  1  0
  2 21  1  0
  3 22  1  0
  9 23  1  0
 11 24  1  0
 13 25  1  0
 16 26  1  0
 17 27  1  0
 19 28  1  0
M  ISO  8  21  14  22  14  23  14  24  14  25  14  26  14  27  14  28  14
M  END
>  <minimizedAffinity>  (1) 
-4.61431885

>  <minimizedRMSD>  (1) 
6.8344512

$$$$
