
     RDKit          3D

 26 27  0  0  0  0  0  0  0  0999 V2000
   41.0980   23.6370   35.7740 N   0  0  0  0  0  0  0  0  0  0  0  0
   40.8990   24.5780   34.8440 C   0  0  0  0  0  0  0  0  0  0  0  0
   39.6670   25.2340   34.7580 C   0  0  0  0  0  0  0  0  0  0  0  0
   38.7020   24.8480   35.6760 C   0  0  0  0  0  0  0  0  0  0  0  0
   37.5850   25.3710   35.6760 O   0  0  0  0  0  0  0  0  0  0  0  0
   38.9160   23.8990   36.6050 N   0  0  0  0  0  0  0  0  0  0  0  0
   40.1300   23.2970   36.6420 C   0  0  0  0  0  0  0  0  0  0  0  0
   40.3780   22.4050   37.4940 O   0  0  0  0  0  0  0  0  0  0  0  0
   43.3740   23.8460   36.3620 C   0  0  0  0  0  0  0  0  0  0  0  0
   42.3820   23.0670   35.7390 C   0  0  0  0  0  0  0  0  0  0  0  0
   42.7690   21.8580   35.1760 C   0  0  0  0  0  0  0  0  0  0  0  0
   44.0610   21.4790   35.2440 N   0  0  0  0  0  0  0  0  0  0  0  0
   44.9910   22.2460   35.8480 C   0  0  0  0  0  0  0  0  0  0  0  0
   44.6490   23.4320   36.4090 N   0  0  0  0  0  0  0  0  0  0  0  0
   37.9250   23.4810   37.5710 C   0  0  0  0  0  0  0  0  0  0  0  0
   37.9230   24.3070   38.8140 C   0  0  0  0  0  0  0  0  0  0  0  0
   41.7075   24.8366   34.1444 H   0  0  0  0  0  0  0  0  0  0  0  0
   39.4743   26.0122   34.0048 H   0  0  0  0  0  0  0  0  0  0  0  0
   43.1000   24.8091   36.8174 H   0  0  0  0  0  0  0  0  0  0  0  0
   42.0277   21.2151   34.6788 H   0  0  0  0  0  0  0  0  0  0  0  0
   46.0366   21.9065   35.8860 H   0  0  0  0  0  0  0  0  0  0  0  0
   36.9315   23.5515   37.1040 H   0  0  0  0  0  0  0  0  0  0  0  0
   38.1738   22.4510   37.8662 H   0  0  0  0  0  0  0  0  0  0  0  0
   37.9246   23.6462   39.6934 H   0  0  0  0  0  0  0  0  0  0  0  0
   38.8196   24.9440   38.8324 H   0  0  0  0  0  0  0  0  0  0  0  0
   37.0233   24.9396   38.8324 H   0  0  0  0  0  0  0  0  0  0  0  0
  1  7  1  0
  2  1  1  0
  3  2  2  0
  3  4  1  0
  4  5  2  0
  4  6  1  0
  6  7  1  0
  6 15  1  0
  7  8  2  0
  9 14  2  0
 10  1  1  0
 10  9  1  0
 11 12  1  0
 11 10  2  0
 12 13  2  0
 13 14  1  0
 15 16  1  0
  2 17  1  0
  3 18  1  0
  9 19  1  0
 11 20  1  0
 13 21  1  0
 15 22  1  0
 15 23  1  0
 16 24  1  0
 16 25  1  0
 16 26  1  0
M  ISO  8  17  14  18  14  19  14  20  14  21  14  22   8  23   8  24   8
M  ISO  2  25   8  26   8
M  END
>  <minimizedAffinity>  (1) 
-3.67557979

>  <minimizedRMSD>  (1) 
2.58511829

$$$$
