
     RDKit          3D

 34 37  0  0  0  0  0  0  0  0999 V2000
   40.0270   26.5580   33.1430 N   0  0  0  0  0  0  0  0  0  0  0  0
   41.3330   26.8450   33.2730 C   0  0  0  0  0  0  0  0  0  0  0  0
   41.9780   27.5940   32.2870 C   0  0  0  0  0  0  0  0  0  0  0  0
   41.2150   28.0060   31.2080 C   0  0  0  0  0  0  0  0  0  0  0  0
   41.7080   28.6720   30.2910 O   0  0  0  0  0  0  0  0  0  0  0  0
   39.9050   27.7120   31.0850 N   0  0  0  0  0  0  0  0  0  0  0  0
   39.3020   26.9790   32.0650 C   0  0  0  0  0  0  0  0  0  0  0  0
   38.0890   26.6800   32.0010 O   0  0  0  0  0  0  0  0  0  0  0  0
   39.0740   28.1040   30.0080 C   0  0  0  0  0  0  0  0  0  0  0  0
   39.2900   28.5540   28.7230 C   0  0  0  0  0  0  0  0  0  0  0  0
   38.0340   28.7590   28.1920 C   0  0  0  0  0  0  0  0  0  0  0  0
   37.1010   28.4500   29.1090 N   0  0  0  0  0  0  0  0  0  0  0  0
   37.7560   28.0550   30.2020 N   0  0  0  0  0  0  0  0  0  0  0  0
   38.9730   26.5700   35.2470 C   0  0  0  0  0  0  0  0  0  0  0  0
   39.4930   25.8020   34.1940 C   0  0  0  0  0  0  0  0  0  0  0  0
   39.4300   24.4120   34.2870 C   0  0  0  0  0  0  0  0  0  0  0  0
   38.8760   23.8580   35.3820 N   0  0  0  0  0  0  0  0  0  0  0  0
   38.3850   24.6040   36.3780 C   0  0  0  0  0  0  0  0  0  0  0  0
   38.4280   25.9620   36.3210 N   0  0  0  0  0  0  0  0  0  0  0  0
   37.7750   23.9410   37.5810 C   0  0  0  0  0  0  0  0  0  0  0  0
   37.8870   24.5550   38.9170 C   0  0  0  0  0  0  0  0  0  0  0  0
   38.6960   23.3580   38.5960 C   0  0  0  0  0  0  0  0  0  0  0  0
   41.8916   26.4915   34.1522 H   0  0  0  0  0  0  0  0  0  0  0  0
   43.0460   27.8458   32.3642 H   0  0  0  0  0  0  0  0  0  0  0  0
   40.2584   28.7153   28.2267 H   0  0  0  0  0  0  0  0  0  0  0  0
   37.8272   29.1202   27.1738 H   0  0  0  0  0  0  0  0  0  0  0  0
   36.0794   28.5071   28.9908 H   0  0  0  0  0  0  0  0  0  0  0  0
   39.0097   27.6682   35.1968 H   0  0  0  0  0  0  0  0  0  0  0  0
   39.8262   23.7789   33.4794 H   0  0  0  0  0  0  0  0  0  0  0  0
   36.9292   23.5827   36.9759 H   0  0  0  0  0  0  0  0  0  0  0  0
   38.3766   25.5333   39.0317 H   0  0  0  0  0  0  0  0  0  0  0  0
   37.1727   24.8169   39.7115 H   0  0  0  0  0  0  0  0  0  0  0  0
   38.4595   22.3911   39.0641 H   0  0  0  0  0  0  0  0  0  0  0  0
   39.7670   23.1087   38.6263 H   0  0  0  0  0  0  0  0  0  0  0  0
  1  2  1  0
  1 15  1  0
  3  2  2  0
  4  3  1  0
  5  4  2  0
  6  4  1  0
  6  7  1  0
  7  1  1  0
  8  7  2  0
  9 13  2  0
  9  6  1  0
 10  9  1  0
 11 10  2  0
 11 12  1  0
 12 13  1  0
 14 19  2  0
 15 16  2  0
 15 14  1  0
 16 17  1  0
 17 18  2  0
 18 20  1  0
 19 18  1  0
 20 22  1  0
 20 21  1  0
 22 21  1  0
  2 23  1  0
  3 24  1  0
 10 25  1  0
 11 26  1  0
 12 27  1  0
 14 28  1  0
 16 29  1  0
 20 30  1  0
 21 31  1  0
 21 32  1  0
 22 33  1  0
 22 34  1  0
M  ISO  8  23  14  24  14  25  14  26  14  27   9  28  14  29  14  30  13
M  ISO  4  31  13  32  13  33  13  34  13
M  END
>  <minimizedAffinity>  (1) 
-5.03063822

>  <minimizedRMSD>  (1) 
2.02140188

$$$$
