
     RDKit          3D

 33 36  0  0  0  0  0  0  0  0999 V2000
   38.8050   25.5450   33.7090 N   0  0  0  0  0  0  0  0  0  0  0  0
   37.8150   26.2410   34.2950 C   0  0  0  0  0  0  0  0  0  0  0  0
   37.5040   26.0150   35.6370 C   0  0  0  0  0  0  0  0  0  0  0  0
   38.2540   25.0640   36.3000 C   0  0  0  0  0  0  0  0  0  0  0  0
   38.0440   24.8030   37.4910 O   0  0  0  0  0  0  0  0  0  0  0  0
   39.2450   24.3690   35.7080 N   0  0  0  0  0  0  0  0  0  0  0  0
   39.5170   24.6200   34.3940 C   0  0  0  0  0  0  0  0  0  0  0  0
   40.4340   23.9990   33.7910 O   0  0  0  0  0  0  0  0  0  0  0  0
   40.0450   23.3870   36.3300 C   0  0  0  0  0  0  0  0  0  0  0  0
   39.9340   22.6220   37.4750 C   0  0  0  0  0  0  0  0  0  0  0  0
   41.0750   21.8430   37.5120 C   0  0  0  0  0  0  0  0  0  0  0  0
   41.8390   22.1280   36.4340 N   0  0  0  0  0  0  0  0  0  0  0  0
   41.1940   23.0630   35.7380 N   0  0  0  0  0  0  0  0  0  0  0  0
   39.6690   27.1000   32.1530 C   0  0  0  0  0  0  0  0  0  0  0  0
   39.0180   25.8640   32.3600 C   0  0  0  0  0  0  0  0  0  0  0  0
   38.6600   25.1060   31.2510 C   0  0  0  0  0  0  0  0  0  0  0  0
   38.9490   25.5800   30.0180 N   0  0  0  0  0  0  0  0  0  0  0  0
   39.5740   26.7670   29.8530 C   0  0  0  0  0  0  0  0  0  0  0  0
   39.9350   27.5270   30.9100 N   0  0  0  0  0  0  0  0  0  0  0  0
   39.8880   27.2830   28.5640 N   0  0  0  0  0  0  0  0  0  0  0  0
   39.7520   26.9020   27.2810 C   0  0  0  0  0  0  0  0  0  0  0  0
   40.2600   27.8480   26.4700 N   0  0  0  0  0  0  0  0  0  0  0  0
   40.7130   28.8210   27.2820 C   0  0  0  0  0  0  0  0  0  0  0  0
   40.4860   28.4790   28.5800 N   0  0  0  0  0  0  0  0  0  0  0  0
   37.2506   26.9879   33.7174 H   0  0  0  0  0  0  0  0  0  0  0  0
   36.6991   26.5686   36.1426 H   0  0  0  0  0  0  0  0  0  0  0  0
   39.1104   22.6310   38.2041 H   0  0  0  0  0  0  0  0  0  0  0  0
   41.3217   21.1090   38.2932 H   0  0  0  0  0  0  0  0  0  0  0  0
   42.7467   21.7033   36.1961 H   0  0  0  0  0  0  0  0  0  0  0  0
   39.9596   27.7162   33.0166 H   0  0  0  0  0  0  0  0  0  0  0  0
   38.1511   24.1386   31.3742 H   0  0  0  0  0  0  0  0  0  0  0  0
   39.2946   25.9595   26.9456 H   0  0  0  0  0  0  0  0  0  0  0  0
   41.1940   29.7520   26.9474 H   0  0  0  0  0  0  0  0  0  0  0  0
  1  2  1  0
  1  7  1  0
  2  3  2  0
  3  4  1  0
  4  5  2  0
  6  4  1  0
  6  9  1  0
  7  6  1  0
  8  7  2  0
  9 10  1  0
 10 11  2  0
 12 11  1  0
 13  9  2  0
 13 12  1  0
 14 15  2  0
 15  1  1  0
 16 15  1  0
 17 16  2  0
 18 17  1  0
 18 19  2  0
 19 14  1  0
 20 24  1  0
 20 18  1  0
 21 20  1  0
 22 21  2  0
 22 23  1  0
 23 24  2  0
  2 25  1  0
  3 26  1  0
 10 27  1  0
 11 28  1  0
 12 29  1  0
 14 30  1  0
 16 31  1  0
 21 32  1  0
 23 33  1  0
M  ISO  8  25  14  26  14  27  14  28  14  29   9  30  14  31  14  32  14
M  ISO  1  33  14
M  END
>  <minimizedAffinity>  (1) 
-5.02819967

>  <minimizedRMSD>  (1) 
8.4645195

$$$$
