
     RDKit          3D

 40 43  0  0  0  0  0  0  0  0999 V2000
   37.7750   25.1500   31.9250 N   0  0  0  0  0  0  0  0  0  0  0  0
   37.4390   24.1500   31.0930 C   0  0  0  0  0  0  0  0  0  0  0  0
   37.2710   22.8580   31.5980 C   0  0  0  0  0  0  0  0  0  0  0  0
   37.4660   22.6810   32.9620 C   0  0  0  0  0  0  0  0  0  0  0  0
   37.3370   21.5730   33.4870 O   0  0  0  0  0  0  0  0  0  0  0  0
   37.7990   23.6830   33.7710 N   0  0  0  0  0  0  0  0  0  0  0  0
   37.9590   24.9370   33.2660 C   0  0  0  0  0  0  0  0  0  0  0  0
   38.2730   25.9150   33.9870 O   0  0  0  0  0  0  0  0  0  0  0  0
   38.0150   23.5750   35.1800 C   0  0  0  0  0  0  0  0  0  0  0  0
   38.2440   22.5390   36.0470 C   0  0  0  0  0  0  0  0  0  0  0  0
   38.3700   23.1060   37.2970 C   0  0  0  0  0  0  0  0  0  0  0  0
   38.2210   24.4410   37.1870 N   0  0  0  0  0  0  0  0  0  0  0  0
   38.0080   24.6960   35.8960 N   0  0  0  0  0  0  0  0  0  0  0  0
   36.7000   27.0810   31.1020 C   0  0  0  0  0  0  0  0  0  0  0  0
   37.9140   26.3940   31.3030 C   0  0  0  0  0  0  0  0  0  0  0  0
   39.0990   26.9940   30.8790 C   0  0  0  0  0  0  0  0  0  0  0  0
   39.0420   28.2100   30.2920 N   0  0  0  0  0  0  0  0  0  0  0  0
   37.8700   28.8530   30.1090 C   0  0  0  0  0  0  0  0  0  0  0  0
   36.7140   28.2940   30.5080 N   0  0  0  0  0  0  0  0  0  0  0  0
   37.9240   30.1660   29.4620 C   0  0  0  0  0  0  0  0  0  0  0  0
   37.8710   30.0510   27.9320 C   0  0  0  0  0  0  0  0  0  0  0  0
   37.8770   31.5510   27.6060 C   0  0  0  0  0  0  0  0  0  0  0  0
   36.9010   32.1230   28.6280 C   0  0  0  0  0  0  0  0  0  0  0  0
   36.7640   31.0660   29.7220 C   0  0  0  0  0  0  0  0  0  0  0  0
   37.2969   24.3473   30.0202 H   0  0  0  0  0  0  0  0  0  0  0  0
   36.9962   22.0174   30.9438 H   0  0  0  0  0  0  0  0  0  0  0  0
   38.3133   21.4703   35.7961 H   0  0  0  0  0  0  0  0  0  0  0  0
   38.5610   22.5584   38.2317 H   0  0  0  0  0  0  0  0  0  0  0  0
   38.2634   25.1300   37.9515 H   0  0  0  0  0  0  0  0  0  0  0  0
   35.7490   26.6331   31.4261 H   0  0  0  0  0  0  0  0  0  0  0  0
   40.0644   26.4860   31.0199 H   0  0  0  0  0  0  0  0  0  0  0  0
   38.8576   30.5702   29.8803 H   0  0  0  0  0  0  0  0  0  0  0  0
   38.7500   29.5318   27.5223 H   0  0  0  0  0  0  0  0  0  0  0  0
   37.0326   29.4703   27.5198 H   0  0  0  0  0  0  0  0  0  0  0  0
   38.8816   31.9803   27.7342 H   0  0  0  0  0  0  0  0  0  0  0  0
   37.5967   31.7715   26.5654 H   0  0  0  0  0  0  0  0  0  0  0  0
   37.2951   33.0595   29.0494 H   0  0  0  0  0  0  0  0  0  0  0  0
   35.9285   32.3540   28.1689 H   0  0  0  0  0  0  0  0  0  0  0  0
   35.8124   30.5219   29.6298 H   0  0  0  0  0  0  0  0  0  0  0  0
   36.7613   31.4892   30.7373 H   0  0  0  0  0  0  0  0  0  0  0  0
  1  7  1  0
  2  3  2  0
  2  1  1  0
  3  4  1  0
  4  5  2  0
  4  6  1  0
  6  9  1  0
  7  6  1  0
  7  8  2  0
  9 13  2  0
  9 10  1  0
 10 11  2  0
 12 11  1  0
 13 12  1  0
 14 15  2  0
 15  1  1  0
 16 15  1  0
 17 16  2  0
 18 17  1  0
 18 19  2  0
 19 14  1  0
 20 24  1  0
 20 18  1  0
 21 20  1  0
 22 21  1  0
 22 23  1  0
 23 24  1  0
  2 25  1  0
  3 26  1  0
 10 27  1  0
 11 28  1  0
 12 29  1  0
 14 30  1  0
 16 31  1  0
 20 32  1  0
 21 33  1  0
 21 34  1  0
 22 35  1  0
 22 36  1  0
 23 37  1  0
 23 38  1  0
 24 39  1  0
 24 40  1  0
M  ISO  8  25  14  26  14  27  14  28  14  29   9  30  14  31  14  32  13
M  ISO  8  33  13  34  13  35  13  36  13  37  13  38  13  39  13  40  13
M  END
>  <minimizedAffinity>  (1) 
-4.90849543

>  <minimizedRMSD>  (1) 
8.49141121

$$$$
