
     RDKit          3D

 29 31  0  0  0  0  0  0  0  0999 V2000
   39.6910   26.0970   33.3730 N   0  0  0  0  0  0  0  0  0  0  0  0
   40.9940   26.3170   33.4990 C   0  0  0  0  0  0  0  0  0  0  0  0
   41.6560   27.0970   32.5370 C   0  0  0  0  0  0  0  0  0  0  0  0
   40.9070   27.5990   31.4970 C   0  0  0  0  0  0  0  0  0  0  0  0
   41.4230   28.2900   30.6160 O   0  0  0  0  0  0  0  0  0  0  0  0
   39.5880   27.3650   31.3830 N   0  0  0  0  0  0  0  0  0  0  0  0
   38.9790   26.6100   32.3270 C   0  0  0  0  0  0  0  0  0  0  0  0
   37.7430   26.3620   32.2670 O   0  0  0  0  0  0  0  0  0  0  0  0
   38.7600   27.8520   30.3380 C   0  0  0  0  0  0  0  0  0  0  0  0
   38.9680   28.3670   29.0870 C   0  0  0  0  0  0  0  0  0  0  0  0
   37.7270   28.6530   28.5720 C   0  0  0  0  0  0  0  0  0  0  0  0
   36.7970   28.3210   29.4850 N   0  0  0  0  0  0  0  0  0  0  0  0
   37.4450   27.8390   30.5430 N   0  0  0  0  0  0  0  0  0  0  0  0
   38.7860   25.9990   35.5440 C   0  0  0  0  0  0  0  0  0  0  0  0
   39.1350   25.3120   34.3820 C   0  0  0  0  0  0  0  0  0  0  0  0
   38.8970   23.9340   34.3450 C   0  0  0  0  0  0  0  0  0  0  0  0
   38.3430   23.3310   35.4300 N   0  0  0  0  0  0  0  0  0  0  0  0
   38.0260   24.0280   36.5210 C   0  0  0  0  0  0  0  0  0  0  0  0
   38.2390   25.3540   36.5940 N   0  0  0  0  0  0  0  0  0  0  0  0
   37.4370   23.2920   37.6320 C   0  0  0  0  0  0  0  0  0  0  0  0
   38.1000   23.1820   38.6990 O   0  0  0  0  0  0  0  0  0  0  0  0
   41.5495   25.8927   34.3483 H   0  0  0  0  0  0  0  0  0  0  0  0
   42.7346   27.2996   32.6119 H   0  0  0  0  0  0  0  0  0  0  0  0
   39.9379   28.5215   28.5916 H   0  0  0  0  0  0  0  0  0  0  0  0
   37.5273   29.0819   27.5789 H   0  0  0  0  0  0  0  0  0  0  0  0
   35.7768   28.4208   29.3846 H   0  0  0  0  0  0  0  0  0  0  0  0
   38.9596   27.0835   35.6050 H   0  0  0  0  0  0  0  0  0  0  0  0
   39.1544   23.3470   33.4510 H   0  0  0  0  0  0  0  0  0  0  0  0
   36.4370   22.8426   37.5421 H   0  0  0  0  0  0  0  0  0  0  0  0
  1  2  1  0
  1 15  1  0
  3  2  2  0
  4  3  1  0
  5  4  2  0
  6  4  1  0
  6  7  1  0
  7  1  1  0
  8  7  2  0
  9 13  2  0
  9  6  1  0
 10  9  1  0
 11 10  2  0
 11 12  1  0
 12 13  1  0
 14 19  2  0
 15 14  1  0
 16 15  2  0
 16 17  1  0
 17 18  2  0
 18 19  1  0
 18 20  1  0
 20 21  2  0
  2 22  1  0
  3 23  1  0
 10 24  1  0
 11 25  1  0
 12 26  1  0
 14 27  1  0
 16 28  1  0
 20 29  1  0
M  ISO  8  22  14  23  14  24  14  25  14  26   9  27  14  28  14  29   6
M  END
>  <minimizedAffinity>  (1) 
-4.56200266

>  <minimizedRMSD>  (1) 
1.45602679

$$$$
