
     RDKit          3D

 49 52  0  0  0  0  0  0  0  0999 V2000
   37.7250   26.6290   35.0620 C   0  0  0  0  0  0  0  0  0  0  0  0
   37.4690   26.3880   33.7020 C   0  0  0  0  0  0  0  0  0  0  0  0
   37.5390   25.0730   33.2450 C   0  0  0  0  0  0  0  0  0  0  0  0
   37.8480   24.0960   34.1240 N   0  0  0  0  0  0  0  0  0  0  0  0
   38.0880   24.3510   35.4190 C   0  0  0  0  0  0  0  0  0  0  0  0
   38.0280   25.6160   35.8970 N   0  0  0  0  0  0  0  0  0  0  0  0
   37.1670   27.5230   32.9510 N   0  0  0  0  0  0  0  0  0  0  0  0
   37.7670   27.5770   31.7550 C   0  0  0  0  0  0  0  0  0  0  0  0
   37.5450   28.6670   30.9060 C   0  0  0  0  0  0  0  0  0  0  0  0
   36.6880   29.6590   31.3690 C   0  0  0  0  0  0  0  0  0  0  0  0
   36.4330   30.6500   30.6970 O   0  0  0  0  0  0  0  0  0  0  0  0
   36.0890   29.5900   32.5790 N   0  0  0  0  0  0  0  0  0  0  0  0
   36.3320   28.5110   33.3760 C   0  0  0  0  0  0  0  0  0  0  0  0
   35.7930   28.4130   34.5090 O   0  0  0  0  0  0  0  0  0  0  0  0
   35.2060   30.5670   33.1120 C   0  0  0  0  0  0  0  0  0  0  0  0
   34.4720   31.6030   32.5660 C   0  0  0  0  0  0  0  0  0  0  0  0
   33.8060   32.1840   33.6460 C   0  0  0  0  0  0  0  0  0  0  0  0
   34.1370   31.5180   34.7650 N   0  0  0  0  0  0  0  0  0  0  0  0
   34.9850   30.5450   34.4120 N   0  0  0  0  0  0  0  0  0  0  0  0
   38.4160   23.2090   36.2920 C   0  0  0  0  0  0  0  0  0  0  0  0
   37.1960   22.8600   37.1350 C   0  0  0  0  0  0  0  0  0  0  0  0
   38.7310   22.0050   35.4540 C   0  0  0  0  0  0  0  0  0  0  0  0
   39.5380   23.5360   37.2500 C   0  0  0  0  0  0  0  0  0  0  0  0
   40.8170   22.9030   36.8660 C   0  0  0  0  0  0  0  0  0  0  0  0
   41.6850   23.4340   35.9320 C   0  0  0  0  0  0  0  0  0  0  0  0
   42.8670   22.7760   35.6280 C   0  0  0  0  0  0  0  0  0  0  0  0
   43.1210   21.5820   36.2990 C   0  0  0  0  0  0  0  0  0  0  0  0
   42.2570   21.0350   37.2400 C   0  0  0  0  0  0  0  0  0  0  0  0
   41.0870   21.7190   37.5180 C   0  0  0  0  0  0  0  0  0  0  0  0
   37.6775   27.6572   35.4499 H   0  0  0  0  0  0  0  0  0  0  0  0
   37.3462   24.8358   32.1883 H   0  0  0  0  0  0  0  0  0  0  0  0
   38.4358   26.7628   31.4393 H   0  0  0  0  0  0  0  0  0  0  0  0
   38.0258   28.7357   29.9190 H   0  0  0  0  0  0  0  0  0  0  0  0
   34.4233   31.9043   31.5092 H   0  0  0  0  0  0  0  0  0  0  0  0
   33.1232   33.0446   33.5904 H   0  0  0  0  0  0  0  0  0  0  0  0
   33.8005   31.7191   35.7175 H   0  0  0  0  0  0  0  0  0  0  0  0
   37.4541   22.9338   38.2017 H   0  0  0  0  0  0  0  0  0  0  0  0
   36.3795   23.5606   36.9060 H   0  0  0  0  0  0  0  0  0  0  0  0
   36.8735   21.8336   36.9060 H   0  0  0  0  0  0  0  0  0  0  0  0
   38.9546   21.1504   36.1095 H   0  0  0  0  0  0  0  0  0  0  0  0
   37.8658   21.7636   34.8191 H   0  0  0  0  0  0  0  0  0  0  0  0
   39.6036   22.2183   34.8191 H   0  0  0  0  0  0  0  0  0  0  0  0
   39.6771   24.6270   37.2701 H   0  0  0  0  0  0  0  0  0  0  0  0
   39.2564   23.1441   38.2385 H   0  0  0  0  0  0  0  0  0  0  0  0
   41.4382   24.3804   35.4286 H   0  0  0  0  0  0  0  0  0  0  0  0
   43.5741   23.1797   34.8884 H   0  0  0  0  0  0  0  0  0  0  0  0
   44.0535   21.0444   36.0723 H   0  0  0  0  0  0  0  0  0  0  0  0
   42.4957   20.0887   37.7475 H   0  0  0  0  0  0  0  0  0  0  0  0
   40.3756   21.3198   38.2559 H   0  0  0  0  0  0  0  0  0  0  0  0
  1  6  2  0
  2  1  1  0
  3  2  2  0
  3  4  1  0
  4  5  2  0
  5  6  1  0
  5 20  1  0
  7 13  1  0
  7  2  1  0
  8  7  1  0
  9 10  1  0
  9  8  2  0
 10 12  1  0
 11 10  2  0
 12 15  1  0
 12 13  1  0
 13 14  2  0
 15 19  2  0
 16 15  1  0
 16 17  2  0
 17 18  1  0
 19 18  1  0
 20 21  1  0
 20 23  1  0
 22 20  1  0
 24 23  1  0
 24 29  1  0
 25 24  2  0
 26 25  1  0
 26 27  2  0
 27 28  1  0
 28 29  2  0
  1 30  1  0
  3 31  1  0
  8 32  1  0
  9 33  1  0
 16 34  1  0
 17 35  1  0
 18 36  1  0
 21 37  1  0
 21 38  1  0
 21 39  1  0
 22 40  1  0
 22 41  1  0
 22 42  1  0
 23 43  1  0
 23 44  1  0
 25 45  1  0
 26 46  1  0
 27 47  1  0
 28 48  1  0
 29 49  1  0
M  ISO  8  30  14  31  14  32  14  33  14  34  14  35  14  36   9  37   8
M  ISO  8  38   8  39   8  40   8  41   8  42   8  43   8  44   8  45  14
M  ISO  4  46  14  47  14  48  14  49  14
M  END
>  <minimizedAffinity>  (1) 
-6.01974058

>  <minimizedRMSD>  (1) 
1.92102981

$$$$
