
     RDKit          3D

 52 55  0  0  0  0  0  0  0  0999 V2000
   38.4280   26.7090   34.7340 C   0  0  0  0  0  0  0  0  0  0  0  0
   37.6830   26.4300   33.5630 C   0  0  0  0  0  0  0  0  0  0  0  0
   37.4300   25.1010   33.2470 C   0  0  0  0  0  0  0  0  0  0  0  0
   37.8950   24.1230   34.0540 N   0  0  0  0  0  0  0  0  0  0  0  0
   38.5900   24.3960   35.1470 C   0  0  0  0  0  0  0  0  0  0  0  0
   38.8630   25.7000   35.4970 N   0  0  0  0  0  0  0  0  0  0  0  0
   37.2850   27.5600   32.8520 N   0  0  0  0  0  0  0  0  0  0  0  0
   37.8520   27.6640   31.6290 C   0  0  0  0  0  0  0  0  0  0  0  0
   37.5470   28.7490   30.8010 C   0  0  0  0  0  0  0  0  0  0  0  0
   36.6500   29.6830   31.3060 C   0  0  0  0  0  0  0  0  0  0  0  0
   36.3230   30.6690   30.6520 O   0  0  0  0  0  0  0  0  0  0  0  0
   36.0950   29.5620   32.5290 N   0  0  0  0  0  0  0  0  0  0  0  0
   36.4220   28.4870   33.3010 C   0  0  0  0  0  0  0  0  0  0  0  0
   35.9270   28.3410   34.4400 O   0  0  0  0  0  0  0  0  0  0  0  0
   35.1750   30.4760   33.1020 C   0  0  0  0  0  0  0  0  0  0  0  0
   34.3690   31.4790   32.5910 C   0  0  0  0  0  0  0  0  0  0  0  0
   33.7040   32.0050   33.6900 C   0  0  0  0  0  0  0  0  0  0  0  0
   34.1020   31.3420   34.7960 N   0  0  0  0  0  0  0  0  0  0  0  0
   34.9880   30.4260   34.4200 N   0  0  0  0  0  0  0  0  0  0  0  0
   39.0830   23.2680   36.0030 C   0  0  0  0  0  0  0  0  0  0  0  0
   38.7540   23.5870   37.4670 C   0  0  0  0  0  0  0  0  0  0  0  0
   38.2650   22.0610   35.6460 C   0  0  0  0  0  0  0  0  0  0  0  0
   40.5540   23.1380   35.8980 C   0  0  0  0  0  0  0  0  0  0  0  0
   41.3900   22.8450   37.0580 C   0  0  0  0  0  0  0  0  0  0  0  0
   42.8280   23.3260   36.6500 C   0  0  0  0  0  0  0  0  0  0  0  0
   43.3510   22.2000   35.8020 C   0  0  0  0  0  0  0  0  0  0  0  0
   42.4950   20.9810   36.0620 C   0  0  0  0  0  0  0  0  0  0  0  0
   41.6290   21.3910   37.2670 C   0  0  0  0  0  0  0  0  0  0  0  0
   38.6479   27.7495   35.0149 H   0  0  0  0  0  0  0  0  0  0  0  0
   36.8543   24.8468   32.3448 H   0  0  0  0  0  0  0  0  0  0  0  0
   38.5559   26.8923   31.2840 H   0  0  0  0  0  0  0  0  0  0  0  0
   37.9939   28.8576   29.8017 H   0  0  0  0  0  0  0  0  0  0  0  0
   34.2757   31.7917   31.5405 H   0  0  0  0  0  0  0  0  0  0  0  0
   32.9732   32.8267   33.6638 H   0  0  0  0  0  0  0  0  0  0  0  0
   33.7775   31.5149   35.7581 H   0  0  0  0  0  0  0  0  0  0  0  0
   39.3859   22.9743   38.1267 H   0  0  0  0  0  0  0  0  0  0  0  0
   38.9453   24.6525   37.6620 H   0  0  0  0  0  0  0  0  0  0  0  0
   37.6949   23.3629   37.6620 H   0  0  0  0  0  0  0  0  0  0  0  0
   37.9268   21.5620   36.5661 H   0  0  0  0  0  0  0  0  0  0  0  0
   37.3909   22.3721   35.0551 H   0  0  0  0  0  0  0  0  0  0  0  0
   38.8779   21.3644   35.0551 H   0  0  0  0  0  0  0  0  0  0  0  0
   40.7408   22.3324   35.1727 H   0  0  0  0  0  0  0  0  0  0  0  0
   40.8589   24.1648   35.6474 H   0  0  0  0  0  0  0  0  0  0  0  0
   40.9060   23.2966   37.9365 H   0  0  0  0  0  0  0  0  0  0  0  0
   42.7802   24.2619   36.0739 H   0  0  0  0  0  0  0  0  0  0  0  0
   43.4689   23.5403   37.5179 H   0  0  0  0  0  0  0  0  0  0  0  0
   44.3962   21.9858   36.0696 H   0  0  0  0  0  0  0  0  0  0  0  0
   43.3116   22.4739   34.7374 H   0  0  0  0  0  0  0  0  0  0  0  0
   41.8672   20.7495   35.1889 H   0  0  0  0  0  0  0  0  0  0  0  0
   43.0903   20.0761   36.2541 H   0  0  0  0  0  0  0  0  0  0  0  0
   42.1641   21.2142   38.2117 H   0  0  0  0  0  0  0  0  0  0  0  0
   40.6955   20.8131   37.3346 H   0  0  0  0  0  0  0  0  0  0  0  0
  1  6  2  0
  2  1  1  0
  3  2  2  0
  3  4  1  0
  4  5  2  0
  5  6  1  0
  5 20  1  0
  7 13  1  0
  7  2  1  0
  8  7  1  0
  9 10  1  0
  9  8  2  0
 10 12  1  0
 11 10  2  0
 12 15  1  0
 12 13  1  0
 13 14  2  0
 15 19  2  0
 16 15  1  0
 16 17  2  0
 17 18  1  0
 19 18  1  0
 20 21  1  0
 22 20  1  0
 23 20  1  0
 23 24  1  0
 24 28  1  0
 25 24  1  0
 26 27  1  0
 26 25  1  0
 27 28  1  0
  1 29  1  0
  3 30  1  0
  8 31  1  0
  9 32  1  0
 16 33  1  0
 17 34  1  0
 18 35  1  0
 21 36  1  0
 21 37  1  0
 21 38  1  0
 22 39  1  0
 22 40  1  0
 22 41  1  0
 23 42  1  0
 23 43  1  0
 24 44  1  0
 25 45  1  0
 25 46  1  0
 26 47  1  0
 26 48  1  0
 27 49  1  0
 27 50  1  0
 28 51  1  0
 28 52  1  0
M  ISO  8  29  14  30  14  31  14  32  14  33  14  34  14  35   9  36   8
M  ISO  8  37   8  38   8  39   8  40   8  41   8  42   8  43   8  44  13
M  ISO  8  45  13  46  13  47  13  48  13  49  13  50  13  51  13  52  13
M  END
>  <minimizedAffinity>  (1) 
-5.77169037

>  <minimizedRMSD>  (1) 
1.98842132

$$$$
