
     RDKit          3D

 53 56  0  0  0  0  0  0  0  0999 V2000
   37.6280   27.1490   35.0170 C   0  0  0  0  0  0  0  0  0  0  0  0
   37.2960   26.8170   33.7030 C   0  0  0  0  0  0  0  0  0  0  0  0
   37.3710   25.4810   33.3310 C   0  0  0  0  0  0  0  0  0  0  0  0
   37.7560   24.5660   34.2410 N   0  0  0  0  0  0  0  0  0  0  0  0
   38.0720   24.9070   35.5000 C   0  0  0  0  0  0  0  0  0  0  0  0
   38.0100   26.2070   35.9050 N   0  0  0  0  0  0  0  0  0  0  0  0
   36.9180   27.8990   32.9020 N   0  0  0  0  0  0  0  0  0  0  0  0
   37.5690   27.9720   31.7340 C   0  0  0  0  0  0  0  0  0  0  0  0
   37.2810   29.0100   30.8440 C   0  0  0  0  0  0  0  0  0  0  0  0
   36.3120   29.9290   31.2320 C   0  0  0  0  0  0  0  0  0  0  0  0
   36.0040   30.8680   30.5040 O   0  0  0  0  0  0  0  0  0  0  0  0
   35.6720   29.8340   32.4100 N   0  0  0  0  0  0  0  0  0  0  0  0
   35.9790   28.8130   33.2460 C   0  0  0  0  0  0  0  0  0  0  0  0
   35.3990   28.6940   34.3600 O   0  0  0  0  0  0  0  0  0  0  0  0
   34.6710   30.7390   32.8690 C   0  0  0  0  0  0  0  0  0  0  0  0
   33.8780   31.6890   32.2590 C   0  0  0  0  0  0  0  0  0  0  0  0
   33.1040   32.2270   33.2890 C   0  0  0  0  0  0  0  0  0  0  0  0
   33.4340   31.6180   34.4340 N   0  0  0  0  0  0  0  0  0  0  0  0
   34.3770   30.7270   34.1630 N   0  0  0  0  0  0  0  0  0  0  0  0
   38.4830   23.8100   36.4140 C   0  0  0  0  0  0  0  0  0  0  0  0
   38.1670   24.2740   37.8540 C   0  0  0  0  0  0  0  0  0  0  0  0
   37.6080   22.6170   36.1720 C   0  0  0  0  0  0  0  0  0  0  0  0
   39.9490   23.5670   36.3590 C   0  0  0  0  0  0  0  0  0  0  0  0
   40.4010   22.2330   36.2500 N   0  0  0  0  0  0  0  0  0  0  0  0
   41.0210   21.6250   37.3590 C   0  0  0  0  0  0  0  0  0  0  0  0
   42.4200   21.1020   37.1440 C   0  0  0  0  0  0  0  0  0  0  0  0
   42.7060   20.6760   35.8080 N   0  0  0  0  0  0  0  0  0  0  0  0
   42.4500   21.8540   34.9610 C   0  0  0  0  0  0  0  0  0  0  0  0
   40.9270   21.9730   34.9550 C   0  0  0  0  0  0  0  0  0  0  0  0
   37.5773   28.2005   35.3359 H   0  0  0  0  0  0  0  0  0  0  0  0
   37.1189   25.1739   32.3053 H   0  0  0  0  0  0  0  0  0  0  0  0
   38.3273   27.2180   31.4763 H   0  0  0  0  0  0  0  0  0  0  0  0
   37.7988   29.0966   29.8774 H   0  0  0  0  0  0  0  0  0  0  0  0
   33.8596   31.9628   31.1938 H   0  0  0  0  0  0  0  0  0  0  0  0
   32.3490   33.0192   33.1779 H   0  0  0  0  0  0  0  0  0  0  0  0
   33.0274   31.8079   35.3611 H   0  0  0  0  0  0  0  0  0  0  0  0
   38.6359   23.5854   38.5723 H   0  0  0  0  0  0  0  0  0  0  0  0
   38.5624   25.2890   38.0073 H   0  0  0  0  0  0  0  0  0  0  0  0
   37.0777   24.2778   38.0073 H   0  0  0  0  0  0  0  0  0  0  0  0
   37.2950   22.1902   37.1363 H   0  0  0  0  0  0  0  0  0  0  0  0
   36.7193   22.9239   35.6011 H   0  0  0  0  0  0  0  0  0  0  0  0
   38.1677   21.8615   35.6011 H   0  0  0  0  0  0  0  0  0  0  0  0
   40.3380   24.1153   35.4884 H   0  0  0  0  0  0  0  0  0  0  0  0
   40.3175   23.9002   37.3404 H   0  0  0  0  0  0  0  0  0  0  0  0
   41.0628   22.3689   38.1682 H   0  0  0  0  0  0  0  0  0  0  0  0
   40.4099   20.7387   37.5851 H   0  0  0  0  0  0  0  0  0  0  0  0
   43.1278   21.9021   37.4063 H   0  0  0  0  0  0  0  0  0  0  0  0
   42.5164   20.2093   37.7794 H   0  0  0  0  0  0  0  0  0  0  0  0
   43.6891   20.3798   35.7265 H   0  0  0  0  0  0  0  0  0  0  0  0
   42.9119   22.7545   35.3919 H   0  0  0  0  0  0  0  0  0  0  0  0
   42.8732   21.7522   33.9508 H   0  0  0  0  0  0  0  0  0  0  0  0
   40.6391   22.7961   34.2845 H   0  0  0  0  0  0  0  0  0  0  0  0
   40.5158   21.0124   34.6114 H   0  0  0  0  0  0  0  0  0  0  0  0
  1  6  2  0
  2  1  1  0
  3  2  2  0
  3  4  1  0
  4  5  2  0
  5  6  1  0
  5 20  1  0
  7 13  1  0
  7  2  1  0
  8  7  1  0
  9 10  1  0
  9  8  2  0
 10 12  1  0
 11 10  2  0
 12 15  1  0
 12 13  1  0
 13 14  2  0
 15 19  2  0
 16 15  1  0
 16 17  2  0
 17 18  1  0
 19 18  1  0
 20 21  1  0
 22 20  1  0
 23 20  1  0
 24 23  1  0
 24 25  1  0
 26 25  1  0
 27 26  1  0
 28 27  1  0
 29 28  1  0
 29 24  1  0
  1 30  1  0
  3 31  1  0
  8 32  1  0
  9 33  1  0
 16 34  1  0
 17 35  1  0
 18 36  1  0
 21 37  1  0
 21 38  1  0
 21 39  1  0
 22 40  1  0
 22 41  1  0
 22 42  1  0
 23 43  1  0
 23 44  1  0
 25 45  1  0
 25 46  1  0
 26 47  1  0
 26 48  1  0
 27 49  1  0
 28 50  1  0
 28 51  1  0
 29 52  1  0
 29 53  1  0
M  ISO  8  30  14  31  14  32  14  33  14  34  14  35  14  36   9  37   8
M  ISO  8  38   8  39   8  40   8  41   8  42   8  43   8  44   8  45  13
M  ISO  8  46  13  47  13  48  13  49   5  50  13  51  13  52  13  53  13
M  END
>  <minimizedAffinity>  (1) 
-5.67406321

>  <minimizedRMSD>  (1) 
1.75344718

$$$$
