
     RDKit          3D

 46 49  0  0  0  0  0  0  0  0999 V2000
   37.9630   26.5470   34.8460 C   0  0  0  0  0  0  0  0  0  0  0  0
   37.5170   26.3700   33.5290 C   0  0  0  0  0  0  0  0  0  0  0  0
   37.4850   25.0700   33.0350 C   0  0  0  0  0  0  0  0  0  0  0  0
   37.8800   24.0530   33.8300 N   0  0  0  0  0  0  0  0  0  0  0  0
   38.3030   24.2490   35.0850 C   0  0  0  0  0  0  0  0  0  0  0  0
   38.3490   25.5040   35.6100 N   0  0  0  0  0  0  0  0  0  0  0  0
   37.1540   27.5310   32.8710 N   0  0  0  0  0  0  0  0  0  0  0  0
   37.7000   27.6750   31.6500 C   0  0  0  0  0  0  0  0  0  0  0  0
   37.4110   28.8100   30.8810 C   0  0  0  0  0  0  0  0  0  0  0  0
   36.5530   29.7500   31.4400 C   0  0  0  0  0  0  0  0  0  0  0  0
   36.2530   30.7670   30.8300 O   0  0  0  0  0  0  0  0  0  0  0  0
   36.0140   29.5960   32.6600 N   0  0  0  0  0  0  0  0  0  0  0  0
   36.3170   28.4770   33.3820 C   0  0  0  0  0  0  0  0  0  0  0  0
   35.8370   28.2900   34.5250 O   0  0  0  0  0  0  0  0  0  0  0  0
   35.1330   30.5110   33.2900 C   0  0  0  0  0  0  0  0  0  0  0  0
   34.3410   31.5490   32.8350 C   0  0  0  0  0  0  0  0  0  0  0  0
   33.7230   32.0440   33.9780 C   0  0  0  0  0  0  0  0  0  0  0  0
   34.1280   31.3400   35.0460 N   0  0  0  0  0  0  0  0  0  0  0  0
   34.9860   30.4120   34.6060 N   0  0  0  0  0  0  0  0  0  0  0  0
   38.7100   23.0620   35.8650 C   0  0  0  0  0  0  0  0  0  0  0  0
   39.0300   23.5110   37.2940 C   0  0  0  0  0  0  0  0  0  0  0  0
   37.5540   22.1140   35.9570 C   0  0  0  0  0  0  0  0  0  0  0  0
   39.9490   22.4380   35.3070 C   0  0  0  0  0  0  0  0  0  0  0  0
   41.1720   23.1370   35.5830 C   0  0  0  0  0  0  0  0  0  0  0  0
   42.2050   22.8430   36.5650 C   0  0  0  0  0  0  0  0  0  0  0  0
   43.2670   23.6740   36.6060 C   0  0  0  0  0  0  0  0  0  0  0  0
   43.3640   24.7910   35.7190 C   0  0  0  0  0  0  0  0  0  0  0  0
   41.7650   24.6280   34.7270 S   0  0  0  0  0  0  0  0  0  0  0  0
   37.9993   27.5624   35.2675 H   0  0  0  0  0  0  0  0  0  0  0  0
   37.1419   24.8730   32.0086 H   0  0  0  0  0  0  0  0  0  0  0  0
   38.3741   26.9008   31.2549 H   0  0  0  0  0  0  0  0  0  0  0  0
   37.8438   28.9509   29.8796 H   0  0  0  0  0  0  0  0  0  0  0  0
   34.2256   31.9038   31.8002 H   0  0  0  0  0  0  0  0  0  0  0  0
   33.0120   32.8830   34.0028 H   0  0  0  0  0  0  0  0  0  0  0  0
   33.8336   31.4864   36.0221 H   0  0  0  0  0  0  0  0  0  0  0  0
   38.5450   22.8305   38.0094 H   0  0  0  0  0  0  0  0  0  0  0  0
   40.1188   23.4912   37.4494 H   0  0  0  0  0  0  0  0  0  0  0  0
   38.6560   24.5337   37.4494 H   0  0  0  0  0  0  0  0  0  0  0  0
   37.3203   21.9223   37.0147 H   0  0  0  0  0  0  0  0  0  0  0  0
   36.6769   22.5562   35.4620 H   0  0  0  0  0  0  0  0  0  0  0  0
   37.8159   21.1673   35.4620 H   0  0  0  0  0  0  0  0  0  0  0  0
   39.8341   22.3747   34.2149 H   0  0  0  0  0  0  0  0  0  0  0  0
   40.0427   21.4596   35.8009 H   0  0  0  0  0  0  0  0  0  0  0  0
   42.1235   21.9813   37.2438 H   0  0  0  0  0  0  0  0  0  0  0  0
   44.0711   23.4892   37.3335 H   0  0  0  0  0  0  0  0  0  0  0  0
   44.1597   25.5460   35.6361 H   0  0  0  0  0  0  0  0  0  0  0  0
  1  6  2  0
  2  1  1  0
  3  2  2  0
  3  4  1  0
  4  5  2  0
  5  6  1  0
  5 20  1  0
  7 13  1  0
  7  2  1  0
  8  7  1  0
  9 10  1  0
  9  8  2  0
 10 12  1  0
 11 10  2  0
 12 15  1  0
 12 13  1  0
 13 14  2  0
 15 19  2  0
 16 15  1  0
 16 17  2  0
 17 18  1  0
 19 18  1  0
 20 22  1  0
 20 21  1  0
 23 24  1  0
 23 20  1  0
 24 25  2  0
 25 26  1  0
 27 26  2  0
 28 24  1  0
 28 27  1  0
  1 29  1  0
  3 30  1  0
  8 31  1  0
  9 32  1  0
 16 33  1  0
 17 34  1  0
 18 35  1  0
 21 36  1  0
 21 37  1  0
 21 38  1  0
 22 39  1  0
 22 40  1  0
 22 41  1  0
 23 42  1  0
 23 43  1  0
 25 44  1  0
 26 45  1  0
 27 46  1  0
M  ISO  8  29  14  30  14  31  14  32  14  33  14  34  14  35   9  36   8
M  ISO  8  37   8  38   8  39   8  40   8  41   8  42   8  43   8  44  14
M  ISO  2  45  14  46  14
M  END
>  <minimizedAffinity>  (1) 
-5.51466894

>  <minimizedRMSD>  (1) 
1.89466584

$$$$
