
     RDKit          3D

 38 40  0  0  0  0  0  0  0  0999 V2000
   37.2580   22.5790   37.1540 C   0  0  0  0  0  0  0  0  0  0  0  0
   36.9700   21.9090   35.8910 C   0  0  0  0  0  0  0  0  0  0  0  0
   35.8840   21.1620   35.6580 C   0  0  0  0  0  0  0  0  0  0  0  0
   35.6030   20.5560   34.4830 C   0  0  0  0  0  0  0  0  0  0  0  0
   36.6190   20.8070   33.4950 C   0  0  0  0  0  0  0  0  0  0  0  0
   37.8670   21.8860   34.3630 S   0  0  0  0  0  0  0  0  0  0  0  0
   36.8010   20.4130   32.1260 C   0  0  0  0  0  0  0  0  0  0  0  0
   35.9870   19.5540   31.4760 C   0  0  0  0  0  0  0  0  0  0  0  0
   36.7140   19.4810   29.7520 S   0  0  0  0  0  0  0  0  0  0  0  0
   38.0520   20.7070   30.3160 C   0  0  0  0  0  0  0  0  0  0  0  0
   37.7370   20.8530   31.3770 N   0  0  0  0  0  0  0  0  0  0  0  0
   39.0930   21.1340   29.3120 C   0  0  0  0  0  0  0  0  0  0  0  0
   39.0400   22.4900   29.2840 F   0  0  0  0  0  0  0  0  0  0  0  0
   40.3630   20.7780   29.7650 F   0  0  0  0  0  0  0  0  0  0  0  0
   38.9050   20.5280   28.0880 F   0  0  0  0  0  0  0  0  0  0  0  0
   38.1480   23.7860   37.0390 C   0  0  0  0  0  0  0  0  0  0  0  0
   41.4320   21.9970   37.2420 C   0  0  0  0  0  0  0  0  0  0  0  0
   40.1250   22.3420   37.5450 C   0  0  0  0  0  0  0  0  0  0  0  0
   39.5120   23.3580   36.7960 C   0  0  0  0  0  0  0  0  0  0  0  0
   40.2310   23.9480   35.8160 N   0  0  0  0  0  0  0  0  0  0  0  0
   41.5070   23.5910   35.5410 C   0  0  0  0  0  0  0  0  0  0  0  0
   42.0960   22.6160   36.2580 N   0  0  0  0  0  0  0  0  0  0  0  0
   38.1070   24.5250   38.3810 C   0  0  0  0  0  0  0  0  0  0  0  0
   37.5730   24.6720   35.9570 C   0  0  0  0  0  0  0  0  0  0  0  0
   36.3034   22.8987   37.5972 H   0  0  0  0  0  0  0  0  0  0  0  0
   37.8020   21.8510   37.7737 H   0  0  0  0  0  0  0  0  0  0  0  0
   35.1681   21.0318   36.4829 H   0  0  0  0  0  0  0  0  0  0  0  0
   34.7062   19.9448   34.3035 H   0  0  0  0  0  0  0  0  0  0  0  0
   35.1062   19.0232   31.8664 H   0  0  0  0  0  0  0  0  0  0  0  0
   41.9311   21.2036   37.8178 H   0  0  0  0  0  0  0  0  0  0  0  0
   39.5808   21.8317   38.3534 H   0  0  0  0  0  0  0  0  0  0  0  0
   42.0604   24.0954   34.7351 H   0  0  0  0  0  0  0  0  0  0  0  0
   38.1475   23.7951   39.2029 H   0  0  0  0  0  0  0  0  0  0  0  0
   38.9688   25.2049   38.4516 H   0  0  0  0  0  0  0  0  0  0  0  0
   37.1753   25.1054   38.4516 H   0  0  0  0  0  0  0  0  0  0  0  0
   37.0296   25.5094   36.4191 H   0  0  0  0  0  0  0  0  0  0  0  0
   38.3890   25.0645   35.3324 H   0  0  0  0  0  0  0  0  0  0  0  0
   36.8822   24.0867   35.3324 H   0  0  0  0  0  0  0  0  0  0  0  0
  2  1  1  0
  3  2  2  0
  4  3  1  0
  5  6  1  0
  5  4  2  0
  6  2  1  0
  7  5  1  0
  8  7  2  0
  9 10  1  0
  9  8  1  0
 10 11  2  0
 11  7  1  0
 12 14  1  0
 12 10  1  0
 13 12  1  0
 15 12  1  0
 16  1  1  0
 16 23  1  0
 17 18  2  0
 19 16  1  0
 19 18  1  0
 20 19  2  0
 21 20  1  0
 21 22  2  0
 22 17  1  0
 24 16  1  0
  1 25  1  0
  1 26  1  0
  3 27  1  0
  4 28  1  0
  8 29  1  0
 17 30  1  0
 18 31  1  0
 21 32  1  0
 23 33  1  0
 23 34  1  0
 23 35  1  0
 24 36  1  0
 24 37  1  0
 24 38  1  0
M  ISO  8  25   8  26   8  27  14  28  14  29  14  30  14  31  14  32  14
M  ISO  6  33   8  34   8  35   8  36   8  37   8  38   8
M  END
>  <minimizedAffinity>  (1) 
-4.62176657

>  <minimizedRMSD>  (1) 
0.258666813

$$$$
