
     RDKit          3D

 47 50  0  0  0  0  0  0  0  0999 V2000
   38.4810   26.6280   34.7010 C   0  0  0  0  0  0  0  0  0  0  0  0
   37.9090   26.2250   33.4800 C   0  0  0  0  0  0  0  0  0  0  0  0
   37.6460   24.8740   33.3060 C   0  0  0  0  0  0  0  0  0  0  0  0
   37.9380   23.9980   34.2910 N   0  0  0  0  0  0  0  0  0  0  0  0
   38.4760   24.3930   35.4360 C   0  0  0  0  0  0  0  0  0  0  0  0
   38.7550   25.7180   35.6550 N   0  0  0  0  0  0  0  0  0  0  0  0
   37.6760   27.2580   32.5800 N   0  0  0  0  0  0  0  0  0  0  0  0
   38.4880   27.2590   31.5160 C   0  0  0  0  0  0  0  0  0  0  0  0
   38.3610   28.2480   30.5290 C   0  0  0  0  0  0  0  0  0  0  0  0
   37.3650   29.1990   30.7210 C   0  0  0  0  0  0  0  0  0  0  0  0
   37.1800   30.1010   29.9090 O   0  0  0  0  0  0  0  0  0  0  0  0
   36.5520   29.1840   31.8000 N   0  0  0  0  0  0  0  0  0  0  0  0
   36.7200   28.2030   32.7260 C   0  0  0  0  0  0  0  0  0  0  0  0
   35.9790   28.1580   33.7460 O   0  0  0  0  0  0  0  0  0  0  0  0
   35.5280   30.1180   32.0490 C   0  0  0  0  0  0  0  0  0  0  0  0
   34.8410   31.0390   31.2850 C   0  0  0  0  0  0  0  0  0  0  0  0
   33.9470   31.6540   32.1350 C   0  0  0  0  0  0  0  0  0  0  0  0
   34.0960   31.1160   33.3670 N   0  0  0  0  0  0  0  0  0  0  0  0
   35.0550   30.1930   33.2880 N   0  0  0  0  0  0  0  0  0  0  0  0
   38.7820   23.4040   36.4920 C   0  0  0  0  0  0  0  0  0  0  0  0
   37.8740   23.6090   37.6870 C   0  0  0  0  0  0  0  0  0  0  0  0
   38.4980   22.0280   35.9240 C   0  0  0  0  0  0  0  0  0  0  0  0
   40.2060   23.5410   36.9650 C   0  0  0  0  0  0  0  0  0  0  0  0
   41.0930   22.4820   36.4600 C   0  0  0  0  0  0  0  0  0  0  0  0
   41.6100   21.5260   37.3350 C   0  0  0  0  0  0  0  0  0  0  0  0
   42.4520   20.5040   36.9180 C   0  0  0  0  0  0  0  0  0  0  0  0
   42.8080   20.4020   35.6050 N   0  0  0  0  0  0  0  0  0  0  0  0
   42.2950   21.3400   34.7760 C   0  0  0  0  0  0  0  0  0  0  0  0
   41.4730   22.3400   35.1760 N   0  0  0  0  0  0  0  0  0  0  0  0
   38.7051   27.6905   34.8768 H   0  0  0  0  0  0  0  0  0  0  0  0
   37.1999   24.5167   32.3661 H   0  0  0  0  0  0  0  0  0  0  0  0
   39.2587   26.4806   31.4149 H   0  0  0  0  0  0  0  0  0  0  0  0
   39.0173   28.2700   29.6465 H   0  0  0  0  0  0  0  0  0  0  0  0
   34.9791   31.2418   30.2127 H   0  0  0  0  0  0  0  0  0  0  0  0
   33.2351   32.4458   31.8590 H   0  0  0  0  0  0  0  0  0  0  0  0
   33.5656   31.3725   34.2118 H   0  0  0  0  0  0  0  0  0  0  0  0
   38.4523   23.4784   38.6136 H   0  0  0  0  0  0  0  0  0  0  0  0
   37.4530   24.6248   37.6576 H   0  0  0  0  0  0  0  0  0  0  0  0
   37.0574   22.8726   37.6576 H   0  0  0  0  0  0  0  0  0  0  0  0
   38.3507   21.3144   36.7481 H   0  0  0  0  0  0  0  0  0  0  0  0
   37.5890   22.0670   35.3058 H   0  0  0  0  0  0  0  0  0  0  0  0
   39.3482   21.7039   35.3058 H   0  0  0  0  0  0  0  0  0  0  0  0
   40.5943   24.5126   36.6256 H   0  0  0  0  0  0  0  0  0  0  0  0
   40.1935   23.4589   38.0619 H   0  0  0  0  0  0  0  0  0  0  0  0
   41.3392   21.5845   38.3995 H   0  0  0  0  0  0  0  0  0  0  0  0
   42.8330   19.7747   37.6480 H   0  0  0  0  0  0  0  0  0  0  0  0
   42.5620   21.2875   33.7102 H   0  0  0  0  0  0  0  0  0  0  0  0
  1  6  2  0
  2  1  1  0
  3  2  2  0
  3  4  1  0
  4  5  2  0
  5  6  1  0
  5 20  1  0
  7 13  1  0
  7  2  1  0
  8  7  1  0
  9 10  1  0
  9  8  2  0
 10 12  1  0
 11 10  2  0
 12 15  1  0
 12 13  1  0
 13 14  2  0
 15 19  2  0
 16 15  1  0
 16 17  2  0
 17 18  1  0
 19 18  1  0
 20 23  1  0
 20 21  1  0
 22 20  1  0
 24 23  1  0
 24 25  2  0
 26 25  1  0
 27 26  2  0
 28 29  2  0
 28 27  1  0
 29 24  1  0
  1 30  1  0
  3 31  1  0
  8 32  1  0
  9 33  1  0
 16 34  1  0
 17 35  1  0
 18 36  1  0
 21 37  1  0
 21 38  1  0
 21 39  1  0
 22 40  1  0
 22 41  1  0
 22 42  1  0
 23 43  1  0
 23 44  1  0
 25 45  1  0
 26 46  1  0
 28 47  1  0
M  ISO  8  30  14  31  14  32  14  33  14  34  14  35  14  36   9  37   8
M  ISO  8  38   8  39   8  40   8  41   8  42   8  43   8  44   8  45  14
M  ISO  2  46  14  47  14
M  END
>  <minimizedAffinity>  (1) 
-5.34706259

>  <minimizedRMSD>  (1) 
1.24003303

$$$$
