
     RDKit          3D

 41 45  0  0  1  0  0  0  0  0999 V2000
   38.0550   23.9600   34.7130 N   0  0  0  0  0  0  0  0  0  0  0  0
   37.9120   25.2810   34.4690 C   0  0  0  0  0  0  0  0  0  0  0  0
   37.4900   25.7080   33.2110 C   0  0  0  0  0  0  0  0  0  0  0  0
   37.2370   24.7110   32.2570 C   0  0  0  0  0  0  0  0  0  0  0  0
   36.8600   25.0230   31.1190 O   0  0  0  0  0  0  0  0  0  0  0  0
   37.3890   23.3880   32.5270 N   0  0  0  0  0  0  0  0  0  0  0  0
   37.7970   23.0310   33.7550 C   0  0  0  0  0  0  0  0  0  0  0  0
   37.9510   21.8350   34.0510 O   0  0  0  0  0  0  0  0  0  0  0  0
   37.5180   23.9800   37.0050 C   0  0  0  0  0  0  0  0  0  0  0  0
   38.4810   23.6720   36.0070 C   0  0  0  0  0  0  0  0  0  0  0  0
   39.6770   23.1430   36.4320 C   0  0  0  0  0  0  0  0  0  0  0  0
   39.9000   22.9360   37.7530 N   0  0  0  0  0  0  0  0  0  0  0  0
   38.9660   23.2370   38.6810 C   0  0  0  0  0  0  0  0  0  0  0  0
   37.7740   23.7590   38.3130 N   0  0  0  0  0  0  0  0  0  0  0  0
   37.1390   22.3530   31.5810 C   0  0  2  0  0  0  0  0  0  0  0  0
   35.6430   22.1600   31.2830 C   0  0  0  0  0  0  0  0  0  0  0  0
   36.4690   21.0960   31.9160 C   0  0  1  0  0  0  0  0  0  0  0  0
   36.6760   19.8710   31.1410 C   0  0  0  0  0  0  0  0  0  0  0  0
   37.3210   19.7970   29.9060 C   0  0  0  0  0  0  0  0  0  0  0  0
   37.3650   18.5400   29.4260 N   0  0  0  0  0  0  0  0  0  0  0  0
   36.7470   17.7720   30.3480 C   0  0  0  0  0  0  0  0  0  0  0  0
   36.5260   16.4070   30.3340 C   0  0  0  0  0  0  0  0  0  0  0  0
   35.8610   15.8370   31.4070 C   0  0  0  0  0  0  0  0  0  0  0  0
   35.4360   16.6260   32.4550 C   0  0  0  0  0  0  0  0  0  0  0  0
   35.6570   18.0090   32.4740 C   0  0  0  0  0  0  0  0  0  0  0  0
   36.3190   18.5640   31.4040 C   0  0  0  0  0  0  0  0  0  0  0  0
   38.1274   26.0157   35.2588 H   0  0  0  0  0  0  0  0  0  0  0  0
   37.3615   26.7752   32.9775 H   0  0  0  0  0  0  0  0  0  0  0  0
   36.5481   24.4054   36.7079 H   0  0  0  0  0  0  0  0  0  0  0  0
   40.4551   22.8870   35.6978 H   0  0  0  0  0  0  0  0  0  0  0  0
   39.1767   23.0560   39.7453 H   0  0  0  0  0  0  0  0  0  0  0  0
   38.0848   22.5473   31.0541 H   0  0  0  0  0  0  0  0  0  0  0  0
   34.8850   22.6988   31.8705 H   0  0  0  0  0  0  0  0  0  0  0  0
   34.9975   22.2366   30.3956 H   0  0  0  0  0  0  0  0  0  0  0  0
   36.4341   20.5146   32.8492 H   0  0  0  0  0  0  0  0  0  0  0  0
   37.7454   20.6671   29.3837 H   0  0  0  0  0  0  0  0  0  0  0  0
   37.7839   18.2285   28.5381 H   0  0  0  0  0  0  0  0  0  0  0  0
   36.8699   15.7891   29.4914 H   0  0  0  0  0  0  0  0  0  0  0  0
   35.6717   14.7535   31.4232 H   0  0  0  0  0  0  0  0  0  0  0  0
   34.9092   16.1566   33.2989 H   0  0  0  0  0  0  0  0  0  0  0  0
   35.3132   18.6292   33.3150 H   0  0  0  0  0  0  0  0  0  0  0  0
  1 10  1  0
  2  1  1  0
  3  2  2  0
  4  6  1  0
  4  3  1  0
  5  4  2  0
  6  7  1  0
  7  8  2  0
  7  1  1  0
  9 14  2  0
 10 11  2  0
 10  9  1  0
 11 12  1  0
 12 13  2  0
 14 13  1  0
 15 17  1  0
 15  6  1  0
 16 15  1  0
 16 17  1  0
 18 26  1  0
 18 17  1  0
 19 18  2  0
 20 19  1  0
 20 21  1  0
 21 26  2  0
 22 21  1  0
 22 23  2  0
 23 24  1  0
 24 25  2  0
 26 25  1  0
  2 27  1  0
  3 28  1  0
  9 29  1  0
 11 30  1  0
 13 31  1  0
 15 32  1  6
 16 33  1  0
 16 34  1  0
 17 35  1  1
 19 36  1  0
 20 37  1  0
 22 38  1  0
 23 39  1  0
 24 40  1  0
 25 41  1  0
M  ISO  8  27  14  28  14  29  14  30  14  31  14  32  13  33  13  34  13
M  ISO  7  35  13  36  14  37   9  38  14  39  14  40  14  41  14
M  END
>  <minimizedAffinity>  (1) 
-6.0144124

>  <minimizedRMSD>  (1) 
2.64899063

$$$$
