
     RDKit          3D

 37 40  0  0  1  0  0  0  0  0999 V2000
   38.1170   23.9120   34.8020 N   0  0  0  0  0  0  0  0  0  0  0  0
   38.1570   25.2270   34.4700 C   0  0  0  0  0  0  0  0  0  0  0  0
   37.8110   25.6310   33.1820 C   0  0  0  0  0  0  0  0  0  0  0  0
   37.4370   24.6340   32.2920 C   0  0  0  0  0  0  0  0  0  0  0  0
   37.1160   24.9170   31.1310 O   0  0  0  0  0  0  0  0  0  0  0  0
   37.4030   23.3260   32.6450 N   0  0  0  0  0  0  0  0  0  0  0  0
   37.7460   22.9840   33.9050 C   0  0  0  0  0  0  0  0  0  0  0  0
   37.7280   21.7930   34.2660 O   0  0  0  0  0  0  0  0  0  0  0  0
   37.5710   24.1580   37.0730 C   0  0  0  0  0  0  0  0  0  0  0  0
   38.4860   23.6660   36.1130 C   0  0  0  0  0  0  0  0  0  0  0  0
   39.6010   23.0210   36.5970 C   0  0  0  0  0  0  0  0  0  0  0  0
   39.7770   22.8840   37.9340 N   0  0  0  0  0  0  0  0  0  0  0  0
   38.8710   23.3730   38.8250 C   0  0  0  0  0  0  0  0  0  0  0  0
   37.7630   24.0120   38.3960 N   0  0  0  0  0  0  0  0  0  0  0  0
   37.0220   22.2530   31.7610 C   0  0  2  0  0  0  0  0  0  0  0  0
   35.5440   22.3380   31.3270 C   0  0  0  0  0  0  0  0  0  0  0  0
   36.0450   21.2110   32.1310 C   0  0  1  0  0  0  0  0  0  0  0  0
   36.2570   19.8560   31.5300 C   0  0  0  0  0  0  0  0  0  0  0  0
   36.0790   18.7350   32.3470 C   0  0  0  0  0  0  0  0  0  0  0  0
   36.2540   17.4550   31.8740 C   0  0  0  0  0  0  0  0  0  0  0  0
   36.6120   17.2780   30.5660 C   0  0  0  0  0  0  0  0  0  0  0  0
   36.7830   18.3900   29.7750 C   0  0  0  0  0  0  0  0  0  0  0  0
   36.6180   19.6890   30.2080 C   0  0  0  0  0  0  0  0  0  0  0  0
   38.4625   25.9740   35.2174 H   0  0  0  0  0  0  0  0  0  0  0  0
   37.8333   26.6899   32.8848 H   0  0  0  0  0  0  0  0  0  0  0  0
   36.6678   24.6800   36.7240 H   0  0  0  0  0  0  0  0  0  0  0  0
   40.3491   22.6168   35.8992 H   0  0  0  0  0  0  0  0  0  0  0  0
   39.0440   23.2460   39.9039 H   0  0  0  0  0  0  0  0  0  0  0  0
   38.0306   22.1836   31.3275 H   0  0  0  0  0  0  0  0  0  0  0  0
   34.8763   23.0868   31.7782 H   0  0  0  0  0  0  0  0  0  0  0  0
   35.0101   22.4460   30.3713 H   0  0  0  0  0  0  0  0  0  0  0  0
   35.6820   20.7670   33.0697 H   0  0  0  0  0  0  0  0  0  0  0  0
   35.7907   18.8810   33.3985 H   0  0  0  0  0  0  0  0  0  0  0  0
   36.1085   16.5889   32.5364 H   0  0  0  0  0  0  0  0  0  0  0  0
   36.7600   16.2682   30.1555 H   0  0  0  0  0  0  0  0  0  0  0  0
   37.0711   18.2326   28.7251 H   0  0  0  0  0  0  0  0  0  0  0  0
   36.7662   20.5467   29.5355 H   0  0  0  0  0  0  0  0  0  0  0  0
  1 10  1  0
  2  1  1  0
  3  2  2  0
  4  6  1  0
  4  3  1  0
  5  4  2  0
  6  7  1  0
  7  8  2  0
  7  1  1  0
  9 14  2  0
 10 11  2  0
 10  9  1  0
 11 12  1  0
 12 13  2  0
 14 13  1  0
 15 17  1  0
 15  6  1  0
 16 15  1  0
 16 17  1  0
 18 17  1  0
 18 19  2  0
 20 19  1  0
 21 20  2  0
 22 23  2  0
 22 21  1  0
 23 18  1  0
  2 24  1  0
  3 25  1  0
  9 26  1  0
 11 27  1  0
 13 28  1  0
 15 29  1  6
 16 30  1  0
 16 31  1  0
 17 32  1  1
 19 33  1  0
 20 34  1  0
 21 35  1  0
 22 36  1  0
 23 37  1  0
M  ISO  8  24  14  25  14  26  14  27  14  28  14  29  13  30  13  31  13
M  ISO  6  32  13  33  14  34  14  35  14  36  14  37  14
M  END
>  <minimizedAffinity>  (1) 
-5.73195648

>  <minimizedRMSD>  (1) 
2.47352433

$$$$
