
     RDKit          3D

 37 40  0  0  1  0  0  0  0  0999 V2000
   38.1050   23.9420   34.7840 N   0  0  0  0  0  0  0  0  0  0  0  0
   38.1170   25.2460   34.4640 C   0  0  0  0  0  0  0  0  0  0  0  0
   37.7650   25.6520   33.1770 C   0  0  0  0  0  0  0  0  0  0  0  0
   37.4130   24.6360   32.2790 C   0  0  0  0  0  0  0  0  0  0  0  0
   37.0900   24.9270   31.1240 O   0  0  0  0  0  0  0  0  0  0  0  0
   37.4100   23.3260   32.6330 N   0  0  0  0  0  0  0  0  0  0  0  0
   37.7590   22.9970   33.8870 C   0  0  0  0  0  0  0  0  0  0  0  0
   37.7650   21.8070   34.2380 O   0  0  0  0  0  0  0  0  0  0  0  0
   37.5500   24.1560   37.0620 C   0  0  0  0  0  0  0  0  0  0  0  0
   38.4790   23.6820   36.1030 C   0  0  0  0  0  0  0  0  0  0  0  0
   39.6070   23.0380   36.5780 C   0  0  0  0  0  0  0  0  0  0  0  0
   39.7870   22.8830   37.9090 N   0  0  0  0  0  0  0  0  0  0  0  0
   38.8820   23.3470   38.7970 C   0  0  0  0  0  0  0  0  0  0  0  0
   37.7810   23.9740   38.3790 N   0  0  0  0  0  0  0  0  0  0  0  0
   37.0530   22.2620   31.7370 C   0  0  2  0  0  0  0  0  0  0  0  0
   35.5770   22.2800   31.3270 C   0  0  0  0  0  0  0  0  0  0  0  0
   36.1700   21.1600   32.1060 C   0  0  1  0  0  0  0  0  0  0  0  0
   36.3470   19.8210   31.4550 C   0  0  0  0  0  0  0  0  0  0  0  0
   36.2170   18.6720   32.2370 C   0  0  0  0  0  0  0  0  0  0  0  0
   36.3760   17.4060   31.6690 C   0  0  0  0  0  0  0  0  0  0  0  0
   36.6630   17.2870   30.3310 C   0  0  0  0  0  0  0  0  0  0  0  0
   36.7960   18.4220   29.5380 C   0  0  0  0  0  0  0  0  0  0  0  0
   36.6370   19.6820   30.1080 C   0  0  0  0  0  0  0  0  0  0  0  0
   38.4046   25.9943   35.2172 H   0  0  0  0  0  0  0  0  0  0  0  0
   37.7638   26.7120   32.8831 H   0  0  0  0  0  0  0  0  0  0  0  0
   36.6375   24.6740   36.7319 H   0  0  0  0  0  0  0  0  0  0  0  0
   40.3578   22.6519   35.8729 H   0  0  0  0  0  0  0  0  0  0  0  0
   39.0539   23.2069   39.8744 H   0  0  0  0  0  0  0  0  0  0  0  0
   38.0518   22.2638   31.2761 H   0  0  0  0  0  0  0  0  0  0  0  0
   34.8756   22.9797   31.8051 H   0  0  0  0  0  0  0  0  0  0  0  0
   35.0196   22.3789   30.3838 H   0  0  0  0  0  0  0  0  0  0  0  0
   35.9144   20.6755   33.0599 H   0  0  0  0  0  0  0  0  0  0  0  0
   35.9876   18.7644   33.3088 H   0  0  0  0  0  0  0  0  0  0  0  0
   36.2716   16.5056   32.2922 H   0  0  0  0  0  0  0  0  0  0  0  0
   36.7882   16.2895   29.8846 H   0  0  0  0  0  0  0  0  0  0  0  0
   37.0255   18.3245   28.4666 H   0  0  0  0  0  0  0  0  0  0  0  0
   36.7431   20.5790   29.4802 H   0  0  0  0  0  0  0  0  0  0  0  0
  1 10  1  0
  2  1  1  0
  3  2  2  0
  4  6  1  0
  4  3  1  0
  5  4  2  0
  6  7  1  0
  7  8  2  0
  7  1  1  0
  9 14  2  0
 10 11  2  0
 10  9  1  0
 11 12  1  0
 12 13  2  0
 14 13  1  0
 15 17  1  0
 15  6  1  0
 16 15  1  0
 16 17  1  0
 18 17  1  0
 18 19  2  0
 20 19  1  0
 21 20  2  0
 22 23  2  0
 22 21  1  0
 23 18  1  0
  2 24  1  0
  3 25  1  0
  9 26  1  0
 11 27  1  0
 13 28  1  0
 15 29  1  6
 16 30  1  0
 16 31  1  0
 17 32  1  1
 19 33  1  0
 20 34  1  0
 21 35  1  0
 22 36  1  0
 23 37  1  0
M  ISO  8  24  14  25  14  26  14  27  14  28  14  29  13  30  13  31  13
M  ISO  6  32  13  33  14  34  14  35  14  36  14  37  14
M  END
>  <minimizedAffinity>  (1) 
-5.66882849

>  <minimizedRMSD>  (1) 
2.51048207

$$$$
