
     RDKit          3D

 35 38  0  0  1  0  0  0  0  0999 V2000
   38.0990   23.7070   34.7750 N   0  0  0  0  0  0  0  0  0  0  0  0
   38.2220   24.9470   34.2800 C   0  0  0  0  0  0  0  0  0  0  0  0
   37.8840   25.2160   32.9510 C   0  0  0  0  0  0  0  0  0  0  0  0
   37.4270   24.1350   32.1970 C   0  0  0  0  0  0  0  0  0  0  0  0
   37.1090   24.2940   31.0140 O   0  0  0  0  0  0  0  0  0  0  0  0
   37.3100   22.8990   32.7090 N   0  0  0  0  0  0  0  0  0  0  0  0
   37.6480   22.6940   33.9940 C   0  0  0  0  0  0  0  0  0  0  0  0
   37.5560   21.5580   34.5150 O   0  0  0  0  0  0  0  0  0  0  0  0
   37.5850   24.2330   37.0060 C   0  0  0  0  0  0  0  0  0  0  0  0
   38.4710   23.5900   36.1130 C   0  0  0  0  0  0  0  0  0  0  0  0
   39.5560   22.9480   36.6650 C   0  0  0  0  0  0  0  0  0  0  0  0
   39.7500   22.9430   37.9990 N   0  0  0  0  0  0  0  0  0  0  0  0
   38.8800   23.5710   38.8340 C   0  0  0  0  0  0  0  0  0  0  0  0
   37.8030   24.2120   38.3340 N   0  0  0  0  0  0  0  0  0  0  0  0
   36.8450   21.7510   31.9800 C   0  0  2  0  0  0  0  0  0  0  0  0
   35.4320   21.9110   31.4270 C   0  0  0  0  0  0  0  0  0  0  0  0
   35.7830   20.8610   32.4190 C   0  0  1  0  0  0  0  0  0  0  0  0
   35.9180   19.4240   32.0030 C   0  0  0  0  0  0  0  0  0  0  0  0
   35.3550   18.3790   32.7350 C   0  0  0  0  0  0  0  0  0  0  0  0
   35.5460   17.0880   32.2510 C   0  0  0  0  0  0  0  0  0  0  0  0
   36.2510   16.8920   31.1210 N   0  0  0  0  0  0  0  0  0  0  0  0
   36.7910   17.8960   30.4180 C   0  0  0  0  0  0  0  0  0  0  0  0
   36.6240   19.1660   30.8630 N   0  0  0  0  0  0  0  0  0  0  0  0
   38.5915   25.7582   34.9245 H   0  0  0  0  0  0  0  0  0  0  0  0
   37.9734   26.2253   32.5227 H   0  0  0  0  0  0  0  0  0  0  0  0
   36.7037   24.7588   36.6100 H   0  0  0  0  0  0  0  0  0  0  0  0
   40.2736   22.4327   36.0097 H   0  0  0  0  0  0  0  0  0  0  0  0
   39.0545   23.5565   39.9200 H   0  0  0  0  0  0  0  0  0  0  0  0
   37.8663   21.5278   31.6377 H   0  0  0  0  0  0  0  0  0  0  0  0
   34.8130   22.7709   31.7226 H   0  0  0  0  0  0  0  0  0  0  0  0
   34.9710   21.9337   30.4285 H   0  0  0  0  0  0  0  0  0  0  0  0
   35.3313   20.5812   33.3822 H   0  0  0  0  0  0  0  0  0  0  0  0
   34.7840   18.5671   33.6562 H   0  0  0  0  0  0  0  0  0  0  0  0
   35.1214   16.2290   32.7912 H   0  0  0  0  0  0  0  0  0  0  0  0
   37.3588   17.6943   29.4977 H   0  0  0  0  0  0  0  0  0  0  0  0
  1 10  1  0
  2  1  1  0
  3  2  2  0
  4  6  1  0
  4  3  1  0
  5  4  2  0
  6  7  1  0
  7  8  2  0
  7  1  1  0
  9 14  2  0
 10 11  2  0
 10  9  1  0
 11 12  1  0
 12 13  2  0
 14 13  1  0
 15 17  1  0
 15  6  1  0
 16 15  1  0
 16 17  1  0
 18 17  1  0
 18 19  2  0
 20 19  1  0
 21 20  2  0
 22 23  2  0
 22 21  1  0
 23 18  1  0
  2 24  1  0
  3 25  1  0
  9 26  1  0
 11 27  1  0
 13 28  1  0
 15 29  1  6
 16 30  1  0
 16 31  1  0
 17 32  1  1
 19 33  1  0
 20 34  1  0
 22 35  1  0
M  ISO  8  24  14  25  14  26  14  27  14  28  14  29  13  30  13  31  13
M  ISO  4  32  13  33  14  34  14  35  14
M  END
>  <minimizedAffinity>  (1) 
-5.56806898

>  <minimizedRMSD>  (1) 
2.9238832

$$$$
