
     RDKit          3D

 35 38  0  0  1  0  0  0  0  0999 V2000
   38.1250   23.8750   34.7920 N   0  0  0  0  0  0  0  0  0  0  0  0
   38.1820   25.1600   34.4280 C   0  0  0  0  0  0  0  0  0  0  0  0
   37.8410   25.5490   33.1320 C   0  0  0  0  0  0  0  0  0  0  0  0
   37.4470   24.5300   32.2640 C   0  0  0  0  0  0  0  0  0  0  0  0
   37.1310   24.7810   31.1060 O   0  0  0  0  0  0  0  0  0  0  0  0
   37.3960   23.2310   32.6540 N   0  0  0  0  0  0  0  0  0  0  0  0
   37.7350   22.9140   33.9120 C   0  0  0  0  0  0  0  0  0  0  0  0
   37.7000   21.7310   34.3080 O   0  0  0  0  0  0  0  0  0  0  0  0
   37.5660   24.1560   37.0580 C   0  0  0  0  0  0  0  0  0  0  0  0
   38.4930   23.6420   36.1100 C   0  0  0  0  0  0  0  0  0  0  0  0
   39.5970   23.0020   36.6180 C   0  0  0  0  0  0  0  0  0  0  0  0
   39.7810   22.8740   37.9430 N   0  0  0  0  0  0  0  0  0  0  0  0
   38.8640   23.3840   38.8220 C   0  0  0  0  0  0  0  0  0  0  0  0
   37.7640   24.0200   38.3810 N   0  0  0  0  0  0  0  0  0  0  0  0
   36.9980   22.1430   31.8010 C   0  0  2  0  0  0  0  0  0  0  0  0
   35.5570   22.2290   31.3250 C   0  0  0  0  0  0  0  0  0  0  0  0
   36.0430   21.1070   32.1760 C   0  0  1  0  0  0  0  0  0  0  0  0
   36.2480   19.7560   31.5800 C   0  0  0  0  0  0  0  0  0  0  0  0
   36.5810   19.6100   30.2490 C   0  0  0  0  0  0  0  0  0  0  0  0
   36.7470   18.2990   29.8070 C   0  0  0  0  0  0  0  0  0  0  0  0
   36.5970   17.2160   30.6240 N   0  0  0  0  0  0  0  0  0  0  0  0
   36.2750   17.4210   31.9040 C   0  0  0  0  0  0  0  0  0  0  0  0
   36.1010   18.6860   32.3850 N   0  0  0  0  0  0  0  0  0  0  0  0
   38.5011   25.9187   35.1578 H   0  0  0  0  0  0  0  0  0  0  0  0
   37.8806   26.6008   32.8123 H   0  0  0  0  0  0  0  0  0  0  0  0
   36.6657   24.6772   36.7005 H   0  0  0  0  0  0  0  0  0  0  0  0
   40.3450   22.5862   35.9269 H   0  0  0  0  0  0  0  0  0  0  0  0
   39.0290   23.2722   39.9038 H   0  0  0  0  0  0  0  0  0  0  0  0
   38.0150   22.0646   31.3893 H   0  0  0  0  0  0  0  0  0  0  0  0
   34.8788   22.9885   31.7411 H   0  0  0  0  0  0  0  0  0  0  0  0
   35.0506   22.3208   30.3528 H   0  0  0  0  0  0  0  0  0  0  0  0
   35.6836   20.6773   33.1227 H   0  0  0  0  0  0  0  0  0  0  0  0
   36.7074   20.4735   29.5794 H   0  0  0  0  0  0  0  0  0  0  0  0
   37.0107   18.1293   28.7526 H   0  0  0  0  0  0  0  0  0  0  0  0
   36.1487   16.5607   32.5777 H   0  0  0  0  0  0  0  0  0  0  0  0
  1 10  1  0
  2  1  1  0
  3  2  2  0
  4  6  1  0
  4  3  1  0
  5  4  2  0
  6  7  1  0
  7  8  2  0
  7  1  1  0
  9 14  2  0
 10 11  2  0
 10  9  1  0
 11 12  1  0
 12 13  2  0
 14 13  1  0
 15 17  1  0
 15  6  1  0
 16 15  1  0
 16 17  1  0
 18 17  1  0
 18 23  1  0
 19 18  2  0
 20 19  1  0
 20 21  2  0
 21 22  1  0
 22 23  2  0
  2 24  1  0
  3 25  1  0
  9 26  1  0
 11 27  1  0
 13 28  1  0
 15 29  1  6
 16 30  1  0
 16 31  1  0
 17 32  1  1
 19 33  1  0
 20 34  1  0
 22 35  1  0
M  ISO  8  24  14  25  14  26  14  27  14  28  14  29  13  30  13  31  13
M  ISO  4  32  13  33  14  34  14  35  14
M  END
>  <minimizedAffinity>  (1) 
-5.48597383

>  <minimizedRMSD>  (1) 
2.55655789

$$$$
