
     RDKit          3D

 42 45  0  0  1  0  0  0  0  0999 V2000
   38.2110   23.9860   34.7830 N   0  0  0  0  0  0  0  0  0  0  0  0
   38.3600   25.2710   34.4320 C   0  0  0  0  0  0  0  0  0  0  0  0
   38.0670   25.6950   33.1370 C   0  0  0  0  0  0  0  0  0  0  0  0
   37.6150   24.7040   32.2580 C   0  0  0  0  0  0  0  0  0  0  0  0
   37.3320   25.0100   31.0820 O   0  0  0  0  0  0  0  0  0  0  0  0
   37.4680   23.4010   32.6280 N   0  0  0  0  0  0  0  0  0  0  0  0
   37.7700   23.0760   33.8880 C   0  0  0  0  0  0  0  0  0  0  0  0
   37.6460   21.8870   34.2630 O   0  0  0  0  0  0  0  0  0  0  0  0
   37.6020   24.2130   37.0410 C   0  0  0  0  0  0  0  0  0  0  0  0
   38.5410   23.7160   36.0980 C   0  0  0  0  0  0  0  0  0  0  0  0
   39.6260   23.0490   36.6150 C   0  0  0  0  0  0  0  0  0  0  0  0
   39.7610   22.8930   37.9440 N   0  0  0  0  0  0  0  0  0  0  0  0
   38.8470   23.3790   38.8170 C   0  0  0  0  0  0  0  0  0  0  0  0
   37.7720   24.0370   38.3640 N   0  0  0  0  0  0  0  0  0  0  0  0
   37.0080   22.3860   31.7380 C   0  0  2  0  0  0  0  0  0  0  0  0
   35.5650   22.5730   31.2800 C   0  0  0  0  0  0  0  0  0  0  0  0
   35.9790   21.4050   32.1080 C   0  0  1  0  0  0  0  0  0  0  0  0
   35.8780   20.1370   31.4530 N   0  0  0  0  0  0  0  0  0  0  0  0
   36.8160   20.0360   30.3550 C   0  0  0  0  0  0  0  0  0  0  0  0
   36.6600   18.7160   29.6440 C   0  0  0  0  0  0  0  0  0  0  0  0
   36.7820   17.5380   30.5800 C   0  0  0  0  0  0  0  0  0  0  0  0
   35.9030   17.7070   31.8080 C   0  0  0  0  0  0  0  0  0  0  0  0
   36.1620   19.0590   32.3830 C   0  0  0  0  0  0  0  0  0  0  0  0
   38.7177   25.9994   35.1746 H   0  0  0  0  0  0  0  0  0  0  0  0
   38.1837   26.7434   32.8251 H   0  0  0  0  0  0  0  0  0  0  0  0
   36.7148   24.7546   36.6810 H   0  0  0  0  0  0  0  0  0  0  0  0
   40.3894   22.6399   35.9369 H   0  0  0  0  0  0  0  0  0  0  0  0
   38.9875   23.2334   39.8982 H   0  0  0  0  0  0  0  0  0  0  0  0
   38.0101   22.2600   31.3022 H   0  0  0  0  0  0  0  0  0  0  0  0
   34.9436   23.3693   31.7156 H   0  0  0  0  0  0  0  0  0  0  0  0
   35.0569   22.7137   30.3146 H   0  0  0  0  0  0  0  0  0  0  0  0
   35.7081   20.9701   33.0814 H   0  0  0  0  0  0  0  0  0  0  0  0
   36.6294   20.8541   29.6437 H   0  0  0  0  0  0  0  0  0  0  0  0
   37.8386   20.1051   30.7545 H   0  0  0  0  0  0  0  0  0  0  0  0
   35.6690   18.6869   29.1674 H   0  0  0  0  0  0  0  0  0  0  0  0
   37.4679   18.6384   28.9016 H   0  0  0  0  0  0  0  0  0  0  0  0
   36.4787   16.6251   30.0466 H   0  0  0  0  0  0  0  0  0  0  0  0
   37.8283   17.4690   30.9122 H   0  0  0  0  0  0  0  0  0  0  0  0
   34.8441   17.6200   31.5230 H   0  0  0  0  0  0  0  0  0  0  0  0
   36.1322   16.9279   32.5499 H   0  0  0  0  0  0  0  0  0  0  0  0
   37.2209   19.1183   32.6750 H   0  0  0  0  0  0  0  0  0  0  0  0
   35.4897   19.1834   33.2447 H   0  0  0  0  0  0  0  0  0  0  0  0
  1 10  1  0
  2  1  1  0
  3  2  2  0
  4  6  1  0
  4  3  1  0
  5  4  2  0
  6  7  1  0
  7  8  2  0
  7  1  1  0
  9 14  2  0
 10 11  2  0
 10  9  1  0
 11 12  1  0
 12 13  2  0
 14 13  1  0
 15 17  1  0
 15  6  1  0
 16 15  1  0
 16 17  1  0
 18 17  1  0
 18 23  1  0
 19 18  1  0
 20 19  1  0
 20 21  1  0
 21 22  1  0
 22 23  1  0
  2 24  1  0
  3 25  1  0
  9 26  1  0
 11 27  1  0
 13 28  1  0
 15 29  1  6
 16 30  1  0
 16 31  1  0
 17 32  1  1
 19 33  1  0
 19 34  1  0
 20 35  1  0
 20 36  1  0
 21 37  1  0
 21 38  1  0
 22 39  1  0
 22 40  1  0
 23 41  1  0
 23 42  1  0
M  ISO  8  24  14  25  14  26  14  27  14  28  14  29  13  30  13  31  13
M  ISO  8  32  13  33  13  34  13  35  13  36  13  37  13  38  13  39  13
M  ISO  3  40  13  41  13  42  13
M  END
>  <minimizedAffinity>  (1) 
-5.44679356

>  <minimizedRMSD>  (1) 
2.33117247

$$$$
