
     RDKit          3D

 34 37  0  0  1  0  0  0  0  0999 V2000
   38.1760   23.9930   34.7540 N   0  0  0  0  0  0  0  0  0  0  0  0
   38.2900   25.2960   34.4370 C   0  0  0  0  0  0  0  0  0  0  0  0
   37.9850   25.7240   33.1440 C   0  0  0  0  0  0  0  0  0  0  0  0
   37.5700   24.7370   32.2430 C   0  0  0  0  0  0  0  0  0  0  0  0
   37.2820   25.0460   31.0810 O   0  0  0  0  0  0  0  0  0  0  0  0
   37.4640   23.4290   32.5930 N   0  0  0  0  0  0  0  0  0  0  0  0
   37.7720   23.0860   33.8460 C   0  0  0  0  0  0  0  0  0  0  0  0
   37.6880   21.8890   34.2080 O   0  0  0  0  0  0  0  0  0  0  0  0
   37.5940   24.1970   37.0260 C   0  0  0  0  0  0  0  0  0  0  0  0
   38.5160   23.7120   36.0830 C   0  0  0  0  0  0  0  0  0  0  0  0
   39.6150   23.0350   36.5760 C   0  0  0  0  0  0  0  0  0  0  0  0
   39.7610   22.8670   37.8970 N   0  0  0  0  0  0  0  0  0  0  0  0
   38.8520   23.3470   38.7870 C   0  0  0  0  0  0  0  0  0  0  0  0
   37.7810   24.0060   38.3410 N   0  0  0  0  0  0  0  0  0  0  0  0
   37.0450   22.3930   31.7060 C   0  0  2  0  0  0  0  0  0  0  0  0
   35.5770   22.5200   31.2700 C   0  0  0  0  0  0  0  0  0  0  0  0
   36.0770   21.3600   32.0430 C   0  0  1  0  0  0  0  0  0  0  0  0
   36.2840   20.0390   31.4060 C   0  0  0  0  0  0  0  0  0  0  0  0
   36.2790   18.8460   32.0950 C   0  0  0  0  0  0  0  0  0  0  0  0
   36.5020   17.8270   31.1900 C   0  0  0  0  0  0  0  0  0  0  0  0
   36.6360   18.4530   29.9630 C   0  0  0  0  0  0  0  0  0  0  0  0
   36.5010   19.7420   30.1460 O   0  0  0  0  0  0  0  0  0  0  0  0
   38.6224   26.0212   35.1944 H   0  0  0  0  0  0  0  0  0  0  0  0
   38.0665   26.7806   32.8490 H   0  0  0  0  0  0  0  0  0  0  0  0
   36.7036   24.7426   36.6803 H   0  0  0  0  0  0  0  0  0  0  0  0
   40.3700   22.6340   35.8838 H   0  0  0  0  0  0  0  0  0  0  0  0
   38.9984   23.1932   39.8663 H   0  0  0  0  0  0  0  0  0  0  0  0
   38.0535   22.3178   31.2731 H   0  0  0  0  0  0  0  0  0  0  0  0
   34.9179   23.2622   31.7441 H   0  0  0  0  0  0  0  0  0  0  0  0
   35.0436   22.6670   30.3193 H   0  0  0  0  0  0  0  0  0  0  0  0
   35.7118   20.8901   32.9681 H   0  0  0  0  0  0  0  0  0  0  0  0
   36.1243   18.7260   33.1774 H   0  0  0  0  0  0  0  0  0  0  0  0
   36.5606   16.7487   31.3995 H   0  0  0  0  0  0  0  0  0  0  0  0
   36.8234   17.9539   29.0009 H   0  0  0  0  0  0  0  0  0  0  0  0
  1 10  1  0
  2  1  1  0
  3  2  2  0
  4  6  1  0
  4  3  1  0
  5  4  2  0
  6  7  1  0
  7  8  2  0
  7  1  1  0
  9 14  2  0
 10 11  2  0
 10  9  1  0
 11 12  1  0
 12 13  2  0
 14 13  1  0
 15 17  1  0
 15  6  1  0
 16 15  1  0
 16 17  1  0
 18 17  1  0
 18 19  2  0
 20 19  1  0
 21 22  1  0
 21 20  2  0
 22 18  1  0
  2 23  1  0
  3 24  1  0
  9 25  1  0
 11 26  1  0
 13 27  1  0
 15 28  1  6
 16 29  1  0
 16 30  1  0
 17 31  1  1
 19 32  1  0
 20 33  1  0
 21 34  1  0
M  ISO  8  23  14  24  14  25  14  26  14  27  14  28  13  29  13  30  13
M  ISO  4  31  13  32  14  33  14  34  14
M  END
>  <minimizedAffinity>  (1) 
-5.29501438

>  <minimizedRMSD>  (1) 
2.20713019

$$$$
