
     RDKit          3D

 34 37  0  0  1  0  0  0  0  0999 V2000
   38.1170   23.7140   34.7660 N   0  0  0  0  0  0  0  0  0  0  0  0
   38.2530   24.9530   34.2780 C   0  0  0  0  0  0  0  0  0  0  0  0
   37.9250   25.2280   32.9490 C   0  0  0  0  0  0  0  0  0  0  0  0
   37.4580   24.1480   32.1920 C   0  0  0  0  0  0  0  0  0  0  0  0
   37.1470   24.3070   31.0050 O   0  0  0  0  0  0  0  0  0  0  0  0
   37.3270   22.9110   32.6970 N   0  0  0  0  0  0  0  0  0  0  0  0
   37.6570   22.6980   33.9820 C   0  0  0  0  0  0  0  0  0  0  0  0
   37.5550   21.5690   34.5030 O   0  0  0  0  0  0  0  0  0  0  0  0
   37.5850   24.2280   37.0020 C   0  0  0  0  0  0  0  0  0  0  0  0
   38.4800   23.5880   36.1030 C   0  0  0  0  0  0  0  0  0  0  0  0
   39.5610   22.9430   36.6580 C   0  0  0  0  0  0  0  0  0  0  0  0
   39.7360   22.9370   38.0010 N   0  0  0  0  0  0  0  0  0  0  0  0
   38.8640   23.5570   38.8250 C   0  0  0  0  0  0  0  0  0  0  0  0
   37.8010   24.1940   38.3330 N   0  0  0  0  0  0  0  0  0  0  0  0
   36.8560   21.7680   31.9690 C   0  0  2  0  0  0  0  0  0  0  0  0
   35.4390   21.9160   31.4300 C   0  0  0  0  0  0  0  0  0  0  0  0
   35.7770   20.8790   32.4230 C   0  0  1  0  0  0  0  0  0  0  0  0
   35.9210   19.4780   32.0510 N   0  0  0  0  0  0  0  0  0  0  0  0
   35.3900   18.4650   32.7660 C   0  0  0  0  0  0  0  0  0  0  0  0
   35.7530   17.3090   32.0810 C   0  0  0  0  0  0  0  0  0  0  0  0
   36.4780   17.6180   30.9910 N   0  0  0  0  0  0  0  0  0  0  0  0
   36.5790   18.9600   30.9780 C   0  0  0  0  0  0  0  0  0  0  0  0
   38.6252   25.7589   34.9276 H   0  0  0  0  0  0  0  0  0  0  0  0
   38.0279   26.2363   32.5215 H   0  0  0  0  0  0  0  0  0  0  0  0
   36.7052   24.7577   36.6077 H   0  0  0  0  0  0  0  0  0  0  0  0
   40.2859   22.4303   36.0086 H   0  0  0  0  0  0  0  0  0  0  0  0
   39.0322   23.5363   39.9119 H   0  0  0  0  0  0  0  0  0  0  0  0
   37.8744   21.5476   31.6165 H   0  0  0  0  0  0  0  0  0  0  0  0
   34.8239   22.7806   31.7200 H   0  0  0  0  0  0  0  0  0  0  0  0
   34.9752   21.9270   30.4326 H   0  0  0  0  0  0  0  0  0  0  0  0
   35.3092   20.6109   33.3818 H   0  0  0  0  0  0  0  0  0  0  0  0
   34.7982   18.5369   33.6904 H   0  0  0  0  0  0  0  0  0  0  0  0
   35.4849   16.2872   32.3877 H   0  0  0  0  0  0  0  0  0  0  0  0
   37.1119   19.5483   30.2165 H   0  0  0  0  0  0  0  0  0  0  0  0
  1 10  1  0
  2  1  1  0
  3  2  2  0
  4  6  1  0
  4  3  1  0
  5  4  2  0
  6  7  1  0
  7  8  2  0
  7  1  1  0
  9 14  2  0
 10 11  2  0
 10  9  1  0
 11 12  1  0
 12 13  2  0
 14 13  1  0
 15 17  1  0
 15  6  1  0
 16 15  1  0
 16 17  1  0
 18 17  1  0
 18 19  1  0
 20 19  2  0
 21 20  1  0
 22 21  2  0
 22 18  1  0
  2 23  1  0
  3 24  1  0
  9 25  1  0
 11 26  1  0
 13 27  1  0
 15 28  1  6
 16 29  1  0
 16 30  1  0
 17 31  1  1
 19 32  1  0
 20 33  1  0
 22 34  1  0
M  ISO  8  23  14  24  14  25  14  26  14  27  14  28  13  29  13  30  13
M  ISO  4  31  13  32  14  33  14  34  14
M  END
>  <minimizedAffinity>  (1) 
-5.23635674

>  <minimizedRMSD>  (1) 
2.74104261

$$$$
