
     RDKit          3D

 39 41  0  0  1  0  0  0  0  0999 V2000
   38.1370   23.8500   34.8010 N   0  0  0  0  0  0  0  0  0  0  0  0
   38.1650   25.1410   34.4240 C   0  0  0  0  0  0  0  0  0  0  0  0
   37.8230   25.5030   33.1180 C   0  0  0  0  0  0  0  0  0  0  0  0
   37.4600   24.4550   32.2590 C   0  0  0  0  0  0  0  0  0  0  0  0
   37.1460   24.7050   31.0930 O   0  0  0  0  0  0  0  0  0  0  0  0
   37.4410   23.1610   32.6650 N   0  0  0  0  0  0  0  0  0  0  0  0
   37.7790   22.8700   33.9270 C   0  0  0  0  0  0  0  0  0  0  0  0
   37.7720   21.6970   34.3300 O   0  0  0  0  0  0  0  0  0  0  0  0
   37.5610   24.1460   37.0620 C   0  0  0  0  0  0  0  0  0  0  0  0
   38.5000   23.6350   36.1210 C   0  0  0  0  0  0  0  0  0  0  0  0
   39.6100   23.0110   36.6360 C   0  0  0  0  0  0  0  0  0  0  0  0
   39.7800   22.9010   37.9720 N   0  0  0  0  0  0  0  0  0  0  0  0
   38.8570   23.4060   38.8460 C   0  0  0  0  0  0  0  0  0  0  0  0
   37.7590   24.0220   38.3850 N   0  0  0  0  0  0  0  0  0  0  0  0
   37.0770   22.0750   31.8090 C   0  0  2  0  0  0  0  0  0  0  0  0
   35.5900   22.0350   31.4670 C   0  0  0  0  0  0  0  0  0  0  0  0
   36.2570   20.9470   32.2270 C   0  0  1  0  0  0  0  0  0  0  0  0
   36.4370   19.5760   31.5930 C   0  0  0  0  0  0  0  0  0  0  0  0
   35.4090   18.6180   32.2080 C   0  0  0  0  0  0  0  0  0  0  0  0
   36.2840   19.5920   30.0970 C   0  0  0  0  0  0  0  0  0  0  0  0
   37.7970   18.9930   31.9130 C   0  0  0  0  0  0  0  0  0  0  0  0
   38.4586   25.9159   35.1474 H   0  0  0  0  0  0  0  0  0  0  0  0
   37.8377   26.5505   32.7827 H   0  0  0  0  0  0  0  0  0  0  0  0
   36.6550   24.6526   36.6981 H   0  0  0  0  0  0  0  0  0  0  0  0
   40.3677   22.5969   35.9544 H   0  0  0  0  0  0  0  0  0  0  0  0
   39.0160   23.3065   39.9299 H   0  0  0  0  0  0  0  0  0  0  0  0
   38.0542   22.1066   31.3050 H   0  0  0  0  0  0  0  0  0  0  0  0
   34.8853   22.7135   31.9701 H   0  0  0  0  0  0  0  0  0  0  0  0
   34.9878   22.1039   30.5490 H   0  0  0  0  0  0  0  0  0  0  0  0
   36.0714   20.4632   33.1973 H   0  0  0  0  0  0  0  0  0  0  0  0
   35.4675   18.6725   33.3051 H   0  0  0  0  0  0  0  0  0  0  0  0
   34.3988   18.9043   31.8800 H   0  0  0  0  0  0  0  0  0  0  0  0
   35.6235   17.5902   31.8800 H   0  0  0  0  0  0  0  0  0  0  0  0
   35.2206   19.7032   29.8383 H   0  0  0  0  0  0  0  0  0  0  0  0
   36.8531   20.4355   29.6792 H   0  0  0  0  0  0  0  0  0  0  0  0
   36.6663   18.6490   29.6792 H   0  0  0  0  0  0  0  0  0  0  0  0
   37.9249   18.9382   33.0042 H   0  0  0  0  0  0  0  0  0  0  0  0
   37.8733   17.9831   31.4837 H   0  0  0  0  0  0  0  0  0  0  0  0
   38.5810   19.6341   31.4837 H   0  0  0  0  0  0  0  0  0  0  0  0
  1 10  1  0
  2  1  1  0
  3  2  2  0
  4  6  1  0
  4  3  1  0
  5  4  2  0
  6  7  1  0
  7  8  2  0
  7  1  1  0
  9 14  2  0
 10 11  2  0
 10  9  1  0
 11 12  1  0
 12 13  2  0
 14 13  1  0
 15 17  1  0
 15  6  1  0
 16 15  1  0
 16 17  1  0
 18 21  1  0
 18 19  1  0
 18 17  1  0
 20 18  1  0
  2 22  1  0
  3 23  1  0
  9 24  1  0
 11 25  1  0
 13 26  1  0
 15 27  1  6
 16 28  1  0
 16 29  1  0
 17 30  1  1
 19 31  1  0
 19 32  1  0
 19 33  1  0
 20 34  1  0
 20 35  1  0
 20 36  1  0
 21 37  1  0
 21 38  1  0
 21 39  1  0
M  ISO  8  22  14  23  14  24  14  25  14  26  14  27  13  28  13  29  13
M  ISO  8  30  13  31   8  32   8  33   8  34   8  35   8  36   8  37   8
M  ISO  2  38   8  39   8
M  END
>  <minimizedAffinity>  (1) 
-5.23549747

>  <minimizedRMSD>  (1) 
2.41160917

$$$$
