
     RDKit          3D

 33 36  0  0  1  0  0  0  0  0999 V2000
   38.1210   23.9190   34.7990 N   0  0  0  0  0  0  0  0  0  0  0  0
   38.1500   25.2320   34.4680 C   0  0  0  0  0  0  0  0  0  0  0  0
   37.8070   25.6430   33.1810 C   0  0  0  0  0  0  0  0  0  0  0  0
   37.4440   24.6360   32.2860 C   0  0  0  0  0  0  0  0  0  0  0  0
   37.1260   24.9220   31.1260 O   0  0  0  0  0  0  0  0  0  0  0  0
   37.4220   23.3290   32.6370 N   0  0  0  0  0  0  0  0  0  0  0  0
   37.7610   22.9870   33.8870 C   0  0  0  0  0  0  0  0  0  0  0  0
   37.7530   21.7970   34.2470 O   0  0  0  0  0  0  0  0  0  0  0  0
   37.5690   24.1230   37.0680 C   0  0  0  0  0  0  0  0  0  0  0  0
   38.4870   23.6700   36.1100 C   0  0  0  0  0  0  0  0  0  0  0  0
   39.6280   23.0410   36.5850 C   0  0  0  0  0  0  0  0  0  0  0  0
   39.8250   22.8800   37.9080 N   0  0  0  0  0  0  0  0  0  0  0  0
   38.9030   23.3380   38.8080 C   0  0  0  0  0  0  0  0  0  0  0  0
   37.7810   23.9560   38.3870 N   0  0  0  0  0  0  0  0  0  0  0  0
   37.0540   22.2670   31.7440 C   0  0  2  0  0  0  0  0  0  0  0  0
   35.5640   22.2680   31.3870 C   0  0  0  0  0  0  0  0  0  0  0  0
   36.2000   21.1380   32.1190 C   0  0  1  0  0  0  0  0  0  0  0  0
   36.3910   19.8720   31.4080 N   0  0  0  0  0  0  0  0  0  0  0  0
   36.4530   18.6200   31.8890 C   0  0  0  0  0  0  0  0  0  0  0  0
   36.6400   17.7580   30.8680 N   0  0  0  0  0  0  0  0  0  0  0  0
   36.6950   18.4870   29.7400 C   0  0  0  0  0  0  0  0  0  0  0  0
   36.5410   19.7530   30.1070 N   0  0  0  0  0  0  0  0  0  0  0  0
   38.4461   25.9787   35.2195 H   0  0  0  0  0  0  0  0  0  0  0  0
   37.8217   26.7029   32.8871 H   0  0  0  0  0  0  0  0  0  0  0  0
   36.6511   24.6283   36.7330 H   0  0  0  0  0  0  0  0  0  0  0  0
   40.3804   22.6695   35.8738 H   0  0  0  0  0  0  0  0  0  0  0  0
   39.0783   23.2010   39.8853 H   0  0  0  0  0  0  0  0  0  0  0  0
   38.0390   22.2901   31.2549 H   0  0  0  0  0  0  0  0  0  0  0  0
   34.8689   22.9448   31.9055 H   0  0  0  0  0  0  0  0  0  0  0  0
   34.9728   22.3791   30.4660 H   0  0  0  0  0  0  0  0  0  0  0  0
   35.9797   20.6262   33.0675 H   0  0  0  0  0  0  0  0  0  0  0  0
   36.3651   18.3408   32.9493 H   0  0  0  0  0  0  0  0  0  0  0  0
   36.8389   18.1095   28.7169 H   0  0  0  0  0  0  0  0  0  0  0  0
  1 10  1  0
  2  1  1  0
  3  2  2  0
  4  6  1  0
  4  3  1  0
  5  4  2  0
  6  7  1  0
  7  8  2  0
  7  1  1  0
  9 14  2  0
 10 11  2  0
 10  9  1  0
 11 12  1  0
 12 13  2  0
 14 13  1  0
 15 17  1  0
 15  6  1  0
 16 15  1  0
 16 17  1  0
 18 19  1  0
 18 17  1  0
 20 19  2  0
 21 22  2  0
 21 20  1  0
 22 18  1  0
  2 23  1  0
  3 24  1  0
  9 25  1  0
 11 26  1  0
 13 27  1  0
 15 28  1  6
 16 29  1  0
 16 30  1  0
 17 31  1  1
 19 32  1  0
 21 33  1  0
M  ISO  8  23  14  24  14  25  14  26  14  27  14  28  13  29  13  30  13
M  ISO  3  31  13  32  14  33  14
M  END
>  <minimizedAffinity>  (1) 
-5.14136028

>  <minimizedRMSD>  (1) 
2.40579939

$$$$
