
     RDKit          3D

 39 42  0  0  1  0  0  0  0  0999 V2000
   40.3890   22.4920   37.6640 C   0  0  0  0  0  0  0  0  0  0  0  0
   39.7800   23.2960   36.6890 C   0  0  0  0  0  0  0  0  0  0  0  0
   40.1340   23.1240   35.3700 C   0  0  0  0  0  0  0  0  0  0  0  0
   41.0620   22.1780   35.0890 N   0  0  0  0  0  0  0  0  0  0  0  0
   41.6450   21.4120   36.0160 C   0  0  0  0  0  0  0  0  0  0  0  0
   41.3160   21.5600   37.2990 N   0  0  0  0  0  0  0  0  0  0  0  0
   39.6420   23.8260   34.2590 N   0  0  0  0  0  0  0  0  0  0  0  0
   40.2100   25.0760   33.7370 C   0  0  0  0  0  0  0  0  0  0  0  0
   39.1940   26.1820   33.8290 C   0  0  0  0  0  0  0  0  0  0  0  0
   37.9180   25.6280   34.0720 O   0  0  0  0  0  0  0  0  0  0  0  0
   37.6560   24.6520   33.0990 C   0  0  0  0  0  0  0  0  0  0  0  0
   38.5260   23.4350   33.4410 C   0  0  2  0  0  0  0  0  0  0  0  0
   37.6070   22.4540   33.9960 C   0  0  0  0  0  0  0  0  0  0  0  0
   37.3730   22.4100   35.3540 C   0  0  0  0  0  0  0  0  0  0  0  0
   36.4970   21.5330   35.9640 C   0  0  0  0  0  0  0  0  0  0  0  0
   35.7860   20.6250   35.2080 C   0  0  0  0  0  0  0  0  0  0  0  0
   35.9790   20.6250   33.8460 C   0  0  0  0  0  0  0  0  0  0  0  0
   35.2730   19.7180   33.0810 C   0  0  0  0  0  0  0  0  0  0  0  0
   35.4250   19.6720   31.7100 C   0  0  0  0  0  0  0  0  0  0  0  0
   36.3260   20.5820   31.1450 C   0  0  0  0  0  0  0  0  0  0  0  0
   37.0000   21.4560   31.9440 C   0  0  0  0  0  0  0  0  0  0  0  0
   36.8600   21.5190   33.3110 C   0  0  0  0  0  0  0  0  0  0  0  0
   40.1189   22.6131   38.7234 H   0  0  0  0  0  0  0  0  0  0  0  0
   39.0324   24.0510   36.9737 H   0  0  0  0  0  0  0  0  0  0  0  0
   42.3937   20.6620   35.7211 H   0  0  0  0  0  0  0  0  0  0  0  0
   40.4987   24.9334   32.6852 H   0  0  0  0  0  0  0  0  0  0  0  0
   41.0935   25.3474   34.3334 H   0  0  0  0  0  0  0  0  0  0  0  0
   39.4628   26.8596   34.6528 H   0  0  0  0  0  0  0  0  0  0  0  0
   39.1764   26.7442   32.8837 H   0  0  0  0  0  0  0  0  0  0  0  0
   37.9159   25.0340   32.1008 H   0  0  0  0  0  0  0  0  0  0  0  0
   36.5895   24.3827   33.0893 H   0  0  0  0  0  0  0  0  0  0  0  0
   39.0272   22.9721   32.5782 H   0  0  0  0  0  0  0  0  0  0  0  0
   37.9192   23.1192   35.9933 H   0  0  0  0  0  0  0  0  0  0  0  0
   36.3663   21.5591   37.0559 H   0  0  0  0  0  0  0  0  0  0  0  0
   35.0849   19.9212   35.6803 H   0  0  0  0  0  0  0  0  0  0  0  0
   34.5782   19.0208   33.5721 H   0  0  0  0  0  0  0  0  0  0  0  0
   34.8653   18.9550   31.0914 H   0  0  0  0  0  0  0  0  0  0  0  0
   36.4898   20.5916   30.0573 H   0  0  0  0  0  0  0  0  0  0  0  0
   37.7008   22.1559   31.4654 H   0  0  0  0  0  0  0  0  0  0  0  0
  2  1  2  0
  3  2  1  0
  4  3  2  0
  4  5  1  0
  5  6  2  0
  6  1  1  0
  7  3  1  0
  8  9  1  0
  8  7  1  0
  9 10  1  0
 11 12  1  0
 11 10  1  0
 12 13  1  0
 12  7  1  0
 13 14  2  0
 14 15  1  0
 16 15  2  0
 17 16  1  0
 18 17  2  0
 19 18  1  0
 20 19  2  0
 20 21  1  0
 21 22  2  0
 22 17  1  0
 22 13  1  0
  1 23  1  0
  2 24  1  0
  5 25  1  0
  8 26  1  0
  8 27  1  0
  9 28  1  0
  9 29  1  0
 11 30  1  0
 11 31  1  0
 12 32  1  6
 14 33  1  0
 15 34  1  0
 16 35  1  0
 18 36  1  0
 19 37  1  0
 20 38  1  0
 21 39  1  0
M  ISO  8  23  14  24  14  25  14  26  13  27  13  28  13  29  13  30  13
M  ISO  8  31  13  32  13  33  14  34  14  35  14  36  14  37  14  38  14
M  ISO  1  39  14
M  END
>  <minimizedAffinity>  (1) 
-5.45091152

>  <minimizedRMSD>  (1) 
2.14862728

$$$$
