
     RDKit          3D

 37 40  0  0  1  0  0  0  0  0999 V2000
   39.1070   22.9570   37.9140 C   0  0  0  0  0  0  0  0  0  0  0  0
   38.5520   23.9910   37.1580 C   0  0  0  0  0  0  0  0  0  0  0  0
   39.2860   24.4550   36.0600 C   0  0  0  0  0  0  0  0  0  0  0  0
   40.4900   23.8930   35.7740 N   0  0  0  0  0  0  0  0  0  0  0  0
   40.9900   22.8950   36.5310 C   0  0  0  0  0  0  0  0  0  0  0  0
   40.3040   22.4270   37.5980 N   0  0  0  0  0  0  0  0  0  0  0  0
   38.8850   25.5030   35.1760 N   0  0  0  0  0  0  0  0  0  0  0  0
   39.1830   26.8990   35.3830 C   0  0  0  0  0  0  0  0  0  0  0  0
   37.9000   27.6830   35.4800 C   0  0  0  0  0  0  0  0  0  0  0  0
   36.8240   26.8940   35.0480 O   0  0  0  0  0  0  0  0  0  0  0  0
   37.0930   26.3730   33.7880 C   0  0  0  0  0  0  0  0  0  0  0  0
   38.1180   25.2610   33.9480 C   0  0  1  0  0  0  0  0  0  0  0  0
   39.0640   25.2560   32.7910 C   0  0  0  0  0  0  0  0  0  0  0  0
   40.0170   24.3040   32.6300 N   0  0  0  0  0  0  0  0  0  0  0  0
   40.8690   24.2760   31.6090 C   0  0  0  0  0  0  0  0  0  0  0  0
   40.8400   25.2080   30.6480 N   0  0  0  0  0  0  0  0  0  0  0  0
   39.9220   26.1960   30.7240 C   0  0  0  0  0  0  0  0  0  0  0  0
   39.8670   27.1710   29.7500 C   0  0  0  0  0  0  0  0  0  0  0  0
   38.9470   28.1980   29.7900 C   0  0  0  0  0  0  0  0  0  0  0  0
   38.0740   28.1990   30.8650 C   0  0  0  0  0  0  0  0  0  0  0  0
   38.1430   27.2150   31.8340 C   0  0  0  0  0  0  0  0  0  0  0  0
   39.0510   26.2030   31.7920 C   0  0  0  0  0  0  0  0  0  0  0  0
   38.5567   22.5681   38.7835 H   0  0  0  0  0  0  0  0  0  0  0  0
   37.5745   24.4249   37.4154 H   0  0  0  0  0  0  0  0  0  0  0  0
   41.9667   22.4570   36.2775 H   0  0  0  0  0  0  0  0  0  0  0  0
   39.7547   27.0165   36.3154 H   0  0  0  0  0  0  0  0  0  0  0  0
   39.7763   27.2744   34.5362 H   0  0  0  0  0  0  0  0  0  0  0  0
   37.7349   27.9842   36.5250 H   0  0  0  0  0  0  0  0  0  0  0  0
   37.9727   28.5763   34.8423 H   0  0  0  0  0  0  0  0  0  0  0  0
   37.4968   27.1619   33.1363 H   0  0  0  0  0  0  0  0  0  0  0  0
   36.1719   25.9808   33.3322 H   0  0  0  0  0  0  0  0  0  0  0  0
   37.5963   24.2937   33.9944 H   0  0  0  0  0  0  0  0  0  0  0  0
   41.6143   23.4689   31.5528 H   0  0  0  0  0  0  0  0  0  0  0  0
   40.5803   27.1282   28.9137 H   0  0  0  0  0  0  0  0  0  0  0  0
   38.9089   28.9735   29.0108 H   0  0  0  0  0  0  0  0  0  0  0  0
   37.3165   28.9922   30.9491 H   0  0  0  0  0  0  0  0  0  0  0  0
   37.4339   27.2521   32.6741 H   0  0  0  0  0  0  0  0  0  0  0  0
  2  1  2  0
  3  2  1  0
  4  3  2  0
  4  5  1  0
  5  6  2  0
  6  1  1  0
  7  8  1  0
  7  3  1  0
  8  9  1  0
 10  9  1  0
 11 12  1  0
 11 10  1  0
 12  7  1  0
 13 12  1  0
 14 13  2  0
 15 14  1  0
 16 17  1  0
 16 15  2  0
 17 22  2  0
 18 19  2  0
 18 17  1  0
 19 20  1  0
 20 21  2  0
 22 21  1  0
 22 13  1  0
  1 23  1  0
  2 24  1  0
  5 25  1  0
  8 26  1  0
  8 27  1  0
  9 28  1  0
  9 29  1  0
 11 30  1  0
 11 31  1  0
 12 32  1  1
 15 33  1  0
 18 34  1  0
 19 35  1  0
 20 36  1  0
 21 37  1  0
M  ISO  8  23  14  24  14  25  14  26  13  27  13  28  13  29  13  30  13
M  ISO  7  31  13  32  13  33  14  34  14  35  14  36  14  37  14
M  END
>  <minimizedAffinity>  (1) 
-5.11762524

>  <minimizedRMSD>  (1) 
0.860067427

$$$$
