
     RDKit          3D

 36 38  0  0  1  0  0  0  0  0999 V2000
   40.0320   22.5230   37.1910 C   0  0  0  0  0  0  0  0  0  0  0  0
   39.2950   23.4930   36.5000 C   0  0  0  0  0  0  0  0  0  0  0  0
   39.9620   24.3200   35.6150 C   0  0  0  0  0  0  0  0  0  0  0  0
   41.3090   24.1440   35.4620 N   0  0  0  0  0  0  0  0  0  0  0  0
   41.9880   23.2060   36.1380 C   0  0  0  0  0  0  0  0  0  0  0  0
   41.3640   22.3980   36.9960 N   0  0  0  0  0  0  0  0  0  0  0  0
   39.4040   25.3500   34.8310 N   0  0  0  0  0  0  0  0  0  0  0  0
   39.2860   26.7470   35.2570 C   0  0  0  0  0  0  0  0  0  0  0  0
   37.8290   27.1360   35.2850 C   0  0  0  0  0  0  0  0  0  0  0  0
   37.0550   26.1890   34.5950 O   0  0  0  0  0  0  0  0  0  0  0  0
   37.6070   25.9770   33.3200 C   0  0  0  0  0  0  0  0  0  0  0  0
   38.8700   25.1640   33.4970 C   0  0  2  0  0  0  0  0  0  0  0  0
   38.7010   23.7740   33.1630 N   0  0  0  0  0  0  0  0  0  0  0  0
   37.5940   23.0760   33.5130 C   0  0  0  0  0  0  0  0  0  0  0  0
   37.3890   21.7450   33.2150 C   0  0  0  0  0  0  0  0  0  0  0  0
   36.1560   21.0230   33.6220 C   0  0  0  0  0  0  0  0  0  0  0  0
   38.3860   21.1260   32.5210 C   0  0  0  0  0  0  0  0  0  0  0  0
   38.2630   19.9030   32.2130 O   0  0  0  0  0  0  0  0  0  0  0  0
   39.5110   21.7610   32.1420 N   0  0  0  0  0  0  0  0  0  0  0  0
   39.6190   23.0680   32.4830 C   0  0  0  0  0  0  0  0  0  0  0  0
   40.6870   23.6210   32.1080 O   0  0  0  0  0  0  0  0  0  0  0  0
   39.5213   21.8553   37.9004 H   0  0  0  0  0  0  0  0  0  0  0  0
   38.2111   23.5946   36.6576 H   0  0  0  0  0  0  0  0  0  0  0  0
   43.0720   23.1018   35.9831 H   0  0  0  0  0  0  0  0  0  0  0  0
   39.7170   26.8626   36.2624 H   0  0  0  0  0  0  0  0  0  0  0  0
   39.8279   27.3951   34.5525 H   0  0  0  0  0  0  0  0  0  0  0  0
   37.4886   27.1903   36.3296 H   0  0  0  0  0  0  0  0  0  0  0  0
   37.7122   28.1151   34.7974 H   0  0  0  0  0  0  0  0  0  0  0  0
   37.8453   26.9423   32.8494 H   0  0  0  0  0  0  0  0  0  0  0  0
   36.8930   25.4452   32.6739 H   0  0  0  0  0  0  0  0  0  0  0  0
   39.6080   25.5427   32.7745 H   0  0  0  0  0  0  0  0  0  0  0  0
   36.8075   23.6051   34.0711 H   0  0  0  0  0  0  0  0  0  0  0  0
   36.0969   20.9884   34.7199 H   0  0  0  0  0  0  0  0  0  0  0  0
   35.2753   21.5481   33.2237 H   0  0  0  0  0  0  0  0  0  0  0  0
   36.1829   19.9980   33.2237 H   0  0  0  0  0  0  0  0  0  0  0  0
   40.2538   21.2767   31.6181 H   0  0  0  0  0  0  0  0  0  0  0  0
  2  1  2  0
  3  2  1  0
  4  3  2  0
  4  5  1  0
  5  6  2  0
  6  1  1  0
  7  8  1  0
  7  3  1  0
  8  9  1  0
 10  9  1  0
 11 12  1  0
 11 10  1  0
 12  7  1  0
 13 12  1  0
 13 14  1  0
 15 14  2  0
 15 16  1  0
 17 15  1  0
 18 17  2  0
 19 20  1  0
 19 17  1  0
 20 13  1  0
 21 20  2  0
  1 22  1  0
  2 23  1  0
  5 24  1  0
  8 25  1  0
  8 26  1  0
  9 27  1  0
  9 28  1  0
 11 29  1  0
 11 30  1  0
 12 31  1  6
 14 32  1  0
 16 33  1  0
 16 34  1  0
 16 35  1  0
 19 36  1  0
M  ISO  8  22  14  23  14  24  14  25  13  26  13  27  13  28  13  29  13
M  ISO  7  30  13  31  13  32  14  33   8  34   8  35   8  36   9
M  END
>  <minimizedAffinity>  (1) 
-4.48082256

>  <minimizedRMSD>  (1) 
1.73047638

$$$$
