
     RDKit          3D

 31 33  0  0  1  0  0  0  0  0999 V2000
   39.0430   23.0320   38.0120 C   0  0  0  0  0  0  0  0  0  0  0  0
   38.5110   24.0490   37.2150 C   0  0  0  0  0  0  0  0  0  0  0  0
   39.2270   24.4500   36.0830 C   0  0  0  0  0  0  0  0  0  0  0  0
   40.4010   23.8310   35.8170 N   0  0  0  0  0  0  0  0  0  0  0  0
   40.8970   22.8590   36.5870 C   0  0  0  0  0  0  0  0  0  0  0  0
   40.2280   22.4500   37.6890 N   0  0  0  0  0  0  0  0  0  0  0  0
   38.8500   25.4590   35.1670 N   0  0  0  0  0  0  0  0  0  0  0  0
   39.2040   26.8750   35.3110 C   0  0  0  0  0  0  0  0  0  0  0  0
   37.9360   27.6930   35.4050 C   0  0  0  0  0  0  0  0  0  0  0  0
   36.8230   26.9140   35.0270 O   0  0  0  0  0  0  0  0  0  0  0  0
   37.0790   26.3430   33.7690 C   0  0  0  0  0  0  0  0  0  0  0  0
   38.0590   25.2150   33.9660 C   0  0  1  0  0  0  0  0  0  0  0  0
   39.0180   25.1200   32.8350 C   0  0  0  0  0  0  0  0  0  0  0  0
   39.9230   24.1460   32.5420 C   0  0  0  0  0  0  0  0  0  0  0  0
   40.7320   24.2470   31.4280 C   0  0  0  0  0  0  0  0  0  0  0  0
   40.6200   25.3110   30.6320 N   0  0  0  0  0  0  0  0  0  0  0  0
   39.7240   26.2970   30.9040 C   0  0  0  0  0  0  0  0  0  0  0  0
   38.9530   26.1820   31.9820 N   0  0  0  0  0  0  0  0  0  0  0  0
   38.4983   22.6997   38.9081 H   0  0  0  0  0  0  0  0  0  0  0  0
   37.5520   24.5227   37.4720 H   0  0  0  0  0  0  0  0  0  0  0  0
   41.8555   22.3882   36.3233 H   0  0  0  0  0  0  0  0  0  0  0  0
   39.8014   27.0147   36.2240 H   0  0  0  0  0  0  0  0  0  0  0  0
   39.7925   27.2010   34.4407 H   0  0  0  0  0  0  0  0  0  0  0  0
   37.8026   28.0382   36.4409 H   0  0  0  0  0  0  0  0  0  0  0  0
   38.0156   28.5563   34.7280 H   0  0  0  0  0  0  0  0  0  0  0  0
   37.5090   27.0989   33.0954 H   0  0  0  0  0  0  0  0  0  0  0  0
   36.1472   25.9685   33.3202 H   0  0  0  0  0  0  0  0  0  0  0  0
   37.4733   24.2869   34.0406 H   0  0  0  0  0  0  0  0  0  0  0  0
   40.0105   23.2690   33.2001 H   0  0  0  0  0  0  0  0  0  0  0  0
   41.4624   23.4570   31.1990 H   0  0  0  0  0  0  0  0  0  0  0  0
   39.6383   27.1735   30.2449 H   0  0  0  0  0  0  0  0  0  0  0  0
  2  1  2  0
  3  2  1  0
  4  3  2  0
  4  5  1  0
  5  6  2  0
  6  1  1  0
  7  8  1  0
  7  3  1  0
  8  9  1  0
 10  9  1  0
 11 12  1  0
 11 10  1  0
 12  7  1  0
 13 12  1  0
 14 13  2  0
 15 14  1  0
 16 17  1  0
 16 15  2  0
 17 18  2  0
 18 13  1  0
  1 19  1  0
  2 20  1  0
  5 21  1  0
  8 22  1  0
  8 23  1  0
  9 24  1  0
  9 25  1  0
 11 26  1  0
 11 27  1  0
 12 28  1  1
 14 29  1  0
 15 30  1  0
 17 31  1  0
M  ISO  8  19  14  20  14  21  14  22  13  23  13  24  13  25  13  26  13
M  ISO  5  27  13  28  13  29  14  30  14  31  14
M  END
>  <minimizedAffinity>  (1) 
-4.218503

>  <minimizedRMSD>  (1) 
0.494213253

$$$$
