
     RDKit          3D

 31 33  0  0  1  0  0  0  0  0999 V2000
   39.0690   22.9950   37.9610 C   0  0  0  0  0  0  0  0  0  0  0  0
   38.5490   24.0200   37.1800 C   0  0  0  0  0  0  0  0  0  0  0  0
   39.2710   24.4530   36.0600 C   0  0  0  0  0  0  0  0  0  0  0  0
   40.4510   23.8470   35.7880 N   0  0  0  0  0  0  0  0  0  0  0  0
   40.9390   22.8560   36.5560 C   0  0  0  0  0  0  0  0  0  0  0  0
   40.2550   22.4260   37.6400 N   0  0  0  0  0  0  0  0  0  0  0  0
   38.8870   25.4730   35.1670 N   0  0  0  0  0  0  0  0  0  0  0  0
   39.2200   26.8740   35.3020 C   0  0  0  0  0  0  0  0  0  0  0  0
   37.9500   27.6920   35.4010 C   0  0  0  0  0  0  0  0  0  0  0  0
   36.8450   26.9140   35.0280 O   0  0  0  0  0  0  0  0  0  0  0  0
   37.0830   26.3380   33.7760 C   0  0  0  0  0  0  0  0  0  0  0  0
   38.0870   25.2270   33.9690 C   0  0  1  0  0  0  0  0  0  0  0  0
   38.9020   25.0740   32.7560 C   0  0  0  0  0  0  0  0  0  0  0  0
   38.9620   26.1020   31.8110 C   0  0  0  0  0  0  0  0  0  0  0  0
   39.7450   25.9010   30.6920 C   0  0  0  0  0  0  0  0  0  0  0  0
   40.4440   24.7600   30.4820 N   0  0  0  0  0  0  0  0  0  0  0  0
   40.3650   23.7740   31.4210 C   0  0  0  0  0  0  0  0  0  0  0  0
   39.6050   23.9660   32.5120 N   0  0  0  0  0  0  0  0  0  0  0  0
   38.5146   22.6443   38.8440 H   0  0  0  0  0  0  0  0  0  0  0  0
   37.5855   24.4843   37.4371 H   0  0  0  0  0  0  0  0  0  0  0  0
   41.9027   22.3917   36.2998 H   0  0  0  0  0  0  0  0  0  0  0  0
   39.8217   27.0211   36.2110 H   0  0  0  0  0  0  0  0  0  0  0  0
   39.7952   27.1986   34.4224 H   0  0  0  0  0  0  0  0  0  0  0  0
   37.8191   28.0365   36.4374 H   0  0  0  0  0  0  0  0  0  0  0  0
   38.0255   28.5569   34.7256 H   0  0  0  0  0  0  0  0  0  0  0  0
   37.4873   27.0934   33.0861 H   0  0  0  0  0  0  0  0  0  0  0  0
   36.1492   25.9452   33.3473 H   0  0  0  0  0  0  0  0  0  0  0  0
   37.5652   24.2719   34.1285 H   0  0  0  0  0  0  0  0  0  0  0  0
   38.4043   27.0393   31.9540 H   0  0  0  0  0  0  0  0  0  0  0  0
   39.8037   26.7010   29.9393 H   0  0  0  0  0  0  0  0  0  0  0  0
   40.9173   22.8323   31.2865 H   0  0  0  0  0  0  0  0  0  0  0  0
  2  1  2  0
  3  2  1  0
  4  3  2  0
  4  5  1  0
  5  6  2  0
  6  1  1  0
  7  8  1  0
  7  3  1  0
  8  9  1  0
 10  9  1  0
 11 12  1  0
 11 10  1  0
 12  7  1  0
 13 12  1  0
 14 13  2  0
 15 14  1  0
 16 15  2  0
 16 17  1  0
 17 18  2  0
 18 13  1  0
  1 19  1  0
  2 20  1  0
  5 21  1  0
  8 22  1  0
  8 23  1  0
  9 24  1  0
  9 25  1  0
 11 26  1  0
 11 27  1  0
 12 28  1  1
 14 29  1  0
 15 30  1  0
 17 31  1  0
M  ISO  8  19  14  20  14  21  14  22  13  23  13  24  13  25  13  26  13
M  ISO  5  27  13  28  13  29  14  30  14  31  14
M  END
>  <minimizedAffinity>  (1) 
-4.20968819

>  <minimizedRMSD>  (1) 
0.301595569

$$$$
