
     RDKit          3D

 30 32  0  0  1  0  0  0  0  0999 V2000
   38.7200   22.5340   36.3770 C   0  0  0  0  0  0  0  0  0  0  0  0
   38.2970   23.7660   35.8710 C   0  0  0  0  0  0  0  0  0  0  0  0
   39.2390   24.6220   35.3330 C   0  0  0  0  0  0  0  0  0  0  0  0
   40.5360   24.2230   35.3210 N   0  0  0  0  0  0  0  0  0  0  0  0
   40.9300   23.0350   35.8110 C   0  0  0  0  0  0  0  0  0  0  0  0
   40.0250   22.1840   36.3410 N   0  0  0  0  0  0  0  0  0  0  0  0
   39.0060   25.8940   34.7800 N   0  0  0  0  0  0  0  0  0  0  0  0
   39.0240   27.1510   35.5330 C   0  0  0  0  0  0  0  0  0  0  0  0
   37.6660   27.8020   35.4740 C   0  0  0  0  0  0  0  0  0  0  0  0
   36.8960   27.2080   34.4550 O   0  0  0  0  0  0  0  0  0  0  0  0
   37.6150   27.2120   33.2660 C   0  0  0  0  0  0  0  0  0  0  0  0
   38.7120   26.1580   33.3900 C   0  0  2  0  0  0  0  0  0  0  0  0
   38.3990   24.9980   32.6170 N   0  0  0  0  0  0  0  0  0  0  0  0
   39.2630   24.1990   31.9270 C   0  0  0  0  0  0  0  0  0  0  0  0
   38.5180   23.2020   31.3310 C   0  0  0  0  0  0  0  0  0  0  0  0
   37.2410   23.4350   31.6800 N   0  0  0  0  0  0  0  0  0  0  0  0
   37.1420   24.5300   32.4670 C   0  0  0  0  0  0  0  0  0  0  0  0
   37.9828   21.8415   36.8093 H   0  0  0  0  0  0  0  0  0  0  0  0
   37.2344   24.0490   35.9004 H   0  0  0  0  0  0  0  0  0  0  0  0
   41.9933   22.7549   35.7802 H   0  0  0  0  0  0  0  0  0  0  0  0
   39.2846   26.9447   36.5816 H   0  0  0  0  0  0  0  0  0  0  0  0
   39.7703   27.8278   35.0914 H   0  0  0  0  0  0  0  0  0  0  0  0
   37.1562   27.6716   36.4400 H   0  0  0  0  0  0  0  0  0  0  0  0
   37.7862   28.8743   35.2601 H   0  0  0  0  0  0  0  0  0  0  0  0
   38.0631   28.2030   33.1014 H   0  0  0  0  0  0  0  0  0  0  0  0
   36.9564   26.9875   32.4141 H   0  0  0  0  0  0  0  0  0  0  0  0
   39.6466   26.5450   32.9578 H   0  0  0  0  0  0  0  0  0  0  0  0
   40.3535   24.3261   31.8583 H   0  0  0  0  0  0  0  0  0  0  0  0
   38.8928   22.3834   30.6991 H   0  0  0  0  0  0  0  0  0  0  0  0
   36.2229   24.9537   32.8979 H   0  0  0  0  0  0  0  0  0  0  0  0
  2  1  2  0
  3  2  1  0
  4  3  2  0
  4  5  1  0
  5  6  2  0
  6  1  1  0
  7  3  1  0
  7  8  1  0
  9  8  1  0
 10  9  1  0
 11 12  1  0
 11 10  1  0
 12  7  1  0
 13 12  1  0
 14 13  1  0
 15 16  1  0
 15 14  2  0
 16 17  2  0
 17 13  1  0
  1 18  1  0
  2 19  1  0
  5 20  1  0
  8 21  1  0
  8 22  1  0
  9 23  1  0
  9 24  1  0
 11 25  1  0
 11 26  1  0
 12 27  1  6
 14 28  1  0
 15 29  1  0
 17 30  1  0
M  ISO  8  18  14  19  14  20  14  21  13  22  13  23  13  24  13  25  13
M  ISO  5  26  13  27  13  28  14  29  14  30  14
M  END
>  <minimizedAffinity>  (1) 
-3.85434079

>  <minimizedRMSD>  (1) 
1.57819545

$$$$
