
     RDKit          3D

 26 27  0  0  1  0  0  0  0  0999 V2000
   39.1100   22.9560   37.9490 C   0  0  0  0  0  0  0  0  0  0  0  0
   38.5610   23.9820   37.1660 C   0  0  0  0  0  0  0  0  0  0  0  0
   39.2870   24.4200   36.0670 C   0  0  0  0  0  0  0  0  0  0  0  0
   40.4900   23.8340   35.8030 N   0  0  0  0  0  0  0  0  0  0  0  0
   40.9830   22.8530   36.5760 C   0  0  0  0  0  0  0  0  0  0  0  0
   40.3010   22.4070   37.6500 N   0  0  0  0  0  0  0  0  0  0  0  0
   38.9120   25.4370   35.1570 N   0  0  0  0  0  0  0  0  0  0  0  0
   39.2470   26.8380   35.2830 C   0  0  0  0  0  0  0  0  0  0  0  0
   37.9760   27.6540   35.3890 C   0  0  0  0  0  0  0  0  0  0  0  0
   36.8760   26.8660   35.0090 O   0  0  0  0  0  0  0  0  0  0  0  0
   37.1060   26.2960   33.7570 C   0  0  0  0  0  0  0  0  0  0  0  0
   38.1210   25.1830   33.9520 C   0  0  1  0  0  0  0  0  0  0  0  0
   38.9780   25.1110   32.7360 C   0  0  0  0  0  0  0  0  0  0  0  0
   38.5548   22.5926   38.8263 H   0  0  0  0  0  0  0  0  0  0  0  0
   37.5857   24.4256   37.4150 H   0  0  0  0  0  0  0  0  0  0  0  0
   41.9577   22.4067   36.3293 H   0  0  0  0  0  0  0  0  0  0  0  0
   39.8562   26.9894   36.1863 H   0  0  0  0  0  0  0  0  0  0  0  0
   39.8162   27.1596   34.3983 H   0  0  0  0  0  0  0  0  0  0  0  0
   37.8432   27.9913   36.4276 H   0  0  0  0  0  0  0  0  0  0  0  0
   38.0464   28.5274   34.7240 H   0  0  0  0  0  0  0  0  0  0  0  0
   37.5044   27.0529   33.0654 H   0  0  0  0  0  0  0  0  0  0  0  0
   36.1722   25.9033   33.3284 H   0  0  0  0  0  0  0  0  0  0  0  0
   37.6162   24.2153   34.0891 H   0  0  0  0  0  0  0  0  0  0  0  0
   40.0327   25.0224   33.0355 H   0  0  0  0  0  0  0  0  0  0  0  0
   38.6919   24.2337   32.1372 H   0  0  0  0  0  0  0  0  0  0  0  0
   38.8423   26.0237   32.1372 H   0  0  0  0  0  0  0  0  0  0  0  0
  2  1  2  0
  3  2  1  0
  4  3  2  0
  4  5  1  0
  5  6  2  0
  6  1  1  0
  7  8  1  0
  7  3  1  0
  8  9  1  0
 10  9  1  0
 11 12  1  0
 11 10  1  0
 12  7  1  0
 13 12  1  0
  1 14  1  0
  2 15  1  0
  5 16  1  0
  8 17  1  0
  8 18  1  0
  9 19  1  0
  9 20  1  0
 11 21  1  0
 11 22  1  0
 12 23  1  1
 13 24  1  0
 13 25  1  0
 13 26  1  0
M  ISO  8  14  14  15  14  16  14  17  13  18  13  19  13  20  13  21  13
M  ISO  5  22  13  23  13  24   8  25   8  26   8
M  END
>  <minimizedAffinity>  (1) 
-3.81533241

>  <minimizedRMSD>  (1) 
0.0288407709

$$$$
