
     RDKit          3D

 24 25  0  0  1  0  0  0  0  0999 V2000
   39.0570   22.9990   37.9830 C   0  0  0  0  0  0  0  0  0  0  0  0
   38.5370   24.0100   37.1760 C   0  0  0  0  0  0  0  0  0  0  0  0
   39.2610   24.4250   36.0730 C   0  0  0  0  0  0  0  0  0  0  0  0
   40.4630   23.8300   35.8100 N   0  0  0  0  0  0  0  0  0  0  0  0
   40.9430   22.8550   36.6060 C   0  0  0  0  0  0  0  0  0  0  0  0
   40.2560   22.4370   37.6820 N   0  0  0  0  0  0  0  0  0  0  0  0
   38.8890   25.4340   35.1470 N   0  0  0  0  0  0  0  0  0  0  0  0
   39.2420   26.8480   35.2910 C   0  0  0  0  0  0  0  0  0  0  0  0
   37.9610   27.6660   35.3710 C   0  0  0  0  0  0  0  0  0  0  0  0
   36.8620   26.8850   34.9940 O   0  0  0  0  0  0  0  0  0  0  0  0
   37.1020   26.3120   33.7530 C   0  0  0  0  0  0  0  0  0  0  0  0
   38.1180   25.2050   33.9450 C   0  0  1  0  0  0  0  0  0  0  0  0
   39.2010   25.0230   32.5020 S   0  0  0  0  0  0  0  0  0  0  0  0
   38.4954   22.6562   38.8645 H   0  0  0  0  0  0  0  0  0  0  0  0
   37.5664   24.4703   37.4127 H   0  0  0  0  0  0  0  0  0  0  0  0
   41.9135   22.3935   36.3710 H   0  0  0  0  0  0  0  0  0  0  0  0
   39.8302   26.9908   36.2095 H   0  0  0  0  0  0  0  0  0  0  0  0
   39.8412   27.1741   34.4281 H   0  0  0  0  0  0  0  0  0  0  0  0
   37.8190   28.0180   36.4034 H   0  0  0  0  0  0  0  0  0  0  0  0
   38.0412   28.5246   34.6880 H   0  0  0  0  0  0  0  0  0  0  0  0
   37.4995   27.0694   33.0613 H   0  0  0  0  0  0  0  0  0  0  0  0
   36.1705   25.9102   33.3278 H   0  0  0  0  0  0  0  0  0  0  0  0
   37.5670   24.2593   34.0546 H   0  0  0  0  0  0  0  0  0  0  0  0
   40.4874   24.8068   32.9208 H   0  0  0  0  0  0  0  0  0  0  0  0
  2  1  2  0
  3  2  1  0
  4  3  2  0
  4  5  1  0
  5  6  2  0
  6  1  1  0
  7  8  1  0
  7  3  1  0
  8  9  1  0
 10  9  1  0
 11 12  1  0
 11 10  1  0
 12  7  1  0
 13 12  1  0
  1 14  1  0
  2 15  1  0
  5 16  1  0
  8 17  1  0
  8 18  1  0
  9 19  1  0
  9 20  1  0
 11 21  1  0
 11 22  1  0
 12 23  1  1
 13 24  1  0
M  ISO  8  14  14  15  14  16  14  17  13  18  13  19  13  20  13  21  13
M  ISO  3  22  13  23  13  24  11
M  END
>  <minimizedAffinity>  (1) 
-3.81046009

>  <minimizedRMSD>  (1) 
0.058792945

$$$$
