
     RDKit          3D

 47 51  0  0  1  0  0  0  0  0999 V2000
   38.5370   22.5970   36.1120 C   0  0  0  0  0  0  0  0  0  0  0  0
   38.1150   23.8660   35.7180 C   0  0  0  0  0  0  0  0  0  0  0  0
   39.0130   24.7560   35.2150 C   0  0  0  0  0  0  0  0  0  0  0  0
   40.3230   24.3480   35.1200 N   0  0  0  0  0  0  0  0  0  0  0  0
   40.7130   23.1240   35.5030 C   0  0  0  0  0  0  0  0  0  0  0  0
   39.8300   22.2490   35.9970 N   0  0  0  0  0  0  0  0  0  0  0  0
   38.7860   26.0610   34.7740 N   0  0  0  0  0  0  0  0  0  0  0  0
   38.8430   27.2490   35.6440 C   0  0  0  0  0  0  0  0  0  0  0  0
   37.5150   27.9330   35.6460 C   0  0  0  0  0  0  0  0  0  0  0  0
   36.7280   27.4490   34.5930 O   0  0  0  0  0  0  0  0  0  0  0  0
   37.4330   27.5190   33.3930 C   0  0  0  0  0  0  0  0  0  0  0  0
   38.4930   26.4600   33.3790 C   0  0  2  0  0  0  0  0  0  0  0  0
   38.2510   25.3740   32.4560 C   0  0  0  0  0  0  0  0  0  0  0  0
   36.9700   24.7620   32.4070 C   0  0  0  0  0  0  0  0  0  0  0  0
   36.6090   23.7470   31.5490 C   0  0  0  0  0  0  0  0  0  0  0  0
   37.5780   23.2890   30.6620 C   0  0  0  0  0  0  0  0  0  0  0  0
   38.8490   23.8470   30.6580 C   0  0  0  0  0  0  0  0  0  0  0  0
   39.1290   24.8540   31.5410 C   0  0  0  0  0  0  0  0  0  0  0  0
   40.4690   25.3900   31.3580 C   0  0  0  0  0  0  0  0  0  0  0  0
   41.4980   24.6760   31.9010 N   0  0  0  0  0  0  0  0  0  0  0  0
   42.7750   25.0160   31.8580 C   0  0  0  0  0  0  0  0  0  0  0  0
   43.1350   26.1330   31.2460 N   0  0  0  0  0  0  0  0  0  0  0  0
   42.1890   26.9180   30.6700 C   0  0  0  0  0  0  0  0  0  0  0  0
   42.5320   28.0840   30.0390 C   0  0  0  0  0  0  0  0  0  0  0  0
   41.5350   28.8670   29.4710 C   0  0  0  0  0  0  0  0  0  0  0  0
   40.1930   28.4710   29.5410 C   0  0  0  0  0  0  0  0  0  0  0  0
   39.8550   27.2930   30.1800 C   0  0  0  0  0  0  0  0  0  0  0  0
   40.8660   26.5460   30.7290 C   0  0  0  0  0  0  0  0  0  0  0  0
   37.8097   21.8786   36.5181 H   0  0  0  0  0  0  0  0  0  0  0  0
   37.0560   24.1478   35.8138 H   0  0  0  0  0  0  0  0  0  0  0  0
   41.7706   22.8360   35.4101 H   0  0  0  0  0  0  0  0  0  0  0  0
   39.0974   26.9404   36.6687 H   0  0  0  0  0  0  0  0  0  0  0  0
   39.6099   27.9415   35.2668 H   0  0  0  0  0  0  0  0  0  0  0  0
   37.0058   27.7382   36.6014 H   0  0  0  0  0  0  0  0  0  0  0  0
   37.6648   29.0153   35.5185 H   0  0  0  0  0  0  0  0  0  0  0  0
   36.7428   27.3593   32.5515 H   0  0  0  0  0  0  0  0  0  0  0  0
   37.9008   28.5100   33.2977 H   0  0  0  0  0  0  0  0  0  0  0  0
   39.4130   26.8868   32.9532 H   0  0  0  0  0  0  0  0  0  0  0  0
   36.2065   25.1275   33.1095 H   0  0  0  0  0  0  0  0  0  0  0  0
   35.5969   23.3165   31.5644 H   0  0  0  0  0  0  0  0  0  0  0  0
   37.3352   22.4788   29.9587 H   0  0  0  0  0  0  0  0  0  0  0  0
   39.6169   23.4863   29.9579 H   0  0  0  0  0  0  0  0  0  0  0  0
   43.5342   24.3739   32.3284 H   0  0  0  0  0  0  0  0  0  0  0  0
   43.5850   28.3970   29.9826 H   0  0  0  0  0  0  0  0  0  0  0  0
   41.8013   29.8053   28.9623 H   0  0  0  0  0  0  0  0  0  0  0  0
   39.4096   29.0965   29.0882 H   0  0  0  0  0  0  0  0  0  0  0  0
   38.8073   26.9645   30.2463 H   0  0  0  0  0  0  0  0  0  0  0  0
  2  1  2  0
  3  2  1  0
  4  3  2  0
  4  5  1  0
  5  6  2  0
  6  1  1  0
  7  3  1  0
  7  8  1  0
  8  9  1  0
 10  9  1  0
 11 10  1  0
 12 11  1  0
 12  7  1  0
 13 12  1  0
 14 13  2  0
 15 14  1  0
 16 15  2  0
 17 16  1  0
 17 18  2  0
 18 13  1  0
 19 18  1  0
 19 20  2  0
 21 20  1  0
 22 21  2  0
 23 28  2  0
 23 22  1  0
 24 23  1  0
 25 26  1  0
 25 24  2  0
 26 27  2  0
 27 28  1  0
 28 19  1  0
  1 29  1  0
  2 30  1  0
  5 31  1  0
  8 32  1  0
  8 33  1  0
  9 34  1  0
  9 35  1  0
 11 36  1  0
 11 37  1  0
 12 38  1  6
 14 39  1  0
 15 40  1  0
 16 41  1  0
 17 42  1  0
 21 43  1  0
 24 44  1  0
 25 45  1  0
 26 46  1  0
 27 47  1  0
M  ISO  8  29  14  30  14  31  14  32  13  33  13  34  13  35  13  36  13
M  ISO  8  37  13  38  13  39  14  40  14  41  14  42  14  43  14  44  14
M  ISO  3  45  14  46  14  47  14
M  END
>  <minimizedAffinity>  (1) 
-4.96743059

>  <minimizedRMSD>  (1) 
0.967140317

$$$$
