
     RDKit          3D

 49 53  0  0  1  0  0  0  0  0999 V2000
   38.5140   22.5950   36.1400 C   0  0  0  0  0  0  0  0  0  0  0  0
   38.1010   23.8620   35.7310 C   0  0  0  0  0  0  0  0  0  0  0  0
   39.0040   24.7510   35.2360 C   0  0  0  0  0  0  0  0  0  0  0  0
   40.3070   24.3350   35.1670 N   0  0  0  0  0  0  0  0  0  0  0  0
   40.6920   23.1140   35.5650 C   0  0  0  0  0  0  0  0  0  0  0  0
   39.8060   22.2450   36.0470 N   0  0  0  0  0  0  0  0  0  0  0  0
   38.7870   26.0500   34.7840 N   0  0  0  0  0  0  0  0  0  0  0  0
   38.8330   27.2440   35.6440 C   0  0  0  0  0  0  0  0  0  0  0  0
   37.5170   27.9430   35.6130 C   0  0  0  0  0  0  0  0  0  0  0  0
   36.7330   27.4380   34.5650 O   0  0  0  0  0  0  0  0  0  0  0  0
   37.4500   27.4980   33.3710 C   0  0  0  0  0  0  0  0  0  0  0  0
   38.5180   26.4400   33.3820 C   0  0  2  0  0  0  0  0  0  0  0  0
   38.2740   25.3430   32.4650 C   0  0  0  0  0  0  0  0  0  0  0  0
   36.9840   24.7530   32.3820 C   0  0  0  0  0  0  0  0  0  0  0  0
   36.6320   23.7400   31.5210 C   0  0  0  0  0  0  0  0  0  0  0  0
   37.6240   23.2630   30.6680 C   0  0  0  0  0  0  0  0  0  0  0  0
   38.9060   23.8000   30.6980 C   0  0  0  0  0  0  0  0  0  0  0  0
   39.1690   24.8050   31.5820 C   0  0  0  0  0  0  0  0  0  0  0  0
   40.5430   25.1980   31.3800 C   0  0  0  0  0  0  0  0  0  0  0  0
   41.4620   24.2450   31.8500 C   0  0  0  0  0  0  0  0  0  0  0  0
   42.8360   24.4210   31.6860 C   0  0  0  0  0  0  0  0  0  0  0  0
   43.3430   25.5500   31.0520 C   0  0  0  0  0  0  0  0  0  0  0  0
   42.4550   26.4980   30.5880 C   0  0  0  0  0  0  0  0  0  0  0  0
   42.8740   27.6590   30.0120 C   0  0  0  0  0  0  0  0  0  0  0  0
   41.9840   28.6460   29.6000 C   0  0  0  0  0  0  0  0  0  0  0  0
   40.6420   28.4010   29.7990 C   0  0  0  0  0  0  0  0  0  0  0  0
   40.2040   27.2290   30.3800 C   0  0  0  0  0  0  0  0  0  0  0  0
   41.1110   26.2860   30.7690 C   0  0  0  0  0  0  0  0  0  0  0  0
   37.7792   21.8807   36.5398 H   0  0  0  0  0  0  0  0  0  0  0  0
   37.0406   24.1441   35.8088 H   0  0  0  0  0  0  0  0  0  0  0  0
   41.7514   22.8271   35.4925 H   0  0  0  0  0  0  0  0  0  0  0  0
   39.0608   26.9411   36.6766 H   0  0  0  0  0  0  0  0  0  0  0  0
   39.6137   27.9257   35.2755 H   0  0  0  0  0  0  0  0  0  0  0  0
   36.9960   27.7824   36.5684 H   0  0  0  0  0  0  0  0  0  0  0  0
   37.6820   29.0192   35.4559 H   0  0  0  0  0  0  0  0  0  0  0  0
   37.9155   28.4896   33.2708 H   0  0  0  0  0  0  0  0  0  0  0  0
   36.7704   27.3282   32.5229 H   0  0  0  0  0  0  0  0  0  0  0  0
   39.4474   26.8616   32.9714 H   0  0  0  0  0  0  0  0  0  0  0  0
   36.2064   25.1363   33.0591 H   0  0  0  0  0  0  0  0  0  0  0  0
   35.6132   23.3254   31.5068 H   0  0  0  0  0  0  0  0  0  0  0  0
   37.3906   22.4521   29.9624 H   0  0  0  0  0  0  0  0  0  0  0  0
   39.6899   23.4232   30.0246 H   0  0  0  0  0  0  0  0  0  0  0  0
   41.0908   23.3423   32.3573 H   0  0  0  0  0  0  0  0  0  0  0  0
   43.5291   23.6550   32.0640 H   0  0  0  0  0  0  0  0  0  0  0  0
   44.4272   25.6840   30.9235 H   0  0  0  0  0  0  0  0  0  0  0  0
   43.9523   27.8218   29.8677 H   0  0  0  0  0  0  0  0  0  0  0  0
   42.3353   29.5796   29.1364 H   0  0  0  0  0  0  0  0  0  0  0  0
   39.9049   29.1560   29.4879 H   0  0  0  0  0  0  0  0  0  0  0  0
   39.1281   27.0551   30.5292 H   0  0  0  0  0  0  0  0  0  0  0  0
  2  1  2  0
  3  2  1  0
  4  3  2  0
  4  5  1  0
  5  6  2  0
  6  1  1  0
  7  3  1  0
  7  8  1  0
  9  8  1  0
 10  9  1  0
 11 12  1  0
 11 10  1  0
 12  7  1  0
 13 12  1  0
 14 13  2  0
 15 14  1  0
 16 17  1  0
 16 15  2  0
 17 18  2  0
 18 13  1  0
 19 18  1  0
 19 20  2  0
 21 20  1  0
 22 21  2  0
 23 28  2  0
 23 22  1  0
 24 23  1  0
 25 26  1  0
 25 24  2  0
 26 27  2  0
 27 28  1  0
 28 19  1  0
  1 29  1  0
  2 30  1  0
  5 31  1  0
  8 32  1  0
  8 33  1  0
  9 34  1  0
  9 35  1  0
 11 36  1  0
 11 37  1  0
 12 38  1  6
 14 39  1  0
 15 40  1  0
 16 41  1  0
 17 42  1  0
 20 43  1  0
 21 44  1  0
 22 45  1  0
 24 46  1  0
 25 47  1  0
 26 48  1  0
 27 49  1  0
M  ISO  8  29  14  30  14  31  14  32  13  33  13  34  13  35  13  36  13
M  ISO  8  37  13  38  13  39  14  40  14  41  14  42  14  43  14  44  14
M  ISO  5  45  14  46  14  47  14  48  14  49  14
M  END
>  <minimizedAffinity>  (1) 
-4.8793292

>  <minimizedRMSD>  (1) 
0.874031305

$$$$
