
     RDKit          3D

 48 51  0  0  1  0  0  0  0  0999 V2000
   38.4760   22.5670   36.1640 C   0  0  0  0  0  0  0  0  0  0  0  0
   38.0810   23.8450   35.7500 C   0  0  0  0  0  0  0  0  0  0  0  0
   39.0130   24.6910   35.2320 C   0  0  0  0  0  0  0  0  0  0  0  0
   40.3150   24.2420   35.1400 N   0  0  0  0  0  0  0  0  0  0  0  0
   40.6800   23.0200   35.5380 C   0  0  0  0  0  0  0  0  0  0  0  0
   39.7660   22.1750   36.0520 N   0  0  0  0  0  0  0  0  0  0  0  0
   38.8280   25.9960   34.7700 N   0  0  0  0  0  0  0  0  0  0  0  0
   38.9170   27.2000   35.6140 C   0  0  0  0  0  0  0  0  0  0  0  0
   37.6170   27.9330   35.5970 C   0  0  0  0  0  0  0  0  0  0  0  0
   36.8130   27.4430   34.5580 O   0  0  0  0  0  0  0  0  0  0  0  0
   37.5180   27.4670   33.3560 C   0  0  0  0  0  0  0  0  0  0  0  0
   38.5520   26.3820   33.3650 C   0  0  2  0  0  0  0  0  0  0  0  0
   38.2750   25.2830   32.4590 C   0  0  0  0  0  0  0  0  0  0  0  0
   36.9770   24.7200   32.4160 C   0  0  0  0  0  0  0  0  0  0  0  0
   36.5960   23.6980   31.5720 C   0  0  0  0  0  0  0  0  0  0  0  0
   37.5360   23.1830   30.7120 C   0  0  0  0  0  0  0  0  0  0  0  0
   38.8220   23.6880   30.7040 C   0  0  0  0  0  0  0  0  0  0  0  0
   39.1310   24.7030   31.5650 C   0  0  0  0  0  0  0  0  0  0  0  0
   40.4670   25.1740   31.4450 N   0  0  0  0  0  0  0  0  0  0  0  0
   40.6870   26.1500   30.3620 C   0  0  0  0  0  0  0  0  0  0  0  0
   40.9800   27.5060   30.8970 C   0  0  0  0  0  0  0  0  0  0  0  0
   41.5240   27.4750   32.3100 C   0  0  0  0  0  0  0  0  0  0  0  0
   42.4920   26.2960   32.3180 C   0  0  0  0  0  0  0  0  0  0  0  0
   41.7140   24.9760   32.1420 C   0  0  0  0  0  0  0  0  0  0  0  0
   37.7307   21.8755   36.5841 H   0  0  0  0  0  0  0  0  0  0  0  0
   37.0314   24.1611   35.8422 H   0  0  0  0  0  0  0  0  0  0  0  0
   41.7294   22.7034   35.4457 H   0  0  0  0  0  0  0  0  0  0  0  0
   39.1549   26.9043   36.6464 H   0  0  0  0  0  0  0  0  0  0  0  0
   39.7072   27.8575   35.2226 H   0  0  0  0  0  0  0  0  0  0  0  0
   37.1021   27.7870   36.5580 H   0  0  0  0  0  0  0  0  0  0  0  0
   37.8048   29.0052   35.4383 H   0  0  0  0  0  0  0  0  0  0  0  0
   38.0111   28.4433   33.2389 H   0  0  0  0  0  0  0  0  0  0  0  0
   36.8231   27.3061   32.5186 H   0  0  0  0  0  0  0  0  0  0  0  0
   39.4860   26.7770   32.9388 H   0  0  0  0  0  0  0  0  0  0  0  0
   36.2199   25.1257   33.1032 H   0  0  0  0  0  0  0  0  0  0  0  0
   35.5683   23.3060   31.5868 H   0  0  0  0  0  0  0  0  0  0  0  0
   37.2637   22.3660   30.0277 H   0  0  0  0  0  0  0  0  0  0  0  0
   39.5809   23.2816   30.0192 H   0  0  0  0  0  0  0  0  0  0  0  0
   39.7825   26.2004   29.7380 H   0  0  0  0  0  0  0  0  0  0  0  0
   41.5541   25.8187   29.7718 H   0  0  0  0  0  0  0  0  0  0  0  0
   41.7232   27.9880   30.2449 H   0  0  0  0  0  0  0  0  0  0  0  0
   40.0328   28.0648   30.9192 H   0  0  0  0  0  0  0  0  0  0  0  0
   42.0499   28.4120   32.5453 H   0  0  0  0  0  0  0  0  0  0  0  0
   40.7292   27.3701   33.0631 H   0  0  0  0  0  0  0  0  0  0  0  0
   43.2105   26.4086   31.4927 H   0  0  0  0  0  0  0  0  0  0  0  0
   43.0284   26.2747   33.2781 H   0  0  0  0  0  0  0  0  0  0  0  0
   41.5027   24.5529   33.1352 H   0  0  0  0  0  0  0  0  0  0  0  0
   42.3340   24.2929   31.5429 H   0  0  0  0  0  0  0  0  0  0  0  0
  2  1  2  0
  3  2  1  0
  4  3  2  0
  4  5  1  0
  5  6  2  0
  6  1  1  0
  7  3  1  0
  7  8  1  0
  9  8  1  0
 10  9  1  0
 11 12  1  0
 11 10  1  0
 12  7  1  0
 13 12  1  0
 14 13  2  0
 15 14  1  0
 16 15  2  0
 17 16  1  0
 17 18  2  0
 18 13  1  0
 19 18  1  0
 19 24  1  0
 20 21  1  0
 20 19  1  0
 21 22  1  0
 22 23  1  0
 24 23  1  0
  1 25  1  0
  2 26  1  0
  5 27  1  0
  8 28  1  0
  8 29  1  0
  9 30  1  0
  9 31  1  0
 11 32  1  0
 11 33  1  0
 12 34  1  6
 14 35  1  0
 15 36  1  0
 16 37  1  0
 17 38  1  0
 20 39  1  0
 20 40  1  0
 21 41  1  0
 21 42  1  0
 22 43  1  0
 22 44  1  0
 23 45  1  0
 23 46  1  0
 24 47  1  0
 24 48  1  0
M  ISO  8  25  14  26  14  27  14  28  13  29  13  30  13  31  13  32  13
M  ISO  8  33  13  34  13  35  14  36  14  37  14  38  14  39  13  40  13
M  ISO  8  41  13  42  13  43  13  44  13  45  13  46  13  47  13  48  13
M  END
>  <minimizedAffinity>  (1) 
-4.66746044

>  <minimizedRMSD>  (1) 
0.989150226

$$$$
