
     RDKit          3D

 41 44  0  0  1  0  0  0  0  0999 V2000
   38.4910   22.5670   36.2250 C   0  0  0  0  0  0  0  0  0  0  0  0
   38.0920   23.8390   35.7910 C   0  0  0  0  0  0  0  0  0  0  0  0
   39.0160   24.6790   35.2540 C   0  0  0  0  0  0  0  0  0  0  0  0
   40.2960   24.2060   35.1770 N   0  0  0  0  0  0  0  0  0  0  0  0
   40.6780   23.0050   35.5860 C   0  0  0  0  0  0  0  0  0  0  0  0
   39.7740   22.1740   36.1150 N   0  0  0  0  0  0  0  0  0  0  0  0
   38.8310   25.9710   34.7610 N   0  0  0  0  0  0  0  0  0  0  0  0
   38.9300   27.1900   35.5800 C   0  0  0  0  0  0  0  0  0  0  0  0
   37.6300   27.9230   35.5600 C   0  0  0  0  0  0  0  0  0  0  0  0
   36.8090   27.4020   34.5480 O   0  0  0  0  0  0  0  0  0  0  0  0
   37.4920   27.4030   33.3380 C   0  0  0  0  0  0  0  0  0  0  0  0
   38.5420   26.3290   33.3510 C   0  0  2  0  0  0  0  0  0  0  0  0
   38.2760   25.2100   32.4700 C   0  0  0  0  0  0  0  0  0  0  0  0
   36.9640   24.6680   32.4190 C   0  0  0  0  0  0  0  0  0  0  0  0
   36.5590   23.6310   31.6040 C   0  0  0  0  0  0  0  0  0  0  0  0
   37.5250   23.0800   30.7740 C   0  0  0  0  0  0  0  0  0  0  0  0
   38.8000   23.5580   30.7790 C   0  0  0  0  0  0  0  0  0  0  0  0
   39.1400   24.5970   31.6110 C   0  0  0  0  0  0  0  0  0  0  0  0
   40.5270   25.0480   31.5310 C   0  0  0  0  0  0  0  0  0  0  0  0
   40.8950   26.0170   30.6210 C   0  0  0  0  0  0  0  0  0  0  0  0
   42.1510   26.5370   30.4200 C   0  0  0  0  0  0  0  0  0  0  0  0
   43.1490   26.0640   31.1830 N   0  0  0  0  0  0  0  0  0  0  0  0
   42.8250   25.1230   32.0770 C   0  0  0  0  0  0  0  0  0  0  0  0
   41.5960   24.6760   32.2090 N   0  0  0  0  0  0  0  0  0  0  0  0
   37.7478   21.8827   36.6601 H   0  0  0  0  0  0  0  0  0  0  0  0
   37.0422   24.1540   35.8841 H   0  0  0  0  0  0  0  0  0  0  0  0
   41.7290   22.6945   35.4912 H   0  0  0  0  0  0  0  0  0  0  0  0
   39.1773   26.9143   36.6158 H   0  0  0  0  0  0  0  0  0  0  0  0
   39.7177   27.8389   35.1695 H   0  0  0  0  0  0  0  0  0  0  0  0
   37.1297   27.8069   36.5328 H   0  0  0  0  0  0  0  0  0  0  0  0
   37.8160   28.9895   35.3654 H   0  0  0  0  0  0  0  0  0  0  0  0
   37.9714   28.3818   33.1890 H   0  0  0  0  0  0  0  0  0  0  0  0
   36.7836   27.2113   32.5186 H   0  0  0  0  0  0  0  0  0  0  0  0
   39.4637   26.7293   32.9035 H   0  0  0  0  0  0  0  0  0  0  0  0
   36.2085   25.1117   33.0842 H   0  0  0  0  0  0  0  0  0  0  0  0
   35.5235   23.2600   31.6118 H   0  0  0  0  0  0  0  0  0  0  0  0
   37.2580   22.2485   30.1051 H   0  0  0  0  0  0  0  0  0  0  0  0
   39.5573   23.1125   30.1172 H   0  0  0  0  0  0  0  0  0  0  0  0
   40.0928   26.4187   29.9845 H   0  0  0  0  0  0  0  0  0  0  0  0
   42.3320   27.3127   29.6614 H   0  0  0  0  0  0  0  0  0  0  0  0
   43.6134   24.7096   32.7232 H   0  0  0  0  0  0  0  0  0  0  0  0
  2  1  2  0
  3  2  1  0
  4  3  2  0
  4  5  1  0
  5  6  2  0
  6  1  1  0
  7  3  1  0
  7  8  1  0
  9  8  1  0
 10  9  1  0
 11 12  1  0
 11 10  1  0
 12  7  1  0
 13 12  1  0
 14 13  2  0
 15 14  1  0
 16 17  1  0
 16 15  2  0
 17 18  2  0
 18 13  1  0
 19 18  1  0
 19 24  1  0
 20 19  2  0
 21 20  1  0
 21 22  2  0
 22 23  1  0
 23 24  2  0
  1 25  1  0
  2 26  1  0
  5 27  1  0
  8 28  1  0
  8 29  1  0
  9 30  1  0
  9 31  1  0
 11 32  1  0
 11 33  1  0
 12 34  1  6
 14 35  1  0
 15 36  1  0
 16 37  1  0
 17 38  1  0
 20 39  1  0
 21 40  1  0
 23 41  1  0
M  ISO  8  25  14  26  14  27  14  28  13  29  13  30  13  31  13  32  13
M  ISO  8  33  13  34  13  35  14  36  14  37  14  38  14  39  14  40  14
M  ISO  1  41  14
M  END
>  <minimizedAffinity>  (1) 
-4.4559989

>  <minimizedRMSD>  (1) 
0.574882805

$$$$
