
     RDKit          3D

 40 43  0  0  1  0  0  0  0  0999 V2000
   38.4590   22.6070   36.4600 C   0  0  0  0  0  0  0  0  0  0  0  0
   38.0650   23.8610   35.9730 C   0  0  0  0  0  0  0  0  0  0  0  0
   38.9950   24.6560   35.3760 C   0  0  0  0  0  0  0  0  0  0  0  0
   40.2930   24.1950   35.2760 N   0  0  0  0  0  0  0  0  0  0  0  0
   40.6530   22.9930   35.7490 C   0  0  0  0  0  0  0  0  0  0  0  0
   39.7440   22.1950   36.3410 N   0  0  0  0  0  0  0  0  0  0  0  0
   38.8040   25.9270   34.8310 N   0  0  0  0  0  0  0  0  0  0  0  0
   38.9270   27.1890   35.5860 C   0  0  0  0  0  0  0  0  0  0  0  0
   37.6380   27.9350   35.5470 C   0  0  0  0  0  0  0  0  0  0  0  0
   36.7910   27.3730   34.5790 O   0  0  0  0  0  0  0  0  0  0  0  0
   37.4570   27.3150   33.3610 C   0  0  0  0  0  0  0  0  0  0  0  0
   38.4890   26.2230   33.4100 C   0  0  2  0  0  0  0  0  0  0  0  0
   38.2010   25.0710   32.5820 C   0  0  0  0  0  0  0  0  0  0  0  0
   36.8600   24.6560   32.4250 C   0  0  0  0  0  0  0  0  0  0  0  0
   36.4470   23.5970   31.6420 C   0  0  0  0  0  0  0  0  0  0  0  0
   37.3940   22.8890   30.9660 C   0  0  0  0  0  0  0  0  0  0  0  0
   38.7030   23.2400   31.0770 C   0  0  0  0  0  0  0  0  0  0  0  0
   39.0900   24.3170   31.8730 C   0  0  0  0  0  0  0  0  0  0  0  0
   40.5020   24.5900   31.7720 C   0  0  0  0  0  0  0  0  0  0  0  0
   41.0570   25.2130   30.6460 C   0  0  0  0  0  0  0  0  0  0  0  0
   42.4150   25.3190   30.6790 N   0  0  0  0  0  0  0  0  0  0  0  0
   42.7690   24.7510   31.8590 C   0  0  0  0  0  0  0  0  0  0  0  0
   41.6350   24.3640   32.4220 N   0  0  0  0  0  0  0  0  0  0  0  0
   37.7187   21.9521   36.9428 H   0  0  0  0  0  0  0  0  0  0  0  0
   37.0222   24.1969   36.0715 H   0  0  0  0  0  0  0  0  0  0  0  0
   41.6961   22.6571   35.6530 H   0  0  0  0  0  0  0  0  0  0  0  0
   39.1861   26.9642   36.6312 H   0  0  0  0  0  0  0  0  0  0  0  0
   39.7150   27.8065   35.1303 H   0  0  0  0  0  0  0  0  0  0  0  0
   37.1536   27.8783   36.5330 H   0  0  0  0  0  0  0  0  0  0  0  0
   37.8351   28.9862   35.2900 H   0  0  0  0  0  0  0  0  0  0  0  0
   37.9506   28.2785   33.1660 H   0  0  0  0  0  0  0  0  0  0  0  0
   36.7364   27.1049   32.5569 H   0  0  0  0  0  0  0  0  0  0  0  0
   39.4080   26.5897   32.9294 H   0  0  0  0  0  0  0  0  0  0  0  0
   36.0865   25.2192   32.9677 H   0  0  0  0  0  0  0  0  0  0  0  0
   35.3821   23.3321   31.5660 H   0  0  0  0  0  0  0  0  0  0  0  0
   37.1015   22.0378   30.3336 H   0  0  0  0  0  0  0  0  0  0  0  0
   39.4668   22.6664   30.5314 H   0  0  0  0  0  0  0  0  0  0  0  0
   40.4488   25.5843   29.8080 H   0  0  0  0  0  0  0  0  0  0  0  0
   43.7855   24.6360   32.2634 H   0  0  0  0  0  0  0  0  0  0  0  0
   41.6331   23.8994   33.3412 H   0  0  0  0  0  0  0  0  0  0  0  0
  2  1  2  0
  3  2  1  0
  4  3  2  0
  4  5  1  0
  5  6  2  0
  6  1  1  0
  7  3  1  0
  7  8  1  0
  9  8  1  0
 10  9  1  0
 11 12  1  0
 11 10  1  0
 12  7  1  0
 13 12  1  0
 14 13  2  0
 15 14  1  0
 16 17  1  0
 16 15  2  0
 17 18  2  0
 18 13  1  0
 19 18  1  0
 19 23  1  0
 20 21  1  0
 20 19  2  0
 21 22  2  0
 22 23  1  0
  1 24  1  0
  2 25  1  0
  5 26  1  0
  8 27  1  0
  8 28  1  0
  9 29  1  0
  9 30  1  0
 11 31  1  0
 11 32  1  0
 12 33  1  6
 14 34  1  0
 15 35  1  0
 16 36  1  0
 17 37  1  0
 20 38  1  0
 22 39  1  0
 23 40  1  0
M  ISO  8  24  14  25  14  26  14  27  13  28  13  29  13  30  13  31  13
M  ISO  8  32  13  33  13  34  14  35  14  36  14  37  14  38  14  39  14
M  ISO  1  40   9
M  END
>  <minimizedAffinity>  (1) 
-4.37419319

>  <minimizedRMSD>  (1) 
0.275607288

$$$$
