
     RDKit          3D

 39 42  0  0  1  0  0  0  0  0999 V2000
   38.5230   22.5670   36.2220 C   0  0  0  0  0  0  0  0  0  0  0  0
   38.1250   23.8370   35.7960 C   0  0  0  0  0  0  0  0  0  0  0  0
   39.0280   24.6720   35.2170 C   0  0  0  0  0  0  0  0  0  0  0  0
   40.2940   24.1870   35.0930 N   0  0  0  0  0  0  0  0  0  0  0  0
   40.6850   22.9840   35.4910 C   0  0  0  0  0  0  0  0  0  0  0  0
   39.7960   22.1630   36.0610 N   0  0  0  0  0  0  0  0  0  0  0  0
   38.8290   25.9640   34.7330 N   0  0  0  0  0  0  0  0  0  0  0  0
   38.9630   27.1830   35.5480 C   0  0  0  0  0  0  0  0  0  0  0  0
   37.6670   27.9220   35.5740 C   0  0  0  0  0  0  0  0  0  0  0  0
   36.8080   27.4020   34.5950 O   0  0  0  0  0  0  0  0  0  0  0  0
   37.4480   27.4030   33.3580 C   0  0  0  0  0  0  0  0  0  0  0  0
   38.4890   26.3200   33.3330 C   0  0  2  0  0  0  0  0  0  0  0  0
   38.1710   25.2020   32.4690 C   0  0  0  0  0  0  0  0  0  0  0  0
   36.8590   24.6590   32.4810 C   0  0  0  0  0  0  0  0  0  0  0  0
   36.4170   23.6210   31.6930 C   0  0  0  0  0  0  0  0  0  0  0  0
   37.3290   23.0630   30.8180 C   0  0  0  0  0  0  0  0  0  0  0  0
   38.6180   23.5470   30.7570 C   0  0  0  0  0  0  0  0  0  0  0  0
   39.0010   24.5860   31.5640 C   0  0  0  0  0  0  0  0  0  0  0  0
   40.3800   25.0960   31.4440 C   0  0  0  0  0  0  0  0  0  0  0  0
   40.6880   26.0590   30.3790 C   0  0  0  0  0  0  0  0  0  0  0  0
   42.3670   26.4420   30.5190 S   0  0  0  0  0  0  0  0  0  0  0  0
   42.5870   25.3010   31.9930 C   0  0  0  0  0  0  0  0  0  0  0  0
   41.5090   24.9420   32.0420 N   0  0  0  0  0  0  0  0  0  0  0  0
   37.7910   21.8936   36.6918 H   0  0  0  0  0  0  0  0  0  0  0  0
   37.0821   24.1607   35.9290 H   0  0  0  0  0  0  0  0  0  0  0  0
   41.7287   22.6648   35.3539 H   0  0  0  0  0  0  0  0  0  0  0  0
   39.2456   26.9062   36.5744 H   0  0  0  0  0  0  0  0  0  0  0  0
   39.7388   27.8280   35.1097 H   0  0  0  0  0  0  0  0  0  0  0  0
   37.2023   27.8109   36.5648 H   0  0  0  0  0  0  0  0  0  0  0  0
   37.8503   28.9873   35.3699 H   0  0  0  0  0  0  0  0  0  0  0  0
   36.7099   27.2208   32.5630 H   0  0  0  0  0  0  0  0  0  0  0  0
   37.9292   28.3786   33.1944 H   0  0  0  0  0  0  0  0  0  0  0  0
   39.3981   26.7071   32.8495 H   0  0  0  0  0  0  0  0  0  0  0  0
   36.1352   25.1055   33.1787 H   0  0  0  0  0  0  0  0  0  0  0  0
   35.3828   23.2517   31.7570 H   0  0  0  0  0  0  0  0  0  0  0  0
   37.0253   22.2294   30.1677 H   0  0  0  0  0  0  0  0  0  0  0  0
   39.3405   23.0984   30.0593 H   0  0  0  0  0  0  0  0  0  0  0  0
   39.9844   26.4598   29.6345 H   0  0  0  0  0  0  0  0  0  0  0  0
   43.4675   25.0594   32.6066 H   0  0  0  0  0  0  0  0  0  0  0  0
  2  1  2  0
  3  2  1  0
  4  3  2  0
  4  5  1  0
  5  6  2  0
  6  1  1  0
  7  3  1  0
  7  8  1  0
  8  9  1  0
 10  9  1  0
 11 10  1  0
 12 11  1  0
 12  7  1  0
 13 14  2  0
 13 12  1  0
 15 14  1  0
 16 15  2  0
 17 16  1  0
 17 18  2  0
 18 13  1  0
 19 18  1  0
 19 23  1  0
 20 21  1  0
 20 19  2  0
 21 22  1  0
 22 23  2  0
  1 24  1  0
  2 25  1  0
  5 26  1  0
  8 27  1  0
  8 28  1  0
  9 29  1  0
  9 30  1  0
 11 31  1  0
 11 32  1  0
 12 33  1  6
 14 34  1  0
 15 35  1  0
 16 36  1  0
 17 37  1  0
 20 38  1  0
 22 39  1  0
M  ISO  8  24  14  25  14  26  14  27  13  28  13  29  13  30  13  31  13
M  ISO  8  32  13  33  13  34  14  35  14  36  14  37  14  38  14  39  14
M  END
>  <minimizedAffinity>  (1) 
-4.37394047

>  <minimizedRMSD>  (1) 
0.554440379

$$$$
