
     RDKit          3D

 42 44  0  0  1  0  0  0  0  0999 V2000
   38.4800   22.5680   36.3650 C   0  0  0  0  0  0  0  0  0  0  0  0
   38.0950   23.8300   35.8930 C   0  0  0  0  0  0  0  0  0  0  0  0
   39.0170   24.6300   35.2950 C   0  0  0  0  0  0  0  0  0  0  0  0
   40.2720   24.1220   35.2040 N   0  0  0  0  0  0  0  0  0  0  0  0
   40.6540   22.9350   35.6430 C   0  0  0  0  0  0  0  0  0  0  0  0
   39.7520   22.1440   36.2310 N   0  0  0  0  0  0  0  0  0  0  0  0
   38.8380   25.9050   34.7600 N   0  0  0  0  0  0  0  0  0  0  0  0
   38.9800   27.1530   35.5380 C   0  0  0  0  0  0  0  0  0  0  0  0
   37.6910   27.9050   35.5360 C   0  0  0  0  0  0  0  0  0  0  0  0
   36.8330   27.3420   34.5800 O   0  0  0  0  0  0  0  0  0  0  0  0
   37.4580   27.2940   33.3450 C   0  0  0  0  0  0  0  0  0  0  0  0
   38.5180   26.2280   33.3420 C   0  0  2  0  0  0  0  0  0  0  0  0
   38.2060   25.0800   32.5160 C   0  0  0  0  0  0  0  0  0  0  0  0
   36.8590   24.6330   32.4680 C   0  0  0  0  0  0  0  0  0  0  0  0
   36.3980   23.5700   31.7120 C   0  0  0  0  0  0  0  0  0  0  0  0
   37.3230   22.8850   30.9460 C   0  0  0  0  0  0  0  0  0  0  0  0
   38.6560   23.2870   30.9610 C   0  0  0  0  0  0  0  0  0  0  0  0
   39.0370   24.3510   31.7240 C   0  0  0  0  0  0  0  0  0  0  0  0
   40.4130   24.6790   31.5190 C   0  0  0  0  0  0  0  0  0  0  0  0
   40.4200   25.3400   30.0760 C   0  0  0  0  0  0  0  0  0  0  0  0
   41.2730   25.6150   32.1510 C   0  0  0  0  0  0  0  0  0  0  0  0
   37.7369   21.9174   36.8494 H   0  0  0  0  0  0  0  0  0  0  0  0
   37.0551   24.1705   36.0055 H   0  0  0  0  0  0  0  0  0  0  0  0
   41.6966   22.6042   35.5262 H   0  0  0  0  0  0  0  0  0  0  0  0
   39.2567   26.9071   36.5738 H   0  0  0  0  0  0  0  0  0  0  0  0
   39.7625   27.7765   35.0809 H   0  0  0  0  0  0  0  0  0  0  0  0
   37.2261   27.8418   36.5309 H   0  0  0  0  0  0  0  0  0  0  0  0
   37.8781   28.9607   35.2902 H   0  0  0  0  0  0  0  0  0  0  0  0
   36.7123   27.0674   32.5687 H   0  0  0  0  0  0  0  0  0  0  0  0
   37.9271   28.2679   33.1415 H   0  0  0  0  0  0  0  0  0  0  0  0
   39.4230   26.6134   32.8496 H   0  0  0  0  0  0  0  0  0  0  0  0
   36.1236   25.1751   33.0807 H   0  0  0  0  0  0  0  0  0  0  0  0
   35.3367   23.2810   31.7200 H   0  0  0  0  0  0  0  0  0  0  0  0
   37.0085   22.0297   30.3299 H   0  0  0  0  0  0  0  0  0  0  0  0
   39.4008   22.7469   30.3581 H   0  0  0  0  0  0  0  0  0  0  0  0
   40.8122   23.7204   31.8820 H   0  0  0  0  0  0  0  0  0  0  0  0
   40.4316   26.4355   30.1746 H   0  0  0  0  0  0  0  0  0  0  0  0
   41.3147   25.0118   29.5267 H   0  0  0  0  0  0  0  0  0  0  0  0
   39.5185   25.0308   29.5267 H   0  0  0  0  0  0  0  0  0  0  0  0
   41.1827   25.5168   33.2429 H   0  0  0  0  0  0  0  0  0  0  0  0
   42.3127   25.4191   31.8499 H   0  0  0  0  0  0  0  0  0  0  0  0
   40.9900   26.6344   31.8499 H   0  0  0  0  0  0  0  0  0  0  0  0
  2  1  2  0
  3  2  1  0
  4  3  2  0
  4  5  1  0
  5  6  2  0
  6  1  1  0
  7  3  1  0
  7  8  1  0
  9  8  1  0
 10  9  1  0
 11 10  1  0
 12 11  1  0
 12  7  1  0
 13 12  1  0
 14 13  2  0
 15 14  1  0
 16 17  1  0
 16 15  2  0
 17 18  2  0
 18 13  1  0
 19 18  1  0
 19 21  1  0
 20 19  1  0
  1 22  1  0
  2 23  1  0
  5 24  1  0
  8 25  1  0
  8 26  1  0
  9 27  1  0
  9 28  1  0
 11 29  1  0
 11 30  1  0
 12 31  1  6
 14 32  1  0
 15 33  1  0
 16 34  1  0
 17 35  1  0
 19 36  1  0
 20 37  1  0
 20 38  1  0
 20 39  1  0
 21 40  1  0
 21 41  1  0
 21 42  1  0
M  ISO  8  22  14  23  14  24  14  25  13  26  13  27  13  28  13  29  13
M  ISO  8  30  13  31  13  32  14  33  14  34  14  35  14  36   8  37   8
M  ISO  5  38   8  39   8  40   8  41   8  42   8
M  END
>  <minimizedAffinity>  (1) 
-4.2665205

>  <minimizedRMSD>  (1) 
0.240274161

$$$$
