
     RDKit          3D

 39 41  0  0  1  0  0  0  0  0999 V2000
   38.5090   22.5830   36.3460 C   0  0  0  0  0  0  0  0  0  0  0  0
   38.1190   23.8400   35.8780 C   0  0  0  0  0  0  0  0  0  0  0  0
   39.0400   24.6610   35.3120 C   0  0  0  0  0  0  0  0  0  0  0  0
   40.3080   24.1790   35.2450 N   0  0  0  0  0  0  0  0  0  0  0  0
   40.6950   22.9910   35.6830 C   0  0  0  0  0  0  0  0  0  0  0  0
   39.7860   22.1820   36.2400 N   0  0  0  0  0  0  0  0  0  0  0  0
   38.8600   25.9410   34.7870 N   0  0  0  0  0  0  0  0  0  0  0  0
   38.9650   27.1800   35.5780 C   0  0  0  0  0  0  0  0  0  0  0  0
   37.6650   27.9140   35.5510 C   0  0  0  0  0  0  0  0  0  0  0  0
   36.8420   27.3760   34.5470 O   0  0  0  0  0  0  0  0  0  0  0  0
   37.5280   27.3440   33.3330 C   0  0  0  0  0  0  0  0  0  0  0  0
   38.5740   26.2750   33.3760 C   0  0  2  0  0  0  0  0  0  0  0  0
   38.2810   25.1290   32.5180 C   0  0  0  0  0  0  0  0  0  0  0  0
   36.9410   24.6690   32.4060 C   0  0  0  0  0  0  0  0  0  0  0  0
   36.5260   23.6210   31.6070 C   0  0  0  0  0  0  0  0  0  0  0  0
   37.5100   22.9750   30.8650 C   0  0  0  0  0  0  0  0  0  0  0  0
   38.8370   23.3800   30.9330 C   0  0  0  0  0  0  0  0  0  0  0  0
   39.1560   24.4280   31.7430 C   0  0  0  0  0  0  0  0  0  0  0  0
   40.5580   24.8770   31.6910 C   0  0  0  0  0  0  0  0  0  0  0  0
   40.7040   25.6340   30.3480 C   0  0  0  0  0  0  0  0  0  0  0  0
   37.7640   21.9164   36.8050 H   0  0  0  0  0  0  0  0  0  0  0  0
   37.0713   24.1628   35.9676 H   0  0  0  0  0  0  0  0  0  0  0  0
   41.7445   22.6747   35.5908 H   0  0  0  0  0  0  0  0  0  0  0  0
   39.2196   26.9279   36.6180 H   0  0  0  0  0  0  0  0  0  0  0  0
   39.7497   27.8188   35.1465 H   0  0  0  0  0  0  0  0  0  0  0  0
   37.1668   27.8126   36.5264 H   0  0  0  0  0  0  0  0  0  0  0  0
   37.8499   28.9779   35.3414 H   0  0  0  0  0  0  0  0  0  0  0  0
   38.0073   28.3184   33.1575 H   0  0  0  0  0  0  0  0  0  0  0  0
   36.8201   27.1301   32.5187 H   0  0  0  0  0  0  0  0  0  0  0  0
   39.5018   26.6636   32.9308 H   0  0  0  0  0  0  0  0  0  0  0  0
   36.1750   25.1874   33.0015 H   0  0  0  0  0  0  0  0  0  0  0  0
   35.4711   23.3129   31.5598 H   0  0  0  0  0  0  0  0  0  0  0  0
   37.2331   22.1316   30.2153 H   0  0  0  0  0  0  0  0  0  0  0  0
   39.6127   22.8662   30.3462 H   0  0  0  0  0  0  0  0  0  0  0  0
   40.7781   25.5470   32.5352 H   0  0  0  0  0  0  0  0  0  0  0  0
   41.2586   24.0318   31.7597 H   0  0  0  0  0  0  0  0  0  0  0  0
   40.9089   26.6964   30.5463 H   0  0  0  0  0  0  0  0  0  0  0  0
   41.5353   25.2016   29.7718 H   0  0  0  0  0  0  0  0  0  0  0  0
   39.7715   25.5418   29.7718 H   0  0  0  0  0  0  0  0  0  0  0  0
  2  1  2  0
  3  2  1  0
  4  3  2  0
  4  5  1  0
  5  6  2  0
  6  1  1  0
  7  3  1  0
  7  8  1  0
  9  8  1  0
 10  9  1  0
 11 12  1  0
 11 10  1  0
 12  7  1  0
 13 12  1  0
 14 13  2  0
 15 14  1  0
 16 17  1  0
 16 15  2  0
 17 18  2  0
 18 13  1  0
 19 18  1  0
 20 19  1  0
  1 21  1  0
  2 22  1  0
  5 23  1  0
  8 24  1  0
  8 25  1  0
  9 26  1  0
  9 27  1  0
 11 28  1  0
 11 29  1  0
 12 30  1  6
 14 31  1  0
 15 32  1  0
 16 33  1  0
 17 34  1  0
 19 35  1  0
 19 36  1  0
 20 37  1  0
 20 38  1  0
 20 39  1  0
M  ISO  8  21  14  22  14  23  14  24  13  25  13  26  13  27  13  28  13
M  ISO  8  29  13  30  13  31  14  32  14  33  14  34  14  35   8  36   8
M  ISO  3  37   8  38   8  39   8
M  END
>  <minimizedAffinity>  (1) 
-4.16224384

>  <minimizedRMSD>  (1) 
0.42974788

$$$$
