
     RDKit          3D

 13 13  0  0  0  0  0  0  0  0999 V2000
   40.6080   22.1550   37.2680 C   0  0  0  0  0  0  0  0  0  0  0  0
   39.9060   22.9940   38.1500 C   0  0  0  0  0  0  0  0  0  0  0  0
   38.6460   23.4660   37.7540 C   0  0  0  0  0  0  0  0  0  0  0  0
   38.1790   23.0790   36.5290 N   0  0  0  0  0  0  0  0  0  0  0  0
   38.8810   22.2740   35.7090 C   0  0  0  0  0  0  0  0  0  0  0  0
   40.0870   21.8180   36.0830 N   0  0  0  0  0  0  0  0  0  0  0  0
   37.8470   24.3640   38.6490 C   0  0  0  0  0  0  0  0  0  0  0  0
   41.5978   21.7708   37.5555 H   0  0  0  0  0  0  0  0  0  0  0  0
   40.3331   23.2730   39.1246 H   0  0  0  0  0  0  0  0  0  0  0  0
   38.4656   21.9895   34.7310 H   0  0  0  0  0  0  0  0  0  0  0  0
   38.0632   24.1210   39.6998 H   0  0  0  0  0  0  0  0  0  0  0  0
   38.1166   25.4121   38.4521 H   0  0  0  0  0  0  0  0  0  0  0  0
   36.7747   24.2181   38.4521 H   0  0  0  0  0  0  0  0  0  0  0  0
  1  2  2  0
  3  2  1  0
  3  7  1  0
  4  3  2  0
  5  6  2  0
  5  4  1  0
  6  1  1  0
  1  8  1  0
  2  9  1  0
  5 10  1  0
  7 11  1  0
  7 12  1  0
  7 13  1  0
M  ISO  6   8  14   9  14  10  14  11   8  12   8  13   8
M  END
>  <minimizedAffinity>  (1) 
-2.68932962

>  <minimizedRMSD>  (1) 
0.799017131

$$$$
