
     RDKit          3D

 23 24  0  0  0  0  0  0  0  0999 V2000
   37.6390   23.9710   36.8090 C   0  0  0  0  0  0  0  0  0  0  0  0
   40.8680   22.1670   37.6120 C   0  0  0  0  0  0  0  0  0  0  0  0
   39.6900   22.8910   37.8170 C   0  0  0  0  0  0  0  0  0  0  0  0
   38.9230   23.1970   36.6940 C   0  0  0  0  0  0  0  0  0  0  0  0
   39.3590   22.7780   35.4790 N   0  0  0  0  0  0  0  0  0  0  0  0
   40.5030   22.0810   35.3200 C   0  0  0  0  0  0  0  0  0  0  0  0
   41.2530   21.7790   36.3950 N   0  0  0  0  0  0  0  0  0  0  0  0
   37.8460   25.2170   36.0070 C   0  0  0  0  0  0  0  0  0  0  0  0
   37.4330   25.1920   34.6900 C   0  0  0  0  0  0  0  0  0  0  0  0
   37.5500   26.2610   33.8070 C   0  0  0  0  0  0  0  0  0  0  0  0
   38.1290   27.4350   34.2990 C   0  0  0  0  0  0  0  0  0  0  0  0
   38.5420   27.4580   35.6150 C   0  0  0  0  0  0  0  0  0  0  0  0
   38.4220   26.3970   36.4830 C   0  0  0  0  0  0  0  0  0  0  0  0
   36.8009   23.3869   36.4012 H   0  0  0  0  0  0  0  0  0  0  0  0
   37.3935   24.1980   37.8569 H   0  0  0  0  0  0  0  0  0  0  0  0
   41.4951   21.9100   38.4784 H   0  0  0  0  0  0  0  0  0  0  0  0
   39.3806   23.2067   38.8243 H   0  0  0  0  0  0  0  0  0  0  0  0
   40.8208   21.7613   34.3166 H   0  0  0  0  0  0  0  0  0  0  0  0
   36.9803   24.2632   34.3127 H   0  0  0  0  0  0  0  0  0  0  0  0
   37.2019   26.1858   32.7663 H   0  0  0  0  0  0  0  0  0  0  0  0
   38.2519   28.3171   33.6535 H   0  0  0  0  0  0  0  0  0  0  0  0
   38.9968   28.3846   35.9952 H   0  0  0  0  0  0  0  0  0  0  0  0
   38.7702   26.4760   37.5234 H   0  0  0  0  0  0  0  0  0  0  0  0
  2  3  2  0
  4  1  1  0
  4  3  1  0
  5  4  2  0
  6  5  1  0
  6  7  2  0
  7  2  1  0
  8 13  1  0
  8  1  1  0
  9  8  2  0
 10 11  2  0
 10  9  1  0
 11 12  1  0
 12 13  2  0
  1 14  1  0
  1 15  1  0
  2 16  1  0
  3 17  1  0
  6 18  1  0
  9 19  1  0
 10 20  1  0
 11 21  1  0
 12 22  1  0
 13 23  1  0
M  ISO  8  14   8  15   8  16  14  17  14  18  14  19  14  20  14  21  14
M  ISO  2  22  14  23  14
M  END
>  <minimizedAffinity>  (1) 
-3.74746871

>  <minimizedRMSD>  (1) 
2.20135188

$$$$
