
     RDKit          3D

 16 16  0  0  0  0  0  0  0  0999 V2000
   40.1130   23.1010   36.5440 C   0  0  0  0  0  0  0  0  0  0  0  0
   39.7120   22.7620   37.8490 C   0  0  0  0  0  0  0  0  0  0  0  0
   38.6320   23.4750   38.4200 C   0  0  0  0  0  0  0  0  0  0  0  0
   38.0420   24.4560   37.6640 N   0  0  0  0  0  0  0  0  0  0  0  0
   38.4650   24.7420   36.4150 C   0  0  0  0  0  0  0  0  0  0  0  0
   39.4860   24.0760   35.8620 N   0  0  0  0  0  0  0  0  0  0  0  0
   37.7270   25.8420   35.6970 C   0  0  0  0  0  0  0  0  0  0  0  0
   38.4540   27.1490   35.8860 C   0  0  0  0  0  0  0  0  0  0  0  0
   40.9497   22.5620   36.0755 H   0  0  0  0  0  0  0  0  0  0  0  0
   40.2235   21.9655   38.4093 H   0  0  0  0  0  0  0  0  0  0  0  0
   38.2770   23.2503   39.4366 H   0  0  0  0  0  0  0  0  0  0  0  0
   36.7094   25.9271   36.1060 H   0  0  0  0  0  0  0  0  0  0  0  0
   37.6752   25.6058   34.6239 H   0  0  0  0  0  0  0  0  0  0  0  0
   38.5676   27.3533   36.9609 H   0  0  0  0  0  0  0  0  0  0  0  0
   39.4473   27.0871   35.4175 H   0  0  0  0  0  0  0  0  0  0  0  0
   37.8775   27.9603   35.4175 H   0  0  0  0  0  0  0  0  0  0  0  0
  1  2  2  0
  2  3  1  0
  4  3  2  0
  5  4  1  0
  6  5  2  0
  6  1  1  0
  7  8  1  0
  7  5  1  0
  1  9  1  0
  2 10  1  0
  3 11  1  0
  7 12  1  0
  7 13  1  0
  8 14  1  0
  8 15  1  0
  8 16  1  0
M  ISO  8   9  14  10  14  11  14  12   8  13   8  14   8  15   8  16   8
M  END
>  <minimizedAffinity>  (1) 
-3.05821037

>  <minimizedRMSD>  (1) 
3.26976705

$$$$
