
     RDKit          3D

 20 20  0  0  0  0  0  0  0  0999 V2000
   40.5620   22.0250   37.2130 C   0  0  0  0  0  0  0  0  0  0  0  0
   43.3410   24.2630   35.9280 C   0  0  0  0  0  0  0  0  0  0  0  0
   42.6980   23.2540   36.6570 C   0  0  0  0  0  0  0  0  0  0  0  0
   41.3230   23.0830   36.4690 C   0  0  0  0  0  0  0  0  0  0  0  0
   40.6750   23.9150   35.5810 N   0  0  0  0  0  0  0  0  0  0  0  0
   41.3450   24.8650   34.9120 C   0  0  0  0  0  0  0  0  0  0  0  0
   42.6630   25.0370   35.0840 N   0  0  0  0  0  0  0  0  0  0  0  0
   39.8350   22.6960   38.2810 N   0  0  0  0  0  0  0  0  0  0  0  0
   38.5390   23.2070   37.9870 C   0  0  0  0  0  0  0  0  0  0  0  0
   37.8000   22.7290   37.0440 N   0  0  0  0  0  0  0  0  0  0  0  0
   38.0380   24.2890   38.7640 N   0  0  0  0  0  0  0  0  0  0  0  0
   38.0580   21.9540   36.4260 H   0  0  0  0  0  0  0  0  0  0  0  0
   41.2582   21.2859   37.6362 H   0  0  0  0  0  0  0  0  0  0  0  0
   39.8717   21.4926   36.5421 H   0  0  0  0  0  0  0  0  0  0  0  0
   44.4226   24.4178   36.0552 H   0  0  0  0  0  0  0  0  0  0  0  0
   43.2580   22.6156   37.3562 H   0  0  0  0  0  0  0  0  0  0  0  0
   40.8028   25.5148   34.2093 H   0  0  0  0  0  0  0  0  0  0  0  0
   40.2455   22.7979   39.2202 H   0  0  0  0  0  0  0  0  0  0  0  0
   37.1029   24.6740   38.5683 H   0  0  0  0  0  0  0  0  0  0  0  0
   38.6105   24.6871   39.5221 H   0  0  0  0  0  0  0  0  0  0  0  0
  1  8  1  0
  2  3  2  0
  4  3  1  0
  4  1  1  0
  5  4  2  0
  6  7  2  0
  6  5  1  0
  7  2  1  0
  9  8  1  0
  9 11  1  0
 10  9  2  0
 12 10  1  0
  1 13  1  0
  1 14  1  0
  2 15  1  0
  3 16  1  0
  6 17  1  0
  8 18  1  0
 11 19  1  0
 11 20  1  0
M  ISO  5  13   8  14   8  15  14  16  14  17  14
M  END
>  <minimizedAffinity>  (1) 
-3.68180561

>  <minimizedRMSD>  (1) 
3.5523169

$$$$
