
     RDKit          3D

 20 21  0  0  0  0  0  0  0  0999 V2000
   40.7350   22.1610   37.5600 C   0  0  0  0  0  0  0  0  0  0  0  0
   39.6110   22.9640   37.7730 C   0  0  0  0  0  0  0  0  0  0  0  0
   38.8610   23.3910   36.6590 C   0  0  0  0  0  0  0  0  0  0  0  0
   39.2970   22.9800   35.4410 N   0  0  0  0  0  0  0  0  0  0  0  0
   40.3780   22.2090   35.2550 C   0  0  0  0  0  0  0  0  0  0  0  0
   41.0900   21.8060   36.3230 N   0  0  0  0  0  0  0  0  0  0  0  0
   37.6530   24.2470   36.8170 C   0  0  0  0  0  0  0  0  0  0  0  0
   37.7960   25.4760   35.9890 C   0  0  0  0  0  0  0  0  0  0  0  0
   38.4270   26.6290   36.4650 C   0  0  0  0  0  0  0  0  0  0  0  0
   38.3600   27.5310   35.4240 C   0  0  0  0  0  0  0  0  0  0  0  0
   37.7060   26.8700   34.4050 C   0  0  0  0  0  0  0  0  0  0  0  0
   37.3730   25.6450   34.7520 O   0  0  0  0  0  0  0  0  0  0  0  0
   41.3318   21.8189   38.4184 H   0  0  0  0  0  0  0  0  0  0  0  0
   39.3172   23.2573   38.7916 H   0  0  0  0  0  0  0  0  0  0  0  0
   40.6794   21.9093   34.2404 H   0  0  0  0  0  0  0  0  0  0  0  0
   36.7637   23.6879   36.4907 H   0  0  0  0  0  0  0  0  0  0  0  0
   37.5440   24.5310   37.8741 H   0  0  0  0  0  0  0  0  0  0  0  0
   38.8792   26.7834   37.4558 H   0  0  0  0  0  0  0  0  0  0  0  0
   38.7466   28.5607   35.4093 H   0  0  0  0  0  0  0  0  0  0  0  0
   37.4892   27.3130   33.4218 H   0  0  0  0  0  0  0  0  0  0  0  0
  1  2  2  0
  3  7  1  0
  3  2  1  0
  4  3  2  0
  5  4  1  0
  5  6  2  0
  6  1  1  0
  8  9  2  0
  8  7  1  0
 10  9  1  0
 11 12  1  0
 11 10  2  0
 12  8  1  0
  1 13  1  0
  2 14  1  0
  5 15  1  0
  7 16  1  0
  7 17  1  0
  9 18  1  0
 10 19  1  0
 11 20  1  0
M  ISO  8  13  14  14  14  15  14  16   8  17   8  18  14  19  14  20  14
M  END
>  <minimizedAffinity>  (1) 
-3.67055631

>  <minimizedRMSD>  (1) 
2.1196537

$$$$
