
     RDKit          3D

 37 39  0  0  0  0  0  0  0  0999 V2000
   38.2620   24.4730   33.4060 C   0  0  0  0  0  0  0  0  0  0  0  0
   37.5310   25.5600   32.9920 C   0  0  0  0  0  0  0  0  0  0  0  0
   36.4370   25.4680   32.1400 C   0  0  0  0  0  0  0  0  0  0  0  0
   36.1060   24.2440   31.7190 N   0  0  0  0  0  0  0  0  0  0  0  0
   36.7970   23.1620   32.1020 C   0  0  0  0  0  0  0  0  0  0  0  0
   37.8490   23.2690   32.9250 N   0  0  0  0  0  0  0  0  0  0  0  0
   36.2990   21.8710   31.5450 C   0  0  0  0  0  0  0  0  0  0  0  0
   37.3170   20.7990   31.6240 C   0  0  0  0  0  0  0  0  0  0  0  0
   36.8950   19.4550   32.0490 C   0  0  0  0  0  0  0  0  0  0  0  0
   35.6520   19.3550   32.8670 C   0  0  0  0  0  0  0  0  0  0  0  0
   34.5800   20.1440   32.1530 C   0  0  0  0  0  0  0  0  0  0  0  0
   34.9950   21.5920   32.2150 C   0  0  0  0  0  0  0  0  0  0  0  0
   39.4220   24.5480   34.3060 C   0  0  0  0  0  0  0  0  0  0  0  0
   37.7800   24.1190   37.7070 C   0  0  0  0  0  0  0  0  0  0  0  0
   38.0040   24.5800   36.3920 C   0  0  0  0  0  0  0  0  0  0  0  0
   39.1340   24.0960   35.7040 C   0  0  0  0  0  0  0  0  0  0  0  0
   39.9580   23.2020   36.3510 N   0  0  0  0  0  0  0  0  0  0  0  0
   39.6910   22.8040   37.6010 C   0  0  0  0  0  0  0  0  0  0  0  0
   38.6230   23.2520   38.2700 N   0  0  0  0  0  0  0  0  0  0  0  0
   37.8272   26.5556   33.3540 H   0  0  0  0  0  0  0  0  0  0  0  0
   35.8718   26.3585   31.8278 H   0  0  0  0  0  0  0  0  0  0  0  0
   36.1163   21.9273   30.4617 H   0  0  0  0  0  0  0  0  0  0  0  0
   37.7594   20.6979   30.6220 H   0  0  0  0  0  0  0  0  0  0  0  0
   37.9947   21.1320   32.4239 H   0  0  0  0  0  0  0  0  0  0  0  0
   36.7419   18.8541   31.1405 H   0  0  0  0  0  0  0  0  0  0  0  0
   37.6987   19.1034   32.7126 H   0  0  0  0  0  0  0  0  0  0  0  0
   35.3460   18.3025   32.9597 H   0  0  0  0  0  0  0  0  0  0  0  0
   35.8188   19.7520   33.8792 H   0  0  0  0  0  0  0  0  0  0  0  0
   33.6104   20.0056   32.6537 H   0  0  0  0  0  0  0  0  0  0  0  0
   34.4687   19.8083   31.1114 H   0  0  0  0  0  0  0  0  0  0  0  0
   35.0780   21.8846   33.2721 H   0  0  0  0  0  0  0  0  0  0  0  0
   34.2277   22.1698   31.6789 H   0  0  0  0  0  0  0  0  0  0  0  0
   40.2214   23.9142   33.8946 H   0  0  0  0  0  0  0  0  0  0  0  0
   39.7124   25.6073   34.3658 H   0  0  0  0  0  0  0  0  0  0  0  0
   36.9056   24.4766   38.2706 H   0  0  0  0  0  0  0  0  0  0  0  0
   37.3165   25.2962   35.9183 H   0  0  0  0  0  0  0  0  0  0  0  0
   40.3683   22.0892   38.0912 H   0  0  0  0  0  0  0  0  0  0  0  0
  1 13  1  0
  2  1  2  0
  3  2  1  0
  4  5  1  0
  4  3  2  0
  5  6  2  0
  6  1  1  0
  7  8  1  0
  7  5  1  0
  7 12  1  0
  8  9  1  0
  9 10  1  0
 11 12  1  0
 11 10  1  0
 13 16  1  0
 14 19  2  0
 15 14  1  0
 16 17  1  0
 16 15  2  0
 17 18  2  0
 18 19  1  0
  2 20  1  0
  3 21  1  0
  7 22  1  0
  8 23  1  0
  8 24  1  0
  9 25  1  0
  9 26  1  0
 10 27  1  0
 10 28  1  0
 11 29  1  0
 11 30  1  0
 12 31  1  0
 12 32  1  0
 13 33  1  0
 13 34  1  0
 14 35  1  0
 15 36  1  0
 18 37  1  0
M  ISO  8  20  14  21  14  22  13  23  13  24  13  25  13  26  13  27  13
M  ISO  8  28  13  29  13  30  13  31  13  32  13  33   8  34   8  35  14
M  ISO  2  36  14  37  14
M  END
>  <minimizedAffinity>  (1) 
-5.19872761

>  <minimizedRMSD>  (1) 
6.69553995

$$$$
