
     RDKit          3D

 31 33  0  0  0  0  0  0  0  0999 V2000
   38.0510   24.9120   33.3530 C   0  0  0  0  0  0  0  0  0  0  0  0
   37.3220   25.9390   32.8100 C   0  0  0  0  0  0  0  0  0  0  0  0
   36.2600   25.7440   31.9400 C   0  0  0  0  0  0  0  0  0  0  0  0
   35.9440   24.4860   31.6270 N   0  0  0  0  0  0  0  0  0  0  0  0
   36.6370   23.4430   32.1410 C   0  0  0  0  0  0  0  0  0  0  0  0
   37.6580   23.6550   32.9780 N   0  0  0  0  0  0  0  0  0  0  0  0
   36.3220   22.0520   31.8240 C   0  0  0  0  0  0  0  0  0  0  0  0
   35.1600   21.5280   32.3950 C   0  0  0  0  0  0  0  0  0  0  0  0
   34.8080   20.2120   32.1300 C   0  0  0  0  0  0  0  0  0  0  0  0
   35.6210   19.4430   31.3020 C   0  0  0  0  0  0  0  0  0  0  0  0
   36.7720   19.9450   30.7280 C   0  0  0  0  0  0  0  0  0  0  0  0
   37.1090   21.2670   31.0050 C   0  0  0  0  0  0  0  0  0  0  0  0
   39.1840   25.0920   34.2800 C   0  0  0  0  0  0  0  0  0  0  0  0
   37.7950   24.1780   37.6940 C   0  0  0  0  0  0  0  0  0  0  0  0
   37.9390   24.8270   36.4440 C   0  0  0  0  0  0  0  0  0  0  0  0
   38.9970   24.4350   35.6020 C   0  0  0  0  0  0  0  0  0  0  0  0
   39.8270   23.4390   36.0480 N   0  0  0  0  0  0  0  0  0  0  0  0
   39.6510   22.8530   37.2390 C   0  0  0  0  0  0  0  0  0  0  0  0
   38.6590   23.2160   38.0380 N   0  0  0  0  0  0  0  0  0  0  0  0
   37.5938   26.9705   33.0785 H   0  0  0  0  0  0  0  0  0  0  0  0
   35.6994   26.5940   31.5237 H   0  0  0  0  0  0  0  0  0  0  0  0
   34.5309   22.1514   33.0474 H   0  0  0  0  0  0  0  0  0  0  0  0
   33.8963   19.7812   32.5695 H   0  0  0  0  0  0  0  0  0  0  0  0
   35.3368   18.4001   31.0981 H   0  0  0  0  0  0  0  0  0  0  0  0
   37.4007   19.3222   30.0747 H   0  0  0  0  0  0  0  0  0  0  0  0
   38.0207   21.6948   30.5625 H   0  0  0  0  0  0  0  0  0  0  0  0
   40.0853   24.6719   33.8098 H   0  0  0  0  0  0  0  0  0  0  0  0
   39.2691   26.1719   34.4714 H   0  0  0  0  0  0  0  0  0  0  0  0
   36.9802   24.4621   38.3762 H   0  0  0  0  0  0  0  0  0  0  0  0
   37.2402   25.6194   36.1377 H   0  0  0  0  0  0  0  0  0  0  0  0
   40.3408   22.0580   37.5587 H   0  0  0  0  0  0  0  0  0  0  0  0
  1 13  1  0
  2  1  2  0
  3  2  1  0
  4  3  2  0
  4  5  1  0
  5  6  2  0
  6  1  1  0
  7  5  1  0
  7  8  2  0
  9  8  1  0
 10  9  2  0
 11 12  2  0
 11 10  1  0
 12  7  1  0
 13 16  1  0
 14 19  2  0
 15 14  1  0
 16 17  1  0
 16 15  2  0
 17 18  2  0
 18 19  1  0
  2 20  1  0
  3 21  1  0
  8 22  1  0
  9 23  1  0
 10 24  1  0
 11 25  1  0
 12 26  1  0
 13 27  1  0
 13 28  1  0
 14 29  1  0
 15 30  1  0
 18 31  1  0
M  ISO  8  20  14  21  14  22  14  23  14  24  14  25  14  26  14  27   8
M  ISO  4  28   8  29  14  30  14  31  14
M  END
>  <minimizedAffinity>  (1) 
-5.18468332

>  <minimizedRMSD>  (1) 
6.6962533

$$$$
