
     RDKit          3D

 34 37  0  0  0  0  0  0  0  0999 V2000
   39.4510   26.9020   34.6600 C   0  0  0  0  0  0  0  0  0  0  0  0
   39.0950   27.1240   33.3490 C   0  0  0  0  0  0  0  0  0  0  0  0
   40.0100   27.1660   32.3200 C   0  0  0  0  0  0  0  0  0  0  0  0
   41.3080   26.9800   32.6330 N   0  0  0  0  0  0  0  0  0  0  0  0
   41.6810   26.7610   33.9020 C   0  0  0  0  0  0  0  0  0  0  0  0
   40.7770   26.7230   34.8960 N   0  0  0  0  0  0  0  0  0  0  0  0
   43.0850   26.5800   34.0930 N   0  0  0  0  0  0  0  0  0  0  0  0
   44.1670   27.1320   33.5690 C   0  0  0  0  0  0  0  0  0  0  0  0
   45.2880   26.6030   34.0930 N   0  0  0  0  0  0  0  0  0  0  0  0
   44.9210   25.6680   34.9960 C   0  0  0  0  0  0  0  0  0  0  0  0
   45.6580   24.8350   35.8110 C   0  0  0  0  0  0  0  0  0  0  0  0
   45.0090   23.9770   36.6350 N   0  0  0  0  0  0  0  0  0  0  0  0
   43.6500   23.9620   36.6350 C   0  0  0  0  0  0  0  0  0  0  0  0
   42.9650   24.7930   35.8230 N   0  0  0  0  0  0  0  0  0  0  0  0
   43.5510   25.6650   34.9830 C   0  0  0  0  0  0  0  0  0  0  0  0
   38.4940   26.8520   35.7750 C   0  0  0  0  0  0  0  0  0  0  0  0
   37.9550   23.1120   36.0110 C   0  0  0  0  0  0  0  0  0  0  0  0
   38.1780   24.3790   35.4410 C   0  0  0  0  0  0  0  0  0  0  0  0
   38.2580   25.4740   36.3140 C   0  0  0  0  0  0  0  0  0  0  0  0
   38.1130   25.2500   37.6680 N   0  0  0  0  0  0  0  0  0  0  0  0
   37.9020   24.0210   38.1410 C   0  0  0  0  0  0  0  0  0  0  0  0
   37.8250   22.9750   37.3320 N   0  0  0  0  0  0  0  0  0  0  0  0
   47.0750   24.8390   35.8210 N   0  0  0  0  0  0  0  0  0  0  0  0
   38.0314   27.2747   33.1122 H   0  0  0  0  0  0  0  0  0  0  0  0
   39.6933   27.3446   31.2818 H   0  0  0  0  0  0  0  0  0  0  0  0
   44.1523   27.9218   32.8035 H   0  0  0  0  0  0  0  0  0  0  0  0
   43.1082   23.2714   37.2979 H   0  0  0  0  0  0  0  0  0  0  0  0
   38.8800   27.4811   36.5906 H   0  0  0  0  0  0  0  0  0  0  0  0
   37.5303   27.2101   35.3837 H   0  0  0  0  0  0  0  0  0  0  0  0
   37.8872   22.2265   35.3619 H   0  0  0  0  0  0  0  0  0  0  0  0
   38.2854   24.5058   34.3536 H   0  0  0  0  0  0  0  0  0  0  0  0
   37.7896   23.8729   39.2252 H   0  0  0  0  0  0  0  0  0  0  0  0
   47.5874   24.2001   36.4456 H   0  0  0  0  0  0  0  0  0  0  0  0
   47.5926   25.4808   35.2037 H   0  0  0  0  0  0  0  0  0  0  0  0
  1  6  1  0
  1 16  1  0
  2  1  2  0
  3  4  2  0
  3  2  1  0
  4  5  1  0
  5  7  1  0
  5  6  2  0
  7 15  1  0
  8  7  1  0
  8  9  2  0
  9 10  1  0
 10 11  2  0
 11 23  1  0
 11 12  1  0
 12 13  2  0
 14 13  1  0
 15 10  1  0
 15 14  2  0
 16 19  1  0
 17 22  2  0
 18 17  1  0
 18 19  2  0
 19 20  1  0
 20 21  2  0
 22 21  1  0
  2 24  1  0
  3 25  1  0
  8 26  1  0
 13 27  1  0
 16 28  1  0
 16 29  1  0
 17 30  1  0
 18 31  1  0
 21 32  1  0
 23 33  1  0
 23 34  1  0
M  ISO  8  24  14  25  14  26  14  27  14  28   8  29   8  30  14  31  14
M  ISO  1  32  14
M  END
>  <minimizedAffinity>  (1) 
-5.12862062

>  <minimizedRMSD>  (1) 
0.384637803

$$$$
