
     RDKit          3D

 29 31  0  0  0  0  0  0  0  0999 V2000
   38.7140   27.0280   34.6580 C   0  0  0  0  0  0  0  0  0  0  0  0
   37.9500   27.0870   33.5160 C   0  0  0  0  0  0  0  0  0  0  0  0
   38.4860   27.2410   32.2540 C   0  0  0  0  0  0  0  0  0  0  0  0
   39.8230   27.3350   32.1640 N   0  0  0  0  0  0  0  0  0  0  0  0
   40.5990   27.2830   33.2540 C   0  0  0  0  0  0  0  0  0  0  0  0
   40.0510   27.1320   34.4710 N   0  0  0  0  0  0  0  0  0  0  0  0
   42.0450   27.3930   33.0710 C   0  0  0  0  0  0  0  0  0  0  0  0
   42.5640   28.0350   31.9660 C   0  0  0  0  0  0  0  0  0  0  0  0
   43.9590   28.0890   31.8820 C   0  0  0  0  0  0  0  0  0  0  0  0
   44.7210   27.5360   32.8420 N   0  0  0  0  0  0  0  0  0  0  0  0
   44.2070   26.9150   33.9110 C   0  0  0  0  0  0  0  0  0  0  0  0
   42.8490   26.8560   34.0060 N   0  0  0  0  0  0  0  0  0  0  0  0
   38.1460   26.8630   36.0110 C   0  0  0  0  0  0  0  0  0  0  0  0
   38.2540   23.0650   36.0730 C   0  0  0  0  0  0  0  0  0  0  0  0
   38.2460   24.3880   35.5830 C   0  0  0  0  0  0  0  0  0  0  0  0
   38.1590   25.4490   36.4920 C   0  0  0  0  0  0  0  0  0  0  0  0
   38.0840   25.1290   37.8280 N   0  0  0  0  0  0  0  0  0  0  0  0
   38.0960   23.8500   38.2410 C   0  0  0  0  0  0  0  0  0  0  0  0
   38.1790   22.8440   37.3850 N   0  0  0  0  0  0  0  0  0  0  0  0
   36.8572   27.0075   33.6136 H   0  0  0  0  0  0  0  0  0  0  0  0
   37.8462   27.2849   31.3603 H   0  0  0  0  0  0  0  0  0  0  0  0
   41.9175   28.4792   31.1948 H   0  0  0  0  0  0  0  0  0  0  0  0
   44.4359   28.5871   31.0250 H   0  0  0  0  0  0  0  0  0  0  0  0
   44.8546   26.4706   34.6812 H   0  0  0  0  0  0  0  0  0  0  0  0
   38.7322   27.4751   36.7122 H   0  0  0  0  0  0  0  0  0  0  0  0
   37.0936   27.1794   35.9619 H   0  0  0  0  0  0  0  0  0  0  0  0
   38.3220   22.2183   35.3740 H   0  0  0  0  0  0  0  0  0  0  0  0
   38.3072   24.5830   34.5022 H   0  0  0  0  0  0  0  0  0  0  0  0
   38.0353   23.6339   39.3178 H   0  0  0  0  0  0  0  0  0  0  0  0
  1 13  1  0
  2  1  2  0
  3  2  1  0
  4  3  2  0
  4  5  1  0
  5  6  2  0
  6  1  1  0
  7  5  1  0
  7 12  1  0
  8  7  2  0
  9  8  1  0
  9 10  2  0
 10 11  1  0
 11 12  2  0
 13 16  1  0
 14 19  2  0
 15 14  1  0
 15 16  2  0
 16 17  1  0
 17 18  2  0
 19 18  1  0
  2 20  1  0
  3 21  1  0
  8 22  1  0
  9 23  1  0
 11 24  1  0
 13 25  1  0
 13 26  1  0
 14 27  1  0
 15 28  1  0
 18 29  1  0
M  ISO  8  20  14  21  14  22  14  23  14  24  14  25   8  26   8  27  14
M  ISO  2  28  14  29  14
M  END
>  <minimizedAffinity>  (1) 
-4.17842054

>  <minimizedRMSD>  (1) 
1.31623542

$$$$
