
     RDKit          3D

 30 32  0  0  0  0  0  0  0  0999 V2000
   38.4710   26.9250   35.6270 C   0  0  0  0  0  0  0  0  0  0  0  0
   39.4240   26.9850   34.5020 C   0  0  0  0  0  0  0  0  0  0  0  0
   40.7160   26.7830   34.8280 N   0  0  0  0  0  0  0  0  0  0  0  0
   41.7150   26.7860   33.9340 C   0  0  0  0  0  0  0  0  0  0  0  0
   41.4050   27.0040   32.6350 N   0  0  0  0  0  0  0  0  0  0  0  0
   40.1070   27.2090   32.2890 C   0  0  0  0  0  0  0  0  0  0  0  0
   39.8390   27.4300   30.9540 C   0  0  0  0  0  0  0  0  0  0  0  0
   38.5210   27.6460   30.5850 C   0  0  0  0  0  0  0  0  0  0  0  0
   37.5130   27.6360   31.5340 C   0  0  0  0  0  0  0  0  0  0  0  0
   37.7640   27.4170   32.8740 C   0  0  0  0  0  0  0  0  0  0  0  0
   39.0770   27.2090   33.1900 C   0  0  0  0  0  0  0  0  0  0  0  0
   37.6750   25.6630   35.6710 C   0  0  0  0  0  0  0  0  0  0  0  0
   39.9250   22.9160   36.7770 C   0  0  0  0  0  0  0  0  0  0  0  0
   39.5980   22.7890   38.1520 C   0  0  0  0  0  0  0  0  0  0  0  0
   38.6110   23.6600   38.6590 C   0  0  0  0  0  0  0  0  0  0  0  0
   38.0270   24.5740   37.7980 N   0  0  0  0  0  0  0  0  0  0  0  0
   38.3870   24.6350   36.5120 C   0  0  0  0  0  0  0  0  0  0  0  0
   39.3110   23.8350   35.9920 N   0  0  0  0  0  0  0  0  0  0  0  0
   37.7748   27.7720   35.5382 H   0  0  0  0  0  0  0  0  0  0  0  0
   39.0632   26.9646   36.5531 H   0  0  0  0  0  0  0  0  0  0  0  0
   42.7557   26.6163   34.2471 H   0  0  0  0  0  0  0  0  0  0  0  0
   40.6458   27.4346   30.2063 H   0  0  0  0  0  0  0  0  0  0  0  0
   38.2734   27.8270   29.5286 H   0  0  0  0  0  0  0  0  0  0  0  0
   36.4763   27.8085   31.2093 H   0  0  0  0  0  0  0  0  0  0  0  0
   36.9660   27.4105   33.6311 H   0  0  0  0  0  0  0  0  0  0  0  0
   36.6869   25.8703   36.1078 H   0  0  0  0  0  0  0  0  0  0  0  0
   37.5563   25.2745   34.6487 H   0  0  0  0  0  0  0  0  0  0  0  0
   40.6901   22.2572   36.3404 H   0  0  0  0  0  0  0  0  0  0  0  0
   40.0921   22.0447   38.7938 H   0  0  0  0  0  0  0  0  0  0  0  0
   38.3114   23.6141   39.7164 H   0  0  0  0  0  0  0  0  0  0  0  0
  1 12  1  0
  2  3  2  0
  2  1  1  0
  4  3  1  0
  5  4  2  0
  6  5  1  0
  6 11  2  0
  7  6  1  0
  8  7  2  0
  8  9  1  0
  9 10  2  0
 10 11  1  0
 11  2  1  0
 12 17  1  0
 13 14  2  0
 14 15  1  0
 16 15  2  0
 17 16  1  0
 18 17  2  0
 18 13  1  0
  1 19  1  0
  1 20  1  0
  4 21  1  0
  7 22  1  0
  8 23  1  0
  9 24  1  0
 10 25  1  0
 12 26  1  0
 12 27  1  0
 13 28  1  0
 14 29  1  0
 15 30  1  0
M  ISO  8  19   8  20   8  21  14  22  14  23  14  24  14  25  14  26   8
M  ISO  4  27   8  28  14  29  14  30  14
M  END
>  <minimizedAffinity>  (1) 
-4.76189899

>  <minimizedRMSD>  (1) 
1.48668921

$$$$
