
     RDKit          3D

 24 25  0  0  0  0  0  0  0  0999 V2000
   38.1980   26.9190   35.8920 C   0  0  0  0  0  0  0  0  0  0  0  0
   38.0410   23.1460   36.2100 C   0  0  0  0  0  0  0  0  0  0  0  0
   38.1090   24.4220   35.6260 C   0  0  0  0  0  0  0  0  0  0  0  0
   38.1270   25.5500   36.4720 C   0  0  0  0  0  0  0  0  0  0  0  0
   38.0780   25.3230   37.8330 N   0  0  0  0  0  0  0  0  0  0  0  0
   38.0130   24.0880   38.3420 C   0  0  0  0  0  0  0  0  0  0  0  0
   37.9950   23.0100   37.5440 N   0  0  0  0  0  0  0  0  0  0  0  0
   39.0340   27.0010   34.6720 C   0  0  0  0  0  0  0  0  0  0  0  0
   38.5180   27.1080   33.4120 C   0  0  0  0  0  0  0  0  0  0  0  0
   39.3000   27.1850   32.2650 C   0  0  0  0  0  0  0  0  0  0  0  0
   40.6390   27.1510   32.4400 N   0  0  0  0  0  0  0  0  0  0  0  0
   41.1680   27.0470   33.6650 C   0  0  0  0  0  0  0  0  0  0  0  0
   40.3910   26.9750   34.7410 N   0  0  0  0  0  0  0  0  0  0  0  0
   42.6490   27.0120   33.8180 C   0  0  0  0  0  0  0  0  0  0  0  0
   37.1780   27.2427   35.6375 H   0  0  0  0  0  0  0  0  0  0  0  0
   38.6648   27.5671   36.6483 H   0  0  0  0  0  0  0  0  0  0  0  0
   38.0254   22.2522   35.5691 H   0  0  0  0  0  0  0  0  0  0  0  0
   38.1474   24.5386   34.5329 H   0  0  0  0  0  0  0  0  0  0  0  0
   37.9736   23.9540   39.4331 H   0  0  0  0  0  0  0  0  0  0  0  0
   37.4242   27.1347   33.2985 H   0  0  0  0  0  0  0  0  0  0  0  0
   38.8506   27.2694   31.2646 H   0  0  0  0  0  0  0  0  0  0  0  0
   42.9071   27.0059   34.8873 H   0  0  0  0  0  0  0  0  0  0  0  0
   43.0457   26.1042   33.3399 H   0  0  0  0  0  0  0  0  0  0  0  0
   43.0881   27.9000   33.3399 H   0  0  0  0  0  0  0  0  0  0  0  0
  1  4  1  0
  2  7  2  0
  3  2  1  0
  3  4  2  0
  4  5  1  0
  5  6  2  0
  7  6  1  0
  8 13  1  0
  8  1  1  0
  9  8  2  0
 10 11  2  0
 10  9  1  0
 11 12  1  0
 12 14  1  0
 12 13  2  0
  1 15  1  0
  1 16  1  0
  2 17  1  0
  3 18  1  0
  6 19  1  0
  9 20  1  0
 10 21  1  0
 14 22  1  0
 14 23  1  0
 14 24  1  0
M  ISO  8  15   8  16   8  17  14  18  14  19  14  20  14  21  14  22   8
M  ISO  2  23   8  24   8
M  END
>  <minimizedAffinity>  (1) 
-3.71986389

>  <minimizedRMSD>  (1) 
0.27450648

$$$$
