
     RDKit          3D

 29 31  0  0  0  0  0  0  0  0999 V2000
   38.5430   26.2970   34.7700 C   0  0  0  0  0  0  0  0  0  0  0  0
   38.0390   26.9950   33.6360 N   0  0  0  0  0  0  0  0  0  0  0  0
   38.5900   26.8680   32.3950 C   0  0  0  0  0  0  0  0  0  0  0  0
   37.9300   27.6300   31.5040 N   0  0  0  0  0  0  0  0  0  0  0  0
   36.9430   28.2660   32.1500 C   0  0  0  0  0  0  0  0  0  0  0  0
   35.9460   29.1660   31.7890 C   0  0  0  0  0  0  0  0  0  0  0  0
   35.0940   29.6130   32.7370 N   0  0  0  0  0  0  0  0  0  0  0  0
   35.1870   29.2060   34.0270 C   0  0  0  0  0  0  0  0  0  0  0  0
   36.1580   28.3250   34.3980 N   0  0  0  0  0  0  0  0  0  0  0  0
   37.0230   27.8610   33.4730 C   0  0  0  0  0  0  0  0  0  0  0  0
   35.8700   29.5760   30.4270 N   0  0  0  0  0  0  0  0  0  0  0  0
   38.3830   24.7990   34.7190 C   0  0  0  0  0  0  0  0  0  0  0  0
   39.7260   22.8230   37.5700 C   0  0  0  0  0  0  0  0  0  0  0  0
   38.9260   23.2720   38.6510 C   0  0  0  0  0  0  0  0  0  0  0  0
   37.9300   24.2530   38.3760 C   0  0  0  0  0  0  0  0  0  0  0  0
   37.8240   24.6940   37.0710 N   0  0  0  0  0  0  0  0  0  0  0  0
   38.6150   24.2270   36.0950 C   0  0  0  0  0  0  0  0  0  0  0  0
   39.5540   23.3050   36.3370 N   0  0  0  0  0  0  0  0  0  0  0  0
   39.6158   26.5227   34.8605 H   0  0  0  0  0  0  0  0  0  0  0  0
   37.9503   26.6403   35.6307 H   0  0  0  0  0  0  0  0  0  0  0  0
   39.4542   26.2309   32.1557 H   0  0  0  0  0  0  0  0  0  0  0  0
   34.4771   29.5878   34.7756 H   0  0  0  0  0  0  0  0  0  0  0  0
   35.1424   30.2415   30.1293 H   0  0  0  0  0  0  0  0  0  0  0  0
   36.5426   29.2069   29.7398 H   0  0  0  0  0  0  0  0  0  0  0  0
   37.3656   24.5491   34.3837 H   0  0  0  0  0  0  0  0  0  0  0  0
   39.1131   24.3737   34.0147 H   0  0  0  0  0  0  0  0  0  0  0  0
   40.5018   22.0644   37.7504 H   0  0  0  0  0  0  0  0  0  0  0  0
   39.0694   22.8765   39.6674 H   0  0  0  0  0  0  0  0  0  0  0  0
   37.2739   24.6424   39.1684 H   0  0  0  0  0  0  0  0  0  0  0  0
  2  1  1  0
  3  2  1  0
  4  5  1  0
  4  3  2  0
  5 10  2  0
  6  5  1  0
  6  7  2  0
  7  8  1  0
  8  9  2  0
 10  2  1  0
 10  9  1  0
 11  6  1  0
 12  1  1  0
 12 17  1  0
 13 14  2  0
 15 14  1  0
 16 15  2  0
 17 18  2  0
 17 16  1  0
 18 13  1  0
  1 19  1  0
  1 20  1  0
  3 21  1  0
  8 22  1  0
 11 23  1  0
 11 24  1  0
 12 25  1  0
 12 26  1  0
 13 27  1  0
 14 28  1  0
 15 29  1  0
M  ISO  8  19   8  20   8  21  14  22  14  25   8  26   8  27  14  28  14
M  ISO  1  29  14
M  END
>  <minimizedAffinity>  (1) 
-4.62296295

>  <minimizedRMSD>  (1) 
2.65320396

$$$$
