
     RDKit          3D

 39 42  0  0  0  0  0  0  0  0999 V2000
   37.4960   25.0750   32.4360 C   0  0  0  0  0  0  0  0  0  0  0  0
   36.5640   25.9230   31.9160 C   0  0  0  0  0  0  0  0  0  0  0  0
   35.4660   25.5120   31.2090 C   0  0  0  0  0  0  0  0  0  0  0  0
   35.2980   24.1800   31.0160 N   0  0  0  0  0  0  0  0  0  0  0  0
   36.1920   23.3030   31.5110 C   0  0  0  0  0  0  0  0  0  0  0  0
   37.2510   23.7430   32.1950 N   0  0  0  0  0  0  0  0  0  0  0  0
   36.1380   21.8840   31.3820 N   0  0  0  0  0  0  0  0  0  0  0  0
   37.1000   21.3920   30.5300 C   0  0  0  0  0  0  0  0  0  0  0  0
   37.1850   20.0280   30.2950 C   0  0  0  0  0  0  0  0  0  0  0  0
   36.2980   19.2120   30.9250 C   0  0  0  0  0  0  0  0  0  0  0  0
   36.3840   17.8230   30.6850 N   0  0  0  0  0  0  0  0  0  0  0  0
   35.3800   19.7170   31.7430 N   0  0  0  0  0  0  0  0  0  0  0  0
   35.2940   21.0340   31.9740 C   0  0  0  0  0  0  0  0  0  0  0  0
   34.4750   21.6110   32.7180 O   0  0  0  0  0  0  0  0  0  0  0  0
   38.6860   25.4880   33.2000 C   0  0  0  0  0  0  0  0  0  0  0  0
   37.9120   24.5630   36.8140 C   0  0  0  0  0  0  0  0  0  0  0  0
   37.8140   25.1630   35.5260 C   0  0  0  0  0  0  0  0  0  0  0  0
   38.7600   24.8730   34.5660 C   0  0  0  0  0  0  0  0  0  0  0  0
   39.7590   24.0010   34.9220 N   0  0  0  0  0  0  0  0  0  0  0  0
   39.8300   23.4560   36.1240 C   0  0  0  0  0  0  0  0  0  0  0  0
   38.9250   23.7250   37.0670 N   0  0  0  0  0  0  0  0  0  0  0  0
   40.9190   22.5500   36.4050 N   0  0  0  0  0  0  0  0  0  0  0  0
   42.0220   22.4030   35.6900 N   0  0  0  0  0  0  0  0  0  0  0  0
   42.8360   21.4780   36.2220 C   0  0  0  0  0  0  0  0  0  0  0  0
   42.1590   21.0420   37.3450 C   0  0  0  0  0  0  0  0  0  0  0  0
   40.9580   21.7140   37.4600 C   0  0  0  0  0  0  0  0  0  0  0  0
   36.7025   27.0028   32.0740 H   0  0  0  0  0  0  0  0  0  0  0  0
   34.7431   26.2389   30.8102 H   0  0  0  0  0  0  0  0  0  0  0  0
   37.8012   22.0803   30.0356 H   0  0  0  0  0  0  0  0  0  0  0  0
   37.9486   19.6175   29.6179 H   0  0  0  0  0  0  0  0  0  0  0  0
   35.7265   17.1788   31.1472 H   0  0  0  0  0  0  0  0  0  0  0  0
   37.1042   17.4541   30.0477 H   0  0  0  0  0  0  0  0  0  0  0  0
   39.5826   25.1924   32.6355 H   0  0  0  0  0  0  0  0  0  0  0  0
   38.6216   26.5775   33.3375 H   0  0  0  0  0  0  0  0  0  0  0  0
   37.1653   24.7852   37.5906 H   0  0  0  0  0  0  0  0  0  0  0  0
   36.9885   25.8536   35.2986 H   0  0  0  0  0  0  0  0  0  0  0  0
   43.8158   21.1440   35.8500 H   0  0  0  0  0  0  0  0  0  0  0  0
   42.5226   20.2739   38.0435 H   0  0  0  0  0  0  0  0  0  0  0  0
   40.1968   21.5925   38.2447 H   0  0  0  0  0  0  0  0  0  0  0  0
  1 15  1  0
  2  1  2  0
  3  2  1  0
  4  3  2  0
  4  5  1  0
  5  6  2  0
  6  1  1  0
  7  5  1  0
  7 13  1  0
  8  7  1  0
  9  8  2  0
  9 10  1  0
 10 12  2  0
 11 10  1  0
 12 13  1  0
 13 14  2  0
 15 18  1  0
 16 21  2  0
 17 16  1  0
 18 19  1  0
 18 17  2  0
 19 20  2  0
 20 22  1  0
 20 21  1  0
 22 26  1  0
 23 24  2  0
 23 22  1  0
 24 25  1  0
 25 26  2  0
  2 27  1  0
  3 28  1  0
  8 29  1  0
  9 30  1  0
 11 31  1  0
 11 32  1  0
 15 33  1  0
 15 34  1  0
 16 35  1  0
 17 36  1  0
 24 37  1  0
 25 38  1  0
 26 39  1  0
M  ISO  8  27  14  28  14  29  14  30  14  33   8  34   8  35  14  36  14
M  ISO  3  37  14  38  14  39  14
M  END
>  <minimizedAffinity>  (1) 
-6.04393911

>  <minimizedRMSD>  (1) 
1.56941009

$$$$
