
     RDKit          3D

 39 42  0  0  0  0  0  0  0  0999 V2000
   37.5520   24.9180   32.6160 C   0  0  0  0  0  0  0  0  0  0  0  0
   36.6430   25.8110   32.1090 C   0  0  0  0  0  0  0  0  0  0  0  0
   35.5650   25.4410   31.3510 C   0  0  0  0  0  0  0  0  0  0  0  0
   35.3910   24.1240   31.0920 N   0  0  0  0  0  0  0  0  0  0  0  0
   36.2610   23.2220   31.5720 C   0  0  0  0  0  0  0  0  0  0  0  0
   37.3120   23.6060   32.3120 N   0  0  0  0  0  0  0  0  0  0  0  0
   36.2000   21.8020   31.3750 N   0  0  0  0  0  0  0  0  0  0  0  0
   37.1820   21.3440   30.5320 C   0  0  0  0  0  0  0  0  0  0  0  0
   37.2550   19.9910   30.2430 C   0  0  0  0  0  0  0  0  0  0  0  0
   36.3430   19.1520   30.8090 C   0  0  0  0  0  0  0  0  0  0  0  0
   36.4280   17.7770   30.5080 N   0  0  0  0  0  0  0  0  0  0  0  0
   35.4070   19.6310   31.6200 N   0  0  0  0  0  0  0  0  0  0  0  0
   35.3260   20.9370   31.9070 C   0  0  0  0  0  0  0  0  0  0  0  0
   34.4940   21.4920   32.6490 O   0  0  0  0  0  0  0  0  0  0  0  0
   38.7300   25.2830   33.4390 C   0  0  0  0  0  0  0  0  0  0  0  0
   37.8920   24.0950   36.9570 C   0  0  0  0  0  0  0  0  0  0  0  0
   37.8100   24.7930   35.7230 C   0  0  0  0  0  0  0  0  0  0  0  0
   38.7770   24.5680   34.7580 C   0  0  0  0  0  0  0  0  0  0  0  0
   39.7850   23.6700   35.0380 N   0  0  0  0  0  0  0  0  0  0  0  0
   39.8150   23.0370   36.2210 C   0  0  0  0  0  0  0  0  0  0  0  0
   38.8840   23.2430   37.1690 N   0  0  0  0  0  0  0  0  0  0  0  0
   40.9100   22.0960   36.4580 C   0  0  0  0  0  0  0  0  0  0  0  0
   41.4250   21.5000   37.5940 C   0  0  0  0  0  0  0  0  0  0  0  0
   42.4800   20.6950   37.1450 C   0  0  0  0  0  0  0  0  0  0  0  0
   42.5330   20.8600   35.7650 C   0  0  0  0  0  0  0  0  0  0  0  0
   41.5880   21.6940   35.4050 O   0  0  0  0  0  0  0  0  0  0  0  0
   36.7878   26.8803   32.3226 H   0  0  0  0  0  0  0  0  0  0  0  0
   34.8607   26.1920   30.9637 H   0  0  0  0  0  0  0  0  0  0  0  0
   37.9048   22.0454   30.0897 H   0  0  0  0  0  0  0  0  0  0  0  0
   38.0335   19.6021   29.5702 H   0  0  0  0  0  0  0  0  0  0  0  0
   35.7532   17.1169   30.9201 H   0  0  0  0  0  0  0  0  0  0  0  0
   37.1649   17.4327   29.8761 H   0  0  0  0  0  0  0  0  0  0  0  0
   39.6408   25.0346   32.8745 H   0  0  0  0  0  0  0  0  0  0  0  0
   38.6564   26.3592   33.6541 H   0  0  0  0  0  0  0  0  0  0  0  0
   37.1330   24.2615   37.7356 H   0  0  0  0  0  0  0  0  0  0  0  0
   36.9901   25.5022   35.5365 H   0  0  0  0  0  0  0  0  0  0  0  0
   41.0798   21.6302   38.6303 H   0  0  0  0  0  0  0  0  0  0  0  0
   43.1347   20.0602   37.7601 H   0  0  0  0  0  0  0  0  0  0  0  0
   43.2492   20.3716   35.0879 H   0  0  0  0  0  0  0  0  0  0  0  0
  1 15  1  0
  2  1  2  0
  3  2  1  0
  4  3  2  0
  4  5  1  0
  5  6  2  0
  6  1  1  0
  7  5  1  0
  7 13  1  0
  8  7  1  0
  9  8  2  0
  9 10  1  0
 10 12  2  0
 11 10  1  0
 12 13  1  0
 13 14  2  0
 15 18  1  0
 16 21  2  0
 17 16  1  0
 18 19  1  0
 18 17  2  0
 19 20  2  0
 20 22  1  0
 20 21  1  0
 22 23  2  0
 24 23  1  0
 25 24  2  0
 26 25  1  0
 26 22  1  0
  2 27  1  0
  3 28  1  0
  8 29  1  0
  9 30  1  0
 11 31  1  0
 11 32  1  0
 15 33  1  0
 15 34  1  0
 16 35  1  0
 17 36  1  0
 23 37  1  0
 24 38  1  0
 25 39  1  0
M  ISO  8  27  14  28  14  29  14  30  14  33   8  34   8  35  14  36  14
M  ISO  3  37  14  38  14  39  14
M  END
>  <minimizedAffinity>  (1) 
-5.90034103

>  <minimizedRMSD>  (1) 
1.50026608

$$$$
