
     RDKit          3D

 39 42  0  0  0  0  0  0  0  0999 V2000
   37.5990   25.3130   32.8680 C   0  0  0  0  0  0  0  0  0  0  0  0
   36.7560   26.2200   32.2920 C   0  0  0  0  0  0  0  0  0  0  0  0
   35.7470   25.8820   31.4290 C   0  0  0  0  0  0  0  0  0  0  0  0
   35.5810   24.5790   31.1350 N   0  0  0  0  0  0  0  0  0  0  0  0
   36.3820   23.6470   31.6740 C   0  0  0  0  0  0  0  0  0  0  0  0
   37.3550   24.0050   32.5100 N   0  0  0  0  0  0  0  0  0  0  0  0
   36.3100   22.2390   31.4450 N   0  0  0  0  0  0  0  0  0  0  0  0
   37.3540   21.7770   30.6900 C   0  0  0  0  0  0  0  0  0  0  0  0
   37.4230   20.4190   30.3800 C   0  0  0  0  0  0  0  0  0  0  0  0
   36.4420   19.5990   30.8440 C   0  0  0  0  0  0  0  0  0  0  0  0
   36.5320   18.2200   30.5170 N   0  0  0  0  0  0  0  0  0  0  0  0
   35.4400   20.0830   31.5770 N   0  0  0  0  0  0  0  0  0  0  0  0
   35.3660   21.3800   31.8780 C   0  0  0  0  0  0  0  0  0  0  0  0
   34.4830   21.9410   32.5500 O   0  0  0  0  0  0  0  0  0  0  0  0
   38.6910   25.6390   33.7970 C   0  0  0  0  0  0  0  0  0  0  0  0
   37.8010   24.0790   37.1580 C   0  0  0  0  0  0  0  0  0  0  0  0
   37.7490   24.9140   36.0010 C   0  0  0  0  0  0  0  0  0  0  0  0
   38.7300   24.7750   35.0130 C   0  0  0  0  0  0  0  0  0  0  0  0
   39.7070   23.8200   35.2250 N   0  0  0  0  0  0  0  0  0  0  0  0
   39.7110   23.0720   36.3150 C   0  0  0  0  0  0  0  0  0  0  0  0
   38.7870   23.1820   37.2730 N   0  0  0  0  0  0  0  0  0  0  0  0
   40.8030   22.1560   36.3300 N   0  0  0  0  0  0  0  0  0  0  0  0
   41.2840   21.7750   37.5430 C   0  0  0  0  0  0  0  0  0  0  0  0
   42.3230   20.8980   37.2700 C   0  0  0  0  0  0  0  0  0  0  0  0
   42.4520   20.7650   35.9400 N   0  0  0  0  0  0  0  0  0  0  0  0
   41.5130   21.5410   35.3670 C   0  0  0  0  0  0  0  0  0  0  0  0
   36.8952   27.2837   32.5351 H   0  0  0  0  0  0  0  0  0  0  0  0
   35.0936   26.6507   30.9905 H   0  0  0  0  0  0  0  0  0  0  0  0
   38.1301   22.4692   30.3317 H   0  0  0  0  0  0  0  0  0  0  0  0
   38.2508   20.0207   29.7749 H   0  0  0  0  0  0  0  0  0  0  0  0
   35.8102   17.5640   30.8481 H   0  0  0  0  0  0  0  0  0  0  0  0
   37.3191   17.8758   29.9487 H   0  0  0  0  0  0  0  0  0  0  0  0
   39.6456   25.5270   33.2620 H   0  0  0  0  0  0  0  0  0  0  0  0
   38.5184   26.6688   34.1430 H   0  0  0  0  0  0  0  0  0  0  0  0
   37.0391   24.1721   37.9459 H   0  0  0  0  0  0  0  0  0  0  0  0
   36.9469   25.6581   35.8876 H   0  0  0  0  0  0  0  0  0  0  0  0
   40.9249   22.0948   38.5323 H   0  0  0  0  0  0  0  0  0  0  0  0
   42.9435   20.3913   38.0239 H   0  0  0  0  0  0  0  0  0  0  0  0
   41.3521   21.6541   34.2847 H   0  0  0  0  0  0  0  0  0  0  0  0
  1 15  1  0
  2  1  2  0
  3  2  1  0
  4  3  2  0
  4  5  1  0
  5  6  2  0
  6  1  1  0
  7  5  1  0
  7 13  1  0
  8  7  1  0
  9  8  2  0
  9 10  1  0
 10 12  2  0
 11 10  1  0
 12 13  1  0
 13 14  2  0
 15 18  1  0
 16 21  2  0
 17 16  1  0
 18 19  1  0
 18 17  2  0
 19 20  2  0
 20 22  1  0
 20 21  1  0
 22 23  1  0
 24 23  2  0
 25 24  1  0
 26 25  2  0
 26 22  1  0
  2 27  1  0
  3 28  1  0
  8 29  1  0
  9 30  1  0
 11 31  1  0
 11 32  1  0
 15 33  1  0
 15 34  1  0
 16 35  1  0
 17 36  1  0
 23 37  1  0
 24 38  1  0
 26 39  1  0
M  ISO  8  27  14  28  14  29  14  30  14  33   8  34   8  35  14  36  14
M  ISO  3  37  14  38  14  39  14
M  END
>  <minimizedAffinity>  (1) 
-5.8935647

>  <minimizedRMSD>  (1) 
1.40348709

$$$$
