
     RDKit          3D

 37 40  0  0  0  0  0  0  0  0999 V2000
   37.5200   24.9790   32.5140 C   0  0  0  0  0  0  0  0  0  0  0  0
   36.6120   25.8460   31.9960 C   0  0  0  0  0  0  0  0  0  0  0  0
   35.5250   25.4590   31.2520 C   0  0  0  0  0  0  0  0  0  0  0  0
   35.3530   24.1400   31.0240 N   0  0  0  0  0  0  0  0  0  0  0  0
   36.2320   23.2520   31.5220 C   0  0  0  0  0  0  0  0  0  0  0  0
   37.2840   23.6550   32.2440 N   0  0  0  0  0  0  0  0  0  0  0  0
   36.1700   21.8300   31.3560 N   0  0  0  0  0  0  0  0  0  0  0  0
   37.1500   21.3520   30.5150 C   0  0  0  0  0  0  0  0  0  0  0  0
   37.2270   20.0000   30.2510 C   0  0  0  0  0  0  0  0  0  0  0  0
   36.3160   19.1700   30.8430 C   0  0  0  0  0  0  0  0  0  0  0  0
   36.4060   17.7860   30.5660 N   0  0  0  0  0  0  0  0  0  0  0  0
   35.3750   19.6570   31.6560 N   0  0  0  0  0  0  0  0  0  0  0  0
   35.3020   20.9770   31.9120 C   0  0  0  0  0  0  0  0  0  0  0  0
   34.4750   21.5430   32.6460 O   0  0  0  0  0  0  0  0  0  0  0  0
   38.7010   25.3710   33.3200 C   0  0  0  0  0  0  0  0  0  0  0  0
   37.8880   24.4130   36.9040 C   0  0  0  0  0  0  0  0  0  0  0  0
   37.8110   25.0490   35.6270 C   0  0  0  0  0  0  0  0  0  0  0  0
   38.7550   24.7260   34.6580 C   0  0  0  0  0  0  0  0  0  0  0  0
   39.7250   23.7980   34.9910 N   0  0  0  0  0  0  0  0  0  0  0  0
   39.7600   23.2330   36.1890 C   0  0  0  0  0  0  0  0  0  0  0  0
   38.8520   23.5310   37.1460 N   0  0  0  0  0  0  0  0  0  0  0  0
   40.7840   22.2520   36.5400 C   0  0  0  0  0  0  0  0  0  0  0  0
   41.0850   21.7040   37.7300 N   0  0  0  0  0  0  0  0  0  0  0  0
   42.0810   20.8630   37.6060 O   0  0  0  0  0  0  0  0  0  0  0  0
   42.4680   20.8300   36.3360 C   0  0  0  0  0  0  0  0  0  0  0  0
   41.6610   21.6980   35.6630 N   0  0  0  0  0  0  0  0  0  0  0  0
   36.7558   26.9203   32.1834 H   0  0  0  0  0  0  0  0  0  0  0  0
   34.8166   26.2006   30.8543 H   0  0  0  0  0  0  0  0  0  0  0  0
   37.8691   22.0458   30.0552 H   0  0  0  0  0  0  0  0  0  0  0  0
   38.0021   19.5998   29.5809 H   0  0  0  0  0  0  0  0  0  0  0  0
   35.7367   17.1305   30.9941 H   0  0  0  0  0  0  0  0  0  0  0  0
   37.1408   17.4336   29.9362 H   0  0  0  0  0  0  0  0  0  0  0  0
   39.6083   25.0926   32.7639 H   0  0  0  0  0  0  0  0  0  0  0  0
   38.6274   26.4553   33.4898 H   0  0  0  0  0  0  0  0  0  0  0  0
   37.1512   24.6528   37.6848 H   0  0  0  0  0  0  0  0  0  0  0  0
   37.0187   25.7816   35.4138 H   0  0  0  0  0  0  0  0  0  0  0  0
   43.2800   20.2218   35.9109 H   0  0  0  0  0  0  0  0  0  0  0  0
  1 15  1  0
  2  1  2  0
  3  2  1  0
  4  3  2  0
  4  5  1  0
  5  6  2  0
  6  1  1  0
  7  5  1  0
  7 13  1  0
  8  7  1  0
  9  8  2  0
  9 10  1  0
 10 12  2  0
 11 10  1  0
 12 13  1  0
 13 14  2  0
 15 18  1  0
 16 21  2  0
 17 16  1  0
 18 19  1  0
 18 17  2  0
 19 20  2  0
 20 22  1  0
 20 21  1  0
 22 23  2  0
 24 23  1  0
 25 24  1  0
 26 25  2  0
 26 22  1  0
  2 27  1  0
  3 28  1  0
  8 29  1  0
  9 30  1  0
 11 31  1  0
 11 32  1  0
 15 33  1  0
 15 34  1  0
 16 35  1  0
 17 36  1  0
 25 37  1  0
M  ISO  8  27  14  28  14  29  14  30  14  33   8  34   8  35  14  36  14
M  ISO  1  37  14
M  END
>  <minimizedAffinity>  (1) 
-5.81587029

>  <minimizedRMSD>  (1) 
1.53598809

$$$$
