
     RDKit          3D

 38 40  0  0  0  0  0  0  0  0999 V2000
   38.0040   24.6470   33.1070 C   0  0  0  0  0  0  0  0  0  0  0  0
   37.1880   25.6510   32.6780 C   0  0  0  0  0  0  0  0  0  0  0  0
   36.0960   25.4440   31.8620 C   0  0  0  0  0  0  0  0  0  0  0  0
   35.8330   24.1780   31.4730 N   0  0  0  0  0  0  0  0  0  0  0  0
   36.6130   23.1640   31.8740 C   0  0  0  0  0  0  0  0  0  0  0  0
   37.6630   23.3990   32.6660 N   0  0  0  0  0  0  0  0  0  0  0  0
   36.4460   21.7890   31.5380 N   0  0  0  0  0  0  0  0  0  0  0  0
   37.4070   21.3340   30.6740 C   0  0  0  0  0  0  0  0  0  0  0  0
   37.3840   20.0070   30.2470 C   0  0  0  0  0  0  0  0  0  0  0  0
   36.3860   19.1980   30.7140 C   0  0  0  0  0  0  0  0  0  0  0  0
   36.3750   17.8560   30.2740 N   0  0  0  0  0  0  0  0  0  0  0  0
   35.4710   19.6680   31.5510 N   0  0  0  0  0  0  0  0  0  0  0  0
   35.4980   20.9450   31.9580 C   0  0  0  0  0  0  0  0  0  0  0  0
   34.6840   21.4940   32.7440 O   0  0  0  0  0  0  0  0  0  0  0  0
   39.1760   24.8440   33.9790 C   0  0  0  0  0  0  0  0  0  0  0  0
   37.7760   24.1130   37.4430 C   0  0  0  0  0  0  0  0  0  0  0  0
   37.9170   24.6590   36.1360 C   0  0  0  0  0  0  0  0  0  0  0  0
   39.0130   24.2790   35.3540 C   0  0  0  0  0  0  0  0  0  0  0  0
   39.9100   23.3790   35.9060 N   0  0  0  0  0  0  0  0  0  0  0  0
   39.7260   22.9050   37.1280 C   0  0  0  0  0  0  0  0  0  0  0  0
   38.6810   23.2580   37.8950 N   0  0  0  0  0  0  0  0  0  0  0  0
   40.7850   21.9470   37.5680 C   0  0  0  0  0  0  0  0  0  0  0  0
   42.0310   22.0510   36.7370 C   0  0  0  0  0  0  0  0  0  0  0  0
   37.4121   26.6789   32.9992 H   0  0  0  0  0  0  0  0  0  0  0  0
   35.4606   26.2818   31.5389 H   0  0  0  0  0  0  0  0  0  0  0  0
   38.1949   22.0141   30.3180 H   0  0  0  0  0  0  0  0  0  0  0  0
   38.1469   19.6221   29.5543 H   0  0  0  0  0  0  0  0  0  0  0  0
   35.6405   17.2126   30.6017 H   0  0  0  0  0  0  0  0  0  0  0  0
   37.1015   17.5207   29.6254 H   0  0  0  0  0  0  0  0  0  0  0  0
   40.0437   24.3601   33.5068 H   0  0  0  0  0  0  0  0  0  0  0  0
   39.3076   25.9300   34.0947 H   0  0  0  0  0  0  0  0  0  0  0  0
   36.9212   24.3992   38.0734 H   0  0  0  0  0  0  0  0  0  0  0  0
   37.1740   25.3703   35.7460 H   0  0  0  0  0  0  0  0  0  0  0  0
   41.0407   22.1600   38.6165 H   0  0  0  0  0  0  0  0  0  0  0  0
   40.3866   20.9286   37.4495 H   0  0  0  0  0  0  0  0  0  0  0  0
   42.9074   22.1241   37.3978 H   0  0  0  0  0  0  0  0  0  0  0  0
   42.1240   21.1575   36.1022 H   0  0  0  0  0  0  0  0  0  0  0  0
   41.9746   22.9476   36.1022 H   0  0  0  0  0  0  0  0  0  0  0  0
  1 15  1  0
  2  1  2  0
  3  2  1  0
  4  3  2  0
  4  5  1  0
  5  6  2  0
  6  1  1  0
  7  5  1  0
  7 13  1  0
  8  7  1  0
  9  8  2  0
  9 10  1  0
 10 12  2  0
 11 10  1  0
 12 13  1  0
 13 14  2  0
 15 18  1  0
 16 21  2  0
 17 16  1  0
 18 19  1  0
 18 17  2  0
 19 20  2  0
 20 22  1  0
 20 21  1  0
 23 22  1  0
  2 24  1  0
  3 25  1  0
  8 26  1  0
  9 27  1  0
 11 28  1  0
 11 29  1  0
 15 30  1  0
 15 31  1  0
 16 32  1  0
 17 33  1  0
 22 34  1  0
 22 35  1  0
 23 36  1  0
 23 37  1  0
 23 38  1  0
M  ISO  8  24  14  25  14  26  14  27  14  30   8  31   8  32  14  33  14
M  ISO  5  34   8  35   8  36   8  37   8  38   8
M  END
>  <minimizedAffinity>  (1) 
-5.74939728

>  <minimizedRMSD>  (1) 
0.74204874

$$$$
