
     RDKit          3D

 38 41  0  0  0  0  0  0  0  0999 V2000
   37.5300   24.9800   32.5350 C   0  0  0  0  0  0  0  0  0  0  0  0
   36.6190   25.8460   32.0170 C   0  0  0  0  0  0  0  0  0  0  0  0
   35.5310   25.4650   31.2710 C   0  0  0  0  0  0  0  0  0  0  0  0
   35.3570   24.1450   31.0360 N   0  0  0  0  0  0  0  0  0  0  0  0
   36.2420   23.2510   31.5330 C   0  0  0  0  0  0  0  0  0  0  0  0
   37.2890   23.6600   32.2560 N   0  0  0  0  0  0  0  0  0  0  0  0
   36.1810   21.8310   31.3640 N   0  0  0  0  0  0  0  0  0  0  0  0
   37.1570   21.3570   30.5180 C   0  0  0  0  0  0  0  0  0  0  0  0
   37.2250   19.9950   30.2540 C   0  0  0  0  0  0  0  0  0  0  0  0
   36.3180   19.1690   30.8460 C   0  0  0  0  0  0  0  0  0  0  0  0
   36.4030   17.7870   30.5670 N   0  0  0  0  0  0  0  0  0  0  0  0
   35.3950   19.6610   31.6540 N   0  0  0  0  0  0  0  0  0  0  0  0
   35.3150   20.9750   31.9190 C   0  0  0  0  0  0  0  0  0  0  0  0
   34.4860   21.5360   32.6610 O   0  0  0  0  0  0  0  0  0  0  0  0
   38.7030   25.3700   33.3400 C   0  0  0  0  0  0  0  0  0  0  0  0
   37.9170   24.3710   36.9180 C   0  0  0  0  0  0  0  0  0  0  0  0
   37.8370   25.0210   35.6560 C   0  0  0  0  0  0  0  0  0  0  0  0
   38.7620   24.7010   34.6820 C   0  0  0  0  0  0  0  0  0  0  0  0
   39.7270   23.7570   34.9880 N   0  0  0  0  0  0  0  0  0  0  0  0
   39.7600   23.1800   36.1770 C   0  0  0  0  0  0  0  0  0  0  0  0
   38.8700   23.4740   37.1420 N   0  0  0  0  0  0  0  0  0  0  0  0
   40.8660   22.2010   36.3040 C   0  0  0  0  0  0  0  0  0  0  0  0
   41.5610   21.8380   35.1670 C   0  0  0  0  0  0  0  0  0  0  0  0
   42.7980   20.6420   35.7950 S   0  0  0  0  0  0  0  0  0  0  0  0
   42.1240   20.8550   37.5630 C   0  0  0  0  0  0  0  0  0  0  0  0
   41.3000   21.5990   37.3960 N   0  0  0  0  0  0  0  0  0  0  0  0
   36.7626   26.9198   32.2075 H   0  0  0  0  0  0  0  0  0  0  0  0
   34.8237   26.2098   30.8772 H   0  0  0  0  0  0  0  0  0  0  0  0
   37.8759   22.0493   30.0556 H   0  0  0  0  0  0  0  0  0  0  0  0
   37.9956   19.5917   29.5806 H   0  0  0  0  0  0  0  0  0  0  0  0
   35.7337   17.1327   30.9970 H   0  0  0  0  0  0  0  0  0  0  0  0
   37.1342   17.4335   29.9336 H   0  0  0  0  0  0  0  0  0  0  0  0
   39.6121   25.1059   32.7799 H   0  0  0  0  0  0  0  0  0  0  0  0
   38.6226   26.4517   33.5229 H   0  0  0  0  0  0  0  0  0  0  0  0
   37.1901   24.6110   37.7080 H   0  0  0  0  0  0  0  0  0  0  0  0
   37.0519   25.7658   35.4590 H   0  0  0  0  0  0  0  0  0  0  0  0
   41.4085   22.1836   34.1339 H   0  0  0  0  0  0  0  0  0  0  0  0
   42.4536   20.3772   38.4974 H   0  0  0  0  0  0  0  0  0  0  0  0
  1 15  1  0
  2  1  2  0
  3  2  1  0
  4  3  2  0
  4  5  1  0
  5  6  2  0
  6  1  1  0
  7  5  1  0
  7 13  1  0
  8  7  1  0
  9  8  2  0
  9 10  1  0
 10 12  2  0
 11 10  1  0
 12 13  1  0
 13 14  2  0
 15 18  1  0
 16 21  2  0
 17 16  1  0
 18 19  1  0
 18 17  2  0
 19 20  2  0
 20 22  1  0
 20 21  1  0
 22 26  1  0
 23 24  1  0
 23 22  2  0
 24 25  1  0
 26 25  2  0
  2 27  1  0
  3 28  1  0
  8 29  1  0
  9 30  1  0
 11 31  1  0
 11 32  1  0
 15 33  1  0
 15 34  1  0
 16 35  1  0
 17 36  1  0
 23 37  1  0
 25 38  1  0
M  ISO  8  27  14  28  14  29  14  30  14  33   8  34   8  35  14  36  14
M  ISO  2  37  14  38  14
M  END
>  <minimizedAffinity>  (1) 
-5.72543192

>  <minimizedRMSD>  (1) 
1.49218035

$$$$
