
     RDKit          3D

 34 36  0  0  0  0  0  0  0  0999 V2000
   37.9960   24.6710   33.0550 C   0  0  0  0  0  0  0  0  0  0  0  0
   37.1710   25.6550   32.6230 C   0  0  0  0  0  0  0  0  0  0  0  0
   36.0790   25.4410   31.8180 C   0  0  0  0  0  0  0  0  0  0  0  0
   35.8140   24.1740   31.4380 N   0  0  0  0  0  0  0  0  0  0  0  0
   36.6100   23.1670   31.8470 C   0  0  0  0  0  0  0  0  0  0  0  0
   37.6620   23.4160   32.6290 N   0  0  0  0  0  0  0  0  0  0  0  0
   36.4480   21.7780   31.5210 N   0  0  0  0  0  0  0  0  0  0  0  0
   37.4050   21.3230   30.6550 C   0  0  0  0  0  0  0  0  0  0  0  0
   37.3830   19.9980   30.2440 C   0  0  0  0  0  0  0  0  0  0  0  0
   36.3930   19.1850   30.7260 C   0  0  0  0  0  0  0  0  0  0  0  0
   36.3840   17.8450   30.3000 N   0  0  0  0  0  0  0  0  0  0  0  0
   35.4790   19.6600   31.5640 N   0  0  0  0  0  0  0  0  0  0  0  0
   35.5030   20.9400   31.9590 C   0  0  0  0  0  0  0  0  0  0  0  0
   34.6950   21.4930   32.7440 O   0  0  0  0  0  0  0  0  0  0  0  0
   39.1840   24.8670   33.9250 C   0  0  0  0  0  0  0  0  0  0  0  0
   37.8000   24.1340   37.3940 C   0  0  0  0  0  0  0  0  0  0  0  0
   37.9280   24.6800   36.0920 C   0  0  0  0  0  0  0  0  0  0  0  0
   39.0150   24.3100   35.3060 C   0  0  0  0  0  0  0  0  0  0  0  0
   39.9110   23.4240   35.8460 N   0  0  0  0  0  0  0  0  0  0  0  0
   39.7550   22.9350   37.0710 C   0  0  0  0  0  0  0  0  0  0  0  0
   38.7170   23.2820   37.8330 N   0  0  0  0  0  0  0  0  0  0  0  0
   40.7250   21.9940   37.6200 C   0  0  0  0  0  0  0  0  0  0  0  0
   41.4380   21.2540   36.8790 O   0  0  0  0  0  0  0  0  0  0  0  0
   37.3888   26.6869   32.9356 H   0  0  0  0  0  0  0  0  0  0  0  0
   35.4408   26.2761   31.4935 H   0  0  0  0  0  0  0  0  0  0  0  0
   38.1869   22.0036   30.2870 H   0  0  0  0  0  0  0  0  0  0  0  0
   38.1420   19.6107   29.5484 H   0  0  0  0  0  0  0  0  0  0  0  0
   35.6554   17.2014   30.6401 H   0  0  0  0  0  0  0  0  0  0  0  0
   37.1061   17.5071   29.6478 H   0  0  0  0  0  0  0  0  0  0  0  0
   40.0458   24.3720   33.4535 H   0  0  0  0  0  0  0  0  0  0  0  0
   39.3309   25.9520   34.0306 H   0  0  0  0  0  0  0  0  0  0  0  0
   36.9496   24.4138   38.0332 H   0  0  0  0  0  0  0  0  0  0  0  0
   37.1778   25.3870   35.7081 H   0  0  0  0  0  0  0  0  0  0  0  0
   40.8411   21.9247   38.7117 H   0  0  0  0  0  0  0  0  0  0  0  0
  1 15  1  0
  2  1  2  0
  3  2  1  0
  4  3  2  0
  4  5  1  0
  5  6  2  0
  6  1  1  0
  7  5  1  0
  7 13  1  0
  8  7  1  0
  9  8  2  0
  9 10  1  0
 10 12  2  0
 11 10  1  0
 12 13  1  0
 13 14  2  0
 15 18  1  0
 16 21  2  0
 17 16  1  0
 18 19  1  0
 18 17  2  0
 19 20  2  0
 20 22  1  0
 20 21  1  0
 23 22  2  0
  2 24  1  0
  3 25  1  0
  8 26  1  0
  9 27  1  0
 11 28  1  0
 11 29  1  0
 15 30  1  0
 15 31  1  0
 16 32  1  0
 17 33  1  0
 22 34  1  0
M  ISO  8  24  14  25  14  26  14  27  14  30   8  31   8  32  14  33  14
M  ISO  1  34   6
M  END
>  <minimizedAffinity>  (1) 
-5.5520978

>  <minimizedRMSD>  (1) 
0.756248415

$$$$
