
     RDKit          3D

 44 47  0  0  0  0  0  0  0  0999 V2000
   38.0800   24.7300   34.9080 C   0  0  0  0  0  0  0  0  0  0  0  0
   38.3490   24.2570   36.1570 C   0  0  0  0  0  0  0  0  0  0  0  0
   38.3670   22.9190   36.4720 C   0  0  0  0  0  0  0  0  0  0  0  0
   38.1010   22.0310   35.4900 N   0  0  0  0  0  0  0  0  0  0  0  0
   37.8300   22.4590   34.2400 C   0  0  0  0  0  0  0  0  0  0  0  0
   37.8210   23.7670   33.9700 N   0  0  0  0  0  0  0  0  0  0  0  0
   37.5330   21.6340   33.1150 N   0  0  0  0  0  0  0  0  0  0  0  0
   36.2160   21.7100   32.7290 C   0  0  0  0  0  0  0  0  0  0  0  0
   35.7690   20.9670   31.6480 C   0  0  0  0  0  0  0  0  0  0  0  0
   36.6690   20.1740   30.9960 C   0  0  0  0  0  0  0  0  0  0  0  0
   36.1960   19.4190   29.8940 N   0  0  0  0  0  0  0  0  0  0  0  0
   37.9370   20.1140   31.3850 N   0  0  0  0  0  0  0  0  0  0  0  0
   38.3730   20.8370   32.4360 C   0  0  0  0  0  0  0  0  0  0  0  0
   39.5300   20.8620   32.8880 O   0  0  0  0  0  0  0  0  0  0  0  0
   38.0480   26.1620   34.5140 C   0  0  0  0  0  0  0  0  0  0  0  0
   41.6540   27.1740   33.8210 C   0  0  0  0  0  0  0  0  0  0  0  0
   40.4880   26.7350   34.5110 C   0  0  0  0  0  0  0  0  0  0  0  0
   39.2890   26.6190   33.8180 C   0  0  0  0  0  0  0  0  0  0  0  0
   39.2960   26.9380   32.4810 N   0  0  0  0  0  0  0  0  0  0  0  0
   40.4050   27.3420   31.8790 C   0  0  0  0  0  0  0  0  0  0  0  0
   41.5670   27.4620   32.5230 N   0  0  0  0  0  0  0  0  0  0  0  0
   40.3860   27.6670   30.4930 N   0  0  0  0  0  0  0  0  0  0  0  0
   41.3090   27.3120   29.4310 C   0  0  0  0  0  0  0  0  0  0  0  0
   40.3620   26.5960   28.4750 C   0  0  0  0  0  0  0  0  0  0  0  0
   39.2030   27.5900   28.4430 C   0  0  0  0  0  0  0  0  0  0  0  0
   39.4730   28.4360   29.6840 C   0  0  0  0  0  0  0  0  0  0  0  0
   38.5629   24.9835   36.9548 H   0  0  0  0  0  0  0  0  0  0  0  0
   38.5916   22.5814   37.4945 H   0  0  0  0  0  0  0  0  0  0  0  0
   35.5179   22.3596   33.2773 H   0  0  0  0  0  0  0  0  0  0  0  0
   34.7188   21.0148   31.3244 H   0  0  0  0  0  0  0  0  0  0  0  0
   35.2074   19.4832   29.6121 H   0  0  0  0  0  0  0  0  0  0  0  0
   36.8408   18.8061   29.3749 H   0  0  0  0  0  0  0  0  0  0  0  0
   37.1934   26.3180   33.8392 H   0  0  0  0  0  0  0  0  0  0  0  0
   37.9626   26.7495   35.4401 H   0  0  0  0  0  0  0  0  0  0  0  0
   42.6123   27.2738   34.3518 H   0  0  0  0  0  0  0  0  0  0  0  0
   40.5360   26.4901   35.5823 H   0  0  0  0  0  0  0  0  0  0  0  0
   41.7583   28.2028   28.9677 H   0  0  0  0  0  0  0  0  0  0  0  0
   42.1750   26.7155   29.7539 H   0  0  0  0  0  0  0  0  0  0  0  0
   40.8118   26.4633   27.4800 H   0  0  0  0  0  0  0  0  0  0  0  0
   40.0852   25.5758   28.7794 H   0  0  0  0  0  0  0  0  0  0  0  0
   39.2272   28.2022   27.5294 H   0  0  0  0  0  0  0  0  0  0  0  0
   38.2115   27.1137   28.4392 H   0  0  0  0  0  0  0  0  0  0  0  0
   39.9280   29.3967   29.4011 H   0  0  0  0  0  0  0  0  0  0  0  0
   38.5446   28.6647   30.2278 H   0  0  0  0  0  0  0  0  0  0  0  0
  1  2  2  0
  2  3  1  0
  4  3  2  0
  5  4  1  0
  6  5  2  0
  6  1  1  0
  7  5  1  0
  8  7  1  0
  9  8  2  0
 10 12  2  0
 10  9  1  0
 11 10  1  0
 12 13  1  0
 13 14  2  0
 13  7  1  0
 15  1  1  0
 16 17  2  0
 18 17  1  0
 18 15  1  0
 19 18  2  0
 20 19  1  0
 20 21  2  0
 21 16  1  0
 22 20  1  0
 23 22  1  0
 24 23  1  0
 25 24  1  0
 25 26  1  0
 26 22  1  0
  2 27  1  0
  3 28  1  0
  8 29  1  0
  9 30  1  0
 11 31  1  0
 11 32  1  0
 15 33  1  0
 15 34  1  0
 16 35  1  0
 17 36  1  0
 23 37  1  0
 23 38  1  0
 24 39  1  0
 24 40  1  0
 25 41  1  0
 25 42  1  0
 26 43  1  0
 26 44  1  0
M  ISO  8  27  14  28  14  29  14  30  14  33   8  34   8  35  14  36  14
M  ISO  8  37  13  38  13  39  13  40  13  41  13  42  13  43  13  44  13
M  END
>  <minimizedAffinity>  (1) 
-5.29782629

>  <minimizedRMSD>  (1) 
6.27047014

$$$$
