
     RDKit          3D

 51 54  0  0  1  0  0  0  0  0999 V2000
   38.3680   23.2390   36.8230 C   0  0  0  0  0  0  0  0  0  0  0  0
   38.2260   23.8810   35.5590 C   0  0  0  0  0  0  0  0  0  0  0  0
   39.3480   24.0910   34.7810 C   0  0  0  0  0  0  0  0  0  0  0  0
   40.5650   23.6620   35.2810 N   0  0  0  0  0  0  0  0  0  0  0  0
   40.6430   23.0680   36.4710 C   0  0  0  0  0  0  0  0  0  0  0  0
   39.5870   22.8530   37.2350 N   0  0  0  0  0  0  0  0  0  0  0  0
   39.2230   24.7760   33.4470 C   0  0  0  0  0  0  0  0  0  0  0  0
   37.9640   24.4820   32.7500 C   0  0  0  0  0  0  0  0  0  0  0  0
   37.0450   25.4130   32.3760 C   0  0  0  0  0  0  0  0  0  0  0  0
   35.8670   25.1100   31.7200 C   0  0  0  0  0  0  0  0  0  0  0  0
   35.6250   23.8130   31.4400 N   0  0  0  0  0  0  0  0  0  0  0  0
   36.5060   22.8680   31.7930 C   0  0  0  0  0  0  0  0  0  0  0  0
   37.6440   23.1840   32.4280 N   0  0  0  0  0  0  0  0  0  0  0  0
   36.3690   21.4640   31.5560 N   0  0  0  0  0  0  0  0  0  0  0  0
   37.2500   21.0020   30.5900 C   0  0  0  0  0  0  0  0  0  0  0  0
   37.2440   19.6580   30.2440 C   0  0  0  0  0  0  0  0  0  0  0  0
   36.3620   18.8230   30.8710 C   0  0  0  0  0  0  0  0  0  0  0  0
   36.3650   17.4730   30.5200 N   0  0  0  0  0  0  0  0  0  0  0  0
   35.5380   19.3050   31.7900 N   0  0  0  0  0  0  0  0  0  0  0  0
   35.5310   20.5980   32.1340 C   0  0  0  0  0  0  0  0  0  0  0  0
   34.8080   21.1580   32.9740 O   0  0  0  0  0  0  0  0  0  0  0  0
   42.0280   22.6610   36.8710 C   0  0  1  0  0  0  0  0  0  0  0  0
   41.9610   21.1870   37.2540 C   0  0  0  0  0  0  0  0  0  0  0  0
   43.0330   22.8580   35.8150 C   0  0  0  0  0  0  0  0  0  0  0  0
   44.2170   23.5730   36.3990 C   0  0  0  0  0  0  0  0  0  0  0  0
   45.5110   23.1530   36.1740 C   0  0  0  0  0  0  0  0  0  0  0  0
   46.5890   23.8420   36.7340 C   0  0  0  0  0  0  0  0  0  0  0  0
   46.3470   24.9590   37.5210 C   0  0  0  0  0  0  0  0  0  0  0  0
   45.0720   25.4120   37.7710 C   0  0  0  0  0  0  0  0  0  0  0  0
   44.0330   24.7050   37.2010 C   0  0  0  0  0  0  0  0  0  0  0  0
   37.4865   23.0608   37.4564 H   0  0  0  0  0  0  0  0  0  0  0  0
   37.2355   24.2053   35.2071 H   0  0  0  0  0  0  0  0  0  0  0  0
   39.2864   25.8625   33.6068 H   0  0  0  0  0  0  0  0  0  0  0  0
   40.0384   24.3978   32.8129 H   0  0  0  0  0  0  0  0  0  0  0  0
   37.2516   26.4679   32.6093 H   0  0  0  0  0  0  0  0  0  0  0  0
   35.1531   25.8975   31.4367 H   0  0  0  0  0  0  0  0  0  0  0  0
   37.9492   21.6963   30.1010 H   0  0  0  0  0  0  0  0  0  0  0  0
   37.9354   19.2724   29.4803 H   0  0  0  0  0  0  0  0  0  0  0  0
   35.7112   16.8208   30.9762 H   0  0  0  0  0  0  0  0  0  0  0  0
   37.0210   17.1283   29.8046 H   0  0  0  0  0  0  0  0  0  0  0  0
   42.3527   23.2996   37.7057 H   0  0  0  0  0  0  0  0  0  0  0  0
   41.9567   21.0928   38.3499 H   0  0  0  0  0  0  0  0  0  0  0  0
   41.0418   20.7431   36.8442 H   0  0  0  0  0  0  0  0  0  0  0  0
   42.8362   20.6615   36.8442 H   0  0  0  0  0  0  0  0  0  0  0  0
   42.6015   23.4607   35.0022 H   0  0  0  0  0  0  0  0  0  0  0  0
   43.3469   21.8837   35.4123 H   0  0  0  0  0  0  0  0  0  0  0  0
   45.6958   22.2676   35.5480 H   0  0  0  0  0  0  0  0  0  0  0  0
   47.6196   23.5026   36.5530 H   0  0  0  0  0  0  0  0  0  0  0  0
   47.2001   25.4985   37.9582 H   0  0  0  0  0  0  0  0  0  0  0  0
   44.8892   26.2978   38.3970 H   0  0  0  0  0  0  0  0  0  0  0  0
   43.0051   25.0497   37.3870 H   0  0  0  0  0  0  0  0  0  0  0  0
  1  6  2  0
  2  1  1  0
  3  4  1  0
  3  2  2  0
  4  5  2  0
  5 22  1  0
  5  6  1  0
  7  3  1  0
  8  7  1  0
  9  8  2  0
 10  9  1  0
 11 10  2  0
 11 12  1  0
 12 13  2  0
 13  8  1  0
 14 12  1  0
 14 20  1  0
 15 14  1  0
 16 15  2  0
 16 17  1  0
 17 19  2  0
 18 17  1  0
 19 20  1  0
 20 21  2  0
 22 23  1  0
 24 25  1  0
 24 22  1  0
 25 30  1  0
 26 25  2  0
 26 27  1  0
 27 28  2  0
 28 29  1  0
 30 29  2  0
  1 31  1  0
  2 32  1  0
  7 33  1  0
  7 34  1  0
  9 35  1  0
 10 36  1  0
 15 37  1  0
 16 38  1  0
 18 39  1  0
 18 40  1  0
 22 41  1  1
 23 42  1  0
 23 43  1  0
 23 44  1  0
 24 45  1  0
 24 46  1  0
 26 47  1  0
 27 48  1  0
 28 49  1  0
 29 50  1  0
 30 51  1  0
M  ISO  8  31  14  32  14  33   8  34   8  35  14  36  14  37  14  38  14
M  ISO  8  41   8  42   8  43   8  44   8  45   8  46   8  47  14  48  14
M  ISO  3  49  14  50  14  51  14
M  END
>  <minimizedAffinity>  (1) 
-6.59644651

>  <minimizedRMSD>  (1) 
1.19623578

$$$$
