
     RDKit          3D

 48 51  0  0  1  0  0  0  0  0999 V2000
   38.0990   23.5990   36.7430 C   0  0  0  0  0  0  0  0  0  0  0  0
   37.9900   24.1680   35.4350 C   0  0  0  0  0  0  0  0  0  0  0  0
   39.1160   24.2720   34.6600 C   0  0  0  0  0  0  0  0  0  0  0  0
   40.3100   23.8170   35.1890 N   0  0  0  0  0  0  0  0  0  0  0  0
   40.3640   23.2940   36.4120 C   0  0  0  0  0  0  0  0  0  0  0  0
   39.2960   23.1830   37.1810 N   0  0  0  0  0  0  0  0  0  0  0  0
   39.0270   24.8760   33.2850 C   0  0  0  0  0  0  0  0  0  0  0  0
   37.7910   24.5280   32.5670 C   0  0  0  0  0  0  0  0  0  0  0  0
   36.8670   25.4260   32.1320 C   0  0  0  0  0  0  0  0  0  0  0  0
   35.7110   25.0760   31.4580 C   0  0  0  0  0  0  0  0  0  0  0  0
   35.5050   23.7670   31.2290 N   0  0  0  0  0  0  0  0  0  0  0  0
   36.3940   22.8490   31.6420 C   0  0  0  0  0  0  0  0  0  0  0  0
   37.5070   23.2140   32.2940 N   0  0  0  0  0  0  0  0  0  0  0  0
   36.2900   21.4270   31.4580 N   0  0  0  0  0  0  0  0  0  0  0  0
   37.2070   20.9490   30.5360 C   0  0  0  0  0  0  0  0  0  0  0  0
   37.2300   19.5960   30.2500 C   0  0  0  0  0  0  0  0  0  0  0  0
   36.3470   18.7700   30.8870 C   0  0  0  0  0  0  0  0  0  0  0  0
   36.3780   17.4020   30.5910 N   0  0  0  0  0  0  0  0  0  0  0  0
   35.4790   19.2800   31.7720 N   0  0  0  0  0  0  0  0  0  0  0  0
   35.4490   20.5810   32.0530 C   0  0  0  0  0  0  0  0  0  0  0  0
   34.6940   21.1550   32.8490 O   0  0  0  0  0  0  0  0  0  0  0  0
   41.7280   22.8450   36.8430 C   0  0  1  0  0  0  0  0  0  0  0  0
   41.6020   21.3780   37.2330 C   0  0  0  0  0  0  0  0  0  0  0  0
   42.7570   23.0150   35.8030 C   0  0  0  0  0  0  0  0  0  0  0  0
   43.5700   24.2480   36.1000 C   0  0  0  0  0  0  0  0  0  0  0  0
   44.5010   24.4090   37.1180 C   0  0  0  0  0  0  0  0  0  0  0  0
   45.0350   25.6860   37.0580 C   0  0  0  0  0  0  0  0  0  0  0  0
   44.4080   26.2700   35.9980 N   0  0  0  0  0  0  0  0  0  0  0  0
   43.5570   25.4390   35.4380 N   0  0  0  0  0  0  0  0  0  0  0  0
   37.2095   23.5037   37.3831 H   0  0  0  0  0  0  0  0  0  0  0  0
   37.0176   24.5167   35.0569 H   0  0  0  0  0  0  0  0  0  0  0  0
   39.0761   25.9706   33.3823 H   0  0  0  0  0  0  0  0  0  0  0  0
   39.8650   24.4697   32.6997 H   0  0  0  0  0  0  0  0  0  0  0  0
   37.0496   26.4930   32.3276 H   0  0  0  0  0  0  0  0  0  0  0  0
   34.9903   25.8366   31.1233 H   0  0  0  0  0  0  0  0  0  0  0  0
   37.9071   21.6361   30.0383 H   0  0  0  0  0  0  0  0  0  0  0  0
   37.9477   19.1911   29.5213 H   0  0  0  0  0  0  0  0  0  0  0  0
   35.7226   16.7591   31.0579 H   0  0  0  0  0  0  0  0  0  0  0  0
   37.0562   17.0385   29.9063 H   0  0  0  0  0  0  0  0  0  0  0  0
   42.0630   23.4700   37.6839 H   0  0  0  0  0  0  0  0  0  0  0  0
   41.5944   21.2894   38.3294 H   0  0  0  0  0  0  0  0  0  0  0  0
   40.6655   20.9694   36.8256 H   0  0  0  0  0  0  0  0  0  0  0  0
   42.4552   20.8157   36.8256 H   0  0  0  0  0  0  0  0  0  0  0  0
   42.2724   23.1227   34.8214 H   0  0  0  0  0  0  0  0  0  0  0  0
   43.4162   22.1345   35.7910 H   0  0  0  0  0  0  0  0  0  0  0  0
   44.7724   23.6413   37.8576 H   0  0  0  0  0  0  0  0  0  0  0  0
   45.7950   26.1294   37.7182 H   0  0  0  0  0  0  0  0  0  0  0  0
   44.5783   27.2342   35.6782 H   0  0  0  0  0  0  0  0  0  0  0  0
  1  6  2  0
  2  1  1  0
  3  4  1  0
  3  2  2  0
  4  5  2  0
  5 22  1  0
  5  6  1  0
  7  3  1  0
  8  7  1  0
  9  8  2  0
 10  9  1  0
 11 10  2  0
 11 12  1  0
 12 13  2  0
 13  8  1  0
 14 12  1  0
 14 20  1  0
 15 14  1  0
 16 15  2  0
 16 17  1  0
 17 19  2  0
 18 17  1  0
 19 20  1  0
 20 21  2  0
 22 23  1  0
 24 25  1  0
 24 22  1  0
 25 26  1  0
 27 26  2  0
 28 27  1  0
 29 28  1  0
 29 25  2  0
  1 30  1  0
  2 31  1  0
  7 32  1  0
  7 33  1  0
  9 34  1  0
 10 35  1  0
 15 36  1  0
 16 37  1  0
 18 38  1  0
 18 39  1  0
 22 40  1  1
 23 41  1  0
 23 42  1  0
 23 43  1  0
 24 44  1  0
 24 45  1  0
 26 46  1  0
 27 47  1  0
 28 48  1  0
M  ISO  8  30  14  31  14  32   8  33   8  34  14  35  14  36  14  37  14
M  ISO  8  40   8  41   8  42   8  43   8  44   8  45   8  46  14  47  14
M  ISO  1  48   9
M  END
>  <minimizedAffinity>  (1) 
-6.28075314

>  <minimizedRMSD>  (1) 
1.52562964

$$$$
