
     RDKit          3D

 48 51  0  0  1  0  0  0  0  0999 V2000
   39.0960   24.8120   33.2540 C   0  0  0  0  0  0  0  0  0  0  0  0
   37.8470   24.4830   32.5520 C   0  0  0  0  0  0  0  0  0  0  0  0
   36.9150   25.3730   32.1380 C   0  0  0  0  0  0  0  0  0  0  0  0
   35.7500   25.0370   31.4790 C   0  0  0  0  0  0  0  0  0  0  0  0
   35.5360   23.7320   31.2380 N   0  0  0  0  0  0  0  0  0  0  0  0
   36.4300   22.8090   31.6290 C   0  0  0  0  0  0  0  0  0  0  0  0
   37.5560   23.1680   32.2690 N   0  0  0  0  0  0  0  0  0  0  0  0
   36.3180   21.3920   31.4320 N   0  0  0  0  0  0  0  0  0  0  0  0
   37.2180   20.9200   30.4910 C   0  0  0  0  0  0  0  0  0  0  0  0
   37.2380   19.5700   30.1840 C   0  0  0  0  0  0  0  0  0  0  0  0
   36.3670   18.7480   30.8230 C   0  0  0  0  0  0  0  0  0  0  0  0
   36.3850   17.3690   30.5100 N   0  0  0  0  0  0  0  0  0  0  0  0
   35.5200   19.2350   31.7190 N   0  0  0  0  0  0  0  0  0  0  0  0
   35.4870   20.5390   32.0270 C   0  0  0  0  0  0  0  0  0  0  0  0
   34.7460   21.1070   32.8400 O   0  0  0  0  0  0  0  0  0  0  0  0
   38.1610   23.5750   36.7350 C   0  0  0  0  0  0  0  0  0  0  0  0
   38.0550   24.1270   35.4150 C   0  0  0  0  0  0  0  0  0  0  0  0
   39.1890   24.2290   34.6300 C   0  0  0  0  0  0  0  0  0  0  0  0
   40.3760   23.7810   35.1790 N   0  0  0  0  0  0  0  0  0  0  0  0
   40.4250   23.2740   36.4090 C   0  0  0  0  0  0  0  0  0  0  0  0
   39.3580   23.1660   37.1830 N   0  0  0  0  0  0  0  0  0  0  0  0
   41.7910   22.8360   36.8450 C   0  0  1  0  0  0  0  0  0  0  0  0
   41.6990   21.3490   37.1590 C   0  0  0  0  0  0  0  0  0  0  0  0
   42.8380   23.0990   35.8510 C   0  0  0  0  0  0  0  0  0  0  0  0
   44.0580   23.6800   36.3760 C   0  0  0  0  0  0  0  0  0  0  0  0
   44.2370   24.7260   37.2350 C   0  0  0  0  0  0  0  0  0  0  0  0
   45.4940   25.1060   37.5980 C   0  0  0  0  0  0  0  0  0  0  0  0
   46.5730   24.3540   37.0340 C   0  0  0  0  0  0  0  0  0  0  0  0
   45.6700   23.0820   35.9610 S   0  0  0  0  0  0  0  0  0  0  0  0
   39.1697   25.9065   33.3356 H   0  0  0  0  0  0  0  0  0  0  0  0
   39.9175   24.3767   32.6661 H   0  0  0  0  0  0  0  0  0  0  0  0
   37.0990   26.4383   32.3410 H   0  0  0  0  0  0  0  0  0  0  0  0
   35.0274   25.8043   31.1644 H   0  0  0  0  0  0  0  0  0  0  0  0
   37.9116   21.6123   29.9914 H   0  0  0  0  0  0  0  0  0  0  0  0
   37.9435   19.1727   29.4394 H   0  0  0  0  0  0  0  0  0  0  0  0
   35.7337   16.7253   30.9816 H   0  0  0  0  0  0  0  0  0  0  0  0
   37.0494   17.0083   29.8105 H   0  0  0  0  0  0  0  0  0  0  0  0
   37.2697   23.4879   37.3737 H   0  0  0  0  0  0  0  0  0  0  0  0
   37.0814   24.4657   35.0311 H   0  0  0  0  0  0  0  0  0  0  0  0
   42.0898   23.4211   37.7273 H   0  0  0  0  0  0  0  0  0  0  0  0
   41.6901   21.2044   38.2494 H   0  0  0  0  0  0  0  0  0  0  0  0
   40.7738   20.9396   36.7272 H   0  0  0  0  0  0  0  0  0  0  0  0
   42.5667   20.8287   36.7272 H   0  0  0  0  0  0  0  0  0  0  0  0
   42.4279   23.7904   35.1001 H   0  0  0  0  0  0  0  0  0  0  0  0
   43.1202   22.1187   35.4394 H   0  0  0  0  0  0  0  0  0  0  0  0
   43.3643   25.2632   37.6349 H   0  0  0  0  0  0  0  0  0  0  0  0
   45.6699   25.9452   38.2871 H   0  0  0  0  0  0  0  0  0  0  0  0
   47.6549   24.4826   37.1857 H   0  0  0  0  0  0  0  0  0  0  0  0
  1 18  1  0
  2  1  1  0
  3  2  2  0
  4  3  1  0
  5  4  2  0
  5  6  1  0
  6  7  2  0
  7  2  1  0
  8  6  1  0
  8 14  1  0
  9  8  1  0
 10  9  2  0
 10 11  1  0
 11 13  2  0
 12 11  1  0
 13 14  1  0
 14 15  2  0
 16 21  2  0
 17 16  1  0
 18 19  1  0
 18 17  2  0
 19 20  2  0
 20 22  1  0
 20 21  1  0
 22 23  1  0
 24 25  1  0
 24 22  1  0
 25 26  2  0
 26 27  1  0
 28 27  2  0
 29 25  1  0
 29 28  1  0
  1 30  1  0
  1 31  1  0
  3 32  1  0
  4 33  1  0
  9 34  1  0
 10 35  1  0
 12 36  1  0
 12 37  1  0
 16 38  1  0
 17 39  1  0
 22 40  1  1
 23 41  1  0
 23 42  1  0
 23 43  1  0
 24 44  1  0
 24 45  1  0
 26 46  1  0
 27 47  1  0
 28 48  1  0
M  ISO  8  30   8  31   8  32  14  33  14  34  14  35  14  38  14  39  14
M  ISO  8  40   8  41   8  42   8  43   8  44   8  45   8  46  14  47  14
M  ISO  1  48  14
M  END
>  <minimizedAffinity>  (1) 
-6.19381905

>  <minimizedRMSD>  (1) 
0.946298957

$$$$
