
     RDKit          3D

 56 59  0  0  1  0  0  0  0  0999 V2000
   38.1580   23.5670   36.7290 C   0  0  0  0  0  0  0  0  0  0  0  0
   38.0480   24.1120   35.4210 C   0  0  0  0  0  0  0  0  0  0  0  0
   39.1790   24.2150   34.6320 C   0  0  0  0  0  0  0  0  0  0  0  0
   40.3730   23.7730   35.1770 N   0  0  0  0  0  0  0  0  0  0  0  0
   40.4290   23.2720   36.4030 C   0  0  0  0  0  0  0  0  0  0  0  0
   39.3560   23.1640   37.1760 N   0  0  0  0  0  0  0  0  0  0  0  0
   39.0930   24.7940   33.2440 C   0  0  0  0  0  0  0  0  0  0  0  0
   37.8480   24.4560   32.5430 C   0  0  0  0  0  0  0  0  0  0  0  0
   36.9120   25.3540   32.1370 C   0  0  0  0  0  0  0  0  0  0  0  0
   35.7490   25.0110   31.4800 C   0  0  0  0  0  0  0  0  0  0  0  0
   35.5370   23.7050   31.2300 N   0  0  0  0  0  0  0  0  0  0  0  0
   36.4360   22.7890   31.6150 C   0  0  0  0  0  0  0  0  0  0  0  0
   37.5590   23.1500   32.2520 N   0  0  0  0  0  0  0  0  0  0  0  0
   36.3280   21.3730   31.4120 N   0  0  0  0  0  0  0  0  0  0  0  0
   37.2180   20.9020   30.4750 C   0  0  0  0  0  0  0  0  0  0  0  0
   37.2480   19.5590   30.1600 C   0  0  0  0  0  0  0  0  0  0  0  0
   36.3800   18.7270   30.7980 C   0  0  0  0  0  0  0  0  0  0  0  0
   36.3960   17.3570   30.4900 N   0  0  0  0  0  0  0  0  0  0  0  0
   35.5240   19.2150   31.7080 N   0  0  0  0  0  0  0  0  0  0  0  0
   35.4870   20.5110   32.0200 C   0  0  0  0  0  0  0  0  0  0  0  0
   34.7460   21.0730   32.8380 O   0  0  0  0  0  0  0  0  0  0  0  0
   41.7900   22.8360   36.8530 C   0  0  1  0  0  0  0  0  0  0  0  0
   41.7890   21.3100   36.8370 C   0  0  0  0  0  0  0  0  0  0  0  0
   42.8720   23.3410   35.9960 C   0  0  0  0  0  0  0  0  0  0  0  0
   43.4730   24.5760   36.4060 N   0  0  0  0  0  0  0  0  0  0  0  0
   43.7150   25.3660   35.2350 C   0  0  0  0  0  0  0  0  0  0  0  0
   45.0800   25.2910   34.6580 C   0  0  0  0  0  0  0  0  0  0  0  0
   45.8310   24.0260   34.8880 C   0  0  0  0  0  0  0  0  0  0  0  0
   45.6850   23.5210   36.2880 C   0  0  0  0  0  0  0  0  0  0  0  0
   44.7410   24.4110   37.0740 C   0  0  0  0  0  0  0  0  0  0  0  0
   37.2679   23.4766   37.3690 H   0  0  0  0  0  0  0  0  0  0  0  0
   37.0726   24.4486   35.0399 H   0  0  0  0  0  0  0  0  0  0  0  0
   39.1638   25.8892   33.3189 H   0  0  0  0  0  0  0  0  0  0  0  0
   39.9194   24.3606   32.6616 H   0  0  0  0  0  0  0  0  0  0  0  0
   37.0931   26.4189   32.3451 H   0  0  0  0  0  0  0  0  0  0  0  0
   35.0214   25.7761   31.1716 H   0  0  0  0  0  0  0  0  0  0  0  0
   37.9078   21.5980   29.9753 H   0  0  0  0  0  0  0  0  0  0  0  0
   37.9553   19.1706   29.4124 H   0  0  0  0  0  0  0  0  0  0  0  0
   35.7452   16.7149   30.9644 H   0  0  0  0  0  0  0  0  0  0  0  0
   37.0585   16.9943   29.7897 H   0  0  0  0  0  0  0  0  0  0  0  0
   41.9838   23.2457   37.8553 H   0  0  0  0  0  0  0  0  0  0  0  0
   41.7888   20.9325   37.8702 H   0  0  0  0  0  0  0  0  0  0  0  0
   40.8906   20.9494   36.3146 H   0  0  0  0  0  0  0  0  0  0  0  0
   42.6869   20.9482   36.3146 H   0  0  0  0  0  0  0  0  0  0  0  0
   42.4617   23.4853   34.9856 H   0  0  0  0  0  0  0  0  0  0  0  0
   43.6720   22.5882   36.0533 H   0  0  0  0  0  0  0  0  0  0  0  0
   43.0058   25.0408   34.4596 H   0  0  0  0  0  0  0  0  0  0  0  0
   43.5913   26.4105   35.5570 H   0  0  0  0  0  0  0  0  0  0  0  0
   45.6704   26.1130   35.0890 H   0  0  0  0  0  0  0  0  0  0  0  0
   44.9388   25.3513   33.5688 H   0  0  0  0  0  0  0  0  0  0  0  0
   45.4526   23.2599   34.1952 H   0  0  0  0  0  0  0  0  0  0  0  0
   46.8975   24.2341   34.7168 H   0  0  0  0  0  0  0  0  0  0  0  0
   45.2830   22.4974   36.2643 H   0  0  0  0  0  0  0  0  0  0  0  0
   46.6713   23.5278   36.7751 H   0  0  0  0  0  0  0  0  0  0  0  0
   45.2072   25.3993   37.2005 H   0  0  0  0  0  0  0  0  0  0  0  0
   44.5533   23.9326   38.0466 H   0  0  0  0  0  0  0  0  0  0  0  0
  1  6  2  0
  2  1  1  0
  3  4  1  0
  3  2  2  0
  4  5  2  0
  5 22  1  0
  5  6  1  0
  7  3  1  0
  8  7  1  0
  9  8  2  0
 10  9  1  0
 11 10  2  0
 11 12  1  0
 12 13  2  0
 13  8  1  0
 14 12  1  0
 14 20  1  0
 15 14  1  0
 16 15  2  0
 16 17  1  0
 17 19  2  0
 18 17  1  0
 19 20  1  0
 20 21  2  0
 23 22  1  0
 24 25  1  0
 24 22  1  0
 25 30  1  0
 26 25  1  0
 27 28  1  0
 27 26  1  0
 28 29  1  0
 29 30  1  0
  1 31  1  0
  2 32  1  0
  7 33  1  0
  7 34  1  0
  9 35  1  0
 10 36  1  0
 15 37  1  0
 16 38  1  0
 18 39  1  0
 18 40  1  0
 22 41  1  1
 23 42  1  0
 23 43  1  0
 23 44  1  0
 24 45  1  0
 24 46  1  0
 26 47  1  0
 26 48  1  0
 27 49  1  0
 27 50  1  0
 28 51  1  0
 28 52  1  0
 29 53  1  0
 29 54  1  0
 30 55  1  0
 30 56  1  0
M  ISO  8  31  14  32  14  33   8  34   8  35  14  36  14  37  14  38  14
M  ISO  8  41   8  42   8  43   8  44   8  45   8  46   8  47  13  48  13
M  ISO  8  49  13  50  13  51  13  52  13  53  13  54  13  55  13  56  13
M  END
>  <minimizedAffinity>  (1) 
-5.82539177

>  <minimizedRMSD>  (1) 
0.534770072

$$$$
