
     RDKit          3D

 42 44  0  0  1  0  0  0  0  0999 V2000
   39.0350   24.8880   33.3200 C   0  0  0  0  0  0  0  0  0  0  0  0
   37.8080   24.5510   32.5920 C   0  0  0  0  0  0  0  0  0  0  0  0
   36.8930   25.4410   32.1430 C   0  0  0  0  0  0  0  0  0  0  0  0
   35.7420   25.0960   31.4580 C   0  0  0  0  0  0  0  0  0  0  0  0
   35.5300   23.7860   31.2300 N   0  0  0  0  0  0  0  0  0  0  0  0
   36.4110   22.8680   31.6570 C   0  0  0  0  0  0  0  0  0  0  0  0
   37.5180   23.2340   32.3190 N   0  0  0  0  0  0  0  0  0  0  0  0
   36.3010   21.4480   31.4780 N   0  0  0  0  0  0  0  0  0  0  0  0
   37.2230   20.9620   30.5660 C   0  0  0  0  0  0  0  0  0  0  0  0
   37.2430   19.6110   30.2840 C   0  0  0  0  0  0  0  0  0  0  0  0
   36.3530   18.7850   30.9120 C   0  0  0  0  0  0  0  0  0  0  0  0
   36.3770   17.4160   30.6230 N   0  0  0  0  0  0  0  0  0  0  0  0
   35.4780   19.3000   31.7870 N   0  0  0  0  0  0  0  0  0  0  0  0
   35.4470   20.6070   32.0700 C   0  0  0  0  0  0  0  0  0  0  0  0
   34.6890   21.1880   32.8560 O   0  0  0  0  0  0  0  0  0  0  0  0
   38.0580   23.7200   36.7970 C   0  0  0  0  0  0  0  0  0  0  0  0
   37.9700   24.2650   35.4920 C   0  0  0  0  0  0  0  0  0  0  0  0
   39.1020   24.3070   34.7000 C   0  0  0  0  0  0  0  0  0  0  0  0
   40.2680   23.8040   35.2420 N   0  0  0  0  0  0  0  0  0  0  0  0
   40.3050   23.3010   36.4740 C   0  0  0  0  0  0  0  0  0  0  0  0
   39.2350   23.2520   37.2490 N   0  0  0  0  0  0  0  0  0  0  0  0
   41.6480   22.7990   36.9070 C   0  0  1  0  0  0  0  0  0  0  0  0
   41.4860   21.3120   37.2070 C   0  0  0  0  0  0  0  0  0  0  0  0
   42.7040   23.0070   35.9040 C   0  0  0  0  0  0  0  0  0  0  0  0
   43.8210   23.5620   36.5100 O   0  0  0  0  0  0  0  0  0  0  0  0
   39.0993   25.9831   33.4019 H   0  0  0  0  0  0  0  0  0  0  0  0
   39.8721   24.4568   32.7513 H   0  0  0  0  0  0  0  0  0  0  0  0
   37.0765   26.5084   32.3353 H   0  0  0  0  0  0  0  0  0  0  0  0
   35.0294   25.8600   31.1138 H   0  0  0  0  0  0  0  0  0  0  0  0
   37.9307   21.6443   30.0724 H   0  0  0  0  0  0  0  0  0  0  0  0
   37.9666   19.2038   29.5624 H   0  0  0  0  0  0  0  0  0  0  0  0
   35.7132   16.7799   31.0874 H   0  0  0  0  0  0  0  0  0  0  0  0
   37.0584   17.0445   29.9459 H   0  0  0  0  0  0  0  0  0  0  0  0
   37.1656   23.6798   37.4389 H   0  0  0  0  0  0  0  0  0  0  0  0
   37.0117   24.6503   35.1135 H   0  0  0  0  0  0  0  0  0  0  0  0
   41.9734   23.3676   37.7907 H   0  0  0  0  0  0  0  0  0  0  0  0
   41.4692   21.1574   38.2959 H   0  0  0  0  0  0  0  0  0  0  0  0
   40.5432   20.9505   36.7707 H   0  0  0  0  0  0  0  0  0  0  0  0
   42.3289   20.7560   36.7707 H   0  0  0  0  0  0  0  0  0  0  0  0
   42.3364   23.6873   35.1217 H   0  0  0  0  0  0  0  0  0  0  0  0
   42.9756   22.0403   35.4549 H   0  0  0  0  0  0  0  0  0  0  0  0
   43.7215   23.5126   37.4937 H   0  0  0  0  0  0  0  0  0  0  0  0
  1 18  1  0
  2  1  1  0
  3  2  2  0
  4  3  1  0
  5  4  2  0
  5  6  1  0
  6  7  2  0
  7  2  1  0
  8  6  1  0
  8 14  1  0
  9  8  1  0
 10  9  2  0
 10 11  1  0
 11 13  2  0
 12 11  1  0
 13 14  1  0
 14 15  2  0
 16 21  2  0
 17 16  1  0
 18 19  1  0
 18 17  2  0
 19 20  2  0
 20 22  1  0
 20 21  1  0
 22 23  1  0
 24 25  1  0
 24 22  1  0
  1 26  1  0
  1 27  1  0
  3 28  1  0
  4 29  1  0
  9 30  1  0
 10 31  1  0
 12 32  1  0
 12 33  1  0
 16 34  1  0
 17 35  1  0
 22 36  1  1
 23 37  1  0
 23 38  1  0
 23 39  1  0
 24 40  1  0
 24 41  1  0
 25 42  1  0
M  ISO  8  26   8  27   8  28  14  29  14  30  14  31  14  34  14  35  14
M  ISO  7  36   8  37   8  38   8  39   8  40   8  41   8  42   3
M  END
>  <minimizedAffinity>  (1) 
-5.32654619

>  <minimizedRMSD>  (1) 
0.341489166

$$$$
