
     RDKit          3D

 23 24  0  0  0  0  0  0  0  0999 V2000
   37.9770   24.4720   34.4880 N   0  0  0  0  0  0  0  0  0  0  0  0
   37.8290   23.7800   33.3570 N   0  0  0  0  0  0  0  0  0  0  0  0
   37.2960   24.5560   32.4020 C   0  0  0  0  0  0  0  0  0  0  0  0
   37.1040   25.8050   32.9840 C   0  0  0  0  0  0  0  0  0  0  0  0
   37.5430   25.7110   34.2850 C   0  0  0  0  0  0  0  0  0  0  0  0
   37.7130   23.8220   36.7990 C   0  0  0  0  0  0  0  0  0  0  0  0
   38.5020   23.9610   35.6640 C   0  0  0  0  0  0  0  0  0  0  0  0
   39.8420   23.5580   35.7600 C   0  0  0  0  0  0  0  0  0  0  0  0
   40.2980   23.0600   36.9350 N   0  0  0  0  0  0  0  0  0  0  0  0
   39.4830   22.9460   38.0180 C   0  0  0  0  0  0  0  0  0  0  0  0
   38.1770   23.3320   37.9460 N   0  0  0  0  0  0  0  0  0  0  0  0
   37.4380   26.9260   35.1200 C   0  0  0  0  0  0  0  0  0  0  0  0
   38.7330   27.4000   35.6990 C   0  0  0  0  0  0  0  0  0  0  0  0
   37.0587   24.2642   31.3683 H   0  0  0  0  0  0  0  0  0  0  0  0
   36.6821   26.6968   32.4975 H   0  0  0  0  0  0  0  0  0  0  0  0
   36.6584   24.1305   36.7473 H   0  0  0  0  0  0  0  0  0  0  0  0
   40.5137   23.6450   34.8933 H   0  0  0  0  0  0  0  0  0  0  0  0
   39.8805   22.5392   38.9595 H   0  0  0  0  0  0  0  0  0  0  0  0
   37.0242   27.7340   34.4988 H   0  0  0  0  0  0  0  0  0  0  0  0
   36.7944   26.6627   35.9723 H   0  0  0  0  0  0  0  0  0  0  0  0
   38.6735   27.3782   36.7972 H   0  0  0  0  0  0  0  0  0  0  0  0
   39.5477   26.7418   35.3628 H   0  0  0  0  0  0  0  0  0  0  0  0
   38.9303   28.4286   35.3628 H   0  0  0  0  0  0  0  0  0  0  0  0
  1  7  1  0
  2  1  1  0
  3  4  1  0
  3  2  2  0
  4  5  2  0
  5  1  1  0
  5 12  1  0
  6 11  2  0
  7  8  2  0
  7  6  1  0
  8  9  1  0
  9 10  2  0
 11 10  1  0
 12 13  1  0
  3 14  1  0
  4 15  1  0
  6 16  1  0
  8 17  1  0
 10 18  1  0
 12 19  1  0
 12 20  1  0
 13 21  1  0
 13 22  1  0
 13 23  1  0
M  ISO  8  14  14  15  14  16  14  17  14  18  14  19   8  20   8  21   8
M  ISO  2  22   8  23   8
M  END
>  <minimizedAffinity>  (1) 
-3.7701869

>  <minimizedRMSD>  (1) 
1.19441104

$$$$
