
     RDKit          3D

 24 26  0  0  0  0  0  0  0  0999 V2000
   38.0990   25.7520   34.1740 N   0  0  0  0  0  0  0  0  0  0  0  0
   37.0410   26.1540   33.5130 N   0  0  0  0  0  0  0  0  0  0  0  0
   37.3430   27.0020   32.5440 C   0  0  0  0  0  0  0  0  0  0  0  0
   38.7220   27.1480   32.5960 C   0  0  0  0  0  0  0  0  0  0  0  0
   39.1820   26.3470   33.6380 C   0  0  0  0  0  0  0  0  0  0  0  0
   38.0650   25.3110   36.5580 C   0  0  0  0  0  0  0  0  0  0  0  0
   38.1160   24.8630   35.2470 C   0  0  0  0  0  0  0  0  0  0  0  0
   38.1890   23.4800   35.0280 C   0  0  0  0  0  0  0  0  0  0  0  0
   38.2050   22.6510   36.1050 N   0  0  0  0  0  0  0  0  0  0  0  0
   38.1530   23.1410   37.3740 C   0  0  0  0  0  0  0  0  0  0  0  0
   38.0830   24.4740   37.5970 N   0  0  0  0  0  0  0  0  0  0  0  0
   40.5600   26.2450   33.9880 N   0  0  0  0  0  0  0  0  0  0  0  0
   41.3440   27.2240   33.4650 C   0  0  0  0  0  0  0  0  0  0  0  0
   42.6410   27.0030   33.8810 C   0  0  0  0  0  0  0  0  0  0  0  0
   42.6220   25.8930   34.6510 N   0  0  0  0  0  0  0  0  0  0  0  0
   41.3520   25.4430   34.7070 C   0  0  0  0  0  0  0  0  0  0  0  0
   36.6477   27.4889   31.8444 H   0  0  0  0  0  0  0  0  0  0  0  0
   39.3369   27.7787   31.9371 H   0  0  0  0  0  0  0  0  0  0  0  0
   38.0078   26.3929   36.7481 H   0  0  0  0  0  0  0  0  0  0  0  0
   38.2324   23.0746   34.0064 H   0  0  0  0  0  0  0  0  0  0  0  0
   38.1680   22.4464   38.2268 H   0  0  0  0  0  0  0  0  0  0  0  0
   41.0039   28.0491   32.8219 H   0  0  0  0  0  0  0  0  0  0  0  0
   43.5217   27.6136   33.6332 H   0  0  0  0  0  0  0  0  0  0  0  0
   41.0187   24.5523   35.2597 H   0  0  0  0  0  0  0  0  0  0  0  0
  1  7  1  0
  2  1  1  0
  3  4  1  0
  3  2  2  0
  4  5  2  0
  5 12  1  0
  5  1  1  0
  6 11  2  0
  7  6  1  0
  8  7  2  0
  8  9  1  0
  9 10  2  0
 10 11  1  0
 12 16  1  0
 13 14  2  0
 13 12  1  0
 14 15  1  0
 15 16  2  0
  3 17  1  0
  4 18  1  0
  6 19  1  0
  8 20  1  0
 10 21  1  0
 13 22  1  0
 14 23  1  0
 16 24  1  0
M  ISO  8  17  14  18  14  19  14  20  14  21  14  22  14  23  14  24  14
M  END
>  <minimizedAffinity>  (1) 
-3.71032953

>  <minimizedRMSD>  (1) 
3.44253087

$$$$
