
     RDKit          3D

 22 24  0  0  0  0  0  0  0  0999 V2000
   38.2630   23.9510   32.9170 N   0  0  0  0  0  0  0  0  0  0  0  0
   38.7840   24.8950   32.1500 N   0  0  0  0  0  0  0  0  0  0  0  0
   38.2650   24.9020   30.9400 C   0  0  0  0  0  0  0  0  0  0  0  0
   37.3320   23.8740   30.9330 C   0  0  0  0  0  0  0  0  0  0  0  0
   37.3490   23.2860   32.1970 C   0  0  0  0  0  0  0  0  0  0  0  0
   39.5230   22.7020   34.5700 C   0  0  0  0  0  0  0  0  0  0  0  0
   38.6040   23.6930   34.2380 C   0  0  0  0  0  0  0  0  0  0  0  0
   38.0290   24.4310   35.2820 C   0  0  0  0  0  0  0  0  0  0  0  0
   38.4080   24.1260   36.5630 N   0  0  0  0  0  0  0  0  0  0  0  0
   39.3030   23.1550   36.8370 C   0  0  0  0  0  0  0  0  0  0  0  0
   39.8670   22.4340   35.8280 N   0  0  0  0  0  0  0  0  0  0  0  0
   36.4940   22.1660   32.5620 C   0  0  0  0  0  0  0  0  0  0  0  0
   35.2680   22.0500   32.0110 N   0  0  0  0  0  0  0  0  0  0  0  0
   34.7350   20.9780   32.5070 O   0  0  0  0  0  0  0  0  0  0  0  0
   35.5310   20.3840   33.3500 C   0  0  0  0  0  0  0  0  0  0  0  0
   36.6540   21.1210   33.4000 N   0  0  0  0  0  0  0  0  0  0  0  0
   38.5172   25.5789   30.1104 H   0  0  0  0  0  0  0  0  0  0  0  0
   36.6961   23.5778   30.0857 H   0  0  0  0  0  0  0  0  0  0  0  0
   39.9837   22.1166   33.7606 H   0  0  0  0  0  0  0  0  0  0  0  0
   37.2983   25.2280   35.0797 H   0  0  0  0  0  0  0  0  0  0  0  0
   39.5790   22.9441   37.8807 H   0  0  0  0  0  0  0  0  0  0  0  0
   35.3246   19.4605   33.9109 H   0  0  0  0  0  0  0  0  0  0  0  0
  1  7  1  0
  2  1  1  0
  3  2  2  0
  4  3  1  0
  4  5  2  0
  5 12  1  0
  5  1  1  0
  6 11  2  0
  7  6  1  0
  7  8  2  0
  8  9  1  0
  9 10  2  0
 11 10  1  0
 12 16  1  0
 13 14  1  0
 13 12  2  0
 14 15  1  0
 15 16  2  0
  3 17  1  0
  4 18  1  0
  6 19  1  0
  8 20  1  0
 10 21  1  0
 15 22  1  0
M  ISO  6  17  14  18  14  19  14  20  14  21  14  22  14
M  END
>  <minimizedAffinity>  (1) 
-3.66325879

>  <minimizedRMSD>  (1) 
5.40696383

$$$$
