
     RDKit          3D

 24 25  0  0  0  0  0  0  0  0999 V2000
   38.1260   23.6890   34.7350 N   0  0  0  0  0  0  0  0  0  0  0  0
   38.0730   22.6920   33.8580 N   0  0  0  0  0  0  0  0  0  0  0  0
   37.7820   23.1300   32.6320 C   0  0  0  0  0  0  0  0  0  0  0  0
   37.6450   24.5060   32.7590 C   0  0  0  0  0  0  0  0  0  0  0  0
   37.8640   24.8490   34.0970 C   0  0  0  0  0  0  0  0  0  0  0  0
   37.4680   23.9230   37.0540 C   0  0  0  0  0  0  0  0  0  0  0  0
   38.4090   23.5500   36.1000 C   0  0  0  0  0  0  0  0  0  0  0  0
   39.6510   23.0340   36.5070 C   0  0  0  0  0  0  0  0  0  0  0  0
   39.8510   22.9300   37.8600 N   0  0  0  0  0  0  0  0  0  0  0  0
   38.9350   23.2930   38.7660 C   0  0  0  0  0  0  0  0  0  0  0  0
   37.7390   23.7910   38.3610 N   0  0  0  0  0  0  0  0  0  0  0  0
   37.8140   26.1740   34.6140 N   0  0  0  0  0  0  0  0  0  0  0  0
   38.9330   26.8280   35.2030 C   0  0  0  0  0  0  0  0  0  0  0  0
   40.0840   26.5700   34.6310 N   0  0  0  0  0  0  0  0  0  0  0  0
   38.6890   27.6820   36.3320 N   0  0  0  0  0  0  0  0  0  0  0  0
   40.9030   27.0550   35.0690 H   0  0  0  0  0  0  0  0  0  0  0  0
   37.6738   22.5298   31.7166 H   0  0  0  0  0  0  0  0  0  0  0  0
   37.4051   25.2068   31.9458 H   0  0  0  0  0  0  0  0  0  0  0  0
   36.4965   24.3284   36.7349 H   0  0  0  0  0  0  0  0  0  0  0  0
   40.4198   22.7305   35.7812 H   0  0  0  0  0  0  0  0  0  0  0  0
   39.1516   23.1877   39.8393 H   0  0  0  0  0  0  0  0  0  0  0  0
   36.9221   26.6863   34.5592 H   0  0  0  0  0  0  0  0  0  0  0  0
   39.4729   28.1726   36.7856 H   0  0  0  0  0  0  0  0  0  0  0  0
   37.7302   27.8037   36.6880 H   0  0  0  0  0  0  0  0  0  0  0  0
  1  7  1  0
  2  1  1  0
  3  4  1  0
  3  2  2  0
  4  5  2  0
  5 12  1  0
  5  1  1  0
  6 11  2  0
  7  8  2  0
  7  6  1  0
  8  9  1  0
  9 10  2  0
 11 10  1  0
 12 13  1  0
 13 15  1  0
 14 16  1  0
 14 13  2  0
  3 17  1  0
  4 18  1  0
  6 19  1  0
  8 20  1  0
 10 21  1  0
 12 22  1  0
 15 23  1  0
 15 24  1  0
M  ISO  5  17  14  18  14  19  14  20  14  21  14
M  END
>  <minimizedAffinity>  (1) 
-4.4171176

>  <minimizedRMSD>  (1) 
2.04490614

$$$$
