
     RDKit          3D

 31 33  0  0  0  0  0  0  0  0999 V2000
   37.5740   27.6840   32.3050 N   0  0  0  0  0  0  0  0  0  0  0  0
   36.4880   28.4670   32.2990 N   0  0  0  0  0  0  0  0  0  0  0  0
   36.4490   29.2320   31.2080 C   0  0  0  0  0  0  0  0  0  0  0  0
   37.5920   28.8980   30.4850 C   0  0  0  0  0  0  0  0  0  0  0  0
   38.2990   27.9140   31.1950 C   0  0  0  0  0  0  0  0  0  0  0  0
   38.6790   27.1800   34.3950 C   0  0  0  0  0  0  0  0  0  0  0  0
   37.8830   26.7810   33.3170 C   0  0  0  0  0  0  0  0  0  0  0  0
   37.4050   25.4560   33.2780 C   0  0  0  0  0  0  0  0  0  0  0  0
   37.7640   24.6380   34.3220 N   0  0  0  0  0  0  0  0  0  0  0  0
   38.5250   25.0530   35.3340 C   0  0  0  0  0  0  0  0  0  0  0  0
   38.9860   26.3180   35.3800 N   0  0  0  0  0  0  0  0  0  0  0  0
   38.8920   24.1980   36.4130 N   0  0  0  0  0  0  0  0  0  0  0  0
   38.0780   24.2190   37.4840 C   0  0  0  0  0  0  0  0  0  0  0  0
   38.6260   23.3170   38.4040 C   0  0  0  0  0  0  0  0  0  0  0  0
   39.7460   22.7870   37.8560 N   0  0  0  0  0  0  0  0  0  0  0  0
   39.9060   23.3380   36.6180 C   0  0  0  0  0  0  0  0  0  0  0  0
   39.5150   27.3230   30.7770 N   0  0  0  0  0  0  0  0  0  0  0  0
   39.6120   25.9620   30.3410 C   0  0  0  0  0  0  0  0  0  0  0  0
   38.5750   25.5280   29.6460 N   0  0  0  0  0  0  0  0  0  0  0  0
   40.7910   25.2350   30.6950 N   0  0  0  0  0  0  0  0  0  0  0  0
   38.6640   24.5370   29.3340 H   0  0  0  0  0  0  0  0  0  0  0  0
   35.6790   29.9692   30.9367 H   0  0  0  0  0  0  0  0  0  0  0  0
   37.8907   29.3323   29.5195 H   0  0  0  0  0  0  0  0  0  0  0  0
   39.0586   28.2115   34.4377 H   0  0  0  0  0  0  0  0  0  0  0  0
   36.7751   25.0942   32.4520 H   0  0  0  0  0  0  0  0  0  0  0  0
   37.1670   24.8223   37.6110 H   0  0  0  0  0  0  0  0  0  0  0  0
   38.2185   23.0801   39.3979 H   0  0  0  0  0  0  0  0  0  0  0  0
   40.7204   23.1178   35.9121 H   0  0  0  0  0  0  0  0  0  0  0  0
   40.3696   27.8979   30.7867 H   0  0  0  0  0  0  0  0  0  0  0  0
   40.8989   24.2539   30.4005 H   0  0  0  0  0  0  0  0  0  0  0  0
   41.5325   25.6923   31.2445 H   0  0  0  0  0  0  0  0  0  0  0  0
  1  7  1  0
  2  1  1  0
  3  2  2  0
  4  5  2  0
  4  3  1  0
  5  1  1  0
  6 11  2  0
  7  6  1  0
  8  7  2  0
  8  9  1  0
  9 10  2  0
 10 11  1  0
 10 12  1  0
 12 16  1  0
 12 13  1  0
 13 14  2  0
 15 14  1  0
 16 15  2  0
 17  5  1  0
 18 20  1  0
 18 17  1  0
 19 18  2  0
 21 19  1  0
  3 22  1  0
  4 23  1  0
  6 24  1  0
  8 25  1  0
 13 26  1  0
 14 27  1  0
 16 28  1  0
 17 29  1  0
 20 30  1  0
 20 31  1  0
M  ISO  7  22  14  23  14  24  14  25  14  26  14  27  14  28  14
M  END
>  <minimizedAffinity>  (1) 
-4.67324162

>  <minimizedRMSD>  (1) 
4.77203083

$$$$
