
     RDKit          3D

 27 28  0  0  0  0  0  0  0  0999 V2000
   37.8110   25.7600   33.2150 N   0  0  0  0  0  0  0  0  0  0  0  0
   36.8270   25.5410   32.3540 N   0  0  0  0  0  0  0  0  0  0  0  0
   36.9880   26.2700   31.2430 C   0  0  0  0  0  0  0  0  0  0  0  0
   38.1530   26.9820   31.4430 C   0  0  0  0  0  0  0  0  0  0  0  0
   38.6680   26.6500   32.7030 C   0  0  0  0  0  0  0  0  0  0  0  0
   37.7680   25.9010   35.6390 C   0  0  0  0  0  0  0  0  0  0  0  0
   37.9220   25.1440   34.4730 C   0  0  0  0  0  0  0  0  0  0  0  0
   38.1870   23.7740   34.5750 C   0  0  0  0  0  0  0  0  0  0  0  0
   38.2800   23.2580   35.8420 N   0  0  0  0  0  0  0  0  0  0  0  0
   38.1300   23.9900   36.9390 C   0  0  0  0  0  0  0  0  0  0  0  0
   37.8760   25.3090   36.8380 N   0  0  0  0  0  0  0  0  0  0  0  0
   38.2410   23.3740   38.2520 C   0  0  0  0  0  0  0  0  0  0  0  0
   39.1970   23.6500   39.0140 O   0  0  0  0  0  0  0  0  0  0  0  0
   37.2700   22.4530   38.6810 O   0  0  0  0  0  0  0  0  0  0  0  0
   39.8710   27.1920   33.2610 N   0  0  0  0  0  0  0  0  0  0  0  0
   41.0270   26.3950   33.4930 C   0  0  0  0  0  0  0  0  0  0  0  0
   41.2700   25.4700   32.6020 N   0  0  0  0  0  0  0  0  0  0  0  0
   41.7850   26.7090   34.6810 N   0  0  0  0  0  0  0  0  0  0  0  0
   42.1290   24.9080   32.7910 H   0  0  0  0  0  0  0  0  0  0  0  0
   36.3324   26.2959   30.3601 H   0  0  0  0  0  0  0  0  0  0  0  0
   38.6021   27.6914   30.7323 H   0  0  0  0  0  0  0  0  0  0  0  0
   37.5589   26.9789   35.5731 H   0  0  0  0  0  0  0  0  0  0  0  0
   38.3144   23.1424   33.6834 H   0  0  0  0  0  0  0  0  0  0  0  0
   37.3459   22.0339   39.5747 H   0  0  0  0  0  0  0  0  0  0  0  0
   39.9003   28.1928   33.5026 H   0  0  0  0  0  0  0  0  0  0  0  0
   42.6330   26.1703   34.9082 H   0  0  0  0  0  0  0  0  0  0  0  0
   41.4777   27.4717   35.3014 H   0  0  0  0  0  0  0  0  0  0  0  0
  1  7  1  0
  2  1  1  0
  3  4  1  0
  3  2  2  0
  4  5  2  0
  5  1  1  0
  5 15  1  0
  6 11  2  0
  7  8  2  0
  7  6  1  0
  8  9  1  0
  9 10  2  0
 10 12  1  0
 11 10  1  0
 12 14  1  0
 12 13  2  0
 15 16  1  0
 16 18  1  0
 17 19  1  0
 17 16  2  0
  3 20  1  0
  4 21  1  0
  6 22  1  0
  8 23  1  0
 14 24  1  0
 15 25  1  0
 18 26  1  0
 18 27  1  0
M  ISO  5  20  14  21  14  22  14  23  14  24   3
M  END
>  <minimizedAffinity>  (1) 
-4.46542645

>  <minimizedRMSD>  (1) 
2.67927146

$$$$
