
     RDKit          3D

 31 33  0  0  0  0  0  0  0  0999 V2000
   39.5580   24.0830   36.0270 N   0  0  0  0  0  0  0  0  0  0  0  0
   39.0990   23.5860   37.1640 N   0  0  0  0  0  0  0  0  0  0  0  0
   39.9360   22.7010   37.7020 C   0  0  0  0  0  0  0  0  0  0  0  0
   41.0140   22.6460   36.8180 C   0  0  0  0  0  0  0  0  0  0  0  0
   40.7570   23.5280   35.7630 C   0  0  0  0  0  0  0  0  0  0  0  0
   38.1020   24.6260   34.1660 C   0  0  0  0  0  0  0  0  0  0  0  0
   38.9000   25.0300   35.2390 C   0  0  0  0  0  0  0  0  0  0  0  0
   39.0390   26.4080   35.5240 C   0  0  0  0  0  0  0  0  0  0  0  0
   38.3630   27.2660   34.7060 N   0  0  0  0  0  0  0  0  0  0  0  0
   37.6060   26.8680   33.6870 C   0  0  0  0  0  0  0  0  0  0  0  0
   37.4680   25.5380   33.4070 N   0  0  0  0  0  0  0  0  0  0  0  0
   36.8860   27.7900   32.8160 C   0  0  0  0  0  0  0  0  0  0  0  0
   36.0070   28.8230   33.0790 C   0  0  0  0  0  0  0  0  0  0  0  0
   35.6670   29.3140   31.8180 C   0  0  0  0  0  0  0  0  0  0  0  0
   36.3520   28.5570   30.8590 C   0  0  0  0  0  0  0  0  0  0  0  0
   37.0710   27.6520   31.5210 O   0  0  0  0  0  0  0  0  0  0  0  0
   41.6290   23.7530   34.6540 N   0  0  0  0  0  0  0  0  0  0  0  0
   42.3420   24.9830   34.4600 C   0  0  0  0  0  0  0  0  0  0  0  0
   42.7730   25.5570   35.5570 N   0  0  0  0  0  0  0  0  0  0  0  0
   42.4940   25.4290   33.1090 N   0  0  0  0  0  0  0  0  0  0  0  0
   43.2950   26.4470   35.3940 H   0  0  0  0  0  0  0  0  0  0  0  0
   39.8061   22.1373   38.6376 H   0  0  0  0  0  0  0  0  0  0  0  0
   41.9102   22.0182   36.9310 H   0  0  0  0  0  0  0  0  0  0  0  0
   37.9913   23.5551   33.9402 H   0  0  0  0  0  0  0  0  0  0  0  0
   39.6578   26.7685   36.3589 H   0  0  0  0  0  0  0  0  0  0  0  0
   35.6554   29.1775   34.0591 H   0  0  0  0  0  0  0  0  0  0  0  0
   34.9812   30.1492   31.6129 H   0  0  0  0  0  0  0  0  0  0  0  0
   36.3051   28.6854   29.7675 H   0  0  0  0  0  0  0  0  0  0  0  0
   41.7513   22.9989   33.9631 H   0  0  0  0  0  0  0  0  0  0  0  0
   42.9970   26.3054   32.9095 H   0  0  0  0  0  0  0  0  0  0  0  0
   42.1005   24.8736   32.3360 H   0  0  0  0  0  0  0  0  0  0  0  0
  1  2  1  0
  2  3  2  0
  4  3  1  0
  5  1  1  0
  5  4  2  0
  6  7  2  0
  7  8  1  0
  7  1  1  0
  9  8  2  0
 10  9  1  0
 11 10  2  0
 11  6  1  0
 12 13  2  0
 12 10  1  0
 14 13  1  0
 15 16  1  0
 15 14  2  0
 16 12  1  0
 17  5  1  0
 18 17  1  0
 18 19  2  0
 20 18  1  0
 21 19  1  0
  3 22  1  0
  4 23  1  0
  6 24  1  0
  8 25  1  0
 13 26  1  0
 14 27  1  0
 15 28  1  0
 17 29  1  0
 20 30  1  0
 20 31  1  0
M  ISO  7  22  14  23  14  24  14  25  14  26  14  27  14  28  14
M  END
>  <minimizedAffinity>  (1) 
-4.41982079

>  <minimizedRMSD>  (1) 
6.78763962

$$$$
