
     RDKit          3D

 26 27  0  0  0  0  0  0  0  0999 V2000
   38.4540   24.2610   33.7620 N   0  0  0  0  0  0  0  0  0  0  0  0
   38.5530   23.4350   32.7380 N   0  0  0  0  0  0  0  0  0  0  0  0
   38.4870   24.0830   31.5770 C   0  0  0  0  0  0  0  0  0  0  0  0
   38.3340   25.4310   31.9130 C   0  0  0  0  0  0  0  0  0  0  0  0
   38.3160   25.5200   33.3060 C   0  0  0  0  0  0  0  0  0  0  0  0
   37.4010   24.0960   35.9370 C   0  0  0  0  0  0  0  0  0  0  0  0
   38.4890   23.8810   35.1150 C   0  0  0  0  0  0  0  0  0  0  0  0
   39.6430   23.2760   35.6350 C   0  0  0  0  0  0  0  0  0  0  0  0
   39.6010   22.9310   36.9660 N   0  0  0  0  0  0  0  0  0  0  0  0
   38.5380   23.1490   37.7420 C   0  0  0  0  0  0  0  0  0  0  0  0
   37.4360   23.7310   37.2310 N   0  0  0  0  0  0  0  0  0  0  0  0
   38.6980   22.7200   39.0920 N   0  0  0  0  0  0  0  0  0  0  0  0
   38.1730   26.7430   34.0260 N   0  0  0  0  0  0  0  0  0  0  0  0
   39.1260   27.1720   35.0070 C   0  0  0  0  0  0  0  0  0  0  0  0
   40.3730   26.9030   34.7410 N   0  0  0  0  0  0  0  0  0  0  0  0
   38.5910   27.8480   36.1660 N   0  0  0  0  0  0  0  0  0  0  0  0
   41.0500   27.2270   35.4660 H   0  0  0  0  0  0  0  0  0  0  0  0
   38.5413   23.6495   30.5675 H   0  0  0  0  0  0  0  0  0  0  0  0
   38.2440   26.2701   31.2074 H   0  0  0  0  0  0  0  0  0  0  0  0
   36.4962   24.5707   35.5295 H   0  0  0  0  0  0  0  0  0  0  0  0
   40.5311   23.0882   35.0137 H   0  0  0  0  0  0  0  0  0  0  0  0
   37.9303   22.8465   39.7670 H   0  0  0  0  0  0  0  0  0  0  0  0
   39.5813   22.2836   39.3924 H   0  0  0  0  0  0  0  0  0  0  0  0
   37.3554   27.3394   33.8341 H   0  0  0  0  0  0  0  0  0  0  0  0
   39.2250   28.1805   36.9065 H   0  0  0  0  0  0  0  0  0  0  0  0
   37.5755   27.9975   36.2519 H   0  0  0  0  0  0  0  0  0  0  0  0
  1  7  1  0
  2  1  1  0
  3  4  1  0
  3  2  2  0
  4  5  2  0
  5  1  1  0
  5 13  1  0
  6 11  2  0
  7  8  2  0
  7  6  1  0
  8  9  1  0
  9 10  2  0
 10 12  1  0
 11 10  1  0
 13 14  1  0
 14 16  1  0
 15 14  2  0
 15 17  1  0
  3 18  1  0
  4 19  1  0
  6 20  1  0
  8 21  1  0
 12 22  1  0
 12 23  1  0
 13 24  1  0
 16 25  1  0
 16 26  1  0
M  ISO  4  18  14  19  14  20  14  21  14
M  END
>  <minimizedAffinity>  (1) 
-4.27751684

>  <minimizedRMSD>  (1) 
1.08331776

$$$$
