
     RDKit          3D

 46 49  0  0  0  0  0  0  0  0999 V2000
   37.9520   25.0410   34.3370 C   0  0  0  0  0  0  0  0  0  0  0  0
   38.6600   25.2540   35.5160 C   0  0  0  0  0  0  0  0  0  0  0  0
   38.6500   26.5330   36.1070 C   0  0  0  0  0  0  0  0  0  0  0  0
   37.9330   27.4970   35.4690 N   0  0  0  0  0  0  0  0  0  0  0  0
   37.2580   27.2750   34.3360 C   0  0  0  0  0  0  0  0  0  0  0  0
   37.2650   26.0450   33.7650 N   0  0  0  0  0  0  0  0  0  0  0  0
   39.3720   24.2070   36.1070 N   0  0  0  0  0  0  0  0  0  0  0  0
   39.0370   23.6030   37.2440 N   0  0  0  0  0  0  0  0  0  0  0  0
   39.9080   22.6380   37.5580 C   0  0  0  0  0  0  0  0  0  0  0  0
   40.8570   22.6480   36.5360 C   0  0  0  0  0  0  0  0  0  0  0  0
   40.5080   23.6450   35.6220 C   0  0  0  0  0  0  0  0  0  0  0  0
   41.2290   23.9660   34.4410 N   0  0  0  0  0  0  0  0  0  0  0  0
   41.9100   25.2220   34.2700 C   0  0  0  0  0  0  0  0  0  0  0  0
   42.4700   25.7230   35.3480 N   0  0  0  0  0  0  0  0  0  0  0  0
   41.9020   25.7810   32.9550 N   0  0  0  0  0  0  0  0  0  0  0  0
   42.9560   26.6280   35.1980 H   0  0  0  0  0  0  0  0  0  0  0  0
   36.4900   28.3110   33.6540 C   0  0  0  0  0  0  0  0  0  0  0  0
   35.3570   29.0180   34.0080 C   0  0  0  0  0  0  0  0  0  0  0  0
   35.1270   29.8660   32.9120 C   0  0  0  0  0  0  0  0  0  0  0  0
   36.1260   29.6210   31.9750 C   0  0  0  0  0  0  0  0  0  0  0  0
   36.9210   28.6830   32.4580 O   0  0  0  0  0  0  0  0  0  0  0  0
   36.1940   30.3140   30.7360 N   0  0  0  0  0  0  0  0  0  0  0  0
   35.4680   31.5640   30.6200 C   0  0  0  0  0  0  0  0  0  0  0  0
   36.3130   32.4120   29.6600 C   0  0  0  0  0  0  0  0  0  0  0  0
   37.7770   32.0990   29.8760 C   0  0  0  0  0  0  0  0  0  0  0  0
   38.1720   30.7120   29.4720 C   0  0  0  0  0  0  0  0  0  0  0  0
   36.9540   29.8200   29.6030 C   0  0  0  0  0  0  0  0  0  0  0  0
   37.9545   24.0449   33.8702 H   0  0  0  0  0  0  0  0  0  0  0  0
   39.1955   26.7419   37.0391 H   0  0  0  0  0  0  0  0  0  0  0  0
   39.8815   21.9764   38.4364 H   0  0  0  0  0  0  0  0  0  0  0  0
   41.7310   21.9842   36.4623 H   0  0  0  0  0  0  0  0  0  0  0  0
   41.2657   23.2741   33.6788 H   0  0  0  0  0  0  0  0  0  0  0  0
   42.3739   26.6785   32.7740 H   0  0  0  0  0  0  0  0  0  0  0  0
   41.4244   25.2864   32.1881 H   0  0  0  0  0  0  0  0  0  0  0  0
   34.7702   28.9358   34.9347 H   0  0  0  0  0  0  0  0  0  0  0  0
   34.3064   30.5917   32.8126 H   0  0  0  0  0  0  0  0  0  0  0  0
   34.4633   31.3930   30.2060 H   0  0  0  0  0  0  0  0  0  0  0  0
   35.3223   32.0548   31.5936 H   0  0  0  0  0  0  0  0  0  0  0  0
   36.1323   33.4792   29.8558 H   0  0  0  0  0  0  0  0  0  0  0  0
   36.0353   32.1807   28.6211 H   0  0  0  0  0  0  0  0  0  0  0  0
   38.3732   32.8128   29.2886 H   0  0  0  0  0  0  0  0  0  0  0  0
   37.9623   32.1792   30.9573 H   0  0  0  0  0  0  0  0  0  0  0  0
   38.9747   30.3463   30.1293 H   0  0  0  0  0  0  0  0  0  0  0  0
   38.5393   30.7065   28.4351 H   0  0  0  0  0  0  0  0  0  0  0  0
   36.3463   29.8717   28.6876 H   0  0  0  0  0  0  0  0  0  0  0  0
   37.2471   28.7702   29.7512 H   0  0  0  0  0  0  0  0  0  0  0  0
  1  2  2  0
  2  7  1  0
  2  3  1  0
  4  3  2  0
  5  4  1  0
  6  5  2  0
  6  1  1  0
  7  8  1  0
  8  9  2  0
 10  9  1  0
 11  7  1  0
 11 10  2  0
 12 11  1  0
 13 12  1  0
 13 14  2  0
 15 13  1  0
 16 14  1  0
 17 18  2  0
 17  5  1  0
 19 18  1  0
 20 21  1  0
 20 19  2  0
 21 17  1  0
 22 20  1  0
 23 22  1  0
 24 25  1  0
 24 23  1  0
 26 27  1  0
 26 25  1  0
 27 22  1  0
  1 28  1  0
  3 29  1  0
  9 30  1  0
 10 31  1  0
 12 32  1  0
 15 33  1  0
 15 34  1  0
 18 35  1  0
 19 36  1  0
 23 37  1  0
 23 38  1  0
 24 39  1  0
 24 40  1  0
 25 41  1  0
 25 42  1  0
 26 43  1  0
 26 44  1  0
 27 45  1  0
 27 46  1  0
M  ISO  8  28  14  29  14  30  14  31  14  35  14  36  14  37  13  38  13
M  ISO  8  39  13  40  13  41  13  42  13  43  13  44  13  45  13  46  13
M  END
>  <minimizedAffinity>  (1) 
-5.17625237

>  <minimizedRMSD>  (1) 
1.35235691

$$$$
