
     RDKit          3D

 37 40  0  0  0  0  0  0  0  0999 V2000
   37.8520   25.2790   34.2410 C   0  0  0  0  0  0  0  0  0  0  0  0
   38.7360   25.3750   35.3030 C   0  0  0  0  0  0  0  0  0  0  0  0
   38.8260   26.5890   36.0410 C   0  0  0  0  0  0  0  0  0  0  0  0
   38.0080   27.6010   35.6350 N   0  0  0  0  0  0  0  0  0  0  0  0
   37.1600   27.5000   34.6120 C   0  0  0  0  0  0  0  0  0  0  0  0
   37.0790   26.3230   33.9030 N   0  0  0  0  0  0  0  0  0  0  0  0
   39.5430   24.2940   35.6600 N   0  0  0  0  0  0  0  0  0  0  0  0
   39.2720   23.4330   36.6390 N   0  0  0  0  0  0  0  0  0  0  0  0
   40.2210   22.5010   36.7540 C   0  0  0  0  0  0  0  0  0  0  0  0
   41.1500   22.8080   35.7710 C   0  0  0  0  0  0  0  0  0  0  0  0
   40.7060   23.9400   35.0910 C   0  0  0  0  0  0  0  0  0  0  0  0
   41.3980   24.5710   33.9990 N   0  0  0  0  0  0  0  0  0  0  0  0
   42.1480   25.7800   34.1600 C   0  0  0  0  0  0  0  0  0  0  0  0
   42.7940   25.9090   35.3040 N   0  0  0  0  0  0  0  0  0  0  0  0
   42.0980   26.6940   33.0530 N   0  0  0  0  0  0  0  0  0  0  0  0
   43.3420   26.7830   35.3700 H   0  0  0  0  0  0  0  0  0  0  0  0
   36.2890   28.5740   34.1810 C   0  0  0  0  0  0  0  0  0  0  0  0
   35.5890   28.8200   33.0280 C   0  0  0  0  0  0  0  0  0  0  0  0
   34.9480   30.0230   33.2490 C   0  0  0  0  0  0  0  0  0  0  0  0
   35.2730   30.4730   34.5230 C   0  0  0  0  0  0  0  0  0  0  0  0
   36.0820   29.5480   35.0190 O   0  0  0  0  0  0  0  0  0  0  0  0
   34.8560   31.6800   35.2210 C   0  0  0  0  0  0  0  0  0  0  0  0
   34.1790   32.7350   34.4700 C   0  0  0  0  0  0  0  0  0  0  0  0
   33.8690   34.0220   35.8010 S   0  0  0  0  0  0  0  0  0  0  0  0
   34.6790   32.9390   37.0670 C   0  0  0  0  0  0  0  0  0  0  0  0
   35.0300   31.9300   36.4980 N   0  0  0  0  0  0  0  0  0  0  0  0
   37.7830   24.3409   33.6708 H   0  0  0  0  0  0  0  0  0  0  0  0
   39.5159   26.7038   36.8900 H   0  0  0  0  0  0  0  0  0  0  0  0
   40.2581   21.6693   37.4730 H   0  0  0  0  0  0  0  0  0  0  0  0
   42.0772   22.2535   35.5640 H   0  0  0  0  0  0  0  0  0  0  0  0
   41.3522   24.1367   33.0662 H   0  0  0  0  0  0  0  0  0  0  0  0
   42.6131   27.5848   33.0970 H   0  0  0  0  0  0  0  0  0  0  0  0
   41.5470   26.4586   32.2152 H   0  0  0  0  0  0  0  0  0  0  0  0
   35.5471   28.1951   32.1237 H   0  0  0  0  0  0  0  0  0  0  0  0
   34.2894   30.5394   32.5351 H   0  0  0  0  0  0  0  0  0  0  0  0
   33.9186   32.7668   33.4017 H   0  0  0  0  0  0  0  0  0  0  0  0
   34.8152   33.1693   38.1340 H   0  0  0  0  0  0  0  0  0  0  0  0
  1  2  2  0
  2  7  1  0
  2  3  1  0
  4  3  2  0
  5  4  1  0
  6  1  1  0
  6  5  2  0
  7  8  1  0
  8  9  2  0
 10  9  1  0
 11  7  1  0
 11 10  2  0
 12 13  1  0
 12 11  1  0
 13 14  2  0
 14 16  1  0
 15 13  1  0
 17  5  1  0
 17 21  1  0
 18 19  1  0
 18 17  2  0
 19 20  2  0
 20 21  1  0
 20 22  1  0
 22 26  1  0
 23 22  2  0
 23 24  1  0
 24 25  1  0
 26 25  2  0
  1 27  1  0
  3 28  1  0
  9 29  1  0
 10 30  1  0
 12 31  1  0
 15 32  1  0
 15 33  1  0
 18 34  1  0
 19 35  1  0
 23 36  1  0
 25 37  1  0
M  ISO  8  27  14  28  14  29  14  30  14  34  14  35  14  36  14  37  14
M  END
>  <minimizedAffinity>  (1) 
-5.07847595

>  <minimizedRMSD>  (1) 
4.26344967

$$$$
