
     RDKit          3D

 38 41  0  0  0  0  0  0  0  0999 V2000
   37.9620   25.0360   34.3560 C   0  0  0  0  0  0  0  0  0  0  0  0
   38.6580   25.2300   35.5380 C   0  0  0  0  0  0  0  0  0  0  0  0
   38.6250   26.4970   36.1700 C   0  0  0  0  0  0  0  0  0  0  0  0
   37.8840   27.4610   35.5430 N   0  0  0  0  0  0  0  0  0  0  0  0
   37.2230   27.2720   34.4170 C   0  0  0  0  0  0  0  0  0  0  0  0
   37.2570   26.0390   33.8050 N   0  0  0  0  0  0  0  0  0  0  0  0
   39.3920   24.1840   36.1120 N   0  0  0  0  0  0  0  0  0  0  0  0
   39.0780   23.5620   37.2380 N   0  0  0  0  0  0  0  0  0  0  0  0
   39.9540   22.6090   37.5440 C   0  0  0  0  0  0  0  0  0  0  0  0
   40.8900   22.6450   36.5180 C   0  0  0  0  0  0  0  0  0  0  0  0
   40.5220   23.6470   35.6180 C   0  0  0  0  0  0  0  0  0  0  0  0
   41.2400   23.9950   34.4210 N   0  0  0  0  0  0  0  0  0  0  0  0
   41.9140   25.2570   34.2640 C   0  0  0  0  0  0  0  0  0  0  0  0
   42.4780   25.7270   35.3430 N   0  0  0  0  0  0  0  0  0  0  0  0
   41.8780   25.8290   32.9590 N   0  0  0  0  0  0  0  0  0  0  0  0
   42.9690   26.6430   35.1980 H   0  0  0  0  0  0  0  0  0  0  0  0
   36.4350   28.2950   33.7470 C   0  0  0  0  0  0  0  0  0  0  0  0
   35.4100   29.0990   34.1920 C   0  0  0  0  0  0  0  0  0  0  0  0
   35.0710   29.8710   33.0730 C   0  0  0  0  0  0  0  0  0  0  0  0
   35.9120   29.4840   32.0190 C   0  0  0  0  0  0  0  0  0  0  0  0
   36.7170   28.5320   32.4750 O   0  0  0  0  0  0  0  0  0  0  0  0
   35.9200   30.0300   30.6360 C   0  0  0  0  0  0  0  0  0  0  0  0
   37.0350   29.7620   29.7210 C   0  0  0  0  0  0  0  0  0  0  0  0
   37.0240   31.0900   30.3860 C   0  0  0  0  0  0  0  0  0  0  0  0
   37.9865   24.0524   33.8641 H   0  0  0  0  0  0  0  0  0  0  0  0
   39.1631   26.6942   37.1089 H   0  0  0  0  0  0  0  0  0  0  0  0
   39.9403   21.9399   38.4170 H   0  0  0  0  0  0  0  0  0  0  0  0
   41.7722   21.9939   36.4296 H   0  0  0  0  0  0  0  0  0  0  0  0
   41.2730   23.3157   33.6475 H   0  0  0  0  0  0  0  0  0  0  0  0
   42.3412   26.7312   32.7792 H   0  0  0  0  0  0  0  0  0  0  0  0
   41.3888   25.3401   32.1957 H   0  0  0  0  0  0  0  0  0  0  0  0
   34.9604   29.1286   35.1955 H   0  0  0  0  0  0  0  0  0  0  0  0
   34.2870   30.6414   33.0289 H   0  0  0  0  0  0  0  0  0  0  0  0
   34.8298   29.9307   30.5280 H   0  0  0  0  0  0  0  0  0  0  0  0
   36.8433   29.6974   28.6398 H   0  0  0  0  0  0  0  0  0  0  0  0
   37.7804   28.9561   29.6510 H   0  0  0  0  0  0  0  0  0  0  0  0
   37.7576   31.3248   31.1713 H   0  0  0  0  0  0  0  0  0  0  0  0
   37.0529   32.1393   30.0573 H   0  0  0  0  0  0  0  0  0  0  0  0
  1  2  2  0
  2  7  1  0
  2  3  1  0
  4  3  2  0
  5  4  1  0
  6  1  1  0
  6  5  2  0
  7  8  1  0
  8  9  2  0
 10  9  1  0
 11  7  1  0
 11 10  2  0
 12 11  1  0
 13 12  1  0
 13 14  2  0
 15 13  1  0
 16 14  1  0
 17 18  2  0
 17  5  1  0
 19 18  1  0
 20 21  1  0
 20 19  2  0
 21 17  1  0
 22 20  1  0
 23 24  1  0
 23 22  1  0
 24 22  1  0
  1 25  1  0
  3 26  1  0
  9 27  1  0
 10 28  1  0
 12 29  1  0
 15 30  1  0
 15 31  1  0
 18 32  1  0
 19 33  1  0
 22 34  1  0
 23 35  1  0
 23 36  1  0
 24 37  1  0
 24 38  1  0
M  ISO  8  25  14  26  14  27  14  28  14  32  14  33  14  34  13  35  13
M  ISO  3  36  13  37  13  38  13
M  END
>  <minimizedAffinity>  (1) 
-5.0246439

>  <minimizedRMSD>  (1) 
1.06017184

$$$$
