
     RDKit          3D

 11 11  0  0  0  0  0  0  0  0999 V2000
   40.4660   22.3460   37.4870 C   0  0  0  0  0  0  0  0  0  0  0  0
   39.6620   23.1620   38.3180 C   0  0  0  0  0  0  0  0  0  0  0  0
   38.3840   23.5240   37.8580 C   0  0  0  0  0  0  0  0  0  0  0  0
   37.9920   23.0670   36.6360 N   0  0  0  0  0  0  0  0  0  0  0  0
   38.7850   22.2940   35.8750 C   0  0  0  0  0  0  0  0  0  0  0  0
   40.0190   21.9290   36.2930 N   0  0  0  0  0  0  0  0  0  0  0  0
   37.6550   24.3160   38.7080 O   0  0  0  0  0  0  0  0  0  0  0  0
   41.4702   22.0500   37.8245 H   0  0  0  0  0  0  0  0  0  0  0  0
   40.0274   23.5038   39.2976 H   0  0  0  0  0  0  0  0  0  0  0  0
   38.4242   21.9515   34.8939 H   0  0  0  0  0  0  0  0  0  0  0  0
   36.7454   24.6111   38.4517 H   0  0  0  0  0  0  0  0  0  0  0  0
  1  2  2  0
  3  2  1  0
  3  7  1  0
  4  3  2  0
  5  6  2  0
  5  4  1  0
  6  1  1  0
  1  8  1  0
  2  9  1  0
  5 10  1  0
  7 11  1  0
M  ISO  4   8  14   9  14  10  14  11   3
M  END
>  <minimizedAffinity>  (1) 
-2.6764853

>  <minimizedRMSD>  (1) 
0.55913341

$$$$
