
     RDKit          3D

 14 14  0  0  0  0  0  0  0  0999 V2000
   38.7340   23.3950   38.4900 C   0  0  0  0  0  0  0  0  0  0  0  0
   37.9430   24.3510   37.8000 C   0  0  0  0  0  0  0  0  0  0  0  0
   38.2910   24.6440   36.4790 C   0  0  0  0  0  0  0  0  0  0  0  0
   39.3530   24.0100   35.9280 N   0  0  0  0  0  0  0  0  0  0  0  0
   40.0790   23.1050   36.6210 C   0  0  0  0  0  0  0  0  0  0  0  0
   39.7720   22.7980   37.8980 N   0  0  0  0  0  0  0  0  0  0  0  0
   37.4950   25.5760   35.8530 O   0  0  0  0  0  0  0  0  0  0  0  0
   37.9700   26.8700   35.6050 C   0  0  0  0  0  0  0  0  0  0  0  0
   37.7630   27.5040   34.5290 O   0  0  0  0  0  0  0  0  0  0  0  0
   38.7270   27.6770   36.4460 O   0  0  0  0  0  0  0  0  0  0  0  0
   38.4875   23.1412   39.5315 H   0  0  0  0  0  0  0  0  0  0  0  0
   37.0881   24.8426   38.2873 H   0  0  0  0  0  0  0  0  0  0  0  0
   40.9338   22.6110   36.1360 H   0  0  0  0  0  0  0  0  0  0  0  0
   39.0017   28.5807   36.1495 H   0  0  0  0  0  0  0  0  0  0  0  0
  2  1  2  0
  3  2  1  0
  4  3  2  0
  4  5  1  0
  5  6  2  0
  6  1  1  0
  7  3  1  0
  8  7  1  0
  8 10  1  0
  9  8  2  0
  1 11  1  0
  2 12  1  0
  5 13  1  0
 10 14  1  0
M  ISO  4  11  14  12  14  13  14  14   3
M  END
>  <minimizedAffinity>  (1) 
-3.63171697

>  <minimizedRMSD>  (1) 
2.56945086

$$$$
