
     RDKit          3D

 23 24  0  0  0  0  0  0  0  0999 V2000
   38.8680   24.9250   34.7560 C   0  0  0  0  0  0  0  0  0  0  0  0
   39.7420   22.8250   37.7170 C   0  0  0  0  0  0  0  0  0  0  0  0
   38.8320   23.2950   38.6750 C   0  0  0  0  0  0  0  0  0  0  0  0
   37.9290   24.3250   38.2950 C   0  0  0  0  0  0  0  0  0  0  0  0
   38.0040   24.7960   37.0150 N   0  0  0  0  0  0  0  0  0  0  0  0
   38.9050   24.3020   36.1370 C   0  0  0  0  0  0  0  0  0  0  0  0
   39.7620   23.3390   36.4670 N   0  0  0  0  0  0  0  0  0  0  0  0
   38.9170   26.4150   34.8630 C   0  0  0  0  0  0  0  0  0  0  0  0
   37.9590   27.1620   34.0910 C   0  0  0  0  0  0  0  0  0  0  0  0
   36.9830   27.8560   34.7010 C   0  0  0  0  0  0  0  0  0  0  0  0
   36.0010   28.6080   34.1400 C   0  0  0  0  0  0  0  0  0  0  0  0
   36.1360   28.5740   32.6520 C   0  0  0  0  0  0  0  0  0  0  0  0
   37.6700   27.4530   32.3700 S   0  0  0  0  0  0  0  0  0  0  0  0
   37.9393   24.6272   34.2473 H   0  0  0  0  0  0  0  0  0  0  0  0
   39.7383   24.5766   34.1805 H   0  0  0  0  0  0  0  0  0  0  0  0
   40.4494   22.0269   37.9866 H   0  0  0  0  0  0  0  0  0  0  0  0
   38.8174   22.8780   39.6928 H   0  0  0  0  0  0  0  0  0  0  0  0
   37.1948   24.7290   39.0075 H   0  0  0  0  0  0  0  0  0  0  0  0
   38.7652   26.6759   35.9208 H   0  0  0  0  0  0  0  0  0  0  0  0
   39.8963   26.6968   34.4489 H   0  0  0  0  0  0  0  0  0  0  0  0
   36.9790   27.8087   35.8000 H   0  0  0  0  0  0  0  0  0  0  0  0
   35.2261   29.1572   34.6950 H   0  0  0  0  0  0  0  0  0  0  0  0
   35.5075   29.0717   31.8988 H   0  0  0  0  0  0  0  0  0  0  0  0
  1  8  1  0
  1  6  1  0
  2  3  2  0
  4  3  1  0
  5  4  2  0
  6  7  2  0
  6  5  1  0
  7  2  1  0
  9 10  2  0
  9  8  1  0
 11 10  1  0
 12 11  2  0
 13 12  1  0
 13  9  1  0
  1 14  1  0
  1 15  1  0
  2 16  1  0
  3 17  1  0
  4 18  1  0
  8 19  1  0
  8 20  1  0
 10 21  1  0
 11 22  1  0
 12 23  1  0
M  ISO  8  14   8  15   8  16  14  17  14  18  14  19   8  20   8  21  14
M  ISO  2  22  14  23  14
M  END
>  <minimizedAffinity>  (1) 
-3.84995317

>  <minimizedRMSD>  (1) 
1.75098097

$$$$
