
     RDKit          3D

 13 13  0  0  0  0  0  0  0  0999 V2000
   38.7270   23.4200   38.5160 C   0  0  0  0  0  0  0  0  0  0  0  0
   37.9840   24.3630   37.7820 C   0  0  0  0  0  0  0  0  0  0  0  0
   38.3350   24.6020   36.4500 C   0  0  0  0  0  0  0  0  0  0  0  0
   39.3920   23.9020   35.9220 N   0  0  0  0  0  0  0  0  0  0  0  0
   40.0700   23.0110   36.6650 C   0  0  0  0  0  0  0  0  0  0  0  0
   39.7540   22.7600   37.9510 N   0  0  0  0  0  0  0  0  0  0  0  0
   37.5910   25.5210   35.7750 O   0  0  0  0  0  0  0  0  0  0  0  0
   38.0330   26.8520   35.8070 C   0  0  0  0  0  0  0  0  0  0  0  0
   39.2380   27.2670   35.7090 O   0  0  0  0  0  0  0  0  0  0  0  0
   38.4646   23.2199   39.5654 H   0  0  0  0  0  0  0  0  0  0  0  0
   37.1445   24.9009   38.2466 H   0  0  0  0  0  0  0  0  0  0  0  0
   40.9109   22.4684   36.2085 H   0  0  0  0  0  0  0  0  0  0  0  0
   37.2579   27.6228   35.9299 H   0  0  0  0  0  0  0  0  0  0  0  0
  2  1  2  0
  3  2  1  0
  4  3  2  0
  4  5  1  0
  5  6  2  0
  6  1  1  0
  7  8  1  0
  7  3  1  0
  9  8  2  0
  1 10  1  0
  2 11  1  0
  5 12  1  0
  8 13  1  0
M  ISO  4  10  14  11  14  12  14  13   6
M  END
>  <minimizedAffinity>  (1) 
-3.05099869

>  <minimizedRMSD>  (1) 
3.42216444

$$$$
