
     RDKit          3D

 29 32  0  0  1  0  0  0  0  0999 V2000
   43.2030   24.4310   35.9820 C   0  0  1  0  0  0  0  0  0  0  0  0
   42.5240   24.1130   34.7250 C   0  0  0  0  0  0  0  0  0  0  0  0
   42.3350   23.1730   35.8550 C   0  0  2  0  0  0  0  0  0  0  0  0
   41.0080   23.2300   36.4360 N   0  0  0  0  0  0  0  0  0  0  0  0
   40.5260   22.5200   37.4980 C   0  0  0  0  0  0  0  0  0  0  0  0
   39.2620   22.8250   37.7590 N   0  0  0  0  0  0  0  0  0  0  0  0
   38.8640   23.7470   36.8760 C   0  0  0  0  0  0  0  0  0  0  0  0
   37.6730   24.4150   36.6770 C   0  0  0  0  0  0  0  0  0  0  0  0
   37.5360   25.3160   35.6910 N   0  0  0  0  0  0  0  0  0  0  0  0
   38.6250   25.5300   34.9110 C   0  0  0  0  0  0  0  0  0  0  0  0
   39.8220   24.8930   35.0700 N   0  0  0  0  0  0  0  0  0  0  0  0
   39.9570   23.9850   36.0660 C   0  0  0  0  0  0  0  0  0  0  0  0
   44.6120   24.1910   35.9150 O   0  0  0  0  0  0  0  0  0  0  0  0
   47.7010   23.9600   37.7230 C   0  0  0  0  0  0  0  0  0  0  0  0
   46.6970   23.8150   36.7130 C   0  0  0  0  0  0  0  0  0  0  0  0
   45.4570   24.4400   36.9710 C   0  0  0  0  0  0  0  0  0  0  0  0
   45.2530   25.1360   38.1180 N   0  0  0  0  0  0  0  0  0  0  0  0
   46.2350   25.2380   39.0300 C   0  0  0  0  0  0  0  0  0  0  0  0
   47.4270   24.6680   38.8430 N   0  0  0  0  0  0  0  0  0  0  0  0
   43.2349   25.2812   36.6793 H   0  0  0  0  0  0  0  0  0  0  0  0
   43.1166   23.8001   33.8527 H   0  0  0  0  0  0  0  0  0  0  0  0
   41.8336   24.6664   34.0715 H   0  0  0  0  0  0  0  0  0  0  0  0
   42.4939   22.1030   36.0548 H   0  0  0  0  0  0  0  0  0  0  0  0
   41.1140   21.7851   38.0673 H   0  0  0  0  0  0  0  0  0  0  0  0
   36.8197   24.2053   37.3387 H   0  0  0  0  0  0  0  0  0  0  0  0
   38.5379   26.2649   34.0971 H   0  0  0  0  0  0  0  0  0  0  0  0
   48.6903   23.4981   37.5892 H   0  0  0  0  0  0  0  0  0  0  0  0
   46.8809   23.2487   35.7881 H   0  0  0  0  0  0  0  0  0  0  0  0
   46.0514   25.8058   39.9541 H   0  0  0  0  0  0  0  0  0  0  0  0
  2  3  1  0
  2  1  1  0
  3  1  1  0
  3  4  1  0
  4  5  1  0
  5  6  2  0
  7  6  1  0
  8  7  2  0
  9  8  1  0
 10 11  1  0
 10  9  2  0
 11 12  2  0
 12  4  1  0
 12  7  1  0
 13  1  1  0
 13 16  1  0
 14 19  2  0
 15 16  2  0
 15 14  1  0
 16 17  1  0
 17 18  2  0
 19 18  1  0
  1 20  1  1
  2 21  1  0
  2 22  1  0
  3 23  1  6
  5 24  1  0
  8 25  1  0
 10 26  1  0
 14 27  1  0
 15 28  1  0
 18 29  1  0
M  ISO  8  20  13  21  13  22  13  23  13  24  14  25  14  26  14  27  14
M  ISO  2  28  14  29  14
M  END
>  <minimizedAffinity>  (1) 
-4.28876734

>  <minimizedRMSD>  (1) 
7.61397696

$$$$
