
     RDKit          3D

 28 30  0  0  1  0  0  0  0  0999 V2000
   44.9160   25.1850   37.2730 C   0  0  1  0  0  0  0  0  0  0  0  0
   44.9890   26.0600   38.4400 C   0  0  0  0  0  0  0  0  0  0  0  0
   45.9710   24.9530   38.3650 C   0  0  2  0  0  0  0  0  0  0  0  0
   47.3900   25.2150   38.0390 C   0  0  0  0  0  0  0  0  0  0  0  0
   47.7560   26.3820   37.3590 C   0  0  0  0  0  0  0  0  0  0  0  0
   49.0960   26.6260   37.0540 C   0  0  0  0  0  0  0  0  0  0  0  0
   50.0450   25.6960   37.4330 C   0  0  0  0  0  0  0  0  0  0  0  0
   49.7260   24.5250   38.1090 C   0  0  0  0  0  0  0  0  0  0  0  0
   48.4070   24.3230   38.3890 C   0  0  0  0  0  0  0  0  0  0  0  0
   43.8190   24.2560   37.3220 O   0  0  0  0  0  0  0  0  0  0  0  0
   41.4070   22.3830   35.4290 C   0  0  0  0  0  0  0  0  0  0  0  0
   42.2300   22.8710   36.5020 C   0  0  0  0  0  0  0  0  0  0  0  0
   43.1060   23.9290   36.1880 C   0  0  0  0  0  0  0  0  0  0  0  0
   43.1450   24.4390   34.9310 N   0  0  0  0  0  0  0  0  0  0  0  0
   42.3640   23.9550   33.9710 C   0  0  0  0  0  0  0  0  0  0  0  0
   41.5010   22.9390   34.2070 N   0  0  0  0  0  0  0  0  0  0  0  0
   44.9343   25.3247   36.1821 H   0  0  0  0  0  0  0  0  0  0  0  0
   45.3324   27.0979   38.3182 H   0  0  0  0  0  0  0  0  0  0  0  0
   44.2585   26.3780   39.1985 H   0  0  0  0  0  0  0  0  0  0  0  0
   46.2685   24.1337   39.0360 H   0  0  0  0  0  0  0  0  0  0  0  0
   46.9853   27.1093   37.0639 H   0  0  0  0  0  0  0  0  0  0  0  0
   49.3912   27.5421   36.5215 H   0  0  0  0  0  0  0  0  0  0  0  0
   51.0996   25.8914   37.1887 H   0  0  0  0  0  0  0  0  0  0  0  0
   50.4977   23.7983   38.4031 H   0  0  0  0  0  0  0  0  0  0  0  0
   48.1267   23.4027   38.9224 H   0  0  0  0  0  0  0  0  0  0  0  0
   40.7022   21.5573   35.6063 H   0  0  0  0  0  0  0  0  0  0  0  0
   42.1786   22.4416   37.5134 H   0  0  0  0  0  0  0  0  0  0  0  0
   42.4200   24.3896   32.9620 H   0  0  0  0  0  0  0  0  0  0  0  0
  1 10  1  0
  1  3  1  0
  1  2  1  0
  3  2  1  0
  4  3  1  0
  4  9  1  0
  5  4  2  0
  6  5  1  0
  6  7  2  0
  7  8  1  0
  8  9  2  0
 11 12  2  0
 13 12  1  0
 13 10  1  0
 14 13  2  0
 15 16  2  0
 15 14  1  0
 16 11  1  0
  1 17  1  6
  2 18  1  0
  2 19  1  0
  3 20  1  1
  5 21  1  0
  6 22  1  0
  7 23  1  0
  8 24  1  0
  9 25  1  0
 11 26  1  0
 12 27  1  0
 15 28  1  0
M  ISO  8  17  13  18  13  19  13  20  13  21  14  22  14  23  14  24  14
M  ISO  4  25  14  26  14  27  14  28  14
M  END
>  <minimizedAffinity>  (1) 
-3.88418174

>  <minimizedRMSD>  (1) 
1.89651561

$$$$
