
     RDKit          3D

 31 33  0  0  1  0  0  0  0  0999 V2000
   44.8290   25.1470   37.2240 C   0  0  1  0  0  0  0  0  0  0  0  0
   44.9050   26.0280   38.3990 C   0  0  0  0  0  0  0  0  0  0  0  0
   45.8740   24.9140   38.3190 C   0  0  2  0  0  0  0  0  0  0  0  0
   50.0040   25.8150   37.4560 C   0  0  0  0  0  0  0  0  0  0  0  0
   49.6530   24.6480   38.1200 C   0  0  0  0  0  0  0  0  0  0  0  0
   48.3260   24.3740   38.3900 C   0  0  0  0  0  0  0  0  0  0  0  0
   47.2980   25.2180   38.0250 C   0  0  0  0  0  0  0  0  0  0  0  0
   47.6820   26.3790   37.3610 C   0  0  0  0  0  0  0  0  0  0  0  0
   48.9990   26.6810   37.0780 C   0  0  0  0  0  0  0  0  0  0  0  0
   51.6960   26.1170   37.1390 S   0  0  0  0  0  0  0  0  0  0  0  0
   52.5160   26.0210   38.4000 O   0  0  0  0  0  0  0  0  0  0  0  0
   51.8240   27.4700   36.5090 O   0  0  0  0  0  0  0  0  0  0  0  0
   43.6960   24.2530   37.2850 O   0  0  0  0  0  0  0  0  0  0  0  0
   41.8270   21.6570   35.6540 C   0  0  0  0  0  0  0  0  0  0  0  0
   42.2340   22.6730   36.5790 C   0  0  0  0  0  0  0  0  0  0  0  0
   43.4530   23.3250   36.2980 C   0  0  0  0  0  0  0  0  0  0  0  0
   44.1690   22.9800   35.1960 N   0  0  0  0  0  0  0  0  0  0  0  0
   43.7480   22.0290   34.3670 C   0  0  0  0  0  0  0  0  0  0  0  0
   42.6050   21.3790   34.5860 N   0  0  0  0  0  0  0  0  0  0  0  0
   44.8643   25.2677   36.1312 H   0  0  0  0  0  0  0  0  0  0  0  0
   45.2571   27.0632   38.2793 H   0  0  0  0  0  0  0  0  0  0  0  0
   44.1770   26.3522   39.1572 H   0  0  0  0  0  0  0  0  0  0  0  0
   46.1608   24.0740   38.9688 H   0  0  0  0  0  0  0  0  0  0  0  0
   50.4338   23.9389   38.4323 H   0  0  0  0  0  0  0  0  0  0  0  0
   48.0785   23.4420   38.9192 H   0  0  0  0  0  0  0  0  0  0  0  0
   46.9013   27.0878   37.0476 H   0  0  0  0  0  0  0  0  0  0  0  0
   49.2474   27.6136   36.5503 H   0  0  0  0  0  0  0  0  0  0  0  0
   52.1807   25.1627   36.2839 H   0  0  0  0  0  0  0  0  0  0  0  0
   40.8874   21.1075   35.8129 H   0  0  0  0  0  0  0  0  0  0  0  0
   41.6286   22.9306   37.4605 H   0  0  0  0  0  0  0  0  0  0  0  0
   44.3538   21.7743   33.4849 H   0  0  0  0  0  0  0  0  0  0  0  0
  1 13  1  0
  1  3  1  0
  1  2  1  0
  3  2  1  0
  4  5  2  0
  5  6  1  0
  7  3  1  0
  7  6  2  0
  8  7  1  0
  9  8  2  0
  9  4  1  0
 10  4  1  0
 10 11  2  0
 12 10  2  0
 14 15  2  0
 16 15  1  0
 16 13  1  0
 17 16  2  0
 18 19  2  0
 18 17  1  0
 19 14  1  0
  1 20  1  6
  2 21  1  0
  2 22  1  0
  3 23  1  1
  5 24  1  0
  6 25  1  0
  8 26  1  0
  9 27  1  0
 10 28  1  0
 14 29  1  0
 15 30  1  0
 18 31  1  0
M  ISO  8  20  13  21  13  22  13  23  13  24  14  25  14  26  14  27  14
M  ISO  4  28  11  29  14  30  14  31  14
M  END
>  <minimizedAffinity>  (1) 
-3.76715779

>  <minimizedRMSD>  (1) 
1.33846903

$$$$
