
     RDKit          3D

 21 22  0  0  1  0  0  0  0  0999 V2000
   44.9450   24.5490   36.3200 C   0  0  1  0  0  0  0  0  0  0  0  0
   45.1070   26.0020   36.2870 C   0  0  0  0  0  0  0  0  0  0  0  0
   44.9890   25.3650   37.6190 C   0  0  2  0  0  0  0  0  0  0  0  0
   46.2860   25.3000   38.3950 C   0  0  0  0  0  0  0  0  0  0  0  0
   45.9510   25.2990   39.7540 F   0  0  0  0  0  0  0  0  0  0  0  0
   47.0070   24.1380   38.1010 F   0  0  0  0  0  0  0  0  0  0  0  0
   47.0990   26.3860   38.1370 F   0  0  0  0  0  0  0  0  0  0  0  0
   43.6400   24.1100   35.9280 O   0  0  0  0  0  0  0  0  0  0  0  0
   41.1590   21.8930   37.2730 C   0  0  0  0  0  0  0  0  0  0  0  0
   41.8240   23.0720   36.8120 C   0  0  0  0  0  0  0  0  0  0  0  0
   43.1320   22.8870   36.3150 C   0  0  0  0  0  0  0  0  0  0  0  0
   43.6850   21.6440   36.2920 N   0  0  0  0  0  0  0  0  0  0  0  0
   43.0260   20.5860   36.7310 C   0  0  0  0  0  0  0  0  0  0  0  0
   41.7840   20.6920   37.2170 N   0  0  0  0  0  0  0  0  0  0  0  0
   45.4951   23.6808   35.9281 H   0  0  0  0  0  0  0  0  0  0  0  0
   46.0700   26.4330   35.9758 H   0  0  0  0  0  0  0  0  0  0  0  0
   44.5663   26.8164   35.7827 H   0  0  0  0  0  0  0  0  0  0  0  0
   44.3394   25.4684   38.5006 H   0  0  0  0  0  0  0  0  0  0  0  0
   40.1371   21.9612   37.6743 H   0  0  0  0  0  0  0  0  0  0  0  0
   41.3457   24.0621   36.8428 H   0  0  0  0  0  0  0  0  0  0  0  0
   43.5084   19.5981   36.6961 H   0  0  0  0  0  0  0  0  0  0  0  0
  1  3  1  0
  2  1  1  0
  2  3  1  0
  3  4  1  0
  4  5  1  0
  6  4  1  0
  7  4  1  0
  8 11  1  0
  8  1  1  0
 10  9  2  0
 11 10  1  0
 12 11  2  0
 12 13  1  0
 13 14  2  0
 14  9  1  0
  1 15  1  1
  2 16  1  0
  2 17  1  0
  3 18  1  1
  9 19  1  0
 10 20  1  0
 13 21  1  0
M  ISO  7  15  13  16  13  17  13  18  13  19  14  20  14  21  14
M  END
>  <minimizedAffinity>  (1) 
-3.65963626

>  <minimizedRMSD>  (1) 
1.05694985

$$$$
