
     RDKit          3D

 25 27  0  0  1  0  0  0  0  0999 V2000
   42.2120   24.0440   35.6430 O   0  0  0  0  0  0  0  0  0  0  0  0
   38.6710   24.3020   35.1560 C   0  0  0  0  0  0  0  0  0  0  0  0
   40.0600   24.4810   35.0000 C   0  0  0  0  0  0  0  0  0  0  0  0
   40.8850   23.7630   35.9030 C   0  0  0  0  0  0  0  0  0  0  0  0
   40.3320   22.9570   36.8460 N   0  0  0  0  0  0  0  0  0  0  0  0
   39.0040   22.8260   36.9460 C   0  0  0  0  0  0  0  0  0  0  0  0
   38.1760   23.4920   36.1100 N   0  0  0  0  0  0  0  0  0  0  0  0
   43.2570   23.7150   36.5610 C   0  0  1  0  0  0  0  0  0  0  0  0
   44.5660   23.5520   35.9320 C   0  0  0  0  0  0  0  0  0  0  0  0
   44.3430   24.7910   36.7120 C   0  0  2  0  0  0  0  0  0  0  0  0
   45.0450   24.9200   38.0400 C   0  0  0  0  0  0  0  0  0  0  0  0
   46.1970   25.9340   38.0490 C   0  0  0  0  0  0  0  0  0  0  0  0
   44.9400   26.1740   38.8140 C   0  0  0  0  0  0  0  0  0  0  0  0
   37.9791   24.8337   34.4862 H   0  0  0  0  0  0  0  0  0  0  0  0
   40.4794   25.1384   34.2242 H   0  0  0  0  0  0  0  0  0  0  0  0
   38.5803   22.1676   37.7187 H   0  0  0  0  0  0  0  0  0  0  0  0
   42.6356   23.1310   37.2558 H   0  0  0  0  0  0  0  0  0  0  0  0
   45.2595   22.7886   36.3145 H   0  0  0  0  0  0  0  0  0  0  0  0
   44.8944   23.3513   34.9015 H   0  0  0  0  0  0  0  0  0  0  0  0
   44.4106   25.8723   36.5214 H   0  0  0  0  0  0  0  0  0  0  0  0
   44.8862   23.8632   38.3006 H   0  0  0  0  0  0  0  0  0  0  0  0
   47.1332   25.7046   38.5790 H   0  0  0  0  0  0  0  0  0  0  0  0
   46.7702   26.4806   37.2857 H   0  0  0  0  0  0  0  0  0  0  0  0
   44.2445   26.9598   38.4842 H   0  0  0  0  0  0  0  0  0  0  0  0
   44.7182   26.4065   39.8660 H   0  0  0  0  0  0  0  0  0  0  0  0
  1  4  1  0
  1  8  1  0
  2  7  2  0
  3  2  1  0
  3  4  2  0
  4  5  1  0
  5  6  2  0
  7  6  1  0
  8 10  1  0
  9  8  1  0
  9 10  1  0
 10 11  1  0
 11 12  1  0
 11 13  1  0
 12 13  1  0
  2 14  1  0
  3 15  1  0
  6 16  1  0
  8 17  1  1
  9 18  1  0
  9 19  1  0
 10 20  1  6
 11 21  1  0
 12 22  1  0
 12 23  1  0
 13 24  1  0
 13 25  1  0
M  ISO  8  14  14  15  14  16  14  17  13  18  13  19  13  20  13  21  13
M  ISO  4  22  13  23  13  24  13  25  13
M  END
>  <minimizedAffinity>  (1) 
-3.56862426

>  <minimizedRMSD>  (1) 
3.29549003

$$$$
