
     RDKit          3D

 30 31  0  0  1  0  0  0  0  0999 V2000
   44.5000   24.7320   35.8110 C   0  0  1  0  0  0  0  0  0  0  0  0
   45.1300   26.0200   35.5180 C   0  0  0  0  0  0  0  0  0  0  0  0
   45.0190   25.6310   36.9420 C   0  0  2  0  0  0  0  0  0  0  0  0
   46.2810   25.2710   37.6570 C   0  0  0  0  0  0  0  0  0  0  0  0
   46.7940   23.9000   37.2890 C   0  0  0  0  0  0  0  0  0  0  0  0
   47.3940   26.2640   37.3800 C   0  0  0  0  0  0  0  0  0  0  0  0
   45.9930   25.3440   39.1420 C   0  0  0  0  0  0  0  0  0  0  0  0
   43.0760   24.7450   35.6540 O   0  0  0  0  0  0  0  0  0  0  0  0
   40.0080   22.9120   35.9320 C   0  0  0  0  0  0  0  0  0  0  0  0
   40.9580   23.9110   35.6010 C   0  0  0  0  0  0  0  0  0  0  0  0
   42.2810   23.6860   36.0400 C   0  0  0  0  0  0  0  0  0  0  0  0
   42.6100   22.5680   36.7370 N   0  0  0  0  0  0  0  0  0  0  0  0
   41.6600   21.6520   37.0220 C   0  0  0  0  0  0  0  0  0  0  0  0
   40.3750   21.8160   36.6280 N   0  0  0  0  0  0  0  0  0  0  0  0
   44.6598   23.6866   35.5084 H   0  0  0  0  0  0  0  0  0  0  0  0
   46.1195   26.0425   35.0379 H   0  0  0  0  0  0  0  0  0  0  0  0
   44.8189   26.9060   34.9451 H   0  0  0  0  0  0  0  0  0  0  0  0
   44.5823   26.0544   37.8585 H   0  0  0  0  0  0  0  0  0  0  0  0
   47.0072   23.3301   38.2054 H   0  0  0  0  0  0  0  0  0  0  0  0
   46.0331   23.3706   36.6967 H   0  0  0  0  0  0  0  0  0  0  0  0
   47.7155   24.0001   36.6967 H   0  0  0  0  0  0  0  0  0  0  0  0
   47.8043   26.6301   38.3327 H   0  0  0  0  0  0  0  0  0  0  0  0
   48.1903   25.7708   36.8032 H   0  0  0  0  0  0  0  0  0  0  0  0
   46.9944   27.1112   36.8032 H   0  0  0  0  0  0  0  0  0  0  0  0
   46.9090   25.1118   39.7050 H   0  0  0  0  0  0  0  0  0  0  0  0
   45.6511   26.3572   39.3998 H   0  0  0  0  0  0  0  0  0  0  0  0
   45.2097   24.6160   39.3998 H   0  0  0  0  0  0  0  0  0  0  0  0
   38.9606   23.0318   35.6180 H   0  0  0  0  0  0  0  0  0  0  0  0
   40.6798   24.8114   35.0337 H   0  0  0  0  0  0  0  0  0  0  0  0
   41.9367   20.7504   37.5881 H   0  0  0  0  0  0  0  0  0  0  0  0
  1  3  1  0
  2  1  1  0
  2  3  1  0
  3  4  1  0
  4  7  1  0
  5  4  1  0
  6  4  1  0
  8  1  1  0
  8 11  1  0
  9 14  2  0
 10  9  1  0
 10 11  2  0
 11 12  1  0
 12 13  2  0
 14 13  1  0
  1 15  1  6
  2 16  1  0
  2 17  1  0
  3 18  1  1
  5 19  1  0
  5 20  1  0
  5 21  1  0
  6 22  1  0
  6 23  1  0
  6 24  1  0
  7 25  1  0
  7 26  1  0
  7 27  1  0
  9 28  1  0
 10 29  1  0
 13 30  1  0
M  ISO  8  15  13  16  13  17  13  18  13  19   8  20   8  21   8  22   8
M  ISO  8  23   8  24   8  25   8  26   8  27   8  28  14  29  14  30  14
M  END
>  <minimizedAffinity>  (1) 
-3.54005051

>  <minimizedRMSD>  (1) 
1.74610841

$$$$
