
     RDKit          3D

 33 35  0  0  1  0  0  0  0  0999 V2000
   43.9390   24.6640   35.4690 C   0  0  1  0  0  0  0  0  0  0  0  0
   44.6470   25.8920   35.0840 C   0  0  0  0  0  0  0  0  0  0  0  0
   44.7740   25.4470   36.4900 C   0  0  2  0  0  0  0  0  0  0  0  0
   46.0760   24.9170   36.8170 N   0  0  0  0  0  0  0  0  0  0  0  0
   46.3400   24.8130   38.2110 C   0  0  0  0  0  0  0  0  0  0  0  0
   47.7760   24.5210   38.4660 C   0  0  0  0  0  0  0  0  0  0  0  0
   48.7540   25.3890   37.7490 C   0  0  0  0  0  0  0  0  0  0  0  0
   47.9600   26.4160   36.9670 C   0  0  0  0  0  0  0  0  0  0  0  0
   47.0610   25.6330   36.0490 C   0  0  0  0  0  0  0  0  0  0  0  0
   42.5180   24.8750   35.5970 O   0  0  0  0  0  0  0  0  0  0  0  0
   39.4090   23.0860   35.5850 C   0  0  0  0  0  0  0  0  0  0  0  0
   40.4270   24.0480   35.3040 C   0  0  0  0  0  0  0  0  0  0  0  0
   41.6620   23.8630   35.9660 C   0  0  0  0  0  0  0  0  0  0  0  0
   41.8300   22.8140   36.8110 N   0  0  0  0  0  0  0  0  0  0  0  0
   40.8520   21.9440   37.0390 C   0  0  0  0  0  0  0  0  0  0  0  0
   39.6600   22.0670   36.4450 N   0  0  0  0  0  0  0  0  0  0  0  0
   43.9102   23.6197   35.1246 H   0  0  0  0  0  0  0  0  0  0  0  0
   45.5174   25.8290   34.4144 H   0  0  0  0  0  0  0  0  0  0  0  0
   44.3354   26.8336   34.6082 H   0  0  0  0  0  0  0  0  0  0  0  0
   44.5783   25.8623   37.4896 H   0  0  0  0  0  0  0  0  0  0  0  0
   46.0749   25.7629   38.6983 H   0  0  0  0  0  0  0  0  0  0  0  0
   45.7388   23.9870   38.6188 H   0  0  0  0  0  0  0  0  0  0  0  0
   47.9558   24.6310   39.5456 H   0  0  0  0  0  0  0  0  0  0  0  0
   47.9453   23.5033   38.0845 H   0  0  0  0  0  0  0  0  0  0  0  0
   49.4107   25.8933   38.4732 H   0  0  0  0  0  0  0  0  0  0  0  0
   49.3841   24.7899   37.0752 H   0  0  0  0  0  0  0  0  0  0  0  0
   47.3617   27.0374   37.6496 H   0  0  0  0  0  0  0  0  0  0  0  0
   48.6199   27.0927   36.4044 H   0  0  0  0  0  0  0  0  0  0  0  0
   47.6644   24.9166   35.4721 H   0  0  0  0  0  0  0  0  0  0  0  0
   46.5508   26.3271   35.3649 H   0  0  0  0  0  0  0  0  0  0  0  0
   38.4230   23.1712   35.1048 H   0  0  0  0  0  0  0  0  0  0  0  0
   40.2591   24.8858   34.6112 H   0  0  0  0  0  0  0  0  0  0  0  0
   41.0261   21.1060   37.7300 H   0  0  0  0  0  0  0  0  0  0  0  0
  1 10  1  0
  1  3  1  0
  2  1  1  0
  2  3  1  0
  3  4  1  0
  4  5  1  0
  5  6  1  0
  7  6  1  0
  8  7  1  0
  9  4  1  0
  9  8  1  0
 10 13  1  0
 11 16  2  0
 12 11  1  0
 12 13  2  0
 13 14  1  0
 14 15  2  0
 16 15  1  0
  1 17  1  6
  2 18  1  0
  2 19  1  0
  3 20  1  1
  5 21  1  0
  5 22  1  0
  6 23  1  0
  6 24  1  0
  7 25  1  0
  7 26  1  0
  8 27  1  0
  8 28  1  0
  9 29  1  0
  9 30  1  0
 11 31  1  0
 12 32  1  0
 15 33  1  0
M  ISO  8  17  13  18  13  19  13  20  13  21  13  22  13  23  13  24  13
M  ISO  8  25  13  26  13  27  13  28  13  29  13  30  13  31  14  32  14
M  ISO  1  33  14
M  END
>  <minimizedAffinity>  (1) 
-3.44101715

>  <minimizedRMSD>  (1) 
2.21008015

$$$$
