
     RDKit          3D

 25 27  0  0  1  0  0  0  0  0999 V2000
   44.9240   25.3030   37.3470 C   0  0  1  0  0  0  0  0  0  0  0  0
   44.9480   26.1230   38.5570 C   0  0  0  0  0  0  0  0  0  0  0  0
   45.9420   25.0340   38.4570 C   0  0  2  0  0  0  0  0  0  0  0  0
   47.3390   25.3250   38.0460 C   0  0  0  0  0  0  0  0  0  0  0  0
   48.4010   24.4540   38.2200 C   0  0  0  0  0  0  0  0  0  0  0  0
   49.5440   25.0660   37.7150 C   0  0  0  0  0  0  0  0  0  0  0  0
   49.1250   26.2800   37.2560 N   0  0  0  0  0  0  0  0  0  0  0  0
   47.8250   26.4220   37.4550 N   0  0  0  0  0  0  0  0  0  0  0  0
   43.8240   24.3940   37.2920 O   0  0  0  0  0  0  0  0  0  0  0  0
   42.3210   21.5480   35.7010 C   0  0  0  0  0  0  0  0  0  0  0  0
   42.5290   22.7010   36.5340 C   0  0  0  0  0  0  0  0  0  0  0  0
   43.7840   23.3260   36.4200 C   0  0  0  0  0  0  0  0  0  0  0  0
   44.7250   22.8430   35.5570 N   0  0  0  0  0  0  0  0  0  0  0  0
   44.4810   21.7770   34.8110 C   0  0  0  0  0  0  0  0  0  0  0  0
   43.3140   21.1350   34.8700 N   0  0  0  0  0  0  0  0  0  0  0  0
   44.9873   25.4828   36.2636 H   0  0  0  0  0  0  0  0  0  0  0  0
   45.2820   27.1693   38.4965 H   0  0  0  0  0  0  0  0  0  0  0  0
   44.1909   26.3964   39.3067 H   0  0  0  0  0  0  0  0  0  0  0  0
   46.2326   24.2229   39.1408 H   0  0  0  0  0  0  0  0  0  0  0  0
   48.3502   23.4546   38.6768 H   0  0  0  0  0  0  0  0  0  0  0  0
   50.5655   24.6585   37.6911 H   0  0  0  0  0  0  0  0  0  0  0  0
   49.7338   26.9854   36.8171 H   0  0  0  0  0  0  0  0  0  0  0  0
   41.3655   21.0042   35.7359 H   0  0  0  0  0  0  0  0  0  0  0  0
   41.7531   23.0723   37.2196 H   0  0  0  0  0  0  0  0  0  0  0  0
   45.2601   21.4120   34.1257 H   0  0  0  0  0  0  0  0  0  0  0  0
  1  3  1  0
  1  2  1  0
  3  2  1  0
  4  5  1  0
  4  3  1  0
  6  5  2  0
  7  8  1  0
  7  6  1  0
  8  4  2  0
  9  1  1  0
 10 11  2  0
 12 11  1  0
 12  9  1  0
 13 12  2  0
 14 15  2  0
 14 13  1  0
 15 10  1  0
  1 16  1  6
  2 17  1  0
  2 18  1  0
  3 19  1  1
  5 20  1  0
  6 21  1  0
  7 22  1  0
 10 23  1  0
 11 24  1  0
 14 25  1  0
M  ISO  8  16  13  17  13  18  13  19  13  20  14  21  14  22   9  23  14
M  ISO  2  24  14  25  14
M  END
>  <minimizedAffinity>  (1) 
-3.41261292

>  <minimizedRMSD>  (1) 
1.27789426

$$$$
