
     RDKit          3D

 24 26  0  0  1  0  0  0  0  0999 V2000
   45.5140   25.2380   37.2700 C   0  0  1  0  0  0  0  0  0  0  0  0
   45.6790   25.7390   38.6360 C   0  0  0  0  0  0  0  0  0  0  0  0
   46.7450   24.8610   38.1050 C   0  0  2  0  0  0  0  0  0  0  0  0
   47.9600   25.5370   37.7140 N   0  0  0  0  0  0  0  0  0  0  0  0
   49.1960   24.9700   37.7500 C   0  0  0  0  0  0  0  0  0  0  0  0
   50.1490   25.8130   37.3350 N   0  0  0  0  0  0  0  0  0  0  0  0
   49.4910   26.9520   37.0260 C   0  0  0  0  0  0  0  0  0  0  0  0
   48.1760   26.7700   37.2590 N   0  0  0  0  0  0  0  0  0  0  0  0
   44.5340   24.1880   37.1760 O   0  0  0  0  0  0  0  0  0  0  0  0
   41.4060   23.1140   35.7860 C   0  0  0  0  0  0  0  0  0  0  0  0
   42.6010   23.1650   36.5710 C   0  0  0  0  0  0  0  0  0  0  0  0
   43.4240   24.2930   36.3650 C   0  0  0  0  0  0  0  0  0  0  0  0
   43.0690   25.2520   35.4700 N   0  0  0  0  0  0  0  0  0  0  0  0
   41.9450   25.1550   34.7660 C   0  0  0  0  0  0  0  0  0  0  0  0
   41.1170   24.1090   34.9100 N   0  0  0  0  0  0  0  0  0  0  0  0
   45.3495   25.6830   36.2776 H   0  0  0  0  0  0  0  0  0  0  0  0
   45.8877   26.8064   38.8003 H   0  0  0  0  0  0  0  0  0  0  0  0
   45.0495   25.7115   39.5377 H   0  0  0  0  0  0  0  0  0  0  0  0
   47.2308   23.9292   38.4301 H   0  0  0  0  0  0  0  0  0  0  0  0
   49.3895   23.9391   38.0815 H   0  0  0  0  0  0  0  0  0  0  0  0
   49.9525   27.8757   36.6467 H   0  0  0  0  0  0  0  0  0  0  0  0
   40.7173   22.2630   35.8933 H   0  0  0  0  0  0  0  0  0  0  0  0
   42.8620   22.3746   37.2901 H   0  0  0  0  0  0  0  0  0  0  0  0
   41.6884   25.9496   34.0500 H   0  0  0  0  0  0  0  0  0  0  0  0
  1  3  1  0
  1  2  1  0
  3  2  1  0
  4  5  1  0
  4  3  1  0
  6  5  2  0
  7  8  2  0
  7  6  1  0
  8  4  1  0
  9  1  1  0
 10 11  2  0
 12 11  1  0
 12  9  1  0
 13 12  2  0
 14 15  2  0
 14 13  1  0
 15 10  1  0
  1 16  1  6
  2 17  1  0
  2 18  1  0
  3 19  1  1
  5 20  1  0
  7 21  1  0
 10 22  1  0
 11 23  1  0
 14 24  1  0
M  ISO  8  16  13  17  13  18  13  19  13  20  14  21  14  22  14  23  14
M  ISO  1  24  14
M  END
>  <minimizedAffinity>  (1) 
-3.33479857

>  <minimizedRMSD>  (1) 
2.32412219

$$$$
