
     RDKit          3D

 20 21  0  0  1  0  0  0  0  0999 V2000
   43.8770   25.5770   36.2500 O   0  0  0  0  0  0  0  0  0  0  0  0
   45.9180   25.4660   39.2020 C   0  0  0  0  0  0  0  0  0  0  0  0
   44.8580   25.7250   38.3060 C   0  0  0  0  0  0  0  0  0  0  0  0
   44.9850   25.2220   36.9880 C   0  0  0  0  0  0  0  0  0  0  0  0
   46.1030   24.5190   36.6460 N   0  0  0  0  0  0  0  0  0  0  0  0
   47.0700   24.3030   37.5280 C   0  0  0  0  0  0  0  0  0  0  0  0
   46.9910   24.7610   38.7770 N   0  0  0  0  0  0  0  0  0  0  0  0
   43.4030   24.7670   35.1650 C   0  0  1  0  0  0  0  0  0  0  0  0
   42.0850   24.1830   35.4190 C   0  0  0  0  0  0  0  0  0  0  0  0
   42.1650   25.3010   34.4500 C   0  0  1  0  0  0  0  0  0  0  0  0
   41.6400   26.5770   34.8180 N   0  0  0  0  0  0  0  0  0  0  0  0
   45.8715   25.8347   40.2373 H   0  0  0  0  0  0  0  0  0  0  0  0
   43.9700   26.2940   38.6186 H   0  0  0  0  0  0  0  0  0  0  0  0
   47.9586   23.7320   37.2210 H   0  0  0  0  0  0  0  0  0  0  0  0
   44.3865   24.3999   34.8365 H   0  0  0  0  0  0  0  0  0  0  0  0
   41.8624   23.1675   35.0596 H   0  0  0  0  0  0  0  0  0  0  0  0
   41.4928   24.0016   36.3280 H   0  0  0  0  0  0  0  0  0  0  0  0
   41.8694   25.4611   33.4026 H   0  0  0  0  0  0  0  0  0  0  0  0
   41.6090   26.6524   35.8448 H   0  0  0  0  0  0  0  0  0  0  0  0
   42.2439   27.3195   34.4373 H   0  0  0  0  0  0  0  0  0  0  0  0
  1  4  1  0
  3  2  2  0
  4  3  1  0
  5  4  2  0
  5  6  1  0
  6  7  2  0
  7  2  1  0
  8  9  1  0
  8  1  1  0
 10 11  1  0
 10  8  1  0
 10  9  1  0
  2 12  1  0
  3 13  1  0
  6 14  1  0
  8 15  1  6
  9 16  1  0
  9 17  1  0
 10 18  1  6
 11 19  1  0
 11 20  1  0
M  ISO  8  12  14  13  14  14  14  15  13  16  13  17  13  18  13  19   5
M  ISO  1  20   5
M  END
>  <minimizedAffinity>  (1) 
-3.11139202

>  <minimizedRMSD>  (1) 
4.52608967

$$$$
