
     RDKit          3D

 48 53  0  0  1  0  0  0  0  0999 V2000
   44.5260   24.8700   36.9820 C   0  0  1  0  0  0  0  0  0  0  0  0
   45.7170   24.8470   37.8110 C   0  0  0  0  0  0  0  0  0  0  0  0
   45.9230   24.8280   36.3320 C   0  0  2  0  0  0  0  0  0  0  0  0
   46.4380   26.0440   35.7390 N   0  0  0  0  0  0  0  0  0  0  0  0
   47.6000   26.7300   35.8940 C   0  0  0  0  0  0  0  0  0  0  0  0
   47.5800   27.8130   35.0810 N   0  0  0  0  0  0  0  0  0  0  0  0
   46.3920   27.7990   34.4140 C   0  0  0  0  0  0  0  0  0  0  0  0
   45.9020   28.6810   33.4750 C   0  0  0  0  0  0  0  0  0  0  0  0
   46.5470   29.7100   33.0780 O   0  0  0  0  0  0  0  0  0  0  0  0
   44.6850   28.4100   32.9750 N   0  0  0  0  0  0  0  0  0  0  0  0
   43.9790   27.3600   33.3510 C   0  0  0  0  0  0  0  0  0  0  0  0
   42.6960   26.9690   32.8890 N   0  0  0  0  0  0  0  0  0  0  0  0
   44.4520   26.5180   34.2510 N   0  0  0  0  0  0  0  0  0  0  0  0
   45.6860   26.6930   34.8310 C   0  0  0  0  0  0  0  0  0  0  0  0
   43.8620   23.5810   36.8690 O   0  0  0  0  0  0  0  0  0  0  0  0
   40.6220   22.1590   36.3780 C   0  0  0  0  0  0  0  0  0  0  0  0
   41.9300   22.3730   36.8680 C   0  0  0  0  0  0  0  0  0  0  0  0
   42.5960   23.4950   36.3050 C   0  0  0  0  0  0  0  0  0  0  0  0
   42.0070   24.3030   35.3610 N   0  0  0  0  0  0  0  0  0  0  0  0
   40.7610   24.0340   34.9490 C   0  0  0  0  0  0  0  0  0  0  0  0
   40.0820   22.9750   35.4520 N   0  0  0  0  0  0  0  0  0  0  0  0
   39.9360   24.7600   34.0100 C   0  0  0  0  0  0  0  0  0  0  0  0
   39.9390   24.4070   32.6670 C   0  0  0  0  0  0  0  0  0  0  0  0
   39.2080   24.9780   31.6600 C   0  0  0  0  0  0  0  0  0  0  0  0
   38.3770   26.0140   32.0010 C   0  0  0  0  0  0  0  0  0  0  0  0
   38.3300   26.4100   33.3180 C   0  0  0  0  0  0  0  0  0  0  0  0
   37.4590   27.4560   33.6360 C   0  0  0  0  0  0  0  0  0  0  0  0
   37.3180   27.9190   34.9260 C   0  0  0  0  0  0  0  0  0  0  0  0
   38.1010   27.2740   35.8900 C   0  0  0  0  0  0  0  0  0  0  0  0
   38.9500   26.2480   35.5550 C   0  0  0  0  0  0  0  0  0  0  0  0
   39.0850   25.7950   34.2690 C   0  0  0  0  0  0  0  0  0  0  0  0
   43.6391   25.5188   36.9319 H   0  0  0  0  0  0  0  0  0  0  0  0
   45.9945   25.7436   38.3846 H   0  0  0  0  0  0  0  0  0  0  0  0
   46.0572   24.2002   38.6332 H   0  0  0  0  0  0  0  0  0  0  0  0
   46.4275   24.1831   35.5974 H   0  0  0  0  0  0  0  0  0  0  0  0
   48.4225   26.4516   36.5692 H   0  0  0  0  0  0  0  0  0  0  0  0
   44.2869   29.0469   32.2702 H   0  0  0  0  0  0  0  0  0  0  0  0
   42.2494   26.1208   33.2658 H   0  0  0  0  0  0  0  0  0  0  0  0
   42.2111   27.5333   32.1768 H   0  0  0  0  0  0  0  0  0  0  0  0
   40.0342   21.3110   36.7594 H   0  0  0  0  0  0  0  0  0  0  0  0
   42.3951   21.7235   37.6242 H   0  0  0  0  0  0  0  0  0  0  0  0
   40.6018   23.5771   32.3806 H   0  0  0  0  0  0  0  0  0  0  0  0
   39.2840   24.6211   30.6223 H   0  0  0  0  0  0  0  0  0  0  0  0
   37.7624   26.5167   31.2397 H   0  0  0  0  0  0  0  0  0  0  0  0
   36.8693   27.9229   32.8334 H   0  0  0  0  0  0  0  0  0  0  0  0
   36.6344   28.7421   35.1815 H   0  0  0  0  0  0  0  0  0  0  0  0
   38.0349   27.5961   36.9397 H   0  0  0  0  0  0  0  0  0  0  0  0
   39.5441   25.7719   36.3490 H   0  0  0  0  0  0  0  0  0  0  0  0
  1  2  1  0
  3  1  1  0
  3  2  1  0
  4  5  1  0
  4  3  1  0
  6  5  2  0
  7 14  2  0
  7  6  1  0
  8  7  1  0
  9  8  2  0
 10 11  1  0
 10  8  1  0
 11 13  2  0
 12 11  1  0
 13 14  1  0
 14  4  1  0
 15  1  1  0
 16 17  2  0
 18 17  1  0
 18 15  1  0
 19 18  2  0
 20 19  1  0
 20 21  2  0
 21 16  1  0
 22 31  1  0
 22 20  1  0
 23 22  2  0
 24 25  2  0
 24 23  1  0
 25 26  1  0
 26 27  1  0
 26 31  2  0
 27 28  2  0
 28 29  1  0
 30 29  2  0
 31 30  1  0
  1 32  1  6
  2 33  1  0
  2 34  1  0
  3 35  1  1
  5 36  1  0
 10 37  1  0
 12 38  1  0
 12 39  1  0
 16 40  1  0
 17 41  1  0
 23 42  1  0
 24 43  1  0
 25 44  1  0
 27 45  1  0
 28 46  1  0
 29 47  1  0
 30 48  1  0
M  ISO  8  32  13  33  13  34  13  35  13  36  14  37   9  40  14  41  14
M  ISO  7  42  14  43  14  44  14  45  14  46  14  47  14  48  14
M  END
>  <minimizedAffinity>  (1) 
-5.89862204

>  <minimizedRMSD>  (1) 
2.53950763

$$$$
