
     RDKit          3D

 46 51  0  0  1  0  0  0  0  0999 V2000
   44.8040   25.2080   37.0160 C   0  0  1  0  0  0  0  0  0  0  0  0
   46.0060   25.2110   37.8270 C   0  0  0  0  0  0  0  0  0  0  0  0
   46.1840   25.1470   36.3470 C   0  0  2  0  0  0  0  0  0  0  0  0
   46.6780   26.3540   35.7110 N   0  0  0  0  0  0  0  0  0  0  0  0
   47.8300   27.0680   35.8380 C   0  0  0  0  0  0  0  0  0  0  0  0
   47.7860   28.1250   34.9830 N   0  0  0  0  0  0  0  0  0  0  0  0
   46.6010   28.0620   34.3250 C   0  0  0  0  0  0  0  0  0  0  0  0
   46.0880   28.8970   33.3520 C   0  0  0  0  0  0  0  0  0  0  0  0
   46.7020   29.9070   32.9260 O   0  0  0  0  0  0  0  0  0  0  0  0
   44.8800   28.5790   32.8690 N   0  0  0  0  0  0  0  0  0  0  0  0
   44.1890   27.5200   33.2870 C   0  0  0  0  0  0  0  0  0  0  0  0
   42.9180   27.0680   32.8340 N   0  0  0  0  0  0  0  0  0  0  0  0
   44.6800   26.7270   34.2160 N   0  0  0  0  0  0  0  0  0  0  0  0
   45.9110   26.9540   34.7830 C   0  0  0  0  0  0  0  0  0  0  0  0
   44.1270   23.9270   36.9740 O   0  0  0  0  0  0  0  0  0  0  0  0
   41.1260   22.2030   36.0670 C   0  0  0  0  0  0  0  0  0  0  0  0
   42.3570   22.5230   36.6980 C   0  0  0  0  0  0  0  0  0  0  0  0
   42.9450   23.7590   36.2920 C   0  0  0  0  0  0  0  0  0  0  0  0
   42.3550   24.5930   35.3510 N   0  0  0  0  0  0  0  0  0  0  0  0
   41.2060   24.2160   34.8190 C   0  0  0  0  0  0  0  0  0  0  0  0
   40.5940   23.0370   35.1640 N   0  0  0  0  0  0  0  0  0  0  0  0
   40.3940   24.9970   33.9040 C   0  0  0  0  0  0  0  0  0  0  0  0
   40.5240   24.8740   32.5840 N   0  0  0  0  0  0  0  0  0  0  0  0
   39.8140   25.5450   31.6770 C   0  0  0  0  0  0  0  0  0  0  0  0
   38.8680   26.4380   32.0140 N   0  0  0  0  0  0  0  0  0  0  0  0
   38.6670   26.6220   33.3510 C   0  0  0  0  0  0  0  0  0  0  0  0
   37.6860   27.5090   33.7010 C   0  0  0  0  0  0  0  0  0  0  0  0
   37.3930   27.7350   35.0270 C   0  0  0  0  0  0  0  0  0  0  0  0
   38.1480   27.0150   35.9620 C   0  0  0  0  0  0  0  0  0  0  0  0
   39.1190   26.1410   35.5410 C   0  0  0  0  0  0  0  0  0  0  0  0
   39.4280   25.9030   34.2290 C   0  0  0  0  0  0  0  0  0  0  0  0
   43.9175   25.8558   36.9496 H   0  0  0  0  0  0  0  0  0  0  0  0
   46.2923   26.1249   38.3682 H   0  0  0  0  0  0  0  0  0  0  0  0
   46.3608   24.5906   38.6632 H   0  0  0  0  0  0  0  0  0  0  0  0
   46.6784   24.4801   35.6254 H   0  0  0  0  0  0  0  0  0  0  0  0
   48.6597   26.8295   36.5197 H   0  0  0  0  0  0  0  0  0  0  0  0
   44.4670   29.1803   32.1418 H   0  0  0  0  0  0  0  0  0  0  0  0
   42.4936   26.2255   33.2476 H   0  0  0  0  0  0  0  0  0  0  0  0
   42.4224   27.5833   32.0925 H   0  0  0  0  0  0  0  0  0  0  0  0
   40.6073   21.2667   36.3207 H   0  0  0  0  0  0  0  0  0  0  0  0
   42.8242   21.8657   37.4461 H   0  0  0  0  0  0  0  0  0  0  0  0
   40.0102   25.3604   30.6105 H   0  0  0  0  0  0  0  0  0  0  0  0
   37.1283   28.0445   32.9186 H   0  0  0  0  0  0  0  0  0  0  0  0
   36.6090   28.4422   35.3355 H   0  0  0  0  0  0  0  0  0  0  0  0
   37.9619   27.1506   37.0376 H   0  0  0  0  0  0  0  0  0  0  0  0
   39.6867   25.5955   36.3092 H   0  0  0  0  0  0  0  0  0  0  0  0
  1  2  1  0
  3  1  1  0
  3  2  1  0
  4  5  1  0
  4  3  1  0
  6  5  2  0
  7 14  2  0
  7  6  1  0
  8  7  1  0
  9  8  2  0
 10 11  1  0
 10  8  1  0
 11 13  2  0
 12 11  1  0
 13 14  1  0
 14  4  1  0
 15  1  1  0
 16 17  2  0
 18 17  1  0
 18 15  1  0
 19 18  2  0
 20 21  2  0
 20 19  1  0
 21 16  1  0
 22 31  1  0
 22 20  1  0
 23 22  2  0
 24 25  2  0
 24 23  1  0
 25 26  1  0
 26 27  1  0
 26 31  2  0
 27 28  2  0
 28 29  1  0
 30 29  2  0
 31 30  1  0
  1 32  1  6
  2 33  1  0
  2 34  1  0
  3 35  1  1
  5 36  1  0
 10 37  1  0
 12 38  1  0
 12 39  1  0
 16 40  1  0
 17 41  1  0
 24 42  1  0
 27 43  1  0
 28 44  1  0
 29 45  1  0
 30 46  1  0
M  ISO  8  32  13  33  13  34  13  35  13  36  14  37   9  40  14  41  14
M  ISO  5  42  14  43  14  44  14  45  14  46  14
M  END
>  <minimizedAffinity>  (1) 
-5.67511225

>  <minimizedRMSD>  (1) 
2.25280476

$$$$
