
     RDKit          3D

 48 52  0  0  1  0  0  0  0  0999 V2000
   44.7690   24.8000   36.9450 C   0  0  1  0  0  0  0  0  0  0  0  0
   46.0300   24.4890   37.5900 C   0  0  0  0  0  0  0  0  0  0  0  0
   46.0690   24.7200   36.1120 C   0  0  2  0  0  0  0  0  0  0  0  0
   46.6660   25.9690   35.6750 N   0  0  0  0  0  0  0  0  0  0  0  0
   47.8680   26.5550   35.9200 C   0  0  0  0  0  0  0  0  0  0  0  0
   47.9160   27.7250   35.2500 N   0  0  0  0  0  0  0  0  0  0  0  0
   46.7500   27.8720   34.5870 C   0  0  0  0  0  0  0  0  0  0  0  0
   46.3230   28.9030   33.7640 C   0  0  0  0  0  0  0  0  0  0  0  0
   47.0350   29.9310   33.5030 O   0  0  0  0  0  0  0  0  0  0  0  0
   45.0900   28.7780   33.2310 N   0  0  0  0  0  0  0  0  0  0  0  0
   44.3200   27.7300   33.4730 C   0  0  0  0  0  0  0  0  0  0  0  0
   43.0220   27.5060   32.9670 N   0  0  0  0  0  0  0  0  0  0  0  0
   44.7380   26.7580   34.2560 N   0  0  0  0  0  0  0  0  0  0  0  0
   45.9710   26.7770   34.8530 C   0  0  0  0  0  0  0  0  0  0  0  0
   43.9350   23.6300   36.6990 O   0  0  0  0  0  0  0  0  0  0  0  0
   40.4750   22.7670   36.4880 C   0  0  0  0  0  0  0  0  0  0  0  0
   41.8300   22.7670   36.8350 C   0  0  0  0  0  0  0  0  0  0  0  0
   42.6430   23.7630   36.2710 C   0  0  0  0  0  0  0  0  0  0  0  0
   42.1030   24.6880   35.4190 N   0  0  0  0  0  0  0  0  0  0  0  0
   40.7970   24.6500   35.1150 C   0  0  0  0  0  0  0  0  0  0  0  0
   39.9860   23.7100   35.6340 N   0  0  0  0  0  0  0  0  0  0  0  0
   39.9380   25.5030   34.2680 C   0  0  0  0  0  0  0  0  0  0  0  0
   38.5370   24.9420   34.3430 C   0  0  0  0  0  0  0  0  0  0  0  0
   37.4690   25.9620   34.0770 C   0  0  0  0  0  0  0  0  0  0  0  0
   37.4750   27.0260   35.1460 C   0  0  0  0  0  0  0  0  0  0  0  0
   38.8350   27.2200   35.7550 C   0  0  0  0  0  0  0  0  0  0  0  0
   39.9170   26.9350   34.7420 C   0  0  0  0  0  0  0  0  0  0  0  0
   43.9782   25.5425   37.1275 H   0  0  0  0  0  0  0  0  0  0  0  0
   46.4886   25.2268   38.2649 H   0  0  0  0  0  0  0  0  0  0  0  0
   46.3675   23.6666   38.2379 H   0  0  0  0  0  0  0  0  0  0  0  0
   46.4007   24.1684   35.2200 H   0  0  0  0  0  0  0  0  0  0  0  0
   48.6659   26.1448   36.5564 H   0  0  0  0  0  0  0  0  0  0  0  0
   44.7363   29.5237   32.6149 H   0  0  0  0  0  0  0  0  0  0  0  0
   42.5103   26.6494   33.2227 H   0  0  0  0  0  0  0  0  0  0  0  0
   42.5862   28.1990   32.3420 H   0  0  0  0  0  0  0  0  0  0  0  0
   39.8020   22.0036   36.9056 H   0  0  0  0  0  0  0  0  0  0  0  0
   42.2429   22.0152   37.5236 H   0  0  0  0  0  0  0  0  0  0  0  0
   40.3322   25.5023   33.2411 H   0  0  0  0  0  0  0  0  0  0  0  0
   38.4436   24.1378   33.5984 H   0  0  0  0  0  0  0  0  0  0  0  0
   38.3885   24.5784   35.3705 H   0  0  0  0  0  0  0  0  0  0  0  0
   37.6521   26.4308   33.0989 H   0  0  0  0  0  0  0  0  0  0  0  0
   36.4900   25.4604   34.0805 H   0  0  0  0  0  0  0  0  0  0  0  0
   37.1492   27.9770   34.6994 H   0  0  0  0  0  0  0  0  0  0  0  0
   36.7932   26.7011   35.9457 H   0  0  0  0  0  0  0  0  0  0  0  0
   38.9303   28.2592   36.1029 H   0  0  0  0  0  0  0  0  0  0  0  0
   38.9478   26.5239   36.5992 H   0  0  0  0  0  0  0  0  0  0  0  0
   40.8908   27.1643   35.1993 H   0  0  0  0  0  0  0  0  0  0  0  0
   39.7096   27.5629   33.8630 H   0  0  0  0  0  0  0  0  0  0  0  0
  1  2  1  0
  3  1  1  0
  3  2  1  0
  4  5  1  0
  4  3  1  0
  6  5  2  0
  7 14  2  0
  7  6  1  0
  8  7  1  0
  9  8  2  0
 10 11  1  0
 10  8  1  0
 11 13  2  0
 12 11  1  0
 13 14  1  0
 14  4  1  0
 15  1  1  0
 16 17  2  0
 18 15  1  0
 18 17  1  0
 19 18  2  0
 20 19  1  0
 20 21  2  0
 21 16  1  0
 22 23  1  0
 22 27  1  0
 22 20  1  0
 24 23  1  0
 24 25  1  0
 25 26  1  0
 27 26  1  0
  1 28  1  1
  2 29  1  0
  2 30  1  0
  3 31  1  6
  5 32  1  0
 10 33  1  0
 12 34  1  0
 12 35  1  0
 16 36  1  0
 17 37  1  0
 22 38  1  0
 23 39  1  0
 23 40  1  0
 24 41  1  0
 24 42  1  0
 25 43  1  0
 25 44  1  0
 26 45  1  0
 26 46  1  0
 27 47  1  0
 27 48  1  0
M  ISO  8  28  13  29  13  30  13  31  13  32  14  33   9  36  14  37  14
M  ISO  8  38  13  39  13  40  13  41  13  42  13  43  13  44  13  45  13
M  ISO  3  46  13  47  13  48  13
M  END
>  <minimizedAffinity>  (1) 
-5.53199196

>  <minimizedRMSD>  (1) 
2.00665474

$$$$
