
     RDKit          3D

 39 43  0  0  1  0  0  0  0  0999 V2000
   45.4460   23.2780   36.2420 C   0  0  1  0  0  0  0  0  0  0  0  0
   46.7690   22.6860   36.2710 C   0  0  0  0  0  0  0  0  0  0  0  0
   46.4340   23.5360   35.0900 C   0  0  2  0  0  0  0  0  0  0  0  0
   47.0840   24.8320   35.0230 N   0  0  0  0  0  0  0  0  0  0  0  0
   48.3750   25.2250   35.1460 C   0  0  0  0  0  0  0  0  0  0  0  0
   48.4410   26.5640   34.9840 N   0  0  0  0  0  0  0  0  0  0  0  0
   47.1780   27.0100   34.7570 C   0  0  0  0  0  0  0  0  0  0  0  0
   46.7200   28.2950   34.5260 C   0  0  0  0  0  0  0  0  0  0  0  0
   47.4900   29.3090   34.4980 O   0  0  0  0  0  0  0  0  0  0  0  0
   45.3940   28.4280   34.3250 N   0  0  0  0  0  0  0  0  0  0  0  0
   44.5550   27.4090   34.3420 C   0  0  0  0  0  0  0  0  0  0  0  0
   43.1540   27.4270   34.1260 N   0  0  0  0  0  0  0  0  0  0  0  0
   45.0000   26.1830   34.5640 N   0  0  0  0  0  0  0  0  0  0  0  0
   46.3320   25.9220   34.7830 C   0  0  0  0  0  0  0  0  0  0  0  0
   44.3890   22.3680   35.8440 O   0  0  0  0  0  0  0  0  0  0  0  0
   41.5310   23.7880   34.2340 C   0  0  0  0  0  0  0  0  0  0  0  0
   42.8540   23.3070   34.4560 C   0  0  0  0  0  0  0  0  0  0  0  0
   43.0710   22.7900   35.7710 C   0  0  0  0  0  0  0  0  0  0  0  0
   42.0980   22.7510   36.7470 N   0  0  0  0  0  0  0  0  0  0  0  0
   40.8930   23.2180   36.4530 C   0  0  0  0  0  0  0  0  0  0  0  0
   40.5900   23.7400   35.2160 N   0  0  0  0  0  0  0  0  0  0  0  0
   39.6460   23.1220   37.1690 C   0  0  0  0  0  0  0  0  0  0  0  0
   38.4690   23.4430   36.5310 C   0  0  0  0  0  0  0  0  0  0  0  0
   37.4390   23.3880   37.3940 N   0  0  0  0  0  0  0  0  0  0  0  0
   37.9500   23.0280   38.6070 C   0  0  0  0  0  0  0  0  0  0  0  0
   39.2680   22.8810   38.4260 N   0  0  0  0  0  0  0  0  0  0  0  0
   44.8647   23.8893   36.9480 H   0  0  0  0  0  0  0  0  0  0  0  0
   47.5065   23.0445   37.0042 H   0  0  0  0  0  0  0  0  0  0  0  0
   47.1377   21.6559   36.3851 H   0  0  0  0  0  0  0  0  0  0  0  0
   46.4117   23.4217   33.9962 H   0  0  0  0  0  0  0  0  0  0  0  0
   49.2296   24.5617   35.3453 H   0  0  0  0  0  0  0  0  0  0  0  0
   45.0170   29.3703   34.1496 H   0  0  0  0  0  0  0  0  0  0  0  0
   42.6151   26.5503   34.1685 H   0  0  0  0  0  0  0  0  0  0  0  0
   42.6751   28.3168   33.9266 H   0  0  0  0  0  0  0  0  0  0  0  0
   41.2657   24.2055   33.2515 H   0  0  0  0  0  0  0  0  0  0  0  0
   43.6379   23.3314   33.6847 H   0  0  0  0  0  0  0  0  0  0  0  0
   38.3832   23.7070   35.4666 H   0  0  0  0  0  0  0  0  0  0  0  0
   37.3916   22.8871   39.5442 H   0  0  0  0  0  0  0  0  0  0  0  0
   39.9202   22.6110   39.1760 H   0  0  0  0  0  0  0  0  0  0  0  0
  1  2  1  0
  3  1  1  0
  3  2  1  0
  4  3  1  0
  4  5  1  0
  6  5  2  0
  7 14  2  0
  7  6  1  0
  8  7  1  0
  9  8  2  0
 10 11  1  0
 10  8  1  0
 11 13  2  0
 12 11  1  0
 13 14  1  0
 14  4  1  0
 15  1  1  0
 16 17  2  0
 16 21  1  0
 17 18  1  0
 18 15  1  0
 18 19  2  0
 20 19  1  0
 20 22  1  0
 21 20  2  0
 22 26  1  0
 23 22  2  0
 23 24  1  0
 24 25  2  0
 26 25  1  0
  1 27  1  1
  2 28  1  0
  2 29  1  0
  3 30  1  6
  5 31  1  0
 10 32  1  0
 12 33  1  0
 12 34  1  0
 16 35  1  0
 17 36  1  0
 23 37  1  0
 25 38  1  0
 26 39  1  0
M  ISO  8  27  13  28  13  29  13  30  13  31  14  32   9  35  14  36  14
M  ISO  3  37  14  38  14  39   9
M  END
>  <minimizedAffinity>  (1) 
-5.02521706

>  <minimizedRMSD>  (1) 
3.54857612

$$$$
