
     RDKit          3D

 39 43  0  0  1  0  0  0  0  0999 V2000
   43.8630   21.5640   35.4240 C   0  0  1  0  0  0  0  0  0  0  0  0
   44.7290   20.7900   34.5590 C   0  0  0  0  0  0  0  0  0  0  0  0
   45.1240   22.2090   34.8020 C   0  0  2  0  0  0  0  0  0  0  0  0
   46.2730   22.4290   35.6650 N   0  0  0  0  0  0  0  0  0  0  0  0
   47.4590   21.7920   35.7900 C   0  0  0  0  0  0  0  0  0  0  0  0
   48.1850   22.4080   36.7520 N   0  0  0  0  0  0  0  0  0  0  0  0
   47.4340   23.4330   37.2240 C   0  0  0  0  0  0  0  0  0  0  0  0
   47.7360   24.3610   38.2170 C   0  0  0  0  0  0  0  0  0  0  0  0
   48.8390   24.3670   38.8580 O   0  0  0  0  0  0  0  0  0  0  0  0
   46.7960   25.2810   38.4840 N   0  0  0  0  0  0  0  0  0  0  0  0
   45.6350   25.3100   37.8400 C   0  0  0  0  0  0  0  0  0  0  0  0
   44.5770   26.2390   38.0480 N   0  0  0  0  0  0  0  0  0  0  0  0
   45.3670   24.4180   36.8980 N   0  0  0  0  0  0  0  0  0  0  0  0
   46.2470   23.4390   36.5430 C   0  0  0  0  0  0  0  0  0  0  0  0
   42.6650   22.0620   34.7590 O   0  0  0  0  0  0  0  0  0  0  0  0
   40.3960   22.2100   37.5380 C   0  0  0  0  0  0  0  0  0  0  0  0
   41.4420   21.8240   36.6850 C   0  0  0  0  0  0  0  0  0  0  0  0
   41.6020   22.5480   35.5020 C   0  0  0  0  0  0  0  0  0  0  0  0
   40.7570   23.5910   35.2090 N   0  0  0  0  0  0  0  0  0  0  0  0
   39.7730   23.9180   36.0590 C   0  0  0  0  0  0  0  0  0  0  0  0
   39.5840   23.2430   37.2150 N   0  0  0  0  0  0  0  0  0  0  0  0
   38.8990   25.0320   35.7120 C   0  0  0  0  0  0  0  0  0  0  0  0
   39.5200   26.1970   35.2490 C   0  0  0  0  0  0  0  0  0  0  0  0
   38.5590   27.1460   34.9680 C   0  0  0  0  0  0  0  0  0  0  0  0
   37.3670   26.4850   35.2860 C   0  0  0  0  0  0  0  0  0  0  0  0
   37.6060   25.2780   35.7070 O   0  0  0  0  0  0  0  0  0  0  0  0
   43.4531   21.4087   36.4329 H   0  0  0  0  0  0  0  0  0  0  0  0
   44.3708   20.4920   33.5626 H   0  0  0  0  0  0  0  0  0  0  0  0
   45.2509   19.8286   34.6744 H   0  0  0  0  0  0  0  0  0  0  0  0
   45.3359   23.0995   34.1921 H   0  0  0  0  0  0  0  0  0  0  0  0
   47.7809   20.9172   35.2060 H   0  0  0  0  0  0  0  0  0  0  0  0
   46.9809   25.9866   39.2112 H   0  0  0  0  0  0  0  0  0  0  0  0
   43.7141   26.1702   37.4898 H   0  0  0  0  0  0  0  0  0  0  0  0
   44.6742   26.9801   38.7567 H   0  0  0  0  0  0  0  0  0  0  0  0
   40.2346   21.6661   38.4804 H   0  0  0  0  0  0  0  0  0  0  0  0
   42.1079   20.9859   36.9382 H   0  0  0  0  0  0  0  0  0  0  0  0
   40.6046   26.3347   35.1280 H   0  0  0  0  0  0  0  0  0  0  0  0
   38.6957   28.1692   34.5880 H   0  0  0  0  0  0  0  0  0  0  0  0
   36.3639   26.9266   35.1925 H   0  0  0  0  0  0  0  0  0  0  0  0
  2  3  1  0
  2  1  1  0
  3  1  1  0
  3  4  1  0
  4  5  1  0
  4 14  1  0
  5  6  2  0
  6  7  1  0
  7  8  1  0
  8 10  1  0
  8  9  2  0
 11 12  1  0
 11 10  1  0
 13 11  2  0
 14 13  1  0
 14  7  2  0
 15  1  1  0
 15 18  1  0
 17 16  2  0
 18 17  1  0
 19 18  2  0
 19 20  1  0
 20 21  2  0
 21 16  1  0
 22 20  1  0
 23 22  2  0
 24 23  1  0
 24 25  2  0
 25 26  1  0
 26 22  1  0
  1 27  1  1
  2 28  1  0
  2 29  1  0
  3 30  1  6
  5 31  1  0
 10 32  1  0
 12 33  1  0
 12 34  1  0
 16 35  1  0
 17 36  1  0
 23 37  1  0
 24 38  1  0
 25 39  1  0
M  ISO  8  27  13  28  13  29  13  30  13  31  14  32   9  35  14  36  14
M  ISO  3  37  14  38  14  39  14
M  END
>  <minimizedAffinity>  (1) 
-4.89974499

>  <minimizedRMSD>  (1) 
4.61525583

$$$$
