
     RDKit          3D

 38 42  0  0  1  0  0  0  0  0999 V2000
   46.0720   25.0070   37.1550 C   0  0  1  0  0  0  0  0  0  0  0  0
   47.0460   24.7740   38.2040 C   0  0  0  0  0  0  0  0  0  0  0  0
   47.5810   24.9590   36.8250 C   0  0  2  0  0  0  0  0  0  0  0  0
   48.2510   26.2260   36.5520 N   0  0  0  0  0  0  0  0  0  0  0  0
   49.4230   26.7580   36.9990 C   0  0  0  0  0  0  0  0  0  0  0  0
   49.5840   27.9750   36.4330 N   0  0  0  0  0  0  0  0  0  0  0  0
   48.5130   28.2060   35.6290 C   0  0  0  0  0  0  0  0  0  0  0  0
   48.2150   29.3050   34.8370 C   0  0  0  0  0  0  0  0  0  0  0  0
   48.9710   30.3120   34.7610 O   0  0  0  0  0  0  0  0  0  0  0  0
   47.0710   29.2470   34.1440 N   0  0  0  0  0  0  0  0  0  0  0  0
   46.2560   28.2030   34.2030 C   0  0  0  0  0  0  0  0  0  0  0  0
   45.0130   28.0390   33.5110 N   0  0  0  0  0  0  0  0  0  0  0  0
   46.5480   27.1550   34.9640 N   0  0  0  0  0  0  0  0  0  0  0  0
   47.6890   27.1030   35.7140 C   0  0  0  0  0  0  0  0  0  0  0  0
   45.4070   23.8020   36.6870 O   0  0  0  0  0  0  0  0  0  0  0  0
   42.0800   22.5720   36.1450 C   0  0  0  0  0  0  0  0  0  0  0  0
   43.4260   22.6580   36.5480 C   0  0  0  0  0  0  0  0  0  0  0  0
   44.0960   23.8490   36.2380 C   0  0  0  0  0  0  0  0  0  0  0  0
   43.4540   24.8630   35.5740 N   0  0  0  0  0  0  0  0  0  0  0  0
   42.1730   24.7160   35.2180 C   0  0  0  0  0  0  0  0  0  0  0  0
   41.4840   23.5940   35.4920 N   0  0  0  0  0  0  0  0  0  0  0  0
   41.5250   25.7800   34.5320 N   0  0  0  0  0  0  0  0  0  0  0  0
   41.7280   26.5750   33.4660 C   0  0  0  0  0  0  0  0  0  0  0  0
   40.6920   27.4230   33.3340 N   0  0  0  0  0  0  0  0  0  0  0  0
   39.8410   27.1400   34.3340 C   0  0  0  0  0  0  0  0  0  0  0  0
   40.3540   26.1350   35.0630 N   0  0  0  0  0  0  0  0  0  0  0  0
   45.2428   25.7178   37.0242 H   0  0  0  0  0  0  0  0  0  0  0  0
   47.2218   25.5527   38.9608 H   0  0  0  0  0  0  0  0  0  0  0  0
   47.1670   23.9882   38.9642 H   0  0  0  0  0  0  0  0  0  0  0  0
   48.2201   24.3934   36.1309 H   0  0  0  0  0  0  0  0  0  0  0  0
   50.1203   26.2783   37.7016 H   0  0  0  0  0  0  0  0  0  0  0  0
   46.8145   30.0430   33.5427 H   0  0  0  0  0  0  0  0  0  0  0  0
   44.4632   27.1772   33.6371 H   0  0  0  0  0  0  0  0  0  0  0  0
   44.6688   28.7829   32.8872 H   0  0  0  0  0  0  0  0  0  0  0  0
   41.5053   21.6602   36.3647 H   0  0  0  0  0  0  0  0  0  0  0  0
   43.9255   21.8338   37.0783 H   0  0  0  0  0  0  0  0  0  0  0  0
   42.6058   26.5375   32.8042 H   0  0  0  0  0  0  0  0  0  0  0  0
   38.8834   27.6468   34.5243 H   0  0  0  0  0  0  0  0  0  0  0  0
  1  2  1  0
  3  1  1  0
  3  2  1  0
  4  3  1  0
  4  5  1  0
  6  5  2  0
  7 14  2  0
  7  6  1  0
  8  7  1  0
  9  8  2  0
 10 11  1  0
 10  8  1  0
 11 13  2  0
 12 11  1  0
 13 14  1  0
 14  4  1  0
 15  1  1  0
 16 17  2  0
 18 17  1  0
 18 15  1  0
 19 18  2  0
 20 21  2  0
 20 19  1  0
 21 16  1  0
 22 26  1  0
 22 20  1  0
 23 22  1  0
 24 23  2  0
 24 25  1  0
 25 26  2  0
  1 27  1  1
  2 28  1  0
  2 29  1  0
  3 30  1  6
  5 31  1  0
 10 32  1  0
 12 33  1  0
 12 34  1  0
 16 35  1  0
 17 36  1  0
 23 37  1  0
 25 38  1  0
M  ISO  8  27  13  28  13  29  13  30  13  31  14  32   9  35  14  36  14
M  ISO  2  37  14  38  14
M  END
>  <minimizedAffinity>  (1) 
-4.80821037

>  <minimizedRMSD>  (1) 
0.847258389

$$$$
