
     RDKit          3D

 41 44  0  0  1  0  0  0  0  0999 V2000
   45.9360   25.1490   37.4410 C   0  0  1  0  0  0  0  0  0  0  0  0
   47.0600   24.6840   38.2240 C   0  0  0  0  0  0  0  0  0  0  0  0
   47.3330   24.9980   36.7890 C   0  0  2  0  0  0  0  0  0  0  0  0
   48.0870   26.2210   36.5380 N   0  0  0  0  0  0  0  0  0  0  0  0
   49.2760   26.6830   37.0070 C   0  0  0  0  0  0  0  0  0  0  0  0
   49.5220   27.8960   36.4470 N   0  0  0  0  0  0  0  0  0  0  0  0
   48.4730   28.1880   35.6220 C   0  0  0  0  0  0  0  0  0  0  0  0
   48.2630   29.3100   34.8310 C   0  0  0  0  0  0  0  0  0  0  0  0
   49.0750   30.2620   34.7780 O   0  0  0  0  0  0  0  0  0  0  0  0
   47.1190   29.3160   34.1160 N   0  0  0  0  0  0  0  0  0  0  0  0
   46.2500   28.3240   34.1580 C   0  0  0  0  0  0  0  0  0  0  0  0
   45.0150   28.2310   33.4430 N   0  0  0  0  0  0  0  0  0  0  0  0
   46.4680   27.2600   34.9190 N   0  0  0  0  0  0  0  0  0  0  0  0
   47.5910   27.1350   35.6910 C   0  0  0  0  0  0  0  0  0  0  0  0
   45.0480   24.0880   36.9850 O   0  0  0  0  0  0  0  0  0  0  0  0
   41.6990   23.4720   35.8880 C   0  0  0  0  0  0  0  0  0  0  0  0
   42.9530   23.3170   36.5110 C   0  0  0  0  0  0  0  0  0  0  0  0
   43.8690   24.3740   36.3260 C   0  0  0  0  0  0  0  0  0  0  0  0
   43.5460   25.4800   35.5800 N   0  0  0  0  0  0  0  0  0  0  0  0
   42.3350   25.5660   35.0140 C   0  0  0  0  0  0  0  0  0  0  0  0
   41.4120   24.5810   35.1570 N   0  0  0  0  0  0  0  0  0  0  0  0
   41.7630   26.6530   34.1950 C   0  0  0  0  0  0  0  0  0  0  0  0
   40.2830   26.8630   34.5080 C   0  0  0  0  0  0  0  0  0  0  0  0
   41.7850   26.1520   32.7510 C   0  0  0  0  0  0  0  0  0  0  0  0
   45.1916   25.9477   37.5751 H   0  0  0  0  0  0  0  0  0  0  0  0
   47.4776   25.3333   39.0076 H   0  0  0  0  0  0  0  0  0  0  0  0
   47.2301   23.7952   38.8494 H   0  0  0  0  0  0  0  0  0  0  0  0
   47.7437   24.4728   35.9141 H   0  0  0  0  0  0  0  0  0  0  0  0
   49.9302   26.1615   37.7212 H   0  0  0  0  0  0  0  0  0  0  0  0
   46.9160   30.1266   33.5138 H   0  0  0  0  0  0  0  0  0  0  0  0
   44.4151   27.4016   33.5571 H   0  0  0  0  0  0  0  0  0  0  0  0
   44.7254   28.9935   32.8140 H   0  0  0  0  0  0  0  0  0  0  0  0
   40.9402   22.6828   35.9950 H   0  0  0  0  0  0  0  0  0  0  0  0
   43.2028   22.4259   37.1056 H   0  0  0  0  0  0  0  0  0  0  0  0
   42.3292   27.5778   34.3796 H   0  0  0  0  0  0  0  0  0  0  0  0
   40.1381   26.8836   35.5982 H   0  0  0  0  0  0  0  0  0  0  0  0
   39.9486   27.8176   34.0756 H   0  0  0  0  0  0  0  0  0  0  0  0
   39.6963   26.0391   34.0756 H   0  0  0  0  0  0  0  0  0  0  0  0
   41.8333   25.0531   32.7449 H   0  0  0  0  0  0  0  0  0  0  0  0
   40.8715   26.4818   32.2345 H   0  0  0  0  0  0  0  0  0  0  0  0
   42.6661   26.5606   32.2345 H   0  0  0  0  0  0  0  0  0  0  0  0
  1  2  1  0
  3  1  1  0
  3  2  1  0
  4  3  1  0
  4  5  1  0
  6  5  2  0
  7 14  2  0
  7  6  1  0
  8  7  1  0
  9  8  2  0
 10 11  1  0
 10  8  1  0
 11 13  2  0
 12 11  1  0
 13 14  1  0
 14  4  1  0
 15  1  1  0
 16 17  2  0
 18 17  1  0
 18 15  1  0
 19 18  2  0
 20 21  2  0
 20 19  1  0
 21 16  1  0
 22 23  1  0
 22 20  1  0
 24 22  1  0
  1 25  1  1
  2 26  1  0
  2 27  1  0
  3 28  1  6
  5 29  1  0
 10 30  1  0
 12 31  1  0
 12 32  1  0
 16 33  1  0
 17 34  1  0
 22 35  1  0
 23 36  1  0
 23 37  1  0
 23 38  1  0
 24 39  1  0
 24 40  1  0
 24 41  1  0
M  ISO  8  25  13  26  13  27  13  28  13  29  14  30   9  33  14  34  14
M  ISO  7  35   8  36   8  37   8  38   8  39   8  40   8  41   8
M  END
>  <minimizedAffinity>  (1) 
-4.65327311

>  <minimizedRMSD>  (1) 
0.270524591

$$$$
