
     RDKit          3D

 23 24  0  0  0  0  0  0  0  0999 V2000
   37.7140   25.7410   35.7370 C   0  0  0  0  0  0  0  0  0  0  0  0
   40.1060   23.0360   36.6280 C   0  0  0  0  0  0  0  0  0  0  0  0
   39.7350   22.7310   37.9620 C   0  0  0  0  0  0  0  0  0  0  0  0
   38.6560   23.4770   38.5210 C   0  0  0  0  0  0  0  0  0  0  0  0
   38.0610   24.4260   37.7420 N   0  0  0  0  0  0  0  0  0  0  0  0
   38.4630   24.6680   36.4760 C   0  0  0  0  0  0  0  0  0  0  0  0
   39.4690   23.9830   35.9320 N   0  0  0  0  0  0  0  0  0  0  0  0
   38.5000   27.0130   35.7390 C   0  0  0  0  0  0  0  0  0  0  0  0
   39.3210   27.0540   34.5470 N   0  0  0  0  0  0  0  0  0  0  0  0
   40.6270   27.0980   34.5830 N   0  0  0  0  0  0  0  0  0  0  0  0
   41.1620   27.1300   33.3500 C   0  0  0  0  0  0  0  0  0  0  0  0
   40.0840   27.1020   32.4620 C   0  0  0  0  0  0  0  0  0  0  0  0
   38.9420   27.0550   33.2550 C   0  0  0  0  0  0  0  0  0  0  0  0
   36.7447   25.9119   36.2282 H   0  0  0  0  0  0  0  0  0  0  0  0
   37.5559   25.4179   34.6975 H   0  0  0  0  0  0  0  0  0  0  0  0
   40.9327   22.4836   36.1574 H   0  0  0  0  0  0  0  0  0  0  0  0
   40.2562   21.9536   38.5399 H   0  0  0  0  0  0  0  0  0  0  0  0
   38.3134   23.2928   39.5499 H   0  0  0  0  0  0  0  0  0  0  0  0
   37.8133   27.8723   35.7451 H   0  0  0  0  0  0  0  0  0  0  0  0
   39.1373   27.0580   36.6344 H   0  0  0  0  0  0  0  0  0  0  0  0
   42.2308   27.1701   33.0928 H   0  0  0  0  0  0  0  0  0  0  0  0
   40.1289   27.1145   31.3630 H   0  0  0  0  0  0  0  0  0  0  0  0
   37.9053   27.0239   32.8887 H   0  0  0  0  0  0  0  0  0  0  0  0
  1  8  1  0
  1  6  1  0
  2  3  2  0
  3  4  1  0
  5  4  2  0
  6  5  1  0
  7  6  2  0
  7  2  1  0
  9 10  1  0
  9  8  1  0
 11 10  2  0
 12 13  2  0
 12 11  1  0
 13  9  1  0
  1 14  1  0
  1 15  1  0
  2 16  1  0
  3 17  1  0
  4 18  1  0
  8 19  1  0
  8 20  1  0
 11 21  1  0
 12 22  1  0
 13 23  1  0
M  ISO  8  14   8  15   8  16  14  17  14  18  14  19   8  20   8  21  14
M  ISO  2  22  14  23  14
M  END
>  <minimizedAffinity>  (1) 
-3.64760947

>  <minimizedRMSD>  (1) 
1.08894968

$$$$
