
     RDKit          3D

 34 37  0  0  1  0  0  0  0  0999 V2000
   46.1360   25.0120   37.3910 C   0  0  1  0  0  0  0  0  0  0  0  0
   47.2880   24.5050   38.1020 C   0  0  0  0  0  0  0  0  0  0  0  0
   47.5150   24.9460   36.6920 C   0  0  2  0  0  0  0  0  0  0  0  0
   48.2470   26.1910   36.5200 N   0  0  0  0  0  0  0  0  0  0  0  0
   49.4080   26.6550   37.0340 C   0  0  0  0  0  0  0  0  0  0  0  0
   49.6410   27.9030   36.5310 N   0  0  0  0  0  0  0  0  0  0  0  0
   48.6080   28.2090   35.6990 C   0  0  0  0  0  0  0  0  0  0  0  0
   48.3850   29.3510   34.9560 C   0  0  0  0  0  0  0  0  0  0  0  0
   49.1860   30.3440   34.9560 O   0  0  0  0  0  0  0  0  0  0  0  0
   47.2670   29.3780   34.2150 N   0  0  0  0  0  0  0  0  0  0  0  0
   46.4160   28.3650   34.1920 C   0  0  0  0  0  0  0  0  0  0  0  0
   45.2060   28.2920   33.4470 N   0  0  0  0  0  0  0  0  0  0  0  0
   46.6440   27.2750   34.9110 N   0  0  0  0  0  0  0  0  0  0  0  0
   47.7470   27.1330   35.7030 C   0  0  0  0  0  0  0  0  0  0  0  0
   45.2580   23.9730   36.8750 O   0  0  0  0  0  0  0  0  0  0  0  0
   41.8430   23.4690   35.8800 C   0  0  0  0  0  0  0  0  0  0  0  0
   43.1160   23.2650   36.4390 C   0  0  0  0  0  0  0  0  0  0  0  0
   44.0500   24.3000   36.2850 C   0  0  0  0  0  0  0  0  0  0  0  0
   43.7020   25.4450   35.6130 N   0  0  0  0  0  0  0  0  0  0  0  0
   42.4680   25.5800   35.1000 C   0  0  0  0  0  0  0  0  0  0  0  0
   41.5430   24.6010   35.2310 N   0  0  0  0  0  0  0  0  0  0  0  0
   42.1810   26.7950   34.4170 N   0  0  0  0  0  0  0  0  0  0  0  0
   45.3817   25.7822   37.6097 H   0  0  0  0  0  0  0  0  0  0  0  0
   47.7153   25.0934   38.9274 H   0  0  0  0  0  0  0  0  0  0  0  0
   47.4912   23.5699   38.6444 H   0  0  0  0  0  0  0  0  0  0  0  0
   47.9077   24.5068   35.7631 H   0  0  0  0  0  0  0  0  0  0  0  0
   50.0572   26.1167   37.7402 H   0  0  0  0  0  0  0  0  0  0  0  0
   47.0649   30.2128   33.6466 H   0  0  0  0  0  0  0  0  0  0  0  0
   44.6161   27.4496   33.5041 H   0  0  0  0  0  0  0  0  0  0  0  0
   44.9200   29.0816   32.8506 H   0  0  0  0  0  0  0  0  0  0  0  0
   41.0787   22.6840   35.9774 H   0  0  0  0  0  0  0  0  0  0  0  0
   43.3683   22.3367   36.9726 H   0  0  0  0  0  0  0  0  0  0  0  0
   42.9056   27.5223   34.3333 H   0  0  0  0  0  0  0  0  0  0  0  0
   41.2487   26.9472   34.0064 H   0  0  0  0  0  0  0  0  0  0  0  0
  1  2  1  0
  3  1  1  0
  3  2  1  0
  4  3  1  0
  4  5  1  0
  6  5  2  0
  7 14  2  0
  7  6  1  0
  8  9  2  0
  8  7  1  0
 10  8  1  0
 11 10  1  0
 11 13  2  0
 12 11  1  0
 13 14  1  0
 14  4  1  0
 15  1  1  0
 16 17  2  0
 18 17  1  0
 18 15  1  0
 19 18  2  0
 20 21  2  0
 20 19  1  0
 21 16  1  0
 22 20  1  0
  1 23  1  1
  2 24  1  0
  2 25  1  0
  3 26  1  6
  5 27  1  0
 10 28  1  0
 12 29  1  0
 12 30  1  0
 16 31  1  0
 17 32  1  0
 22 33  1  0
 22 34  1  0
M  ISO  8  23  13  24  13  25  13  26  13  27  14  28   9  31  14  32  14
M  END
>  <minimizedAffinity>  (1) 
-4.45748663

>  <minimizedRMSD>  (1) 
0.0869542137

$$$$
