
     RDKit          3D

 49 54  0  0  1  0  0  0  0  0999 V2000
   40.8880   23.2790   35.9250 C   0  0  0  0  0  0  0  0  0  0  0  0
   42.2580   23.1880   36.1900 C   0  0  0  0  0  0  0  0  0  0  0  0
   43.0470   24.2900   35.8510 C   0  0  0  0  0  0  0  0  0  0  0  0
   42.4870   25.3950   35.2920 N   0  0  0  0  0  0  0  0  0  0  0  0
   41.1770   25.4400   35.0570 C   0  0  0  0  0  0  0  0  0  0  0  0
   40.3660   24.4000   35.3630 N   0  0  0  0  0  0  0  0  0  0  0  0
   40.3630   26.5430   34.4840 C   0  0  1  0  0  0  0  0  0  0  0  0
   40.6270   26.8350   32.9580 C   0  0  0  0  0  0  0  0  0  0  0  0
   39.3340   26.3140   33.4420 C   0  0  2  0  0  0  0  0  0  0  0  0
   38.1640   27.2160   33.3420 C   0  0  0  0  0  0  0  0  0  0  0  0
   37.3800   27.5490   34.4490 C   0  0  0  0  0  0  0  0  0  0  0  0
   36.2860   28.3810   34.4050 C   0  0  0  0  0  0  0  0  0  0  0  0
   35.9260   28.9370   33.1810 C   0  0  0  0  0  0  0  0  0  0  0  0
   36.6640   28.6430   32.0580 C   0  0  0  0  0  0  0  0  0  0  0  0
   37.7410   27.8110   32.1540 C   0  0  0  0  0  0  0  0  0  0  0  0
   44.3630   24.0720   36.1590 O   0  0  0  0  0  0  0  0  0  0  0  0
   45.2290   25.0990   36.6830 C   0  0  1  0  0  0  0  0  0  0  0  0
   46.3070   24.6210   37.5160 C   0  0  0  0  0  0  0  0  0  0  0  0
   46.6580   24.9590   36.0960 C   0  0  2  0  0  0  0  0  0  0  0  0
   47.4330   26.1730   35.9060 N   0  0  0  0  0  0  0  0  0  0  0  0
   48.6030   26.6090   36.4490 C   0  0  0  0  0  0  0  0  0  0  0  0
   48.8960   27.8250   35.9280 N   0  0  0  0  0  0  0  0  0  0  0  0
   47.8990   28.1450   35.0540 C   0  0  0  0  0  0  0  0  0  0  0  0
   47.7480   29.2740   34.2790 C   0  0  0  0  0  0  0  0  0  0  0  0
   48.5750   30.2240   34.2830 O   0  0  0  0  0  0  0  0  0  0  0  0
   46.6480   29.3220   33.4980 N   0  0  0  0  0  0  0  0  0  0  0  0
   45.7570   28.3260   33.4770 C   0  0  0  0  0  0  0  0  0  0  0  0
   44.5770   28.2830   32.6950 N   0  0  0  0  0  0  0  0  0  0  0  0
   45.9170   27.2610   34.2210 N   0  0  0  0  0  0  0  0  0  0  0  0
   46.9940   27.1100   35.0490 C   0  0  0  0  0  0  0  0  0  0  0  0
   40.2273   22.4354   36.1738 H   0  0  0  0  0  0  0  0  0  0  0  0
   42.6956   22.2876   36.6457 H   0  0  0  0  0  0  0  0  0  0  0  0
   40.3472   27.0756   35.4463 H   0  0  0  0  0  0  0  0  0  0  0  0
   41.3036   26.1902   32.3781 H   0  0  0  0  0  0  0  0  0  0  0  0
   40.9571   27.7011   32.3657 H   0  0  0  0  0  0  0  0  0  0  0  0
   38.7194   25.4344   33.1998 H   0  0  0  0  0  0  0  0  0  0  0  0
   37.6564   27.1164   35.4219 H   0  0  0  0  0  0  0  0  0  0  0  0
   35.7093   28.6018   35.3153 H   0  0  0  0  0  0  0  0  0  0  0  0
   35.0567   29.6074   33.1120 H   0  0  0  0  0  0  0  0  0  0  0  0
   36.3868   29.0772   31.0861 H   0  0  0  0  0  0  0  0  0  0  0  0
   38.3107   27.5964   31.2378 H   0  0  0  0  0  0  0  0  0  0  0  0
   44.4791   25.8954   36.7988 H   0  0  0  0  0  0  0  0  0  0  0  0
   46.6824   25.2572   38.3311 H   0  0  0  0  0  0  0  0  0  0  0  0
   46.4429   23.7222   38.1354 H   0  0  0  0  0  0  0  0  0  0  0  0
   47.1086   24.4509   35.2307 H   0  0  0  0  0  0  0  0  0  0  0  0
   49.2095   26.0646   37.1878 H   0  0  0  0  0  0  0  0  0  0  0  0
   46.4912   30.1478   32.9027 H   0  0  0  0  0  0  0  0  0  0  0  0
   43.9521   27.4661   32.7502 H   0  0  0  0  0  0  0  0  0  0  0  0
   44.3437   29.0686   32.0711 H   0  0  0  0  0  0  0  0  0  0  0  0
  1  2  2  0
  3 16  1  0
  3  2  1  0
  4  3  2  0
  5  4  1  0
  5  6  2  0
  6  1  1  0
  7  5  1  0
  8  9  1  0
  8  7  1  0
  9  7  1  0
 10  9  1  0
 10 11  2  0
 12 11  1  0
 13 12  2  0
 14 15  2  0
 14 13  1  0
 15 10  1  0
 16 17  1  0
 17 18  1  0
 19 17  1  0
 19 18  1  0
 20 19  1  0
 20 21  1  0
 22 21  2  0
 23 22  1  0
 24 25  2  0
 24 23  1  0
 26 24  1  0
 27 26  1  0
 27 29  2  0
 28 27  1  0
 29 30  1  0
 30 23  2  0
 30 20  1  0
  1 31  1  0
  2 32  1  0
  7 33  1  1
  8 34  1  0
  8 35  1  0
  9 36  1  6
 11 37  1  0
 12 38  1  0
 13 39  1  0
 14 40  1  0
 15 41  1  0
 17 42  1  1
 18 43  1  0
 18 44  1  0
 19 45  1  6
 21 46  1  0
 26 47  1  0
 28 48  1  0
 28 49  1  0
M  ISO  8  31  14  32  14  33  13  34  13  35  13  36  13  37  14  38  14
M  ISO  8  39  14  40  14  41  14  42  13  43  13  44  13  45  13  46  14
M  ISO  1  47   9
M  END
>  <minimizedAffinity>  (1) 
-5.61259079

>  <minimizedRMSD>  (1) 
1.13780963

$$$$
