
     RDKit          3D

 45 50  0  0  1  0  0  0  0  0999 V2000
   41.6340   21.9500   37.2530 C   0  0  1  0  0  0  0  0  0  0  0  0
   42.4400   20.7680   37.0640 C   0  0  0  0  0  0  0  0  0  0  0  0
   42.4930   21.7920   35.9690 C   0  0  2  0  0  0  0  0  0  0  0  0
   43.7240   22.5580   35.8850 N   0  0  0  0  0  0  0  0  0  0  0  0
   45.0280   22.2320   36.0870 C   0  0  0  0  0  0  0  0  0  0  0  0
   45.7920   23.3330   35.8780 N   0  0  0  0  0  0  0  0  0  0  0  0
   44.9530   24.3580   35.5410 C   0  0  0  0  0  0  0  0  0  0  0  0
   45.2510   25.6610   35.2370 C   0  0  0  0  0  0  0  0  0  0  0  0
   46.4180   26.1140   35.2290 O   0  0  0  0  0  0  0  0  0  0  0  0
   44.2020   26.4580   34.9380 N   0  0  0  0  0  0  0  0  0  0  0  0
   42.9440   26.0020   34.9380 C   0  0  0  0  0  0  0  0  0  0  0  0
   41.7810   26.7570   34.6410 N   0  0  0  0  0  0  0  0  0  0  0  0
   42.6790   24.7540   35.2310 N   0  0  0  0  0  0  0  0  0  0  0  0
   43.6640   23.8600   35.5490 C   0  0  0  0  0  0  0  0  0  0  0  0
   40.2350   21.7840   36.9580 O   0  0  0  0  0  0  0  0  0  0  0  0
   37.7920   24.3890   37.0290 C   0  0  0  0  0  0  0  0  0  0  0  0
   38.6470   23.3490   37.4290 C   0  0  0  0  0  0  0  0  0  0  0  0
   39.4560   22.7830   36.4410 C   0  0  0  0  0  0  0  0  0  0  0  0
   39.4040   23.2300   35.1580 N   0  0  0  0  0  0  0  0  0  0  0  0
   38.5750   24.2190   34.8260 C   0  0  0  0  0  0  0  0  0  0  0  0
   37.7710   24.8030   35.7430 N   0  0  0  0  0  0  0  0  0  0  0  0
   38.3810   24.8740   33.5030 C   0  0  1  0  0  0  0  0  0  0  0  0
   37.4780   24.0600   32.4980 C   0  0  0  0  0  0  0  0  0  0  0  0
   37.0600   25.3660   33.0460 C   0  0  2  0  0  0  0  0  0  0  0  0
   37.0080   26.5520   32.2130 N   0  0  0  0  0  0  0  0  0  0  0  0
   37.8420   27.6300   32.2410 C   0  0  0  0  0  0  0  0  0  0  0  0
   37.4980   28.5460   31.3250 N   0  0  0  0  0  0  0  0  0  0  0  0
   36.4120   28.0380   30.6940 C   0  0  0  0  0  0  0  0  0  0  0  0
   36.1460   26.8410   31.2520 N   0  0  0  0  0  0  0  0  0  0  0  0
   41.5357   22.6789   38.0710 H   0  0  0  0  0  0  0  0  0  0  0  0
   43.3244   20.6107   37.6990 H   0  0  0  0  0  0  0  0  0  0  0  0
   42.2174   19.6909   37.0812 H   0  0  0  0  0  0  0  0  0  0  0  0
   42.3057   21.8306   34.8857 H   0  0  0  0  0  0  0  0  0  0  0  0
   45.4024   21.2380   36.3731 H   0  0  0  0  0  0  0  0  0  0  0  0
   44.3757   27.4457   34.7031 H   0  0  0  0  0  0  0  0  0  0  0  0
   40.8544   26.3081   34.6695 H   0  0  0  0  0  0  0  0  0  0  0  0
   41.8629   27.7543   34.3967 H   0  0  0  0  0  0  0  0  0  0  0  0
   37.1346   24.8701   37.7682 H   0  0  0  0  0  0  0  0  0  0  0  0
   38.6780   22.9970   38.4707 H   0  0  0  0  0  0  0  0  0  0  0  0
   39.3766   25.3398   33.5455 H   0  0  0  0  0  0  0  0  0  0  0  0
   36.9787   23.1354   32.8234 H   0  0  0  0  0  0  0  0  0  0  0  0
   37.6046   23.6289   31.4940 H   0  0  0  0  0  0  0  0  0  0  0  0
   36.1419   25.6874   33.5597 H   0  0  0  0  0  0  0  0  0  0  0  0
   38.6926   27.7351   32.9305 H   0  0  0  0  0  0  0  0  0  0  0  0
   35.8510   28.5149   29.8768 H   0  0  0  0  0  0  0  0  0  0  0  0
  2  1  1  0
  3  2  1  0
  3  1  1  0
  4  3  1  0
  4  5  1  0
  6  5  2  0
  7 14  2  0
  7  6  1  0
  8  7  1  0
  9  8  2  0
 10 11  1  0
 10  8  1  0
 11 13  2  0
 12 11  1  0
 13 14  1  0
 14  4  1  0
 15  1  1  0
 16 17  2  0
 18 15  1  0
 18 17  1  0
 19 18  2  0
 20 19  1  0
 20 21  2  0
 21 16  1  0
 22 20  1  0
 23 24  1  0
 23 22  1  0
 24 22  1  0
 25 26  1  0
 25 24  1  0
 27 26  2  0
 28 29  2  0
 28 27  1  0
 29 25  1  0
  1 30  1  1
  2 31  1  0
  2 32  1  0
  3 33  1  6
  5 34  1  0
 10 35  1  0
 12 36  1  0
 12 37  1  0
 16 38  1  0
 17 39  1  0
 22 40  1  6
 23 41  1  0
 23 42  1  0
 24 43  1  1
 26 44  1  0
 28 45  1  0
M  ISO  8  30  13  31  13  32  13  33  13  34  14  35   9  38  14  39  14
M  ISO  6  40  13  41  13  42  13  43  13  44  14  45  14
M  END
>  <minimizedAffinity>  (1) 
-5.45364666

>  <minimizedRMSD>  (1) 
4.52845955

$$$$
