
     RDKit          3D

 23 24  0  0  0  0  0  0  0  0999 V2000
   39.7520   22.8290   37.6930 C   0  0  0  0  0  0  0  0  0  0  0  0
   38.9260   23.3090   38.7430 C   0  0  0  0  0  0  0  0  0  0  0  0
   37.9390   24.2760   38.3990 C   0  0  0  0  0  0  0  0  0  0  0  0
   37.8520   24.6730   37.0990 N   0  0  0  0  0  0  0  0  0  0  0  0
   38.6670   24.1780   36.1490 C   0  0  0  0  0  0  0  0  0  0  0  0
   39.6070   23.2700   36.4320 N   0  0  0  0  0  0  0  0  0  0  0  0
   38.4530   24.7110   34.7590 C   0  0  0  0  0  0  0  0  0  0  0  0
   38.4610   26.2100   34.7670 C   0  0  0  0  0  0  0  0  0  0  0  0
   37.1130   26.6720   34.2500 C   0  0  0  0  0  0  0  0  0  0  0  0
   36.6280   28.0310   34.5010 C   0  0  0  0  0  0  0  0  0  0  0  0
   37.1210   27.7040   33.1400 C   0  0  0  0  0  0  0  0  0  0  0  0
   40.5267   22.0807   37.9162 H   0  0  0  0  0  0  0  0  0  0  0  0
   39.0432   22.9500   39.7761 H   0  0  0  0  0  0  0  0  0  0  0  0
   37.2649   24.6912   39.1626 H   0  0  0  0  0  0  0  0  0  0  0  0
   37.4834   24.3558   34.3799 H   0  0  0  0  0  0  0  0  0  0  0  0
   39.2664   24.3534   34.1106 H   0  0  0  0  0  0  0  0  0  0  0  0
   38.6181   26.5799   35.7910 H   0  0  0  0  0  0  0  0  0  0  0  0
   39.2736   26.5980   34.1352 H   0  0  0  0  0  0  0  0  0  0  0  0
   36.6819   25.6741   34.4183 H   0  0  0  0  0  0  0  0  0  0  0  0
   35.5541   28.2047   34.6643 H   0  0  0  0  0  0  0  0  0  0  0  0
   36.8737   28.8086   35.2392 H   0  0  0  0  0  0  0  0  0  0  0  0
   38.0721   28.1229   32.7795 H   0  0  0  0  0  0  0  0  0  0  0  0
   36.7141   27.7655   32.1199 H   0  0  0  0  0  0  0  0  0  0  0  0
  1  2  2  0
  3  2  1  0
  4  3  2  0
  5  6  2  0
  5  4  1  0
  6  1  1  0
  7  8  1  0
  7  5  1  0
  9 10  1  0
  9  8  1  0
 11  9  1  0
 11 10  1  0
  1 12  1  0
  2 13  1  0
  3 14  1  0
  7 15  1  0
  7 16  1  0
  8 17  1  0
  8 18  1  0
  9 19  1  0
 10 20  1  0
 10 21  1  0
 11 22  1  0
 11 23  1  0
M  ISO  8  12  14  13  14  14  14  15   8  16   8  17   8  18   8  19  13
M  ISO  4  20  13  21  13  22  13  23  13
M  END
>  <minimizedAffinity>  (1) 
-3.45134568

>  <minimizedRMSD>  (1) 
1.38779783

$$$$
