
     RDKit          3D

 55 60  0  0  1  0  0  0  0  0999 V2000
   45.6180   24.9300   36.7130 C   0  0  1  0  0  0  0  0  0  0  0  0
   46.6440   24.2440   37.4590 C   0  0  0  0  0  0  0  0  0  0  0  0
   47.0560   24.8310   36.1360 C   0  0  2  0  0  0  0  0  0  0  0  0
   47.8960   26.0190   36.2270 N   0  0  0  0  0  0  0  0  0  0  0  0
   49.0200   26.2990   36.9350 C   0  0  0  0  0  0  0  0  0  0  0  0
   49.4140   27.5740   36.6570 N   0  0  0  0  0  0  0  0  0  0  0  0
   48.5160   28.0840   35.7630 C   0  0  0  0  0  0  0  0  0  0  0  0
   48.4800   29.3280   35.1800 C   0  0  0  0  0  0  0  0  0  0  0  0
   49.3330   30.2180   35.4150 O   0  0  0  0  0  0  0  0  0  0  0  0
   47.4660   29.5630   34.3220 N   0  0  0  0  0  0  0  0  0  0  0  0
   46.5370   28.6310   34.0520 C   0  0  0  0  0  0  0  0  0  0  0  0
   45.4410   28.7800   33.1710 N   0  0  0  0  0  0  0  0  0  0  0  0
   46.5880   27.4490   34.6180 N   0  0  0  0  0  0  0  0  0  0  0  0
   47.5750   27.1050   35.5030 C   0  0  0  0  0  0  0  0  0  0  0  0
   44.7210   24.0780   35.9680 O   0  0  0  0  0  0  0  0  0  0  0  0
   41.1760   23.6820   35.6820 C   0  0  0  0  0  0  0  0  0  0  0  0
   42.5280   23.4370   35.9590 C   0  0  0  0  0  0  0  0  0  0  0  0
   43.4430   24.4440   35.6520 C   0  0  0  0  0  0  0  0  0  0  0  0
   43.0020   25.6180   35.1010 N   0  0  0  0  0  0  0  0  0  0  0  0
   41.7160   25.8000   34.8590 C   0  0  0  0  0  0  0  0  0  0  0  0
   40.7990   24.8460   35.1430 N   0  0  0  0  0  0  0  0  0  0  0  0
   41.0290   26.9930   34.2890 C   0  0  1  0  0  0  0  0  0  0  0  0
   41.6790   27.6100   33.0120 C   0  0  0  0  0  0  0  0  0  0  0  0
   40.3550   26.9750   32.9710 C   0  0  1  0  0  0  0  0  0  0  0  0
   40.1920   25.7970   32.0970 C   0  0  0  0  0  0  0  0  0  0  0  0
   40.8660   25.8050   30.7790 C   0  0  0  0  0  0  0  0  0  0  0  0
   39.9660   26.0340   29.5950 C   0  0  0  0  0  0  0  0  0  0  0  0
   38.8980   27.0620   29.8330 C   0  0  0  0  0  0  0  0  0  0  0  0
   38.2390   26.9200   31.1820 C   0  0  0  0  0  0  0  0  0  0  0  0
   38.6890   25.6240   31.8160 C   0  0  0  0  0  0  0  0  0  0  0  0
   44.9030   25.7244   36.9734 H   0  0  0  0  0  0  0  0  0  0  0  0
   47.0246   24.6902   38.3896 H   0  0  0  0  0  0  0  0  0  0  0  0
   46.7166   23.2367   37.8951 H   0  0  0  0  0  0  0  0  0  0  0  0
   47.5034   24.4806   35.1942 H   0  0  0  0  0  0  0  0  0  0  0  0
   49.5305   25.6083   37.6222 H   0  0  0  0  0  0  0  0  0  0  0  0
   47.4023   30.4820   33.8613 H   0  0  0  0  0  0  0  0  0  0  0  0
   44.7819   28.0007   33.0326 H   0  0  0  0  0  0  0  0  0  0  0  0
   45.3018   29.6678   32.6677 H   0  0  0  0  0  0  0  0  0  0  0  0
   40.4223   22.9136   35.9089 H   0  0  0  0  0  0  0  0  0  0  0  0
   42.8555   22.4851   36.4024 H   0  0  0  0  0  0  0  0  0  0  0  0
   40.7092   27.3089   35.2930 H   0  0  0  0  0  0  0  0  0  0  0  0
   41.7738   28.7012   32.9103 H   0  0  0  0  0  0  0  0  0  0  0  0
   42.6296   27.4833   32.4732 H   0  0  0  0  0  0  0  0  0  0  0  0
   39.3288   27.2663   32.7026 H   0  0  0  0  0  0  0  0  0  0  0  0
   40.6746   24.9855   32.6614 H   0  0  0  0  0  0  0  0  0  0  0  0
   41.6225   26.6034   30.7896 H   0  0  0  0  0  0  0  0  0  0  0  0
   41.2881   24.7976   30.6484 H   0  0  0  0  0  0  0  0  0  0  0  0
   39.4790   25.0810   29.3406 H   0  0  0  0  0  0  0  0  0  0  0  0
   40.6000   26.4147   28.7807 H   0  0  0  0  0  0  0  0  0  0  0  0
   39.3519   28.0618   29.7673 H   0  0  0  0  0  0  0  0  0  0  0  0
   38.1211   26.9150   29.0683 H   0  0  0  0  0  0  0  0  0  0  0  0
   38.5283   27.7647   31.8244 H   0  0  0  0  0  0  0  0  0  0  0  0
   37.1455   26.9150   31.0625 H   0  0  0  0  0  0  0  0  0  0  0  0
   38.1418   25.4454   32.7534 H   0  0  0  0  0  0  0  0  0  0  0  0
   38.4954   24.7626   31.1598 H   0  0  0  0  0  0  0  0  0  0  0  0
  1  2  1  0
  3  4  1  0
  3  1  1  0
  3  2  1  0
  4  5  1  0
  6  5  2  0
  7  6  1  0
  8  9  2  0
  8  7  1  0
 10  8  1  0
 11 10  1  0
 11 13  2  0
 12 11  1  0
 13 14  1  0
 14  7  2  0
 14  4  1  0
 15  1  1  0
 16 17  2  0
 18 17  1  0
 18 15  1  0
 19 18  2  0
 20 19  1  0
 20 21  2  0
 21 16  1  0
 22 20  1  0
 23 22  1  0
 24 23  1  0
 24 22  1  0
 25 24  1  0
 26 25  1  0
 27 28  1  0
 27 26  1  0
 28 29  1  0
 29 30  1  0
 30 25  1  0
  1 31  1  1
  2 32  1  0
  2 33  1  0
  3 34  1  6
  5 35  1  0
 10 36  1  0
 12 37  1  0
 12 38  1  0
 16 39  1  0
 17 40  1  0
 22 41  1  1
 23 42  1  0
 23 43  1  0
 24 44  1  1
 25 45  1  0
 26 46  1  0
 26 47  1  0
 27 48  1  0
 27 49  1  0
 28 50  1  0
 28 51  1  0
 29 52  1  0
 29 53  1  0
 30 54  1  0
 30 55  1  0
M  ISO  8  31  13  32  13  33  13  34  13  35  14  36   9  39  14  40  14
M  ISO  8  41  13  42  13  43  13  44  13  45  13  46  13  47  13  48  13
M  ISO  7  49  13  50  13  51  13  52  13  53  13  54  13  55  13
M  END
>  <minimizedAffinity>  (1) 
-5.05973339

>  <minimizedRMSD>  (1) 
1.27473664

$$$$
