
     RDKit          3D

 45 49  0  0  1  0  0  0  0  0999 V2000
   46.1150   24.9320   37.2320 C   0  0  1  0  0  0  0  0  0  0  0  0
   47.2290   24.4990   38.0410 C   0  0  0  0  0  0  0  0  0  0  0  0
   47.5410   24.8760   36.6210 C   0  0  2  0  0  0  0  0  0  0  0  0
   48.2450   26.1420   36.4540 N   0  0  0  0  0  0  0  0  0  0  0  0
   49.4080   26.6220   36.9640 C   0  0  0  0  0  0  0  0  0  0  0  0
   49.6160   27.8780   36.4850 N   0  0  0  0  0  0  0  0  0  0  0  0
   48.5620   28.1780   35.6660 C   0  0  0  0  0  0  0  0  0  0  0  0
   48.3130   29.3210   34.9490 C   0  0  0  0  0  0  0  0  0  0  0  0
   49.0840   30.3140   34.9590 O   0  0  0  0  0  0  0  0  0  0  0  0
   47.1880   29.3430   34.2190 N   0  0  0  0  0  0  0  0  0  0  0  0
   46.3470   28.2960   34.1910 C   0  0  0  0  0  0  0  0  0  0  0  0
   45.1300   28.2150   33.4570 N   0  0  0  0  0  0  0  0  0  0  0  0
   46.5950   27.2100   34.8780 N   0  0  0  0  0  0  0  0  0  0  0  0
   47.7170   27.0870   35.6550 C   0  0  0  0  0  0  0  0  0  0  0  0
   45.2990   23.8680   36.7000 O   0  0  0  0  0  0  0  0  0  0  0  0
   41.9000   22.9590   36.0650 C   0  0  0  0  0  0  0  0  0  0  0  0
   43.2390   22.9040   36.4620 C   0  0  0  0  0  0  0  0  0  0  0  0
   44.0140   24.0540   36.2750 C   0  0  0  0  0  0  0  0  0  0  0  0
   43.4530   25.1820   35.7210 N   0  0  0  0  0  0  0  0  0  0  0  0
   42.1800   25.1800   35.3620 C   0  0  0  0  0  0  0  0  0  0  0  0
   41.3950   24.0930   35.5230 N   0  0  0  0  0  0  0  0  0  0  0  0
   41.3830   26.2940   34.7770 C   0  0  1  0  0  0  0  0  0  0  0  0
   41.2670   26.2610   33.2040 C   0  0  0  0  0  0  0  0  0  0  0  0
   40.0950   26.0690   34.0810 C   0  0  2  0  0  0  0  0  0  0  0  0
   39.0130   27.1350   34.1840 C   0  0  0  0  0  0  0  0  0  0  0  0
   38.6930   27.3230   35.6340 C   0  0  0  0  0  0  0  0  0  0  0  0
   45.3259   25.6852   37.3736 H   0  0  0  0  0  0  0  0  0  0  0  0
   47.5831   25.1418   38.8604 H   0  0  0  0  0  0  0  0  0  0  0  0
   47.4209   23.5993   38.6441 H   0  0  0  0  0  0  0  0  0  0  0  0
   48.0037   24.4063   35.7405 H   0  0  0  0  0  0  0  0  0  0  0  0
   50.0743   26.0825   37.6531 H   0  0  0  0  0  0  0  0  0  0  0  0
   46.9636   30.1829   33.6666 H   0  0  0  0  0  0  0  0  0  0  0  0
   44.5556   27.3614   33.5048 H   0  0  0  0  0  0  0  0  0  0  0  0
   44.8239   29.0100   32.8781 H   0  0  0  0  0  0  0  0  0  0  0  0
   41.2539   22.0781   36.1932 H   0  0  0  0  0  0  0  0  0  0  0  0
   43.6669   21.9922   36.9042 H   0  0  0  0  0  0  0  0  0  0  0  0
   41.6878   26.9818   35.5795 H   0  0  0  0  0  0  0  0  0  0  0  0
   41.6790   25.4152   32.6340 H   0  0  0  0  0  0  0  0  0  0  0  0
   41.5332   26.9369   32.3780 H   0  0  0  0  0  0  0  0  0  0  0  0
   39.3298   25.2801   34.1264 H   0  0  0  0  0  0  0  0  0  0  0  0
   39.3770   28.0804   33.7554 H   0  0  0  0  0  0  0  0  0  0  0  0
   38.1149   26.8260   33.6291 H   0  0  0  0  0  0  0  0  0  0  0  0
   39.4809   26.8601   36.2464 H   0  0  0  0  0  0  0  0  0  0  0  0
   38.6364   28.3979   35.8606 H   0  0  0  0  0  0  0  0  0  0  0  0
   37.7265   26.8491   35.8606 H   0  0  0  0  0  0  0  0  0  0  0  0
  1  2  1  0
  3  1  1  0
  3  2  1  0
  4  3  1  0
  4  5  1  0
  6  5  2  0
  7  6  1  0
  8  9  2  0
  8  7  1  0
 10  8  1  0
 11 10  1  0
 11 13  2  0
 12 11  1  0
 13 14  1  0
 14  7  2  0
 14  4  1  0
 15  1  1  0
 16 17  2  0
 18 17  1  0
 18 15  1  0
 19 18  2  0
 20 21  2  0
 20 19  1  0
 21 16  1  0
 22 20  1  0
 23 24  1  0
 23 22  1  0
 24 25  1  0
 24 22  1  0
 25 26  1  0
  1 27  1  1
  2 28  1  0
  2 29  1  0
  3 30  1  6
  5 31  1  0
 10 32  1  0
 12 33  1  0
 12 34  1  0
 16 35  1  0
 17 36  1  0
 22 37  1  6
 23 38  1  0
 23 39  1  0
 24 40  1  1
 25 41  1  0
 25 42  1  0
 26 43  1  0
 26 44  1  0
 26 45  1  0
M  ISO  8  27  13  28  13  29  13  30  13  31  14  32   9  35  14  36  14
M  ISO  8  37  13  38  13  39  13  40  13  41   8  42   8  43   8  44   8
M  ISO  1  45   8
M  END
>  <minimizedAffinity>  (1) 
-4.87624598

>  <minimizedRMSD>  (1) 
0.726113081

$$$$
