
     RDKit          3D

 46 51  0  0  1  0  0  0  0  0999 V2000
   45.0760   24.9850   36.2790 C   0  0  1  0  0  0  0  0  0  0  0  0
   45.9650   24.1420   37.0360 C   0  0  0  0  0  0  0  0  0  0  0  0
   46.5450   24.7960   35.8150 C   0  0  2  0  0  0  0  0  0  0  0  0
   47.4760   25.8950   36.0710 N   0  0  0  0  0  0  0  0  0  0  0  0
   48.5390   26.0130   36.9000 C   0  0  0  0  0  0  0  0  0  0  0  0
   49.0740   27.2460   36.7610 N   0  0  0  0  0  0  0  0  0  0  0  0
   48.3230   27.9030   35.8210 C   0  0  0  0  0  0  0  0  0  0  0  0
   48.4620   29.1810   35.3290 C   0  0  0  0  0  0  0  0  0  0  0  0
   49.3760   29.9720   35.7160 O   0  0  0  0  0  0  0  0  0  0  0  0
   47.5680   29.5700   34.3970 N   0  0  0  0  0  0  0  0  0  0  0  0
   46.5960   28.7550   33.9740 C   0  0  0  0  0  0  0  0  0  0  0  0
   45.6150   29.0660   33.0060 N   0  0  0  0  0  0  0  0  0  0  0  0
   46.4800   27.5400   34.4560 N   0  0  0  0  0  0  0  0  0  0  0  0
   47.3340   27.0480   35.4040 C   0  0  0  0  0  0  0  0  0  0  0  0
   44.1800   24.2840   35.3760 O   0  0  0  0  0  0  0  0  0  0  0  0
   40.6850   23.6710   35.8830 C   0  0  0  0  0  0  0  0  0  0  0  0
   42.0830   23.5200   35.8780 C   0  0  0  0  0  0  0  0  0  0  0  0
   42.8340   24.5530   35.3210 C   0  0  0  0  0  0  0  0  0  0  0  0
   42.2150   25.6520   34.8100 N   0  0  0  0  0  0  0  0  0  0  0  0
   40.8910   25.7460   34.8370 C   0  0  0  0  0  0  0  0  0  0  0  0
   40.1270   24.7840   35.3610 N   0  0  0  0  0  0  0  0  0  0  0  0
   40.0220   26.8490   34.3650 C   0  0  1  0  0  0  0  0  0  0  0  0
   40.3010   27.3480   32.8950 C   0  0  0  0  0  0  0  0  0  0  0  0
   39.0290   26.7080   33.2770 C   0  0  1  0  0  0  0  0  0  0  0  0
   38.7080   25.3470   32.7950 C   0  0  0  0  0  0  0  0  0  0  0  0
   39.1970   24.5950   31.7170 C   0  0  0  0  0  0  0  0  0  0  0  0
   38.5930   23.3960   31.6850 N   0  0  0  0  0  0  0  0  0  0  0  0
   37.7130   23.3180   32.7060 C   0  0  0  0  0  0  0  0  0  0  0  0
   37.8110   24.4890   33.3390 N   0  0  0  0  0  0  0  0  0  0  0  0
   44.4130   25.8180   36.5556 H   0  0  0  0  0  0  0  0  0  0  0  0
   46.2990   24.4671   38.0324 H   0  0  0  0  0  0  0  0  0  0  0  0
   45.9075   23.0985   37.3792 H   0  0  0  0  0  0  0  0  0  0  0  0
   47.0465   24.4809   34.8881 H   0  0  0  0  0  0  0  0  0  0  0  0
   48.9086   25.2302   37.5787 H   0  0  0  0  0  0  0  0  0  0  0  0
   47.6357   30.5185   34.0012 H   0  0  0  0  0  0  0  0  0  0  0  0
   44.9057   28.3651   32.7480 H   0  0  0  0  0  0  0  0  0  0  0  0
   45.6091   29.9936   32.5583 H   0  0  0  0  0  0  0  0  0  0  0  0
   40.0472   22.8838   36.3114 H   0  0  0  0  0  0  0  0  0  0  0  0
   42.5638   22.6235   36.2965 H   0  0  0  0  0  0  0  0  0  0  0  0
   39.9519   27.2462   35.3884 H   0  0  0  0  0  0  0  0  0  0  0  0
   41.0203   26.8163   32.2548 H   0  0  0  0  0  0  0  0  0  0  0  0
   40.5979   28.2977   32.4261 H   0  0  0  0  0  0  0  0  0  0  0  0
   37.9807   27.0191   33.1574 H   0  0  0  0  0  0  0  0  0  0  0  0
   39.9616   24.9365   31.0037 H   0  0  0  0  0  0  0  0  0  0  0  0
   37.0572   22.4724   32.9610 H   0  0  0  0  0  0  0  0  0  0  0  0
   37.2513   24.7213   34.1719 H   0  0  0  0  0  0  0  0  0  0  0  0
  1  2  1  0
  3  4  1  0
  3  1  1  0
  3  2  1  0
  4  5  1  0
  6  5  2  0
  7  6  1  0
  8  9  2  0
  8  7  1  0
 10  8  1  0
 11 10  1  0
 11 13  2  0
 12 11  1  0
 13 14  1  0
 14  7  2  0
 14  4  1  0
 15  1  1  0
 17 16  2  0
 18 15  1  0
 18 17  1  0
 19 20  1  0
 19 18  2  0
 20 21  2  0
 21 16  1  0
 22 20  1  0
 23 24  1  0
 23 22  1  0
 24 22  1  0
 25 24  1  0
 25 29  1  0
 26 25  2  0
 27 26  1  0
 27 28  2  0
 28 29  1  0
  1 30  1  1
  2 31  1  0
  2 32  1  0
  3 33  1  6
  5 34  1  0
 10 35  1  0
 12 36  1  0
 12 37  1  0
 16 38  1  0
 17 39  1  0
 22 40  1  1
 23 41  1  0
 23 42  1  0
 24 43  1  1
 26 44  1  0
 28 45  1  0
 29 46  1  0
M  ISO  8  30  13  31  13  32  13  33  13  34  14  35   9  38  14  39  14
M  ISO  7  40  13  41  13  42  13  43  13  44  14  45  14  46   9
M  END
>  <minimizedAffinity>  (1) 
-4.80644464

>  <minimizedRMSD>  (1) 
1.09787571

$$$$
