
     RDKit          3D

 42 46  0  0  1  0  0  0  0  0999 V2000
   45.5600   25.1150   36.8450 C   0  0  1  0  0  0  0  0  0  0  0  0
   46.5490   24.5280   37.7140 C   0  0  0  0  0  0  0  0  0  0  0  0
   47.0240   24.9650   36.3540 C   0  0  2  0  0  0  0  0  0  0  0  0
   47.8540   26.1620   36.3330 N   0  0  0  0  0  0  0  0  0  0  0  0
   48.9890   26.4970   36.9970 C   0  0  0  0  0  0  0  0  0  0  0  0
   49.3690   27.7440   36.6140 N   0  0  0  0  0  0  0  0  0  0  0  0
   48.4540   28.1750   35.7040 C   0  0  0  0  0  0  0  0  0  0  0  0
   48.4080   29.3800   35.0270 C   0  0  0  0  0  0  0  0  0  0  0  0
   49.2600   30.2870   35.1750 O   0  0  0  0  0  0  0  0  0  0  0  0
   47.3780   29.5450   34.1740 N   0  0  0  0  0  0  0  0  0  0  0  0
   46.4490   28.5910   33.9930 C   0  0  0  0  0  0  0  0  0  0  0  0
   45.3360   28.6690   33.1260 N   0  0  0  0  0  0  0  0  0  0  0  0
   46.5150   27.4570   34.6470 N   0  0  0  0  0  0  0  0  0  0  0  0
   47.5180   27.1850   35.5370 C   0  0  0  0  0  0  0  0  0  0  0  0
   44.7020   24.1740   36.1590 O   0  0  0  0  0  0  0  0  0  0  0  0
   41.1910   23.6210   35.8020 C   0  0  0  0  0  0  0  0  0  0  0  0
   42.5360   23.4480   36.1290 C   0  0  0  0  0  0  0  0  0  0  0  0
   43.4220   24.4710   35.7850 C   0  0  0  0  0  0  0  0  0  0  0  0
   42.9590   25.5970   35.1480 N   0  0  0  0  0  0  0  0  0  0  0  0
   41.6740   25.7150   34.8580 C   0  0  0  0  0  0  0  0  0  0  0  0
   40.7780   24.7520   35.1710 N   0  0  0  0  0  0  0  0  0  0  0  0
   40.9720   26.8500   34.2050 C   0  0  1  0  0  0  0  0  0  0  0  0
   41.8020   27.5930   33.0900 C   0  0  0  0  0  0  0  0  0  0  0  0
   40.5720   26.8350   32.7780 C   0  0  1  0  0  0  0  0  0  0  0  0
   40.7740   25.5830   31.9440 C   0  0  0  0  0  0  0  0  0  0  0  0
   44.8304   25.9275   36.9772 H   0  0  0  0  0  0  0  0  0  0  0  0
   46.8810   25.0806   38.6053 H   0  0  0  0  0  0  0  0  0  0  0  0
   46.6035   23.5777   38.2653 H   0  0  0  0  0  0  0  0  0  0  0  0
   47.5216   24.5117   35.4840 H   0  0  0  0  0  0  0  0  0  0  0  0
   49.5151   25.8630   37.7258 H   0  0  0  0  0  0  0  0  0  0  0  0
   47.3006   30.4262   33.6464 H   0  0  0  0  0  0  0  0  0  0  0  0
   44.6787   27.8788   33.0593 H   0  0  0  0  0  0  0  0  0  0  0  0
   45.1819   29.5161   32.5607 H   0  0  0  0  0  0  0  0  0  0  0  0
   40.4610   22.8383   36.0560 H   0  0  0  0  0  0  0  0  0  0  0  0
   42.8860   22.5386   36.6394 H   0  0  0  0  0  0  0  0  0  0  0  0
   40.4234   27.0777   35.1309 H   0  0  0  0  0  0  0  0  0  0  0  0
   41.8053   28.6918   33.0394 H   0  0  0  0  0  0  0  0  0  0  0  0
   42.8459   27.5817   32.7433 H   0  0  0  0  0  0  0  0  0  0  0  0
   39.6129   27.0694   32.2931 H   0  0  0  0  0  0  0  0  0  0  0  0
   40.9136   24.7180   32.6090 H   0  0  0  0  0  0  0  0  0  0  0  0
   39.8907   25.4188   31.3093 H   0  0  0  0  0  0  0  0  0  0  0  0
   41.6641   25.7049   31.3093 H   0  0  0  0  0  0  0  0  0  0  0  0
  1  2  1  0
  3  1  1  0
  3  2  1  0
  4  3  1  0
  4  5  1  0
  6  5  2  0
  7  6  1  0
  8  9  2  0
  8  7  1  0
 10  8  1  0
 11 10  1  0
 11 13  2  0
 12 11  1  0
 13 14  1  0
 14  7  2  0
 14  4  1  0
 15  1  1  0
 16 17  2  0
 18 17  1  0
 18 15  1  0
 19 18  2  0
 20 19  1  0
 20 21  2  0
 21 16  1  0
 22 20  1  0
 23 22  1  0
 24 23  1  0
 24 22  1  0
 25 24  1  0
  1 26  1  1
  2 27  1  0
  2 28  1  0
  3 29  1  6
  5 30  1  0
 10 31  1  0
 12 32  1  0
 12 33  1  0
 16 34  1  0
 17 35  1  0
 22 36  1  1
 23 37  1  0
 23 38  1  0
 24 39  1  1
 25 40  1  0
 25 41  1  0
 25 42  1  0
M  ISO  8  26  13  27  13  28  13  29  13  30  14  31   9  34  14  35  14
M  ISO  7  36  13  37  13  38  13  39  13  40   8  41   8  42   8
M  END
>  <minimizedAffinity>  (1) 
-4.6423583

>  <minimizedRMSD>  (1) 
0.360968292

$$$$
