
     RDKit          3D

 42 46  0  0  1  0  0  0  0  0999 V2000
   45.6560   25.0540   36.8780 C   0  0  1  0  0  0  0  0  0  0  0  0
   46.6490   24.4420   37.7290 C   0  0  0  0  0  0  0  0  0  0  0  0
   47.1160   24.9010   36.3770 C   0  0  2  0  0  0  0  0  0  0  0  0
   47.9560   26.0850   36.3720 N   0  0  0  0  0  0  0  0  0  0  0  0
   49.1080   26.4110   37.0200 C   0  0  0  0  0  0  0  0  0  0  0  0
   49.4830   27.6550   36.6560 N   0  0  0  0  0  0  0  0  0  0  0  0
   48.5570   28.1150   35.7720 C   0  0  0  0  0  0  0  0  0  0  0  0
   48.5000   29.3310   35.1180 C   0  0  0  0  0  0  0  0  0  0  0  0
   49.3700   30.2360   35.2750 O   0  0  0  0  0  0  0  0  0  0  0  0
   47.4570   29.5180   34.2870 N   0  0  0  0  0  0  0  0  0  0  0  0
   46.5210   28.5710   34.1060 C   0  0  0  0  0  0  0  0  0  0  0  0
   45.3940   28.6730   33.2590 N   0  0  0  0  0  0  0  0  0  0  0  0
   46.5950   27.4240   34.7370 N   0  0  0  0  0  0  0  0  0  0  0  0
   47.6120   27.1310   35.6010 C   0  0  0  0  0  0  0  0  0  0  0  0
   44.7830   24.1310   36.1900 O   0  0  0  0  0  0  0  0  0  0  0  0
   41.2680   23.6820   35.6360 C   0  0  0  0  0  0  0  0  0  0  0  0
   42.6090   23.4540   36.0190 C   0  0  0  0  0  0  0  0  0  0  0  0
   43.5240   24.4770   35.7750 C   0  0  0  0  0  0  0  0  0  0  0  0
   43.1090   25.6370   35.1900 N   0  0  0  0  0  0  0  0  0  0  0  0
   41.8430   25.8050   34.8490 C   0  0  0  0  0  0  0  0  0  0  0  0
   40.9270   24.8440   35.0660 N   0  0  0  0  0  0  0  0  0  0  0  0
   41.1790   26.9690   34.2290 C   0  0  1  0  0  0  0  0  0  0  0  0
   41.8680   27.5520   32.9420 C   0  0  0  0  0  0  0  0  0  0  0  0
   40.5280   26.9370   32.8990 C   0  0  1  0  0  0  0  0  0  0  0  0
   40.5080   25.6300   32.1810 C   0  0  0  0  0  0  0  0  0  0  0  0
   39.6340   24.7870   31.7640 O   0  0  0  0  0  0  0  0  0  0  0  0
   41.7090   25.0490   31.7990 O   0  0  0  0  0  0  0  0  0  0  0  0
   44.9348   25.8713   37.0257 H   0  0  0  0  0  0  0  0  0  0  0  0
   46.9918   24.9747   38.6283 H   0  0  0  0  0  0  0  0  0  0  0  0
   46.7006   23.4807   38.2612 H   0  0  0  0  0  0  0  0  0  0  0  0
   47.6033   24.4606   35.4946 H   0  0  0  0  0  0  0  0  0  0  0  0
   49.6470   25.7637   37.7274 H   0  0  0  0  0  0  0  0  0  0  0  0
   47.3746   30.4093   33.7773 H   0  0  0  0  0  0  0  0  0  0  0  0
   44.7304   27.8884   33.1880 H   0  0  0  0  0  0  0  0  0  0  0  0
   45.2363   29.5319   32.7128 H   0  0  0  0  0  0  0  0  0  0  0  0
   40.5065   22.9066   35.8059 H   0  0  0  0  0  0  0  0  0  0  0  0
   42.9178   22.5091   36.4899 H   0  0  0  0  0  0  0  0  0  0  0  0
   40.8366   27.3042   35.2191 H   0  0  0  0  0  0  0  0  0  0  0  0
   41.9844   28.6388   32.8184 H   0  0  0  0  0  0  0  0  0  0  0  0
   42.8240   27.3978   32.4203 H   0  0  0  0  0  0  0  0  0  0  0  0
   39.5318   27.2638   32.5663 H   0  0  0  0  0  0  0  0  0  0  0  0
   41.7096   24.1816   31.3218 H   0  0  0  0  0  0  0  0  0  0  0  0
  1  2  1  0
  3  1  1  0
  3  2  1  0
  4  3  1  0
  4  5  1  0
  6  5  2  0
  7  6  1  0
  8  9  2  0
  8  7  1  0
 10  8  1  0
 11 10  1  0
 11 13  2  0
 12 11  1  0
 13 14  1  0
 14  7  2  0
 14  4  1  0
 15  1  1  0
 16 17  2  0
 18 17  1  0
 18 15  1  0
 19 18  2  0
 20 21  2  0
 20 19  1  0
 21 16  1  0
 22 20  1  0
 23 22  1  0
 24 23  1  0
 24 22  1  0
 25 24  1  0
 26 25  2  0
 27 25  1  0
  1 28  1  1
  2 29  1  0
  2 30  1  0
  3 31  1  6
  5 32  1  0
 10 33  1  0
 12 34  1  0
 12 35  1  0
 16 36  1  0
 17 37  1  0
 22 38  1  1
 23 39  1  0
 23 40  1  0
 24 41  1  1
 27 42  1  0
M  ISO  8  28  13  29  13  30  13  31  13  32  14  33   9  36  14  37  14
M  ISO  5  38  13  39  13  40  13  41  13  42   3
M  END
>  <minimizedAffinity>  (1) 
-4.60694504

>  <minimizedRMSD>  (1) 
0.370847434

$$$$
