
     RDKit          3D

 40 44  0  0  1  0  0  0  0  0999 V2000
   45.9090   25.1660   37.3290 C   0  0  1  0  0  0  0  0  0  0  0  0
   46.9670   24.7790   38.2270 C   0  0  0  0  0  0  0  0  0  0  0  0
   47.3580   25.0220   36.7950 C   0  0  2  0  0  0  0  0  0  0  0  0
   48.1100   26.2430   36.5520 N   0  0  0  0  0  0  0  0  0  0  0  0
   49.2980   26.7010   37.0320 C   0  0  0  0  0  0  0  0  0  0  0  0
   49.5530   27.9180   36.4780 N   0  0  0  0  0  0  0  0  0  0  0  0
   48.5080   28.2070   35.6480 C   0  0  0  0  0  0  0  0  0  0  0  0
   48.3060   29.3240   34.8640 C   0  0  0  0  0  0  0  0  0  0  0  0
   49.1160   30.2810   34.8140 O   0  0  0  0  0  0  0  0  0  0  0  0
   47.1700   29.3440   34.1350 N   0  0  0  0  0  0  0  0  0  0  0  0
   46.2920   28.3370   34.1720 C   0  0  0  0  0  0  0  0  0  0  0  0
   45.0720   28.2640   33.4480 N   0  0  0  0  0  0  0  0  0  0  0  0
   46.5010   27.2830   34.9230 N   0  0  0  0  0  0  0  0  0  0  0  0
   47.6190   27.1600   35.7020 C   0  0  0  0  0  0  0  0  0  0  0  0
   45.0790   24.0900   36.8570 O   0  0  0  0  0  0  0  0  0  0  0  0
   41.6850   23.2980   36.0700 C   0  0  0  0  0  0  0  0  0  0  0  0
   42.9860   23.2250   36.5930 C   0  0  0  0  0  0  0  0  0  0  0  0
   43.8470   24.2850   36.2950 C   0  0  0  0  0  0  0  0  0  0  0  0
   43.4210   25.3340   35.5300 N   0  0  0  0  0  0  0  0  0  0  0  0
   42.1810   25.3570   35.0590 C   0  0  0  0  0  0  0  0  0  0  0  0
   41.3020   24.3600   35.3130 N   0  0  0  0  0  0  0  0  0  0  0  0
   41.5120   26.4030   34.2420 C   0  0  1  0  0  0  0  0  0  0  0  0
   42.0240   26.5050   32.7530 C   0  0  0  0  0  0  0  0  0  0  0  0
   40.6480   26.0800   33.0840 C   0  0  2  0  0  0  0  0  0  0  0  0
   39.2140   27.1020   32.7240 S   0  0  0  0  0  0  0  0  0  0  0  0
   45.1379   25.9497   37.3637 H   0  0  0  0  0  0  0  0  0  0  0  0
   47.2998   25.4825   39.0044 H   0  0  0  0  0  0  0  0  0  0  0  0
   47.1032   23.9316   38.9151 H   0  0  0  0  0  0  0  0  0  0  0  0
   47.8462   24.4663   35.9809 H   0  0  0  0  0  0  0  0  0  0  0  0
   49.9453   26.1749   37.7491 H   0  0  0  0  0  0  0  0  0  0  0  0
   46.9746   30.1573   33.5340 H   0  0  0  0  0  0  0  0  0  0  0  0
   44.4628   27.4394   33.5473 H   0  0  0  0  0  0  0  0  0  0  0  0
   44.7966   29.0356   32.8238 H   0  0  0  0  0  0  0  0  0  0  0  0
   40.9691   22.4883   36.2748 H   0  0  0  0  0  0  0  0  0  0  0  0
   43.3123   22.3736   37.2083 H   0  0  0  0  0  0  0  0  0  0  0  0
   41.3689   27.0454   35.1234 H   0  0  0  0  0  0  0  0  0  0  0  0
   42.7521   25.7777   32.3645 H   0  0  0  0  0  0  0  0  0  0  0  0
   42.4809   27.2849   32.1262 H   0  0  0  0  0  0  0  0  0  0  0  0
   40.0596   25.1982   32.7903 H   0  0  0  0  0  0  0  0  0  0  0  0
   38.6390   27.5118   33.8980 H   0  0  0  0  0  0  0  0  0  0  0  0
  1  2  1  0
  3  1  1  0
  3  2  1  0
  4  3  1  0
  4  5  1  0
  6  5  2  0
  7 14  2  0
  7  6  1  0
  8  7  1  0
  9  8  2  0
 10 11  1  0
 10  8  1  0
 11 13  2  0
 12 11  1  0
 13 14  1  0
 14  4  1  0
 15  1  1  0
 16 17  2  0
 18 17  1  0
 18 15  1  0
 19 18  2  0
 20 21  2  0
 20 19  1  0
 21 16  1  0
 22 20  1  0
 23 24  1  0
 23 22  1  0
 24 22  1  0
 25 24  1  0
  1 26  1  1
  2 27  1  0
  2 28  1  0
  3 29  1  6
  5 30  1  0
 10 31  1  0
 12 32  1  0
 12 33  1  0
 16 34  1  0
 17 35  1  0
 22 36  1  1
 23 37  1  0
 23 38  1  0
 24 39  1  1
 25 40  1  0
M  ISO  8  26  13  27  13  28  13  29  13  30  14  31   9  34  14  35  14
M  ISO  5  36  13  37  13  38  13  39  13  40  11
M  END
>  <minimizedAffinity>  (1) 
-4.54384422

>  <minimizedRMSD>  (1) 
0.431963265

$$$$
