
     RDKit          3D

 23 23  0  0  0  0  0  0  0  0999 V2000
   39.5710   23.0430   34.2720 C   0  0  0  0  0  0  0  0  0  0  0  0
   37.9590   25.1400   36.9060 C   0  0  0  0  0  0  0  0  0  0  0  0
   38.1440   24.3610   38.0540 C   0  0  0  0  0  0  0  0  0  0  0  0
   38.8240   23.1230   37.8980 C   0  0  0  0  0  0  0  0  0  0  0  0
   39.2530   22.7660   36.6520 N   0  0  0  0  0  0  0  0  0  0  0  0
   39.0440   23.5660   35.5730 C   0  0  0  0  0  0  0  0  0  0  0  0
   38.4110   24.7270   35.6980 N   0  0  0  0  0  0  0  0  0  0  0  0
   40.6360   23.9740   33.7450 C   0  0  0  0  0  0  0  0  0  0  0  0
   41.6180   24.3020   34.7590 N   0  0  0  0  0  0  0  0  0  0  0  0
   41.9550   25.6680   34.9910 C   0  0  0  0  0  0  0  0  0  0  0  0
   41.0420   26.5700   34.8320 N   0  0  0  0  0  0  0  0  0  0  0  0
   43.2700   26.0430   35.3910 N   0  0  0  0  0  0  0  0  0  0  0  0
   41.2740   27.5710   34.9980 H   0  0  0  0  0  0  0  0  0  0  0  0
   40.0031   22.0435   34.4275 H   0  0  0  0  0  0  0  0  0  0  0  0
   38.7487   22.9800   33.5441 H   0  0  0  0  0  0  0  0  0  0  0  0
   37.4371   26.1050   36.9864 H   0  0  0  0  0  0  0  0  0  0  0  0
   37.7781   24.6934   39.0366 H   0  0  0  0  0  0  0  0  0  0  0  0
   39.0009   22.4664   38.7626 H   0  0  0  0  0  0  0  0  0  0  0  0
   41.1461   23.4885   32.9000 H   0  0  0  0  0  0  0  0  0  0  0  0
   40.1468   24.9075   33.4300 H   0  0  0  0  0  0  0  0  0  0  0  0
   42.0684   23.5553   35.3071 H   0  0  0  0  0  0  0  0  0  0  0  0
   43.4955   27.0347   35.5542 H   0  0  0  0  0  0  0  0  0  0  0  0
   43.9951   25.3224   35.5170 H   0  0  0  0  0  0  0  0  0  0  0  0
  1  6  1  0
  2  3  2  0
  4  3  1  0
  5  4  2  0
  6  7  2  0
  6  5  1  0
  7  2  1  0
  8  1  1  0
  8  9  1  0
  9 10  1  0
 10 12  1  0
 11 10  2  0
 11 13  1  0
  1 14  1  0
  1 15  1  0
  2 16  1  0
  3 17  1  0
  4 18  1  0
  8 19  1  0
  8 20  1  0
  9 21  1  0
 12 22  1  0
 12 23  1  0
M  ISO  7  14   8  15   8  16  14  17  14  18  14  19   8  20   8
M  END
>  <minimizedAffinity>  (1) 
-3.00668311

>  <minimizedRMSD>  (1) 
3.69252181

$$$$
