
     RDKit          3D

 26 27  0  0  0  0  0  0  0  0999 V2000
   39.4220   23.3050   36.4760 C   0  0  0  0  0  0  0  0  0  0  0  0
   38.3740   23.1990   37.3600 C   0  0  0  0  0  0  0  0  0  0  0  0
   37.5630   24.2800   37.0650 C   0  0  0  0  0  0  0  0  0  0  0  0
   38.0920   25.0060   36.0530 N   0  0  0  0  0  0  0  0  0  0  0  0
   39.2030   24.3800   35.7350 N   0  0  0  0  0  0  0  0  0  0  0  0
   41.0790   21.8060   37.5390 C   0  0  0  0  0  0  0  0  0  0  0  0
   40.5510   22.4040   36.3760 C   0  0  0  0  0  0  0  0  0  0  0  0
   41.1210   22.1260   35.1310 C   0  0  0  0  0  0  0  0  0  0  0  0
   42.1890   21.2630   35.1180 N   0  0  0  0  0  0  0  0  0  0  0  0
   42.6660   20.7110   36.2540 C   0  0  0  0  0  0  0  0  0  0  0  0
   42.1190   20.9790   37.4430 N   0  0  0  0  0  0  0  0  0  0  0  0
   37.5980   26.1970   35.4230 C   0  0  0  0  0  0  0  0  0  0  0  0
   38.5160   27.3790   35.7220 C   0  0  0  0  0  0  0  0  0  0  0  0
   37.5110   25.9700   33.9470 C   0  0  0  0  0  0  0  0  0  0  0  0
   38.2162   22.4281   38.1287 H   0  0  0  0  0  0  0  0  0  0  0  0
   36.6205   24.5163   37.5806 H   0  0  0  0  0  0  0  0  0  0  0  0
   40.6338   22.0216   38.5215 H   0  0  0  0  0  0  0  0  0  0  0  0
   40.7329   22.5768   34.2057 H   0  0  0  0  0  0  0  0  0  0  0  0
   43.5243   20.0252   36.1993 H   0  0  0  0  0  0  0  0  0  0  0  0
   36.5987   26.4303   35.8191 H   0  0  0  0  0  0  0  0  0  0  0  0
   38.6119   27.5025   36.8108 H   0  0  0  0  0  0  0  0  0  0  0  0
   39.5082   27.1923   35.2853 H   0  0  0  0  0  0  0  0  0  0  0  0
   38.0895   28.2941   35.2853 H   0  0  0  0  0  0  0  0  0  0  0  0
   37.1235   24.9588   33.7538 H   0  0  0  0  0  0  0  0  0  0  0  0
   36.8341   26.7135   33.5009 H   0  0  0  0  0  0  0  0  0  0  0  0
   38.5114   26.0707   33.5009 H   0  0  0  0  0  0  0  0  0  0  0  0
  1  2  1  0
  3  2  2  0
  4  3  1  0
  5  4  1  0
  5  1  2  0
  7  1  1  0
  7  6  2  0
  8  7  1  0
  9  8  2  0
  9 10  1  0
 10 11  2  0
 11  6  1  0
 12 13  1  0
 12  4  1  0
 14 12  1  0
  2 15  1  0
  3 16  1  0
  6 17  1  0
  8 18  1  0
 10 19  1  0
 12 20  1  0
 13 21  1  0
 13 22  1  0
 13 23  1  0
 14 24  1  0
 14 25  1  0
 14 26  1  0
M  ISO  8  15  14  16  14  17  14  18  14  19  14  20   8  21   8  22   8
M  ISO  4  23   8  24   8  25   8  26   8
M  END
>  <minimizedAffinity>  (1) 
-3.97652793

>  <minimizedRMSD>  (1) 
6.09930897

$$$$
