
     RDKit          3D

 20 21  0  0  0  0  0  0  0  0999 V2000
   40.8200   22.1850   36.2840 C   0  0  0  0  0  0  0  0  0  0  0  0
   41.2060   22.2420   34.9670 C   0  0  0  0  0  0  0  0  0  0  0  0
   42.2230   21.3120   34.8780 C   0  0  0  0  0  0  0  0  0  0  0  0
   42.4580   20.7100   36.0680 N   0  0  0  0  0  0  0  0  0  0  0  0
   41.5820   21.2830   36.8600 N   0  0  0  0  0  0  0  0  0  0  0  0
   38.9350   23.7910   36.1220 C   0  0  0  0  0  0  0  0  0  0  0  0
   39.7820   22.9700   36.8920 C   0  0  0  0  0  0  0  0  0  0  0  0
   39.5860   22.9370   38.2620 C   0  0  0  0  0  0  0  0  0  0  0  0
   38.5850   23.7010   38.7920 N   0  0  0  0  0  0  0  0  0  0  0  0
   37.7970   24.4730   38.0200 C   0  0  0  0  0  0  0  0  0  0  0  0
   37.9790   24.5110   36.7010 N   0  0  0  0  0  0  0  0  0  0  0  0
   43.4390   19.6870   36.3750 C   0  0  0  0  0  0  0  0  0  0  0  0
   43.5600   18.8620   35.2590 F   0  0  0  0  0  0  0  0  0  0  0  0
   42.9930   18.9960   37.4770 F   0  0  0  0  0  0  0  0  0  0  0  0
   44.6590   20.2990   36.5580 F   0  0  0  0  0  0  0  0  0  0  0  0
   40.7995   22.8802   34.1686 H   0  0  0  0  0  0  0  0  0  0  0  0
   42.7749   21.0876   33.9533 H   0  0  0  0  0  0  0  0  0  0  0  0
   39.0659   23.8368   35.0308 H   0  0  0  0  0  0  0  0  0  0  0  0
   40.2201   22.3115   38.9075 H   0  0  0  0  0  0  0  0  0  0  0  0
   36.9996   25.0748   38.4804 H   0  0  0  0  0  0  0  0  0  0  0  0
  1  5  2  0
  1  7  1  0
  2  1  1  0
  3  2  2  0
  3  4  1  0
  4 12  1  0
  4  5  1  0
  6 11  2  0
  6  7  1  0
  7  8  2  0
  8  9  1  0
 10  9  2  0
 11 10  1  0
 12 15  1  0
 12 14  1  0
 13 12  1  0
  2 16  1  0
  3 17  1  0
  6 18  1  0
  8 19  1  0
 10 20  1  0
M  ISO  5  16  14  17  14  18  14  19  14  20  14
M  END
>  <minimizedAffinity>  (1) 
-3.35030365

>  <minimizedRMSD>  (1) 
1.34103215

$$$$
