
     RDKit          3D

 42 46  0  0  0  0  0  0  0  0999 V2000
   44.6570   24.8580   37.2100 C   0  0  0  0  0  0  0  0  0  0  0  0
   44.5690   25.7900   38.2140 C   0  0  0  0  0  0  0  0  0  0  0  0
   45.6710   25.9910   39.0420 C   0  0  0  0  0  0  0  0  0  0  0  0
   46.8080   25.2520   38.8280 C   0  0  0  0  0  0  0  0  0  0  0  0
   46.9020   24.3180   37.8280 C   0  0  0  0  0  0  0  0  0  0  0  0
   45.7980   24.1650   37.0520 N   0  0  0  0  0  0  0  0  0  0  0  0
   48.0530   23.5310   37.4520 C   0  0  0  0  0  0  0  0  0  0  0  0
   47.9810   22.9060   36.2020 C   0  0  0  0  0  0  0  0  0  0  0  0
   48.9640   22.1050   35.6680 C   0  0  0  0  0  0  0  0  0  0  0  0
   50.1150   21.8740   36.3760 C   0  0  0  0  0  0  0  0  0  0  0  0
   50.2310   22.4600   37.6010 C   0  0  0  0  0  0  0  0  0  0  0  0
   51.3570   22.2270   38.3610 C   0  0  0  0  0  0  0  0  0  0  0  0
   51.5230   22.7640   39.6380 C   0  0  0  0  0  0  0  0  0  0  0  0
   50.4850   23.5540   40.1080 C   0  0  0  0  0  0  0  0  0  0  0  0
   49.3810   23.7700   39.3320 C   0  0  0  0  0  0  0  0  0  0  0  0
   49.2280   23.2450   38.0880 C   0  0  0  0  0  0  0  0  0  0  0  0
   41.7170   23.7790   35.4880 C   0  0  0  0  0  0  0  0  0  0  0  0
   42.4140   24.2660   34.4040 C   0  0  0  0  0  0  0  0  0  0  0  0
   43.5980   24.7250   34.9470 C   0  0  0  0  0  0  0  0  0  0  0  0
   43.6300   24.5330   36.2760 N   0  0  0  0  0  0  0  0  0  0  0  0
   42.4860   23.9680   36.5440 N   0  0  0  0  0  0  0  0  0  0  0  0
   39.9640   22.4940   34.2940 C   0  0  0  0  0  0  0  0  0  0  0  0
   40.4070   23.1880   35.4270 C   0  0  0  0  0  0  0  0  0  0  0  0
   39.5620   23.3050   36.5130 C   0  0  0  0  0  0  0  0  0  0  0  0
   38.3230   22.7240   36.4060 N   0  0  0  0  0  0  0  0  0  0  0  0
   37.9300   22.0650   35.3010 C   0  0  0  0  0  0  0  0  0  0  0  0
   38.7430   21.9530   34.2590 N   0  0  0  0  0  0  0  0  0  0  0  0
   43.6448   26.3678   38.3620 H   0  0  0  0  0  0  0  0  0  0  0  0
   45.6308   26.7307   39.8551 H   0  0  0  0  0  0  0  0  0  0  0  0
   47.6764   25.4151   39.4832 H   0  0  0  0  0  0  0  0  0  0  0  0
   47.0726   23.0668   35.6029 H   0  0  0  0  0  0  0  0  0  0  0  0
   48.8267   21.6511   34.6755 H   0  0  0  0  0  0  0  0  0  0  0  0
   50.9160   21.2387   35.9701 H   0  0  0  0  0  0  0  0  0  0  0  0
   52.1547   21.5939   37.9451 H   0  0  0  0  0  0  0  0  0  0  0  0
   52.4252   22.5717   40.2373 H   0  0  0  0  0  0  0  0  0  0  0  0
   50.5503   24.0080   41.1078 H   0  0  0  0  0  0  0  0  0  0  0  0
   48.5751   24.4010   39.7349 H   0  0  0  0  0  0  0  0  0  0  0  0
   42.1001   24.2849   33.3499 H   0  0  0  0  0  0  0  0  0  0  0  0
   44.4096   25.1878   34.3664 H   0  0  0  0  0  0  0  0  0  0  0  0
   40.6287   22.3933   33.4234 H   0  0  0  0  0  0  0  0  0  0  0  0
   39.8684   23.8403   37.4238 H   0  0  0  0  0  0  0  0  0  0  0  0
   36.9268   21.6156   35.2613 H   0  0  0  0  0  0  0  0  0  0  0  0
  1  2  2  0
  2  3  1  0
  4  3  2  0
  5  4  1  0
  6  1  1  0
  6  5  2  0
  7  5  1  0
  7 16  1  0
  8  7  2  0
  9  8  1  0
  9 10  2  0
 10 11  1  0
 11 16  2  0
 11 12  1  0
 12 13  2  0
 13 14  1  0
 15 14  2  0
 16 15  1  0
 17 21  2  0
 18 19  2  0
 18 17  1  0
 19 20  1  0
 20 21  1  0
 20  1  1  0
 22 23  2  0
 23 17  1  0
 23 24  1  0
 25 24  2  0
 26 25  1  0
 27 22  1  0
 27 26  2  0
  2 28  1  0
  3 29  1  0
  4 30  1  0
  8 31  1  0
  9 32  1  0
 10 33  1  0
 12 34  1  0
 13 35  1  0
 14 36  1  0
 15 37  1  0
 18 38  1  0
 19 39  1  0
 22 40  1  0
 24 41  1  0
 26 42  1  0
M  ISO  8  28  14  29  14  30  14  31  14  32  14  33  14  34  14  35  14
M  ISO  7  36  14  37  14  38  14  39  14  40  14  41  14  42  14
M  END
>  <minimizedAffinity>  (1) 
-5.15697813

>  <minimizedRMSD>  (1) 
1.02896154

$$$$
