
     RDKit          3D

 32 35  0  0  0  0  0  0  0  0999 V2000
   41.6800   24.0220   35.4290 C   0  0  0  0  0  0  0  0  0  0  0  0
   42.2050   24.8720   34.4830 C   0  0  0  0  0  0  0  0  0  0  0  0
   43.4140   25.2720   35.0270 C   0  0  0  0  0  0  0  0  0  0  0  0
   43.6110   24.6910   36.2430 N   0  0  0  0  0  0  0  0  0  0  0  0
   42.5380   23.9470   36.4400 N   0  0  0  0  0  0  0  0  0  0  0  0
   44.7170   24.8340   37.1300 C   0  0  0  0  0  0  0  0  0  0  0  0
   44.7200   25.6050   38.2710 C   0  0  0  0  0  0  0  0  0  0  0  0
   45.8740   25.6580   39.0520 C   0  0  0  0  0  0  0  0  0  0  0  0
   46.9700   24.9270   38.6440 C   0  0  0  0  0  0  0  0  0  0  0  0
   46.9610   24.1530   37.4950 C   0  0  0  0  0  0  0  0  0  0  0  0
   45.8110   24.1300   36.7600 N   0  0  0  0  0  0  0  0  0  0  0  0
   48.1220   23.4200   37.1230 N   0  0  0  0  0  0  0  0  0  0  0  0
   48.3260   22.1360   36.7740 C   0  0  0  0  0  0  0  0  0  0  0  0
   49.6260   21.9170   36.5060 N   0  0  0  0  0  0  0  0  0  0  0  0
   50.2370   23.1010   36.6960 C   0  0  0  0  0  0  0  0  0  0  0  0
   49.3140   24.0320   37.0770 N   0  0  0  0  0  0  0  0  0  0  0  0
   40.1110   22.5330   34.2220 C   0  0  0  0  0  0  0  0  0  0  0  0
   40.4120   23.3420   35.3130 C   0  0  0  0  0  0  0  0  0  0  0  0
   39.4660   23.4970   36.3110 C   0  0  0  0  0  0  0  0  0  0  0  0
   38.2750   22.8320   36.1590 N   0  0  0  0  0  0  0  0  0  0  0  0
   38.0150   22.0570   35.0930 C   0  0  0  0  0  0  0  0  0  0  0  0
   38.9310   21.9170   34.1400 N   0  0  0  0  0  0  0  0  0  0  0  0
   41.7661   25.1658   33.5181 H   0  0  0  0  0  0  0  0  0  0  0  0
   44.1188   25.9642   34.5432 H   0  0  0  0  0  0  0  0  0  0  0  0
   43.8235   26.1718   38.5626 H   0  0  0  0  0  0  0  0  0  0  0  0
   45.9092   26.2660   39.9681 H   0  0  0  0  0  0  0  0  0  0  0  0
   47.8852   24.9597   39.2534 H   0  0  0  0  0  0  0  0  0  0  0  0
   47.5379   21.3708   36.7159 H   0  0  0  0  0  0  0  0  0  0  0  0
   51.3128   23.2893   36.5647 H   0  0  0  0  0  0  0  0  0  0  0  0
   40.8524   22.4003   33.4203 H   0  0  0  0  0  0  0  0  0  0  0  0
   39.6607   24.1279   37.1908 H   0  0  0  0  0  0  0  0  0  0  0  0
   37.0476   21.5401   35.0091 H   0  0  0  0  0  0  0  0  0  0  0  0
  1  5  2  0
  2  3  2  0
  2  1  1  0
  3  4  1  0
  4  5  1  0
  4  6  1  0
  6  7  2  0
  7  8  1  0
  9  8  2  0
 10  9  1  0
 11  6  1  0
 11 10  2  0
 12 10  1  0
 13 12  1  0
 14 15  1  0
 14 13  2  0
 15 16  2  0
 16 12  1  0
 17 18  2  0
 18  1  1  0
 18 19  1  0
 20 19  2  0
 21 20  1  0
 22 17  1  0
 22 21  2  0
  2 23  1  0
  3 24  1  0
  7 25  1  0
  8 26  1  0
  9 27  1  0
 13 28  1  0
 15 29  1  0
 17 30  1  0
 19 31  1  0
 21 32  1  0
M  ISO  8  23  14  24  14  25  14  26  14  27  14  28  14  29  14  30  14
M  ISO  2  31  14  32  14
M  END
>  <minimizedAffinity>  (1) 
-4.85745621

>  <minimizedRMSD>  (1) 
0.217802256

$$$$
