
     RDKit          3D

 29 31  0  0  0  0  0  0  0  0999 V2000
   41.6700   24.0670   35.4150 C   0  0  0  0  0  0  0  0  0  0  0  0
   42.1730   24.9680   34.4980 C   0  0  0  0  0  0  0  0  0  0  0  0
   43.3710   25.3750   35.0450 C   0  0  0  0  0  0  0  0  0  0  0  0
   43.5970   24.7580   36.2400 N   0  0  0  0  0  0  0  0  0  0  0  0
   42.5460   23.9960   36.3950 N   0  0  0  0  0  0  0  0  0  0  0  0
   40.1480   22.5460   34.1900 C   0  0  0  0  0  0  0  0  0  0  0  0
   40.4210   23.3710   35.2740 C   0  0  0  0  0  0  0  0  0  0  0  0
   39.4470   23.5210   36.2470 C   0  0  0  0  0  0  0  0  0  0  0  0
   38.2720   22.8480   36.0890 N   0  0  0  0  0  0  0  0  0  0  0  0
   38.0440   22.0500   35.0140 C   0  0  0  0  0  0  0  0  0  0  0  0
   38.9820   21.9130   34.0870 N   0  0  0  0  0  0  0  0  0  0  0  0
   44.6910   24.8820   37.1250 C   0  0  0  0  0  0  0  0  0  0  0  0
   44.7220   25.6800   38.2590 C   0  0  0  0  0  0  0  0  0  0  0  0
   45.8760   25.6990   39.0360 C   0  0  0  0  0  0  0  0  0  0  0  0
   46.9600   24.9210   38.6550 C   0  0  0  0  0  0  0  0  0  0  0  0
   46.9110   24.1350   37.5270 C   0  0  0  0  0  0  0  0  0  0  0  0
   45.7750   24.1240   36.7720 N   0  0  0  0  0  0  0  0  0  0  0  0
   48.1040   23.3270   37.1760 C   0  0  0  0  0  0  0  0  0  0  0  0
   48.7720   23.9060   36.1360 F   0  0  0  0  0  0  0  0  0  0  0  0
   48.8670   23.2310   38.3210 F   0  0  0  0  0  0  0  0  0  0  0  0
   47.7240   22.0440   36.8360 F   0  0  0  0  0  0  0  0  0  0  0  0
   41.7209   25.2881   33.5476 H   0  0  0  0  0  0  0  0  0  0  0  0
   44.0539   26.1009   34.5795 H   0  0  0  0  0  0  0  0  0  0  0  0
   40.9072   22.4140   33.4050 H   0  0  0  0  0  0  0  0  0  0  0  0
   39.6166   24.1649   37.1225 H   0  0  0  0  0  0  0  0  0  0  0  0
   37.0856   21.5198   34.9128 H   0  0  0  0  0  0  0  0  0  0  0  0
   43.8489   26.2876   38.5393 H   0  0  0  0  0  0  0  0  0  0  0  0
   45.9284   26.3227   39.9406 H   0  0  0  0  0  0  0  0  0  0  0  0
   47.8748   24.9330   39.2658 H   0  0  0  0  0  0  0  0  0  0  0  0
  1  5  2  0
  2  3  2  0
  2  1  1  0
  3  4  1  0
  4  5  1  0
  4 12  1  0
  6  7  2  0
  7  1  1  0
  7  8  1  0
  9  8  2  0
 10  9  1  0
 11  6  1  0
 11 10  2  0
 12 13  2  0
 13 14  1  0
 15 14  2  0
 16 15  1  0
 17 12  1  0
 17 16  2  0
 18 16  1  0
 18 20  1  0
 19 18  1  0
 21 18  1  0
  2 22  1  0
  3 23  1  0
  6 24  1  0
  8 25  1  0
 10 26  1  0
 13 27  1  0
 14 28  1  0
 15 29  1  0
M  ISO  8  22  14  23  14  24  14  25  14  26  14  27  14  28  14  29  14
M  END
>  <minimizedAffinity>  (1) 
-4.70758343

>  <minimizedRMSD>  (1) 
0.425998747

$$$$
