
     RDKit          3D

 34 37  0  0  0  0  0  0  0  0999 V2000
   41.7010   24.0870   35.3870 C   0  0  0  0  0  0  0  0  0  0  0  0
   42.2100   24.9800   34.4930 C   0  0  0  0  0  0  0  0  0  0  0  0
   43.4090   25.3790   35.0550 C   0  0  0  0  0  0  0  0  0  0  0  0
   43.6240   24.7630   36.2330 N   0  0  0  0  0  0  0  0  0  0  0  0
   42.5690   23.9950   36.3920 N   0  0  0  0  0  0  0  0  0  0  0  0
   40.1990   22.5460   34.1630 C   0  0  0  0  0  0  0  0  0  0  0  0
   40.4460   23.3800   35.2520 C   0  0  0  0  0  0  0  0  0  0  0  0
   39.4650   23.5300   36.2220 C   0  0  0  0  0  0  0  0  0  0  0  0
   38.3020   22.8410   36.0450 N   0  0  0  0  0  0  0  0  0  0  0  0
   38.0920   22.0420   34.9820 C   0  0  0  0  0  0  0  0  0  0  0  0
   39.0320   21.9020   34.0590 N   0  0  0  0  0  0  0  0  0  0  0  0
   44.7170   24.8860   37.1240 C   0  0  0  0  0  0  0  0  0  0  0  0
   44.7200   25.6420   38.2940 C   0  0  0  0  0  0  0  0  0  0  0  0
   45.8760   25.6670   39.0750 C   0  0  0  0  0  0  0  0  0  0  0  0
   46.9830   24.9400   38.6650 C   0  0  0  0  0  0  0  0  0  0  0  0
   46.9530   24.2020   37.5070 C   0  0  0  0  0  0  0  0  0  0  0  0
   45.8310   24.1790   36.7490 N   0  0  0  0  0  0  0  0  0  0  0  0
   48.1470   23.4560   37.1230 C   0  0  0  0  0  0  0  0  0  0  0  0
   48.0770   22.1650   36.6400 C   0  0  0  0  0  0  0  0  0  0  0  0
   49.2910   21.5800   36.3160 C   0  0  0  0  0  0  0  0  0  0  0  0
   50.4720   22.2170   36.4580 N   0  0  0  0  0  0  0  0  0  0  0  0
   50.4990   23.4710   36.9310 C   0  0  0  0  0  0  0  0  0  0  0  0
   49.3350   24.0720   37.2570 N   0  0  0  0  0  0  0  0  0  0  0  0
   41.7680   25.3088   33.5409 H   0  0  0  0  0  0  0  0  0  0  0  0
   44.0977   26.1054   34.5989 H   0  0  0  0  0  0  0  0  0  0  0  0
   40.9671   22.4171   33.3862 H   0  0  0  0  0  0  0  0  0  0  0  0
   39.6194   24.1780   37.0974 H   0  0  0  0  0  0  0  0  0  0  0  0
   37.1379   21.5043   34.8796 H   0  0  0  0  0  0  0  0  0  0  0  0
   43.8273   26.2090   38.5967 H   0  0  0  0  0  0  0  0  0  0  0  0
   45.9086   26.2557   40.0036 H   0  0  0  0  0  0  0  0  0  0  0  0
   47.8979   24.9544   39.2755 H   0  0  0  0  0  0  0  0  0  0  0  0
   47.1205   21.6351   36.5201 H   0  0  0  0  0  0  0  0  0  0  0  0
   49.2918   20.5514   35.9260 H   0  0  0  0  0  0  0  0  0  0  0  0
   51.4548   24.0020   37.0516 H   0  0  0  0  0  0  0  0  0  0  0  0
  1  5  2  0
  2  3  2  0
  2  1  1  0
  3  4  1  0
  4  5  1  0
  4 12  1  0
  6  7  2  0
  7  1  1  0
  7  8  1  0
  9  8  2  0
 10  9  1  0
 11  6  1  0
 11 10  2  0
 12 13  2  0
 13 14  1  0
 15 14  2  0
 16 15  1  0
 17 12  1  0
 17 16  2  0
 18 23  1  0
 18 16  1  0
 19 18  2  0
 20 21  2  0
 20 19  1  0
 21 22  1  0
 22 23  2  0
  2 24  1  0
  3 25  1  0
  6 26  1  0
  8 27  1  0
 10 28  1  0
 13 29  1  0
 14 30  1  0
 15 31  1  0
 19 32  1  0
 20 33  1  0
 22 34  1  0
M  ISO  8  24  14  25  14  26  14  27  14  28  14  29  14  30  14  31  14
M  ISO  3  32  14  33  14  34  14
M  END
>  <minimizedAffinity>  (1) 
-4.68362284

>  <minimizedRMSD>  (1) 
0.283531189

$$$$
