
     RDKit          3D

 34 37  0  0  0  0  0  0  0  0999 V2000
   41.6750   24.0430   35.4150 C   0  0  0  0  0  0  0  0  0  0  0  0
   42.1960   24.8930   34.4770 C   0  0  0  0  0  0  0  0  0  0  0  0
   43.4020   25.2980   35.0250 C   0  0  0  0  0  0  0  0  0  0  0  0
   43.6100   24.7340   36.2270 N   0  0  0  0  0  0  0  0  0  0  0  0
   42.5450   23.9910   36.4170 N   0  0  0  0  0  0  0  0  0  0  0  0
   40.1130   22.5390   34.2150 C   0  0  0  0  0  0  0  0  0  0  0  0
   40.4140   23.3560   35.3020 C   0  0  0  0  0  0  0  0  0  0  0  0
   39.4580   23.5020   36.3020 C   0  0  0  0  0  0  0  0  0  0  0  0
   38.2830   22.8340   36.1540 N   0  0  0  0  0  0  0  0  0  0  0  0
   38.0180   22.0500   35.0910 C   0  0  0  0  0  0  0  0  0  0  0  0
   38.9330   21.9140   34.1400 N   0  0  0  0  0  0  0  0  0  0  0  0
   44.7090   24.8730   37.1320 C   0  0  0  0  0  0  0  0  0  0  0  0
   44.7090   25.6570   38.2650 C   0  0  0  0  0  0  0  0  0  0  0  0
   45.8580   25.6900   39.0480 C   0  0  0  0  0  0  0  0  0  0  0  0
   46.9630   24.9330   38.6620 C   0  0  0  0  0  0  0  0  0  0  0  0
   46.9310   24.1610   37.5250 C   0  0  0  0  0  0  0  0  0  0  0  0
   45.8040   24.1330   36.7640 N   0  0  0  0  0  0  0  0  0  0  0  0
   48.0940   23.3960   37.1640 C   0  0  0  0  0  0  0  0  0  0  0  0
   48.0850   22.1530   36.6000 C   0  0  0  0  0  0  0  0  0  0  0  0
   49.2310   21.4400   36.2630 C   0  0  0  0  0  0  0  0  0  0  0  0
   50.4220   22.0110   36.5090 N   0  0  0  0  0  0  0  0  0  0  0  0
   50.4250   23.2360   37.0640 C   0  0  0  0  0  0  0  0  0  0  0  0
   49.3110   23.9440   37.3990 N   0  0  0  0  0  0  0  0  0  0  0  0
   41.7583   25.1865   33.5115 H   0  0  0  0  0  0  0  0  0  0  0  0
   44.1012   25.9935   34.5378 H   0  0  0  0  0  0  0  0  0  0  0  0
   40.8522   22.4066   33.4112 H   0  0  0  0  0  0  0  0  0  0  0  0
   39.6460   24.1355   37.1814 H   0  0  0  0  0  0  0  0  0  0  0  0
   37.0529   21.5280   35.0123 H   0  0  0  0  0  0  0  0  0  0  0  0
   43.8209   26.2432   38.5438 H   0  0  0  0  0  0  0  0  0  0  0  0
   45.8943   26.3050   39.9593 H   0  0  0  0  0  0  0  0  0  0  0  0
   47.8749   24.9537   39.2768 H   0  0  0  0  0  0  0  0  0  0  0  0
   47.1098   21.6855   36.3992 H   0  0  0  0  0  0  0  0  0  0  0  0
   49.1641   20.4401   35.8094 H   0  0  0  0  0  0  0  0  0  0  0  0
   51.4017   23.7015   37.2625 H   0  0  0  0  0  0  0  0  0  0  0  0
  1  5  2  0
  2  3  2  0
  2  1  1  0
  3  4  1  0
  4  5  1  0
  4 12  1  0
  6  7  2  0
  7  1  1  0
  7  8  1  0
  9  8  2  0
 10  9  1  0
 11  6  1  0
 11 10  2  0
 12 13  2  0
 13 14  1  0
 15 14  2  0
 16 15  1  0
 17 12  1  0
 17 16  2  0
 18 23  1  0
 18 16  1  0
 19 18  2  0
 20 21  2  0
 20 19  1  0
 21 22  1  0
 22 23  2  0
  2 24  1  0
  3 25  1  0
  6 26  1  0
  8 27  1  0
 10 28  1  0
 13 29  1  0
 14 30  1  0
 15 31  1  0
 19 32  1  0
 20 33  1  0
 22 34  1  0
M  ISO  8  24  14  25  14  26  14  27  14  28  14  29  14  30  14  31  14
M  ISO  3  32  14  33  14  34  14
M  END
>  <minimizedAffinity>  (1) 
-4.68303251

>  <minimizedRMSD>  (1) 
0.332046509

$$$$
