
     RDKit          3D

 33 36  0  0  0  0  0  0  0  0999 V2000
   41.6890   24.0600   35.4130 C   0  0  0  0  0  0  0  0  0  0  0  0
   42.2050   24.9640   34.5050 C   0  0  0  0  0  0  0  0  0  0  0  0
   43.4020   25.3680   35.0560 C   0  0  0  0  0  0  0  0  0  0  0  0
   43.6220   24.7450   36.2490 N   0  0  0  0  0  0  0  0  0  0  0  0
   42.5590   23.9830   36.3930 N   0  0  0  0  0  0  0  0  0  0  0  0
   40.1750   22.5340   34.1830 C   0  0  0  0  0  0  0  0  0  0  0  0
   40.4370   23.3660   35.2620 C   0  0  0  0  0  0  0  0  0  0  0  0
   39.4540   23.5330   36.2270 C   0  0  0  0  0  0  0  0  0  0  0  0
   38.2780   22.8610   36.0550 N   0  0  0  0  0  0  0  0  0  0  0  0
   38.0650   22.0560   34.9830 C   0  0  0  0  0  0  0  0  0  0  0  0
   39.0150   21.9040   34.0650 N   0  0  0  0  0  0  0  0  0  0  0  0
   44.7170   24.8690   37.1390 C   0  0  0  0  0  0  0  0  0  0  0  0
   44.7290   25.6510   38.2750 C   0  0  0  0  0  0  0  0  0  0  0  0
   45.8730   25.6840   39.0650 C   0  0  0  0  0  0  0  0  0  0  0  0
   46.9640   24.9210   38.6760 C   0  0  0  0  0  0  0  0  0  0  0  0
   46.9430   24.1360   37.5310 C   0  0  0  0  0  0  0  0  0  0  0  0
   45.8000   24.1320   36.7830 N   0  0  0  0  0  0  0  0  0  0  0  0
   48.1310   23.3330   37.1460 C   0  0  0  0  0  0  0  0  0  0  0  0
   49.4490   23.6030   37.7250 C   0  0  0  0  0  0  0  0  0  0  0  0
   49.1630   24.1180   36.3650 C   0  0  0  0  0  0  0  0  0  0  0  0
   41.7595   25.2893   33.5533 H   0  0  0  0  0  0  0  0  0  0  0  0
   44.0874   26.0948   34.5956 H   0  0  0  0  0  0  0  0  0  0  0  0
   40.9453   22.3945   33.4102 H   0  0  0  0  0  0  0  0  0  0  0  0
   39.6163   24.1834   37.0992 H   0  0  0  0  0  0  0  0  0  0  0  0
   37.1057   21.5289   34.8736 H   0  0  0  0  0  0  0  0  0  0  0  0
   43.8438   26.2419   38.5530 H   0  0  0  0  0  0  0  0  0  0  0  0
   45.9117   26.2998   39.9756 H   0  0  0  0  0  0  0  0  0  0  0  0
   47.8740   24.9384   39.2937 H   0  0  0  0  0  0  0  0  0  0  0  0
   47.5484   22.4057   37.0426 H   0  0  0  0  0  0  0  0  0  0  0  0
   49.5411   24.3063   38.5658 H   0  0  0  0  0  0  0  0  0  0  0  0
   50.2412   22.9730   38.1557 H   0  0  0  0  0  0  0  0  0  0  0  0
   49.6533   23.6696   35.4883 H   0  0  0  0  0  0  0  0  0  0  0  0
   49.1963   25.1015   35.8735 H   0  0  0  0  0  0  0  0  0  0  0  0
  1  5  2  0
  2  3  2  0
  2  1  1  0
  3  4  1  0
  4  5  1  0
  4 12  1  0
  6  7  2  0
  7  1  1  0
  7  8  1  0
  9  8  2  0
 10  9  1  0
 11  6  1  0
 11 10  2  0
 12 13  2  0
 13 14  1  0
 15 14  2  0
 16 15  1  0
 17 12  1  0
 17 16  2  0
 18 16  1  0
 18 19  1  0
 20 18  1  0
 20 19  1  0
  2 21  1  0
  3 22  1  0
  6 23  1  0
  8 24  1  0
 10 25  1  0
 13 26  1  0
 14 27  1  0
 15 28  1  0
 18 29  1  0
 19 30  1  0
 19 31  1  0
 20 32  1  0
 20 33  1  0
M  ISO  8  21  14  22  14  23  14  24  14  25  14  26  14  27  14  28  14
M  ISO  5  29  13  30  13  31  13  32  13  33  13
M  END
>  <minimizedAffinity>  (1) 
-4.57134628

>  <minimizedRMSD>  (1) 
0.184995279

$$$$
