
     RDKit          3D

 28 30  0  0  0  0  0  0  0  0999 V2000
   41.6950   24.0660   35.4560 C   0  0  0  0  0  0  0  0  0  0  0  0
   42.1720   25.0020   34.5670 C   0  0  0  0  0  0  0  0  0  0  0  0
   43.3850   25.3700   35.0920 C   0  0  0  0  0  0  0  0  0  0  0  0
   43.6490   24.7000   36.2460 N   0  0  0  0  0  0  0  0  0  0  0  0
   42.5950   23.9360   36.4050 N   0  0  0  0  0  0  0  0  0  0  0  0
   44.7800   24.7840   37.0950 C   0  0  0  0  0  0  0  0  0  0  0  0
   44.8350   25.5420   38.2690 C   0  0  0  0  0  0  0  0  0  0  0  0
   46.0320   25.5160   38.9940 C   0  0  0  0  0  0  0  0  0  0  0  0
   47.0980   24.7580   38.5350 C   0  0  0  0  0  0  0  0  0  0  0  0
   47.0120   24.0200   37.3720 C   0  0  0  0  0  0  0  0  0  0  0  0
   45.8490   24.0520   36.6780 N   0  0  0  0  0  0  0  0  0  0  0  0
   48.1080   23.2590   36.9300 N   0  0  0  0  0  0  0  0  0  0  0  0
   40.1360   22.5560   34.2520 C   0  0  0  0  0  0  0  0  0  0  0  0
   40.4350   23.3730   35.3390 C   0  0  0  0  0  0  0  0  0  0  0  0
   39.4830   23.5150   36.3250 C   0  0  0  0  0  0  0  0  0  0  0  0
   38.3010   22.8380   36.1700 N   0  0  0  0  0  0  0  0  0  0  0  0
   38.0480   22.0590   35.1100 C   0  0  0  0  0  0  0  0  0  0  0  0
   38.9700   21.9190   34.1510 N   0  0  0  0  0  0  0  0  0  0  0  0
   41.6919   25.3699   33.6482 H   0  0  0  0  0  0  0  0  0  0  0  0
   44.0580   26.1121   34.6377 H   0  0  0  0  0  0  0  0  0  0  0  0
   43.9727   26.1345   38.6088 H   0  0  0  0  0  0  0  0  0  0  0  0
   46.1265   26.0949   39.9246 H   0  0  0  0  0  0  0  0  0  0  0  0
   48.0347   24.7444   39.1115 H   0  0  0  0  0  0  0  0  0  0  0  0
   48.0372   22.7104   36.0611 H   0  0  0  0  0  0  0  0  0  0  0  0
   48.9820   23.2499   37.4750 H   0  0  0  0  0  0  0  0  0  0  0  0
   40.8833   22.4329   33.4542 H   0  0  0  0  0  0  0  0  0  0  0  0
   39.6650   24.1491   37.2053 H   0  0  0  0  0  0  0  0  0  0  0  0
   37.0840   21.5355   35.0283 H   0  0  0  0  0  0  0  0  0  0  0  0
  1  5  2  0
  2  3  2  0
  2  1  1  0
  3  4  1  0
  4  5  1  0
  4  6  1  0
  6  7  2  0
  7  8  1  0
  9  8  2  0
 10  9  1  0
 11  6  1  0
 11 10  2  0
 12 10  1  0
 13 14  2  0
 14  1  1  0
 14 15  1  0
 16 15  2  0
 17 16  1  0
 18 13  1  0
 18 17  2  0
  2 19  1  0
  3 20  1  0
  7 21  1  0
  8 22  1  0
  9 23  1  0
 12 24  1  0
 12 25  1  0
 13 26  1  0
 15 27  1  0
 17 28  1  0
M  ISO  8  19  14  20  14  21  14  22  14  23  14  26  14  27  14  28  14
M  END
>  <minimizedAffinity>  (1) 
-4.56084299

>  <minimizedRMSD>  (1) 
0.0622860231

$$$$
