
     RDKit          3D

 33 36  0  0  0  0  0  0  0  0999 V2000
   42.5040   21.7120   35.7980 C   0  0  0  0  0  0  0  0  0  0  0  0
   41.5600   22.5280   36.4740 C   0  0  0  0  0  0  0  0  0  0  0  0
   40.3940   22.8300   35.7610 C   0  0  0  0  0  0  0  0  0  0  0  0
   40.2380   22.3360   34.4950 N   0  0  0  0  0  0  0  0  0  0  0  0
   41.1650   21.5640   33.8970 C   0  0  0  0  0  0  0  0  0  0  0  0
   42.2990   21.2530   34.5520 N   0  0  0  0  0  0  0  0  0  0  0  0
   39.3710   23.6590   36.3430 N   0  0  0  0  0  0  0  0  0  0  0  0
   38.6210   23.1700   37.3570 C   0  0  0  0  0  0  0  0  0  0  0  0
   37.7520   24.1620   37.6730 C   0  0  0  0  0  0  0  0  0  0  0  0
   37.9830   25.1900   36.8750 N   0  0  0  0  0  0  0  0  0  0  0  0
   39.0160   24.9030   36.0090 C   0  0  0  0  0  0  0  0  0  0  0  0
   39.5620   25.7460   34.9660 C   0  0  0  0  0  0  0  0  0  0  0  0
   40.8460   26.2370   34.9750 C   0  0  0  0  0  0  0  0  0  0  0  0
   41.4250   27.0170   34.0020 C   0  0  0  0  0  0  0  0  0  0  0  0
   40.6940   27.3680   32.8900 C   0  0  0  0  0  0  0  0  0  0  0  0
   39.4000   26.9120   32.8130 C   0  0  0  0  0  0  0  0  0  0  0  0
   38.6930   27.2690   31.6910 C   0  0  0  0  0  0  0  0  0  0  0  0
   37.3950   26.8520   31.5220 C   0  0  0  0  0  0  0  0  0  0  0  0
   36.8310   26.0590   32.5260 C   0  0  0  0  0  0  0  0  0  0  0  0
   37.5960   25.7480   33.6080 C   0  0  0  0  0  0  0  0  0  0  0  0
   38.8970   26.1360   33.8330 C   0  0  0  0  0  0  0  0  0  0  0  0
   43.4385   21.4453   36.3134 H   0  0  0  0  0  0  0  0  0  0  0  0
   41.7338   22.8999   37.4945 H   0  0  0  0  0  0  0  0  0  0  0  0
   40.9962   21.1888   32.8768 H   0  0  0  0  0  0  0  0  0  0  0  0
   38.6994   22.1780   37.8259 H   0  0  0  0  0  0  0  0  0  0  0  0
   36.9848   24.1185   38.4601 H   0  0  0  0  0  0  0  0  0  0  0  0
   41.4701   25.9813   35.8440 H   0  0  0  0  0  0  0  0  0  0  0  0
   42.4650   27.3581   34.1115 H   0  0  0  0  0  0  0  0  0  0  0  0
   41.1289   27.9897   32.0935 H   0  0  0  0  0  0  0  0  0  0  0  0
   39.1699   27.8938   30.9215 H   0  0  0  0  0  0  0  0  0  0  0  0
   36.8192   27.1323   30.6276 H   0  0  0  0  0  0  0  0  0  0  0  0
   35.7959   25.6959   32.4436 H   0  0  0  0  0  0  0  0  0  0  0  0
   37.1263   25.1227   34.3816 H   0  0  0  0  0  0  0  0  0  0  0  0
  1  2  2  0
  3  7  1  0
  3  2  1  0
  4  3  2  0
  5  4  1  0
  5  6  2  0
  6  1  1  0
  7  8  1  0
  8  9  2  0
 10  9  1  0
 11  7  1  0
 11 10  2  0
 12 13  2  0
 12 11  1  0
 14 13  1  0
 15 14  2  0
 16 15  1  0
 16 21  2  0
 17 16  1  0
 18 17  2  0
 18 19  1  0
 19 20  2  0
 20 21  1  0
 21 12  1  0
  1 22  1  0
  2 23  1  0
  5 24  1  0
  8 25  1  0
  9 26  1  0
 13 27  1  0
 14 28  1  0
 15 29  1  0
 17 30  1  0
 18 31  1  0
 19 32  1  0
 20 33  1  0
M  ISO  8  22  14  23  14  24  14  25  14  26  14  27  14  28  14  29  14
M  ISO  4  30  14  31  14  32  14  33  14
M  END
>  <minimizedAffinity>  (1) 
-5.17194986

>  <minimizedRMSD>  (1) 
2.48406911

$$$$
