
     RDKit          3D

 24 26  0  0  0  0  0  0  0  0999 V2000
   43.1060   22.5010   36.0670 C   0  0  0  0  0  0  0  0  0  0  0  0
   41.9800   23.0970   36.6700 C   0  0  0  0  0  0  0  0  0  0  0  0
   40.7600   23.0010   35.9860 C   0  0  0  0  0  0  0  0  0  0  0  0
   40.7530   22.3490   34.8090 N   0  0  0  0  0  0  0  0  0  0  0  0
   41.8310   21.7840   34.2400 C   0  0  0  0  0  0  0  0  0  0  0  0
   43.0190   21.8670   34.8890 N   0  0  0  0  0  0  0  0  0  0  0  0
   39.5660   23.5790   36.5260 N   0  0  0  0  0  0  0  0  0  0  0  0
   38.9840   23.0660   37.6130 C   0  0  0  0  0  0  0  0  0  0  0  0
   37.8880   23.8650   37.8340 C   0  0  0  0  0  0  0  0  0  0  0  0
   37.8370   24.8290   36.8840 N   0  0  0  0  0  0  0  0  0  0  0  0
   38.9010   24.6570   36.0440 C   0  0  0  0  0  0  0  0  0  0  0  0
   39.3120   25.4060   34.8750 C   0  0  0  0  0  0  0  0  0  0  0  0
   40.0810   26.5690   34.9870 C   0  0  0  0  0  0  0  0  0  0  0  0
   40.2560   26.9730   33.6650 C   0  0  0  0  0  0  0  0  0  0  0  0
   39.6400   26.1170   32.8390 N   0  0  0  0  0  0  0  0  0  0  0  0
   39.0710   25.1730   33.5720 N   0  0  0  0  0  0  0  0  0  0  0  0
   44.0798   22.5575   36.5754 H   0  0  0  0  0  0  0  0  0  0  0  0
   42.0554   23.6159   37.6370 H   0  0  0  0  0  0  0  0  0  0  0  0
   41.7521   21.2671   33.2722 H   0  0  0  0  0  0  0  0  0  0  0  0
   39.3100   22.1958   38.2016 H   0  0  0  0  0  0  0  0  0  0  0  0
   37.1653   23.7411   38.6540 H   0  0  0  0  0  0  0  0  0  0  0  0
   40.4580   27.0503   35.9014 H   0  0  0  0  0  0  0  0  0  0  0  0
   40.8174   27.8637   33.3465 H   0  0  0  0  0  0  0  0  0  0  0  0
   39.6137   26.1821   31.8114 H   0  0  0  0  0  0  0  0  0  0  0  0
  1  2  2  0
  3  7  1  0
  3  2  1  0
  4  3  2  0
  5  4  1  0
  5  6  2  0
  6  1  1  0
  7  8  1  0
  8  9  2  0
 10  9  1  0
 11  7  1  0
 11 10  2  0
 12 13  1  0
 12 11  1  0
 14 13  2  0
 15 16  1  0
 15 14  1  0
 16 12  2  0
  1 17  1  0
  2 18  1  0
  5 19  1  0
  8 20  1  0
  9 21  1  0
 13 22  1  0
 14 23  1  0
 15 24  1  0
M  ISO  8  17  14  18  14  19  14  20  14  21  14  22  14  23  14  24   9
M  END
>  <minimizedAffinity>  (1) 
-3.83599734

>  <minimizedRMSD>  (1) 
2.08260107

$$$$
