
     RDKit          3D

 23 25  0  0  0  0  0  0  0  0999 V2000
   42.9890   22.2980   36.2520 C   0  0  0  0  0  0  0  0  0  0  0  0
   41.8620   22.9760   36.7770 C   0  0  0  0  0  0  0  0  0  0  0  0
   40.7320   22.9890   35.9580 C   0  0  0  0  0  0  0  0  0  0  0  0
   40.7820   22.3700   34.7440 N   0  0  0  0  0  0  0  0  0  0  0  0
   41.8800   21.7380   34.2910 C   0  0  0  0  0  0  0  0  0  0  0  0
   42.9920   21.7090   35.0650 N   0  0  0  0  0  0  0  0  0  0  0  0
   39.5180   23.6490   36.3800 N   0  0  0  0  0  0  0  0  0  0  0  0
   38.7830   23.1320   37.3680 C   0  0  0  0  0  0  0  0  0  0  0  0
   37.7240   24.0060   37.4960 C   0  0  0  0  0  0  0  0  0  0  0  0
   37.8480   24.9940   36.6050 N   0  0  0  0  0  0  0  0  0  0  0  0
   38.9840   24.7880   35.8840 C   0  0  0  0  0  0  0  0  0  0  0  0
   39.5740   25.5620   34.8040 C   0  0  0  0  0  0  0  0  0  0  0  0
   38.9980   25.4130   33.4640 C   0  0  0  0  0  0  0  0  0  0  0  0
   40.0450   26.5600   32.4300 S   0  0  0  0  0  0  0  0  0  0  0  0
   41.0460   27.0160   33.9720 C   0  0  0  0  0  0  0  0  0  0  0  0
   40.5920   26.4210   34.8080 N   0  0  0  0  0  0  0  0  0  0  0  0
   43.9058   22.2584   36.8586 H   0  0  0  0  0  0  0  0  0  0  0  0
   41.8763   23.4602   37.7646 H   0  0  0  0  0  0  0  0  0  0  0  0
   41.8751   21.2509   33.3047 H   0  0  0  0  0  0  0  0  0  0  0  0
   38.9779   22.2176   37.9475 H   0  0  0  0  0  0  0  0  0  0  0  0
   36.9027   23.9052   38.2208 H   0  0  0  0  0  0  0  0  0  0  0  0
   38.1558   24.7806   33.1464 H   0  0  0  0  0  0  0  0  0  0  0  0
   41.8926   27.7155   34.0346 H   0  0  0  0  0  0  0  0  0  0  0  0
  1  2  2  0
  3  7  1  0
  3  2  1  0
  4  3  2  0
  5  4  1  0
  5  6  2  0
  6  1  1  0
  7  8  1  0
  8  9  2  0
 10  9  1  0
 11  7  1  0
 11 10  2  0
 12 16  1  0
 12 11  1  0
 13 12  2  0
 14 13  1  0
 14 15  1  0
 15 16  2  0
  1 17  1  0
  2 18  1  0
  5 19  1  0
  8 20  1  0
  9 21  1  0
 13 22  1  0
 15 23  1  0
M  ISO  7  17  14  18  14  19  14  20  14  21  14  22  14  23  14
M  END
>  <minimizedAffinity>  (1) 
-3.71870112

>  <minimizedRMSD>  (1) 
1.98095632

$$$$
