
     RDKit          3D

 20 21  0  0  0  0  0  0  0  0999 V2000
   41.9330   21.3240   37.4090 C   0  0  0  0  0  0  0  0  0  0  0  0
   41.0000   22.3820   37.3070 C   0  0  0  0  0  0  0  0  0  0  0  0
   40.6440   22.7820   36.0060 C   0  0  0  0  0  0  0  0  0  0  0  0
   41.2040   22.1420   34.9670 N   0  0  0  0  0  0  0  0  0  0  0  0
   42.0920   21.1350   35.0910 C   0  0  0  0  0  0  0  0  0  0  0  0
   42.4490   20.7340   36.3400 N   0  0  0  0  0  0  0  0  0  0  0  0
   39.7100   23.8410   35.8090 N   0  0  0  0  0  0  0  0  0  0  0  0
   38.4140   23.6990   36.1070 C   0  0  0  0  0  0  0  0  0  0  0  0
   37.8260   24.8880   35.7970 C   0  0  0  0  0  0  0  0  0  0  0  0
   38.7690   25.7360   35.3140 N   0  0  0  0  0  0  0  0  0  0  0  0
   39.9540   25.0790   35.3220 C   0  0  0  0  0  0  0  0  0  0  0  0
   41.2810   25.6120   34.8780 C   0  0  0  0  0  0  0  0  0  0  0  0
   42.2403   20.9797   38.4075 H   0  0  0  0  0  0  0  0  0  0  0  0
   40.5749   22.8668   38.1982 H   0  0  0  0  0  0  0  0  0  0  0  0
   42.5182   20.6486   34.2012 H   0  0  0  0  0  0  0  0  0  0  0  0
   37.9231   22.8047   36.5184 H   0  0  0  0  0  0  0  0  0  0  0  0
   36.7583   25.1230   35.9186 H   0  0  0  0  0  0  0  0  0  0  0  0
   41.8913   25.8571   35.7597 H   0  0  0  0  0  0  0  0  0  0  0  0
   41.7980   24.8518   34.2741 H   0  0  0  0  0  0  0  0  0  0  0  0
   41.1285   26.5186   34.2741 H   0  0  0  0  0  0  0  0  0  0  0  0
  2  1  2  0
  3  2  1  0
  4  5  1  0
  4  3  2  0
  5  6  2  0
  6  1  1  0
  7  3  1  0
  7  8  1  0
  9  8  2  0
 10 11  2  0
 10  9  1  0
 11  7  1  0
 12 11  1  0
  1 13  1  0
  2 14  1  0
  5 15  1  0
  8 16  1  0
  9 17  1  0
 12 18  1  0
 12 19  1  0
 12 20  1  0
M  ISO  8  13  14  14  14  15  14  16  14  17  14  18   8  19   8  20   8
M  END
>  <minimizedAffinity>  (1) 
-2.9855485

>  <minimizedRMSD>  (1) 
0.0786315501

$$$$
