
     RDKit          3D

 18 19  0  0  0  0  0  0  0  0999 V2000
   41.9100   21.3240   37.4220 C   0  0  0  0  0  0  0  0  0  0  0  0
   40.9930   22.3740   37.3110 C   0  0  0  0  0  0  0  0  0  0  0  0
   40.6410   22.8010   36.0210 C   0  0  0  0  0  0  0  0  0  0  0  0
   41.2030   22.1810   34.9660 N   0  0  0  0  0  0  0  0  0  0  0  0
   42.0890   21.1670   35.0990 C   0  0  0  0  0  0  0  0  0  0  0  0
   42.4390   20.7410   36.3340 N   0  0  0  0  0  0  0  0  0  0  0  0
   39.7110   23.8680   35.8290 N   0  0  0  0  0  0  0  0  0  0  0  0
   38.3950   23.6930   36.1180 C   0  0  0  0  0  0  0  0  0  0  0  0
   37.8080   24.8940   35.8210 C   0  0  0  0  0  0  0  0  0  0  0  0
   38.7370   25.7430   35.3750 N   0  0  0  0  0  0  0  0  0  0  0  0
   39.9520   25.1070   35.3740 C   0  0  0  0  0  0  0  0  0  0  0  0
   41.1870   25.5860   34.9990 O   0  0  0  0  0  0  0  0  0  0  0  0
   42.2039   20.9685   38.4206 H   0  0  0  0  0  0  0  0  0  0  0  0
   40.5621   22.8493   38.2045 H   0  0  0  0  0  0  0  0  0  0  0  0
   42.5226   20.6914   34.2069 H   0  0  0  0  0  0  0  0  0  0  0  0
   37.9081   22.7859   36.5054 H   0  0  0  0  0  0  0  0  0  0  0  0
   36.7380   25.1235   35.9325 H   0  0  0  0  0  0  0  0  0  0  0  0
   41.9830   25.0000   35.0546 H   0  0  0  0  0  0  0  0  0  0  0  0
  2  1  2  0
  3  2  1  0
  4  5  1  0
  4  3  2  0
  5  6  2  0
  6  1  1  0
  7  3  1  0
  7  8  1  0
  9  8  2  0
 10  9  1  0
 11 10  2  0
 11  7  1  0
 12 11  1  0
  1 13  1  0
  2 14  1  0
  5 15  1  0
  8 16  1  0
  9 17  1  0
 12 18  1  0
M  ISO  6  13  14  14  14  15  14  16  14  17  14  18   3
M  END
>  <minimizedAffinity>  (1) 
-2.91901088

>  <minimizedRMSD>  (1) 
0.0522074103

$$$$
