
     RDKit          3D

 24 25  0  0  0  0  0  0  0  0999 V2000
   39.5520   22.7650   37.5460 C   0  0  0  0  0  0  0  0  0  0  0  0
   38.7760   23.3230   36.5330 C   0  0  0  0  0  0  0  0  0  0  0  0
   39.3940   23.8290   35.4040 C   0  0  0  0  0  0  0  0  0  0  0  0
   40.7340   23.7420   35.3670 N   0  0  0  0  0  0  0  0  0  0  0  0
   41.4890   23.2040   36.3430 C   0  0  0  0  0  0  0  0  0  0  0  0
   40.8830   22.7070   37.4510 N   0  0  0  0  0  0  0  0  0  0  0  0
   38.6660   24.4100   34.3370 N   0  0  0  0  0  0  0  0  0  0  0  0
   37.8860   23.6530   33.5360 C   0  0  0  0  0  0  0  0  0  0  0  0
   37.3470   24.5390   32.6330 C   0  0  0  0  0  0  0  0  0  0  0  0
   37.7940   25.7800   32.8910 N   0  0  0  0  0  0  0  0  0  0  0  0
   38.6200   25.7020   33.9550 C   0  0  0  0  0  0  0  0  0  0  0  0
   39.3950   26.7360   34.6810 C   0  0  0  0  0  0  0  0  0  0  0  0
   38.4510   27.5750   35.5060 C   0  0  0  0  0  0  0  0  0  0  0  0
   38.3570   27.1460   36.8050 O   0  0  0  0  0  0  0  0  0  0  0  0
   39.0583   22.3636   38.4433 H   0  0  0  0  0  0  0  0  0  0  0  0
   37.6809   23.3609   36.6301 H   0  0  0  0  0  0  0  0  0  0  0  0
   42.5839   23.1676   36.2437 H   0  0  0  0  0  0  0  0  0  0  0  0
   37.7187   22.5673   33.5932 H   0  0  0  0  0  0  0  0  0  0  0  0
   36.6541   24.2722   31.8214 H   0  0  0  0  0  0  0  0  0  0  0  0
   40.1283   26.2501   35.3414 H   0  0  0  0  0  0  0  0  0  0  0  0
   39.9240   27.3760   33.9595 H   0  0  0  0  0  0  0  0  0  0  0  0
   38.8112   28.6143   35.5042 H   0  0  0  0  0  0  0  0  0  0  0  0
   37.4512   27.4893   35.0554 H   0  0  0  0  0  0  0  0  0  0  0  0
   38.5236   27.9065   37.4166 H   0  0  0  0  0  0  0  0  0  0  0  0
  2  1  2  0
  3  2  1  0
  4  3  2  0
  4  5  1  0
  5  6  2  0
  6  1  1  0
  7  3  1  0
  8  7  1  0
  9 10  1  0
  9  8  2  0
 10 11  2  0
 11  7  1  0
 11 12  1  0
 12 13  1  0
 13 14  1  0
  1 15  1  0
  2 16  1  0
  5 17  1  0
  8 18  1  0
  9 19  1  0
 12 20  1  0
 12 21  1  0
 13 22  1  0
 13 23  1  0
 14 24  1  0
M  ISO  8  15  14  16  14  17  14  18  14  19  14  20   8  21   8  22   8
M  ISO  2  23   8  24   3
M  END
>  <minimizedAffinity>  (1) 
-3.71478915

>  <minimizedRMSD>  (1) 
0.340989143

$$$$
