
     RDKit          3D

 37 39  0  0  0  0  0  0  0  0999 V2000
   37.1500   27.5700   34.2000 C   0  0  0  0  0  0  0  0  0  0  0  0
   36.1240   28.4900   34.3820 C   0  0  0  0  0  0  0  0  0  0  0  0
   35.6260   29.3200   33.3720 C   0  0  0  0  0  0  0  0  0  0  0  0
   36.2040   29.1950   32.1430 N   0  0  0  0  0  0  0  0  0  0  0  0
   37.2010   28.3020   31.9630 C   0  0  0  0  0  0  0  0  0  0  0  0
   37.6540   27.5170   32.9610 N   0  0  0  0  0  0  0  0  0  0  0  0
   37.8170   28.1550   30.6860 N   0  0  0  0  0  0  0  0  0  0  0  0
   37.7230   29.1740   29.8120 C   0  0  0  0  0  0  0  0  0  0  0  0
   38.3160   29.0510   28.5660 C   0  0  0  0  0  0  0  0  0  0  0  0
   38.2010   30.1900   27.6130 C   0  0  0  0  0  0  0  0  0  0  0  0
   39.0030   27.8850   28.2190 C   0  0  0  0  0  0  0  0  0  0  0  0
   39.5450   27.7720   27.0830 O   0  0  0  0  0  0  0  0  0  0  0  0
   39.0520   26.9140   29.1460 N   0  0  0  0  0  0  0  0  0  0  0  0
   38.4830   27.0130   30.3640 C   0  0  0  0  0  0  0  0  0  0  0  0
   38.5140   26.1300   31.2400 O   0  0  0  0  0  0  0  0  0  0  0  0
   37.5940   26.7400   35.3520 C   0  0  0  0  0  0  0  0  0  0  0  0
   38.1420   25.4060   34.8960 C   0  0  0  0  0  0  0  0  0  0  0  0
   39.6860   22.8840   37.1680 C   0  0  0  0  0  0  0  0  0  0  0  0
   39.0130   23.1440   38.3740 C   0  0  0  0  0  0  0  0  0  0  0  0
   38.0540   24.1680   38.3830 C   0  0  0  0  0  0  0  0  0  0  0  0
   37.8210   24.8560   37.2350 N   0  0  0  0  0  0  0  0  0  0  0  0
   38.4950   24.5730   36.0900 C   0  0  0  0  0  0  0  0  0  0  0  0
   39.4040   23.6070   36.0650 N   0  0  0  0  0  0  0  0  0  0  0  0
   35.6755   28.5705   35.3832 H   0  0  0  0  0  0  0  0  0  0  0  0
   34.8116   30.0354   33.5591 H   0  0  0  0  0  0  0  0  0  0  0  0
   37.1823   30.0927   30.0834 H   0  0  0  0  0  0  0  0  0  0  0  0
   38.1060   31.1305   28.1755 H   0  0  0  0  0  0  0  0  0  0  0  0
   39.0996   30.2305   26.9799 H   0  0  0  0  0  0  0  0  0  0  0  0
   37.3124   30.0501   26.9799 H   0  0  0  0  0  0  0  0  0  0  0  0
   39.5527   26.0446   28.9129 H   0  0  0  0  0  0  0  0  0  0  0  0
   38.3797   27.2806   35.9001 H   0  0  0  0  0  0  0  0  0  0  0  0
   36.7236   26.5527   35.9980 H   0  0  0  0  0  0  0  0  0  0  0  0
   37.3817   24.8834   34.2969 H   0  0  0  0  0  0  0  0  0  0  0  0
   39.0426   25.5703   34.2861 H   0  0  0  0  0  0  0  0  0  0  0  0
   40.4447   22.0888   37.1236 H   0  0  0  0  0  0  0  0  0  0  0  0
   39.2312   22.5630   39.2822 H   0  0  0  0  0  0  0  0  0  0  0  0
   37.5009   24.4093   39.3027 H   0  0  0  0  0  0  0  0  0  0  0  0
  1  2  2  0
  1 16  1  0
  3  2  1  0
  4  3  2  0
  5  4  1  0
  5  6  2  0
  6  1  1  0
  7  5  1  0
  8  7  1  0
  9  8  2  0
 10  9  1  0
 11  9  1  0
 11 13  1  0
 12 11  2  0
 13 14  1  0
 14  7  1  0
 14 15  2  0
 17 16  1  0
 17 22  1  0
 18 19  2  0
 19 20  1  0
 21 20  2  0
 22 21  1  0
 23 22  2  0
 23 18  1  0
  2 24  1  0
  3 25  1  0
  8 26  1  0
 10 27  1  0
 10 28  1  0
 10 29  1  0
 13 30  1  0
 16 31  1  0
 16 32  1  0
 17 33  1  0
 17 34  1  0
 18 35  1  0
 19 36  1  0
 20 37  1  0
M  ISO  8  24  14  25  14  26  14  27   8  28   8  29   8  30   9  31   8
M  ISO  6  32   8  33   8  34   8  35  14  36  14  37  14
M  END
>  <minimizedAffinity>  (1) 
-5.57111931

>  <minimizedRMSD>  (1) 
1.27966523

$$$$
