
     RDKit          3D

 38 41  0  0  0  0  0  0  0  0999 V2000
   39.6150   26.2830   34.7600 C   0  0  0  0  0  0  0  0  0  0  0  0
   38.5550   24.0590   34.7620 N   0  0  0  0  0  0  0  0  0  0  0  0
   37.9970   23.1670   33.9470 C   0  0  0  0  0  0  0  0  0  0  0  0
   38.0550   23.7240   32.7000 C   0  0  0  0  0  0  0  0  0  0  0  0
   38.6480   24.9420   32.7910 N   0  0  0  0  0  0  0  0  0  0  0  0
   38.9610   25.1490   34.0830 C   0  0  0  0  0  0  0  0  0  0  0  0
   37.8670   23.9180   38.4230 C   0  0  0  0  0  0  0  0  0  0  0  0
   37.6840   24.2060   37.0630 C   0  0  0  0  0  0  0  0  0  0  0  0
   38.6660   23.8040   36.1700 C   0  0  0  0  0  0  0  0  0  0  0  0
   39.7170   23.1690   36.6730 N   0  0  0  0  0  0  0  0  0  0  0  0
   39.8990   22.8890   37.9790 C   0  0  0  0  0  0  0  0  0  0  0  0
   38.9670   23.2670   38.8660 N   0  0  0  0  0  0  0  0  0  0  0  0
   38.5440   27.2460   35.2470 C   0  0  0  0  0  0  0  0  0  0  0  0
   36.9640   26.9560   34.4530 S   0  0  0  0  0  0  0  0  0  0  0  0
   36.3370   28.5110   33.8460 C   0  0  0  0  0  0  0  0  0  0  0  0
   35.6830   29.4900   34.5280 N   0  0  0  0  0  0  0  0  0  0  0  0
   35.2900   30.6030   33.8450 C   0  0  0  0  0  0  0  0  0  0  0  0
   35.5090   30.8090   32.5140 N   0  0  0  0  0  0  0  0  0  0  0  0
   36.1620   29.8410   31.8190 C   0  0  0  0  0  0  0  0  0  0  0  0
   36.3610   30.0760   30.4870 C   0  0  0  0  0  0  0  0  0  0  0  0
   37.0120   29.1180   29.7470 C   0  0  0  0  0  0  0  0  0  0  0  0
   37.4510   27.9540   30.3340 C   0  0  0  0  0  0  0  0  0  0  0  0
   37.2080   27.8050   31.6760 C   0  0  0  0  0  0  0  0  0  0  0  0
   36.5710   28.7010   32.4810 C   0  0  0  0  0  0  0  0  0  0  0  0
   40.2834   26.7990   34.0550 H   0  0  0  0  0  0  0  0  0  0  0  0
   40.2063   25.9187   35.6131 H   0  0  0  0  0  0  0  0  0  0  0  0
   37.5773   22.1874   34.2196 H   0  0  0  0  0  0  0  0  0  0  0  0
   37.6823   23.2612   31.7743 H   0  0  0  0  0  0  0  0  0  0  0  0
   37.0986   24.2285   39.1462 H   0  0  0  0  0  0  0  0  0  0  0  0
   36.7858   24.7364   36.7138 H   0  0  0  0  0  0  0  0  0  0  0  0
   40.8016   22.3566   38.3133 H   0  0  0  0  0  0  0  0  0  0  0  0
   38.4230   27.1219   36.3333 H   0  0  0  0  0  0  0  0  0  0  0  0
   38.8670   28.2669   34.9951 H   0  0  0  0  0  0  0  0  0  0  0  0
   34.7606   31.3879   34.4050 H   0  0  0  0  0  0  0  0  0  0  0  0
   36.0093   31.0076   30.0196 H   0  0  0  0  0  0  0  0  0  0  0  0
   37.1839   29.2840   28.6733 H   0  0  0  0  0  0  0  0  0  0  0  0
   37.9728   27.1784   29.7542 H   0  0  0  0  0  0  0  0  0  0  0  0
   37.5604   26.8751   32.1462 H   0  0  0  0  0  0  0  0  0  0  0  0
  1 13  1  0
  2  9  1  0
  3  2  1  0
  4  5  1  0
  4  3  2  0
  5  6  2  0
  6  1  1  0
  6  2  1  0
  7 12  2  0
  8  7  1  0
  9 10  1  0
  9  8  2  0
 10 11  2  0
 11 12  1  0
 14 13  1  0
 15 14  1  0
 15 16  2  0
 17 16  1  0
 18 17  2  0
 19 24  2  0
 19 18  1  0
 20 19  1  0
 21 22  1  0
 21 20  2  0
 22 23  2  0
 23 24  1  0
 24 15  1  0
  1 25  1  0
  1 26  1  0
  3 27  1  0
  4 28  1  0
  7 29  1  0
  8 30  1  0
 11 31  1  0
 13 32  1  0
 13 33  1  0
 17 34  1  0
 20 35  1  0
 21 36  1  0
 22 37  1  0
 23 38  1  0
M  ISO  8  25   8  26   8  27  14  28  14  29  14  30  14  31  14  32   8
M  ISO  6  33   8  34  14  35  14  36  14  37  14  38  14
M  END
>  <minimizedAffinity>  (1) 
-5.33298397

>  <minimizedRMSD>  (1) 
1.67518485

$$$$
