
     RDKit          3D

 37 39  0  0  0  0  0  0  0  0999 V2000
   39.7170   26.4320   34.9120 C   0  0  0  0  0  0  0  0  0  0  0  0
   38.5930   24.2420   34.7550 N   0  0  0  0  0  0  0  0  0  0  0  0
   37.9910   23.4390   33.8790 C   0  0  0  0  0  0  0  0  0  0  0  0
   38.0360   24.0910   32.6850 C   0  0  0  0  0  0  0  0  0  0  0  0
   38.6710   25.2810   32.8720 N   0  0  0  0  0  0  0  0  0  0  0  0
   39.0160   25.3750   34.1610 C   0  0  0  0  0  0  0  0  0  0  0  0
   37.9350   23.7670   38.3860 C   0  0  0  0  0  0  0  0  0  0  0  0
   37.7300   24.1640   37.0650 C   0  0  0  0  0  0  0  0  0  0  0  0
   38.7280   23.8690   36.1350 C   0  0  0  0  0  0  0  0  0  0  0  0
   39.8100   23.2270   36.5780 N   0  0  0  0  0  0  0  0  0  0  0  0
   39.9980   22.8470   37.8600 C   0  0  0  0  0  0  0  0  0  0  0  0
   39.0560   23.1170   38.7770 N   0  0  0  0  0  0  0  0  0  0  0  0
   38.6900   27.3890   35.4860 C   0  0  0  0  0  0  0  0  0  0  0  0
   37.0420   27.0530   34.8770 S   0  0  0  0  0  0  0  0  0  0  0  0
   35.3680   30.3730   32.1810 C   0  0  0  0  0  0  0  0  0  0  0  0
   36.1150   29.3760   31.5930 C   0  0  0  0  0  0  0  0  0  0  0  0
   36.6660   28.3300   32.2890 C   0  0  0  0  0  0  0  0  0  0  0  0
   36.4960   28.2240   33.6500 C   0  0  0  0  0  0  0  0  0  0  0  0
   35.7420   29.2200   34.2770 C   0  0  0  0  0  0  0  0  0  0  0  0
   35.1830   30.2830   33.5640 C   0  0  0  0  0  0  0  0  0  0  0  0
   34.7010   31.6660   31.2450 S   0  0  0  0  0  0  0  0  0  0  0  0
   34.8370   32.9300   32.0450 O   0  0  0  0  0  0  0  0  0  0  0  0
   33.2440   31.3520   30.9910 O   0  0  0  0  0  0  0  0  0  0  0  0
   40.3938   26.9773   34.2378 H   0  0  0  0  0  0  0  0  0  0  0  0
   40.3052   25.9836   35.7262 H   0  0  0  0  0  0  0  0  0  0  0  0
   37.5485   22.4520   34.0794 H   0  0  0  0  0  0  0  0  0  0  0  0
   37.6293   23.7203   31.7326 H   0  0  0  0  0  0  0  0  0  0  0  0
   37.1604   23.9894   39.1347 H   0  0  0  0  0  0  0  0  0  0  0  0
   36.8125   24.6920   36.7660 H   0  0  0  0  0  0  0  0  0  0  0  0
   40.9181   22.3191   38.1511 H   0  0  0  0  0  0  0  0  0  0  0  0
   38.6895   27.2931   36.5818 H   0  0  0  0  0  0  0  0  0  0  0  0
   38.9650   28.4075   35.1743 H   0  0  0  0  0  0  0  0  0  0  0  0
   36.2786   29.4210   30.5062 H   0  0  0  0  0  0  0  0  0  0  0  0
   37.2502   27.5676   31.7528 H   0  0  0  0  0  0  0  0  0  0  0  0
   35.5842   29.1650   35.3642 H   0  0  0  0  0  0  0  0  0  0  0  0
   34.5966   31.0501   34.0910 H   0  0  0  0  0  0  0  0  0  0  0  0
   35.3465   31.8164   30.0460 H   0  0  0  0  0  0  0  0  0  0  0  0
  1 13  1  0
  2  9  1  0
  3  2  1  0
  4  5  1  0
  4  3  2  0
  5  6  2  0
  6  2  1  0
  6  1  1  0
  7 12  2  0
  8  7  1  0
  9 10  1  0
  9  8  2  0
 10 11  2  0
 11 12  1  0
 14 13  1  0
 15 20  2  0
 16 15  1  0
 16 17  2  0
 17 18  1  0
 18 19  2  0
 18 14  1  0
 20 19  1  0
 21 22  2  0
 21 15  1  0
 23 21  2  0
  1 24  1  0
  1 25  1  0
  3 26  1  0
  4 27  1  0
  7 28  1  0
  8 29  1  0
 11 30  1  0
 13 31  1  0
 13 32  1  0
 16 33  1  0
 17 34  1  0
 19 35  1  0
 20 36  1  0
 21 37  1  0
M  ISO  8  24   8  25   8  26  14  27  14  28  14  29  14  30  14  31   8
M  ISO  6  32   8  33  14  34  14  35  14  36  14  37  11
M  END
>  <minimizedAffinity>  (1) 
-4.9166584

>  <minimizedRMSD>  (1) 
1.57856083

$$$$
