
     RDKit          3D

 31 33  0  0  0  0  0  0  0  0999 V2000
   38.5530   24.1360   34.7900 N   0  0  0  0  0  0  0  0  0  0  0  0
   37.9600   23.2840   33.9550 C   0  0  0  0  0  0  0  0  0  0  0  0
   38.0100   23.8750   32.7200 C   0  0  0  0  0  0  0  0  0  0  0  0
   38.6370   25.0820   32.8390 N   0  0  0  0  0  0  0  0  0  0  0  0
   38.9750   25.2420   34.1330 C   0  0  0  0  0  0  0  0  0  0  0  0
   37.8880   23.8760   38.4390 C   0  0  0  0  0  0  0  0  0  0  0  0
   37.7040   24.2000   37.0980 C   0  0  0  0  0  0  0  0  0  0  0  0
   38.6780   23.8320   36.1840 C   0  0  0  0  0  0  0  0  0  0  0  0
   39.7450   23.1820   36.6580 N   0  0  0  0  0  0  0  0  0  0  0  0
   39.9290   22.8670   37.9470 C   0  0  0  0  0  0  0  0  0  0  0  0
   38.9990   23.2110   38.8590 N   0  0  0  0  0  0  0  0  0  0  0  0
   39.6620   26.3270   34.8540 C   0  0  0  0  0  0  0  0  0  0  0  0
   38.6450   27.3280   35.3400 C   0  0  0  0  0  0  0  0  0  0  0  0
   37.0050   27.0230   34.6910 S   0  0  0  0  0  0  0  0  0  0  0  0
   36.7300   28.0610   33.2670 C   0  0  0  0  0  0  0  0  0  0  0  0
   37.1590   28.3070   31.9780 C   0  0  0  0  0  0  0  0  0  0  0  0
   36.4160   29.3390   31.4450 C   0  0  0  0  0  0  0  0  0  0  0  0
   35.5420   29.7080   32.4190 N   0  0  0  0  0  0  0  0  0  0  0  0
   35.7230   28.9580   33.4930 N   0  0  0  0  0  0  0  0  0  0  0  0
   37.5207   22.3072   34.2055 H   0  0  0  0  0  0  0  0  0  0  0  0
   37.6114   23.4482   31.7878 H   0  0  0  0  0  0  0  0  0  0  0  0
   37.1210   24.1628   39.1735 H   0  0  0  0  0  0  0  0  0  0  0  0
   36.8024   24.7380   36.7701 H   0  0  0  0  0  0  0  0  0  0  0  0
   40.8363   22.3293   38.2597 H   0  0  0  0  0  0  0  0  0  0  0  0
   40.2057   25.9092   35.7141 H   0  0  0  0  0  0  0  0  0  0  0  0
   40.3731   26.8245   34.1781 H   0  0  0  0  0  0  0  0  0  0  0  0
   38.6026   27.2808   36.4382 H   0  0  0  0  0  0  0  0  0  0  0  0
   38.9618   28.3200   34.9857 H   0  0  0  0  0  0  0  0  0  0  0  0
   37.9644   27.7664   31.4594 H   0  0  0  0  0  0  0  0  0  0  0  0
   36.5108   29.7741   30.4392 H   0  0  0  0  0  0  0  0  0  0  0  0
   34.8431   30.4597   32.3331 H   0  0  0  0  0  0  0  0  0  0  0  0
  1  8  1  0
  2  1  1  0
  3  4  1  0
  3  2  2  0
  4  5  2  0
  5  1  1  0
  5 12  1  0
  6 11  2  0
  7  6  1  0
  8  9  1  0
  8  7  2  0
  9 10  2  0
 10 11  1  0
 12 13  1  0
 14 13  1  0
 15 19  2  0
 15 14  1  0
 16 15  1  0
 17 16  2  0
 17 18  1  0
 18 19  1  0
  2 20  1  0
  3 21  1  0
  6 22  1  0
  7 23  1  0
 10 24  1  0
 12 25  1  0
 12 26  1  0
 13 27  1  0
 13 28  1  0
 16 29  1  0
 17 30  1  0
 18 31  1  0
M  ISO  8  20  14  21  14  22  14  23  14  24  14  25   8  26   8  27   8
M  ISO  4  28   8  29  14  30  14  31   9
M  END
>  <minimizedAffinity>  (1) 
-4.3689208

>  <minimizedRMSD>  (1) 
1.13459086

$$$$
