
     RDKit          3D

 40 42  0  0  0  0  0  0  0  0999 V2000
   38.0960   25.9810   33.8110 N   0  0  0  0  0  0  0  0  0  0  0  0
   36.9520   26.1840   33.1560 C   0  0  0  0  0  0  0  0  0  0  0  0
   37.2270   27.1760   32.2430 C   0  0  0  0  0  0  0  0  0  0  0  0
   38.5380   27.5440   32.3770 N   0  0  0  0  0  0  0  0  0  0  0  0
   39.0650   26.7930   33.3530 C   0  0  0  0  0  0  0  0  0  0  0  0
   38.2060   24.3270   37.1420 C   0  0  0  0  0  0  0  0  0  0  0  0
   38.1170   25.3580   36.1970 C   0  0  0  0  0  0  0  0  0  0  0  0
   38.1780   24.9980   34.8510 C   0  0  0  0  0  0  0  0  0  0  0  0
   38.3180   23.6990   34.5720 N   0  0  0  0  0  0  0  0  0  0  0  0
   38.4040   22.7130   35.4690 C   0  0  0  0  0  0  0  0  0  0  0  0
   38.3480   23.0230   36.7820 N   0  0  0  0  0  0  0  0  0  0  0  0
   40.4120   26.7520   33.9230 C   0  0  0  0  0  0  0  0  0  0  0  0
   41.4220   26.3100   32.8680 C   0  0  0  0  0  0  0  0  0  0  0  0
   42.6770   25.2440   33.6020 S   0  0  0  0  0  0  0  0  0  0  0  0
   41.9600   23.8180   34.4040 C   0  0  0  0  0  0  0  0  0  0  0  0
   41.8320   23.9650   35.8930 C   0  0  0  0  0  0  0  0  0  0  0  0
   42.1620   22.7620   36.6970 C   0  0  0  0  0  0  0  0  0  0  0  0
   41.8990   21.4550   36.0460 C   0  0  0  0  0  0  0  0  0  0  0  0
   41.9160   21.4120   34.5650 C   0  0  0  0  0  0  0  0  0  0  0  0
   42.7520   22.5690   34.0420 C   0  0  0  0  0  0  0  0  0  0  0  0
   35.9930   25.6683   33.3124 H   0  0  0  0  0  0  0  0  0  0  0  0
   36.5115   27.6025   31.5245 H   0  0  0  0  0  0  0  0  0  0  0  0
   38.1594   24.5809   38.2113 H   0  0  0  0  0  0  0  0  0  0  0  0
   38.0037   26.4081   36.5043 H   0  0  0  0  0  0  0  0  0  0  0  0
   38.5183   21.6683   35.1442 H   0  0  0  0  0  0  0  0  0  0  0  0
   40.6825   27.7543   34.2865 H   0  0  0  0  0  0  0  0  0  0  0  0
   40.4261   26.0322   34.7546 H   0  0  0  0  0  0  0  0  0  0  0  0
   41.9081   27.1981   32.4378 H   0  0  0  0  0  0  0  0  0  0  0  0
   40.8937   25.7489   32.0831 H   0  0  0  0  0  0  0  0  0  0  0  0
   40.9302   23.7246   34.0287 H   0  0  0  0  0  0  0  0  0  0  0  0
   42.5040   24.7762   36.2100 H   0  0  0  0  0  0  0  0  0  0  0  0
   40.7664   24.1635   36.0805 H   0  0  0  0  0  0  0  0  0  0  0  0
   43.2328   22.8056   36.9448 H   0  0  0  0  0  0  0  0  0  0  0  0
   41.4969   22.7976   37.5724 H   0  0  0  0  0  0  0  0  0  0  0  0
   42.6623   20.7488   36.4048 H   0  0  0  0  0  0  0  0  0  0  0  0
   40.8629   21.2086   36.3213 H   0  0  0  0  0  0  0  0  0  0  0  0
   42.3538   20.4603   34.2294 H   0  0  0  0  0  0  0  0  0  0  0  0
   40.8886   21.4944   34.1806 H   0  0  0  0  0  0  0  0  0  0  0  0
   42.8789   22.4934   32.9520 H   0  0  0  0  0  0  0  0  0  0  0  0
   43.7630   22.5791   34.4753 H   0  0  0  0  0  0  0  0  0  0  0  0
  1  8  1  0
  2  1  1  0
  3  4  1  0
  3  2  2  0
  4  5  2  0
  5  1  1  0
  5 12  1  0
  7  6  2  0
  8  7  1  0
  9  8  2  0
  9 10  1  0
 10 11  2  0
 11  6  1  0
 13 14  1  0
 13 12  1  0
 14 15  1  0
 15 16  1  0
 16 17  1  0
 18 17  1  0
 19 18  1  0
 20 15  1  0
 20 19  1  0
  2 21  1  0
  3 22  1  0
  6 23  1  0
  7 24  1  0
 10 25  1  0
 12 26  1  0
 12 27  1  0
 13 28  1  0
 13 29  1  0
 15 30  1  0
 16 31  1  0
 16 32  1  0
 17 33  1  0
 17 34  1  0
 18 35  1  0
 18 36  1  0
 19 37  1  0
 19 38  1  0
 20 39  1  0
 20 40  1  0
M  ISO  8  21  14  22  14  23  14  24  14  25  14  26   8  27   8  28   8
M  ISO  8  29   8  30  13  31  13  32  13  33  13  34  13  35  13  36  13
M  ISO  4  37  13  38  13  39  13  40  13
M  END
>  <minimizedAffinity>  (1) 
-3.61075473

>  <minimizedRMSD>  (1) 
5.89782333

$$$$
