
     RDKit          3D

 39 41  0  0  1  0  0  0  0  0999 V2000
   38.8470   27.3320   34.9120 C   0  0  0  0  0  0  0  0  0  0  0  0
   39.7880   26.1620   34.7250 C   0  0  0  0  0  0  0  0  0  0  0  0
   38.6210   24.0100   34.7630 N   0  0  0  0  0  0  0  0  0  0  0  0
   38.0300   23.1300   33.9460 C   0  0  0  0  0  0  0  0  0  0  0  0
   38.1420   23.6580   32.6960 C   0  0  0  0  0  0  0  0  0  0  0  0
   38.8080   24.8660   32.7690 N   0  0  0  0  0  0  0  0  0  0  0  0
   39.0990   25.0690   34.0620 C   0  0  0  0  0  0  0  0  0  0  0  0
   37.8570   23.9370   38.3990 C   0  0  0  0  0  0  0  0  0  0  0  0
   37.7050   24.2120   37.0220 C   0  0  0  0  0  0  0  0  0  0  0  0
   38.6920   23.7730   36.1710 C   0  0  0  0  0  0  0  0  0  0  0  0
   39.7270   23.1150   36.7070 N   0  0  0  0  0  0  0  0  0  0  0  0
   39.8750   22.8510   38.0100 C   0  0  0  0  0  0  0  0  0  0  0  0
   38.9280   23.2670   38.8710 N   0  0  0  0  0  0  0  0  0  0  0  0
   37.1860   26.9030   34.4520 S   0  0  0  0  0  0  0  0  0  0  0  0
   37.9890   27.9220   32.0670 N   0  0  0  0  0  0  0  0  0  0  0  0
   37.5470   27.7690   30.6920 C   0  0  0  0  0  0  0  0  0  0  0  0
   36.3010   26.9370   30.6880 C   0  0  0  0  0  0  0  0  0  0  0  0
   35.8650   26.8230   32.1240 C   0  0  0  0  0  0  0  0  0  0  0  0
   36.8360   27.7150   32.8840 C   0  0  1  0  0  0  0  0  0  0  0  0
   36.0760   29.0160   32.9820 C   0  0  0  0  0  0  0  0  0  0  0  0
   36.4670   29.9860   32.1220 F   0  0  0  0  0  0  0  0  0  0  0  0
   34.7610   28.7100   32.6720 F   0  0  0  0  0  0  0  0  0  0  0  0
   36.0070   29.4610   34.3020 F   0  0  0  0  0  0  0  0  0  0  0  0
   38.8590   27.6363   35.9690 H   0  0  0  0  0  0  0  0  0  0  0  0
   39.1846   28.1561   34.2663 H   0  0  0  0  0  0  0  0  0  0  0  0
   40.6442   26.4782   34.1111 H   0  0  0  0  0  0  0  0  0  0  0  0
   40.1395   25.8214   35.7101 H   0  0  0  0  0  0  0  0  0  0  0  0
   37.5534   22.1789   34.2259 H   0  0  0  0  0  0  0  0  0  0  0  0
   37.7619   23.1954   31.7732 H   0  0  0  0  0  0  0  0  0  0  0  0
   37.0835   24.2774   39.1031 H   0  0  0  0  0  0  0  0  0  0  0  0
   36.8282   24.7580   36.6437 H   0  0  0  0  0  0  0  0  0  0  0  0
   40.7570   22.3024   38.3721 H   0  0  0  0  0  0  0  0  0  0  0  0
   38.3671   28.8683   32.2169 H   0  0  0  0  0  0  0  0  0  0  0  0
   37.3358   28.7571   30.2571 H   0  0  0  0  0  0  0  0  0  0  0  0
   38.3307   27.2806   30.0942 H   0  0  0  0  0  0  0  0  0  0  0  0
   35.5181   27.4263   30.0899 H   0  0  0  0  0  0  0  0  0  0  0  0
   36.4829   25.9465   30.2454 H   0  0  0  0  0  0  0  0  0  0  0  0
   34.8314   27.1788   32.2468 H   0  0  0  0  0  0  0  0  0  0  0  0
   35.8776   25.7843   32.4857 H   0  0  0  0  0  0  0  0  0  0  0  0
  2  1  1  0
  3 10  1  0
  4  3  1  0
  5  6  1  0
  5  4  2  0
  6  7  2  0
  7  2  1  0
  7  3  1  0
  8 13  2  0
  9  8  1  0
 10 11  1  0
 10  9  2  0
 11 12  2  0
 12 13  1  0
 14  1  1  0
 15 19  1  0
 16 15  1  0
 17 16  1  0
 17 18  1  0
 18 19  1  0
 19 20  1  0
 19 14  1  1
 20 23  1  0
 21 20  1  0
 22 20  1  0
  1 24  1  0
  1 25  1  0
  2 26  1  0
  2 27  1  0
  4 28  1  0
  5 29  1  0
  8 30  1  0
  9 31  1  0
 12 32  1  0
 15 33  1  0
 16 34  1  0
 16 35  1  0
 17 36  1  0
 17 37  1  0
 18 38  1  0
 18 39  1  0
M  ISO  8  24   8  25   8  26   8  27   8  28  14  29  14  30  14  31  14
M  ISO  8  32  14  33   5  34  13  35  13  36  13  37  13  38  13  39  13
M  END
>  <minimizedAffinity>  (1) 
-4.66512632

>  <minimizedRMSD>  (1) 
1.49863541

$$$$
