
     RDKit          3D

 27 29  0  0  0  0  0  0  0  0999 V2000
   41.6450   22.8190   34.6480 C   0  0  0  0  0  0  0  0  0  0  0  0
   40.9890   22.6290   35.9560 C   0  0  0  0  0  0  0  0  0  0  0  0
   41.3570   21.6850   36.9100 C   0  0  0  0  0  0  0  0  0  0  0  0
   40.5360   21.7940   37.9890 N   0  0  0  0  0  0  0  0  0  0  0  0
   39.6560   22.7960   37.7260 C   0  0  0  0  0  0  0  0  0  0  0  0
   38.6240   23.2860   38.5150 C   0  0  0  0  0  0  0  0  0  0  0  0
   37.8570   24.3280   38.0120 C   0  0  0  0  0  0  0  0  0  0  0  0
   38.1320   24.8540   36.7490 C   0  0  0  0  0  0  0  0  0  0  0  0
   39.1670   24.3580   35.9620 C   0  0  0  0  0  0  0  0  0  0  0  0
   39.9210   23.3280   36.4660 C   0  0  0  0  0  0  0  0  0  0  0  0
   44.2600   25.4330   35.5250 C   0  0  0  0  0  0  0  0  0  0  0  0
   43.5070   24.2590   35.5970 C   0  0  0  0  0  0  0  0  0  0  0  0
   42.5010   24.0470   34.6510 C   0  0  0  0  0  0  0  0  0  0  0  0
   42.3060   25.0170   33.6930 N   0  0  0  0  0  0  0  0  0  0  0  0
   43.0530   26.1390   33.6540 C   0  0  0  0  0  0  0  0  0  0  0  0
   44.0220   26.3440   34.5640 N   0  0  0  0  0  0  0  0  0  0  0  0
   40.8739   22.9198   33.8700 H   0  0  0  0  0  0  0  0  0  0  0  0
   42.2840   21.9467   34.4462 H   0  0  0  0  0  0  0  0  0  0  0  0
   42.1817   20.9644   36.8076 H   0  0  0  0  0  0  0  0  0  0  0  0
   40.5741   21.2235   38.8457 H   0  0  0  0  0  0  0  0  0  0  0  0
   38.4202   22.8612   39.5090 H   0  0  0  0  0  0  0  0  0  0  0  0
   37.0308   24.7399   38.6102 H   0  0  0  0  0  0  0  0  0  0  0  0
   37.5157   25.6808   36.3662 H   0  0  0  0  0  0  0  0  0  0  0  0
   39.3743   24.7784   34.9669 H   0  0  0  0  0  0  0  0  0  0  0  0
   45.0562   25.6148   36.2619 H   0  0  0  0  0  0  0  0  0  0  0  0
   43.7023   23.5153   36.3836 H   0  0  0  0  0  0  0  0  0  0  0  0
   42.8687   26.8914   32.8730 H   0  0  0  0  0  0  0  0  0  0  0  0
  1 13  1  0
  1  2  1  0
  2 10  1  0
  2  3  2  0
  3  4  1  0
  5  4  1  0
  5  6  2  0
  7  6  1  0
  8  7  2  0
  9 10  2  0
  9  8  1  0
 10  5  1  0
 11 12  2  0
 13 12  1  0
 14 13  2  0
 15 14  1  0
 15 16  2  0
 16 11  1  0
  1 17  1  0
  1 18  1  0
  3 19  1  0
  4 20  1  0
  6 21  1  0
  7 22  1  0
  8 23  1  0
  9 24  1  0
 11 25  1  0
 12 26  1  0
 15 27  1  0
M  ISO  8  17   8  18   8  19  14  20   9  21  14  22  14  23  14  24  14
M  ISO  3  25  14  26  14  27  14
M  END
>  <minimizedAffinity>  (1) 
-4.72909021

>  <minimizedRMSD>  (1) 
5.21085596

$$$$
