
     RDKit          3D

 19 20  0  0  0  0  0  0  0  0999 V2000
   40.8320   22.1520   37.6790 C   0  0  0  0  0  0  0  0  0  0  0  0
   39.6570   22.9000   37.7680 C   0  0  0  0  0  0  0  0  0  0  0  0
   39.0070   23.2380   36.5710 C   0  0  0  0  0  0  0  0  0  0  0  0
   39.5590   22.8160   35.3900 N   0  0  0  0  0  0  0  0  0  0  0  0
   40.6900   22.1000   35.3610 C   0  0  0  0  0  0  0  0  0  0  0  0
   41.3200   21.7710   36.4900 N   0  0  0  0  0  0  0  0  0  0  0  0
   37.7330   24.0450   36.6090 C   0  0  0  0  0  0  0  0  0  0  0  0
   37.9430   25.2840   35.7770 C   0  0  0  0  0  0  0  0  0  0  0  0
   37.6110   25.3510   34.4400 C   0  0  0  0  0  0  0  0  0  0  0  0
   38.0800   27.0480   33.9710 S   0  0  0  0  0  0  0  0  0  0  0  0
   38.6740   27.3970   35.7420 C   0  0  0  0  0  0  0  0  0  0  0  0
   38.4640   26.4090   36.2530 N   0  0  0  0  0  0  0  0  0  0  0  0
   41.3659   21.8708   38.5987 H   0  0  0  0  0  0  0  0  0  0  0  0
   39.2544   23.2137   38.7425 H   0  0  0  0  0  0  0  0  0  0  0  0
   41.1049   21.7790   34.3942 H   0  0  0  0  0  0  0  0  0  0  0  0
   36.9034   23.4531   36.1948 H   0  0  0  0  0  0  0  0  0  0  0  0
   37.4835   24.3176   37.6451 H   0  0  0  0  0  0  0  0  0  0  0  0
   37.1687   24.5670   33.8077 H   0  0  0  0  0  0  0  0  0  0  0  0
   39.1078   28.3171   36.1605 H   0  0  0  0  0  0  0  0  0  0  0  0
  1  2  2  0
  3  7  1  0
  3  2  1  0
  4  3  2  0
  5  4  1  0
  5  6  2  0
  6  1  1  0
  8 12  1  0
  8  7  1  0
  9  8  2  0
 10  9  1  0
 10 11  1  0
 11 12  2  0
  1 13  1  0
  2 14  1  0
  5 15  1  0
  7 16  1  0
  7 17  1  0
  9 18  1  0
 11 19  1  0
M  ISO  7  13  14  14  14  15  14  16   8  17   8  18  14  19  14
M  END
>  <minimizedAffinity>  (1) 
-3.31144214

>  <minimizedRMSD>  (1) 
2.29335809

$$$$
