
     RDKit          3D

 14 14  0  0  0  0  0  0  0  0999 V2000
   41.3080   22.0870   36.5400 C   0  0  0  0  0  0  0  0  0  0  0  0
   40.5510   22.5710   37.6100 C   0  0  0  0  0  0  0  0  0  0  0  0
   39.2280   22.9430   37.3560 C   0  0  0  0  0  0  0  0  0  0  0  0
   38.7510   22.8160   36.0840 N   0  0  0  0  0  0  0  0  0  0  0  0
   39.5040   22.3480   35.0800 C   0  0  0  0  0  0  0  0  0  0  0  0
   40.7840   21.9850   35.3200 N   0  0  0  0  0  0  0  0  0  0  0  0
   38.3480   23.4740   38.4580 C   0  0  0  0  0  0  0  0  0  0  0  0
   37.3790   22.5080   38.7820 O   0  0  0  0  0  0  0  0  0  0  0  0
   42.3525   21.7857   36.7079 H   0  0  0  0  0  0  0  0  0  0  0  0
   40.9819   22.6564   38.6185 H   0  0  0  0  0  0  0  0  0  0  0  0
   39.0839   22.2596   34.0672 H   0  0  0  0  0  0  0  0  0  0  0  0
   38.9607   23.6924   39.3451 H   0  0  0  0  0  0  0  0  0  0  0  0
   37.8521   24.3968   38.1226 H   0  0  0  0  0  0  0  0  0  0  0  0
   37.3039   22.4331   39.7663 H   0  0  0  0  0  0  0  0  0  0  0  0
  1  2  2  0
  3  2  1  0
  3  7  1  0
  4  3  2  0
  5  6  2  0
  5  4  1  0
  6  1  1  0
  7  8  1  0
  1  9  1  0
  2 10  1  0
  5 11  1  0
  7 12  1  0
  7 13  1  0
  8 14  1  0
M  ISO  6   9  14  10  14  11  14  12   8  13   8  14   3
M  END
>  <minimizedAffinity>  (1) 
-2.85239983

>  <minimizedRMSD>  (1) 
0.999046266

$$$$
