
     RDKit          3D

 18 19  0  0  0  0  0  0  0  0999 V2000
   37.9780   24.2290   38.4430 C   0  0  0  0  0  0  0  0  0  0  0  0
   37.8130   24.6750   37.1290 C   0  0  0  0  0  0  0  0  0  0  0  0
   38.6580   24.1620   36.1450 C   0  0  0  0  0  0  0  0  0  0  0  0
   39.6110   23.2450   36.5120 N   0  0  0  0  0  0  0  0  0  0  0  0
   39.7350   22.8420   37.7920 C   0  0  0  0  0  0  0  0  0  0  0  0
   38.9190   23.3360   38.7470 N   0  0  0  0  0  0  0  0  0  0  0  0
   38.5330   24.6010   34.7140 C   0  0  0  0  0  0  0  0  0  0  0  0
   39.7170   25.4460   34.3890 C   0  0  0  0  0  0  0  0  0  0  0  0
   40.1100   26.6030   34.9970 N   0  0  0  0  0  0  0  0  0  0  0  0
   41.1940   26.9940   34.3870 O   0  0  0  0  0  0  0  0  0  0  0  0
   41.4960   26.1430   33.4350 C   0  0  0  0  0  0  0  0  0  0  0  0
   40.5850   25.1280   33.3880 N   0  0  0  0  0  0  0  0  0  0  0  0
   37.3232   24.6198   39.2358 H   0  0  0  0  0  0  0  0  0  0  0  0
   37.0363   25.4121   36.8770 H   0  0  0  0  0  0  0  0  0  0  0  0
   40.5066   22.1054   38.0604 H   0  0  0  0  0  0  0  0  0  0  0  0
   38.5091   23.7214   34.0539 H   0  0  0  0  0  0  0  0  0  0  0  0
   37.6037   25.1711   34.5678 H   0  0  0  0  0  0  0  0  0  0  0  0
   42.3646   26.2351   32.7663 H   0  0  0  0  0  0  0  0  0  0  0  0
  1  6  2  0
  2  1  1  0
  3  4  1  0
  3  2  2  0
  4  5  2  0
  5  6  1  0
  7  3  1  0
  8  7  1  0
  8  9  2  0
 10  9  1  0
 11 10  1  0
 12 11  2  0
 12  8  1  0
  1 13  1  0
  2 14  1  0
  5 15  1  0
  7 16  1  0
  7 17  1  0
 11 18  1  0
M  ISO  6  13  14  14  14  15  14  16   8  17   8  18  14
M  END
>  <minimizedAffinity>  (1) 
-3.28648376

>  <minimizedRMSD>  (1) 
5.83384418

$$$$
