
     RDKit          3D

 31 33  0  0  0  0  0  0  0  0999 V2000
   38.5270   26.2350   34.8050 C   0  0  0  0  0  0  0  0  0  0  0  0
   39.6560   26.8830   35.1700 N   0  0  0  0  0  0  0  0  0  0  0  0
   40.2070   27.3500   34.0800 O   0  0  0  0  0  0  0  0  0  0  0  0
   39.4740   27.0240   33.0530 C   0  0  0  0  0  0  0  0  0  0  0  0
   38.3960   26.3150   33.4640 N   0  0  0  0  0  0  0  0  0  0  0  0
   40.2060   27.9350   28.9920 C   0  0  0  0  0  0  0  0  0  0  0  0
   38.8890   27.8350   29.4050 C   0  0  0  0  0  0  0  0  0  0  0  0
   38.6820   27.5400   30.7210 C   0  0  0  0  0  0  0  0  0  0  0  0
   39.7190   27.3420   31.6340 C   0  0  0  0  0  0  0  0  0  0  0  0
   41.0150   27.4550   31.1630 C   0  0  0  0  0  0  0  0  0  0  0  0
   41.2920   27.7550   29.8290 C   0  0  0  0  0  0  0  0  0  0  0  0
   40.4870   28.3140   27.3050 S   0  0  0  0  0  0  0  0  0  0  0  0
   40.0350   27.1590   26.4570 O   0  0  0  0  0  0  0  0  0  0  0  0
   39.5530   29.4610   26.9430 O   0  0  0  0  0  0  0  0  0  0  0  0
   37.5740   25.5440   35.7110 C   0  0  0  0  0  0  0  0  0  0  0  0
   38.7820   23.3960   38.5860 C   0  0  0  0  0  0  0  0  0  0  0  0
   38.0520   24.3440   37.8770 C   0  0  0  0  0  0  0  0  0  0  0  0
   38.3370   24.5320   36.5210 C   0  0  0  0  0  0  0  0  0  0  0  0
   39.3180   23.7800   35.9470 N   0  0  0  0  0  0  0  0  0  0  0  0
   40.0060   22.8700   36.6630 C   0  0  0  0  0  0  0  0  0  0  0  0
   39.7380   22.6820   37.9730 N   0  0  0  0  0  0  0  0  0  0  0  0
   38.0516   27.9857   28.7078 H   0  0  0  0  0  0  0  0  0  0  0  0
   37.6459   27.4539   31.0804 H   0  0  0  0  0  0  0  0  0  0  0  0
   41.8517   27.3038   31.8610 H   0  0  0  0  0  0  0  0  0  0  0  0
   42.3247   27.8441   29.4606 H   0  0  0  0  0  0  0  0  0  0  0  0
   41.8121   28.5999   27.1066 H   0  0  0  0  0  0  0  0  0  0  0  0
   37.1015   26.2767   36.3818 H   0  0  0  0  0  0  0  0  0  0  0  0
   36.7896   25.0441   35.1239 H   0  0  0  0  0  0  0  0  0  0  0  0
   38.5746   23.2310   39.6536 H   0  0  0  0  0  0  0  0  0  0  0  0
   37.2667   24.9337   38.3727 H   0  0  0  0  0  0  0  0  0  0  0  0
   40.7929   22.2749   36.1765 H   0  0  0  0  0  0  0  0  0  0  0  0
  1  2  2  0
  1 15  1  0
  3  2  1  0
  4  5  2  0
  4  3  1  0
  5  1  1  0
  6  7  2  0
  6 11  1  0
  7  8  1  0
  8  9  2  0
  9  4  1  0
 10  9  1  0
 11 10  2  0
 12  6  1  0
 13 12  2  0
 14 12  2  0
 15 18  1  0
 17 16  2  0
 18 17  1  0
 19 18  2  0
 19 20  1  0
 20 21  2  0
 21 16  1  0
  7 22  1  0
  8 23  1  0
 10 24  1  0
 11 25  1  0
 12 26  1  0
 15 27  1  0
 15 28  1  0
 16 29  1  0
 17 30  1  0
 20 31  1  0
M  ISO  8  22  14  23  14  24  14  25  14  26  11  27   8  28   8  29  14
M  ISO  2  30  14  31  14
M  END
>  <minimizedAffinity>  (1) 
-4.42155266

>  <minimizedRMSD>  (1) 
3.73145795

$$$$
