
     RDKit          3D

 28 30  0  0  0  0  0  0  0  0999 V2000
   39.0510   25.3200   34.3310 C   0  0  0  0  0  0  0  0  0  0  0  0
   39.5120   26.2860   35.1540 N   0  0  0  0  0  0  0  0  0  0  0  0
   40.2070   27.1130   34.4420 O   0  0  0  0  0  0  0  0  0  0  0  0
   40.2110   26.7150   33.1840 C   0  0  0  0  0  0  0  0  0  0  0  0
   39.4870   25.5800   33.0770 N   0  0  0  0  0  0  0  0  0  0  0  0
   40.9110   27.4280   32.0930 C   0  0  0  0  0  0  0  0  0  0  0  0
   42.1750   27.9070   32.3710 C   0  0  0  0  0  0  0  0  0  0  0  0
   42.8290   28.5810   31.3310 C   0  0  0  0  0  0  0  0  0  0  0  0
   42.2060   28.7400   30.0960 C   0  0  0  0  0  0  0  0  0  0  0  0
   40.9490   28.2420   29.8800 C   0  0  0  0  0  0  0  0  0  0  0  0
   40.2700   27.5720   30.8780 C   0  0  0  0  0  0  0  0  0  0  0  0
   38.2090   24.1590   34.7080 C   0  0  0  0  0  0  0  0  0  0  0  0
   37.9310   23.8950   38.4800 C   0  0  0  0  0  0  0  0  0  0  0  0
   37.6160   24.2300   37.1700 C   0  0  0  0  0  0  0  0  0  0  0  0
   38.4950   23.8260   36.1550 C   0  0  0  0  0  0  0  0  0  0  0  0
   39.6250   23.1200   36.4970 N   0  0  0  0  0  0  0  0  0  0  0  0
   39.8730   22.8260   37.7910 C   0  0  0  0  0  0  0  0  0  0  0  0
   39.0310   23.2130   38.7590 N   0  0  0  0  0  0  0  0  0  0  0  0
   42.6440   27.7672   33.3561 H   0  0  0  0  0  0  0  0  0  0  0  0
   43.8390   28.9863   31.4910 H   0  0  0  0  0  0  0  0  0  0  0  0
   42.7285   29.2706   29.2864 H   0  0  0  0  0  0  0  0  0  0  0  0
   40.4734   28.3777   28.8974 H   0  0  0  0  0  0  0  0  0  0  0  0
   39.2598   27.1693   30.7124 H   0  0  0  0  0  0  0  0  0  0  0  0
   37.1458   24.4136   34.5864 H   0  0  0  0  0  0  0  0  0  0  0  0
   38.4367   23.2963   34.0647 H   0  0  0  0  0  0  0  0  0  0  0  0
   37.2588   24.1998   39.2957 H   0  0  0  0  0  0  0  0  0  0  0  0
   36.7027   24.7963   36.9350 H   0  0  0  0  0  0  0  0  0  0  0  0
   40.7791   22.2607   38.0546 H   0  0  0  0  0  0  0  0  0  0  0  0
  1 12  1  0
  1  2  2  0
  3  2  1  0
  4  3  1  0
  5  4  2  0
  5  1  1  0
  6  7  2  0
  6  4  1  0
  8  7  1  0
  9  8  2  0
 10  9  1  0
 10 11  2  0
 11  6  1  0
 12 15  1  0
 13 18  2  0
 14 13  1  0
 15 16  1  0
 15 14  2  0
 16 17  2  0
 17 18  1  0
  7 19  1  0
  8 20  1  0
  9 21  1  0
 10 22  1  0
 11 23  1  0
 12 24  1  0
 12 25  1  0
 13 26  1  0
 14 27  1  0
 17 28  1  0
M  ISO  8  19  14  20  14  21  14  22  14  23  14  24   8  25   8  26  14
M  ISO  2  27  14  28  14
M  END
>  <minimizedAffinity>  (1) 
-4.12873268

>  <minimizedRMSD>  (1) 
1.80231416

$$$$
