
     RDKit          3D

 26 28  0  0  0  0  0  0  0  0999 V2000
   39.2100   24.4590   34.6390 C   0  0  0  0  0  0  0  0  0  0  0  0
   37.9640   24.3690   38.2120 C   0  0  0  0  0  0  0  0  0  0  0  0
   38.0840   24.7390   36.8770 C   0  0  0  0  0  0  0  0  0  0  0  0
   39.0370   24.0970   36.0940 C   0  0  0  0  0  0  0  0  0  0  0  0
   39.8100   23.1340   36.6710 N   0  0  0  0  0  0  0  0  0  0  0  0
   39.6650   22.8020   37.9690 C   0  0  0  0  0  0  0  0  0  0  0  0
   38.7440   23.4230   38.7280 N   0  0  0  0  0  0  0  0  0  0  0  0
   40.3690   25.3720   34.5220 C   0  0  0  0  0  0  0  0  0  0  0  0
   40.3270   26.6720   34.1520 N   0  0  0  0  0  0  0  0  0  0  0  0
   41.5550   27.1210   34.1720 O   0  0  0  0  0  0  0  0  0  0  0  0
   42.3660   26.1600   34.5380 C   0  0  0  0  0  0  0  0  0  0  0  0
   41.6550   25.0320   34.7690 N   0  0  0  0  0  0  0  0  0  0  0  0
   43.8220   26.2540   34.6840 C   0  0  0  0  0  0  0  0  0  0  0  0
   44.5390   25.2770   35.3720 C   0  0  0  0  0  0  0  0  0  0  0  0
   45.9180   25.4790   35.4440 C   0  0  0  0  0  0  0  0  0  0  0  0
   46.5370   26.5400   34.8920 N   0  0  0  0  0  0  0  0  0  0  0  0
   45.8140   27.4540   34.2420 C   0  0  0  0  0  0  0  0  0  0  0  0
   44.4830   27.2980   34.1500 N   0  0  0  0  0  0  0  0  0  0  0  0
   39.3922   23.5490   34.0484 H   0  0  0  0  0  0  0  0  0  0  0  0
   38.3013   24.9495   34.2598 H   0  0  0  0  0  0  0  0  0  0  0  0
   37.2158   24.8641   38.8485 H   0  0  0  0  0  0  0  0  0  0  0  0
   37.4397   25.5217   36.4501 H   0  0  0  0  0  0  0  0  0  0  0  0
   40.3018   22.0206   38.4094 H   0  0  0  0  0  0  0  0  0  0  0  0
   44.0500   24.4037   35.8284 H   0  0  0  0  0  0  0  0  0  0  0  0
   46.5288   24.7357   35.9774 H   0  0  0  0  0  0  0  0  0  0  0  0
   46.3034   28.3271   33.7857 H   0  0  0  0  0  0  0  0  0  0  0  0
  1  4  1  0
  2  7  2  0
  3  2  1  0
  4  5  1  0
  4  3  2  0
  5  6  2  0
  6  7  1  0
  8  1  1  0
  8 12  1  0
  9 10  1  0
  9  8  2  0
 10 11  1  0
 11 13  1  0
 11 12  2  0
 13 14  2  0
 14 15  1  0
 16 15  2  0
 17 16  1  0
 18 17  2  0
 18 13  1  0
  1 19  1  0
  1 20  1  0
  2 21  1  0
  3 22  1  0
  6 23  1  0
 14 24  1  0
 15 25  1  0
 17 26  1  0
M  ISO  8  19   8  20   8  21  14  22  14  23  14  24  14  25  14  26  14
M  END
>  <minimizedAffinity>  (1) 
-3.93499708

>  <minimizedRMSD>  (1) 
2.16030836

$$$$
