
     RDKit          3D

 37 39  0  0  0  0  0  0  0  0999 V2000
   39.0830   26.1300   34.5680 C   0  0  0  0  0  0  0  0  0  0  0  0
   38.0750   27.0740   34.0000 C   0  0  0  0  0  0  0  0  0  0  0  0
   37.0900   27.5900   34.8050 C   0  0  0  0  0  0  0  0  0  0  0  0
   36.0990   28.4800   34.3680 C   0  0  0  0  0  0  0  0  0  0  0  0
   36.1460   28.8360   33.0530 N   0  0  0  0  0  0  0  0  0  0  0  0
   37.1120   28.3340   32.2520 C   0  0  0  0  0  0  0  0  0  0  0  0
   38.0470   27.4760   32.7250 N   0  0  0  0  0  0  0  0  0  0  0  0
   37.1260   28.7320   30.8860 N   0  0  0  0  0  0  0  0  0  0  0  0
   37.9270   27.9710   29.9500 C   0  0  0  0  0  0  0  0  0  0  0  0
   37.8330   28.7430   28.6270 C   0  0  0  0  0  0  0  0  0  0  0  0
   38.1320   30.0880   28.7990 O   0  0  0  0  0  0  0  0  0  0  0  0
   37.2880   30.7640   29.6460 C   0  0  0  0  0  0  0  0  0  0  0  0
   36.3560   29.8740   30.4330 C   0  0  0  0  0  0  0  0  0  0  0  0
   38.5660   24.7170   34.6330 C   0  0  0  0  0  0  0  0  0  0  0  0
   39.7180   22.8270   37.6430 C   0  0  0  0  0  0  0  0  0  0  0  0
   38.8700   23.3360   38.6320 C   0  0  0  0  0  0  0  0  0  0  0  0
   37.9300   24.3060   38.2580 C   0  0  0  0  0  0  0  0  0  0  0  0
   37.8750   24.7110   36.9670 N   0  0  0  0  0  0  0  0  0  0  0  0
   38.7240   24.1860   36.0330 C   0  0  0  0  0  0  0  0  0  0  0  0
   39.6260   23.2630   36.3640 N   0  0  0  0  0  0  0  0  0  0  0  0
   39.3430   26.4592   35.5849 H   0  0  0  0  0  0  0  0  0  0  0  0
   39.9626   26.1377   33.9075 H   0  0  0  0  0  0  0  0  0  0  0  0
   37.0775   27.2852   35.8619 H   0  0  0  0  0  0  0  0  0  0  0  0
   35.3269   28.8692   35.0480 H   0  0  0  0  0  0  0  0  0  0  0  0
   38.9712   27.9147   30.2913 H   0  0  0  0  0  0  0  0  0  0  0  0
   37.5720   26.9347   29.8497 H   0  0  0  0  0  0  0  0  0  0  0  0
   36.8103   28.6521   28.2323 H   0  0  0  0  0  0  0  0  0  0  0  0
   38.5638   28.3145   27.9253 H   0  0  0  0  0  0  0  0  0  0  0  0
   37.9003   31.3372   30.3578 H   0  0  0  0  0  0  0  0  0  0  0  0
   36.6546   31.4050   29.0152 H   0  0  0  0  0  0  0  0  0  0  0  0
   35.9530   30.4224   31.2972 H   0  0  0  0  0  0  0  0  0  0  0  0
   35.5103   29.5492   29.8091 H   0  0  0  0  0  0  0  0  0  0  0  0
   37.5021   24.7031   34.3540 H   0  0  0  0  0  0  0  0  0  0  0  0
   39.1374   24.0862   33.9361 H   0  0  0  0  0  0  0  0  0  0  0  0
   40.4667   22.0654   37.9064 H   0  0  0  0  0  0  0  0  0  0  0  0
   38.9388   22.9854   39.6724 H   0  0  0  0  0  0  0  0  0  0  0  0
   37.2447   24.7335   39.0047 H   0  0  0  0  0  0  0  0  0  0  0  0
  1 14  1  0
  2  1  1  0
  2  3  2  0
  4  3  1  0
  5  4  2  0
  6  7  2  0
  6  5  1  0
  7  2  1  0
  8  6  1  0
  9  8  1  0
 10 11  1  0
 10  9  1  0
 11 12  1  0
 12 13  1  0
 13  8  1  0
 14 19  1  0
 15 16  2  0
 17 16  1  0
 18 17  2  0
 19 20  2  0
 19 18  1  0
 20 15  1  0
  1 21  1  0
  1 22  1  0
  3 23  1  0
  4 24  1  0
  9 25  1  0
  9 26  1  0
 10 27  1  0
 10 28  1  0
 12 29  1  0
 12 30  1  0
 13 31  1  0
 13 32  1  0
 14 33  1  0
 14 34  1  0
 15 35  1  0
 16 36  1  0
 17 37  1  0
M  ISO  8  21   8  22   8  23  14  24  14  25  13  26  13  27  13  28  13
M  ISO  8  29  13  30  13  31  13  32  13  33   8  34   8  35  14  36  14
M  ISO  1  37  14
M  END
>  <minimizedAffinity>  (1) 
-4.98540211

>  <minimizedRMSD>  (1) 
0.427660197

$$$$
