
     RDKit          3D

 25 27  0  0  0  0  0  0  0  0999 V2000
   38.9060   24.4820   34.6950 C   0  0  0  0  0  0  0  0  0  0  0  0
   37.9650   24.2660   38.3470 C   0  0  0  0  0  0  0  0  0  0  0  0
   37.9530   24.6580   37.0160 C   0  0  0  0  0  0  0  0  0  0  0  0
   38.8780   24.0890   36.1480 C   0  0  0  0  0  0  0  0  0  0  0  0
   39.7590   23.1680   36.6370 N   0  0  0  0  0  0  0  0  0  0  0  0
   39.7370   22.8120   37.9410 C   0  0  0  0  0  0  0  0  0  0  0  0
   38.8420   23.3650   38.7810 N   0  0  0  0  0  0  0  0  0  0  0  0
   39.9770   25.4890   34.4990 C   0  0  0  0  0  0  0  0  0  0  0  0
   39.8000   26.8350   34.4620 N   0  0  0  0  0  0  0  0  0  0  0  0
   40.9840   27.3680   34.2740 O   0  0  0  0  0  0  0  0  0  0  0  0
   41.8700   26.4160   34.1940 C   0  0  0  0  0  0  0  0  0  0  0  0
   41.2920   25.1980   34.3300 N   0  0  0  0  0  0  0  0  0  0  0  0
   43.2950   26.6550   33.9850 C   0  0  0  0  0  0  0  0  0  0  0  0
   44.3100   26.1250   34.7530 C   0  0  0  0  0  0  0  0  0  0  0  0
   45.5400   26.5510   34.2850 C   0  0  0  0  0  0  0  0  0  0  0  0
   45.2350   27.3470   33.2210 N   0  0  0  0  0  0  0  0  0  0  0  0
   43.9120   27.4030   33.0500 N   0  0  0  0  0  0  0  0  0  0  0  0
   39.1115   23.5967   34.0753 H   0  0  0  0  0  0  0  0  0  0  0  0
   37.9339   24.9044   34.4006 H   0  0  0  0  0  0  0  0  0  0  0  0
   37.2420   24.7048   39.0503 H   0  0  0  0  0  0  0  0  0  0  0  0
   37.2277   25.4024   36.6556 H   0  0  0  0  0  0  0  0  0  0  0  0
   40.4536   22.0671   38.3174 H   0  0  0  0  0  0  0  0  0  0  0  0
   44.1626   25.4582   35.6153 H   0  0  0  0  0  0  0  0  0  0  0  0
   46.5362   26.3040   34.6807 H   0  0  0  0  0  0  0  0  0  0  0  0
   45.9260   27.8351   32.6334 H   0  0  0  0  0  0  0  0  0  0  0  0
  1  4  1  0
  2  7  2  0
  3  2  1  0
  4  5  1  0
  4  3  2  0
  5  6  2  0
  6  7  1  0
  8  1  1  0
  9  8  2  0
 10  9  1  0
 11 10  1  0
 11 12  2  0
 12  8  1  0
 13 11  1  0
 13 14  1  0
 15 14  2  0
 16 15  1  0
 17 16  1  0
 17 13  2  0
  1 18  1  0
  1 19  1  0
  2 20  1  0
  3 21  1  0
  6 22  1  0
 14 23  1  0
 15 24  1  0
 16 25  1  0
M  ISO  8  18   8  19   8  20  14  21  14  22  14  23  14  24  14  25   9
M  END
>  <minimizedAffinity>  (1) 
-3.77610898

>  <minimizedRMSD>  (1) 
1.31162179

$$$$
