
     RDKit          3D

 25 27  0  0  0  0  0  0  0  0999 V2000
   38.9150   24.4700   34.6930 C   0  0  0  0  0  0  0  0  0  0  0  0
   37.9640   24.2680   38.3450 C   0  0  0  0  0  0  0  0  0  0  0  0
   37.9560   24.6570   37.0070 C   0  0  0  0  0  0  0  0  0  0  0  0
   38.8830   24.0840   36.1410 C   0  0  0  0  0  0  0  0  0  0  0  0
   39.7630   23.1640   36.6340 N   0  0  0  0  0  0  0  0  0  0  0  0
   39.7390   22.8140   37.9350 C   0  0  0  0  0  0  0  0  0  0  0  0
   38.8400   23.3700   38.7800 N   0  0  0  0  0  0  0  0  0  0  0  0
   39.9800   25.4890   34.5020 C   0  0  0  0  0  0  0  0  0  0  0  0
   39.8210   26.8320   34.5080 N   0  0  0  0  0  0  0  0  0  0  0  0
   41.0050   27.3590   34.3020 O   0  0  0  0  0  0  0  0  0  0  0  0
   41.8720   26.3980   34.1730 C   0  0  0  0  0  0  0  0  0  0  0  0
   41.2940   25.1870   34.2860 N   0  0  0  0  0  0  0  0  0  0  0  0
   43.3200   26.6210   33.9270 C   0  0  0  0  0  0  0  0  0  0  0  0
   44.3960   26.2160   34.7430 C   0  0  0  0  0  0  0  0  0  0  0  0
   45.6350   26.5350   34.3080 C   0  0  0  0  0  0  0  0  0  0  0  0
   45.8300   27.2710   33.0400 C   0  0  0  0  0  0  0  0  0  0  0  0
   43.9960   27.4610   32.5270 S   0  0  0  0  0  0  0  0  0  0  0  0
   39.1332   23.5849   34.0774 H   0  0  0  0  0  0  0  0  0  0  0  0
   37.9406   24.8807   34.3899 H   0  0  0  0  0  0  0  0  0  0  0  0
   37.2394   24.7080   39.0459 H   0  0  0  0  0  0  0  0  0  0  0  0
   37.2324   25.4012   36.6428 H   0  0  0  0  0  0  0  0  0  0  0  0
   40.4559   22.0704   38.3132 H   0  0  0  0  0  0  0  0  0  0  0  0
   44.2355   25.6693   35.6839 H   0  0  0  0  0  0  0  0  0  0  0  0
   46.5112   26.2431   34.9056 H   0  0  0  0  0  0  0  0  0  0  0  0
   46.7512   27.6076   32.5420 H   0  0  0  0  0  0  0  0  0  0  0  0
  1  4  1  0
  2  7  2  0
  3  2  1  0
  4  5  1  0
  4  3  2  0
  5  6  2  0
  6  7  1  0
  8  9  2  0
  8  1  1  0
 10  9  1  0
 11 12  2  0
 11 10  1  0
 12  8  1  0
 13 11  1  0
 13 14  2  0
 15 14  1  0
 16 15  2  0
 17 16  1  0
 17 13  1  0
  1 18  1  0
  1 19  1  0
  2 20  1  0
  3 21  1  0
  6 22  1  0
 14 23  1  0
 15 24  1  0
 16 25  1  0
M  ISO  8  18   8  19   8  20  14  21  14  22  14  23  14  24  14  25  14
M  END
>  <minimizedAffinity>  (1) 
-3.74077654

>  <minimizedRMSD>  (1) 
1.30812466

$$$$
