
     RDKit          3D

 20 21  0  0  0  0  0  0  0  0999 V2000
   38.5230   24.6490   34.7570 C   0  0  0  0  0  0  0  0  0  0  0  0
   37.9810   24.2250   38.4740 C   0  0  0  0  0  0  0  0  0  0  0  0
   37.8250   24.6800   37.1710 C   0  0  0  0  0  0  0  0  0  0  0  0
   38.6610   24.1800   36.1820 C   0  0  0  0  0  0  0  0  0  0  0  0
   39.6050   23.2620   36.5310 N   0  0  0  0  0  0  0  0  0  0  0  0
   39.7390   22.8360   37.7950 C   0  0  0  0  0  0  0  0  0  0  0  0
   38.9210   23.3250   38.7640 N   0  0  0  0  0  0  0  0  0  0  0  0
   39.7200   25.4550   34.4090 C   0  0  0  0  0  0  0  0  0  0  0  0
   40.0880   26.6240   34.9770 N   0  0  0  0  0  0  0  0  0  0  0  0
   41.1910   27.0080   34.3950 O   0  0  0  0  0  0  0  0  0  0  0  0
   41.5270   26.1280   33.4870 C   0  0  0  0  0  0  0  0  0  0  0  0
   40.6260   25.1170   33.4520 N   0  0  0  0  0  0  0  0  0  0  0  0
   42.6750   26.1370   32.5950 C   0  0  0  0  0  0  0  0  0  0  0  0
   43.8660   25.8730   32.9400 O   0  0  0  0  0  0  0  0  0  0  0  0
   38.4523   23.7805   34.0856 H   0  0  0  0  0  0  0  0  0  0  0  0
   37.6134   25.2576   34.6467 H   0  0  0  0  0  0  0  0  0  0  0  0
   37.3262   24.6088   39.2702 H   0  0  0  0  0  0  0  0  0  0  0  0
   37.0522   25.4238   36.9269 H   0  0  0  0  0  0  0  0  0  0  0  0
   40.5093   22.0924   38.0473 H   0  0  0  0  0  0  0  0  0  0  0  0
   42.4965   26.3924   31.5401 H   0  0  0  0  0  0  0  0  0  0  0  0
  1  4  1  0
  2  7  2  0
  3  2  1  0
  4  5  1  0
  4  3  2  0
  5  6  2  0
  6  7  1  0
  8  1  1  0
  8  9  2  0
 10  9  1  0
 11 10  1  0
 12 11  2  0
 12  8  1  0
 13 14  2  0
 13 11  1  0
  1 15  1  0
  1 16  1  0
  2 17  1  0
  3 18  1  0
  6 19  1  0
 13 20  1  0
M  ISO  6  15   8  16   8  17  14  18  14  19  14  20   6
M  END
>  <minimizedAffinity>  (1) 
-3.29311371

>  <minimizedRMSD>  (1) 
0.0525992773

$$$$
