
     RDKit          3D

 34 36  0  0  0  0  0  0  0  0999 V2000
   38.0190   27.2410   34.0890 C   0  0  0  0  0  0  0  0  0  0  0  0
   36.8340   27.7950   34.5000 C   0  0  0  0  0  0  0  0  0  0  0  0
   35.9670   28.5150   33.6700 C   0  0  0  0  0  0  0  0  0  0  0  0
   36.3510   28.6550   32.3830 N   0  0  0  0  0  0  0  0  0  0  0  0
   37.5250   28.1120   31.9490 C   0  0  0  0  0  0  0  0  0  0  0  0
   38.3190   27.4240   32.8150 N   0  0  0  0  0  0  0  0  0  0  0  0
   37.9610   28.2550   30.5450 C   0  0  0  0  0  0  0  0  0  0  0  0
   39.0070   27.4650   30.1180 C   0  0  0  0  0  0  0  0  0  0  0  0
   39.4670   27.5460   28.8170 C   0  0  0  0  0  0  0  0  0  0  0  0
   38.8260   28.4480   27.9950 C   0  0  0  0  0  0  0  0  0  0  0  0
   37.7820   29.2500   28.3880 C   0  0  0  0  0  0  0  0  0  0  0  0
   37.3180   29.1660   29.7050 C   0  0  0  0  0  0  0  0  0  0  0  0
   38.8480   26.4990   35.0770 C   0  0  0  0  0  0  0  0  0  0  0  0
   38.7480   25.0050   34.9050 C   0  0  0  0  0  0  0  0  0  0  0  0
   39.7410   22.8050   37.7580 C   0  0  0  0  0  0  0  0  0  0  0  0
   38.8660   23.2420   38.7580 C   0  0  0  0  0  0  0  0  0  0  0  0
   37.9570   24.2700   38.4560 C   0  0  0  0  0  0  0  0  0  0  0  0
   37.9690   24.7940   37.1980 N   0  0  0  0  0  0  0  0  0  0  0  0
   38.8350   24.3410   36.2540 C   0  0  0  0  0  0  0  0  0  0  0  0
   39.7000   23.3720   36.5260 N   0  0  0  0  0  0  0  0  0  0  0  0
   36.5452   27.6648   35.5534 H   0  0  0  0  0  0  0  0  0  0  0  0
   35.0256   28.9428   34.0451 H   0  0  0  0  0  0  0  0  0  0  0  0
   39.4805   26.7628   30.8200 H   0  0  0  0  0  0  0  0  0  0  0  0
   40.2998   26.9241   28.4570 H   0  0  0  0  0  0  0  0  0  0  0  0
   39.1737   28.5312   26.9547 H   0  0  0  0  0  0  0  0  0  0  0  0
   37.3173   29.9487   27.6767 H   0  0  0  0  0  0  0  0  0  0  0  0
   36.4849   29.7891   30.0623 H   0  0  0  0  0  0  0  0  0  0  0  0
   39.8989   26.7993   34.9526 H   0  0  0  0  0  0  0  0  0  0  0  0
   38.4740   26.7465   36.0814 H   0  0  0  0  0  0  0  0  0  0  0  0
   37.7869   24.7531   34.4329 H   0  0  0  0  0  0  0  0  0  0  0  0
   39.5716   24.6519   34.2670 H   0  0  0  0  0  0  0  0  0  0  0  0
   40.4621   22.0019   37.9703 H   0  0  0  0  0  0  0  0  0  0  0  0
   38.8891   22.7900   39.7606 H   0  0  0  0  0  0  0  0  0  0  0  0
   37.2537   24.6423   39.2155 H   0  0  0  0  0  0  0  0  0  0  0  0
  1  2  2  0
  1 13  1  0
  3  2  1  0
  4  3  2  0
  5  4  1  0
  5  6  2  0
  6  1  1  0
  7  5  1  0
  8  7  2  0
  9  8  1  0
 10 11  1  0
 10  9  2  0
 11 12  2  0
 12  7  1  0
 14 13  1  0
 14 19  1  0
 15 16  2  0
 17 16  1  0
 18 17  2  0
 19 20  2  0
 19 18  1  0
 20 15  1  0
  2 21  1  0
  3 22  1  0
  8 23  1  0
  9 24  1  0
 10 25  1  0
 11 26  1  0
 12 27  1  0
 13 28  1  0
 13 29  1  0
 14 30  1  0
 14 31  1  0
 15 32  1  0
 16 33  1  0
 17 34  1  0
M  ISO  8  21  14  22  14  23  14  24  14  25  14  26  14  27  14  28   8
M  ISO  6  29   8  30   8  31   8  32  14  33  14  34  14
M  END
>  <minimizedAffinity>  (1) 
-4.9356904

>  <minimizedRMSD>  (1) 
1.09948134

$$$$
