
     RDKit          3D

 47 50  0  0  0  0  0  0  0  0999 V2000
   39.1500   25.9530   34.9020 C   0  0  0  0  0  0  0  0  0  0  0  0
   39.8970   27.0480   34.6200 N   0  0  0  0  0  0  0  0  0  0  0  0
   41.1570   26.7140   34.7270 O   0  0  0  0  0  0  0  0  0  0  0  0
   41.2260   25.4380   35.0670 C   0  0  0  0  0  0  0  0  0  0  0  0
   39.9830   24.9050   35.1920 N   0  0  0  0  0  0  0  0  0  0  0  0
   42.5810   24.9410   35.2190 N   0  0  0  0  0  0  0  0  0  0  0  0
   43.5230   25.5060   34.2930 C   0  0  0  0  0  0  0  0  0  0  0  0
   44.7130   25.9900   35.1380 C   0  0  0  0  0  0  0  0  0  0  0  0
   45.2320   24.8560   35.7810 O   0  0  0  0  0  0  0  0  0  0  0  0
   44.3470   24.4910   36.7850 C   0  0  0  0  0  0  0  0  0  0  0  0
   43.0640   23.9750   36.1650 C   0  0  0  0  0  0  0  0  0  0  0  0
   37.6860   25.8190   34.9170 C   0  0  0  0  0  0  0  0  0  0  0  0
   36.6550   25.3460   31.3190 C   0  0  0  0  0  0  0  0  0  0  0  0
   37.1590   25.0290   32.5850 C   0  0  0  0  0  0  0  0  0  0  0  0
   37.1660   26.0500   33.5260 C   0  0  0  0  0  0  0  0  0  0  0  0
   36.6920   27.3010   33.1900 N   0  0  0  0  0  0  0  0  0  0  0  0
   36.2160   27.5420   31.9410 C   0  0  0  0  0  0  0  0  0  0  0  0
   36.2020   26.5660   31.0200 N   0  0  0  0  0  0  0  0  0  0  0  0
   35.7050   28.9010   31.5910 C   0  0  0  0  0  0  0  0  0  0  0  0
   34.9950   29.5900   32.7070 C   0  0  0  0  0  0  0  0  0  0  0  0
   35.6850   30.9180   32.9860 C   0  0  0  0  0  0  0  0  0  0  0  0
   35.7270   31.8080   31.7640 C   0  0  0  0  0  0  0  0  0  0  0  0
   36.2460   31.0640   30.5640 C   0  0  0  0  0  0  0  0  0  0  0  0
   36.8220   29.7430   31.0270 C   0  0  0  0  0  0  0  0  0  0  0  0
   43.0689   26.3505   33.7539 H   0  0  0  0  0  0  0  0  0  0  0  0
   43.8381   24.7687   33.5399 H   0  0  0  0  0  0  0  0  0  0  0  0
   45.4785   26.4441   34.4916 H   0  0  0  0  0  0  0  0  0  0  0  0
   44.3998   26.7522   35.8667 H   0  0  0  0  0  0  0  0  0  0  0  0
   44.7991   23.7012   37.4029 H   0  0  0  0  0  0  0  0  0  0  0  0
   44.1244   25.3660   37.4133 H   0  0  0  0  0  0  0  0  0  0  0  0
   42.3106   23.8201   36.9514 H   0  0  0  0  0  0  0  0  0  0  0  0
   43.2555   23.0191   35.6555 H   0  0  0  0  0  0  0  0  0  0  0  0
   37.4104   24.8081   35.2519 H   0  0  0  0  0  0  0  0  0  0  0  0
   37.2495   26.5560   35.6072 H   0  0  0  0  0  0  0  0  0  0  0  0
   36.6311   24.5649   30.5448 H   0  0  0  0  0  0  0  0  0  0  0  0
   37.5310   24.0215   32.8230 H   0  0  0  0  0  0  0  0  0  0  0  0
   34.9348   28.7610   30.8182 H   0  0  0  0  0  0  0  0  0  0  0  0
   33.9479   29.7707   32.4226 H   0  0  0  0  0  0  0  0  0  0  0  0
   35.0198   28.9608   33.6089 H   0  0  0  0  0  0  0  0  0  0  0  0
   35.1388   31.4398   33.7856 H   0  0  0  0  0  0  0  0  0  0  0  0
   36.7221   30.7037   33.2834 H   0  0  0  0  0  0  0  0  0  0  0  0
   34.7107   32.1701   31.5492 H   0  0  0  0  0  0  0  0  0  0  0  0
   36.4043   32.6498   31.9705 H   0  0  0  0  0  0  0  0  0  0  0  0
   37.0298   31.6574   30.0705 H   0  0  0  0  0  0  0  0  0  0  0  0
   35.4291   30.8878   29.8487 H   0  0  0  0  0  0  0  0  0  0  0  0
   37.2850   29.2222   30.1759 H   0  0  0  0  0  0  0  0  0  0  0  0
   37.5871   29.9168   31.7980 H   0  0  0  0  0  0  0  0  0  0  0  0
  1 12  1  0
  1  5  1  0
  2  3  1  0
  2  1  2  0
  3  4  1  0
  4  5  2  0
  4  6  1  0
  6 11  1  0
  7  8  1  0
  7  6  1  0
  8  9  1  0
  9 10  1  0
 11 10  1  0
 13 14  2  0
 14 15  1  0
 15 12  1  0
 16 15  2  0
 17 16  1  0
 18 13  1  0
 18 17  2  0
 19 17  1  0
 19 20  1  0
 20 21  1  0
 22 21  1  0
 23 24  1  0
 23 22  1  0
 24 19  1  0
  7 25  1  0
  7 26  1  0
  8 27  1  0
  8 28  1  0
 10 29  1  0
 10 30  1  0
 11 31  1  0
 11 32  1  0
 12 33  1  0
 12 34  1  0
 13 35  1  0
 14 36  1  0
 19 37  1  0
 20 38  1  0
 20 39  1  0
 21 40  1  0
 21 41  1  0
 22 42  1  0
 22 43  1  0
 23 44  1  0
 23 45  1  0
 24 46  1  0
 24 47  1  0
M  ISO  8  25  13  26  13  27  13  28  13  29  13  30  13  31  13  32  13
M  ISO  8  33   8  34   8  35  14  36  14  37  13  38  13  39  13  40  13
M  ISO  7  41  13  42  13  43  13  44  13  45  13  46  13  47  13
M  END
>  <minimizedAffinity>  (1) 
-5.00529528

>  <minimizedRMSD>  (1) 
7.46150589

$$$$
