
     RDKit          3D

 34 36  0  0  0  0  0  0  0  0999 V2000
   39.8340   25.7560   34.7410 C   0  0  0  0  0  0  0  0  0  0  0  0
   40.3340   26.9330   34.2790 N   0  0  0  0  0  0  0  0  0  0  0  0
   41.6310   26.9010   34.4160 O   0  0  0  0  0  0  0  0  0  0  0  0
   41.9700   25.7440   34.9510 C   0  0  0  0  0  0  0  0  0  0  0  0
   40.8730   24.9870   35.1740 N   0  0  0  0  0  0  0  0  0  0  0  0
   43.4000   25.5910   35.1550 N   0  0  0  0  0  0  0  0  0  0  0  0
   44.2050   26.1810   34.1060 C   0  0  0  0  0  0  0  0  0  0  0  0
   45.2560   27.0360   34.8320 C   0  0  0  0  0  0  0  0  0  0  0  0
   46.0030   26.1420   35.6170 O   0  0  0  0  0  0  0  0  0  0  0  0
   45.2070   25.7970   36.7080 C   0  0  0  0  0  0  0  0  0  0  0  0
   44.0720   24.9360   36.2480 C   0  0  0  0  0  0  0  0  0  0  0  0
   38.4390   25.2860   34.8110 C   0  0  0  0  0  0  0  0  0  0  0  0
   36.3090   28.3490   34.1950 C   0  0  0  0  0  0  0  0  0  0  0  0
   37.1290   27.4430   34.8720 C   0  0  0  0  0  0  0  0  0  0  0  0
   37.5620   26.3140   34.1850 C   0  0  0  0  0  0  0  0  0  0  0  0
   37.1610   26.1420   32.8660 N   0  0  0  0  0  0  0  0  0  0  0  0
   36.3690   27.0480   32.2650 C   0  0  0  0  0  0  0  0  0  0  0  0
   35.9420   28.1520   32.9260 N   0  0  0  0  0  0  0  0  0  0  0  0
   35.9830   26.8100   30.8780 C   0  0  0  0  0  0  0  0  0  0  0  0
   35.2700   25.7930   30.6790 O   0  0  0  0  0  0  0  0  0  0  0  0
   36.3700   27.6420   29.8450 O   0  0  0  0  0  0  0  0  0  0  0  0
   43.5835   26.8090   33.4507 H   0  0  0  0  0  0  0  0  0  0  0  0
   44.6698   25.4158   33.4669 H   0  0  0  0  0  0  0  0  0  0  0  0
   45.9070   27.5421   34.1039 H   0  0  0  0  0  0  0  0  0  0  0  0
   44.7864   27.8182   35.4464 H   0  0  0  0  0  0  0  0  0  0  0  0
   45.8116   25.2445   37.4423 H   0  0  0  0  0  0  0  0  0  0  0  0
   44.8079   26.7105   37.1730 H   0  0  0  0  0  0  0  0  0  0  0  0
   43.3654   24.7832   37.0771 H   0  0  0  0  0  0  0  0  0  0  0  0
   44.4562   23.9599   35.9169 H   0  0  0  0  0  0  0  0  0  0  0  0
   38.3405   24.3341   34.2686 H   0  0  0  0  0  0  0  0  0  0  0  0
   38.1464   25.1290   35.8597 H   0  0  0  0  0  0  0  0  0  0  0  0
   35.9563   29.2484   34.7210 H   0  0  0  0  0  0  0  0  0  0  0  0
   37.4234   27.6174   35.9174 H   0  0  0  0  0  0  0  0  0  0  0  0
   36.0861   27.4444   28.9174 H   0  0  0  0  0  0  0  0  0  0  0  0
  1 12  1  0
  1  5  1  0
  2  3  1  0
  2  1  2  0
  3  4  1  0
  4  6  1  0
  4  5  2  0
  6 11  1  0
  7  8  1  0
  7  6  1  0
  8  9  1  0
  9 10  1  0
 11 10  1  0
 13 14  2  0
 15 12  1  0
 15 14  1  0
 16 15  2  0
 17 16  1  0
 17 18  2  0
 18 13  1  0
 19 17  1  0
 20 19  2  0
 21 19  1  0
  7 22  1  0
  7 23  1  0
  8 24  1  0
  8 25  1  0
 10 26  1  0
 10 27  1  0
 11 28  1  0
 11 29  1  0
 12 30  1  0
 12 31  1  0
 13 32  1  0
 14 33  1  0
 21 34  1  0
M  ISO  8  22  13  23  13  24  13  25  13  26  13  27  13  28  13  29  13
M  ISO  5  30   8  31   8  32  14  33  14  34   3
M  END
>  <minimizedAffinity>  (1) 
-4.93216658

>  <minimizedRMSD>  (1) 
5.26876593

$$$$
