
     RDKit          3D

 46 49  0  0  0  0  0  0  0  0999 V2000
   39.6930   26.6930   34.5350 C   0  0  0  0  0  0  0  0  0  0  0  0
   39.8360   27.3250   33.3420 N   0  0  0  0  0  0  0  0  0  0  0  0
   41.1150   27.3010   33.0430 O   0  0  0  0  0  0  0  0  0  0  0  0
   41.7720   26.6810   34.0000 C   0  0  0  0  0  0  0  0  0  0  0  0
   40.9110   26.2790   34.9650 N   0  0  0  0  0  0  0  0  0  0  0  0
   43.2030   26.5950   33.7720 N   0  0  0  0  0  0  0  0  0  0  0  0
   43.5610   26.4020   32.3790 C   0  0  0  0  0  0  0  0  0  0  0  0
   44.6350   27.4600   32.0820 C   0  0  0  0  0  0  0  0  0  0  0  0
   45.7110   27.1970   32.9600 O   0  0  0  0  0  0  0  0  0  0  0  0
   45.3350   27.5980   34.2240 C   0  0  0  0  0  0  0  0  0  0  0  0
   44.2570   26.6790   34.7490 C   0  0  0  0  0  0  0  0  0  0  0  0
   38.4520   26.4530   35.3060 C   0  0  0  0  0  0  0  0  0  0  0  0
   38.1940   22.9950   36.8380 C   0  0  0  0  0  0  0  0  0  0  0  0
   38.3520   24.3790   36.7540 C   0  0  0  0  0  0  0  0  0  0  0  0
   38.2930   24.9780   35.4890 C   0  0  0  0  0  0  0  0  0  0  0  0
   38.0820   24.1870   34.3670 N   0  0  0  0  0  0  0  0  0  0  0  0
   37.9380   22.8520   34.5290 C   0  0  0  0  0  0  0  0  0  0  0  0
   37.9900   22.2590   35.7260 N   0  0  0  0  0  0  0  0  0  0  0  0
   37.7220   22.0680   33.3640 N   0  0  0  0  0  0  0  0  0  0  0  0
   38.7750   21.2450   32.8010 C   0  0  0  0  0  0  0  0  0  0  0  0
   39.1390   21.8890   31.4590 C   0  0  0  0  0  0  0  0  0  0  0  0
   37.9430   22.5370   30.8170 C   0  0  0  0  0  0  0  0  0  0  0  0
   36.6540   21.8340   31.1900 C   0  0  0  0  0  0  0  0  0  0  0  0
   36.4460   22.0500   32.6770 C   0  0  0  0  0  0  0  0  0  0  0  0
   43.9637   25.3905   32.2219 H   0  0  0  0  0  0  0  0  0  0  0  0
   42.6901   26.5063   31.7151 H   0  0  0  0  0  0  0  0  0  0  0  0
   44.9689   27.3796   31.0370 H   0  0  0  0  0  0  0  0  0  0  0  0
   44.2423   28.4772   32.2275 H   0  0  0  0  0  0  0  0  0  0  0  0
   46.2064   27.5600   34.8942 H   0  0  0  0  0  0  0  0  0  0  0  0
   44.9478   28.6267   34.1802 H   0  0  0  0  0  0  0  0  0  0  0  0
   43.8562   27.0798   35.6917 H   0  0  0  0  0  0  0  0  0  0  0  0
   44.6758   25.6788   34.9340 H   0  0  0  0  0  0  0  0  0  0  0  0
   38.5227   26.9444   36.2876 H   0  0  0  0  0  0  0  0  0  0  0  0
   37.5852   26.8645   34.7681 H   0  0  0  0  0  0  0  0  0  0  0  0
   38.2362   22.5000   37.8194 H   0  0  0  0  0  0  0  0  0  0  0  0
   38.5185   24.9838   37.6576 H   0  0  0  0  0  0  0  0  0  0  0  0
   39.6490   21.2321   33.4688 H   0  0  0  0  0  0  0  0  0  0  0  0
   38.4482   20.2025   32.6733 H   0  0  0  0  0  0  0  0  0  0  0  0
   39.9124   22.6529   31.6271 H   0  0  0  0  0  0  0  0  0  0  0  0
   39.5075   21.1007   30.7862 H   0  0  0  0  0  0  0  0  0  0  0  0
   38.0636   22.5032   29.7242 H   0  0  0  0  0  0  0  0  0  0  0  0
   37.8826   23.5749   31.1763 H   0  0  0  0  0  0  0  0  0  0  0  0
   35.8130   22.2619   30.6247 H   0  0  0  0  0  0  0  0  0  0  0  0
   36.7088   20.7613   30.9528 H   0  0  0  0  0  0  0  0  0  0  0  0
   35.9340   23.0105   32.8364 H   0  0  0  0  0  0  0  0  0  0  0  0
   35.8349   21.2274   33.0769 H   0  0  0  0  0  0  0  0  0  0  0  0
  1  5  1  0
  1 12  1  0
  2  1  2  0
  3  2  1  0
  3  4  1  0
  4  5  2  0
  6  4  1  0
  6 11  1  0
  7  6  1  0
  8  7  1  0
  8  9  1  0
  9 10  1  0
 10 11  1  0
 12 15  1  0
 14 13  2  0
 15 14  1  0
 16 17  1  0
 16 15  2  0
 17 18  2  0
 18 13  1  0
 19 17  1  0
 20 19  1  0
 21 20  1  0
 22 23  1  0
 22 21  1  0
 23 24  1  0
 24 19  1  0
  7 25  1  0
  7 26  1  0
  8 27  1  0
  8 28  1  0
 10 29  1  0
 10 30  1  0
 11 31  1  0
 11 32  1  0
 12 33  1  0
 12 34  1  0
 13 35  1  0
 14 36  1  0
 20 37  1  0
 20 38  1  0
 21 39  1  0
 21 40  1  0
 22 41  1  0
 22 42  1  0
 23 43  1  0
 23 44  1  0
 24 45  1  0
 24 46  1  0
M  ISO  8  25  13  26  13  27  13  28  13  29  13  30  13  31  13  32  13
M  ISO  8  33   8  34   8  35  14  36  14  37  13  38  13  39  13  40  13
M  ISO  6  41  13  42  13  43  13  44  13  45  13  46  13
M  END
>  <minimizedAffinity>  (1) 
-4.79677248

>  <minimizedRMSD>  (1) 
4.1478157

$$$$
