
     RDKit          3D

 40 42  0  0  0  0  0  0  0  0999 V2000
   40.2840   26.3340   34.4770 C   0  0  0  0  0  0  0  0  0  0  0  0
   40.7930   27.4180   33.8260 N   0  0  0  0  0  0  0  0  0  0  0  0
   42.1000   27.3180   33.8710 O   0  0  0  0  0  0  0  0  0  0  0  0
   42.4250   26.2160   34.5240 C   0  0  0  0  0  0  0  0  0  0  0  0
   41.3150   25.5560   34.9290 N   0  0  0  0  0  0  0  0  0  0  0  0
   43.8580   26.0020   34.6340 N   0  0  0  0  0  0  0  0  0  0  0  0
   44.6000   26.3960   33.4670 C   0  0  0  0  0  0  0  0  0  0  0  0
   45.7420   27.2910   33.9830 C   0  0  0  0  0  0  0  0  0  0  0  0
   46.5110   26.4700   34.8340 O   0  0  0  0  0  0  0  0  0  0  0  0
   45.7930   26.3130   36.0140 C   0  0  0  0  0  0  0  0  0  0  0  0
   44.5820   25.4590   35.7510 C   0  0  0  0  0  0  0  0  0  0  0  0
   38.8690   25.9600   34.7170 C   0  0  0  0  0  0  0  0  0  0  0  0
   38.0680   24.2020   37.9710 C   0  0  0  0  0  0  0  0  0  0  0  0
   38.0410   25.1770   36.9750 C   0  0  0  0  0  0  0  0  0  0  0  0
   38.8250   24.9750   35.8440 C   0  0  0  0  0  0  0  0  0  0  0  0
   39.5960   23.8250   35.7460 N   0  0  0  0  0  0  0  0  0  0  0  0
   39.5740   22.9210   36.7500 C   0  0  0  0  0  0  0  0  0  0  0  0
   38.8200   23.1060   37.8500 N   0  0  0  0  0  0  0  0  0  0  0  0
   40.4450   21.7360   36.5180 C   0  0  0  0  0  0  0  0  0  0  0  0
   41.0850   21.9000   35.1550 C   0  0  0  0  0  0  0  0  0  0  0  0
   41.4670   21.5710   37.6230 C   0  0  0  0  0  0  0  0  0  0  0  0
   43.9558   26.9572   32.7741 H   0  0  0  0  0  0  0  0  0  0  0  0
   44.9838   25.5247   32.9161 H   0  0  0  0  0  0  0  0  0  0  0  0
   46.3538   27.6548   33.1444 H   0  0  0  0  0  0  0  0  0  0  0  0
   45.3588   28.1777   34.5093 H   0  0  0  0  0  0  0  0  0  0  0  0
   46.4285   25.8265   36.7686 H   0  0  0  0  0  0  0  0  0  0  0  0
   45.4748   27.2985   36.3850 H   0  0  0  0  0  0  0  0  0  0  0  0
   43.9355   25.4522   36.6410 H   0  0  0  0  0  0  0  0  0  0  0  0
   44.8963   24.4295   35.5242 H   0  0  0  0  0  0  0  0  0  0  0  0
   38.2881   26.8554   34.9833 H   0  0  0  0  0  0  0  0  0  0  0  0
   38.4365   25.5148   33.8088 H   0  0  0  0  0  0  0  0  0  0  0  0
   37.4569   24.3388   38.8753 H   0  0  0  0  0  0  0  0  0  0  0  0
   37.4190   26.0781   37.0803 H   0  0  0  0  0  0  0  0  0  0  0  0
   39.8492   20.8115   36.5346 H   0  0  0  0  0  0  0  0  0  0  0  0
   42.1440   22.1714   35.2774 H   0  0  0  0  0  0  0  0  0  0  0  0
   41.0109   20.9538   34.5989 H   0  0  0  0  0  0  0  0  0  0  0  0
   40.5650   22.6939   34.5989 H   0  0  0  0  0  0  0  0  0  0  0  0
   40.9673   21.6517   38.5996 H   0  0  0  0  0  0  0  0  0  0  0  0
   41.9449   20.5841   37.5361 H   0  0  0  0  0  0  0  0  0  0  0  0
   42.2312   22.3574   37.5361 H   0  0  0  0  0  0  0  0  0  0  0  0
  1 12  1  0
  1  5  1  0
  2  3  1  0
  2  1  2  0
  3  4  1  0
  4  6  1  0
  4  5  2  0
  6 11  1  0
  7  8  1  0
  7  6  1  0
  8  9  1  0
  9 10  1  0
 11 10  1  0
 12 15  1  0
 14 13  2  0
 15 14  1  0
 16 15  2  0
 16 17  1  0
 17 18  2  0
 18 13  1  0
 19 17  1  0
 19 21  1  0
 20 19  1  0
  7 22  1  0
  7 23  1  0
  8 24  1  0
  8 25  1  0
 10 26  1  0
 10 27  1  0
 11 28  1  0
 11 29  1  0
 12 30  1  0
 12 31  1  0
 13 32  1  0
 14 33  1  0
 19 34  1  0
 20 35  1  0
 20 36  1  0
 20 37  1  0
 21 38  1  0
 21 39  1  0
 21 40  1  0
M  ISO  8  22  13  23  13  24  13  25  13  26  13  27  13  28  13  29  13
M  ISO  8  30   8  31   8  32  14  33  14  34   8  35   8  36   8  37   8
M  ISO  3  38   8  39   8  40   8
M  END
>  <minimizedAffinity>  (1) 
-4.46623993

>  <minimizedRMSD>  (1) 
1.02455521

$$$$
