
     RDKit          3D

 49 53  0  0  0  0  0  0  0  0999 V2000
   40.7000   24.2890   33.6210 C   0  0  0  0  0  0  0  0  0  0  0  0
   41.9680   24.7860   34.1840 C   0  0  0  0  0  0  0  0  0  0  0  0
   42.2510   26.0010   34.7200 N   0  0  0  0  0  0  0  0  0  0  0  0
   43.5070   25.9790   35.0850 O   0  0  0  0  0  0  0  0  0  0  0  0
   44.0220   24.7840   34.7960 C   0  0  0  0  0  0  0  0  0  0  0  0
   43.0910   24.0030   34.2280 N   0  0  0  0  0  0  0  0  0  0  0  0
   45.4140   24.6580   35.1640 N   0  0  0  0  0  0  0  0  0  0  0  0
   46.1950   25.8460   34.9730 C   0  0  0  0  0  0  0  0  0  0  0  0
   46.9400   26.0790   36.2970 C   0  0  0  0  0  0  0  0  0  0  0  0
   47.7570   24.9590   36.5020 O   0  0  0  0  0  0  0  0  0  0  0  0
   46.9420   23.8910   36.8620 C   0  0  0  0  0  0  0  0  0  0  0  0
   46.0850   23.4990   35.6880 C   0  0  0  0  0  0  0  0  0  0  0  0
   37.8020   23.1660   35.7900 C   0  0  0  0  0  0  0  0  0  0  0  0
   38.4940   23.7390   34.7190 C   0  0  0  0  0  0  0  0  0  0  0  0
   39.8790   23.6940   34.7360 C   0  0  0  0  0  0  0  0  0  0  0  0
   40.5220   23.0960   35.7880 N   0  0  0  0  0  0  0  0  0  0  0  0
   39.8130   22.5530   36.8030 C   0  0  0  0  0  0  0  0  0  0  0  0
   38.4670   22.5930   36.7950 N   0  0  0  0  0  0  0  0  0  0  0  0
   40.4000   21.9170   37.9260 N   0  0  0  0  0  0  0  0  0  0  0  0
   37.8750   24.3960   33.5600 C   0  0  0  0  0  0  0  0  0  0  0  0
   37.7730   23.6190   32.4140 C   0  0  0  0  0  0  0  0  0  0  0  0
   37.1910   24.1950   31.2820 C   0  0  0  0  0  0  0  0  0  0  0  0
   36.7330   25.5090   31.3120 C   0  0  0  0  0  0  0  0  0  0  0  0
   36.8580   26.2470   32.4850 C   0  0  0  0  0  0  0  0  0  0  0  0
   36.4050   27.5530   32.5190 C   0  0  0  0  0  0  0  0  0  0  0  0
   36.5420   28.2620   33.6970 C   0  0  0  0  0  0  0  0  0  0  0  0
   37.1190   27.6820   34.8130 C   0  0  0  0  0  0  0  0  0  0  0  0
   37.5820   26.3820   34.8110 C   0  0  0  0  0  0  0  0  0  0  0  0
   37.4280   25.7040   33.6210 C   0  0  0  0  0  0  0  0  0  0  0  0
   40.1488   25.1209   33.1582 H   0  0  0  0  0  0  0  0  0  0  0  0
   40.9026   23.5258   32.8551 H   0  0  0  0  0  0  0  0  0  0  0  0
   46.9117   25.7044   34.1507 H   0  0  0  0  0  0  0  0  0  0  0  0
   45.5626   26.7065   34.7091 H   0  0  0  0  0  0  0  0  0  0  0  0
   47.5541   26.9893   36.2313 H   0  0  0  0  0  0  0  0  0  0  0  0
   46.2341   26.2116   37.1301 H   0  0  0  0  0  0  0  0  0  0  0  0
   47.5671   23.0369   37.1617 H   0  0  0  0  0  0  0  0  0  0  0  0
   46.2991   24.1866   37.7042 H   0  0  0  0  0  0  0  0  0  0  0  0
   45.3374   22.7602   36.0125 H   0  0  0  0  0  0  0  0  0  0  0  0
   46.7217   23.0634   34.9039 H   0  0  0  0  0  0  0  0  0  0  0  0
   36.7023   23.1876   35.8044 H   0  0  0  0  0  0  0  0  0  0  0  0
   39.8015   21.5232   38.6660 H   0  0  0  0  0  0  0  0  0  0  0  0
   41.4249   21.8488   38.0018 H   0  0  0  0  0  0  0  0  0  0  0  0
   38.1391   22.5818   32.3978 H   0  0  0  0  0  0  0  0  0  0  0  0
   37.0939   23.6048   30.3588 H   0  0  0  0  0  0  0  0  0  0  0  0
   36.2771   25.9593   30.4179 H   0  0  0  0  0  0  0  0  0  0  0  0
   35.9477   28.0152   31.6318 H   0  0  0  0  0  0  0  0  0  0  0  0
   36.1874   29.3020   33.7484 H   0  0  0  0  0  0  0  0  0  0  0  0
   37.2118   28.2775   35.7332 H   0  0  0  0  0  0  0  0  0  0  0  0
   38.0416   25.9194   35.6969 H   0  0  0  0  0  0  0  0  0  0  0  0
  1  2  1  0
  1 15  1  0
  2  6  1  0
  2  3  2  0
  3  4  1  0
  5  4  1  0
  5  7  1  0
  6  5  2  0
  7 12  1  0
  8  7  1  0
  8  9  1  0
  9 10  1  0
 10 11  1  0
 12 11  1  0
 13 18  2  0
 14 15  2  0
 14 13  1  0
 15 16  1  0
 16 17  2  0
 17 19  1  0
 18 17  1  0
 20 29  1  0
 20 14  1  0
 21 20  2  0
 22 23  2  0
 22 21  1  0
 23 24  1  0
 24 25  1  0
 24 29  2  0
 25 26  2  0
 26 27  1  0
 28 27  2  0
 29 28  1  0
  1 30  1  0
  1 31  1  0
  8 32  1  0
  8 33  1  0
  9 34  1  0
  9 35  1  0
 11 36  1  0
 11 37  1  0
 12 38  1  0
 12 39  1  0
 13 40  1  0
 19 41  1  0
 19 42  1  0
 21 43  1  0
 22 44  1  0
 23 45  1  0
 25 46  1  0
 26 47  1  0
 27 48  1  0
 28 49  1  0
M  ISO  8  30   8  31   8  32  13  33  13  34  13  35  13  36  13  37  13
M  ISO  8  38  13  39  13  40  14  43  14  44  14  45  14  46  14  47  14
M  ISO  2  48  14  49  14
M  END
>  <minimizedAffinity>  (1) 
-6.06120253

>  <minimizedRMSD>  (1) 
2.97004747

$$$$
