
     RDKit          3D

 44 47  0  0  0  0  0  0  0  0999 V2000
   40.7640   23.2020   34.7430 C   0  0  0  0  0  0  0  0  0  0  0  0
   42.0980   23.7750   35.0620 C   0  0  0  0  0  0  0  0  0  0  0  0
   43.0120   24.3320   34.2300 N   0  0  0  0  0  0  0  0  0  0  0  0
   44.0250   24.6900   34.9640 O   0  0  0  0  0  0  0  0  0  0  0  0
   43.7760   24.3770   36.2210 C   0  0  0  0  0  0  0  0  0  0  0  0
   42.5670   23.7930   36.3470 N   0  0  0  0  0  0  0  0  0  0  0  0
   44.8460   24.7350   37.1270 N   0  0  0  0  0  0  0  0  0  0  0  0
   46.1690   24.5560   36.5840 C   0  0  0  0  0  0  0  0  0  0  0  0
   46.9130   25.8860   36.8510 C   0  0  0  0  0  0  0  0  0  0  0  0
   46.9510   26.0240   38.2500 O   0  0  0  0  0  0  0  0  0  0  0  0
   45.6710   26.4080   38.6420 C   0  0  0  0  0  0  0  0  0  0  0  0
   44.7370   25.2380   38.4800 C   0  0  0  0  0  0  0  0  0  0  0  0
   38.1460   25.2030   36.6220 C   0  0  0  0  0  0  0  0  0  0  0  0
   39.0350   24.8500   35.6040 C   0  0  0  0  0  0  0  0  0  0  0  0
   39.7780   23.6820   35.7690 C   0  0  0  0  0  0  0  0  0  0  0  0
   39.6170   22.9280   36.9110 N   0  0  0  0  0  0  0  0  0  0  0  0
   38.7390   23.3240   37.8610 C   0  0  0  0  0  0  0  0  0  0  0  0
   38.0090   24.4580   37.7120 N   0  0  0  0  0  0  0  0  0  0  0  0
   38.5060   22.6150   39.0640 N   0  0  0  0  0  0  0  0  0  0  0  0
   39.2690   25.5620   34.3930 N   0  0  0  0  0  0  0  0  0  0  0  0
   40.1880   26.5440   34.4330 C   0  0  0  0  0  0  0  0  0  0  0  0
   40.4310   27.2480   33.2710 C   0  0  0  0  0  0  0  0  0  0  0  0
   39.7190   26.9030   32.1460 C   0  0  0  0  0  0  0  0  0  0  0  0
   39.9900   27.6430   30.9700 N   0  0  0  0  0  0  0  0  0  0  0  0
   38.8150   25.9090   32.1850 N   0  0  0  0  0  0  0  0  0  0  0  0
   38.5600   25.2060   33.3070 C   0  0  0  0  0  0  0  0  0  0  0  0
   37.7130   24.2990   33.2760 O   0  0  0  0  0  0  0  0  0  0  0  0
   40.4483   23.5328   33.7426 H   0  0  0  0  0  0  0  0  0  0  0  0
   40.8144   22.1032   34.7558 H   0  0  0  0  0  0  0  0  0  0  0  0
   46.1166   24.3558   35.5037 H   0  0  0  0  0  0  0  0  0  0  0  0
   46.6856   23.7014   37.0453 H   0  0  0  0  0  0  0  0  0  0  0  0
   47.9331   25.8442   36.4415 H   0  0  0  0  0  0  0  0  0  0  0  0
   46.4085   26.7379   36.3716 H   0  0  0  0  0  0  0  0  0  0  0  0
   45.6872   26.7239   39.6955 H   0  0  0  0  0  0  0  0  0  0  0  0
   45.3275   27.2468   38.0188 H   0  0  0  0  0  0  0  0  0  0  0  0
   43.7032   25.5615   38.6716 H   0  0  0  0  0  0  0  0  0  0  0  0
   45.0044   24.4458   39.1948 H   0  0  0  0  0  0  0  0  0  0  0  0
   37.5459   26.1190   36.5180 H   0  0  0  0  0  0  0  0  0  0  0  0
   37.8227   22.9710   39.7475 H   0  0  0  0  0  0  0  0  0  0  0  0
   39.0198   21.7431   39.2557 H   0  0  0  0  0  0  0  0  0  0  0  0
   40.7283   26.7782   35.3621 H   0  0  0  0  0  0  0  0  0  0  0  0
   41.1719   28.0606   33.2454 H   0  0  0  0  0  0  0  0  0  0  0  0
   40.6916   28.3969   30.9861 H   0  0  0  0  0  0  0  0  0  0  0  0
   39.4855   27.4275   30.0982 H   0  0  0  0  0  0  0  0  0  0  0  0
  1  2  1  0
  1 15  1  0
  2  6  1  0
  3  4  1  0
  3  2  2  0
  4  5  1  0
  5  6  2  0
  5  7  1  0
  7 12  1  0
  8  9  1  0
  8  7  1  0
  9 10  1  0
 10 11  1  0
 12 11  1  0
 13 18  2  0
 14 15  2  0
 14 13  1  0
 15 16  1  0
 16 17  2  0
 17 19  1  0
 18 17  1  0
 20 21  1  0
 20 14  1  0
 22 21  2  0
 23 25  2  0
 23 22  1  0
 24 23  1  0
 25 26  1  0
 26 20  1  0
 27 26  2  0
  1 28  1  0
  1 29  1  0
  8 30  1  0
  8 31  1  0
  9 32  1  0
  9 33  1  0
 11 34  1  0
 11 35  1  0
 12 36  1  0
 12 37  1  0
 13 38  1  0
 19 39  1  0
 19 40  1  0
 21 41  1  0
 22 42  1  0
 24 43  1  0
 24 44  1  0
M  ISO  8  28   8  29   8  30  13  31  13  32  13  33  13  34  13  35  13
M  ISO  5  36  13  37  13  38  14  41  14  42  14
M  END
>  <minimizedAffinity>  (1) 
-5.70835161

>  <minimizedRMSD>  (1) 
3.42920637

$$$$
