
     RDKit          3D

 43 46  0  0  0  0  0  0  0  0999 V2000
   40.0980   24.4260   33.6900 C   0  0  0  0  0  0  0  0  0  0  0  0
   41.2310   25.3790   33.8130 C   0  0  0  0  0  0  0  0  0  0  0  0
   41.2690   26.7360   33.9100 N   0  0  0  0  0  0  0  0  0  0  0  0
   42.5160   27.0870   33.9920 O   0  0  0  0  0  0  0  0  0  0  0  0
   43.2760   26.0160   33.9520 C   0  0  0  0  0  0  0  0  0  0  0  0
   42.5240   24.9020   33.8400 N   0  0  0  0  0  0  0  0  0  0  0  0
   44.6920   26.2980   34.0390 N   0  0  0  0  0  0  0  0  0  0  0  0
   45.0950   27.4990   33.3510 C   0  0  0  0  0  0  0  0  0  0  0  0
   45.9310   28.3020   34.3650 C   0  0  0  0  0  0  0  0  0  0  0  0
   47.0350   27.4990   34.6680 O   0  0  0  0  0  0  0  0  0  0  0  0
   46.5820   26.4780   35.5010 C   0  0  0  0  0  0  0  0  0  0  0  0
   45.7200   25.5440   34.7080 C   0  0  0  0  0  0  0  0  0  0  0  0
   37.8180   24.6640   36.7190 C   0  0  0  0  0  0  0  0  0  0  0  0
   38.3270   24.9230   35.4360 C   0  0  0  0  0  0  0  0  0  0  0  0
   39.4680   24.2520   35.0260 C   0  0  0  0  0  0  0  0  0  0  0  0
   40.0730   23.3520   35.8840 N   0  0  0  0  0  0  0  0  0  0  0  0
   39.5360   23.1400   37.1240 C   0  0  0  0  0  0  0  0  0  0  0  0
   38.4160   23.7940   37.5300 N   0  0  0  0  0  0  0  0  0  0  0  0
   40.0920   22.2370   38.0680 N   0  0  0  0  0  0  0  0  0  0  0  0
   37.6640   25.8920   34.5750 C   0  0  0  0  0  0  0  0  0  0  0  0
   37.5100   27.0950   35.2630 C   0  0  0  0  0  0  0  0  0  0  0  0
   36.9060   28.2020   34.6540 C   0  0  0  0  0  0  0  0  0  0  0  0
   36.4530   28.1080   33.3540 C   0  0  0  0  0  0  0  0  0  0  0  0
   36.6140   26.9110   32.6900 C   0  0  0  0  0  0  0  0  0  0  0  0
   37.2070   25.8150   33.2780 C   0  0  0  0  0  0  0  0  0  0  0  0
   39.3567   24.8232   32.9810 H   0  0  0  0  0  0  0  0  0  0  0  0
   40.4646   23.4565   33.3216 H   0  0  0  0  0  0  0  0  0  0  0  0
   45.7006   27.2495   32.4673 H   0  0  0  0  0  0  0  0  0  0  0  0
   44.2266   28.0736   32.9965 H   0  0  0  0  0  0  0  0  0  0  0  0
   46.2595   29.2539   33.9224 H   0  0  0  0  0  0  0  0  0  0  0  0
   45.3492   28.5477   35.2656 H   0  0  0  0  0  0  0  0  0  0  0  0
   47.4420   25.9276   35.9101 H   0  0  0  0  0  0  0  0  0  0  0  0
   45.9990   26.9069   36.3293 H   0  0  0  0  0  0  0  0  0  0  0  0
   45.2566   24.8093   35.3828 H   0  0  0  0  0  0  0  0  0  0  0  0
   46.3349   25.0177   33.9631 H   0  0  0  0  0  0  0  0  0  0  0  0
   36.9122   25.1875   37.0587 H   0  0  0  0  0  0  0  0  0  0  0  0
   39.6465   22.1155   38.9887 H   0  0  0  0  0  0  0  0  0  0  0  0
   40.9408   21.7034   37.8321 H   0  0  0  0  0  0  0  0  0  0  0  0
   37.8684   27.1757   36.2998 H   0  0  0  0  0  0  0  0  0  0  0  0
   36.7930   29.1441   35.2105 H   0  0  0  0  0  0  0  0  0  0  0  0
   35.9753   28.9669   32.8600 H   0  0  0  0  0  0  0  0  0  0  0  0
   36.2562   26.8276   31.6532 H   0  0  0  0  0  0  0  0  0  0  0  0
   37.3154   24.8784   32.7114 H   0  0  0  0  0  0  0  0  0  0  0  0
  1  2  1  0
  1 15  1  0
  2  6  1  0
  2  3  2  0
  3  4  1  0
  5  4  1  0
  5  7  1  0
  6  5  2  0
  7 12  1  0
  8  7  1  0
  8  9  1  0
  9 10  1  0
 10 11  1  0
 12 11  1  0
 13 18  2  0
 14 13  1  0
 15 14  2  0
 15 16  1  0
 16 17  2  0
 17 18  1  0
 17 19  1  0
 20 21  2  0
 20 14  1  0
 22 21  1  0
 23 22  2  0
 24 25  2  0
 24 23  1  0
 25 20  1  0
  1 26  1  0
  1 27  1  0
  8 28  1  0
  8 29  1  0
  9 30  1  0
  9 31  1  0
 11 32  1  0
 11 33  1  0
 12 34  1  0
 12 35  1  0
 13 36  1  0
 19 37  1  0
 19 38  1  0
 21 39  1  0
 22 40  1  0
 23 41  1  0
 24 42  1  0
 25 43  1  0
M  ISO  8  26   8  27   8  28  13  29  13  30  13  31  13  32  13  33  13
M  ISO  8  34  13  35  13  36  14  39  14  40  14  41  14  42  14  43  14
M  END
>  <minimizedAffinity>  (1) 
-5.63315344

>  <minimizedRMSD>  (1) 
1.65221477

$$$$
