
     RDKit          3D

 36 38  0  0  0  0  0  0  0  0999 V2000
   40.8530   25.5220   34.1310 C   0  0  0  0  0  0  0  0  0  0  0  0
   40.9620   26.8830   34.1050 N   0  0  0  0  0  0  0  0  0  0  0  0
   42.2420   27.1570   34.1440 O   0  0  0  0  0  0  0  0  0  0  0  0
   42.9240   26.0320   34.1920 C   0  0  0  0  0  0  0  0  0  0  0  0
   42.0980   24.9640   34.1860 N   0  0  0  0  0  0  0  0  0  0  0  0
   44.3550   26.2240   34.2380 N   0  0  0  0  0  0  0  0  0  0  0  0
   44.8280   27.3300   33.4310 C   0  0  0  0  0  0  0  0  0  0  0  0
   45.7360   28.1500   34.3660 C   0  0  0  0  0  0  0  0  0  0  0  0
   46.7850   27.3070   34.7450 O   0  0  0  0  0  0  0  0  0  0  0  0
   46.2680   26.4040   35.6710 C   0  0  0  0  0  0  0  0  0  0  0  0
   45.3320   25.4570   34.9770 C   0  0  0  0  0  0  0  0  0  0  0  0
   39.6160   24.6850   34.1060 C   0  0  0  0  0  0  0  0  0  0  0  0
   38.1250   24.3740   37.5630 C   0  0  0  0  0  0  0  0  0  0  0  0
   38.3320   24.8520   36.2650 C   0  0  0  0  0  0  0  0  0  0  0  0
   39.3210   24.2460   35.5010 C   0  0  0  0  0  0  0  0  0  0  0  0
   40.0530   23.2150   36.0330 N   0  0  0  0  0  0  0  0  0  0  0  0
   39.8090   22.7890   37.3090 C   0  0  0  0  0  0  0  0  0  0  0  0
   38.8480   23.3750   38.0540 N   0  0  0  0  0  0  0  0  0  0  0  0
   40.5060   21.7390   37.9460 N   0  0  0  0  0  0  0  0  0  0  0  0
   37.5270   25.9780   35.6930 C   0  0  0  0  0  0  0  0  0  0  0  0
   45.3979   26.9606   32.5657 H   0  0  0  0  0  0  0  0  0  0  0  0
   43.9989   27.9316   33.0302 H   0  0  0  0  0  0  0  0  0  0  0  0
   46.1291   29.0306   33.8369 H   0  0  0  0  0  0  0  0  0  0  0  0
   45.1795   28.5098   35.2439 H   0  0  0  0  0  0  0  0  0  0  0  0
   47.0915   25.8362   36.1287 H   0  0  0  0  0  0  0  0  0  0  0  0
   45.7221   26.9524   36.4528 H   0  0  0  0  0  0  0  0  0  0  0  0
   44.8219   24.8291   35.7223 H   0  0  0  0  0  0  0  0  0  0  0  0
   45.8971   24.8107   34.2892 H   0  0  0  0  0  0  0  0  0  0  0  0
   38.7744   25.2762   33.7160 H   0  0  0  0  0  0  0  0  0  0  0  0
   39.7627   23.8100   33.4557 H   0  0  0  0  0  0  0  0  0  0  0  0
   37.3474   24.8352   38.1896 H   0  0  0  0  0  0  0  0  0  0  0  0
   40.2661   21.4730   38.9117 H   0  0  0  0  0  0  0  0  0  0  0  0
   41.2543   21.2391   37.4449 H   0  0  0  0  0  0  0  0  0  0  0  0
   37.0996   26.5759   36.5114 H   0  0  0  0  0  0  0  0  0  0  0  0
   38.1757   26.6149   35.0737 H   0  0  0  0  0  0  0  0  0  0  0  0
   36.7145   25.5702   35.0737 H   0  0  0  0  0  0  0  0  0  0  0  0
  1  5  1  0
  2  1  2  0
  2  3  1  0
  3  4  1  0
  4  6  1  0
  5  4  2  0
  6 11  1  0
  7  6  1  0
  7  8  1  0
  8  9  1  0
  9 10  1  0
 11 10  1  0
 12  1  1  0
 12 15  1  0
 13 18  2  0
 14 13  1  0
 15 16  1  0
 15 14  2  0
 16 17  2  0
 17 19  1  0
 17 18  1  0
 20 14  1  0
  7 21  1  0
  7 22  1  0
  8 23  1  0
  8 24  1  0
 10 25  1  0
 10 26  1  0
 11 27  1  0
 11 28  1  0
 12 29  1  0
 12 30  1  0
 13 31  1  0
 19 32  1  0
 19 33  1  0
 20 34  1  0
 20 35  1  0
 20 36  1  0
M  ISO  8  21  13  22  13  23  13  24  13  25  13  26  13  27  13  28  13
M  ISO  6  29   8  30   8  31  14  34   8  35   8  36   8
M  END
>  <minimizedAffinity>  (1) 
-4.87128496

>  <minimizedRMSD>  (1) 
0.619925499

$$$$
