
     RDKit          3D

 46 49  0  0  0  0  0  0  0  0999 V2000
   41.5830   24.9460   33.9000 C   0  0  0  0  0  0  0  0  0  0  0  0
   41.7240   26.3050   33.8850 N   0  0  0  0  0  0  0  0  0  0  0  0
   42.9770   26.5550   34.1440 O   0  0  0  0  0  0  0  0  0  0  0  0
   43.6230   25.4070   34.3200 C   0  0  0  0  0  0  0  0  0  0  0  0
   42.7920   24.3620   34.1780 N   0  0  0  0  0  0  0  0  0  0  0  0
   45.0230   25.5870   34.6130 N   0  0  0  0  0  0  0  0  0  0  0  0
   45.6550   26.6690   33.9080 C   0  0  0  0  0  0  0  0  0  0  0  0
   46.3920   27.4940   34.9930 C   0  0  0  0  0  0  0  0  0  0  0  0
   47.3440   26.6320   35.5460 O   0  0  0  0  0  0  0  0  0  0  0  0
   46.6580   25.7440   36.3750 C   0  0  0  0  0  0  0  0  0  0  0  0
   45.8460   24.8130   35.5200 C   0  0  0  0  0  0  0  0  0  0  0  0
   40.3490   24.1340   33.6650 C   0  0  0  0  0  0  0  0  0  0  0  0
   37.6980   24.8090   36.2610 C   0  0  0  0  0  0  0  0  0  0  0  0
   38.3890   24.8690   35.0460 C   0  0  0  0  0  0  0  0  0  0  0  0
   39.5520   24.1280   34.9210 C   0  0  0  0  0  0  0  0  0  0  0  0
   39.9780   23.3750   35.9800 N   0  0  0  0  0  0  0  0  0  0  0  0
   39.2750   23.3470   37.1420 C   0  0  0  0  0  0  0  0  0  0  0  0
   38.1320   24.0700   37.2770 N   0  0  0  0  0  0  0  0  0  0  0  0
   39.6360   22.6000   38.2880 N   0  0  0  0  0  0  0  0  0  0  0  0
   37.9040   25.6670   33.9720 N   0  0  0  0  0  0  0  0  0  0  0  0
   37.9730   27.0970   33.6780 C   0  0  0  0  0  0  0  0  0  0  0  0
   38.8060   27.2090   32.3930 C   0  0  0  0  0  0  0  0  0  0  0  0
   38.5270   26.2130   31.4910 O   0  0  0  0  0  0  0  0  0  0  0  0
   37.2670   25.6470   31.6720 C   0  0  0  0  0  0  0  0  0  0  0  0
   37.2000   24.8640   32.9800 C   0  0  0  0  0  0  0  0  0  0  0  0
   46.3704   26.2803   33.1683 H   0  0  0  0  0  0  0  0  0  0  0  0
   44.9246   27.2793   33.3566 H   0  0  0  0  0  0  0  0  0  0  0  0
   46.8835   28.3683   34.5414 H   0  0  0  0  0  0  0  0  0  0  0  0
   45.6961   27.8719   35.7565 H   0  0  0  0  0  0  0  0  0  0  0  0
   47.3776   25.1647   36.9722 H   0  0  0  0  0  0  0  0  0  0  0  0
   45.9958   26.3017   37.0536 H   0  0  0  0  0  0  0  0  0  0  0  0
   45.2022   24.1932   36.1614 H   0  0  0  0  0  0  0  0  0  0  0  0
   46.5197   24.1638   34.9415 H   0  0  0  0  0  0  0  0  0  0  0  0
   39.7586   24.5803   32.8512 H   0  0  0  0  0  0  0  0  0  0  0  0
   40.6183   23.1062   33.3803 H   0  0  0  0  0  0  0  0  0  0  0  0
   36.7707   25.3889   36.3786 H   0  0  0  0  0  0  0  0  0  0  0  0
   39.0461   22.6339   39.1317 H   0  0  0  0  0  0  0  0  0  0  0  0
   40.4887   22.0223   38.2786 H   0  0  0  0  0  0  0  0  0  0  0  0
   36.9644   27.5066   33.5198 H   0  0  0  0  0  0  0  0  0  0  0  0
   38.4214   27.6641   34.5071 H   0  0  0  0  0  0  0  0  0  0  0  0
   38.5955   28.1800   31.9210 H   0  0  0  0  0  0  0  0  0  0  0  0
   39.8650   27.1140   32.6749 H   0  0  0  0  0  0  0  0  0  0  0  0
   36.5131   26.4477   31.6934 H   0  0  0  0  0  0  0  0  0  0  0  0
   37.0718   24.9548   30.8397 H   0  0  0  0  0  0  0  0  0  0  0  0
   36.1528   24.7163   33.2826 H   0  0  0  0  0  0  0  0  0  0  0  0
   37.6553   23.8682   32.8745 H   0  0  0  0  0  0  0  0  0  0  0  0
  1  5  1  0
  2  1  2  0
  2  3  1  0
  3  4  1  0
  4  6  1  0
  5  4  2  0
  6 11  1  0
  7  6  1  0
  7  8  1  0
  8  9  1  0
  9 10  1  0
 11 10  1  0
 12  1  1  0
 12 15  1  0
 13 18  2  0
 14 13  1  0
 15 14  2  0
 15 16  1  0
 16 17  2  0
 17 18  1  0
 17 19  1  0
 20 14  1  0
 21 20  1  0
 22 21  1  0
 23 24  1  0
 23 22  1  0
 24 25  1  0
 25 20  1  0
  7 26  1  0
  7 27  1  0
  8 28  1  0
  8 29  1  0
 10 30  1  0
 10 31  1  0
 11 32  1  0
 11 33  1  0
 12 34  1  0
 12 35  1  0
 13 36  1  0
 19 37  1  0
 19 38  1  0
 21 39  1  0
 21 40  1  0
 22 41  1  0
 22 42  1  0
 24 43  1  0
 24 44  1  0
 25 45  1  0
 25 46  1  0
M  ISO  8  26  13  27  13  28  13  29  13  30  13  31  13  32  13  33  13
M  ISO  8  34   8  35   8  36  14  39  13  40  13  41  13  42  13  43  13
M  ISO  3  44  13  45  13  46  13
M  END
>  <minimizedAffinity>  (1) 
-4.70624399

>  <minimizedRMSD>  (1) 
2.14120913

$$$$
