
     RDKit          3D

 34 36  0  0  0  0  0  0  0  0999 V2000
   40.9030   25.5240   34.0240 C   0  0  0  0  0  0  0  0  0  0  0  0
   41.0000   26.8720   34.0520 N   0  0  0  0  0  0  0  0  0  0  0  0
   42.2780   27.1630   34.1000 O   0  0  0  0  0  0  0  0  0  0  0  0
   42.9750   26.0420   34.1030 C   0  0  0  0  0  0  0  0  0  0  0  0
   42.1510   24.9800   34.0570 N   0  0  0  0  0  0  0  0  0  0  0  0
   44.4120   26.2510   34.1560 N   0  0  0  0  0  0  0  0  0  0  0  0
   44.8740   27.3850   33.3980 C   0  0  0  0  0  0  0  0  0  0  0  0
   45.7760   28.1930   34.3540 C   0  0  0  0  0  0  0  0  0  0  0  0
   46.8360   27.3370   34.6870 O   0  0  0  0  0  0  0  0  0  0  0  0
   46.3230   26.4050   35.5960 C   0  0  0  0  0  0  0  0  0  0  0  0
   45.4000   25.4700   34.8650 C   0  0  0  0  0  0  0  0  0  0  0  0
   39.6940   24.6740   33.9680 C   0  0  0  0  0  0  0  0  0  0  0  0
   38.0140   24.4950   37.3660 C   0  0  0  0  0  0  0  0  0  0  0  0
   38.2830   24.9340   36.0700 C   0  0  0  0  0  0  0  0  0  0  0  0
   39.3110   24.2940   35.3640 C   0  0  0  0  0  0  0  0  0  0  0  0
   40.0080   23.2760   35.9610 N   0  0  0  0  0  0  0  0  0  0  0  0
   39.6900   22.9000   37.2300 C   0  0  0  0  0  0  0  0  0  0  0  0
   38.7020   23.5060   37.9250 N   0  0  0  0  0  0  0  0  0  0  0  0
   40.3610   21.8520   37.9280 N   0  0  0  0  0  0  0  0  0  0  0  0
   37.4220   26.2530   35.2200 S   0  0  0  0  0  0  0  0  0  0  0  0
   45.4480   27.0510   32.5211 H   0  0  0  0  0  0  0  0  0  0  0  0
   44.0349   27.9910   33.0255 H   0  0  0  0  0  0  0  0  0  0  0  0
   46.1547   29.0960   33.8529 H   0  0  0  0  0  0  0  0  0  0  0  0
   45.2267   28.5266   35.2467 H   0  0  0  0  0  0  0  0  0  0  0  0
   47.1488   25.8332   36.0444 H   0  0  0  0  0  0  0  0  0  0  0  0
   45.7719   26.9257   36.3930 H   0  0  0  0  0  0  0  0  0  0  0  0
   44.8993   24.8064   35.5854 H   0  0  0  0  0  0  0  0  0  0  0  0
   45.9741   24.8585   34.1534 H   0  0  0  0  0  0  0  0  0  0  0  0
   38.8709   25.2313   33.4968 H   0  0  0  0  0  0  0  0  0  0  0  0
   39.8980   23.7699   33.3755 H   0  0  0  0  0  0  0  0  0  0  0  0
   37.2111   24.9804   37.9402 H   0  0  0  0  0  0  0  0  0  0  0  0
   40.0782   21.6094   38.8883 H   0  0  0  0  0  0  0  0  0  0  0  0
   41.1281   21.3381   37.4716 H   0  0  0  0  0  0  0  0  0  0  0  0
   36.8670   27.1032   36.1398 H   0  0  0  0  0  0  0  0  0  0  0  0
  1  2  2  0
  1  5  1  0
  2  3  1  0
  3  4  1  0
  4  6  1  0
  5  4  2  0
  6 11  1  0
  7  6  1  0
  7  8  1  0
  8  9  1  0
  9 10  1  0
 11 10  1  0
 12  1  1  0
 12 15  1  0
 13 18  2  0
 14 13  1  0
 15 16  1  0
 15 14  2  0
 16 17  2  0
 17 18  1  0
 17 19  1  0
 20 14  1  0
  7 21  1  0
  7 22  1  0
  8 23  1  0
  8 24  1  0
 10 25  1  0
 10 26  1  0
 11 27  1  0
 11 28  1  0
 12 29  1  0
 12 30  1  0
 13 31  1  0
 19 32  1  0
 19 33  1  0
 20 34  1  0
M  ISO  8  21  13  22  13  23  13  24  13  25  13  26  13  27  13  28  13
M  ISO  4  29   8  30   8  31  14  34  11
M  END
>  <minimizedAffinity>  (1) 
-4.69408035

>  <minimizedRMSD>  (1) 
0.74565357

$$$$
