
     RDKit          3D

 32 34  0  0  0  0  0  0  0  0999 V2000
   38.8610   26.4960   35.0720 C   0  0  0  0  0  0  0  0  0  0  0  0
   38.0340   27.2260   34.0900 C   0  0  0  0  0  0  0  0  0  0  0  0
   36.8370   27.8040   34.4870 C   0  0  0  0  0  0  0  0  0  0  0  0
   35.9930   28.5100   33.6320 C   0  0  0  0  0  0  0  0  0  0  0  0
   36.3900   28.6260   32.3340 N   0  0  0  0  0  0  0  0  0  0  0  0
   37.5540   28.0690   31.9310 C   0  0  0  0  0  0  0  0  0  0  0  0
   38.3200   27.4000   32.8100 N   0  0  0  0  0  0  0  0  0  0  0  0
   37.9740   28.1970   30.5370 C   0  0  0  0  0  0  0  0  0  0  0  0
   37.3660   29.1150   29.7180 C   0  0  0  0  0  0  0  0  0  0  0  0
   37.7870   29.2120   28.3990 C   0  0  0  0  0  0  0  0  0  0  0  0
   38.7830   28.4130   27.9340 N   0  0  0  0  0  0  0  0  0  0  0  0
   39.3520   27.5270   28.7690 C   0  0  0  0  0  0  0  0  0  0  0  0
   38.9590   27.4080   30.0690 N   0  0  0  0  0  0  0  0  0  0  0  0
   38.7830   25.0100   34.9100 C   0  0  0  0  0  0  0  0  0  0  0  0
   39.7400   22.8030   37.7640 C   0  0  0  0  0  0  0  0  0  0  0  0
   38.8620   23.2360   38.7650 C   0  0  0  0  0  0  0  0  0  0  0  0
   37.9530   24.2770   38.4520 C   0  0  0  0  0  0  0  0  0  0  0  0
   37.9820   24.8000   37.1980 N   0  0  0  0  0  0  0  0  0  0  0  0
   38.8580   24.3430   36.2560 C   0  0  0  0  0  0  0  0  0  0  0  0
   39.7080   23.3720   36.5450 N   0  0  0  0  0  0  0  0  0  0  0  0
   39.9087   26.8078   34.9492 H   0  0  0  0  0  0  0  0  0  0  0  0
   38.4758   26.7393   36.0732 H   0  0  0  0  0  0  0  0  0  0  0  0
   36.5361   27.6987   35.5398 H   0  0  0  0  0  0  0  0  0  0  0  0
   35.0511   28.9526   33.9882 H   0  0  0  0  0  0  0  0  0  0  0  0
   36.5613   29.7609   30.0991 H   0  0  0  0  0  0  0  0  0  0  0  0
   37.3114   29.9403   27.7257 H   0  0  0  0  0  0  0  0  0  0  0  0
   40.1577   26.8794   28.3929 H   0  0  0  0  0  0  0  0  0  0  0  0
   37.8320   24.7456   34.4245 H   0  0  0  0  0  0  0  0  0  0  0  0
   39.6250   24.6689   34.2897 H   0  0  0  0  0  0  0  0  0  0  0  0
   40.4574   21.9961   37.9745 H   0  0  0  0  0  0  0  0  0  0  0  0
   38.8774   22.7808   39.7663 H   0  0  0  0  0  0  0  0  0  0  0  0
   37.2429   24.6517   39.2039 H   0  0  0  0  0  0  0  0  0  0  0  0
  2  3  2  0
  2  1  1  0
  4  3  1  0
  5  4  2  0
  6  5  1  0
  6  7  2  0
  7  2  1  0
  8  6  1  0
  9  8  2  0
 10  9  1  0
 11 10  2  0
 11 12  1  0
 12 13  2  0
 13  8  1  0
 14  1  1  0
 14 19  1  0
 15 16  2  0
 17 16  1  0
 18 17  2  0
 19 20  2  0
 19 18  1  0
 20 15  1  0
  1 21  1  0
  1 22  1  0
  3 23  1  0
  4 24  1  0
  9 25  1  0
 10 26  1  0
 12 27  1  0
 14 28  1  0
 14 29  1  0
 15 30  1  0
 16 31  1  0
 17 32  1  0
M  ISO  8  21   8  22   8  23  14  24  14  25  14  26  14  27  14  28   8
M  ISO  4  29   8  30  14  31  14  32  14
M  END
>  <minimizedAffinity>  (1) 
-4.83385754

>  <minimizedRMSD>  (1) 
0.865441382

$$$$
