
     RDKit          3D

 22 23  0  0  0  0  0  0  0  0999 V2000
   43.5400   22.7090   36.1230 C   0  0  0  0  0  0  0  0  0  0  0  0
   43.7720   21.3390   36.3930 C   0  0  0  0  0  0  0  0  0  0  0  0
   42.6740   20.5950   36.8810 C   0  0  0  0  0  0  0  0  0  0  0  0
   41.4930   21.2350   37.0520 N   0  0  0  0  0  0  0  0  0  0  0  0
   41.3220   22.5340   36.7820 C   0  0  0  0  0  0  0  0  0  0  0  0
   42.3520   23.2710   36.3160 N   0  0  0  0  0  0  0  0  0  0  0  0
   40.0240   23.1650   36.9880 C   0  0  0  0  0  0  0  0  0  0  0  0
   39.3750   23.0480   38.1870 C   0  0  0  0  0  0  0  0  0  0  0  0
   38.1300   23.6380   38.4250 C   0  0  0  0  0  0  0  0  0  0  0  0
   37.5700   24.3530   37.3950 C   0  0  0  0  0  0  0  0  0  0  0  0
   38.2000   24.4920   36.1640 C   0  0  0  0  0  0  0  0  0  0  0  0
   39.4310   23.8980   35.9580 C   0  0  0  0  0  0  0  0  0  0  0  0
   44.6480   23.4600   35.6310 N   0  0  0  0  0  0  0  0  0  0  0  0
   44.7570   20.8769   36.2312 H   0  0  0  0  0  0  0  0  0  0  0  0
   42.7760   19.5251   37.1155 H   0  0  0  0  0  0  0  0  0  0  0  0
   39.8499   22.4689   38.9926 H   0  0  0  0  0  0  0  0  0  0  0  0
   37.6214   23.5340   39.3948 H   0  0  0  0  0  0  0  0  0  0  0  0
   36.5914   24.8311   37.5492 H   0  0  0  0  0  0  0  0  0  0  0  0
   37.7225   25.0705   35.3595 H   0  0  0  0  0  0  0  0  0  0  0  0
   39.9404   24.0021   34.9886 H   0  0  0  0  0  0  0  0  0  0  0  0
   45.5592   23.0010   35.4898 H   0  0  0  0  0  0  0  0  0  0  0  0
   44.5370   24.4614   35.4169 H   0  0  0  0  0  0  0  0  0  0  0  0
  1  6  2  0
  1  2  1  0
  2  3  2  0
  3  4  1  0
  5  7  1  0
  5  4  2  0
  6  5  1  0
  7  8  2  0
  8  9  1  0
 10  9  2  0
 11 10  1  0
 12 11  2  0
 12  7  1  0
 13  1  1  0
  2 14  1  0
  3 15  1  0
  8 16  1  0
  9 17  1  0
 10 18  1  0
 11 19  1  0
 12 20  1  0
 13 21  1  0
 13 22  1  0
M  ISO  7  14  14  15  14  16  14  17  14  18  14  19  14  20  14
M  END
>  <minimizedAffinity>  (1) 
-3.8807447

>  <minimizedRMSD>  (1) 
4.54337692

$$$$
