
     RDKit          3D

 14 14  0  0  0  0  0  0  0  0999 V2000
   38.4950   22.4550   35.8870 C   0  0  0  0  0  0  0  0  0  0  0  0
   39.7890   21.9540   36.1230 C   0  0  0  0  0  0  0  0  0  0  0  0
   40.4240   22.3090   37.3330 C   0  0  0  0  0  0  0  0  0  0  0  0
   39.7360   23.1140   38.1880 N   0  0  0  0  0  0  0  0  0  0  0  0
   38.5060   23.5640   37.9160 C   0  0  0  0  0  0  0  0  0  0  0  0
   37.8770   23.2460   36.7790 N   0  0  0  0  0  0  0  0  0  0  0  0
   37.8220   24.4050   38.8430 N   0  0  0  0  0  0  0  0  0  0  0  0
   37.8840   22.0790   34.6620 N   0  0  0  0  0  0  0  0  0  0  0  0
   40.2896   21.3065   35.3881 H   0  0  0  0  0  0  0  0  0  0  0  0
   41.4349   21.9492   37.5751 H   0  0  0  0  0  0  0  0  0  0  0  0
   36.8751   24.7473   38.6261 H   0  0  0  0  0  0  0  0  0  0  0  0
   38.2750   24.6700   39.7293 H   0  0  0  0  0  0  0  0  0  0  0  0
   36.9374   22.4151   34.4341 H   0  0  0  0  0  0  0  0  0  0  0  0
   38.3873   21.4701   34.0011 H   0  0  0  0  0  0  0  0  0  0  0  0
  1  2  2  0
  1  6  1  0
  2  3  1  0
  3  4  2  0
  5  4  1  0
  5  7  1  0
  6  5  2  0
  8  1  1  0
  2  9  1  0
  3 10  1  0
  7 11  1  0
  7 12  1  0
  8 13  1  0
  8 14  1  0
M  ISO  2   9  14  10  14
M  END
>  <minimizedAffinity>  (1) 
-2.82364964

>  <minimizedRMSD>  (1) 
0.598612607

$$$$
