
     RDKit          3D

 27 28  0  0  0  0  0  0  0  0999 V2000
   38.9460   26.1410   34.6430 C   0  0  0  0  0  0  0  0  0  0  0  0
   37.8550   26.9680   34.0420 C   0  0  0  0  0  0  0  0  0  0  0  0
   37.1050   27.7910   34.8420 C   0  0  0  0  0  0  0  0  0  0  0  0
   36.0690   28.5900   34.3430 C   0  0  0  0  0  0  0  0  0  0  0  0
   35.8150   28.5340   33.0180 N   0  0  0  0  0  0  0  0  0  0  0  0
   36.5580   27.7170   32.2210 C   0  0  0  0  0  0  0  0  0  0  0  0
   37.5420   26.9710   32.7590 N   0  0  0  0  0  0  0  0  0  0  0  0
   36.3590   27.5860   30.7790 C   0  0  0  0  0  0  0  0  0  0  0  0
   36.6990   28.4750   29.9440 O   0  0  0  0  0  0  0  0  0  0  0  0
   35.7830   26.4850   30.1710 O   0  0  0  0  0  0  0  0  0  0  0  0
   38.6190   24.6740   34.6770 C   0  0  0  0  0  0  0  0  0  0  0  0
   39.7270   22.8210   37.7240 C   0  0  0  0  0  0  0  0  0  0  0  0
   38.8580   23.3390   38.6930 C   0  0  0  0  0  0  0  0  0  0  0  0
   37.9170   24.3020   38.3050 C   0  0  0  0  0  0  0  0  0  0  0  0
   37.8930   24.6880   36.9950 N   0  0  0  0  0  0  0  0  0  0  0  0
   38.7500   24.1620   36.0910 C   0  0  0  0  0  0  0  0  0  0  0  0
   39.6480   23.2500   36.4410 N   0  0  0  0  0  0  0  0  0  0  0  0
   39.1203   26.4854   35.6730 H   0  0  0  0  0  0  0  0  0  0  0  0
   39.8388   26.2650   34.0125 H   0  0  0  0  0  0  0  0  0  0  0  0
   37.3260   27.8250   35.9190 H   0  0  0  0  0  0  0  0  0  0  0  0
   35.4821   29.2410   35.0077 H   0  0  0  0  0  0  0  0  0  0  0  0
   35.6781   26.4614   29.1869 H   0  0  0  0  0  0  0  0  0  0  0  0
   37.5882   24.5198   34.3252 H   0  0  0  0  0  0  0  0  0  0  0  0
   39.3150   24.1279   34.0233 H   0  0  0  0  0  0  0  0  0  0  0  0
   40.4747   22.0648   38.0050 H   0  0  0  0  0  0  0  0  0  0  0  0
   38.9132   22.9968   39.7370 H   0  0  0  0  0  0  0  0  0  0  0  0
   37.2172   24.7350   39.0349 H   0  0  0  0  0  0  0  0  0  0  0  0
  1 11  1  0
  2  1  1  0
  2  3  2  0
  4  3  1  0
  5  4  2  0
  6  7  2  0
  6  5  1  0
  7  2  1  0
  8  6  1  0
  9  8  2  0
 10  8  1  0
 11 16  1  0
 12 13  2  0
 14 13  1  0
 15 14  2  0
 16 17  2  0
 16 15  1  0
 17 12  1  0
  1 18  1  0
  1 19  1  0
  3 20  1  0
  4 21  1  0
 10 22  1  0
 11 23  1  0
 11 24  1  0
 12 25  1  0
 13 26  1  0
 14 27  1  0
M  ISO  8  18   8  19   8  20  14  21  14  22   3  23   8  24   8  25  14
M  ISO  2  26  14  27  14
M  END
>  <minimizedAffinity>  (1) 
-4.70180941

>  <minimizedRMSD>  (1) 
0.6465379

$$$$
