
     RDKit          3D

 26 28  0  0  1  0  0  0  0  0999 V2000
   38.0960   24.9130   35.0300 C   0  0  1  0  0  0  0  0  0  0  0  0
   39.2730   25.6170   34.3200 C   0  0  0  0  0  0  0  0  0  0  0  0
   38.6960   24.3350   33.8250 C   0  0  2  0  0  0  0  0  0  0  0  0
   39.6050   22.8300   37.6500 C   0  0  0  0  0  0  0  0  0  0  0  0
   39.0000   23.2920   38.8300 C   0  0  0  0  0  0  0  0  0  0  0  0
   38.0830   24.3300   38.7060 C   0  0  0  0  0  0  0  0  0  0  0  0
   37.8210   24.8320   37.4780 N   0  0  0  0  0  0  0  0  0  0  0  0
   38.4240   24.3590   36.3760 C   0  0  0  0  0  0  0  0  0  0  0  0
   39.3310   23.3450   36.4450 N   0  0  0  0  0  0  0  0  0  0  0  0
   40.5420   21.7470   37.7840 N   0  0  0  0  0  0  0  0  0  0  0  0
   37.9730   24.3470   32.5210 C   0  0  0  0  0  0  0  0  0  0  0  0
   36.8250   23.6810   32.1290 C   0  0  0  0  0  0  0  0  0  0  0  0
   36.5340   24.0100   30.8110 C   0  0  0  0  0  0  0  0  0  0  0  0
   37.5060   24.8560   30.4470 N   0  0  0  0  0  0  0  0  0  0  0  0
   38.3610   25.0600   31.4530 N   0  0  0  0  0  0  0  0  0  0  0  0
   37.0586   25.1441   35.3134 H   0  0  0  0  0  0  0  0  0  0  0  0
   39.1086   26.5522   33.7647 H   0  0  0  0  0  0  0  0  0  0  0  0
   40.2718   25.9752   34.6101 H   0  0  0  0  0  0  0  0  0  0  0  0
   39.0977   23.3353   33.6032 H   0  0  0  0  0  0  0  0  0  0  0  0
   39.2408   22.8523   39.8091 H   0  0  0  0  0  0  0  0  0  0  0  0
   37.5778   24.7370   39.5943 H   0  0  0  0  0  0  0  0  0  0  0  0
   41.0150   21.3691   36.9507 H   0  0  0  0  0  0  0  0  0  0  0  0
   40.7400   21.3493   38.7133 H   0  0  0  0  0  0  0  0  0  0  0  0
   36.2364   22.9994   32.7606 H   0  0  0  0  0  0  0  0  0  0  0  0
   35.6908   23.6539   30.2008 H   0  0  0  0  0  0  0  0  0  0  0  0
   37.5840   25.2909   29.5166 H   0  0  0  0  0  0  0  0  0  0  0  0
  1  8  1  0
  2  1  1  0
  3  2  1  0
  3  1  1  0
  4 10  1  0
  4  5  2  0
  6  5  1  0
  7  6  2  0
  8  9  2  0
  8  7  1  0
  9  4  1  0
 11  3  1  0
 12 11  1  0
 13 12  2  0
 14 13  1  0
 14 15  1  0
 15 11  2  0
  1 16  1  6
  2 17  1  0
  2 18  1  0
  3 19  1  1
  5 20  1  0
  6 21  1  0
 10 22  1  0
 10 23  1  0
 12 24  1  0
 13 25  1  0
 14 26  1  0
M  ISO  8  16  13  17  13  18  13  19  13  20  14  21  14  24  14  25  14
M  ISO  1  26   9
M  END
>  <minimizedAffinity>  (1) 
-4.59402561

>  <minimizedRMSD>  (1) 
0.917013168

$$$$
