
     RDKit          3D

 35 37  0  0  1  0  0  0  0  0999 V2000
   39.1150   25.1800   34.8230 C   0  0  1  0  0  0  0  0  0  0  0  0
   39.7780   26.5630   34.8220 C   0  0  0  0  0  0  0  0  0  0  0  0
   40.4150   25.3730   34.1940 C   0  0  1  0  0  0  0  0  0  0  0  0
   39.6780   22.8510   37.5850 C   0  0  0  0  0  0  0  0  0  0  0  0
   38.7560   23.2650   38.5530 C   0  0  0  0  0  0  0  0  0  0  0  0
   37.9410   24.3500   38.2600 C   0  0  0  0  0  0  0  0  0  0  0  0
   38.0800   24.9510   37.0560 N   0  0  0  0  0  0  0  0  0  0  0  0
   38.9760   24.5300   36.1480 C   0  0  0  0  0  0  0  0  0  0  0  0
   39.7770   23.4690   36.4280 N   0  0  0  0  0  0  0  0  0  0  0  0
   40.5120   21.7230   37.8980 N   0  0  0  0  0  0  0  0  0  0  0  0
   41.7590   25.0660   34.7520 C   0  0  0  0  0  0  0  0  0  0  0  0
   42.3030   23.8410   33.9760 C   0  0  0  0  0  0  0  0  0  0  0  0
   43.6220   23.3950   34.5170 C   0  0  0  0  0  0  0  0  0  0  0  0
   44.6570   24.5050   34.5060 C   0  0  0  0  0  0  0  0  0  0  0  0
   44.0700   25.6680   35.2450 C   0  0  0  0  0  0  0  0  0  0  0  0
   42.8230   26.1040   34.4780 C   0  0  0  0  0  0  0  0  0  0  0  0
   38.1769   24.7259   34.4712 H   0  0  0  0  0  0  0  0  0  0  0  0
   39.3745   27.3731   34.1968 H   0  0  0  0  0  0  0  0  0  0  0  0
   40.0634   27.3045   35.5827 H   0  0  0  0  0  0  0  0  0  0  0  0
   40.7478   25.0051   33.2122 H   0  0  0  0  0  0  0  0  0  0  0  0
   38.6792   22.7451   39.5193 H   0  0  0  0  0  0  0  0  0  0  0  0
   37.2007   24.7120   38.9886 H   0  0  0  0  0  0  0  0  0  0  0  0
   41.2032   21.3875   37.2120 H   0  0  0  0  0  0  0  0  0  0  0  0
   40.4185   21.2502   38.8083 H   0  0  0  0  0  0  0  0  0  0  0  0
   41.6037   24.9612   35.8359 H   0  0  0  0  0  0  0  0  0  0  0  0
   42.4240   24.1130   32.9171 H   0  0  0  0  0  0  0  0  0  0  0  0
   41.5858   23.0144   34.0872 H   0  0  0  0  0  0  0  0  0  0  0  0
   43.4815   23.0532   35.5531 H   0  0  0  0  0  0  0  0  0  0  0  0
   43.9924   22.5846   33.8720 H   0  0  0  0  0  0  0  0  0  0  0  0
   45.5769   24.1670   35.0055 H   0  0  0  0  0  0  0  0  0  0  0  0
   44.9137   24.7882   33.4745 H   0  0  0  0  0  0  0  0  0  0  0  0
   43.7981   25.3671   36.2675 H   0  0  0  0  0  0  0  0  0  0  0  0
   44.7944   26.4928   35.3162 H   0  0  0  0  0  0  0  0  0  0  0  0
   43.0380   26.1510   33.4002 H   0  0  0  0  0  0  0  0  0  0  0  0
   42.4919   27.1034   34.7967 H   0  0  0  0  0  0  0  0  0  0  0  0
  1  8  1  0
  2  1  1  0
  3 11  1  0
  3  2  1  0
  3  1  1  0
  4 10  1  0
  4  5  2  0
  6  5  1  0
  7  6  2  0
  8  9  2  0
  8  7  1  0
  9  4  1  0
 12 13  1  0
 12 11  1  0
 14 13  1  0
 14 15  1  0
 16 11  1  0
 16 15  1  0
  1 17  1  6
  2 18  1  0
  2 19  1  0
  3 20  1  6
  5 21  1  0
  6 22  1  0
 10 23  1  0
 10 24  1  0
 11 25  1  0
 12 26  1  0
 12 27  1  0
 13 28  1  0
 13 29  1  0
 14 30  1  0
 14 31  1  0
 15 32  1  0
 15 33  1  0
 16 34  1  0
 16 35  1  0
M  ISO  8  17  13  18  13  19  13  20  13  21  14  22  14  25  13  26  13
M  ISO  8  27  13  28  13  29  13  30  13  31  13  32  13  33  13  34  13
M  ISO  1  35  13
M  END
>  <minimizedAffinity>  (1) 
-4.58855057

>  <minimizedRMSD>  (1) 
1.5505271

$$$$
