
     RDKit          3D

 28 30  0  0  1  0  0  0  0  0999 V2000
   38.3630   24.7390   34.7460 C   0  0  1  0  0  0  0  0  0  0  0  0
   38.8330   26.1770   34.4550 C   0  0  0  0  0  0  0  0  0  0  0  0
   39.4990   25.0160   33.8580 C   0  0  1  0  0  0  0  0  0  0  0  0
   39.6350   22.7950   37.5780 C   0  0  0  0  0  0  0  0  0  0  0  0
   38.9510   23.3300   38.6890 C   0  0  0  0  0  0  0  0  0  0  0  0
   38.0460   24.3800   38.4340 C   0  0  0  0  0  0  0  0  0  0  0  0
   37.8860   24.8100   37.1580 N   0  0  0  0  0  0  0  0  0  0  0  0
   38.5540   24.2750   36.1380 C   0  0  0  0  0  0  0  0  0  0  0  0
   39.4200   23.2760   36.3620 N   0  0  0  0  0  0  0  0  0  0  0  0
   40.5520   21.7310   37.8310 N   0  0  0  0  0  0  0  0  0  0  0  0
   40.9180   24.8340   34.2530 C   0  0  0  0  0  0  0  0  0  0  0  0
   41.7500   25.6870   34.9460 C   0  0  0  0  0  0  0  0  0  0  0  0
   43.0520   25.3790   35.2520 C   0  0  0  0  0  0  0  0  0  0  0  0
   43.6140   24.1770   34.8780 C   0  0  0  0  0  0  0  0  0  0  0  0
   42.7740   23.3420   34.1900 C   0  0  0  0  0  0  0  0  0  0  0  0
   41.5240   23.6590   33.9050 N   0  0  0  0  0  0  0  0  0  0  0  0
   37.4535   24.1302   34.6353 H   0  0  0  0  0  0  0  0  0  0  0  0
   38.2200   26.8453   33.8324 H   0  0  0  0  0  0  0  0  0  0  0  0
   39.1478   27.0398   35.0604 H   0  0  0  0  0  0  0  0  0  0  0  0
   39.7139   24.6361   32.8483 H   0  0  0  0  0  0  0  0  0  0  0  0
   39.1159   22.9460   39.7065 H   0  0  0  0  0  0  0  0  0  0  0  0
   37.4795   24.8425   39.2557 H   0  0  0  0  0  0  0  0  0  0  0  0
   41.0760   21.3067   37.0524 H   0  0  0  0  0  0  0  0  0  0  0  0
   40.6897   21.3875   38.7922 H   0  0  0  0  0  0  0  0  0  0  0  0
   41.3517   26.6602   35.2689 H   0  0  0  0  0  0  0  0  0  0  0  0
   43.6606   26.1074   35.8080 H   0  0  0  0  0  0  0  0  0  0  0  0
   44.6547   23.9096   35.1135 H   0  0  0  0  0  0  0  0  0  0  0  0
   43.1572   22.3650   33.8605 H   0  0  0  0  0  0  0  0  0  0  0  0
  1  8  1  0
  2  1  1  0
  3 11  1  0
  3  2  1  0
  3  1  1  0
  4 10  1  0
  4  5  2  0
  6  5  1  0
  7  6  2  0
  8  9  2  0
  8  7  1  0
  9  4  1  0
 11 12  2  0
 12 13  1  0
 14 13  2  0
 15 14  1  0
 16 15  2  0
 16 11  1  0
  1 17  1  6
  2 18  1  0
  2 19  1  0
  3 20  1  6
  5 21  1  0
  6 22  1  0
 10 23  1  0
 10 24  1  0
 12 25  1  0
 13 26  1  0
 14 27  1  0
 15 28  1  0
M  ISO  8  17  13  18  13  19  13  20  13  21  14  22  14  25  14  26  14
M  ISO  2  27  14  28  14
M  END
>  <minimizedAffinity>  (1) 
-4.48257542

>  <minimizedRMSD>  (1) 
1.20311034

$$$$
