
     RDKit          3D

 26 28  0  0  1  0  0  0  0  0999 V2000
   39.6170   22.9230   37.5480 C   0  0  0  0  0  0  0  0  0  0  0  0
   38.7030   23.1620   38.6040 C   0  0  0  0  0  0  0  0  0  0  0  0
   37.8490   24.2690   38.4790 C   0  0  0  0  0  0  0  0  0  0  0  0
   37.9500   25.0350   37.3650 N   0  0  0  0  0  0  0  0  0  0  0  0
   38.8280   24.7690   36.3970 C   0  0  0  0  0  0  0  0  0  0  0  0
   39.6750   23.7150   36.4670 N   0  0  0  0  0  0  0  0  0  0  0  0
   38.8930   25.6150   35.1640 C   0  0  1  0  0  0  0  0  0  0  0  0
   38.9320   27.1410   35.4220 C   0  0  0  0  0  0  0  0  0  0  0  0
   40.0960   26.4020   34.8720 C   0  0  2  0  0  0  0  0  0  0  0  0
   40.5960   26.6450   33.4740 C   0  0  0  0  0  0  0  0  0  0  0  0
   41.7350   27.5390   33.1830 C   0  0  0  0  0  0  0  0  0  0  0  0
   41.9990   26.0540   33.2480 C   0  0  0  0  0  0  0  0  0  0  0  0
   40.4700   21.7880   37.6770 N   0  0  0  0  0  0  0  0  0  0  0  0
   38.6642   22.5063   39.4864 H   0  0  0  0  0  0  0  0  0  0  0  0
   37.1170   24.5087   39.2643 H   0  0  0  0  0  0  0  0  0  0  0  0
   38.2963   24.9029   34.5751 H   0  0  0  0  0  0  0  0  0  0  0  0
   38.3572   27.8277   34.7833 H   0  0  0  0  0  0  0  0  0  0  0  0
   38.7501   27.8021   36.2821 H   0  0  0  0  0  0  0  0  0  0  0  0
   41.1500   26.3002   35.1700 H   0  0  0  0  0  0  0  0  0  0  0  0
   39.5876   26.6003   33.0369 H   0  0  0  0  0  0  0  0  0  0  0  0
   42.1265   28.1965   33.9732 H   0  0  0  0  0  0  0  0  0  0  0  0
   41.9239   28.3180   32.4297 H   0  0  0  0  0  0  0  0  0  0  0  0
   42.2227   25.4888   32.3312 H   0  0  0  0  0  0  0  0  0  0  0  0
   42.6789   25.3966   33.8098 H   0  0  0  0  0  0  0  0  0  0  0  0
   41.1524   21.5699   36.9370 H   0  0  0  0  0  0  0  0  0  0  0  0
   40.4038   21.1861   38.5102 H   0  0  0  0  0  0  0  0  0  0  0  0
  1 13  1  0
  1  2  2  0
  3  2  1  0
  4  3  2  0
  5  6  2  0
  5  4  1  0
  6  1  1  0
  7  8  1  0
  7  5  1  0
  9  7  1  0
  9  8  1  0
 10  9  1  0
 11 12  1  0
 11 10  1  0
 12 10  1  0
  2 14  1  0
  3 15  1  0
  7 16  1  6
  8 17  1  0
  8 18  1  0
  9 19  1  1
 10 20  1  0
 11 21  1  0
 11 22  1  0
 12 23  1  0
 12 24  1  0
 13 25  1  0
 13 26  1  0
M  ISO  8  14  14  15  14  16  13  17  13  18  13  19  13  20  13  21  13
M  ISO  3  22  13  23  13  24  13
M  END
>  <minimizedAffinity>  (1) 
-4.43234634

>  <minimizedRMSD>  (1) 
2.04431295

$$$$
