
     RDKit          3D

 26 27  0  0  1  0  0  0  0  0999 V2000
   38.8980   25.4900   35.0580 C   0  0  1  0  0  0  0  0  0  0  0  0
   39.2070   26.9910   35.2430 C   0  0  0  0  0  0  0  0  0  0  0  0
   40.1730   26.0600   34.6070 C   0  0  2  0  0  0  0  0  0  0  0  0
   39.6240   22.9180   37.5670 C   0  0  0  0  0  0  0  0  0  0  0  0
   38.7260   23.1930   38.6130 C   0  0  0  0  0  0  0  0  0  0  0  0
   37.8780   24.2900   38.4280 C   0  0  0  0  0  0  0  0  0  0  0  0
   37.9570   25.0110   37.2890 N   0  0  0  0  0  0  0  0  0  0  0  0
   38.8370   24.7010   36.3220 C   0  0  0  0  0  0  0  0  0  0  0  0
   39.6910   23.6460   36.4410 N   0  0  0  0  0  0  0  0  0  0  0  0
   40.4860   21.7870   37.7450 N   0  0  0  0  0  0  0  0  0  0  0  0
   40.5490   26.1340   33.2260 N   0  0  0  0  0  0  0  0  0  0  0  0
   41.8380   26.6420   32.8230 C   0  0  0  0  0  0  0  0  0  0  0  0
   42.3080   27.6340   33.5130 N   0  0  0  0  0  0  0  0  0  0  0  0
   42.5000   26.0190   31.6990 N   0  0  0  0  0  0  0  0  0  0  0  0
   43.2330   28.0730   33.3040 H   0  0  0  0  0  0  0  0  0  0  0  0
   38.1329   24.8710   34.5667 H   0  0  0  0  0  0  0  0  0  0  0  0
   38.6817   27.7450   34.6384 H   0  0  0  0  0  0  0  0  0  0  0  0
   39.2279   27.6947   36.0882 H   0  0  0  0  0  0  0  0  0  0  0  0
   41.2284   25.8163   34.7984 H   0  0  0  0  0  0  0  0  0  0  0  0
   38.6921   22.5800   39.5257 H   0  0  0  0  0  0  0  0  0  0  0  0
   37.1506   24.5639   39.2063 H   0  0  0  0  0  0  0  0  0  0  0  0
   41.1650   21.5366   37.0121 H   0  0  0  0  0  0  0  0  0  0  0  0
   40.4265   21.2246   38.6058 H   0  0  0  0  0  0  0  0  0  0  0  0
   39.8845   25.8176   32.5054 H   0  0  0  0  0  0  0  0  0  0  0  0
   43.4209   26.3611   31.3894 H   0  0  0  0  0  0  0  0  0  0  0  0
   42.0508   25.2330   31.2077 H   0  0  0  0  0  0  0  0  0  0  0  0
  1  2  1  0
  1  8  1  0
  3  1  1  0
  3  2  1  0
  4 10  1  0
  4  5  2  0
  6  5  1  0
  7  6  2  0
  8  9  2  0
  8  7  1  0
  9  4  1  0
 11  3  1  0
 12 11  1  0
 12 13  2  0
 14 12  1  0
 15 13  1  0
  1 16  1  6
  2 17  1  0
  2 18  1  0
  3 19  1  1
  5 20  1  0
  6 21  1  0
 10 22  1  0
 10 23  1  0
 11 24  1  0
 14 25  1  0
 14 26  1  0
M  ISO  6  16  13  17  13  18  13  19  13  20  14  21  14
M  END
>  <minimizedAffinity>  (1) 
-4.36083794

>  <minimizedRMSD>  (1) 
2.08833027

$$$$
