
     RDKit          3D

 27 29  0  0  1  0  0  0  0  0999 V2000
   38.1320   24.2450   34.5100 C   0  0  1  0  0  0  0  0  0  0  0  0
   38.3020   25.7080   34.0570 C   0  0  0  0  0  0  0  0  0  0  0  0
   39.1850   24.6170   33.5620 C   0  0  1  0  0  0  0  0  0  0  0  0
   39.6080   22.7340   37.4950 C   0  0  0  0  0  0  0  0  0  0  0  0
   38.9650   23.3850   38.5610 C   0  0  0  0  0  0  0  0  0  0  0  0
   38.0150   24.3720   38.2380 C   0  0  0  0  0  0  0  0  0  0  0  0
   37.7860   24.6240   36.9250 N   0  0  0  0  0  0  0  0  0  0  0  0
   38.4210   23.9810   35.9510 C   0  0  0  0  0  0  0  0  0  0  0  0
   39.3260   23.0430   36.2130 N   0  0  0  0  0  0  0  0  0  0  0  0
   40.5460   21.7290   37.8360 N   0  0  0  0  0  0  0  0  0  0  0  0
   40.5790   24.7270   34.0400 C   0  0  0  0  0  0  0  0  0  0  0  0
   41.3840   23.6890   33.5970 C   0  0  0  0  0  0  0  0  0  0  0  0
   42.7450   23.5890   33.9010 C   0  0  0  0  0  0  0  0  0  0  0  0
   43.3090   24.5420   34.6610 N   0  0  0  0  0  0  0  0  0  0  0  0
   42.5180   25.5560   35.0940 C   0  0  0  0  0  0  0  0  0  0  0  0
   41.2240   25.6280   34.7890 N   0  0  0  0  0  0  0  0  0  0  0  0
   37.3558   23.4658   34.4919 H   0  0  0  0  0  0  0  0  0  0  0  0
   37.5630   26.1721   33.3874 H   0  0  0  0  0  0  0  0  0  0  0  0
   38.4473   26.6779   34.5551 H   0  0  0  0  0  0  0  0  0  0  0  0
   39.4623   24.2008   32.5822 H   0  0  0  0  0  0  0  0  0  0  0  0
   39.1949   23.1333   39.6068 H   0  0  0  0  0  0  0  0  0  0  0  0
   37.4761   24.9209   39.0243 H   0  0  0  0  0  0  0  0  0  0  0  0
   41.0470   21.2192   37.0944 H   0  0  0  0  0  0  0  0  0  0  0  0
   40.7271   21.5080   38.8256 H   0  0  0  0  0  0  0  0  0  0  0  0
   40.9289   22.9043   32.9748 H   0  0  0  0  0  0  0  0  0  0  0  0
   43.3427   22.7456   33.5248 H   0  0  0  0  0  0  0  0  0  0  0  0
   42.9612   26.3457   35.7185 H   0  0  0  0  0  0  0  0  0  0  0  0
  1  8  1  0
  2  1  1  0
  3 11  1  0
  3  2  1  0
  3  1  1  0
  4 10  1  0
  4  5  2  0
  6  5  1  0
  7  6  2  0
  8  9  2  0
  8  7  1  0
  9  4  1  0
 11 16  2  0
 12 13  2  0
 12 11  1  0
 13 14  1  0
 14 15  2  0
 16 15  1  0
  1 17  1  6
  2 18  1  0
  2 19  1  0
  3 20  1  6
  5 21  1  0
  6 22  1  0
 10 23  1  0
 10 24  1  0
 12 25  1  0
 13 26  1  0
 15 27  1  0
M  ISO  8  17  13  18  13  19  13  20  13  21  14  22  14  25  14  26  14
M  ISO  1  27  14
M  END
>  <minimizedAffinity>  (1) 
-4.28439569

>  <minimizedRMSD>  (1) 
1.26055574

$$$$
