
     RDKit          3D

 27 28  0  0  0  0  0  0  0  0999 V2000
   39.2790   26.3200   34.7850 C   0  0  0  0  0  0  0  0  0  0  0  0
   38.2210   27.1220   34.1220 C   0  0  0  0  0  0  0  0  0  0  0  0
   37.2180   27.6950   34.8730 C   0  0  0  0  0  0  0  0  0  0  0  0
   36.1780   28.4670   34.3380 C   0  0  0  0  0  0  0  0  0  0  0  0
   36.1880   28.6420   32.9910 N   0  0  0  0  0  0  0  0  0  0  0  0
   37.1680   28.0830   32.2450 C   0  0  0  0  0  0  0  0  0  0  0  0
   38.1620   27.3390   32.8090 N   0  0  0  0  0  0  0  0  0  0  0  0
   37.0880   28.3330   30.7860 C   0  0  0  0  0  0  0  0  0  0  0  0
   39.0170   24.8320   34.7200 C   0  0  0  0  0  0  0  0  0  0  0  0
   39.7560   22.8270   37.7720 C   0  0  0  0  0  0  0  0  0  0  0  0
   38.8150   23.3170   38.6820 C   0  0  0  0  0  0  0  0  0  0  0  0
   37.9410   24.3330   38.2250 C   0  0  0  0  0  0  0  0  0  0  0  0
   38.0640   24.7720   36.9380 N   0  0  0  0  0  0  0  0  0  0  0  0
   38.9970   24.2570   36.1040 C   0  0  0  0  0  0  0  0  0  0  0  0
   39.8160   23.3100   36.5160 N   0  0  0  0  0  0  0  0  0  0  0  0
   40.2394   26.5292   34.2912 H   0  0  0  0  0  0  0  0  0  0  0  0
   39.2938   26.6065   35.8469 H   0  0  0  0  0  0  0  0  0  0  0  0
   37.2346   27.5365   35.9614 H   0  0  0  0  0  0  0  0  0  0  0  0
   35.3961   28.9073   34.9742 H   0  0  0  0  0  0  0  0  0  0  0  0
   36.7571   29.3670   30.6088 H   0  0  0  0  0  0  0  0  0  0  0  0
   38.0792   28.1825   30.3333 H   0  0  0  0  0  0  0  0  0  0  0  0
   36.3683   27.6350   30.3333 H   0  0  0  0  0  0  0  0  0  0  0  0
   38.0451   24.6535   34.2367 H   0  0  0  0  0  0  0  0  0  0  0  0
   39.8157   24.3485   34.1383 H   0  0  0  0  0  0  0  0  0  0  0  0
   40.4555   22.0379   38.0851 H   0  0  0  0  0  0  0  0  0  0  0  0
   38.7559   22.9297   39.7099 H   0  0  0  0  0  0  0  0  0  0  0  0
   37.1785   24.7599   38.8932 H   0  0  0  0  0  0  0  0  0  0  0  0
  2  1  1  0
  2  3  2  0
  4  3  1  0
  5  4  2  0
  6  7  2  0
  6  5  1  0
  7  2  1  0
  8  6  1  0
  9  1  1  0
  9 14  1  0
 10 11  2  0
 12 11  1  0
 13 12  2  0
 14 15  2  0
 14 13  1  0
 15 10  1  0
  1 16  1  0
  1 17  1  0
  3 18  1  0
  4 19  1  0
  8 20  1  0
  8 21  1  0
  8 22  1  0
  9 23  1  0
  9 24  1  0
 10 25  1  0
 11 26  1  0
 12 27  1  0
M  ISO  8  16   8  17   8  18  14  19  14  20   8  21   8  22   8  23   8
M  ISO  4  24   8  25  14  26  14  27  14
M  END
>  <minimizedAffinity>  (1) 
-4.19097948

>  <minimizedRMSD>  (1) 
0.0271777101

$$$$
