
     RDKit          3D

 37 40  0  0  1  0  0  0  0  0999 V2000
   39.6530   25.1420   34.6570 C   0  0  1  0  0  0  0  0  0  0  0  0
   40.4950   26.4570   34.6860 C   0  0  0  0  0  0  0  0  0  0  0  0
   41.0460   25.2240   34.1470 C   0  0  1  0  0  0  0  0  0  0  0  0
   42.1230   24.6290   34.9950 C   0  0  0  0  0  0  0  0  0  0  0  0
   42.2270   23.2690   34.9140 C   0  0  0  0  0  0  0  0  0  0  0  0
   43.1900   22.5310   35.6160 C   0  0  0  0  0  0  0  0  0  0  0  0
   44.0560   23.1690   36.4070 N   0  0  0  0  0  0  0  0  0  0  0  0
   43.9580   24.5230   36.4920 C   0  0  0  0  0  0  0  0  0  0  0  0
   43.0350   25.2060   35.8180 N   0  0  0  0  0  0  0  0  0  0  0  0
   43.2680   21.1150   35.5070 N   0  0  0  0  0  0  0  0  0  0  0  0
   43.2620   20.5110   36.7050 N   0  0  0  0  0  0  0  0  0  0  0  0
   43.3370   19.1740   36.5370 C   0  0  0  0  0  0  0  0  0  0  0  0
   43.3940   18.9470   35.1730 C   0  0  0  0  0  0  0  0  0  0  0  0
   43.3490   20.1830   34.5450 C   0  0  0  0  0  0  0  0  0  0  0  0
   44.8840   25.3230   37.3440 C   0  0  0  0  0  0  0  0  0  0  0  0
   44.2970   25.6420   38.5260 F   0  0  0  0  0  0  0  0  0  0  0  0
   45.3510   26.4140   36.6400 F   0  0  0  0  0  0  0  0  0  0  0  0
   45.9730   24.4700   37.6020 F   0  0  0  0  0  0  0  0  0  0  0  0
   39.6880   22.8720   37.5000 C   0  0  0  0  0  0  0  0  0  0  0  0
   38.6450   23.3450   38.3160 C   0  0  0  0  0  0  0  0  0  0  0  0
   37.9280   24.4840   37.8650 C   0  0  0  0  0  0  0  0  0  0  0  0
   38.3020   25.0350   36.6720 N   0  0  0  0  0  0  0  0  0  0  0  0
   39.2890   24.5490   35.9500 C   0  0  0  0  0  0  0  0  0  0  0  0
   39.9940   23.4820   36.3300 N   0  0  0  0  0  0  0  0  0  0  0  0
   40.3800   21.7320   37.9560 N   0  0  0  0  0  0  0  0  0  0  0  0
   38.7118   24.7641   34.2312 H   0  0  0  0  0  0  0  0  0  0  0  0
   40.2426   27.2903   34.0137 H   0  0  0  0  0  0  0  0  0  0  0  0
   40.7965   27.1783   35.4599 H   0  0  0  0  0  0  0  0  0  0  0  0
   41.4927   24.9282   33.1863 H   0  0  0  0  0  0  0  0  0  0  0  0
   41.5213   22.7274   34.2670 H   0  0  0  0  0  0  0  0  0  0  0  0
   43.3503   18.4123   37.3305 H   0  0  0  0  0  0  0  0  0  0  0  0
   43.4624   17.9670   34.6781 H   0  0  0  0  0  0  0  0  0  0  0  0
   43.3749   20.3652   33.4605 H   0  0  0  0  0  0  0  0  0  0  0  0
   38.3945   22.8516   39.2667 H   0  0  0  0  0  0  0  0  0  0  0  0
   37.1015   24.9076   38.4544 H   0  0  0  0  0  0  0  0  0  0  0  0
   41.1533   21.3418   37.3987 H   0  0  0  0  0  0  0  0  0  0  0  0
   40.1124   21.2891   38.8466 H   0  0  0  0  0  0  0  0  0  0  0  0
  1  2  1  0
  1 23  1  0
  3  1  1  0
  3  2  1  0
  3  4  1  0
  4  9  1  0
  5  4  2  0
  5  6  1  0
  6  7  2  0
  7  8  1  0
  8 15  1  0
  9  8  2  0
 10  6  1  0
 10 11  1  0
 12 11  2  0
 13 12  1  0
 14 13  2  0
 14 10  1  0
 15 18  1  0
 15 16  1  0
 17 15  1  0
 19 25  1  0
 19 20  2  0
 21 20  1  0
 22 21  2  0
 23 24  2  0
 23 22  1  0
 24 19  1  0
  1 26  1  6
  2 27  1  0
  2 28  1  0
  3 29  1  6
  5 30  1  0
 12 31  1  0
 13 32  1  0
 14 33  1  0
 20 34  1  0
 21 35  1  0
 25 36  1  0
 25 37  1  0
M  ISO  8  26  13  27  13  28  13  29  13  30  14  31  14  32  14  33  14
M  ISO  2  34  14  35  14
M  END
>  <minimizedAffinity>  (1) 
-6.11319876

>  <minimizedRMSD>  (1) 
0.415378362

$$$$
