
     RDKit          3D

 44 48  0  0  1  0  0  0  0  0999 V2000
   41.6800   24.6920   34.7250 C   0  0  0  0  0  0  0  0  0  0  0  0
   41.8660   23.3890   34.3610 C   0  0  0  0  0  0  0  0  0  0  0  0
   42.9410   22.6130   34.8130 C   0  0  0  0  0  0  0  0  0  0  0  0
   43.8410   23.1690   35.6460 N   0  0  0  0  0  0  0  0  0  0  0  0
   43.6560   24.4520   36.0030 C   0  0  0  0  0  0  0  0  0  0  0  0
   42.6290   25.1750   35.5650 N   0  0  0  0  0  0  0  0  0  0  0  0
   43.0680   21.2240   34.3750 C   0  0  0  0  0  0  0  0  0  0  0  0
   43.1290   20.7690   33.0740 C   0  0  0  0  0  0  0  0  0  0  0  0
   43.2430   19.4260   33.1490 N   0  0  0  0  0  0  0  0  0  0  0  0
   43.2560   19.0250   34.4400 C   0  0  0  0  0  0  0  0  0  0  0  0
   43.3600   17.7260   34.8780 C   0  0  0  0  0  0  0  0  0  0  0  0
   43.3500   17.5670   36.2660 C   0  0  0  0  0  0  0  0  0  0  0  0
   43.2410   18.6570   37.1370 C   0  0  0  0  0  0  0  0  0  0  0  0
   43.1410   19.9420   36.5920 C   0  0  0  0  0  0  0  0  0  0  0  0
   43.1460   20.1500   35.2250 C   0  0  0  0  0  0  0  0  0  0  0  0
   39.2110   25.2520   34.8390 C   0  0  1  0  0  0  0  0  0  0  0  0
   40.0670   26.5640   34.7900 C   0  0  0  0  0  0  0  0  0  0  0  0
   40.4840   25.3490   34.1110 C   0  0  1  0  0  0  0  0  0  0  0  0
   39.7050   22.8610   37.5350 C   0  0  0  0  0  0  0  0  0  0  0  0
   38.8010   23.2910   38.5290 C   0  0  0  0  0  0  0  0  0  0  0  0
   38.0220   24.4380   38.2490 C   0  0  0  0  0  0  0  0  0  0  0  0
   38.1920   25.0510   37.0380 N   0  0  0  0  0  0  0  0  0  0  0  0
   39.0520   24.6070   36.1460 C   0  0  0  0  0  0  0  0  0  0  0  0
   39.8150   23.5250   36.3620 N   0  0  0  0  0  0  0  0  0  0  0  0
   40.4660   21.7080   37.8260 N   0  0  0  0  0  0  0  0  0  0  0  0
   44.6090   25.1500   36.9190 C   0  0  0  0  0  0  0  0  0  0  0  0
   44.0700   25.2980   38.1580 F   0  0  0  0  0  0  0  0  0  0  0  0
   45.0340   26.3330   36.3500 F   0  0  0  0  0  0  0  0  0  0  0  0
   45.7190   24.2900   37.0130 F   0  0  0  0  0  0  0  0  0  0  0  0
   41.1364   22.9265   33.6800 H   0  0  0  0  0  0  0  0  0  0  0  0
   43.0921   21.3784   32.1590 H   0  0  0  0  0  0  0  0  0  0  0  0
   43.3105   18.7957   32.3372 H   0  0  0  0  0  0  0  0  0  0  0  0
   43.4448   16.8746   34.1866 H   0  0  0  0  0  0  0  0  0  0  0  0
   43.4303   16.5540   36.6872 H   0  0  0  0  0  0  0  0  0  0  0  0
   43.2341   18.5068   38.2267 H   0  0  0  0  0  0  0  0  0  0  0  0
   43.0565   20.8067   37.2667 H   0  0  0  0  0  0  0  0  0  0  0  0
   38.2087   24.8960   34.5585 H   0  0  0  0  0  0  0  0  0  0  0  0
   39.7196   27.4323   34.2110 H   0  0  0  0  0  0  0  0  0  0  0  0
   40.5100   27.2450   35.5316 H   0  0  0  0  0  0  0  0  0  0  0  0
   40.7514   25.0988   33.0737 H   0  0  0  0  0  0  0  0  0  0  0  0
   38.7056   22.7550   39.4848 H   0  0  0  0  0  0  0  0  0  0  0  0
   37.3007   24.8256   38.9835 H   0  0  0  0  0  0  0  0  0  0  0  0
   41.1417   21.3493   37.1363 H   0  0  0  0  0  0  0  0  0  0  0  0
   40.3455   21.2255   38.7280 H   0  0  0  0  0  0  0  0  0  0  0  0
  1  6  1  0
  2  1  2  0
  2  3  1  0
  3  4  2  0
  4  5  1  0
  5 26  1  0
  6  5  2  0
  7  3  1  0
  7 15  1  0
  8  9  1  0
  8  7  2  0
  9 10  1  0
 10 11  1  0
 10 15  2  0
 11 12  2  0
 12 13  1  0
 14 13  2  0
 15 14  1  0
 16 23  1  0
 17 16  1  0
 18  1  1  0
 18 17  1  0
 18 16  1  0
 19 25  1  0
 19 20  2  0
 21 20  1  0
 22 21  2  0
 23 24  2  0
 23 22  1  0
 24 19  1  0
 26 29  1  0
 26 27  1  0
 28 26  1  0
  2 30  1  0
  8 31  1  0
  9 32  1  0
 11 33  1  0
 12 34  1  0
 13 35  1  0
 14 36  1  0
 16 37  1  6
 17 38  1  0
 17 39  1  0
 18 40  1  6
 20 41  1  0
 21 42  1  0
 25 43  1  0
 25 44  1  0
M  ISO  8  30  14  31  14  32   9  33  14  34  14  35  14  36  14  37  13
M  ISO  5  38  13  39  13  40  13  41  14  42  14
M  END
>  <minimizedAffinity>  (1) 
-5.99648619

>  <minimizedRMSD>  (1) 
0.794398665

$$$$
