
     RDKit          3D

 26 27  0  0  0  0  0  0  0  0999 V2000
   39.0640   26.1780   34.6810 C   0  0  0  0  0  0  0  0  0  0  0  0
   37.9500   26.9580   34.0780 C   0  0  0  0  0  0  0  0  0  0  0  0
   37.1720   27.7790   34.8570 C   0  0  0  0  0  0  0  0  0  0  0  0
   36.1130   28.5350   34.3480 C   0  0  0  0  0  0  0  0  0  0  0  0
   35.8620   28.4360   33.0200 N   0  0  0  0  0  0  0  0  0  0  0  0
   36.6250   27.6270   32.2400 C   0  0  0  0  0  0  0  0  0  0  0  0
   37.6330   26.9230   32.7940 N   0  0  0  0  0  0  0  0  0  0  0  0
   36.3930   27.4860   30.8040 C   0  0  0  0  0  0  0  0  0  0  0  0
   36.6500   28.4420   29.9970 O   0  0  0  0  0  0  0  0  0  0  0  0
   38.8130   24.6960   34.6950 C   0  0  0  0  0  0  0  0  0  0  0  0
   39.7680   22.8250   37.7770 C   0  0  0  0  0  0  0  0  0  0  0  0
   38.8530   23.3330   38.7090 C   0  0  0  0  0  0  0  0  0  0  0  0
   37.9160   24.3100   38.2800 C   0  0  0  0  0  0  0  0  0  0  0  0
   37.9640   24.6990   36.9740 N   0  0  0  0  0  0  0  0  0  0  0  0
   38.8630   24.1840   36.1090 C   0  0  0  0  0  0  0  0  0  0  0  0
   39.7520   23.2640   36.4950 N   0  0  0  0  0  0  0  0  0  0  0  0
   39.2070   26.5177   35.7174 H   0  0  0  0  0  0  0  0  0  0  0  0
   39.9560   26.3514   34.0611 H   0  0  0  0  0  0  0  0  0  0  0  0
   37.3931   27.8445   35.9326 H   0  0  0  0  0  0  0  0  0  0  0  0
   35.5080   29.1838   34.9984 H   0  0  0  0  0  0  0  0  0  0  0  0
   35.9903   26.5406   30.4116 H   0  0  0  0  0  0  0  0  0  0  0  0
   37.8211   24.4895   34.2667 H   0  0  0  0  0  0  0  0  0  0  0  0
   39.5868   24.1909   34.0982 H   0  0  0  0  0  0  0  0  0  0  0  0
   40.5021   22.0669   38.0873 H   0  0  0  0  0  0  0  0  0  0  0  0
   38.8605   22.9821   39.7515 H   0  0  0  0  0  0  0  0  0  0  0  0
   37.1787   24.7372   38.9756 H   0  0  0  0  0  0  0  0  0  0  0  0
  1 10  1  0
  2  1  1  0
  2  3  2  0
  4  3  1  0
  5  4  2  0
  6  7  2  0
  6  5  1  0
  7  2  1  0
  8  6  1  0
  9  8  2  0
 10 15  1  0
 11 12  2  0
 13 12  1  0
 14 13  2  0
 15 16  2  0
 15 14  1  0
 16 11  1  0
  1 17  1  0
  1 18  1  0
  3 19  1  0
  4 20  1  0
  8 21  1  0
 10 22  1  0
 10 23  1  0
 11 24  1  0
 12 25  1  0
 13 26  1  0
M  ISO  8  17   8  18   8  19  14  20  14  21   6  22   8  23   8  24  14
M  ISO  2  25  14  26  14
M  END
>  <minimizedAffinity>  (1) 
-4.18679762

>  <minimizedRMSD>  (1) 
0.51114279

$$$$
