
     RDKit          3D

 37 39  0  0  1  0  0  0  0  0999 V2000
   42.0550   24.6400   34.8910 C   0  0  0  0  0  0  0  0  0  0  0  0
   42.2800   23.3130   34.6640 C   0  0  0  0  0  0  0  0  0  0  0  0
   43.3070   22.5890   35.2820 C   0  0  0  0  0  0  0  0  0  0  0  0
   44.1140   23.2070   36.1340 N   0  0  0  0  0  0  0  0  0  0  0  0
   43.9040   24.5200   36.3680 C   0  0  0  0  0  0  0  0  0  0  0  0
   42.9230   25.1950   35.7730 N   0  0  0  0  0  0  0  0  0  0  0  0
   43.4370   21.2000   34.9490 N   0  0  0  0  0  0  0  0  0  0  0  0
   43.6240   20.2510   35.9660 C   0  0  0  0  0  0  0  0  0  0  0  0
   42.9840   20.3340   37.0750 N   0  0  0  0  0  0  0  0  0  0  0  0
   44.5480   19.1590   35.7620 N   0  0  0  0  0  0  0  0  0  0  0  0
   42.3200   21.0910   37.2520 H   0  0  0  0  0  0  0  0  0  0  0  0
   39.5670   25.1360   34.7060 C   0  0  1  0  0  0  0  0  0  0  0  0
   40.3980   26.4600   34.6990 C   0  0  0  0  0  0  0  0  0  0  0  0
   40.9250   25.2380   34.1170 C   0  0  1  0  0  0  0  0  0  0  0  0
   39.7820   22.8310   37.5100 C   0  0  0  0  0  0  0  0  0  0  0  0
   38.7850   23.2920   38.3930 C   0  0  0  0  0  0  0  0  0  0  0  0
   38.0400   24.4300   38.0000 C   0  0  0  0  0  0  0  0  0  0  0  0
   38.3410   24.9980   36.7940 N   0  0  0  0  0  0  0  0  0  0  0  0
   39.2860   24.5230   36.0100 C   0  0  0  0  0  0  0  0  0  0  0  0
   40.0150   23.4580   36.3330 N   0  0  0  0  0  0  0  0  0  0  0  0
   40.5040   21.6890   37.9100 N   0  0  0  0  0  0  0  0  0  0  0  0
   44.7680   25.2930   37.3040 C   0  0  0  0  0  0  0  0  0  0  0  0
   44.0990   25.5720   38.4600 F   0  0  0  0  0  0  0  0  0  0  0  0
   45.2710   26.4140   36.6750 F   0  0  0  0  0  0  0  0  0  0  0  0
   45.8420   24.4400   37.6090 F   0  0  0  0  0  0  0  0  0  0  0  0
   41.6206   22.7851   33.9593 H   0  0  0  0  0  0  0  0  0  0  0  0
   43.3932   20.8994   33.9648 H   0  0  0  0  0  0  0  0  0  0  0  0
   44.6900   18.4591   36.5042 H   0  0  0  0  0  0  0  0  0  0  0  0
   45.0646   19.0805   34.8744 H   0  0  0  0  0  0  0  0  0  0  0  0
   38.6051   24.7543   34.3330 H   0  0  0  0  0  0  0  0  0  0  0  0
   40.0992   27.2973   34.0512 H   0  0  0  0  0  0  0  0  0  0  0  0
   40.7385   27.1768   35.4607 H   0  0  0  0  0  0  0  0  0  0  0  0
   41.3173   24.9581   33.1282 H   0  0  0  0  0  0  0  0  0  0  0  0
   38.5930   22.7869   39.3511 H   0  0  0  0  0  0  0  0  0  0  0  0
   37.2476   24.8421   38.6421 H   0  0  0  0  0  0  0  0  0  0  0  0
   41.2443   21.3089   37.3030 H   0  0  0  0  0  0  0  0  0  0  0  0
   40.2915   21.2343   38.8094 H   0  0  0  0  0  0  0  0  0  0  0  0
  1  6  1  0
  2  1  2  0
  2  3  1  0
  3  4  2  0
  4  5  1  0
  5 22  1  0
  6  5  2  0
  7  3  1  0
  7  8  1  0
  8  9  2  0
  9 11  1  0
 10  8  1  0
 12 19  1  0
 13 12  1  0
 14 13  1  0
 14 12  1  0
 14  1  1  0
 15 21  1  0
 15 16  2  0
 17 16  1  0
 18 17  2  0
 19 20  2  0
 19 18  1  0
 20 15  1  0
 22 25  1  0
 22 23  1  0
 24 22  1  0
  2 26  1  0
  7 27  1  0
 10 28  1  0
 10 29  1  0
 12 30  1  6
 13 31  1  0
 13 32  1  0
 14 33  1  6
 16 34  1  0
 17 35  1  0
 21 36  1  0
 21 37  1  0
M  ISO  7  26  14  30  13  31  13  32  13  33  13  34  14  35  14
M  END
>  <minimizedAffinity>  (1) 
-5.86340284

>  <minimizedRMSD>  (1) 
0.0600462332

$$$$
