
     RDKit          3D

 37 40  0  0  1  0  0  0  0  0999 V2000
   39.6780   25.0600   34.5750 C   0  0  1  0  0  0  0  0  0  0  0  0
   40.5180   26.3850   34.5660 C   0  0  0  0  0  0  0  0  0  0  0  0
   41.0600   25.1320   34.0790 C   0  0  1  0  0  0  0  0  0  0  0  0
   39.6650   22.8770   37.4840 C   0  0  0  0  0  0  0  0  0  0  0  0
   38.6320   23.4030   38.2890 C   0  0  0  0  0  0  0  0  0  0  0  0
   37.9450   24.5390   37.8040 C   0  0  0  0  0  0  0  0  0  0  0  0
   38.3240   25.0520   36.5950 N   0  0  0  0  0  0  0  0  0  0  0  0
   39.2950   24.5220   35.8850 C   0  0  0  0  0  0  0  0  0  0  0  0
   39.9790   23.4450   36.2980 N   0  0  0  0  0  0  0  0  0  0  0  0
   40.3340   21.7320   37.9770 N   0  0  0  0  0  0  0  0  0  0  0  0
   42.1350   24.5550   34.9460 C   0  0  0  0  0  0  0  0  0  0  0  0
   42.2600   23.1990   34.8780 C   0  0  0  0  0  0  0  0  0  0  0  0
   43.2290   22.4910   35.6050 C   0  0  0  0  0  0  0  0  0  0  0  0
   44.0720   23.1540   36.4040 N   0  0  0  0  0  0  0  0  0  0  0  0
   43.9460   24.4940   36.4690 C   0  0  0  0  0  0  0  0  0  0  0  0
   43.0240   25.1550   35.7760 N   0  0  0  0  0  0  0  0  0  0  0  0
   43.3420   21.0370   35.5150 C   0  0  0  0  0  0  0  0  0  0  0  0
   43.4670   20.1380   36.5580 C   0  0  0  0  0  0  0  0  0  0  0  0
   43.5580   18.8250   36.2450 C   0  0  0  0  0  0  0  0  0  0  0  0
   43.5220   18.4440   34.8990 C   0  0  0  0  0  0  0  0  0  0  0  0
   43.3440   20.1230   34.1050 S   0  0  0  0  0  0  0  0  0  0  0  0
   44.8470   25.3160   37.3270 C   0  0  0  0  0  0  0  0  0  0  0  0
   44.2410   25.6250   38.5090 F   0  0  0  0  0  0  0  0  0  0  0  0
   45.2920   26.4190   36.6270 F   0  0  0  0  0  0  0  0  0  0  0  0
   45.9540   24.4950   37.5950 F   0  0  0  0  0  0  0  0  0  0  0  0
   38.7460   24.6557   34.1531 H   0  0  0  0  0  0  0  0  0  0  0  0
   40.2713   27.1939   33.8625 H   0  0  0  0  0  0  0  0  0  0  0  0
   40.8153   27.1354   35.3134 H   0  0  0  0  0  0  0  0  0  0  0  0
   41.5113   24.8063   33.1302 H   0  0  0  0  0  0  0  0  0  0  0  0
   38.3718   22.9469   39.2556 H   0  0  0  0  0  0  0  0  0  0  0  0
   37.1292   24.9969   38.3826 H   0  0  0  0  0  0  0  0  0  0  0  0
   41.0963   21.3059   37.4309 H   0  0  0  0  0  0  0  0  0  0  0  0
   40.0588   21.3245   38.8821 H   0  0  0  0  0  0  0  0  0  0  0  0
   41.5737   22.6375   34.2271 H   0  0  0  0  0  0  0  0  0  0  0  0
   43.4916   20.4779   37.6039 H   0  0  0  0  0  0  0  0  0  0  0  0
   43.6588   18.0681   37.0368 H   0  0  0  0  0  0  0  0  0  0  0  0
   43.5814   17.4452   34.4420 H   0  0  0  0  0  0  0  0  0  0  0  0
  1  8  1  0
  2  1  1  0
  3  2  1  0
  3  1  1  0
  3 11  1  0
  4 10  1  0
  4  5  2  0
  6  5  1  0
  7  6  2  0
  8  9  2  0
  8  7  1  0
  9  4  1  0
 11 16  1  0
 12 11  2  0
 12 13  1  0
 13 14  2  0
 14 15  1  0
 15 22  1  0
 16 15  2  0
 17 13  1  0
 17 18  2  0
 19 18  1  0
 20 19  2  0
 21 20  1  0
 21 17  1  0
 22 25  1  0
 22 23  1  0
 24 22  1  0
  1 26  1  6
  2 27  1  0
  2 28  1  0
  3 29  1  6
  5 30  1  0
  6 31  1  0
 10 32  1  0
 10 33  1  0
 12 34  1  0
 18 35  1  0
 19 36  1  0
 20 37  1  0
M  ISO  8  26  13  27  13  28  13  29  13  30  14  31  14  34  14  35  14
M  ISO  2  36  14  37  14
M  END
>  <minimizedAffinity>  (1) 
-5.76783037

>  <minimizedRMSD>  (1) 
0.434527308

$$$$
