
     RDKit          3D

 37 40  0  0  1  0  0  0  0  0999 V2000
   39.8100   25.0250   34.5640 C   0  0  1  0  0  0  0  0  0  0  0  0
   40.6210   26.3660   34.5750 C   0  0  0  0  0  0  0  0  0  0  0  0
   41.2090   25.1310   34.0820 C   0  0  1  0  0  0  0  0  0  0  0  0
   39.8170   22.8150   37.4540 C   0  0  0  0  0  0  0  0  0  0  0  0
   38.7720   23.3050   38.2510 C   0  0  0  0  0  0  0  0  0  0  0  0
   38.0590   24.4410   37.7720 C   0  0  0  0  0  0  0  0  0  0  0  0
   38.4460   24.9650   36.5710 N   0  0  0  0  0  0  0  0  0  0  0  0
   39.4350   24.4610   35.8650 C   0  0  0  0  0  0  0  0  0  0  0  0
   40.1370   23.3950   36.2720 N   0  0  0  0  0  0  0  0  0  0  0  0
   40.4990   21.6850   37.9370 N   0  0  0  0  0  0  0  0  0  0  0  0
   42.2840   24.5830   34.9660 C   0  0  0  0  0  0  0  0  0  0  0  0
   42.4950   23.2390   34.8430 C   0  0  0  0  0  0  0  0  0  0  0  0
   43.4800   22.5530   35.5750 C   0  0  0  0  0  0  0  0  0  0  0  0
   44.2480   23.2210   36.4270 N   0  0  0  0  0  0  0  0  0  0  0  0
   44.0430   24.5500   36.5510 C   0  0  0  0  0  0  0  0  0  0  0  0
   43.1070   25.1920   35.8540 N   0  0  0  0  0  0  0  0  0  0  0  0
   43.6340   21.1130   35.3780 C   0  0  0  0  0  0  0  0  0  0  0  0
   44.6320   20.3500   35.9450 C   0  0  0  0  0  0  0  0  0  0  0  0
   44.4030   19.0570   35.5000 C   0  0  0  0  0  0  0  0  0  0  0  0
   43.3170   19.0560   34.7030 N   0  0  0  0  0  0  0  0  0  0  0  0
   42.8530   20.3110   34.6320 N   0  0  0  0  0  0  0  0  0  0  0  0
   44.8610   25.3870   37.4790 C   0  0  0  0  0  0  0  0  0  0  0  0
   44.1590   25.6910   38.6060 F   0  0  0  0  0  0  0  0  0  0  0  0
   45.3520   26.4920   36.8150 F   0  0  0  0  0  0  0  0  0  0  0  0
   45.9510   24.5720   37.8400 F   0  0  0  0  0  0  0  0  0  0  0  0
   38.8888   24.6102   34.1289 H   0  0  0  0  0  0  0  0  0  0  0  0
   40.3634   27.1746   33.8751 H   0  0  0  0  0  0  0  0  0  0  0  0
   40.8893   27.1155   35.3341 H   0  0  0  0  0  0  0  0  0  0  0  0
   41.6818   24.8215   33.1383 H   0  0  0  0  0  0  0  0  0  0  0  0
   38.5132   22.8302   39.2089 H   0  0  0  0  0  0  0  0  0  0  0  0
   37.2295   24.8792   38.3463 H   0  0  0  0  0  0  0  0  0  0  0  0
   41.2755   21.2811   37.3941 H   0  0  0  0  0  0  0  0  0  0  0  0
   40.2223   21.2608   38.8339 H   0  0  0  0  0  0  0  0  0  0  0  0
   41.8677   22.6694   34.1416 H   0  0  0  0  0  0  0  0  0  0  0  0
   45.4386   20.6938   36.6093 H   0  0  0  0  0  0  0  0  0  0  0  0
   45.0093   18.1756   35.7560 H   0  0  0  0  0  0  0  0  0  0  0  0
   42.9138   18.2342   34.2308 H   0  0  0  0  0  0  0  0  0  0  0  0
  1  2  1  0
  1  8  1  0
  3  1  1  0
  3  2  1  0
  3 11  1  0
  4 10  1  0
  4  5  2  0
  6  5  1  0
  7  6  2  0
  8  9  2  0
  8  7  1  0
  9  4  1  0
 11 16  1  0
 12 11  2  0
 12 13  1  0
 13 14  2  0
 14 15  1  0
 15 22  1  0
 16 15  2  0
 17 13  1  0
 17 18  1  0
 19 18  2  0
 20 19  1  0
 21 20  1  0
 21 17  2  0
 22 25  1  0
 22 23  1  0
 24 22  1  0
  1 26  1  6
  2 27  1  0
  2 28  1  0
  3 29  1  6
  5 30  1  0
  6 31  1  0
 10 32  1  0
 10 33  1  0
 12 34  1  0
 18 35  1  0
 19 36  1  0
 20 37  1  0
M  ISO  8  26  13  27  13  28  13  29  13  30  14  31  14  34  14  35  14
M  ISO  2  36  14  37   9
M  END
>  <minimizedAffinity>  (1) 
-5.67515421

>  <minimizedRMSD>  (1) 
0.352025479

$$$$
