
     RDKit          3D

 37 40  0  0  1  0  0  0  0  0999 V2000
   39.6300   25.1020   34.6870 C   0  0  1  0  0  0  0  0  0  0  0  0
   40.4520   26.4360   34.6880 C   0  0  0  0  0  0  0  0  0  0  0  0
   40.9940   25.2080   34.1270 C   0  0  1  0  0  0  0  0  0  0  0  0
   39.7940   22.8180   37.5110 C   0  0  0  0  0  0  0  0  0  0  0  0
   38.7780   23.2880   38.3760 C   0  0  0  0  0  0  0  0  0  0  0  0
   38.0390   24.4270   37.9580 C   0  0  0  0  0  0  0  0  0  0  0  0
   38.3600   24.9890   36.7530 N   0  0  0  0  0  0  0  0  0  0  0  0
   39.3170   24.5070   35.9900 C   0  0  0  0  0  0  0  0  0  0  0  0
   40.0500   23.4360   36.3300 N   0  0  0  0  0  0  0  0  0  0  0  0
   40.5100   21.6810   37.9250 N   0  0  0  0  0  0  0  0  0  0  0  0
   42.1130   24.6200   34.9260 C   0  0  0  0  0  0  0  0  0  0  0  0
   42.3150   23.2830   34.7380 C   0  0  0  0  0  0  0  0  0  0  0  0
   43.3270   22.5630   35.3830 C   0  0  0  0  0  0  0  0  0  0  0  0
   44.1470   23.2110   36.2340 N   0  0  0  0  0  0  0  0  0  0  0  0
   43.9480   24.5340   36.4210 C   0  0  0  0  0  0  0  0  0  0  0  0
   42.9800   25.1950   35.7960 N   0  0  0  0  0  0  0  0  0  0  0  0
   43.4710   21.1280   35.1220 C   0  0  0  0  0  0  0  0  0  0  0  0
   42.6820   20.4300   34.2330 C   0  0  0  0  0  0  0  0  0  0  0  0
   43.0850   19.1480   34.2420 N   0  0  0  0  0  0  0  0  0  0  0  0
   44.0980   19.1030   35.1300 C   0  0  0  0  0  0  0  0  0  0  0  0
   44.3640   20.2980   35.6900 N   0  0  0  0  0  0  0  0  0  0  0  0
   44.8150   25.3200   37.3390 C   0  0  0  0  0  0  0  0  0  0  0  0
   44.1520   25.6160   38.4890 F   0  0  0  0  0  0  0  0  0  0  0  0
   45.3160   26.4270   36.6830 F   0  0  0  0  0  0  0  0  0  0  0  0
   45.8910   24.4760   37.6550 F   0  0  0  0  0  0  0  0  0  0  0  0
   38.6822   24.7047   34.2948 H   0  0  0  0  0  0  0  0  0  0  0  0
   40.1618   27.2664   34.0275 H   0  0  0  0  0  0  0  0  0  0  0  0
   40.7729   27.1619   35.4496 H   0  0  0  0  0  0  0  0  0  0  0  0
   41.4063   24.9222   33.1481 H   0  0  0  0  0  0  0  0  0  0  0  0
   38.5684   22.7910   39.3347 H   0  0  0  0  0  0  0  0  0  0  0  0
   37.2351   24.8433   38.5828 H   0  0  0  0  0  0  0  0  0  0  0  0
   41.2597   21.2998   37.3304 H   0  0  0  0  0  0  0  0  0  0  0  0
   40.2848   21.2293   38.8229 H   0  0  0  0  0  0  0  0  0  0  0  0
   41.6500   22.7455   34.0459 H   0  0  0  0  0  0  0  0  0  0  0  0
   41.8669   20.8482   33.6241 H   0  0  0  0  0  0  0  0  0  0  0  0
   44.6510   18.1835   35.3724 H   0  0  0  0  0  0  0  0  0  0  0  0
   45.0842   20.5242   36.3908 H   0  0  0  0  0  0  0  0  0  0  0  0
  1  2  1  0
  1  8  1  0
  3  1  1  0
  3  2  1  0
  3 11  1  0
  4 10  1  0
  4  5  2  0
  6  5  1  0
  7  6  2  0
  8  9  2  0
  8  7  1  0
  9  4  1  0
 11 16  1  0
 12 11  2  0
 12 13  1  0
 13 14  2  0
 14 15  1  0
 15 22  1  0
 16 15  2  0
 17 13  1  0
 17 21  1  0
 18 19  1  0
 18 17  2  0
 19 20  2  0
 20 21  1  0
 22 25  1  0
 22 23  1  0
 24 22  1  0
  1 26  1  6
  2 27  1  0
  2 28  1  0
  3 29  1  6
  5 30  1  0
  6 31  1  0
 10 32  1  0
 10 33  1  0
 12 34  1  0
 18 35  1  0
 20 36  1  0
 21 37  1  0
M  ISO  8  26  13  27  13  28  13  29  13  30  14  31  14  34  14  35  14
M  ISO  2  36  14  37   9
M  END
>  <minimizedAffinity>  (1) 
-5.62851191

>  <minimizedRMSD>  (1) 
0.142497167

$$$$
