
     RDKit          3D

 42 44  0  0  1  0  0  0  0  0999 V2000
   39.7350   25.0000   34.5500 C   0  0  1  0  0  0  0  0  0  0  0  0
   40.5630   26.3290   34.5250 C   0  0  0  0  0  0  0  0  0  0  0  0
   41.1240   25.0820   34.0300 C   0  0  1  0  0  0  0  0  0  0  0  0
   39.8020   22.8200   37.4620 C   0  0  0  0  0  0  0  0  0  0  0  0
   38.7770   23.3260   38.2810 C   0  0  0  0  0  0  0  0  0  0  0  0
   38.0600   24.4540   37.8060 C   0  0  0  0  0  0  0  0  0  0  0  0
   38.4180   24.9700   36.5870 N   0  0  0  0  0  0  0  0  0  0  0  0
   39.3890   24.4510   35.8670 C   0  0  0  0  0  0  0  0  0  0  0  0
   40.0920   23.3920   36.2680 N   0  0  0  0  0  0  0  0  0  0  0  0
   40.4900   21.6920   37.9500 N   0  0  0  0  0  0  0  0  0  0  0  0
   42.2140   24.5290   34.8900 C   0  0  0  0  0  0  0  0  0  0  0  0
   42.4320   23.1880   34.7460 C   0  0  0  0  0  0  0  0  0  0  0  0
   43.4270   22.4980   35.4460 C   0  0  0  0  0  0  0  0  0  0  0  0
   44.2140   23.1740   36.3070 N   0  0  0  0  0  0  0  0  0  0  0  0
   43.9970   24.4970   36.4490 C   0  0  0  0  0  0  0  0  0  0  0  0
   43.0450   25.1370   35.7750 N   0  0  0  0  0  0  0  0  0  0  0  0
   44.8240   25.3220   37.3750 C   0  0  0  0  0  0  0  0  0  0  0  0
   44.1320   25.6180   38.5040 F   0  0  0  0  0  0  0  0  0  0  0  0
   45.3110   26.4320   36.7120 F   0  0  0  0  0  0  0  0  0  0  0  0
   45.9150   24.5030   37.7200 F   0  0  0  0  0  0  0  0  0  0  0  0
   43.6430   21.0580   35.2550 C   0  0  0  0  0  0  0  0  0  0  0  0
   45.0350   20.8510   34.6980 C   0  0  0  0  0  0  0  0  0  0  0  0
   43.4670   20.2570   36.5200 C   0  0  0  0  0  0  0  0  0  0  0  0
   42.6160   20.5800   34.2490 C   0  0  0  0  0  0  0  0  0  0  0  0
   38.7963   24.5950   34.1441 H   0  0  0  0  0  0  0  0  0  0  0  0
   40.2973   27.1333   33.8233 H   0  0  0  0  0  0  0  0  0  0  0  0
   40.8602   27.0827   35.2690 H   0  0  0  0  0  0  0  0  0  0  0  0
   41.5689   24.7569   33.0779 H   0  0  0  0  0  0  0  0  0  0  0  0
   38.5406   22.8653   39.2515 H   0  0  0  0  0  0  0  0  0  0  0  0
   37.2449   24.8995   38.3952 H   0  0  0  0  0  0  0  0  0  0  0  0
   41.2516   21.2741   37.3967 H   0  0  0  0  0  0  0  0  0  0  0  0
   40.2315   21.2850   38.8602 H   0  0  0  0  0  0  0  0  0  0  0  0
   41.7956   22.6250   34.0473 H   0  0  0  0  0  0  0  0  0  0  0  0
   45.7497   20.7447   35.5274 H   0  0  0  0  0  0  0  0  0  0  0  0
   45.0514   19.9405   34.0809 H   0  0  0  0  0  0  0  0  0  0  0  0
   45.3156   21.7173   34.0809 H   0  0  0  0  0  0  0  0  0  0  0  0
   43.6109   20.9121   37.3918 H   0  0  0  0  0  0  0  0  0  0  0  0
   42.4536   19.8300   36.5456 H   0  0  0  0  0  0  0  0  0  0  0  0
   44.2080   19.4445   36.5456 H   0  0  0  0  0  0  0  0  0  0  0  0
   41.7431   20.1737   34.7810 H   0  0  0  0  0  0  0  0  0  0  0  0
   42.3006   21.4239   33.6178 H   0  0  0  0  0  0  0  0  0  0  0  0
   43.0586   19.7953   33.6178 H   0  0  0  0  0  0  0  0  0  0  0  0
  1  8  1  0
  2  1  1  0
  3  2  1  0
  3  1  1  0
  3 11  1  0
  4 10  1  0
  4  5  2  0
  6  5  1  0
  7  6  2  0
  8  9  2  0
  8  7  1  0
  9  4  1  0
 11 16  1  0
 12 11  2  0
 12 13  1  0
 13 14  2  0
 14 15  1  0
 15 17  1  0
 16 15  2  0
 17 20  1  0
 17 18  1  0
 19 17  1  0
 21 13  1  0
 21 23  1  0
 22 21  1  0
 24 21  1  0
  1 25  1  6
  2 26  1  0
  2 27  1  0
  3 28  1  6
  5 29  1  0
  6 30  1  0
 10 31  1  0
 10 32  1  0
 12 33  1  0
 22 34  1  0
 22 35  1  0
 22 36  1  0
 23 37  1  0
 23 38  1  0
 23 39  1  0
 24 40  1  0
 24 41  1  0
 24 42  1  0
M  ISO  8  25  13  26  13  27  13  28  13  29  14  30  14  33  14  34   8
M  ISO  8  35   8  36   8  37   8  38   8  39   8  40   8  41   8  42   8
M  END
>  <minimizedAffinity>  (1) 
-5.5917592

>  <minimizedRMSD>  (1) 
0.344362587

$$$$
