
     RDKit          3D

 32 34  0  0  1  0  0  0  0  0999 V2000
   39.5990   25.1230   34.6960 C   0  0  1  0  0  0  0  0  0  0  0  0
   40.4130   26.4600   34.6970 C   0  0  0  0  0  0  0  0  0  0  0  0
   40.9470   25.2400   34.1220 C   0  0  1  0  0  0  0  0  0  0  0  0
   42.0820   24.6500   34.8980 C   0  0  0  0  0  0  0  0  0  0  0  0
   42.3070   23.3240   34.6630 C   0  0  0  0  0  0  0  0  0  0  0  0
   43.3360   22.6030   35.2800 C   0  0  0  0  0  0  0  0  0  0  0  0
   44.1470   23.2240   36.1430 N   0  0  0  0  0  0  0  0  0  0  0  0
   43.9260   24.5410   36.3800 C   0  0  0  0  0  0  0  0  0  0  0  0
   42.9430   25.2100   35.7830 N   0  0  0  0  0  0  0  0  0  0  0  0
   43.5420   21.2200   35.0120 N   0  0  0  0  0  0  0  0  0  0  0  0
   44.7800   25.3230   37.3220 C   0  0  0  0  0  0  0  0  0  0  0  0
   44.1070   25.5990   38.4690 F   0  0  0  0  0  0  0  0  0  0  0  0
   45.2900   26.4340   36.6830 F   0  0  0  0  0  0  0  0  0  0  0  0
   45.8570   24.4680   37.6300 F   0  0  0  0  0  0  0  0  0  0  0  0
   39.8070   22.8200   37.5000 C   0  0  0  0  0  0  0  0  0  0  0  0
   38.8060   23.2750   38.3830 C   0  0  0  0  0  0  0  0  0  0  0  0
   38.0620   24.4080   37.9870 C   0  0  0  0  0  0  0  0  0  0  0  0
   38.3560   24.9870   36.7830 N   0  0  0  0  0  0  0  0  0  0  0  0
   39.3040   24.5180   35.9990 C   0  0  0  0  0  0  0  0  0  0  0  0
   40.0420   23.4470   36.3200 N   0  0  0  0  0  0  0  0  0  0  0  0
   40.5400   21.6750   37.8980 N   0  0  0  0  0  0  0  0  0  0  0  0
   38.6489   24.7224   34.3128 H   0  0  0  0  0  0  0  0  0  0  0  0
   40.1109   27.2941   34.0467 H   0  0  0  0  0  0  0  0  0  0  0  0
   40.7418   27.1822   35.4588 H   0  0  0  0  0  0  0  0  0  0  0  0
   41.3452   24.9624   33.1349 H   0  0  0  0  0  0  0  0  0  0  0  0
   41.6490   22.7978   33.9558 H   0  0  0  0  0  0  0  0  0  0  0  0
   44.3069   20.7131   35.4798 H   0  0  0  0  0  0  0  0  0  0  0  0
   42.9261   20.7263   34.3503 H   0  0  0  0  0  0  0  0  0  0  0  0
   38.6128   22.7685   39.3402 H   0  0  0  0  0  0  0  0  0  0  0  0
   37.2671   24.8142   38.6297 H   0  0  0  0  0  0  0  0  0  0  0  0
   41.2824   21.3016   37.2895 H   0  0  0  0  0  0  0  0  0  0  0  0
   40.3306   21.2159   38.7959 H   0  0  0  0  0  0  0  0  0  0  0  0
  1  2  1  0
  1 19  1  0
  3  1  1  0
  3  2  1  0
  3  4  1  0
  4  9  1  0
  5  4  2  0
  5  6  1  0
  6  7  2  0
  7  8  1  0
  8 11  1  0
  9  8  2  0
 10  6  1  0
 11 14  1  0
 11 12  1  0
 13 11  1  0
 15 21  1  0
 15 16  2  0
 17 16  1  0
 18 17  2  0
 19 20  2  0
 19 18  1  0
 20 15  1  0
  1 22  1  6
  2 23  1  0
  2 24  1  0
  3 25  1  6
  5 26  1  0
 10 27  1  0
 10 28  1  0
 16 29  1  0
 17 30  1  0
 21 31  1  0
 21 32  1  0
M  ISO  7  22  13  23  13  24  13  25  13  26  14  29  14  30  14
M  END
>  <minimizedAffinity>  (1) 
-5.49450684

>  <minimizedRMSD>  (1) 
0.0271718241

$$$$
