
     RDKit          3D

 31 33  0  0  1  0  0  0  0  0999 V2000
   39.5860   25.1270   34.6960 C   0  0  1  0  0  0  0  0  0  0  0  0
   40.4100   26.4580   34.6970 C   0  0  0  0  0  0  0  0  0  0  0  0
   40.9480   25.2390   34.1130 C   0  0  1  0  0  0  0  0  0  0  0  0
   39.8110   22.8180   37.4980 C   0  0  0  0  0  0  0  0  0  0  0  0
   38.8130   23.2690   38.3840 C   0  0  0  0  0  0  0  0  0  0  0  0
   38.0610   24.4070   37.9900 C   0  0  0  0  0  0  0  0  0  0  0  0
   38.3580   24.9830   36.7840 N   0  0  0  0  0  0  0  0  0  0  0  0
   39.3050   24.5130   36.0010 C   0  0  0  0  0  0  0  0  0  0  0  0
   40.0410   23.4460   36.3220 N   0  0  0  0  0  0  0  0  0  0  0  0
   40.5400   21.6780   37.8950 N   0  0  0  0  0  0  0  0  0  0  0  0
   42.0800   24.6500   34.8920 C   0  0  0  0  0  0  0  0  0  0  0  0
   42.3070   23.3250   34.6510 C   0  0  0  0  0  0  0  0  0  0  0  0
   43.3400   22.6030   35.2670 C   0  0  0  0  0  0  0  0  0  0  0  0
   44.1480   23.2200   36.1310 N   0  0  0  0  0  0  0  0  0  0  0  0
   43.9250   24.5390   36.3730 C   0  0  0  0  0  0  0  0  0  0  0  0
   42.9390   25.2090   35.7790 N   0  0  0  0  0  0  0  0  0  0  0  0
   44.7780   25.3170   37.3170 C   0  0  0  0  0  0  0  0  0  0  0  0
   44.1030   25.5910   38.4620 F   0  0  0  0  0  0  0  0  0  0  0  0
   45.2890   26.4310   36.6860 F   0  0  0  0  0  0  0  0  0  0  0  0
   45.8530   24.4610   37.6270 F   0  0  0  0  0  0  0  0  0  0  0  0
   43.6050   20.8720   34.9250 S   0  0  0  0  0  0  0  0  0  0  0  0
   38.6292   24.7389   34.3166 H   0  0  0  0  0  0  0  0  0  0  0  0
   40.1092   27.2954   34.0503 H   0  0  0  0  0  0  0  0  0  0  0  0
   40.7425   27.1746   35.4624 H   0  0  0  0  0  0  0  0  0  0  0  0
   41.3456   24.9622   33.1254 H   0  0  0  0  0  0  0  0  0  0  0  0
   38.6242   22.7607   39.3411 H   0  0  0  0  0  0  0  0  0  0  0  0
   37.2658   24.8126   38.6327 H   0  0  0  0  0  0  0  0  0  0  0  0
   41.2820   21.3036   37.2866 H   0  0  0  0  0  0  0  0  0  0  0  0
   40.3304   21.2198   38.7933 H   0  0  0  0  0  0  0  0  0  0  0  0
   41.6501   22.8002   33.9418 H   0  0  0  0  0  0  0  0  0  0  0  0
   43.7103   20.1842   36.1052 H   0  0  0  0  0  0  0  0  0  0  0  0
  1  2  1  0
  1  8  1  0
  3  1  1  0
  3  2  1  0
  3 11  1  0
  4 10  1  0
  4  5  2  0
  6  5  1  0
  7  6  2  0
  8  9  2  0
  8  7  1  0
  9  4  1  0
 11 16  1  0
 12 11  2  0
 12 13  1  0
 13 14  2  0
 14 15  1  0
 15 17  1  0
 16 15  2  0
 17 20  1  0
 17 18  1  0
 19 17  1  0
 21 13  1  0
  1 22  1  6
  2 23  1  0
  2 24  1  0
  3 25  1  6
  5 26  1  0
  6 27  1  0
 10 28  1  0
 10 29  1  0
 12 30  1  0
 21 31  1  0
M  ISO  8  22  13  23  13  24  13  25  13  26  14  27  14  30  14  31  11
M  END
>  <minimizedAffinity>  (1) 
-5.49063349

>  <minimizedRMSD>  (1) 
0.0224761423

$$$$
