
     RDKit          3D

 49 53  0  0  1  0  0  0  0  0999 V2000
   42.0500   24.6010   34.9010 C   0  0  0  0  0  0  0  0  0  0  0  0
   42.1910   23.2650   34.7430 C   0  0  0  0  0  0  0  0  0  0  0  0
   43.1830   22.5070   35.3780 C   0  0  0  0  0  0  0  0  0  0  0  0
   44.0460   23.1320   36.1880 N   0  0  0  0  0  0  0  0  0  0  0  0
   43.9210   24.4620   36.3560 C   0  0  0  0  0  0  0  0  0  0  0  0
   42.9710   25.1560   35.7430 N   0  0  0  0  0  0  0  0  0  0  0  0
   43.2510   21.0410   35.1470 C   0  0  0  0  0  0  0  0  0  0  0  0
   43.0350   20.4710   33.8990 C   0  0  0  0  0  0  0  0  0  0  0  0
   43.2480   18.6640   34.2420 S   0  0  0  0  0  0  0  0  0  0  0  0
   43.6050   19.0280   36.0820 C   0  0  0  0  0  0  0  0  0  0  0  0
   43.5180   20.1870   36.1020 N   0  0  0  0  0  0  0  0  0  0  0  0
   43.8830   18.0190   37.0320 N   0  0  0  0  0  0  0  0  0  0  0  0
   42.7800   17.2660   37.2960 C   0  0  0  0  0  0  0  0  0  0  0  0
   42.8480   16.2160   38.2100 C   0  0  0  0  0  0  0  0  0  0  0  0
   41.6820   15.3500   38.5480 C   0  0  0  0  0  0  0  0  0  0  0  0
   44.0300   15.9440   38.8430 C   0  0  0  0  0  0  0  0  0  0  0  0
   44.2360   15.0350   39.6840 O   0  0  0  0  0  0  0  0  0  0  0  0
   45.0900   16.7170   38.5480 N   0  0  0  0  0  0  0  0  0  0  0  0
   45.0340   17.7330   37.6670 C   0  0  0  0  0  0  0  0  0  0  0  0
   45.9830   18.4870   37.3500 O   0  0  0  0  0  0  0  0  0  0  0  0
   39.5790   25.1480   34.7120 C   0  0  1  0  0  0  0  0  0  0  0  0
   40.4480   26.4670   34.6980 C   0  0  0  0  0  0  0  0  0  0  0  0
   40.9330   25.2430   34.1180 C   0  0  1  0  0  0  0  0  0  0  0  0
   39.7390   22.8530   37.5150 C   0  0  0  0  0  0  0  0  0  0  0  0
   38.7280   23.3110   38.3750 C   0  0  0  0  0  0  0  0  0  0  0  0
   37.9860   24.4550   37.9630 C   0  0  0  0  0  0  0  0  0  0  0  0
   38.3150   25.0280   36.7560 N   0  0  0  0  0  0  0  0  0  0  0  0
   39.2670   24.5530   36.0020 C   0  0  0  0  0  0  0  0  0  0  0  0
   39.9910   23.4840   36.3450 N   0  0  0  0  0  0  0  0  0  0  0  0
   40.4500   21.7110   37.9320 N   0  0  0  0  0  0  0  0  0  0  0  0
   44.8500   25.2340   37.2310 C   0  0  0  0  0  0  0  0  0  0  0  0
   44.2700   25.5250   38.4120 F   0  0  0  0  0  0  0  0  0  0  0  0
   45.3290   26.3410   36.5510 F   0  0  0  0  0  0  0  0  0  0  0  0
   45.9410   24.3760   37.4550 F   0  0  0  0  0  0  0  0  0  0  0  0
   41.4864   22.7442   34.0779 H   0  0  0  0  0  0  0  0  0  0  0  0
   42.7973   20.9679   32.9468 H   0  0  0  0  0  0  0  0  0  0  0  0
   41.8310   17.4872   36.7857 H   0  0  0  0  0  0  0  0  0  0  0  0
   41.5840   15.2772   39.6412 H   0  0  0  0  0  0  0  0  0  0  0  0
   40.7654   15.7880   38.1261 H   0  0  0  0  0  0  0  0  0  0  0  0
   41.8365   14.3460   38.1261 H   0  0  0  0  0  0  0  0  0  0  0  0
   45.9858   16.5227   39.0177 H   0  0  0  0  0  0  0  0  0  0  0  0
   38.6141   24.7696   34.3435 H   0  0  0  0  0  0  0  0  0  0  0  0
   40.1633   27.3111   34.0526 H   0  0  0  0  0  0  0  0  0  0  0  0
   40.8124   27.1764   35.4556 H   0  0  0  0  0  0  0  0  0  0  0  0
   41.3164   24.9718   33.1233 H   0  0  0  0  0  0  0  0  0  0  0  0
   38.5172   22.8062   39.3294 H   0  0  0  0  0  0  0  0  0  0  0  0
   37.1789   24.8657   38.5874 H   0  0  0  0  0  0  0  0  0  0  0  0
   41.2031   21.3293   37.3420 H   0  0  0  0  0  0  0  0  0  0  0  0
   40.2169   21.2576   38.8270 H   0  0  0  0  0  0  0  0  0  0  0  0
  1  6  1  0
  2  1  2  0
  2  3  1  0
  3  4  2  0
  4  5  1  0
  5 31  1  0
  6  5  2  0
  7  3  1  0
  7 11  1  0
  8  9  1  0
  8  7  2  0
  9 10  1  0
 10 11  2  0
 10 12  1  0
 12 13  1  0
 12 19  1  0
 13 14  2  0
 14 15  1  0
 14 16  1  0
 16 17  2  0
 18 16  1  0
 19 18  1  0
 20 19  2  0
 21 28  1  0
 22 21  1  0
 23 22  1  0
 23 21  1  0
 23  1  1  0
 24 30  1  0
 24 25  2  0
 26 25  1  0
 27 26  2  0
 28 29  2  0
 28 27  1  0
 29 24  1  0
 31 34  1  0
 31 32  1  0
 33 31  1  0
  2 35  1  0
  8 36  1  0
 13 37  1  0
 15 38  1  0
 15 39  1  0
 15 40  1  0
 18 41  1  0
 21 42  1  6
 22 43  1  0
 22 44  1  0
 23 45  1  6
 25 46  1  0
 26 47  1  0
 30 48  1  0
 30 49  1  0
M  ISO  8  35  14  36  14  37  14  38   8  39   8  40   8  41   9  42  13
M  ISO  5  43  13  44  13  45  13  46  14  47  14
M  END
>  <minimizedAffinity>  (1) 
-6.95652962

>  <minimizedRMSD>  (1) 
1.30059493

$$$$
