
     RDKit          3D

 47 51  0  0  1  0  0  0  0  0999 V2000
   41.9920   24.6570   34.8810 C   0  0  0  0  0  0  0  0  0  0  0  0
   42.1690   23.3370   34.6460 C   0  0  0  0  0  0  0  0  0  0  0  0
   43.1850   22.5720   35.2300 C   0  0  0  0  0  0  0  0  0  0  0  0
   44.0350   23.1720   36.0720 N   0  0  0  0  0  0  0  0  0  0  0  0
   43.8740   24.4850   36.3170 C   0  0  0  0  0  0  0  0  0  0  0  0
   42.9020   25.1860   35.7500 N   0  0  0  0  0  0  0  0  0  0  0  0
   43.2910   21.1210   34.9140 C   0  0  0  0  0  0  0  0  0  0  0  0
   43.1960   20.6320   33.6150 C   0  0  0  0  0  0  0  0  0  0  0  0
   43.3990   18.8060   33.8630 S   0  0  0  0  0  0  0  0  0  0  0  0
   43.5790   19.0540   35.7330 C   0  0  0  0  0  0  0  0  0  0  0  0
   43.4790   20.2140   35.8420 N   0  0  0  0  0  0  0  0  0  0  0  0
   43.7880   18.0310   36.7530 N   0  0  0  0  0  0  0  0  0  0  0  0
   42.8760   17.1660   37.1800 C   0  0  0  0  0  0  0  0  0  0  0  0
   43.2220   16.2540   38.1520 C   0  0  0  0  0  0  0  0  0  0  0  0
   44.4890   16.2130   38.6950 C   0  0  0  0  0  0  0  0  0  0  0  0
   44.8810   15.2840   39.6990 N   0  0  0  0  0  0  0  0  0  0  0  0
   45.3900   17.1180   38.2250 N   0  0  0  0  0  0  0  0  0  0  0  0
   45.0280   18.0110   37.2630 C   0  0  0  0  0  0  0  0  0  0  0  0
   45.9500   18.8110   36.8980 O   0  0  0  0  0  0  0  0  0  0  0  0
   39.5150   25.1960   34.7650 C   0  0  1  0  0  0  0  0  0  0  0  0
   40.3760   26.5190   34.7660 C   0  0  0  0  0  0  0  0  0  0  0  0
   40.8530   25.3140   34.1430 C   0  0  1  0  0  0  0  0  0  0  0  0
   39.7590   22.8410   37.5130 C   0  0  0  0  0  0  0  0  0  0  0  0
   38.7650   23.2730   38.4070 C   0  0  0  0  0  0  0  0  0  0  0  0
   38.0100   24.4140   38.0380 C   0  0  0  0  0  0  0  0  0  0  0  0
   38.2980   25.0190   36.8390 N   0  0  0  0  0  0  0  0  0  0  0  0
   39.2370   24.5710   36.0490 C   0  0  0  0  0  0  0  0  0  0  0  0
   39.9760   23.4980   36.3510 N   0  0  0  0  0  0  0  0  0  0  0  0
   40.4880   21.6950   37.8890 N   0  0  0  0  0  0  0  0  0  0  0  0
   44.7870   25.2300   37.2340 C   0  0  0  0  0  0  0  0  0  0  0  0
   44.1790   25.4970   38.4060 F   0  0  0  0  0  0  0  0  0  0  0  0
   45.2880   26.3510   36.5920 F   0  0  0  0  0  0  0  0  0  0  0  0
   45.8670   24.3580   37.4590 F   0  0  0  0  0  0  0  0  0  0  0  0
   41.4743   22.8357   33.9560 H   0  0  0  0  0  0  0  0  0  0  0  0
   43.0400   21.1877   32.6786 H   0  0  0  0  0  0  0  0  0  0  0  0
   41.8581   17.1776   36.7632 H   0  0  0  0  0  0  0  0  0  0  0  0
   42.4659   15.5375   38.5055 H   0  0  0  0  0  0  0  0  0  0  0  0
   45.8424   15.2999   40.0682 H   0  0  0  0  0  0  0  0  0  0  0  0
   44.2033   14.5957   40.0566 H   0  0  0  0  0  0  0  0  0  0  0  0
   38.5450   24.8196   34.4081 H   0  0  0  0  0  0  0  0  0  0  0  0
   40.0721   27.3782   34.1500 H   0  0  0  0  0  0  0  0  0  0  0  0
   40.7544   27.2102   35.5335 H   0  0  0  0  0  0  0  0  0  0  0  0
   41.2143   25.0713   33.1328 H   0  0  0  0  0  0  0  0  0  0  0  0
   38.5803   22.7468   39.3551 H   0  0  0  0  0  0  0  0  0  0  0  0
   37.2165   24.8038   38.6926 H   0  0  0  0  0  0  0  0  0  0  0  0
   41.2295   21.3314   37.2735 H   0  0  0  0  0  0  0  0  0  0  0  0
   40.2793   21.2210   38.7793 H   0  0  0  0  0  0  0  0  0  0  0  0
  1  6  1  0
  2  1  2  0
  2  3  1  0
  3  4  2  0
  4  5  1  0
  5 30  1  0
  6  5  2  0
  7  3  1  0
  7 11  1  0
  8  9  1  0
  8  7  2  0
  9 10  1  0
 10 11  2  0
 10 12  1  0
 12 13  1  0
 12 18  1  0
 13 14  2  0
 14 15  1  0
 15 16  1  0
 17 15  2  0
 18 17  1  0
 19 18  2  0
 20 21  1  0
 20 27  1  0
 22 20  1  0
 22 21  1  0
 22  1  1  0
 23 29  1  0
 23 24  2  0
 25 24  1  0
 26 25  2  0
 27 28  2  0
 27 26  1  0
 28 23  1  0
 30 33  1  0
 30 31  1  0
 32 30  1  0
  2 34  1  0
  8 35  1  0
 13 36  1  0
 14 37  1  0
 16 38  1  0
 16 39  1  0
 20 40  1  6
 21 41  1  0
 21 42  1  0
 22 43  1  6
 24 44  1  0
 25 45  1  0
 29 46  1  0
 29 47  1  0
M  ISO  8  34  14  35  14  36  14  37  14  40  13  41  13  42  13  43  13
M  ISO  2  44  14  45  14
M  END
>  <minimizedAffinity>  (1) 
-6.71869135

>  <minimizedRMSD>  (1) 
1.38072133

$$$$
