
     RDKit          3D

 49 54  0  0  1  0  0  0  0  0999 V2000
   42.2040   24.5310   34.8380 C   0  0  0  0  0  0  0  0  0  0  0  0
   42.4900   23.2230   34.6360 C   0  0  0  0  0  0  0  0  0  0  0  0
   43.5150   22.5370   35.2960 C   0  0  0  0  0  0  0  0  0  0  0  0
   44.2650   23.2070   36.1810 N   0  0  0  0  0  0  0  0  0  0  0  0
   43.9970   24.5070   36.3950 C   0  0  0  0  0  0  0  0  0  0  0  0
   43.0190   25.1310   35.7550 N   0  0  0  0  0  0  0  0  0  0  0  0
   43.7450   21.0970   35.0130 C   0  0  0  0  0  0  0  0  0  0  0  0
   43.9600   20.6130   33.7250 C   0  0  0  0  0  0  0  0  0  0  0  0
   44.1690   18.8010   34.0160 S   0  0  0  0  0  0  0  0  0  0  0  0
   43.9210   19.0340   35.8790 C   0  0  0  0  0  0  0  0  0  0  0  0
   43.7570   20.1870   35.9540 N   0  0  0  0  0  0  0  0  0  0  0  0
   43.9510   17.9790   36.8450 N   0  0  0  0  0  0  0  0  0  0  0  0
   42.8500   17.3660   37.3530 C   0  0  0  0  0  0  0  0  0  0  0  0
   43.2380   16.4140   38.2440 N   0  0  0  0  0  0  0  0  0  0  0  0
   44.5830   16.4370   38.2850 C   0  0  0  0  0  0  0  0  0  0  0  0
   45.5480   15.7320   38.9760 C   0  0  0  0  0  0  0  0  0  0  0  0
   46.8750   15.9970   38.7970 N   0  0  0  0  0  0  0  0  0  0  0  0
   47.2880   16.9510   37.9440 C   0  0  0  0  0  0  0  0  0  0  0  0
   46.3560   17.6420   37.2680 N   0  0  0  0  0  0  0  0  0  0  0  0
   45.0340   17.4130   37.4140 C   0  0  0  0  0  0  0  0  0  0  0  0
   45.1640   14.7120   39.8910 N   0  0  0  0  0  0  0  0  0  0  0  0
   39.7180   24.9580   34.5880 C   0  0  1  0  0  0  0  0  0  0  0  0
   40.5260   26.3140   34.5490 C   0  0  0  0  0  0  0  0  0  0  0  0
   41.0750   25.0950   34.0170 C   0  0  1  0  0  0  0  0  0  0  0  0
   39.9040   22.7430   37.4550 C   0  0  0  0  0  0  0  0  0  0  0  0
   38.8790   23.2050   38.2970 C   0  0  0  0  0  0  0  0  0  0  0  0
   38.1200   24.3190   37.8500 C   0  0  0  0  0  0  0  0  0  0  0  0
   38.4410   24.8680   36.6320 N   0  0  0  0  0  0  0  0  0  0  0  0
   39.4090   24.3910   35.8950 C   0  0  0  0  0  0  0  0  0  0  0  0
   40.1500   23.3460   36.2720 N   0  0  0  0  0  0  0  0  0  0  0  0
   40.6340   21.6270   37.9100 N   0  0  0  0  0  0  0  0  0  0  0  0
   44.7950   25.3260   37.3550 C   0  0  0  0  0  0  0  0  0  0  0  0
   44.0780   25.6070   38.4610 F   0  0  0  0  0  0  0  0  0  0  0  0
   45.3020   26.4450   36.7140 F   0  0  0  0  0  0  0  0  0  0  0  0
   45.8870   24.5150   37.7080 F   0  0  0  0  0  0  0  0  0  0  0  0
   41.8798   22.6665   33.9094 H   0  0  0  0  0  0  0  0  0  0  0  0
   43.9961   21.1683   32.7761 H   0  0  0  0  0  0  0  0  0  0  0  0
   41.8093   17.6022   37.0860 H   0  0  0  0  0  0  0  0  0  0  0  0
   48.3590   17.1594   37.8040 H   0  0  0  0  0  0  0  0  0  0  0  0
   45.8834   14.1855   40.4070 H   0  0  0  0  0  0  0  0  0  0  0  0
   44.1667   14.5002   40.0373 H   0  0  0  0  0  0  0  0  0  0  0  0
   38.7791   24.5242   34.2135 H   0  0  0  0  0  0  0  0  0  0  0  0
   40.2167   27.1242   33.8723 H   0  0  0  0  0  0  0  0  0  0  0  0
   40.8435   27.0623   35.2901 H   0  0  0  0  0  0  0  0  0  0  0  0
   41.4882   24.8093   33.0384 H   0  0  0  0  0  0  0  0  0  0  0  0
   38.6724   22.7232   39.2640 H   0  0  0  0  0  0  0  0  0  0  0  0
   37.3013   24.7292   38.4594 H   0  0  0  0  0  0  0  0  0  0  0  0
   41.3980   21.2426   37.3361 H   0  0  0  0  0  0  0  0  0  0  0  0
   40.4036   21.1957   38.8165 H   0  0  0  0  0  0  0  0  0  0  0  0
  1  6  1  0
  2  1  2  0
  2  3  1  0
  3  4  2  0
  4  5  1  0
  5 32  1  0
  6  5  2  0
  7  3  1  0
  7 11  1  0
  8  9  1  0
  8  7  2  0
  9 10  1  0
 10 11  2  0
 10 12  1  0
 12 13  1  0
 12 20  1  0
 13 14  2  0
 14 15  1  0
 15 16  2  0
 16 21  1  0
 17 16  1  0
 18 17  2  0
 19 20  2  0
 19 18  1  0
 20 15  1  0
 22 29  1  0
 23 22  1  0
 24 23  1  0
 24 22  1  0
 24  1  1  0
 25 31  1  0
 25 26  2  0
 27 26  1  0
 28 27  2  0
 29 30  2  0
 29 28  1  0
 30 25  1  0
 32 35  1  0
 32 33  1  0
 34 32  1  0
  2 36  1  0
  8 37  1  0
 13 38  1  0
 18 39  1  0
 21 40  1  0
 21 41  1  0
 22 42  1  6
 23 43  1  0
 23 44  1  0
 24 45  1  6
 26 46  1  0
 27 47  1  0
 31 48  1  0
 31 49  1  0
M  ISO  8  36  14  37  14  38  14  39  14  42  13  43  13  44  13  45  13
M  ISO  2  46  14  47  14
M  END
>  <minimizedAffinity>  (1) 
-6.50539255

>  <minimizedRMSD>  (1) 
1.43174624

$$$$
