
     RDKit          3D

 42 46  0  0  1  0  0  0  0  0999 V2000
   42.0290   24.6220   34.9130 C   0  0  0  0  0  0  0  0  0  0  0  0
   42.1870   23.2900   34.7230 C   0  0  0  0  0  0  0  0  0  0  0  0
   43.1840   22.5270   35.3340 C   0  0  0  0  0  0  0  0  0  0  0  0
   44.0460   23.1470   36.1630 N   0  0  0  0  0  0  0  0  0  0  0  0
   43.9030   24.4680   36.3630 C   0  0  0  0  0  0  0  0  0  0  0  0
   42.9450   25.1640   35.7670 N   0  0  0  0  0  0  0  0  0  0  0  0
   43.2720   21.0690   35.0710 C   0  0  0  0  0  0  0  0  0  0  0  0
   43.0600   20.5270   33.8180 C   0  0  0  0  0  0  0  0  0  0  0  0
   43.3030   18.7160   34.1170 S   0  0  0  0  0  0  0  0  0  0  0  0
   43.6610   19.0410   35.9540 C   0  0  0  0  0  0  0  0  0  0  0  0
   43.5590   20.2020   36.0170 N   0  0  0  0  0  0  0  0  0  0  0  0
   43.9640   18.0240   36.9050 N   0  0  0  0  0  0  0  0  0  0  0  0
   43.1450   17.0960   37.4530 C   0  0  0  0  0  0  0  0  0  0  0  0
   43.8680   16.3330   38.3100 N   0  0  0  0  0  0  0  0  0  0  0  0
   45.1420   16.8010   38.2830 C   0  0  0  0  0  0  0  0  0  0  0  0
   45.1620   17.8280   37.4180 N   0  0  0  0  0  0  0  0  0  0  0  0
   39.5610   25.1640   34.7440 C   0  0  1  0  0  0  0  0  0  0  0  0
   40.4230   26.4870   34.7430 C   0  0  0  0  0  0  0  0  0  0  0  0
   40.9020   25.2670   34.1500 C   0  0  1  0  0  0  0  0  0  0  0  0
   39.7440   22.8460   37.5280 C   0  0  0  0  0  0  0  0  0  0  0  0
   38.7370   23.2940   38.3990 C   0  0  0  0  0  0  0  0  0  0  0  0
   37.9960   24.4320   38.0030 C   0  0  0  0  0  0  0  0  0  0  0  0
   38.3080   25.0170   36.8030 N   0  0  0  0  0  0  0  0  0  0  0  0
   39.2560   24.5560   36.0320 C   0  0  0  0  0  0  0  0  0  0  0  0
   39.9860   23.4800   36.3660 N   0  0  0  0  0  0  0  0  0  0  0  0
   40.4640   21.6970   37.9310 N   0  0  0  0  0  0  0  0  0  0  0  0
   44.8250   25.2270   37.2570 C   0  0  0  0  0  0  0  0  0  0  0  0
   44.2260   25.5190   38.4310 F   0  0  0  0  0  0  0  0  0  0  0  0
   45.3220   26.3370   36.5890 F   0  0  0  0  0  0  0  0  0  0  0  0
   45.9040   24.3630   37.4960 F   0  0  0  0  0  0  0  0  0  0  0  0
   41.4871   22.7783   34.0460 H   0  0  0  0  0  0  0  0  0  0  0  0
   42.8097   21.0420   32.8788 H   0  0  0  0  0  0  0  0  0  0  0  0
   42.0723   16.9801   37.2390 H   0  0  0  0  0  0  0  0  0  0  0  0
   45.9948   16.4132   38.8594 H   0  0  0  0  0  0  0  0  0  0  0  0
   38.5969   24.7853   34.3737 H   0  0  0  0  0  0  0  0  0  0  0  0
   40.1344   27.3372   34.1075 H   0  0  0  0  0  0  0  0  0  0  0  0
   40.7892   27.1905   35.5052 H   0  0  0  0  0  0  0  0  0  0  0  0
   41.2774   25.0027   33.1504 H   0  0  0  0  0  0  0  0  0  0  0  0
   38.5330   22.7807   39.3503 H   0  0  0  0  0  0  0  0  0  0  0  0
   37.1939   24.8353   38.6385 H   0  0  0  0  0  0  0  0  0  0  0  0
   41.2140   21.3229   37.3323 H   0  0  0  0  0  0  0  0  0  0  0  0
   40.2383   21.2344   38.8232 H   0  0  0  0  0  0  0  0  0  0  0  0
  1  6  1  0
  2  1  2  0
  2  3  1  0
  3  4  2  0
  4  5  1  0
  5 27  1  0
  6  5  2  0
  7  3  1  0
  7 11  1  0
  8  9  1  0
  8  7  2  0
  9 10  1  0
 10 11  2  0
 10 12  1  0
 12 16  1  0
 12 13  1  0
 13 14  2  0
 15 14  1  0
 16 15  2  0
 17 24  1  0
 18 17  1  0
 19 18  1  0
 19 17  1  0
 19  1  1  0
 20 26  1  0
 20 21  2  0
 22 21  1  0
 23 22  2  0
 24 25  2  0
 24 23  1  0
 25 20  1  0
 27 30  1  0
 27 28  1  0
 29 27  1  0
  2 31  1  0
  8 32  1  0
 13 33  1  0
 15 34  1  0
 17 35  1  6
 18 36  1  0
 18 37  1  0
 19 38  1  6
 21 39  1  0
 22 40  1  0
 26 41  1  0
 26 42  1  0
M  ISO  8  31  14  32  14  33  14  34  14  35  13  36  13  37  13  38  13
M  ISO  2  39  14  40  14
M  END
>  <minimizedAffinity>  (1) 
-6.32471466

>  <minimizedRMSD>  (1) 
1.0550189

$$$$
