
     RDKit          3D

 46 50  0  0  1  0  0  0  0  0999 V2000
   42.1070   24.5990   34.9360 C   0  0  0  0  0  0  0  0  0  0  0  0
   42.2780   23.2630   34.7940 C   0  0  0  0  0  0  0  0  0  0  0  0
   43.2600   22.5190   35.4520 C   0  0  0  0  0  0  0  0  0  0  0  0
   44.1000   23.1790   36.2860 N   0  0  0  0  0  0  0  0  0  0  0  0
   43.9450   24.5030   36.4370 C   0  0  0  0  0  0  0  0  0  0  0  0
   42.9990   25.1730   35.7950 N   0  0  0  0  0  0  0  0  0  0  0  0
   39.6360   25.1010   34.6830 C   0  0  1  0  0  0  0  0  0  0  0  0
   40.4820   26.4360   34.6790 C   0  0  0  0  0  0  0  0  0  0  0  0
   40.9950   25.2110   34.1260 C   0  0  1  0  0  0  0  0  0  0  0  0
   39.7540   22.8350   37.5150 C   0  0  0  0  0  0  0  0  0  0  0  0
   38.7320   23.3030   38.3560 C   0  0  0  0  0  0  0  0  0  0  0  0
   38.0010   24.4370   37.9210 C   0  0  0  0  0  0  0  0  0  0  0  0
   38.3410   24.9960   36.7170 N   0  0  0  0  0  0  0  0  0  0  0  0
   39.3030   24.5180   35.9740 C   0  0  0  0  0  0  0  0  0  0  0  0
   40.0220   23.4490   36.3420 N   0  0  0  0  0  0  0  0  0  0  0  0
   40.4660   21.6950   37.9550 N   0  0  0  0  0  0  0  0  0  0  0  0
   43.3640   21.0540   35.2420 C   0  0  0  0  0  0  0  0  0  0  0  0
   43.3320   20.4890   33.9670 C   0  0  0  0  0  0  0  0  0  0  0  0
   43.5020   18.6800   34.3630 S   0  0  0  0  0  0  0  0  0  0  0  0
   43.5830   19.0530   36.2140 C   0  0  0  0  0  0  0  0  0  0  0  0
   43.4900   20.2120   36.2240 N   0  0  0  0  0  0  0  0  0  0  0  0
   43.7290   17.9000   37.1010 C   0  0  0  0  0  0  0  0  0  0  0  0
   42.6920   17.0690   37.4660 C   0  0  0  0  0  0  0  0  0  0  0  0
   43.0070   16.0090   38.3250 C   0  0  0  0  0  0  0  0  0  0  0  0
   44.3240   15.8450   38.7610 C   0  0  0  0  0  0  0  0  0  0  0  0
   45.3490   16.6950   38.3800 C   0  0  0  0  0  0  0  0  0  0  0  0
   45.0290   17.7470   37.5260 C   0  0  0  0  0  0  0  0  0  0  0  0
   44.8380   25.3000   37.3280 C   0  0  0  0  0  0  0  0  0  0  0  0
   44.2150   25.6070   38.4870 F   0  0  0  0  0  0  0  0  0  0  0  0
   45.3250   26.4050   36.6480 F   0  0  0  0  0  0  0  0  0  0  0  0
   45.9290   24.4600   37.6030 F   0  0  0  0  0  0  0  0  0  0  0  0
   41.5979   22.7280   34.1149 H   0  0  0  0  0  0  0  0  0  0  0  0
   38.6885   24.7012   34.2926 H   0  0  0  0  0  0  0  0  0  0  0  0
   40.2014   27.2689   34.0175 H   0  0  0  0  0  0  0  0  0  0  0  0
   40.8163   27.1598   35.4369 H   0  0  0  0  0  0  0  0  0  0  0  0
   41.4035   24.9313   33.1437 H   0  0  0  0  0  0  0  0  0  0  0  0
   38.5076   22.8099   39.3134 H   0  0  0  0  0  0  0  0  0  0  0  0
   37.1865   24.8550   38.5308 H   0  0  0  0  0  0  0  0  0  0  0  0
   41.2264   21.3083   37.3778 H   0  0  0  0  0  0  0  0  0  0  0  0
   40.2241   21.2515   38.8526 H   0  0  0  0  0  0  0  0  0  0  0  0
   43.2327   20.9819   32.9886 H   0  0  0  0  0  0  0  0  0  0  0  0
   41.6671   17.2305   37.1005 H   0  0  0  0  0  0  0  0  0  0  0  0
   42.2233   15.3107   38.6540 H   0  0  0  0  0  0  0  0  0  0  0  0
   44.5564   15.0067   39.4343 H   0  0  0  0  0  0  0  0  0  0  0  0
   46.3779   16.5445   38.7389 H   0  0  0  0  0  0  0  0  0  0  0  0
   45.8079   18.4493   37.1941 H   0  0  0  0  0  0  0  0  0  0  0  0
  1  6  1  0
  2  1  2  0
  2  3  1  0
  3  4  2  0
  4  5  1  0
  5 28  1  0
  6  5  2  0
  7 14  1  0
  8  7  1  0
  9  8  1  0
  9  7  1  0
  9  1  1  0
 10 16  1  0
 10 11  2  0
 12 11  1  0
 13 12  2  0
 14 15  2  0
 14 13  1  0
 15 10  1  0
 17  3  1  0
 17 21  1  0
 18 19  1  0
 18 17  2  0
 19 20  1  0
 20 21  2  0
 20 22  1  0
 22 23  2  0
 22 27  1  0
 23 24  1  0
 24 25  2  0
 26 25  1  0
 27 26  2  0
 28 31  1  0
 28 29  1  0
 30 28  1  0
  2 32  1  0
  7 33  1  6
  8 34  1  0
  8 35  1  0
  9 36  1  6
 11 37  1  0
 12 38  1  0
 16 39  1  0
 16 40  1  0
 18 41  1  0
 23 42  1  0
 24 43  1  0
 25 44  1  0
 26 45  1  0
 27 46  1  0
M  ISO  8  32  14  33  13  34  13  35  13  36  13  37  14  38  14  41  14
M  ISO  5  42  14  43  14  44  14  45  14  46  14
M  END
>  <minimizedAffinity>  (1) 
-6.30949926

>  <minimizedRMSD>  (1) 
0.85847646

$$$$
