
     RDKit          3D

 45 49  0  0  1  0  0  0  0  0999 V2000
   42.0970   24.6090   34.9240 C   0  0  0  0  0  0  0  0  0  0  0  0
   42.2790   23.2770   34.7630 C   0  0  0  0  0  0  0  0  0  0  0  0
   43.2710   22.5340   35.4120 C   0  0  0  0  0  0  0  0  0  0  0  0
   44.1040   23.1890   36.2550 N   0  0  0  0  0  0  0  0  0  0  0  0
   43.9360   24.5090   36.4240 C   0  0  0  0  0  0  0  0  0  0  0  0
   42.9830   25.1810   35.7920 N   0  0  0  0  0  0  0  0  0  0  0  0
   39.6200   25.1110   34.6950 C   0  0  1  0  0  0  0  0  0  0  0  0
   40.4690   26.4440   34.6820 C   0  0  0  0  0  0  0  0  0  0  0  0
   40.9820   25.2210   34.1210 C   0  0  1  0  0  0  0  0  0  0  0  0
   39.7650   22.8350   37.5150 C   0  0  0  0  0  0  0  0  0  0  0  0
   38.7450   23.3000   38.3670 C   0  0  0  0  0  0  0  0  0  0  0  0
   38.0080   24.4390   37.9420 C   0  0  0  0  0  0  0  0  0  0  0  0
   38.3400   25.0040   36.7350 N   0  0  0  0  0  0  0  0  0  0  0  0
   39.2990   24.5250   35.9890 C   0  0  0  0  0  0  0  0  0  0  0  0
   40.0210   23.4580   36.3430 N   0  0  0  0  0  0  0  0  0  0  0  0
   40.4720   21.6960   37.9470 N   0  0  0  0  0  0  0  0  0  0  0  0
   43.3850   21.0710   35.1810 C   0  0  0  0  0  0  0  0  0  0  0  0
   43.2980   20.5200   33.9030 C   0  0  0  0  0  0  0  0  0  0  0  0
   43.5090   18.7120   34.2530 S   0  0  0  0  0  0  0  0  0  0  0  0
   43.6790   19.0640   36.0980 C   0  0  0  0  0  0  0  0  0  0  0  0
   43.5730   20.2220   36.1490 N   0  0  0  0  0  0  0  0  0  0  0  0
   43.9010   17.8860   37.0980 C   0  0  0  0  0  0  0  0  0  0  0  0
   45.1430   17.6010   37.5570 C   0  0  0  0  0  0  0  0  0  0  0  0
   45.2300   16.5410   38.4350 C   0  0  0  0  0  0  0  0  0  0  0  0
   44.1050   15.8340   38.8050 C   0  0  0  0  0  0  0  0  0  0  0  0
   42.8570   16.1570   38.3140 C   0  0  0  0  0  0  0  0  0  0  0  0
   42.8200   17.1930   37.4630 N   0  0  0  0  0  0  0  0  0  0  0  0
   44.8240   25.2980   37.3260 C   0  0  0  0  0  0  0  0  0  0  0  0
   44.1880   25.6110   38.4720 F   0  0  0  0  0  0  0  0  0  0  0  0
   45.3260   26.4030   36.6510 F   0  0  0  0  0  0  0  0  0  0  0  0
   45.9060   24.4530   37.6140 F   0  0  0  0  0  0  0  0  0  0  0  0
   41.6032   22.7446   34.0776 H   0  0  0  0  0  0  0  0  0  0  0  0
   38.6673   24.7137   34.3149 H   0  0  0  0  0  0  0  0  0  0  0  0
   40.1816   27.2775   34.0242 H   0  0  0  0  0  0  0  0  0  0  0  0
   40.8105   27.1661   35.4383 H   0  0  0  0  0  0  0  0  0  0  0  0
   41.3836   24.9440   33.1351 H   0  0  0  0  0  0  0  0  0  0  0  0
   38.5271   22.8019   39.3232 H   0  0  0  0  0  0  0  0  0  0  0  0
   37.1981   24.8543   38.5598 H   0  0  0  0  0  0  0  0  0  0  0  0
   41.2296   21.3091   37.3662 H   0  0  0  0  0  0  0  0  0  0  0  0
   40.2315   21.2500   38.8437 H   0  0  0  0  0  0  0  0  0  0  0  0
   43.1442   21.0263   32.9386 H   0  0  0  0  0  0  0  0  0  0  0  0
   46.0269   18.1788   37.2488 H   0  0  0  0  0  0  0  0  0  0  0  0
   46.2097   16.2556   38.8457 H   0  0  0  0  0  0  0  0  0  0  0  0
   44.2052   14.9935   39.5075 H   0  0  0  0  0  0  0  0  0  0  0  0
   41.9520   15.6016   38.6014 H   0  0  0  0  0  0  0  0  0  0  0  0
  1  6  1  0
  2  1  2  0
  2  3  1  0
  3  4  2  0
  4  5  1  0
  5 28  1  0
  6  5  2  0
  7 14  1  0
  8  7  1  0
  9  8  1  0
  9  7  1  0
  9  1  1  0
 10 16  1  0
 10 11  2  0
 12 11  1  0
 13 12  2  0
 14 15  2  0
 14 13  1  0
 15 10  1  0
 17  3  1  0
 17 21  1  0
 18 19  1  0
 18 17  2  0
 19 20  1  0
 20 21  2  0
 20 22  1  0
 22 27  1  0
 22 23  2  0
 23 24  1  0
 24 25  2  0
 26 25  1  0
 27 26  2  0
 28 31  1  0
 28 29  1  0
 30 28  1  0
  2 32  1  0
  7 33  1  6
  8 34  1  0
  8 35  1  0
  9 36  1  6
 11 37  1  0
 12 38  1  0
 16 39  1  0
 16 40  1  0
 18 41  1  0
 23 42  1  0
 24 43  1  0
 25 44  1  0
 26 45  1  0
M  ISO  8  32  14  33  13  34  13  35  13  36  13  37  14  38  14  41  14
M  ISO  4  42  14  43  14  44  14  45  14
M  END
>  <minimizedAffinity>  (1) 
-6.27467251

>  <minimizedRMSD>  (1) 
1.05336642

$$$$
