
     RDKit          3D

 44 48  0  0  1  0  0  0  0  0999 V2000
   42.0790   24.6200   34.9250 C   0  0  0  0  0  0  0  0  0  0  0  0
   42.2620   23.2900   34.7510 C   0  0  0  0  0  0  0  0  0  0  0  0
   43.2600   22.5500   35.3910 C   0  0  0  0  0  0  0  0  0  0  0  0
   44.0930   23.1900   36.2300 N   0  0  0  0  0  0  0  0  0  0  0  0
   43.9260   24.5110   36.4140 C   0  0  0  0  0  0  0  0  0  0  0  0
   42.9690   25.1860   35.7930 N   0  0  0  0  0  0  0  0  0  0  0  0
   39.6040   25.1270   34.7090 C   0  0  1  0  0  0  0  0  0  0  0  0
   40.4510   26.4610   34.7050 C   0  0  0  0  0  0  0  0  0  0  0  0
   40.9580   25.2430   34.1320 C   0  0  1  0  0  0  0  0  0  0  0  0
   39.7620   22.8370   37.5180 C   0  0  0  0  0  0  0  0  0  0  0  0
   38.7470   23.2950   38.3760 C   0  0  0  0  0  0  0  0  0  0  0  0
   38.0090   24.4340   37.9600 C   0  0  0  0  0  0  0  0  0  0  0  0
   38.3340   25.0030   36.7600 N   0  0  0  0  0  0  0  0  0  0  0  0
   39.2890   24.5330   36.0020 C   0  0  0  0  0  0  0  0  0  0  0  0
   40.0140   23.4630   36.3500 N   0  0  0  0  0  0  0  0  0  0  0  0
   40.4740   21.6940   37.9390 N   0  0  0  0  0  0  0  0  0  0  0  0
   43.3760   21.0890   35.1430 C   0  0  0  0  0  0  0  0  0  0  0  0
   43.2800   20.5450   33.8660 C   0  0  0  0  0  0  0  0  0  0  0  0
   43.4980   18.7350   34.2040 S   0  0  0  0  0  0  0  0  0  0  0  0
   43.6810   19.0650   36.0580 C   0  0  0  0  0  0  0  0  0  0  0  0
   43.5730   20.2250   36.1050 N   0  0  0  0  0  0  0  0  0  0  0  0
   43.8980   17.9860   37.0070 C   0  0  0  0  0  0  0  0  0  0  0  0
   45.1440   17.6670   37.5050 C   0  0  0  0  0  0  0  0  0  0  0  0
   45.2430   16.6230   38.4010 C   0  0  0  0  0  0  0  0  0  0  0  0
   44.1560   15.9270   38.7870 N   0  0  0  0  0  0  0  0  0  0  0  0
   42.9360   16.2330   38.3030 C   0  0  0  0  0  0  0  0  0  0  0  0
   42.8300   17.2480   37.4290 N   0  0  0  0  0  0  0  0  0  0  0  0
   44.8160   25.2950   37.3190 C   0  0  0  0  0  0  0  0  0  0  0  0
   44.1850   25.5980   38.4700 F   0  0  0  0  0  0  0  0  0  0  0  0
   45.3200   26.3970   36.6470 F   0  0  0  0  0  0  0  0  0  0  0  0
   45.8980   24.4430   37.5970 F   0  0  0  0  0  0  0  0  0  0  0  0
   41.5848   22.7601   34.0650 H   0  0  0  0  0  0  0  0  0  0  0  0
   38.6512   24.7302   34.3286 H   0  0  0  0  0  0  0  0  0  0  0  0
   40.1606   27.3003   34.0560 H   0  0  0  0  0  0  0  0  0  0  0  0
   40.7962   27.1769   35.4655 H   0  0  0  0  0  0  0  0  0  0  0  0
   41.3543   24.9755   33.1414 H   0  0  0  0  0  0  0  0  0  0  0  0
   38.5335   22.7915   39.3304 H   0  0  0  0  0  0  0  0  0  0  0  0
   37.2014   24.8457   38.5832 H   0  0  0  0  0  0  0  0  0  0  0  0
   41.2291   21.3123   37.3516 H   0  0  0  0  0  0  0  0  0  0  0  0
   40.2387   21.2412   38.8337 H   0  0  0  0  0  0  0  0  0  0  0  0
   43.1171   21.0559   32.9056 H   0  0  0  0  0  0  0  0  0  0  0  0
   46.0363   18.2309   37.1954 H   0  0  0  0  0  0  0  0  0  0  0  0
   46.2286   16.3535   38.8083 H   0  0  0  0  0  0  0  0  0  0  0  0
   42.0476   15.6650   38.6162 H   0  0  0  0  0  0  0  0  0  0  0  0
  1  6  1  0
  2  1  2  0
  2  3  1  0
  3  4  2  0
  4  5  1  0
  5 28  1  0
  6  5  2  0
  7 14  1  0
  8  7  1  0
  9  8  1  0
  9  7  1  0
  9  1  1  0
 10 16  1  0
 10 11  2  0
 12 11  1  0
 13 12  2  0
 14 15  2  0
 14 13  1  0
 15 10  1  0
 17  3  1  0
 17 21  1  0
 18 19  1  0
 18 17  2  0
 19 20  1  0
 20 21  2  0
 20 22  1  0
 22 27  1  0
 22 23  2  0
 23 24  1  0
 24 25  2  0
 26 25  1  0
 27 26  2  0
 28 31  1  0
 28 29  1  0
 30 28  1  0
  2 32  1  0
  7 33  1  6
  8 34  1  0
  8 35  1  0
  9 36  1  6
 11 37  1  0
 12 38  1  0
 16 39  1  0
 16 40  1  0
 18 41  1  0
 23 42  1  0
 24 43  1  0
 26 44  1  0
M  ISO  8  32  14  33  13  34  13  35  13  36  13  37  14  38  14  41  14
M  ISO  3  42  14  43  14  44  14
M  END
>  <minimizedAffinity>  (1) 
-6.24534845

>  <minimizedRMSD>  (1) 
1.02873158

$$$$
