
     RDKit          3D

 43 47  0  0  1  0  0  0  0  0999 V2000
   42.1310   24.5670   34.9170 C   0  0  0  0  0  0  0  0  0  0  0  0
   42.3120   23.2310   34.7860 C   0  0  0  0  0  0  0  0  0  0  0  0
   43.2930   22.5000   35.4610 C   0  0  0  0  0  0  0  0  0  0  0  0
   44.1180   23.1680   36.2980 N   0  0  0  0  0  0  0  0  0  0  0  0
   43.9520   24.4920   36.4390 C   0  0  0  0  0  0  0  0  0  0  0  0
   43.0090   25.1540   35.7830 N   0  0  0  0  0  0  0  0  0  0  0  0
   39.6630   25.0670   34.6390 C   0  0  1  0  0  0  0  0  0  0  0  0
   40.5070   26.4000   34.6180 C   0  0  0  0  0  0  0  0  0  0  0  0
   41.0230   25.1650   34.0890 C   0  0  1  0  0  0  0  0  0  0  0  0
   39.7570   22.8400   37.5020 C   0  0  0  0  0  0  0  0  0  0  0  0
   38.7280   23.3250   38.3320 C   0  0  0  0  0  0  0  0  0  0  0  0
   38.0050   24.4530   37.8760 C   0  0  0  0  0  0  0  0  0  0  0  0
   38.3540   24.9940   36.6660 N   0  0  0  0  0  0  0  0  0  0  0  0
   39.3200   24.5020   35.9380 C   0  0  0  0  0  0  0  0  0  0  0  0
   40.0330   23.4350   36.3280 N   0  0  0  0  0  0  0  0  0  0  0  0
   40.4580   21.7020   37.9630 N   0  0  0  0  0  0  0  0  0  0  0  0
   43.4050   21.0310   35.2590 C   0  0  0  0  0  0  0  0  0  0  0  0
   43.3100   20.4580   33.9930 C   0  0  0  0  0  0  0  0  0  0  0  0
   43.5240   18.6550   34.3880 S   0  0  0  0  0  0  0  0  0  0  0  0
   43.7030   19.0440   36.2270 C   0  0  0  0  0  0  0  0  0  0  0  0
   43.5990   20.1950   36.2480 N   0  0  0  0  0  0  0  0  0  0  0  0
   43.9160   17.8770   37.1140 C   0  0  0  0  0  0  0  0  0  0  0  0
   45.1130   17.5890   37.6460 C   0  0  0  0  0  0  0  0  0  0  0  0
   45.2530   16.5150   38.4480 C   0  0  0  0  0  0  0  0  0  0  0  0
   44.0690   15.7480   38.6690 C   0  0  0  0  0  0  0  0  0  0  0  0
   42.7930   16.7040   37.6390 S   0  0  0  0  0  0  0  0  0  0  0  0
   44.8310   25.2990   37.3360 C   0  0  0  0  0  0  0  0  0  0  0  0
   44.1940   25.6110   38.4820 F   0  0  0  0  0  0  0  0  0  0  0  0
   45.3230   26.4010   36.6470 F   0  0  0  0  0  0  0  0  0  0  0  0
   45.9220   24.4650   37.6280 F   0  0  0  0  0  0  0  0  0  0  0  0
   41.6431   22.6860   34.1037 H   0  0  0  0  0  0  0  0  0  0  0  0
   38.7171   24.6624   34.2498 H   0  0  0  0  0  0  0  0  0  0  0  0
   40.2305   27.2215   33.9408 H   0  0  0  0  0  0  0  0  0  0  0  0
   40.8366   27.1367   35.3654 H   0  0  0  0  0  0  0  0  0  0  0  0
   41.4369   24.8671   33.1143 H   0  0  0  0  0  0  0  0  0  0  0  0
   38.4957   22.8469   39.2950 H   0  0  0  0  0  0  0  0  0  0  0  0
   37.1880   24.8824   38.4744 H   0  0  0  0  0  0  0  0  0  0  0  0
   41.2209   21.3031   37.3976 H   0  0  0  0  0  0  0  0  0  0  0  0
   40.2057   21.2719   38.8643 H   0  0  0  0  0  0  0  0  0  0  0  0
   43.1507   20.9435   33.0189 H   0  0  0  0  0  0  0  0  0  0  0  0
   45.9804   18.2293   37.4278 H   0  0  0  0  0  0  0  0  0  0  0  0
   46.2177   16.2464   38.9032 H   0  0  0  0  0  0  0  0  0  0  0  0
   43.9323   14.8413   39.2766 H   0  0  0  0  0  0  0  0  0  0  0  0
  1  6  1  0
  2  1  2  0
  2  3  1  0
  3  4  2  0
  4  5  1  0
  5 27  1  0
  6  5  2  0
  7 14  1  0
  8  7  1  0
  9  8  1  0
  9  7  1  0
  9  1  1  0
 10 16  1  0
 10 11  2  0
 12 11  1  0
 13 12  2  0
 14 15  2  0
 14 13  1  0
 15 10  1  0
 17  3  1  0
 17 21  1  0
 18 19  1  0
 18 17  2  0
 19 20  1  0
 20 21  2  0
 20 22  1  0
 22 26  1  0
 22 23  2  0
 23 24  1  0
 24 25  2  0
 26 25  1  0
 27 30  1  0
 27 28  1  0
 29 27  1  0
  2 31  1  0
  7 32  1  6
  8 33  1  0
  8 34  1  0
  9 35  1  6
 11 36  1  0
 12 37  1  0
 16 38  1  0
 16 39  1  0
 18 40  1  0
 23 41  1  0
 24 42  1  0
 25 43  1  0
M  ISO  8  31  14  32  13  33  13  34  13  35  13  36  14  37  14  40  14
M  ISO  3  41  14  42  14  43  14
M  END
>  <minimizedAffinity>  (1) 
-6.10094452

>  <minimizedRMSD>  (1) 
0.886625946

$$$$
