
     RDKit          3D

 42 45  0  0  1  0  0  0  0  0999 V2000
   42.1430   24.6560   34.9760 C   0  0  0  0  0  0  0  0  0  0  0  0
   42.3070   23.3200   34.8310 C   0  0  0  0  0  0  0  0  0  0  0  0
   43.2920   22.5730   35.4810 C   0  0  0  0  0  0  0  0  0  0  0  0
   44.1380   23.2270   36.3110 N   0  0  0  0  0  0  0  0  0  0  0  0
   43.9890   24.5520   36.4650 C   0  0  0  0  0  0  0  0  0  0  0  0
   43.0410   25.2280   35.8310 N   0  0  0  0  0  0  0  0  0  0  0  0
   39.6690   25.1360   34.7140 C   0  0  1  0  0  0  0  0  0  0  0  0
   40.4980   26.4810   34.7490 C   0  0  0  0  0  0  0  0  0  0  0  0
   41.0290   25.2740   34.1720 C   0  0  1  0  0  0  0  0  0  0  0  0
   39.7950   22.8030   37.4900 C   0  0  0  0  0  0  0  0  0  0  0  0
   38.7540   23.2330   38.3310 C   0  0  0  0  0  0  0  0  0  0  0  0
   38.0110   24.3640   37.9170 C   0  0  0  0  0  0  0  0  0  0  0  0
   38.3520   24.9630   36.7290 N   0  0  0  0  0  0  0  0  0  0  0  0
   39.3330   24.5160   35.9890 C   0  0  0  0  0  0  0  0  0  0  0  0
   40.0660   23.4490   36.3400 N   0  0  0  0  0  0  0  0  0  0  0  0
   40.5150   21.6630   37.9110 N   0  0  0  0  0  0  0  0  0  0  0  0
   43.3880   21.1080   35.2640 C   0  0  0  0  0  0  0  0  0  0  0  0
   43.6710   20.5660   34.0220 C   0  0  0  0  0  0  0  0  0  0  0  0
   43.6560   18.7440   34.3850 S   0  0  0  0  0  0  0  0  0  0  0  0
   43.2570   19.0850   36.2070 C   0  0  0  0  0  0  0  0  0  0  0  0
   43.2120   20.2400   36.2330 N   0  0  0  0  0  0  0  0  0  0  0  0
   43.0970   17.9370   37.1460 C   0  0  0  0  0  0  0  0  0  0  0  0
   44.4890   17.4550   37.4900 C   0  0  0  0  0  0  0  0  0  0  0  0
   44.8900   25.3430   37.3540 C   0  0  0  0  0  0  0  0  0  0  0  0
   44.2690   25.6690   38.5050 F   0  0  0  0  0  0  0  0  0  0  0  0
   45.3980   26.4330   36.6600 F   0  0  0  0  0  0  0  0  0  0  0  0
   45.9680   24.4900   37.6400 F   0  0  0  0  0  0  0  0  0  0  0  0
   41.6194   22.7879   34.1571 H   0  0  0  0  0  0  0  0  0  0  0  0
   38.7291   24.7355   34.3063 H   0  0  0  0  0  0  0  0  0  0  0  0
   40.2131   27.3258   34.1047 H   0  0  0  0  0  0  0  0  0  0  0  0
   40.8174   27.1910   35.5261 H   0  0  0  0  0  0  0  0  0  0  0  0
   41.4480   25.0211   33.1869 H   0  0  0  0  0  0  0  0  0  0  0  0
   38.5262   22.7117   39.2725 H   0  0  0  0  0  0  0  0  0  0  0  0
   37.1838   24.7524   38.5293 H   0  0  0  0  0  0  0  0  0  0  0  0
   41.2890   21.3013   37.3357 H   0  0  0  0  0  0  0  0  0  0  0  0
   40.2660   21.1935   38.7933 H   0  0  0  0  0  0  0  0  0  0  0  0
   43.8566   21.0806   33.0677 H   0  0  0  0  0  0  0  0  0  0  0  0
   42.5735   18.2632   38.0568 H   0  0  0  0  0  0  0  0  0  0  0  0
   42.5033   17.1325   36.6875 H   0  0  0  0  0  0  0  0  0  0  0  0
   44.6035   17.4153   38.5833 H   0  0  0  0  0  0  0  0  0  0  0  0
   44.6440   16.4509   37.0684 H   0  0  0  0  0  0  0  0  0  0  0  0
   45.2317   18.1483   37.0684 H   0  0  0  0  0  0  0  0  0  0  0  0
  1  6  1  0
  2  1  2  0
  2  3  1  0
  3  4  2  0
  4  5  1  0
  5 24  1  0
  6  5  2  0
  7  8  1  0
  7 14  1  0
  9  7  1  0
  9  8  1  0
  9  1  1  0
 10 16  1  0
 10 11  2  0
 12 11  1  0
 13 12  2  0
 14 15  2  0
 14 13  1  0
 15 10  1  0
 17  3  1  0
 17 21  1  0
 18 19  1  0
 18 17  2  0
 19 20  1  0
 20 21  2  0
 20 22  1  0
 22 23  1  0
 24 27  1  0
 24 25  1  0
 26 24  1  0
  2 28  1  0
  7 29  1  6
  8 30  1  0
  8 31  1  0
  9 32  1  6
 11 33  1  0
 12 34  1  0
 16 35  1  0
 16 36  1  0
 18 37  1  0
 22 38  1  0
 22 39  1  0
 23 40  1  0
 23 41  1  0
 23 42  1  0
M  ISO  8  28  14  29  13  30  13  31  13  32  13  33  14  34  14  37  14
M  ISO  5  38   8  39   8  40   8  41   8  42   8
M  END
>  <minimizedAffinity>  (1) 
-5.76589346

>  <minimizedRMSD>  (1) 
0.448266596

$$$$
