
     RDKit          3D

 39 42  0  0  1  0  0  0  0  0999 V2000
   42.3180   24.6110   34.9750 C   0  0  0  0  0  0  0  0  0  0  0  0
   42.5490   23.2830   34.8480 C   0  0  0  0  0  0  0  0  0  0  0  0
   43.5360   22.5950   35.5590 C   0  0  0  0  0  0  0  0  0  0  0  0
   44.3050   23.2820   36.4170 N   0  0  0  0  0  0  0  0  0  0  0  0
   44.0910   24.6010   36.5540 C   0  0  0  0  0  0  0  0  0  0  0  0
   43.1460   25.2280   35.8680 N   0  0  0  0  0  0  0  0  0  0  0  0
   39.8430   25.0100   34.6060 C   0  0  1  0  0  0  0  0  0  0  0  0
   40.6310   26.3800   34.6360 C   0  0  0  0  0  0  0  0  0  0  0  0
   41.2200   25.1770   34.1110 C   0  0  1  0  0  0  0  0  0  0  0  0
   39.9090   22.7360   37.4320 C   0  0  0  0  0  0  0  0  0  0  0  0
   38.8440   23.1780   38.2360 C   0  0  0  0  0  0  0  0  0  0  0  0
   38.1050   24.2960   37.7790 C   0  0  0  0  0  0  0  0  0  0  0  0
   38.4760   24.8650   36.5930 N   0  0  0  0  0  0  0  0  0  0  0  0
   39.4770   24.4150   35.8830 C   0  0  0  0  0  0  0  0  0  0  0  0
   40.2050   23.3600   36.2760 N   0  0  0  0  0  0  0  0  0  0  0  0
   40.6260   21.6080   37.8960 N   0  0  0  0  0  0  0  0  0  0  0  0
   43.7050   21.1310   35.3590 C   0  0  0  0  0  0  0  0  0  0  0  0
   44.3040   20.5970   34.2290 C   0  0  0  0  0  0  0  0  0  0  0  0
   44.2220   18.7760   34.5570 S   0  0  0  0  0  0  0  0  0  0  0  0
   43.3570   19.0840   36.2330 C   0  0  0  0  0  0  0  0  0  0  0  0
   43.3000   20.2500   36.2380 N   0  0  0  0  0  0  0  0  0  0  0  0
   42.9470   17.9990   37.1390 C   0  0  0  0  0  0  0  0  0  0  0  0
   44.9120   25.4340   37.4790 C   0  0  0  0  0  0  0  0  0  0  0  0
   44.1780   25.8540   38.5300 F   0  0  0  0  0  0  0  0  0  0  0  0
   45.5210   26.4610   36.7730 F   0  0  0  0  0  0  0  0  0  0  0  0
   45.9270   24.5830   37.9400 F   0  0  0  0  0  0  0  0  0  0  0  0
   41.9240   22.7129   34.1449 H   0  0  0  0  0  0  0  0  0  0  0  0
   38.9321   24.5697   34.1743 H   0  0  0  0  0  0  0  0  0  0  0  0
   40.3458   27.1993   33.9597 H   0  0  0  0  0  0  0  0  0  0  0  0
   40.8995   27.1184   35.4058 H   0  0  0  0  0  0  0  0  0  0  0  0
   41.6850   24.9148   33.1492 H   0  0  0  0  0  0  0  0  0  0  0  0
   38.5947   22.6755   39.1822 H   0  0  0  0  0  0  0  0  0  0  0  0
   37.2597   24.6937   38.3597 H   0  0  0  0  0  0  0  0  0  0  0  0
   41.4166   21.2393   37.3483 H   0  0  0  0  0  0  0  0  0  0  0  0
   40.3574   21.1555   38.7815 H   0  0  0  0  0  0  0  0  0  0  0  0
   44.7224   21.1220   33.3576 H   0  0  0  0  0  0  0  0  0  0  0  0
   43.0705   18.3259   38.1820 H   0  0  0  0  0  0  0  0  0  0  0  0
   41.8919   17.7476   36.9561 H   0  0  0  0  0  0  0  0  0  0  0  0
   43.5722   17.1126   36.9561 H   0  0  0  0  0  0  0  0  0  0  0  0
  1  6  1  0
  2  1  2  0
  2  3  1  0
  3  4  2  0
  4  5  1  0
  5 23  1  0
  6  5  2  0
  7  8  1  0
  7 14  1  0
  9  7  1  0
  9  8  1  0
  9  1  1  0
 10 16  1  0
 10 11  2  0
 12 11  1  0
 13 12  2  0
 14 15  2  0
 14 13  1  0
 15 10  1  0
 17  3  1  0
 17 21  1  0
 18 19  1  0
 18 17  2  0
 19 20  1  0
 20 21  2  0
 20 22  1  0
 23 26  1  0
 23 24  1  0
 25 23  1  0
  2 27  1  0
  7 28  1  6
  8 29  1  0
  8 30  1  0
  9 31  1  6
 11 32  1  0
 12 33  1  0
 16 34  1  0
 16 35  1  0
 18 36  1  0
 22 37  1  0
 22 38  1  0
 22 39  1  0
M  ISO  8  27  14  28  13  29  13  30  13  31  13  32  14  33  14  36  14
M  ISO  3  37   8  38   8  39   8
M  END
>  <minimizedAffinity>  (1) 
-5.76451921

>  <minimizedRMSD>  (1) 
0.293617636

$$$$
