
     RDKit          3D

 28 30  0  0  0  0  0  0  0  0999 V2000
   40.5730   22.8970   35.4870 C   0  0  0  0  0  0  0  0  0  0  0  0
   40.3830   21.9370   34.6860 O   0  0  0  0  0  0  0  0  0  0  0  0
   41.7940   23.6850   35.6320 C   0  0  0  0  0  0  0  0  0  0  0  0
   42.8040   23.3630   36.5470 C   0  0  0  0  0  0  0  0  0  0  0  0
   43.9650   24.0880   36.7130 C   0  0  0  0  0  0  0  0  0  0  0  0
   44.1600   25.2090   35.9350 C   0  0  0  0  0  0  0  0  0  0  0  0
   43.2050   25.5850   35.0130 C   0  0  0  0  0  0  0  0  0  0  0  0
   43.4360   26.7100   34.2530 C   0  0  0  0  0  0  0  0  0  0  0  0
   42.5050   27.1170   33.3190 C   0  0  0  0  0  0  0  0  0  0  0  0
   41.3460   26.3710   33.1700 C   0  0  0  0  0  0  0  0  0  0  0  0
   41.1660   25.2500   33.9600 C   0  0  0  0  0  0  0  0  0  0  0  0
   42.0660   24.8180   34.8950 C   0  0  0  0  0  0  0  0  0  0  0  0
   39.5920   23.4110   36.4340 C   0  0  0  0  0  0  0  0  0  0  0  0
   39.7220   22.8670   37.7160 C   0  0  0  0  0  0  0  0  0  0  0  0
   38.8190   23.3120   38.6860 C   0  0  0  0  0  0  0  0  0  0  0  0
   37.8770   24.2340   38.3390 N   0  0  0  0  0  0  0  0  0  0  0  0
   37.7990   24.7290   37.0690 C   0  0  0  0  0  0  0  0  0  0  0  0
   38.6620   24.3110   36.1240 N   0  0  0  0  0  0  0  0  0  0  0  0
   42.6615   22.4716   37.1756 H   0  0  0  0  0  0  0  0  0  0  0  0
   44.7198   23.7783   37.4508 H   0  0  0  0  0  0  0  0  0  0  0  0
   45.0779   25.8044   36.0493 H   0  0  0  0  0  0  0  0  0  0  0  0
   44.3637   27.2849   34.3905 H   0  0  0  0  0  0  0  0  0  0  0  0
   42.6788   28.0138   32.7061 H   0  0  0  0  0  0  0  0  0  0  0  0
   40.5820   26.6658   32.4355 H   0  0  0  0  0  0  0  0  0  0  0  0
   40.2410   24.6695   33.8280 H   0  0  0  0  0  0  0  0  0  0  0  0
   40.4984   22.1238   37.9500 H   0  0  0  0  0  0  0  0  0  0  0  0
   38.8680   22.9238   39.7141 H   0  0  0  0  0  0  0  0  0  0  0  0
   37.0281   25.4721   36.8169 H   0  0  0  0  0  0  0  0  0  0  0  0
  1  3  1  0
  1 13  1  0
  2  1  2  0
  3  4  2  0
  4  5  1  0
  6  5  2  0
  7  6  1  0
  8  7  2  0
  9  8  1  0
 10  9  2  0
 10 11  1  0
 11 12  2  0
 12  7  1  0
 12  3  1  0
 13 14  2  0
 14 15  1  0
 16 15  2  0
 17 16  1  0
 18 13  1  0
 18 17  2  0
  4 19  1  0
  5 20  1  0
  6 21  1  0
  8 22  1  0
  9 23  1  0
 10 24  1  0
 11 25  1  0
 14 26  1  0
 15 27  1  0
 17 28  1  0
M  ISO  8  19  14  20  14  21  14  22  14  23  14  24  14  25  14  26  14
M  ISO  2  27  14  28  14
M  END
>  <minimizedAffinity>  (1) 
-4.67593288

>  <minimizedRMSD>  (1) 
3.31288171

$$$$
