
     RDKit          3D

 22 23  0  0  0  0  0  0  0  0999 V2000
   41.2990   22.3800   36.8490 C   0  0  0  0  0  0  0  0  0  0  0  0
   41.8850   21.3310   37.2440 O   0  0  0  0  0  0  0  0  0  0  0  0
   39.8830   22.5750   36.9120 C   0  0  0  0  0  0  0  0  0  0  0  0
   39.3850   23.1770   38.0750 C   0  0  0  0  0  0  0  0  0  0  0  0
   38.0250   23.4000   38.2180 C   0  0  0  0  0  0  0  0  0  0  0  0
   37.2050   23.0150   37.1950 N   0  0  0  0  0  0  0  0  0  0  0  0
   37.7050   22.4380   36.0850 C   0  0  0  0  0  0  0  0  0  0  0  0
   39.0170   22.2170   35.9370 N   0  0  0  0  0  0  0  0  0  0  0  0
   42.2860   23.3230   36.3360 C   0  0  0  0  0  0  0  0  0  0  0  0
   43.6220   23.2450   36.6630 C   0  0  0  0  0  0  0  0  0  0  0  0
   44.5960   24.1330   36.1890 C   0  0  0  0  0  0  0  0  0  0  0  0
   44.1930   25.1600   35.3310 C   0  0  0  0  0  0  0  0  0  0  0  0
   42.8500   25.2310   35.0080 C   0  0  0  0  0  0  0  0  0  0  0  0
   41.9290   24.3510   35.4890 C   0  0  0  0  0  0  0  0  0  0  0  0
   40.0763   23.4737   38.8775 H   0  0  0  0  0  0  0  0  0  0  0  0
   37.6188   23.8714   39.1251 H   0  0  0  0  0  0  0  0  0  0  0  0
   37.0174   22.1408   35.2795 H   0  0  0  0  0  0  0  0  0  0  0  0
   43.9431   22.4369   37.3367 H   0  0  0  0  0  0  0  0  0  0  0  0
   45.6501   24.0249   36.4842 H   0  0  0  0  0  0  0  0  0  0  0  0
   44.9163   25.8842   34.9280 H   0  0  0  0  0  0  0  0  0  0  0  0
   42.5117   26.0320   34.3342 H   0  0  0  0  0  0  0  0  0  0  0  0
   40.8750   24.4628   35.1949 H   0  0  0  0  0  0  0  0  0  0  0  0
  1  3  1  0
  1  2  2  0
  3  4  2  0
  4  5  1  0
  6  5  2  0
  7  6  1  0
  8  7  2  0
  8  3  1  0
  9 10  2  0
  9  1  1  0
 11 10  1  0
 12 11  2  0
 13 12  1  0
 13 14  2  0
 14  9  1  0
  4 15  1  0
  5 16  1  0
  7 17  1  0
 10 18  1  0
 11 19  1  0
 12 20  1  0
 13 21  1  0
 14 22  1  0
M  ISO  8  15  14  16  14  17  14  18  14  19  14  20  14  21  14  22  14
M  END
>  <minimizedAffinity>  (1) 
-4.10649967

>  <minimizedRMSD>  (1) 
0.705837965

$$$$
