
     RDKit          3D

 25 26  0  0  0  0  0  0  0  0999 V2000
   39.8900   22.4950   36.9260 C   0  0  0  0  0  0  0  0  0  0  0  0
   39.4300   23.1700   38.0610 C   0  0  0  0  0  0  0  0  0  0  0  0
   38.0720   23.4660   38.1680 C   0  0  0  0  0  0  0  0  0  0  0  0
   37.2420   23.0790   37.1500 N   0  0  0  0  0  0  0  0  0  0  0  0
   37.7240   22.4290   36.0710 C   0  0  0  0  0  0  0  0  0  0  0  0
   39.0170   22.1430   35.9600 N   0  0  0  0  0  0  0  0  0  0  0  0
   41.3020   22.2300   36.8940 C   0  0  0  0  0  0  0  0  0  0  0  0
   41.8630   21.2650   37.4680 O   0  0  0  0  0  0  0  0  0  0  0  0
   42.1830   23.1090   36.1610 N   0  0  0  0  0  0  0  0  0  0  0  0
   43.5330   23.2850   36.5920 C   0  0  0  0  0  0  0  0  0  0  0  0
   44.1040   24.6370   36.2760 C   0  0  0  0  0  0  0  0  0  0  0  0
   43.6510   25.1450   35.0610 O   0  0  0  0  0  0  0  0  0  0  0  0
   42.2590   25.2500   35.1690 C   0  0  0  0  0  0  0  0  0  0  0  0
   41.7350   23.8270   34.9880 C   0  0  0  0  0  0  0  0  0  0  0  0
   40.1295   23.4631   38.8577 H   0  0  0  0  0  0  0  0  0  0  0  0
   37.6775   23.9965   39.0472 H   0  0  0  0  0  0  0  0  0  0  0  0
   37.0341   22.1301   35.2681 H   0  0  0  0  0  0  0  0  0  0  0  0
   43.5697   23.1402   37.6818 H   0  0  0  0  0  0  0  0  0  0  0  0
   44.1399   22.5479   36.0458 H   0  0  0  0  0  0  0  0  0  0  0  0
   43.8182   25.3348   37.0769 H   0  0  0  0  0  0  0  0  0  0  0  0
   45.1958   24.5255   36.2012 H   0  0  0  0  0  0  0  0  0  0  0  0
   41.9772   25.6420   36.1574 H   0  0  0  0  0  0  0  0  0  0  0  0
   41.8396   25.9407   34.4226 H   0  0  0  0  0  0  0  0  0  0  0  0
   40.6366   23.8244   34.9296 H   0  0  0  0  0  0  0  0  0  0  0  0
   42.1018   23.3676   34.0582 H   0  0  0  0  0  0  0  0  0  0  0  0
  1  2  2  0
  2  3  1  0
  4  3  2  0
  5  4  1  0
  6  5  2  0
  6  1  1  0
  7  1  1  0
  7  8  2  0
  9 10  1  0
  9  7  1  0
 11 10  1  0
 12 13  1  0
 12 11  1  0
 14 13  1  0
 14  9  1  0
  2 15  1  0
  3 16  1  0
  5 17  1  0
 10 18  1  0
 10 19  1  0
 11 20  1  0
 11 21  1  0
 13 22  1  0
 13 23  1  0
 14 24  1  0
 14 25  1  0
M  ISO  8  15  14  16  14  17  14  18  13  19  13  20  13  21  13  22  13
M  ISO  3  23  13  24  13  25  13
M  END
>  <minimizedAffinity>  (1) 
-3.98196507

>  <minimizedRMSD>  (1) 
0.817947507

$$$$
