
     RDKit          3D

 25 26  0  0  0  0  0  0  0  0999 V2000
   39.8720   22.4030   36.9240 C   0  0  0  0  0  0  0  0  0  0  0  0
   39.4510   23.0950   38.0700 C   0  0  0  0  0  0  0  0  0  0  0  0
   38.0960   23.4690   38.1400 C   0  0  0  0  0  0  0  0  0  0  0  0
   37.2770   23.1450   37.1060 N   0  0  0  0  0  0  0  0  0  0  0  0
   37.7440   22.4760   36.0260 C   0  0  0  0  0  0  0  0  0  0  0  0
   39.0170   22.1080   35.9280 N   0  0  0  0  0  0  0  0  0  0  0  0
   41.2670   22.0510   36.9190 C   0  0  0  0  0  0  0  0  0  0  0  0
   41.8280   21.2100   37.6390 O   0  0  0  0  0  0  0  0  0  0  0  0
   42.1020   22.7930   35.9300 C   0  0  0  0  0  0  0  0  0  0  0  0
   43.4780   23.1030   36.5100 C   0  0  0  0  0  0  0  0  0  0  0  0
   43.7150   24.5840   36.2240 C   0  0  0  0  0  0  0  0  0  0  0  0
   42.7910   24.8160   35.0200 C   0  0  0  0  0  0  0  0  0  0  0  0
   41.5390   24.1270   35.5530 C   0  0  0  0  0  0  0  0  0  0  0  0
   40.1528   23.3358   38.8821 H   0  0  0  0  0  0  0  0  0  0  0  0
   37.7082   24.0125   39.0142 H   0  0  0  0  0  0  0  0  0  0  0  0
   37.0512   22.2304   35.2076 H   0  0  0  0  0  0  0  0  0  0  0  0
   42.1394   22.1305   35.0527 H   0  0  0  0  0  0  0  0  0  0  0  0
   43.4904   22.9136   37.5935 H   0  0  0  0  0  0  0  0  0  0  0  0
   44.2608   22.4705   36.0659 H   0  0  0  0  0  0  0  0  0  0  0  0
   43.4238   25.2101   37.0803 H   0  0  0  0  0  0  0  0  0  0  0  0
   44.7680   24.8413   36.0369 H   0  0  0  0  0  0  0  0  0  0  0  0
   43.1717   24.3339   34.1075 H   0  0  0  0  0  0  0  0  0  0  0  0
   42.6630   25.8647   34.7137 H   0  0  0  0  0  0  0  0  0  0  0  0
   41.1252   24.6544   36.4251 H   0  0  0  0  0  0  0  0  0  0  0  0
   40.7002   24.0865   34.8425 H   0  0  0  0  0  0  0  0  0  0  0  0
  1  2  2  0
  2  3  1  0
  4  3  2  0
  5  4  1  0
  6  5  2  0
  6  1  1  0
  7  1  1  0
  7  8  2  0
  9 10  1  0
  9  7  1  0
 11 10  1  0
 12 13  1  0
 12 11  1  0
 13  9  1  0
  2 14  1  0
  3 15  1  0
  5 16  1  0
  9 17  1  0
 10 18  1  0
 10 19  1  0
 11 20  1  0
 11 21  1  0
 12 22  1  0
 12 23  1  0
 13 24  1  0
 13 25  1  0
M  ISO  8  14  14  15  14  16  14  17  13  18  13  19  13  20  13  21  13
M  ISO  4  22  13  23  13  24  13  25  13
M  END
>  <minimizedAffinity>  (1) 
-3.96152282

>  <minimizedRMSD>  (1) 
0.975339055

$$$$
