
     RDKit          3D

 24 25  0  0  0  0  0  0  0  0999 V2000
   39.8940   22.4810   36.9340 C   0  0  0  0  0  0  0  0  0  0  0  0
   39.4250   23.1570   38.0790 C   0  0  0  0  0  0  0  0  0  0  0  0
   38.0720   23.4640   38.1770 C   0  0  0  0  0  0  0  0  0  0  0  0
   37.2520   23.0990   37.1620 N   0  0  0  0  0  0  0  0  0  0  0  0
   37.7270   22.4500   36.0730 C   0  0  0  0  0  0  0  0  0  0  0  0
   39.0310   22.1520   35.9720 N   0  0  0  0  0  0  0  0  0  0  0  0
   41.3030   22.2080   36.9230 C   0  0  0  0  0  0  0  0  0  0  0  0
   41.8440   21.2330   37.5130 O   0  0  0  0  0  0  0  0  0  0  0  0
   42.1730   23.0770   36.2070 N   0  0  0  0  0  0  0  0  0  0  0  0
   43.4410   23.6140   36.6560 C   0  0  0  0  0  0  0  0  0  0  0  0
   43.6990   24.8630   35.8410 C   0  0  0  0  0  0  0  0  0  0  0  0
   42.3440   25.0950   35.2070 C   0  0  0  0  0  0  0  0  0  0  0  0
   42.0080   23.6370   34.8630 C   0  0  0  0  0  0  0  0  0  0  0  0
   40.1199   23.4379   38.8841 H   0  0  0  0  0  0  0  0  0  0  0  0
   37.6768   23.9909   39.0580 H   0  0  0  0  0  0  0  0  0  0  0  0
   37.0380   22.1647   35.2644 H   0  0  0  0  0  0  0  0  0  0  0  0
   43.3891   23.8638   37.7260 H   0  0  0  0  0  0  0  0  0  0  0  0
   44.2501   22.8809   36.5224 H   0  0  0  0  0  0  0  0  0  0  0  0
   43.9927   25.7074   36.4819 H   0  0  0  0  0  0  0  0  0  0  0  0
   44.5217   24.7644   35.1175 H   0  0  0  0  0  0  0  0  0  0  0  0
   41.6236   25.5316   35.9144 H   0  0  0  0  0  0  0  0  0  0  0  0
   42.3226   25.8037   34.3660 H   0  0  0  0  0  0  0  0  0  0  0  0
   40.9812   23.5224   34.4853 H   0  0  0  0  0  0  0  0  0  0  0  0
   42.6090   23.1744   34.0663 H   0  0  0  0  0  0  0  0  0  0  0  0
  1  2  2  0
  2  3  1  0
  4  3  2  0
  5  4  1  0
  6  5  2  0
  6  1  1  0
  7  1  1  0
  7  8  2  0
  9 10  1  0
  9  7  1  0
 11 10  1  0
 12 11  1  0
 13 12  1  0
 13  9  1  0
  2 14  1  0
  3 15  1  0
  5 16  1  0
 10 17  1  0
 10 18  1  0
 11 19  1  0
 11 20  1  0
 12 21  1  0
 12 22  1  0
 13 23  1  0
 13 24  1  0
M  ISO  8  14  14  15  14  16  14  17  13  18  13  19  13  20  13  21  13
M  ISO  3  22  13  23  13  24  13
M  END
>  <minimizedAffinity>  (1) 
-3.95105815

>  <minimizedRMSD>  (1) 
0.690524757

$$$$
