
     RDKit          3D

 19 20  0  0  0  0  0  0  0  0999 V2000
   39.8870   22.4800   36.9780 C   0  0  0  0  0  0  0  0  0  0  0  0
   39.4030   23.1340   38.1290 C   0  0  0  0  0  0  0  0  0  0  0  0
   38.0530   23.4530   38.1980 C   0  0  0  0  0  0  0  0  0  0  0  0
   37.2630   23.1170   37.1460 N   0  0  0  0  0  0  0  0  0  0  0  0
   37.7630   22.4860   36.0450 C   0  0  0  0  0  0  0  0  0  0  0  0
   39.0550   22.1820   35.9820 N   0  0  0  0  0  0  0  0  0  0  0  0
   41.3060   22.2030   37.0260 C   0  0  0  0  0  0  0  0  0  0  0  0
   41.8210   21.1810   37.5400 O   0  0  0  0  0  0  0  0  0  0  0  0
   42.2210   23.1810   36.4330 C   0  0  0  0  0  0  0  0  0  0  0  0
   43.6090   23.1790   36.5710 C   0  0  0  0  0  0  0  0  0  0  0  0
   44.1170   24.2490   35.8740 C   0  0  0  0  0  0  0  0  0  0  0  0
   43.0070   24.8750   35.3270 C   0  0  0  0  0  0  0  0  0  0  0  0
   41.9290   24.2150   35.6820 O   0  0  0  0  0  0  0  0  0  0  0  0
   40.0816   23.3869   38.9569 H   0  0  0  0  0  0  0  0  0  0  0  0
   37.6360   23.9629   39.0790 H   0  0  0  0  0  0  0  0  0  0  0  0
   37.0963   22.2286   35.2088 H   0  0  0  0  0  0  0  0  0  0  0  0
   44.1975   22.4451   37.1412 H   0  0  0  0  0  0  0  0  0  0  0  0
   45.1718   24.5439   35.7724 H   0  0  0  0  0  0  0  0  0  0  0  0
   43.0266   25.7774   34.6982 H   0  0  0  0  0  0  0  0  0  0  0  0
  1  7  1  0
  1  2  2  0
  2  3  1  0
  4  3  2  0
  5  4  1  0
  6  5  2  0
  6  1  1  0
  7  8  2  0
  9 10  2  0
  9  7  1  0
 11 10  1  0
 12 13  1  0
 12 11  2  0
 13  9  1  0
  2 14  1  0
  3 15  1  0
  5 16  1  0
 10 17  1  0
 11 18  1  0
 12 19  1  0
M  ISO  6  14  14  15  14  16  14  17  14  18  14  19  14
M  END
>  <minimizedAffinity>  (1) 
-3.87310004

>  <minimizedRMSD>  (1) 
0.915150523

$$$$
