
     RDKit          3D

 35 38  0  0  0  0  0  0  0  0999 V2000
   42.1430   23.0820   36.3960 C   0  0  0  0  0  0  0  0  0  0  0  0
   43.5050   22.9020   36.5830 C   0  0  0  0  0  0  0  0  0  0  0  0
   44.4520   23.7190   35.9690 C   0  0  0  0  0  0  0  0  0  0  0  0
   43.9900   24.7250   35.1590 C   0  0  0  0  0  0  0  0  0  0  0  0
   42.6120   24.8600   35.0100 C   0  0  0  0  0  0  0  0  0  0  0  0
   41.7180   24.0700   35.6030 N   0  0  0  0  0  0  0  0  0  0  0  0
   42.1550   25.9400   34.1420 C   0  0  0  0  0  0  0  0  0  0  0  0
   42.7550   27.1390   33.8140 C   0  0  0  0  0  0  0  0  0  0  0  0
   42.0000   27.8520   32.9820 N   0  0  0  0  0  0  0  0  0  0  0  0
   40.8680   27.1600   32.7220 C   0  0  0  0  0  0  0  0  0  0  0  0
   39.7480   27.4080   31.9420 C   0  0  0  0  0  0  0  0  0  0  0  0
   38.7140   26.5040   31.8550 C   0  0  0  0  0  0  0  0  0  0  0  0
   38.7790   25.3200   32.5560 C   0  0  0  0  0  0  0  0  0  0  0  0
   39.9060   25.0890   33.3290 C   0  0  0  0  0  0  0  0  0  0  0  0
   40.9590   25.9800   33.4340 C   0  0  0  0  0  0  0  0  0  0  0  0
   41.2430   22.1460   37.0960 C   0  0  0  0  0  0  0  0  0  0  0  0
   41.7710   21.1740   37.6670 O   0  0  0  0  0  0  0  0  0  0  0  0
   39.8270   22.4580   37.0450 C   0  0  0  0  0  0  0  0  0  0  0  0
   39.3730   23.1360   38.1720 C   0  0  0  0  0  0  0  0  0  0  0  0
   38.0040   23.4670   38.1800 C   0  0  0  0  0  0  0  0  0  0  0  0
   37.2200   23.1250   37.1320 N   0  0  0  0  0  0  0  0  0  0  0  0
   37.7210   22.4700   36.0710 C   0  0  0  0  0  0  0  0  0  0  0  0
   39.0280   22.1330   36.0200 N   0  0  0  0  0  0  0  0  0  0  0  0
   43.8491   22.0876   37.2375 H   0  0  0  0  0  0  0  0  0  0  0  0
   45.5293   23.5632   36.1278 H   0  0  0  0  0  0  0  0  0  0  0  0
   44.6858   25.4034   34.6436 H   0  0  0  0  0  0  0  0  0  0  0  0
   43.7350   27.4645   34.1931 H   0  0  0  0  0  0  0  0  0  0  0  0
   42.2386   28.7780   32.5993 H   0  0  0  0  0  0  0  0  0  0  0  0
   39.6848   28.3508   31.3789 H   0  0  0  0  0  0  0  0  0  0  0  0
   37.8383   26.7263   31.2276 H   0  0  0  0  0  0  0  0  0  0  0  0
   37.9642   24.5829   32.5041 H   0  0  0  0  0  0  0  0  0  0  0  0
   39.9665   24.1448   33.8901 H   0  0  0  0  0  0  0  0  0  0  0  0
   40.0419   23.3974   39.0052 H   0  0  0  0  0  0  0  0  0  0  0  0
   37.5726   24.0033   39.0380 H   0  0  0  0  0  0  0  0  0  0  0  0
   37.0586   22.2050   35.2337 H   0  0  0  0  0  0  0  0  0  0  0  0
  1  2  2  0
  1 16  1  0
  3  2  1  0
  4  3  2  0
  5  4  1  0
  5  6  2  0
  6  1  1  0
  7  5  1  0
  8  7  2  0
  9  8  1  0
 10  9  1  0
 10 15  2  0
 11 10  1  0
 12 11  2  0
 12 13  1  0
 13 14  2  0
 14 15  1  0
 15  7  1  0
 16 17  2  0
 18 16  1  0
 18 19  2  0
 19 20  1  0
 21 20  2  0
 22 21  1  0
 23 22  2  0
 23 18  1  0
  2 24  1  0
  3 25  1  0
  4 26  1  0
  8 27  1  0
  9 28  1  0
 11 29  1  0
 12 30  1  0
 13 31  1  0
 14 32  1  0
 19 33  1  0
 20 34  1  0
 22 35  1  0
M  ISO  8  24  14  25  14  26  14  27  14  28   9  29  14  30  14  31  14
M  ISO  4  32  14  33  14  34  14  35  14
M  END
>  <minimizedAffinity>  (1) 
-5.41136503

>  <minimizedRMSD>  (1) 
0.310381085

$$$$
