
     RDKit          3D

 32 34  0  0  0  0  0  0  0  0999 V2000
   42.0670   23.4120   36.2120 C   0  0  0  0  0  0  0  0  0  0  0  0
   43.3270   23.6760   36.7380 C   0  0  0  0  0  0  0  0  0  0  0  0
   44.1490   24.6750   36.1900 C   0  0  0  0  0  0  0  0  0  0  0  0
   43.6770   25.3860   35.1190 C   0  0  0  0  0  0  0  0  0  0  0  0
   42.4100   25.0720   34.6430 C   0  0  0  0  0  0  0  0  0  0  0  0
   41.6190   24.1190   35.1610 N   0  0  0  0  0  0  0  0  0  0  0  0
   41.8100   25.7510   33.5240 N   0  0  0  0  0  0  0  0  0  0  0  0
   42.1830   25.5610   32.2450 C   0  0  0  0  0  0  0  0  0  0  0  0
   41.5230   26.2780   31.2640 C   0  0  0  0  0  0  0  0  0  0  0  0
   40.5150   27.1540   31.6360 C   0  0  0  0  0  0  0  0  0  0  0  0
   39.9240   27.8230   30.5240 N   0  0  0  0  0  0  0  0  0  0  0  0
   40.1890   27.2990   32.9300 N   0  0  0  0  0  0  0  0  0  0  0  0
   40.8240   26.6070   33.8920 C   0  0  0  0  0  0  0  0  0  0  0  0
   40.4700   26.7890   35.0850 O   0  0  0  0  0  0  0  0  0  0  0  0
   41.2720   22.3460   36.8490 C   0  0  0  0  0  0  0  0  0  0  0  0
   41.9140   21.3670   37.2880 O   0  0  0  0  0  0  0  0  0  0  0  0
   39.8430   22.5390   36.9020 C   0  0  0  0  0  0  0  0  0  0  0  0
   39.4200   23.1780   38.0750 C   0  0  0  0  0  0  0  0  0  0  0  0
   38.0340   23.4040   38.2020 C   0  0  0  0  0  0  0  0  0  0  0  0
   37.2030   23.0050   37.2160 N   0  0  0  0  0  0  0  0  0  0  0  0
   37.6750   22.3930   36.1070 C   0  0  0  0  0  0  0  0  0  0  0  0
   38.9960   22.1640   35.9590 N   0  0  0  0  0  0  0  0  0  0  0  0
   43.6864   23.0923   37.5983 H   0  0  0  0  0  0  0  0  0  0  0  0
   45.1447   24.8805   36.6099 H   0  0  0  0  0  0  0  0  0  0  0  0
   44.2801   26.1784   34.6517 H   0  0  0  0  0  0  0  0  0  0  0  0
   42.9881   24.8570   31.9879 H   0  0  0  0  0  0  0  0  0  0  0  0
   41.7936   26.1552   30.2049 H   0  0  0  0  0  0  0  0  0  0  0  0
   39.1626   28.4999   30.6755 H   0  0  0  0  0  0  0  0  0  0  0  0
   40.2586   27.6294   29.5693 H   0  0  0  0  0  0  0  0  0  0  0  0
   40.1312   23.4869   38.8552 H   0  0  0  0  0  0  0  0  0  0  0  0
   37.6332   23.9015   39.0975 H   0  0  0  0  0  0  0  0  0  0  0  0
   36.9756   22.0789   35.3182 H   0  0  0  0  0  0  0  0  0  0  0  0
  1  2  2  0
  1 15  1  0
  3  2  1  0
  4  3  2  0
  5  4  1  0
  5  6  2  0
  6  1  1  0
  7 13  1  0
  7  5  1  0
  8  7  1  0
  9 10  1  0
  9  8  2  0
 10 12  2  0
 11 10  1  0
 12 13  1  0
 13 14  2  0
 15 17  1  0
 15 16  2  0
 17 18  2  0
 18 19  1  0
 20 19  2  0
 21 20  1  0
 22 21  2  0
 22 17  1  0
  2 23  1  0
  3 24  1  0
  4 25  1  0
  8 26  1  0
  9 27  1  0
 11 28  1  0
 11 29  1  0
 18 30  1  0
 19 31  1  0
 21 32  1  0
M  ISO  8  23  14  24  14  25  14  26  14  27  14  30  14  31  14  32  14
M  END
>  <minimizedAffinity>  (1) 
-5.19136238

>  <minimizedRMSD>  (1) 
0.611671329

$$$$
