
     RDKit          3D

 37 39  0  0  0  0  0  0  0  0999 V2000
   42.0820   23.3750   36.3140 C   0  0  0  0  0  0  0  0  0  0  0  0
   43.4330   23.3860   36.6570 C   0  0  0  0  0  0  0  0  0  0  0  0
   44.2980   24.3720   36.1770 C   0  0  0  0  0  0  0  0  0  0  0  0
   43.7520   25.3390   35.3440 C   0  0  0  0  0  0  0  0  0  0  0  0
   42.3970   25.2700   35.0410 C   0  0  0  0  0  0  0  0  0  0  0  0
   41.5840   24.3220   35.5070 N   0  0  0  0  0  0  0  0  0  0  0  0
   41.8960   26.3270   34.1560 C   0  0  0  0  0  0  0  0  0  0  0  0
   40.7140   25.8790   33.3110 C   0  0  0  0  0  0  0  0  0  0  0  0
   40.1820   27.1310   32.6480 C   0  0  0  0  0  0  0  0  0  0  0  0
   41.2330   27.5410   31.6240 C   0  0  0  0  0  0  0  0  0  0  0  0
   42.5450   27.8370   32.2650 C   0  0  0  0  0  0  0  0  0  0  0  0
   43.0050   26.8080   33.2460 C   0  0  0  0  0  0  0  0  0  0  0  0
   41.2570   22.2800   36.8820 C   0  0  0  0  0  0  0  0  0  0  0  0
   41.8550   21.2670   37.2750 O   0  0  0  0  0  0  0  0  0  0  0  0
   39.8420   22.5030   36.9200 C   0  0  0  0  0  0  0  0  0  0  0  0
   39.3920   23.1410   38.0960 C   0  0  0  0  0  0  0  0  0  0  0  0
   38.0130   23.3970   38.2100 C   0  0  0  0  0  0  0  0  0  0  0  0
   37.1920   23.0270   37.2080 N   0  0  0  0  0  0  0  0  0  0  0  0
   37.6710   22.4170   36.0990 C   0  0  0  0  0  0  0  0  0  0  0  0
   38.9840   22.1650   35.9720 N   0  0  0  0  0  0  0  0  0  0  0  0
   43.8264   22.6013   37.3199 H   0  0  0  0  0  0  0  0  0  0  0  0
   45.3643   24.3819   36.4470 H   0  0  0  0  0  0  0  0  0  0  0  0
   44.3788   26.1436   34.9320 H   0  0  0  0  0  0  0  0  0  0  0  0
   41.5478   27.1441   34.8049 H   0  0  0  0  0  0  0  0  0  0  0  0
   41.0395   25.1525   32.5519 H   0  0  0  0  0  0  0  0  0  0  0  0
   39.9435   25.3863   33.9222 H   0  0  0  0  0  0  0  0  0  0  0  0
   39.2237   26.9223   32.1499 H   0  0  0  0  0  0  0  0  0  0  0  0
   40.0002   27.9301   33.3818 H   0  0  0  0  0  0  0  0  0  0  0  0
   40.8837   28.4406   31.0961 H   0  0  0  0  0  0  0  0  0  0  0  0
   41.3752   26.7028   30.9260 H   0  0  0  0  0  0  0  0  0  0  0  0
   43.3034   27.9184   31.4724 H   0  0  0  0  0  0  0  0  0  0  0  0
   42.4111   28.7700   32.8320 H   0  0  0  0  0  0  0  0  0  0  0  0
   43.4023   25.9458   32.6904 H   0  0  0  0  0  0  0  0  0  0  0  0
   43.7735   27.2751   33.8794 H   0  0  0  0  0  0  0  0  0  0  0  0
   40.0932   23.4274   38.8937 H   0  0  0  0  0  0  0  0  0  0  0  0
   37.6106   23.8928   39.1057 H   0  0  0  0  0  0  0  0  0  0  0  0
   36.9793   22.1252   35.2950 H   0  0  0  0  0  0  0  0  0  0  0  0
  1  2  2  0
  1 13  1  0
  3  2  1  0
  4  3  2  0
  5  4  1  0
  5  6  2  0
  6  1  1  0
  7  5  1  0
  8  7  1  0
  9  8  1  0
 10 11  1  0
 10  9  1  0
 11 12  1  0
 12  7  1  0
 13 15  1  0
 13 14  2  0
 15 16  2  0
 16 17  1  0
 18 17  2  0
 19 18  1  0
 20 19  2  0
 20 15  1  0
  2 21  1  0
  3 22  1  0
  4 23  1  0
  7 24  1  0
  8 25  1  0
  8 26  1  0
  9 27  1  0
  9 28  1  0
 10 29  1  0
 10 30  1  0
 11 31  1  0
 11 32  1  0
 12 33  1  0
 12 34  1  0
 16 35  1  0
 17 36  1  0
 19 37  1  0
M  ISO  8  21  14  22  14  23  14  24  13  25  13  26  13  27  13  28  13
M  ISO  8  29  13  30  13  31  13  32  13  33  13  34  13  35  14  36  14
M  ISO  1  37  14
M  END
>  <minimizedAffinity>  (1) 
-4.86151981

>  <minimizedRMSD>  (1) 
0.198231101

$$$$
