
     RDKit          3D

 28 30  0  0  0  0  0  0  0  0999 V2000
   42.1610   23.2300   36.3820 C   0  0  0  0  0  0  0  0  0  0  0  0
   43.4920   23.2440   36.7920 C   0  0  0  0  0  0  0  0  0  0  0  0
   44.3920   24.1890   36.2990 C   0  0  0  0  0  0  0  0  0  0  0  0
   43.9230   25.1090   35.3960 C   0  0  0  0  0  0  0  0  0  0  0  0
   42.5970   25.0550   35.0210 C   0  0  0  0  0  0  0  0  0  0  0  0
   41.7320   24.1370   35.5020 N   0  0  0  0  0  0  0  0  0  0  0  0
   42.1250   26.0510   34.0540 C   0  0  0  0  0  0  0  0  0  0  0  0
   41.1540   25.8320   33.0690 C   0  0  0  0  0  0  0  0  0  0  0  0
   40.9680   26.9790   32.3510 N   0  0  0  0  0  0  0  0  0  0  0  0
   41.8180   27.8620   32.9070 C   0  0  0  0  0  0  0  0  0  0  0  0
   42.5250   27.3410   33.9250 N   0  0  0  0  0  0  0  0  0  0  0  0
   41.2800   22.1950   36.9540 C   0  0  0  0  0  0  0  0  0  0  0  0
   41.8370   21.1580   37.3860 O   0  0  0  0  0  0  0  0  0  0  0  0
   39.8640   22.4760   36.9610 C   0  0  0  0  0  0  0  0  0  0  0  0
   39.4220   23.1340   38.1020 C   0  0  0  0  0  0  0  0  0  0  0  0
   38.0590   23.4400   38.1790 C   0  0  0  0  0  0  0  0  0  0  0  0
   37.2390   23.0860   37.1530 N   0  0  0  0  0  0  0  0  0  0  0  0
   37.7300   22.4490   36.0690 C   0  0  0  0  0  0  0  0  0  0  0  0
   39.0310   22.1420   35.9660 N   0  0  0  0  0  0  0  0  0  0  0  0
   43.8403   22.4953   37.5187 H   0  0  0  0  0  0  0  0  0  0  0  0
   45.4430   24.1962   36.6236 H   0  0  0  0  0  0  0  0  0  0  0  0
   44.5923   25.8757   34.9787 H   0  0  0  0  0  0  0  0  0  0  0  0
   40.6234   24.8834   32.8997 H   0  0  0  0  0  0  0  0  0  0  0  0
   41.9233   28.9019   32.5642 H   0  0  0  0  0  0  0  0  0  0  0  0
   43.2321   27.8263   34.4954 H   0  0  0  0  0  0  0  0  0  0  0  0
   40.1156   23.4035   38.9121 H   0  0  0  0  0  0  0  0  0  0  0  0
   37.6549   23.9611   39.0595 H   0  0  0  0  0  0  0  0  0  0  0  0
   37.0470   22.1755   35.2513 H   0  0  0  0  0  0  0  0  0  0  0  0
  1  2  2  0
  1 12  1  0
  3  2  1  0
  4  3  2  0
  5  4  1  0
  5  6  2  0
  6  1  1  0
  7  5  1  0
  8  7  2  0
  9 10  2  0
  9  8  1  0
 10 11  1  0
 11  7  1  0
 12 14  1  0
 12 13  2  0
 14 15  2  0
 15 16  1  0
 17 16  2  0
 18 17  1  0
 19 18  2  0
 19 14  1  0
  2 20  1  0
  3 21  1  0
  4 22  1  0
  8 23  1  0
 10 24  1  0
 11 25  1  0
 15 26  1  0
 16 27  1  0
 18 28  1  0
M  ISO  8  20  14  21  14  22  14  23  14  24  14  25   9  26  14  27  14
M  ISO  1  28  14
M  END
>  <minimizedAffinity>  (1) 
-4.74741554

>  <minimizedRMSD>  (1) 
0.14126721

$$$$
