
     RDKit          3D

 27 28  0  0  0  0  0  0  0  0999 V2000
   42.0840   23.3470   36.2710 C   0  0  0  0  0  0  0  0  0  0  0  0
   43.4310   23.3360   36.6360 C   0  0  0  0  0  0  0  0  0  0  0  0
   44.3150   24.3320   36.2020 C   0  0  0  0  0  0  0  0  0  0  0  0
   43.7920   25.3290   35.3940 C   0  0  0  0  0  0  0  0  0  0  0  0
   42.4500   25.2800   35.0710 C   0  0  0  0  0  0  0  0  0  0  0  0
   41.6200   24.3250   35.4920 N   0  0  0  0  0  0  0  0  0  0  0  0
   41.2500   22.2450   36.7890 C   0  0  0  0  0  0  0  0  0  0  0  0
   41.8400   21.1930   37.1240 O   0  0  0  0  0  0  0  0  0  0  0  0
   39.8370   22.4880   36.8570 C   0  0  0  0  0  0  0  0  0  0  0  0
   39.4370   23.1250   38.0510 C   0  0  0  0  0  0  0  0  0  0  0  0
   38.0670   23.3980   38.1950 C   0  0  0  0  0  0  0  0  0  0  0  0
   37.2140   23.0460   37.2090 N   0  0  0  0  0  0  0  0  0  0  0  0
   37.6500   22.4370   36.0860 C   0  0  0  0  0  0  0  0  0  0  0  0
   38.9550   22.1670   35.9250 N   0  0  0  0  0  0  0  0  0  0  0  0
   42.0120   26.4050   34.1990 C   0  0  0  0  0  0  0  0  0  0  0  0
   40.6120   26.8380   34.4770 C   0  0  0  0  0  0  0  0  0  0  0  0
   43.8070   22.5267   37.2792 H   0  0  0  0  0  0  0  0  0  0  0  0
   45.3767   24.3232   36.4896 H   0  0  0  0  0  0  0  0  0  0  0  0
   44.4314   26.1414   35.0182 H   0  0  0  0  0  0  0  0  0  0  0  0
   40.1636   23.3948   38.8316 H   0  0  0  0  0  0  0  0  0  0  0  0
   37.6922   23.8939   39.1025 H   0  0  0  0  0  0  0  0  0  0  0  0
   36.9326   22.1607   35.2992 H   0  0  0  0  0  0  0  0  0  0  0  0
   42.0788   26.0831   33.1493 H   0  0  0  0  0  0  0  0  0  0  0  0
   42.6714   27.2610   34.4050 H   0  0  0  0  0  0  0  0  0  0  0  0
   40.4525   26.8873   35.5643 H   0  0  0  0  0  0  0  0  0  0  0  0
   40.4409   27.8310   34.0359 H   0  0  0  0  0  0  0  0  0  0  0  0
   39.9101   26.1150   34.0359 H   0  0  0  0  0  0  0  0  0  0  0  0
  1  2  2  0
  1  7  1  0
  3  2  1  0
  4  3  2  0
  5  4  1  0
  5  6  2  0
  6  1  1  0
  7  9  1  0
  7  8  2  0
  9 10  2  0
 10 11  1  0
 12 11  2  0
 13 12  1  0
 14 13  2  0
 14  9  1  0
 15 16  1  0
 15  5  1  0
  2 17  1  0
  3 18  1  0
  4 19  1  0
 10 20  1  0
 11 21  1  0
 13 22  1  0
 15 23  1  0
 15 24  1  0
 16 25  1  0
 16 26  1  0
 16 27  1  0
M  ISO  8  17  14  18  14  19  14  20  14  21  14  22  14  23   8  24   8
M  ISO  3  25   8  26   8  27   8
M  END
>  <minimizedAffinity>  (1) 
-4.42361355

>  <minimizedRMSD>  (1) 
0.11281272

$$$$
