
     RDKit          3D

 23 24  0  0  0  0  0  0  0  0999 V2000
   42.1370   23.2560   36.3300 C   0  0  0  0  0  0  0  0  0  0  0  0
   43.4870   23.2230   36.6580 C   0  0  0  0  0  0  0  0  0  0  0  0
   44.3810   24.1840   36.1940 C   0  0  0  0  0  0  0  0  0  0  0  0
   43.8920   25.1840   35.3900 C   0  0  0  0  0  0  0  0  0  0  0  0
   42.5540   25.1640   35.1020 C   0  0  0  0  0  0  0  0  0  0  0  0
   41.6860   24.2470   35.5420 N   0  0  0  0  0  0  0  0  0  0  0  0
   42.0530   26.2350   34.2470 C   0  0  0  0  0  0  0  0  0  0  0  0
   41.0250   26.9250   34.5180 O   0  0  0  0  0  0  0  0  0  0  0  0
   41.2710   22.1900   36.8740 C   0  0  0  0  0  0  0  0  0  0  0  0
   41.8360   21.1440   37.2480 O   0  0  0  0  0  0  0  0  0  0  0  0
   39.8550   22.4720   36.9150 C   0  0  0  0  0  0  0  0  0  0  0  0
   39.4380   23.1180   38.0790 C   0  0  0  0  0  0  0  0  0  0  0  0
   38.0720   23.4220   38.1860 C   0  0  0  0  0  0  0  0  0  0  0  0
   37.2360   23.0790   37.1710 N   0  0  0  0  0  0  0  0  0  0  0  0
   37.6940   22.4530   36.0650 C   0  0  0  0  0  0  0  0  0  0  0  0
   38.9980   22.1540   35.9430 N   0  0  0  0  0  0  0  0  0  0  0  0
   43.8601   22.4139   37.3031 H   0  0  0  0  0  0  0  0  0  0  0  0
   45.4468   24.1435   36.4633 H   0  0  0  0  0  0  0  0  0  0  0  0
   44.5501   25.9708   34.9927 H   0  0  0  0  0  0  0  0  0  0  0  0
   42.5971   26.4555   33.3167 H   0  0  0  0  0  0  0  0  0  0  0  0
   40.1484   23.3776   38.8777 H   0  0  0  0  0  0  0  0  0  0  0  0
   37.6831   23.9314   39.0800 H   0  0  0  0  0  0  0  0  0  0  0  0
   36.9946   22.1863   35.2590 H   0  0  0  0  0  0  0  0  0  0  0  0
  1  2  2  0
  1  9  1  0
  3  2  1  0
  4  3  2  0
  5  4  1  0
  5  6  2  0
  6  1  1  0
  7  8  2  0
  7  5  1  0
  9 11  1  0
  9 10  2  0
 11 12  2  0
 12 13  1  0
 14 13  2  0
 15 14  1  0
 16 15  2  0
 16 11  1  0
  2 17  1  0
  3 18  1  0
  4 19  1  0
  7 20  1  0
 12 21  1  0
 13 22  1  0
 15 23  1  0
M  ISO  7  17  14  18  14  19  14  20   6  21  14  22  14  23  14
M  END
>  <minimizedAffinity>  (1) 
-4.25515747

>  <minimizedRMSD>  (1) 
0.253756344

$$$$
