
     RDKit          3D

 22 23  0  0  0  0  0  0  0  0999 V2000
   41.2750   22.2140   36.7870 C   0  0  0  0  0  0  0  0  0  0  0  0
   41.8480   21.1640   37.1050 O   0  0  0  0  0  0  0  0  0  0  0  0
   39.8540   22.4860   36.8720 C   0  0  0  0  0  0  0  0  0  0  0  0
   39.4570   23.1240   38.0490 C   0  0  0  0  0  0  0  0  0  0  0  0
   38.0860   23.4110   38.1840 C   0  0  0  0  0  0  0  0  0  0  0  0
   37.2320   23.0660   37.1900 N   0  0  0  0  0  0  0  0  0  0  0  0
   37.6700   22.4510   36.0730 C   0  0  0  0  0  0  0  0  0  0  0  0
   38.9750   22.1690   35.9260 N   0  0  0  0  0  0  0  0  0  0  0  0
   42.1210   23.3100   36.2660 C   0  0  0  0  0  0  0  0  0  0  0  0
   43.4450   23.3270   36.6800 C   0  0  0  0  0  0  0  0  0  0  0  0
   44.3290   24.3280   36.2400 C   0  0  0  0  0  0  0  0  0  0  0  0
   43.8330   25.2890   35.3860 C   0  0  0  0  0  0  0  0  0  0  0  0
   42.4960   25.2110   35.0110 C   0  0  0  0  0  0  0  0  0  0  0  0
   41.6700   24.2550   35.4380 N   0  0  0  0  0  0  0  0  0  0  0  0
   41.9400   26.1510   34.1530 O   0  0  0  0  0  0  0  0  0  0  0  0
   40.1813   23.3895   38.8331 H   0  0  0  0  0  0  0  0  0  0  0  0
   37.7106   23.9113   39.0889 H   0  0  0  0  0  0  0  0  0  0  0  0
   36.9572   22.1796   35.2804 H   0  0  0  0  0  0  0  0  0  0  0  0
   43.8089   22.5453   37.3630 H   0  0  0  0  0  0  0  0  0  0  0  0
   45.3795   24.3434   36.5660 H   0  0  0  0  0  0  0  0  0  0  0  0
   44.4780   26.0971   35.0105 H   0  0  0  0  0  0  0  0  0  0  0  0
   40.9867   26.0828   33.8947 H   0  0  0  0  0  0  0  0  0  0  0  0
  1  3  1  0
  1  2  2  0
  3  4  2  0
  4  5  1  0
  6  5  2  0
  7  6  1  0
  8  7  2  0
  8  3  1  0
  9 10  2  0
  9  1  1  0
 11 10  1  0
 12 11  2  0
 13 12  1  0
 13 14  2  0
 14  9  1  0
 15 13  1  0
  4 16  1  0
  5 17  1  0
  7 18  1  0
 10 19  1  0
 11 20  1  0
 12 21  1  0
 15 22  1  0
M  ISO  7  16  14  17  14  18  14  19  14  20  14  21  14  22   3
M  END
>  <minimizedAffinity>  (1) 
-4.16088104

>  <minimizedRMSD>  (1) 
0.0598388836

$$$$
