
     RDKit          3D

 37 40  0  0  0  0  0  0  0  0999 V2000
   42.2850   23.0070   36.5150 C   0  0  0  0  0  0  0  0  0  0  0  0
   43.6460   22.8600   36.8030 C   0  0  0  0  0  0  0  0  0  0  0  0
   44.6130   23.6950   36.2600 C   0  0  0  0  0  0  0  0  0  0  0  0
   44.1830   24.6910   35.4150 C   0  0  0  0  0  0  0  0  0  0  0  0
   42.8290   24.8090   35.1520 C   0  0  0  0  0  0  0  0  0  0  0  0
   41.8920   24.0010   35.6760 N   0  0  0  0  0  0  0  0  0  0  0  0
   42.4280   25.8850   34.2460 C   0  0  0  0  0  0  0  0  0  0  0  0
   41.1340   26.3720   34.1830 C   0  0  0  0  0  0  0  0  0  0  0  0
   40.7670   27.3730   33.3400 C   0  0  0  0  0  0  0  0  0  0  0  0
   41.7650   27.8770   32.5450 C   0  0  0  0  0  0  0  0  0  0  0  0
   43.0940   27.4280   32.5600 C   0  0  0  0  0  0  0  0  0  0  0  0
   43.3150   26.4490   33.4300 N   0  0  0  0  0  0  0  0  0  0  0  0
   41.3390   22.0580   37.1500 C   0  0  0  0  0  0  0  0  0  0  0  0
   41.8430   21.0870   37.7420 O   0  0  0  0  0  0  0  0  0  0  0  0
   39.9430   22.3650   37.0090 C   0  0  0  0  0  0  0  0  0  0  0  0
   39.4220   23.1420   38.0340 C   0  0  0  0  0  0  0  0  0  0  0  0
   38.0660   23.4790   37.9590 C   0  0  0  0  0  0  0  0  0  0  0  0
   37.3210   23.0530   36.9230 N   0  0  0  0  0  0  0  0  0  0  0  0
   37.8830   22.2910   35.9430 C   0  0  0  0  0  0  0  0  0  0  0  0
   39.1780   21.9650   36.0070 N   0  0  0  0  0  0  0  0  0  0  0  0
   37.1290   21.8220   34.8320 N   0  0  0  0  0  0  0  0  0  0  0  0
   37.1130   22.0680   33.5270 N   0  0  0  0  0  0  0  0  0  0  0  0
   36.1730   21.3270   32.9250 C   0  0  0  0  0  0  0  0  0  0  0  0
   35.5500   20.5590   33.9150 C   0  0  0  0  0  0  0  0  0  0  0  0
   36.1770   20.8920   35.1200 C   0  0  0  0  0  0  0  0  0  0  0  0
   43.9609   22.0549   37.4832 H   0  0  0  0  0  0  0  0  0  0  0  0
   45.6795   23.5652   36.4960 H   0  0  0  0  0  0  0  0  0  0  0  0
   44.9037   25.3832   34.9552 H   0  0  0  0  0  0  0  0  0  0  0  0
   40.3716   25.9310   34.8420 H   0  0  0  0  0  0  0  0  0  0  0  0
   39.7361   27.7545   33.2979 H   0  0  0  0  0  0  0  0  0  0  0  0
   41.5056   28.6881   31.8487 H   0  0  0  0  0  0  0  0  0  0  0  0
   43.8785   27.8469   31.9127 H   0  0  0  0  0  0  0  0  0  0  0  0
   40.0498   23.4794   38.8718 H   0  0  0  0  0  0  0  0  0  0  0  0
   37.6084   24.0933   38.7485 H   0  0  0  0  0  0  0  0  0  0  0  0
   35.9350   21.3231   31.8511 H   0  0  0  0  0  0  0  0  0  0  0  0
   34.7313   19.8380   33.7738 H   0  0  0  0  0  0  0  0  0  0  0  0
   35.9448   20.4802   36.1132 H   0  0  0  0  0  0  0  0  0  0  0  0
  1  2  2  0
  1 13  1  0
  3  2  1  0
  4  3  2  0
  5  4  1  0
  5  6  2  0
  6  1  1  0
  7  5  1  0
  8  7  2  0
  9  8  1  0
 10 11  1  0
 10  9  2  0
 11 12  2  0
 12  7  1  0
 13 14  2  0
 15 13  1  0
 15 16  2  0
 17 16  1  0
 18 17  2  0
 19 20  2  0
 19 18  1  0
 20 15  1  0
 21 25  1  0
 21 19  1  0
 22 21  1  0
 23 22  2  0
 23 24  1  0
 24 25  2  0
  2 26  1  0
  3 27  1  0
  4 28  1  0
  8 29  1  0
  9 30  1  0
 10 31  1  0
 11 32  1  0
 16 33  1  0
 17 34  1  0
 23 35  1  0
 24 36  1  0
 25 37  1  0
M  ISO  8  26  14  27  14  28  14  29  14  30  14  31  14  32  14  33  14
M  ISO  4  34  14  35  14  36  14  37  14
M  END
>  <minimizedAffinity>  (1) 
-5.88504982

>  <minimizedRMSD>  (1) 
0.222783297

$$$$
