
     RDKit          3D

 44 47  0  0  0  0  0  0  0  0999 V2000
   42.2870   23.0230   36.4810 C   0  0  0  0  0  0  0  0  0  0  0  0
   43.6320   22.9240   36.8320 C   0  0  0  0  0  0  0  0  0  0  0  0
   44.5850   23.8040   36.3310 C   0  0  0  0  0  0  0  0  0  0  0  0
   44.1560   24.7840   35.4710 C   0  0  0  0  0  0  0  0  0  0  0  0
   42.8090   24.8460   35.1490 C   0  0  0  0  0  0  0  0  0  0  0  0
   41.8880   24.0010   35.6290 N   0  0  0  0  0  0  0  0  0  0  0  0
   42.4110   25.9110   34.2300 C   0  0  0  0  0  0  0  0  0  0  0  0
   41.1270   26.3890   34.1610 C   0  0  0  0  0  0  0  0  0  0  0  0
   40.7450   27.3830   33.3060 C   0  0  0  0  0  0  0  0  0  0  0  0
   41.7520   27.8830   32.5010 C   0  0  0  0  0  0  0  0  0  0  0  0
   43.0760   27.4350   32.5270 C   0  0  0  0  0  0  0  0  0  0  0  0
   43.2930   26.4690   33.4070 N   0  0  0  0  0  0  0  0  0  0  0  0
   41.3510   22.0410   37.0670 C   0  0  0  0  0  0  0  0  0  0  0  0
   41.8580   21.0550   37.6370 O   0  0  0  0  0  0  0  0  0  0  0  0
   39.9560   22.3210   36.9220 C   0  0  0  0  0  0  0  0  0  0  0  0
   39.3980   23.0370   37.9950 C   0  0  0  0  0  0  0  0  0  0  0  0
   38.0440   23.3600   37.9470 C   0  0  0  0  0  0  0  0  0  0  0  0
   37.3140   22.9710   36.8680 N   0  0  0  0  0  0  0  0  0  0  0  0
   37.9060   22.2850   35.8690 C   0  0  0  0  0  0  0  0  0  0  0  0
   39.1940   21.9620   35.8810 N   0  0  0  0  0  0  0  0  0  0  0  0
   37.1180   21.8930   34.7540 N   0  0  0  0  0  0  0  0  0  0  0  0
   37.3640   22.2960   33.3840 C   0  0  0  0  0  0  0  0  0  0  0  0
   37.7910   21.0320   32.6590 C   0  0  0  0  0  0  0  0  0  0  0  0
   36.7440   20.0660   32.6840 N   0  0  0  0  0  0  0  0  0  0  0  0
   35.6600   20.3120   33.5670 C   0  0  0  0  0  0  0  0  0  0  0  0
   35.9700   21.0420   34.8270 C   0  0  0  0  0  0  0  0  0  0  0  0
   43.9480   22.1290   37.5234 H   0  0  0  0  0  0  0  0  0  0  0  0
   45.6446   23.7179   36.6137 H   0  0  0  0  0  0  0  0  0  0  0  0
   44.8677   25.5067   35.0453 H   0  0  0  0  0  0  0  0  0  0  0  0
   40.3687   25.9506   34.8263 H   0  0  0  0  0  0  0  0  0  0  0  0
   39.7120   27.7584   33.2610 H   0  0  0  0  0  0  0  0  0  0  0  0
   41.4945   28.6855   31.7941 H   0  0  0  0  0  0  0  0  0  0  0  0
   43.8633   27.8459   31.8779 H   0  0  0  0  0  0  0  0  0  0  0  0
   40.0170   23.3357   38.8538 H   0  0  0  0  0  0  0  0  0  0  0  0
   37.5732   23.9204   38.7682 H   0  0  0  0  0  0  0  0  0  0  0  0
   36.4481   22.7065   32.9338 H   0  0  0  0  0  0  0  0  0  0  0  0
   38.1319   23.0811   33.3215 H   0  0  0  0  0  0  0  0  0  0  0  0
   38.6810   20.6144   33.1525 H   0  0  0  0  0  0  0  0  0  0  0  0
   38.0205   21.2817   31.6126 H   0  0  0  0  0  0  0  0  0  0  0  0
   36.3593   20.0002   31.7308 H   0  0  0  0  0  0  0  0  0  0  0  0
   34.9108   20.9009   33.0175 H   0  0  0  0  0  0  0  0  0  0  0  0
   35.3204   19.3164   33.8885 H   0  0  0  0  0  0  0  0  0  0  0  0
   36.1427   20.2997   35.6202 H   0  0  0  0  0  0  0  0  0  0  0  0
   35.1089   21.6959   35.0290 H   0  0  0  0  0  0  0  0  0  0  0  0
  1  2  2  0
  1 13  1  0
  3  2  1  0
  4  3  2  0
  5  4  1  0
  5  6  2  0
  6  1  1  0
  7  5  1  0
  8  7  2  0
  9  8  1  0
 10 11  1  0
 10  9  2  0
 11 12  2  0
 12  7  1  0
 13 14  2  0
 15 13  1  0
 15 16  2  0
 17 16  1  0
 18 17  2  0
 19 20  2  0
 19 18  1  0
 20 15  1  0
 21 26  1  0
 21 19  1  0
 22 21  1  0
 23 24  1  0
 23 22  1  0
 24 25  1  0
 25 26  1  0
  2 27  1  0
  3 28  1  0
  4 29  1  0
  8 30  1  0
  9 31  1  0
 10 32  1  0
 11 33  1  0
 16 34  1  0
 17 35  1  0
 22 36  1  0
 22 37  1  0
 23 38  1  0
 23 39  1  0
 24 40  1  0
 25 41  1  0
 25 42  1  0
 26 43  1  0
 26 44  1  0
M  ISO  8  27  14  28  14  29  14  30  14  31  14  32  14  33  14  34  14
M  ISO  8  35  14  36  13  37  13  38  13  39  13  40   5  41  13  42  13
M  ISO  2  43  13  44  13
M  END
>  <minimizedAffinity>  (1) 
-5.78820658

>  <minimizedRMSD>  (1) 
0.254758924

$$$$
