
     RDKit          3D

 37 40  0  0  0  0  0  0  0  0999 V2000
   42.3290   23.0440   36.5070 C   0  0  0  0  0  0  0  0  0  0  0  0
   43.6800   22.9250   36.8380 C   0  0  0  0  0  0  0  0  0  0  0  0
   44.6290   23.7860   36.3140 C   0  0  0  0  0  0  0  0  0  0  0  0
   44.1990   24.7720   35.4520 C   0  0  0  0  0  0  0  0  0  0  0  0
   42.8510   24.8480   35.1560 C   0  0  0  0  0  0  0  0  0  0  0  0
   41.9340   24.0080   35.6660 N   0  0  0  0  0  0  0  0  0  0  0  0
   42.4460   25.9090   34.2370 C   0  0  0  0  0  0  0  0  0  0  0  0
   41.1590   26.3850   34.1720 C   0  0  0  0  0  0  0  0  0  0  0  0
   40.7590   27.3790   33.3190 C   0  0  0  0  0  0  0  0  0  0  0  0
   41.7620   27.8810   32.5090 C   0  0  0  0  0  0  0  0  0  0  0  0
   43.0870   27.4370   32.5310 C   0  0  0  0  0  0  0  0  0  0  0  0
   43.3240   26.4690   33.4100 N   0  0  0  0  0  0  0  0  0  0  0  0
   41.3990   22.0620   37.1300 C   0  0  0  0  0  0  0  0  0  0  0  0
   41.9080   21.1170   37.7530 O   0  0  0  0  0  0  0  0  0  0  0  0
   40.0000   22.3190   36.9390 C   0  0  0  0  0  0  0  0  0  0  0  0
   39.4170   23.0670   37.9640 C   0  0  0  0  0  0  0  0  0  0  0  0
   38.0550   23.3810   37.8860 C   0  0  0  0  0  0  0  0  0  0  0  0
   37.3540   22.9450   36.8170 N   0  0  0  0  0  0  0  0  0  0  0  0
   37.9660   22.2200   35.8480 C   0  0  0  0  0  0  0  0  0  0  0  0
   39.2650   21.9200   35.9180 N   0  0  0  0  0  0  0  0  0  0  0  0
   37.1350   21.7890   34.7270 C   0  0  0  0  0  0  0  0  0  0  0  0
   36.1100   20.8720   34.9840 C   0  0  0  0  0  0  0  0  0  0  0  0
   35.4760   20.6240   33.7860 C   0  0  0  0  0  0  0  0  0  0  0  0
   36.1420   21.4000   32.8580 C   0  0  0  0  0  0  0  0  0  0  0  0
   37.1090   22.0710   33.4390 O   0  0  0  0  0  0  0  0  0  0  0  0
   43.9971   22.1305   37.5296 H   0  0  0  0  0  0  0  0  0  0  0  0
   45.6924   23.6865   36.5772 H   0  0  0  0  0  0  0  0  0  0  0  0
   44.9127   25.4825   35.0096 H   0  0  0  0  0  0  0  0  0  0  0  0
   40.4075   25.9430   34.8427 H   0  0  0  0  0  0  0  0  0  0  0  0
   39.7236   27.7485   33.2810 H   0  0  0  0  0  0  0  0  0  0  0  0
   41.4995   28.6816   31.8017 H   0  0  0  0  0  0  0  0  0  0  0  0
   43.8670   27.8533   31.8766 H   0  0  0  0  0  0  0  0  0  0  0  0
   40.0193   23.4046   38.8203 H   0  0  0  0  0  0  0  0  0  0  0  0
   37.5670   23.9692   38.6771 H   0  0  0  0  0  0  0  0  0  0  0  0
   35.8575   20.4315   35.9598 H   0  0  0  0  0  0  0  0  0  0  0  0
   34.6232   19.9526   33.6074 H   0  0  0  0  0  0  0  0  0  0  0  0
   35.8975   21.4488   31.7866 H   0  0  0  0  0  0  0  0  0  0  0  0
  1  2  2  0
  1 13  1  0
  3  2  1  0
  4  3  2  0
  5  4  1  0
  5  6  2  0
  6  1  1  0
  7  5  1  0
  8  7  2  0
  9  8  1  0
 10 11  1  0
 10  9  2  0
 11 12  2  0
 12  7  1  0
 13 14  2  0
 15 13  1  0
 15 16  2  0
 17 16  1  0
 18 17  2  0
 19 20  2  0
 19 18  1  0
 20 15  1  0
 21 22  2  0
 21 19  1  0
 23 22  1  0
 24 25  1  0
 24 23  2  0
 25 21  1  0
  2 26  1  0
  3 27  1  0
  4 28  1  0
  8 29  1  0
  9 30  1  0
 10 31  1  0
 11 32  1  0
 16 33  1  0
 17 34  1  0
 22 35  1  0
 23 36  1  0
 24 37  1  0
M  ISO  8  26  14  27  14  28  14  29  14  30  14  31  14  32  14  33  14
M  ISO  4  34  14  35  14  36  14  37  14
M  END
>  <minimizedAffinity>  (1) 
-5.63180828

>  <minimizedRMSD>  (1) 
0.365491003

$$$$
