
     RDKit          3D

 42 45  0  0  0  0  0  0  0  0999 V2000
   42.2230   23.0840   36.4620 C   0  0  0  0  0  0  0  0  0  0  0  0
   43.5580   22.9490   36.8440 C   0  0  0  0  0  0  0  0  0  0  0  0
   44.5410   23.8030   36.3510 C   0  0  0  0  0  0  0  0  0  0  0  0
   44.1520   24.7780   35.4800 C   0  0  0  0  0  0  0  0  0  0  0  0
   42.8220   24.8750   35.1300 C   0  0  0  0  0  0  0  0  0  0  0  0
   41.8590   24.0580   35.5970 N   0  0  0  0  0  0  0  0  0  0  0  0
   42.4510   25.9380   34.1850 C   0  0  0  0  0  0  0  0  0  0  0  0
   41.1720   26.4200   34.0460 C   0  0  0  0  0  0  0  0  0  0  0  0
   40.8250   27.3940   33.1730 C   0  0  0  0  0  0  0  0  0  0  0  0
   41.8600   27.8830   32.4150 C   0  0  0  0  0  0  0  0  0  0  0  0
   43.1840   27.4480   32.4960 C   0  0  0  0  0  0  0  0  0  0  0  0
   43.3860   26.4860   33.3960 N   0  0  0  0  0  0  0  0  0  0  0  0
   41.2500   22.1130   37.0510 C   0  0  0  0  0  0  0  0  0  0  0  0
   41.7190   21.2070   37.7450 O   0  0  0  0  0  0  0  0  0  0  0  0
   39.8720   22.3430   36.7440 C   0  0  0  0  0  0  0  0  0  0  0  0
   39.1870   23.0790   37.6960 C   0  0  0  0  0  0  0  0  0  0  0  0
   37.8290   23.3620   37.4830 C   0  0  0  0  0  0  0  0  0  0  0  0
   37.2330   22.9010   36.3470 N   0  0  0  0  0  0  0  0  0  0  0  0
   37.9640   22.1780   35.4430 C   0  0  0  0  0  0  0  0  0  0  0  0
   39.2490   21.9130   35.6460 N   0  0  0  0  0  0  0  0  0  0  0  0
   37.2960   21.7190   34.2700 N   0  0  0  0  0  0  0  0  0  0  0  0
   37.6360   22.0430   32.8970 C   0  0  0  0  0  0  0  0  0  0  0  0
   36.2350   22.3210   32.3350 C   0  0  0  0  0  0  0  0  0  0  0  0
   35.3860   21.2470   33.0090 C   0  0  0  0  0  0  0  0  0  0  0  0
   36.1450   20.8360   34.2530 C   0  0  0  0  0  0  0  0  0  0  0  0
   43.8395   22.1524   37.5484 H   0  0  0  0  0  0  0  0  0  0  0  0
   45.5932   23.6953   36.6530 H   0  0  0  0  0  0  0  0  0  0  0  0
   44.8903   25.4782   35.0620 H   0  0  0  0  0  0  0  0  0  0  0  0
   40.3842   25.9891   34.6813 H   0  0  0  0  0  0  0  0  0  0  0  0
   39.7938   27.7651   33.0781 H   0  0  0  0  0  0  0  0  0  0  0  0
   41.6287   28.6769   31.6896 H   0  0  0  0  0  0  0  0  0  0  0  0
   43.9895   27.8626   31.8721 H   0  0  0  0  0  0  0  0  0  0  0  0
   39.6979   23.4354   38.6027 H   0  0  0  0  0  0  0  0  0  0  0  0
   37.2561   23.9450   38.2191 H   0  0  0  0  0  0  0  0  0  0  0  0
   38.2842   22.9296   32.8351 H   0  0  0  0  0  0  0  0  0  0  0  0
   38.2035   21.2659   32.3641 H   0  0  0  0  0  0  0  0  0  0  0  0
   35.8904   23.3291   32.6086 H   0  0  0  0  0  0  0  0  0  0  0  0
   36.1902   22.2882   31.2364 H   0  0  0  0  0  0  0  0  0  0  0  0
   34.4000   21.6528   33.2793 H   0  0  0  0  0  0  0  0  0  0  0  0
   35.2137   20.3907   32.3404 H   0  0  0  0  0  0  0  0  0  0  0  0
   35.5285   20.9800   35.1526 H   0  0  0  0  0  0  0  0  0  0  0  0
   36.4272   19.7729   34.2447 H   0  0  0  0  0  0  0  0  0  0  0  0
  1  2  2  0
  1 13  1  0
  3  2  1  0
  4  3  2  0
  5  4  1  0
  5  6  2  0
  6  1  1  0
  7  5  1  0
  8  7  2  0
  9  8  1  0
 10 11  1  0
 10  9  2  0
 11 12  2  0
 12  7  1  0
 13 14  2  0
 15 13  1  0
 15 16  2  0
 17 16  1  0
 18 17  2  0
 19 20  2  0
 19 18  1  0
 20 15  1  0
 21 19  1  0
 22 21  1  0
 23 22  1  0
 23 24  1  0
 24 25  1  0
 25 21  1  0
  2 26  1  0
  3 27  1  0
  4 28  1  0
  8 29  1  0
  9 30  1  0
 10 31  1  0
 11 32  1  0
 16 33  1  0
 17 34  1  0
 22 35  1  0
 22 36  1  0
 23 37  1  0
 23 38  1  0
 24 39  1  0
 24 40  1  0
 25 41  1  0
 25 42  1  0
M  ISO  8  26  14  27  14  28  14  29  14  30  14  31  14  32  14  33  14
M  ISO  8  34  14  35  13  36  13  37  13  38  13  39  13  40  13  41  13
M  ISO  1  42  13
M  END
>  <minimizedAffinity>  (1) 
-5.56795502

>  <minimizedRMSD>  (1) 
0.590243638

$$$$
