
     RDKit          3D

 35 38  0  0  0  0  0  0  0  0999 V2000
   42.2590   23.0080   36.5110 C   0  0  0  0  0  0  0  0  0  0  0  0
   43.6220   22.8700   36.7760 C   0  0  0  0  0  0  0  0  0  0  0  0
   44.5760   23.7080   36.2190 C   0  0  0  0  0  0  0  0  0  0  0  0
   44.1250   24.6960   35.3820 C   0  0  0  0  0  0  0  0  0  0  0  0
   42.7590   24.8080   35.1380 C   0  0  0  0  0  0  0  0  0  0  0  0
   41.8400   23.9870   35.6860 N   0  0  0  0  0  0  0  0  0  0  0  0
   42.3460   25.8830   34.2380 C   0  0  0  0  0  0  0  0  0  0  0  0
   41.0420   26.3350   34.1690 C   0  0  0  0  0  0  0  0  0  0  0  0
   40.6390   27.3360   33.3360 C   0  0  0  0  0  0  0  0  0  0  0  0
   41.6470   27.8760   32.5490 C   0  0  0  0  0  0  0  0  0  0  0  0
   42.9720   27.4590   32.5800 C   0  0  0  0  0  0  0  0  0  0  0  0
   43.2200   26.4800   33.4340 N   0  0  0  0  0  0  0  0  0  0  0  0
   41.3310   22.0590   37.1590 C   0  0  0  0  0  0  0  0  0  0  0  0
   41.8400   21.0800   37.7380 O   0  0  0  0  0  0  0  0  0  0  0  0
   39.9310   22.3630   37.0570 C   0  0  0  0  0  0  0  0  0  0  0  0
   39.4440   23.1730   38.0700 C   0  0  0  0  0  0  0  0  0  0  0  0
   38.0830   23.5110   38.0340 C   0  0  0  0  0  0  0  0  0  0  0  0
   37.3000   23.0400   37.0250 N   0  0  0  0  0  0  0  0  0  0  0  0
   37.8320   22.2500   36.0590 C   0  0  0  0  0  0  0  0  0  0  0  0
   39.1320   21.9230   36.0860 N   0  0  0  0  0  0  0  0  0  0  0  0
   37.0350   21.7220   34.9580 C   0  0  0  0  0  0  0  0  0  0  0  0
   35.9700   20.9300   35.2310 N   0  0  0  0  0  0  0  0  0  0  0  0
   35.4050   20.5750   34.0990 O   0  0  0  0  0  0  0  0  0  0  0  0
   36.0640   21.1060   33.0770 C   0  0  0  0  0  0  0  0  0  0  0  0
   37.0930   21.8330   33.5980 N   0  0  0  0  0  0  0  0  0  0  0  0
   43.9518   22.0670   37.4516 H   0  0  0  0  0  0  0  0  0  0  0  0
   45.6469   23.5857   36.4388 H   0  0  0  0  0  0  0  0  0  0  0  0
   44.8339   25.3916   34.9091 H   0  0  0  0  0  0  0  0  0  0  0  0
   40.2909   25.8630   34.8194 H   0  0  0  0  0  0  0  0  0  0  0  0
   39.5978   27.6879   33.2910 H   0  0  0  0  0  0  0  0  0  0  0  0
   41.3793   28.6869   31.8556 H   0  0  0  0  0  0  0  0  0  0  0  0
   43.7514   27.9067   31.9458 H   0  0  0  0  0  0  0  0  0  0  0  0
   40.1008   23.5379   38.8734 H   0  0  0  0  0  0  0  0  0  0  0  0
   37.6512   24.1526   38.8162 H   0  0  0  0  0  0  0  0  0  0  0  0
   35.8251   20.9828   32.0103 H   0  0  0  0  0  0  0  0  0  0  0  0
  1  2  2  0
  1 13  1  0
  3  2  1  0
  4  3  2  0
  5  4  1  0
  5  6  2  0
  6  1  1  0
  7  5  1  0
  8  7  2  0
  9  8  1  0
 10 11  1  0
 10  9  2  0
 11 12  2  0
 12  7  1  0
 13 14  2  0
 15 13  1  0
 15 16  2  0
 17 16  1  0
 18 17  2  0
 19 20  2  0
 19 18  1  0
 20 15  1  0
 21 22  2  0
 21 19  1  0
 23 22  1  0
 24 25  2  0
 24 23  1  0
 25 21  1  0
  2 26  1  0
  3 27  1  0
  4 28  1  0
  8 29  1  0
  9 30  1  0
 10 31  1  0
 11 32  1  0
 16 33  1  0
 17 34  1  0
 24 35  1  0
M  ISO  8  26  14  27  14  28  14  29  14  30  14  31  14  32  14  33  14
M  ISO  2  34  14  35  14
M  END
>  <minimizedAffinity>  (1) 
-5.54553795

>  <minimizedRMSD>  (1) 
0.273913026

$$$$
