
     RDKit          3D

 32 34  0  0  0  0  0  0  0  0999 V2000
   42.3020   23.0250   36.5000 C   0  0  0  0  0  0  0  0  0  0  0  0
   43.6590   22.8710   36.8120 C   0  0  0  0  0  0  0  0  0  0  0  0
   44.6210   23.7190   36.2700 C   0  0  0  0  0  0  0  0  0  0  0  0
   44.1970   24.7100   35.4190 C   0  0  0  0  0  0  0  0  0  0  0  0
   42.8380   24.8150   35.1460 C   0  0  0  0  0  0  0  0  0  0  0  0
   41.9110   24.0020   35.6650 N   0  0  0  0  0  0  0  0  0  0  0  0
   42.4560   25.8860   34.2390 C   0  0  0  0  0  0  0  0  0  0  0  0
   41.1630   26.3720   34.1760 C   0  0  0  0  0  0  0  0  0  0  0  0
   40.7830   27.3810   33.3300 C   0  0  0  0  0  0  0  0  0  0  0  0
   41.7870   27.8890   32.5290 C   0  0  0  0  0  0  0  0  0  0  0  0
   43.1000   27.4380   32.5520 C   0  0  0  0  0  0  0  0  0  0  0  0
   43.3340   26.4560   33.4190 N   0  0  0  0  0  0  0  0  0  0  0  0
   41.3550   22.0650   37.1340 C   0  0  0  0  0  0  0  0  0  0  0  0
   41.8550   21.0890   37.7180 O   0  0  0  0  0  0  0  0  0  0  0  0
   39.9690   22.3720   37.0010 C   0  0  0  0  0  0  0  0  0  0  0  0
   39.4280   23.1040   38.0480 C   0  0  0  0  0  0  0  0  0  0  0  0
   38.0690   23.4440   37.9880 C   0  0  0  0  0  0  0  0  0  0  0  0
   37.3380   23.0570   36.9310 N   0  0  0  0  0  0  0  0  0  0  0  0
   37.9130   22.3400   35.9270 C   0  0  0  0  0  0  0  0  0  0  0  0
   39.2080   22.0080   35.9700 N   0  0  0  0  0  0  0  0  0  0  0  0
   37.2380   21.8730   34.7530 N   0  0  0  0  0  0  0  0  0  0  0  0
   43.9694   22.0674   37.4960 H   0  0  0  0  0  0  0  0  0  0  0  0
   45.6865   23.5991   36.5155 H   0  0  0  0  0  0  0  0  0  0  0  0
   44.9171   25.4056   34.9633 H   0  0  0  0  0  0  0  0  0  0  0  0
   40.4035   25.9277   34.8361 H   0  0  0  0  0  0  0  0  0  0  0  0
   39.7509   27.7597   33.2916 H   0  0  0  0  0  0  0  0  0  0  0  0
   41.5310   28.6996   31.8309 H   0  0  0  0  0  0  0  0  0  0  0  0
   43.8840   27.8588   31.9053 H   0  0  0  0  0  0  0  0  0  0  0  0
   40.0490   23.4097   38.9029 H   0  0  0  0  0  0  0  0  0  0  0  0
   37.6058   24.0231   38.8005 H   0  0  0  0  0  0  0  0  0  0  0  0
   36.2366   22.0744   34.6202 H   0  0  0  0  0  0  0  0  0  0  0  0
   37.7540   21.3358   34.0416 H   0  0  0  0  0  0  0  0  0  0  0  0
  1  2  2  0
  1 13  1  0
  3  2  1  0
  4  3  2  0
  5  4  1  0
  5  6  2  0
  6  1  1  0
  7  5  1  0
  8  7  2  0
  9  8  1  0
 10 11  1  0
 10  9  2  0
 11 12  2  0
 12  7  1  0
 13 14  2  0
 15 13  1  0
 15 16  2  0
 17 16  1  0
 18 17  2  0
 19 20  2  0
 19 18  1  0
 20 15  1  0
 21 19  1  0
  2 22  1  0
  3 23  1  0
  4 24  1  0
  8 25  1  0
  9 26  1  0
 10 27  1  0
 11 28  1  0
 16 29  1  0
 17 30  1  0
 21 31  1  0
 21 32  1  0
M  ISO  8  22  14  23  14  24  14  25  14  26  14  27  14  28  14  29  14
M  ISO  1  30  14
M  END
>  <minimizedAffinity>  (1) 
-4.90439701

>  <minimizedRMSD>  (1) 
0.126780257

$$$$
