
     RDKit          3D

 40 43  0  0  0  0  0  0  0  0999 V2000
   40.5970   26.6810   34.7570 C   0  0  0  0  0  0  0  0  0  0  0  0
   39.2610   27.0600   34.2080 C   0  0  0  0  0  0  0  0  0  0  0  0
   38.1690   27.1850   35.0570 C   0  0  0  0  0  0  0  0  0  0  0  0
   36.8870   27.5340   34.6370 C   0  0  0  0  0  0  0  0  0  0  0  0
   36.7220   27.7610   33.3060 N   0  0  0  0  0  0  0  0  0  0  0  0
   37.7880   27.6420   32.4690 C   0  0  0  0  0  0  0  0  0  0  0  0
   39.0220   27.2970   32.9280 N   0  0  0  0  0  0  0  0  0  0  0  0
   37.6420   27.8780   31.0450 C   0  0  0  0  0  0  0  0  0  0  0  0
   38.7570   28.1640   30.2580 C   0  0  0  0  0  0  0  0  0  0  0  0
   38.3090   28.3430   28.9380 C   0  0  0  0  0  0  0  0  0  0  0  0
   36.9720   28.1620   28.9740 N   0  0  0  0  0  0  0  0  0  0  0  0
   36.5750   27.8890   30.2070 N   0  0  0  0  0  0  0  0  0  0  0  0
   41.1290   25.4140   34.1360 C   0  0  0  0  0  0  0  0  0  0  0  0
   41.1810   22.7580   36.7590 C   0  0  0  0  0  0  0  0  0  0  0  0
   39.9950   22.0690   36.4610 C   0  0  0  0  0  0  0  0  0  0  0  0
   39.2080   22.5030   35.3980 C   0  0  0  0  0  0  0  0  0  0  0  0
   39.6370   23.5790   34.7010 N   0  0  0  0  0  0  0  0  0  0  0  0
   40.7940   24.2350   35.0080 C   0  0  0  0  0  0  0  0  0  0  0  0
   41.5540   23.8340   36.0180 N   0  0  0  0  0  0  0  0  0  0  0  0
   37.9610   21.8800   34.9850 C   0  0  0  0  0  0  0  0  0  0  0  0
   36.9630   21.5390   35.8670 C   0  0  0  0  0  0  0  0  0  0  0  0
   35.7650   20.9470   35.5140 C   0  0  0  0  0  0  0  0  0  0  0  0
   35.5310   20.6660   34.1840 C   0  0  0  0  0  0  0  0  0  0  0  0
   36.5440   21.0150   33.3150 C   0  0  0  0  0  0  0  0  0  0  0  0
   37.6990   21.5920   33.6940 N   0  0  0  0  0  0  0  0  0  0  0  0
   41.3064   27.4979   34.5584 H   0  0  0  0  0  0  0  0  0  0  0  0
   40.4811   26.5053   35.8367 H   0  0  0  0  0  0  0  0  0  0  0  0
   38.3261   26.9965   36.1293 H   0  0  0  0  0  0  0  0  0  0  0  0
   36.0506   27.6215   35.3460 H   0  0  0  0  0  0  0  0  0  0  0  0
   39.7977   28.2363   30.6068 H   0  0  0  0  0  0  0  0  0  0  0  0
   38.9222   28.5816   28.0565 H   0  0  0  0  0  0  0  0  0  0  0  0
   36.3482   28.2271   28.1569 H   0  0  0  0  0  0  0  0  0  0  0  0
   40.6736   25.2750   33.1444 H   0  0  0  0  0  0  0  0  0  0  0  0
   42.2218   25.4913   34.0365 H   0  0  0  0  0  0  0  0  0  0  0  0
   41.8116   22.4252   37.5966 H   0  0  0  0  0  0  0  0  0  0  0  0
   39.6914   21.1975   37.0596 H   0  0  0  0  0  0  0  0  0  0  0  0
   37.1304   21.7533   36.9329 H   0  0  0  0  0  0  0  0  0  0  0  0
   35.0126   20.7046   36.2790 H   0  0  0  0  0  0  0  0  0  0  0  0
   34.5987   20.1950   33.8392 H   0  0  0  0  0  0  0  0  0  0  0  0
   36.3983   20.8085   32.2444 H   0  0  0  0  0  0  0  0  0  0  0  0
  2  1  1  0
  2  3  2  0
  4  3  1  0
  5  4  2  0
  6  7  2  0
  6  5  1  0
  7  2  1  0
  8  6  1  0
  9  8  1  0
 10 11  1  0
 10  9  2  0
 11 12  1  0
 12  8  2  0
 13  1  1  0
 13 18  1  0
 15 14  2  0
 16 15  1  0
 17 18  1  0
 17 16  2  0
 18 19  2  0
 19 14  1  0
 20 16  1  0
 20 21  2  0
 22 21  1  0
 23 22  2  0
 24 25  2  0
 24 23  1  0
 25 20  1  0
  1 26  1  0
  1 27  1  0
  3 28  1  0
  4 29  1  0
  9 30  1  0
 10 31  1  0
 11 32  1  0
 13 33  1  0
 13 34  1  0
 14 35  1  0
 15 36  1  0
 21 37  1  0
 22 38  1  0
 23 39  1  0
 24 40  1  0
M  ISO  8  26   8  27   8  28  14  29  14  30  14  31  14  32   9  33   8
M  ISO  7  34   8  35  14  36  14  37  14  38  14  39  14  40  14
M  END
>  <minimizedAffinity>  (1) 
-5.75212479

>  <minimizedRMSD>  (1) 
3.769526

$$$$
