
     RDKit          3D

 25 27  0  0  0  0  0  0  0  0999 V2000
   39.2380   26.2660   33.4520 C   0  0  0  0  0  0  0  0  0  0  0  0
   38.7600   27.2130   32.5240 C   0  0  0  0  0  0  0  0  0  0  0  0
   37.3970   27.2210   32.7010 N   0  0  0  0  0  0  0  0  0  0  0  0
   37.1140   26.3250   33.6810 C   0  0  0  0  0  0  0  0  0  0  0  0
   38.2090   25.7420   34.1410 N   0  0  0  0  0  0  0  0  0  0  0  0
   42.8830   26.6610   34.0610 C   0  0  0  0  0  0  0  0  0  0  0  0
   41.5250   26.9730   33.9250 C   0  0  0  0  0  0  0  0  0  0  0  0
   40.6440   25.9480   33.5950 C   0  0  0  0  0  0  0  0  0  0  0  0
   41.1530   24.6660   33.4180 N   0  0  0  0  0  0  0  0  0  0  0  0
   42.4740   24.4370   33.5650 C   0  0  0  0  0  0  0  0  0  0  0  0
   43.3380   25.4140   33.8820 N   0  0  0  0  0  0  0  0  0  0  0  0
   38.1660   24.7590   35.1630 C   0  0  0  0  0  0  0  0  0  0  0  0
   38.1130   25.2880   36.4590 C   0  0  0  0  0  0  0  0  0  0  0  0
   38.0740   24.4540   37.5490 C   0  0  0  0  0  0  0  0  0  0  0  0
   38.0870   23.1270   37.3960 N   0  0  0  0  0  0  0  0  0  0  0  0
   38.1400   22.6300   36.1270 C   0  0  0  0  0  0  0  0  0  0  0  0
   38.1800   23.3990   35.0280 N   0  0  0  0  0  0  0  0  0  0  0  0
   39.3482   27.8134   31.8144 H   0  0  0  0  0  0  0  0  0  0  0  0
   36.0993   26.1102   34.0474 H   0  0  0  0  0  0  0  0  0  0  0  0
   43.5936   27.4593   34.3212 H   0  0  0  0  0  0  0  0  0  0  0  0
   41.1641   28.0012   34.0751 H   0  0  0  0  0  0  0  0  0  0  0  0
   42.8560   23.4156   33.4203 H   0  0  0  0  0  0  0  0  0  0  0  0
   38.1026   26.3783   36.6043 H   0  0  0  0  0  0  0  0  0  0  0  0
   38.0315   24.8838   38.5607 H   0  0  0  0  0  0  0  0  0  0  0  0
   38.1505   21.5377   35.9971 H   0  0  0  0  0  0  0  0  0  0  0  0
  1  8  1  0
  1  5  1  0
  2  3  1  0
  2  1  2  0
  3  4  2  0
  4  5  1  0
  5 12  1  0
  7  6  2  0
  8  7  1  0
  9 10  1  0
  9  8  2  0
 10 11  2  0
 11  6  1  0
 12 13  2  0
 13 14  1  0
 15 14  2  0
 16 15  1  0
 17 12  1  0
 17 16  2  0
  2 18  1  0
  4 19  1  0
  6 20  1  0
  7 21  1  0
 10 22  1  0
 13 23  1  0
 14 24  1  0
 16 25  1  0
M  ISO  8  18  14  19  14  20  14  21  14  22  14  23  14  24  14  25  14
M  END
>  <minimizedAffinity>  (1) 
-3.73053432

>  <minimizedRMSD>  (1) 
5.30726242

$$$$
