
     RDKit          3D

 24 26  0  0  0  0  0  0  0  0999 V2000
   39.8780   23.2010   35.5830 C   0  0  0  0  0  0  0  0  0  0  0  0
   39.6780   23.7890   34.3180 C   0  0  0  0  0  0  0  0  0  0  0  0
   38.6000   24.6120   34.4710 N   0  0  0  0  0  0  0  0  0  0  0  0
   38.1910   24.5070   35.7690 C   0  0  0  0  0  0  0  0  0  0  0  0
   38.9590   23.6540   36.4560 N   0  0  0  0  0  0  0  0  0  0  0  0
   42.1920   20.9680   37.4630 C   0  0  0  0  0  0  0  0  0  0  0  0
   41.1760   21.8870   37.1930 C   0  0  0  0  0  0  0  0  0  0  0  0
   40.9320   22.2480   35.8810 C   0  0  0  0  0  0  0  0  0  0  0  0
   41.7030   21.6860   34.8720 N   0  0  0  0  0  0  0  0  0  0  0  0
   42.6760   20.7990   35.1850 C   0  0  0  0  0  0  0  0  0  0  0  0
   42.9210   20.4430   36.4640 N   0  0  0  0  0  0  0  0  0  0  0  0
   38.7150   23.3710   37.8540 C   0  0  0  0  0  0  0  0  0  0  0  0
   38.0660   24.4710   38.6910 C   0  0  0  0  0  0  0  0  0  0  0  0
   37.3720   23.1940   38.4200 C   0  0  0  0  0  0  0  0  0  0  0  0
   40.2651   23.6207   33.4031 H   0  0  0  0  0  0  0  0  0  0  0  0
   37.3379   25.0545   36.1960 H   0  0  0  0  0  0  0  0  0  0  0  0
   42.3972   20.6714   38.5022 H   0  0  0  0  0  0  0  0  0  0  0  0
   40.5793   22.3168   38.0111 H   0  0  0  0  0  0  0  0  0  0  0  0
   43.2810   20.3581   34.3790 H   0  0  0  0  0  0  0  0  0  0  0  0
   39.6248   22.7532   37.8792 H   0  0  0  0  0  0  0  0  0  0  0  0
   38.4420   24.6941   39.7004 H   0  0  0  0  0  0  0  0  0  0  0  0
   37.8365   25.5371   38.5473 H   0  0  0  0  0  0  0  0  0  0  0  0
   36.4983   23.1818   37.7518 H   0  0  0  0  0  0  0  0  0  0  0  0
   36.9074   22.4275   39.0577 H   0  0  0  0  0  0  0  0  0  0  0  0
  1  8  1  0
  1  5  1  0
  2  3  1  0
  2  1  2  0
  3  4  2  0
  4  5  1  0
  5 12  1  0
  7  6  2  0
  8  7  1  0
  9 10  1  0
  9  8  2  0
 10 11  2  0
 11  6  1  0
 12 14  1  0
 12 13  1  0
 14 13  1  0
  2 15  1  0
  4 16  1  0
  6 17  1  0
  7 18  1  0
 10 19  1  0
 12 20  1  0
 13 21  1  0
 13 22  1  0
 14 23  1  0
 14 24  1  0
M  ISO  8  15  14  16  14  17  14  18  14  19  14  20  13  21  13  22  13
M  ISO  2  23  13  24  13
M  END
>  <minimizedAffinity>  (1) 
-3.50278115

>  <minimizedRMSD>  (1) 
2.11216807

$$$$
