
     RDKit          3D

 39 42  0  0  0  0  0  0  0  0999 V2000
   40.1970   26.4230   34.9100 C   0  0  0  0  0  0  0  0  0  0  0  0
   38.9700   26.9930   34.3010 C   0  0  0  0  0  0  0  0  0  0  0  0
   37.8910   27.3370   35.1010 C   0  0  0  0  0  0  0  0  0  0  0  0
   36.6950   27.8780   34.6320 C   0  0  0  0  0  0  0  0  0  0  0  0
   36.6100   28.0690   33.2900 N   0  0  0  0  0  0  0  0  0  0  0  0
   37.6580   27.7360   32.4890 C   0  0  0  0  0  0  0  0  0  0  0  0
   38.8040   27.2110   32.9990 N   0  0  0  0  0  0  0  0  0  0  0  0
   37.5870   27.9310   31.0560 C   0  0  0  0  0  0  0  0  0  0  0  0
   38.7500   28.1590   30.3210 C   0  0  0  0  0  0  0  0  0  0  0  0
   38.3820   28.3100   28.9720 C   0  0  0  0  0  0  0  0  0  0  0  0
   37.0220   28.1680   28.9480 N   0  0  0  0  0  0  0  0  0  0  0  0
   36.5490   27.9460   30.1650 N   0  0  0  0  0  0  0  0  0  0  0  0
   40.5090   25.0520   34.3970 C   0  0  0  0  0  0  0  0  0  0  0  0
   38.5220   22.8880   36.7110 C   0  0  0  0  0  0  0  0  0  0  0  0
   37.6940   22.2030   35.8060 C   0  0  0  0  0  0  0  0  0  0  0  0
   37.8310   22.4880   34.4510 C   0  0  0  0  0  0  0  0  0  0  0  0
   38.7440   23.4050   34.0620 N   0  0  0  0  0  0  0  0  0  0  0  0
   39.5350   24.0550   34.9700 C   0  0  0  0  0  0  0  0  0  0  0  0
   39.4300   23.8060   36.2730 N   0  0  0  0  0  0  0  0  0  0  0  0
   36.9920   21.7990   33.4760 C   0  0  0  0  0  0  0  0  0  0  0  0
   36.0490   20.9010   33.9300 C   0  0  0  0  0  0  0  0  0  0  0  0
   35.3050   20.3020   32.9340 C   0  0  0  0  0  0  0  0  0  0  0  0
   35.4550   20.5430   31.6200 N   0  0  0  0  0  0  0  0  0  0  0  0
   36.4010   21.4390   31.2180 C   0  0  0  0  0  0  0  0  0  0  0  0
   37.1560   22.0530   32.1750 N   0  0  0  0  0  0  0  0  0  0  0  0
   41.0445   27.0861   34.6820 H   0  0  0  0  0  0  0  0  0  0  0  0
   40.0256   26.3429   35.9936 H   0  0  0  0  0  0  0  0  0  0  0  0
   37.9857   27.1709   36.1843 H   0  0  0  0  0  0  0  0  0  0  0  0
   35.8677   28.1354   35.3097 H   0  0  0  0  0  0  0  0  0  0  0  0
   39.7721   28.2114   30.7241 H   0  0  0  0  0  0  0  0  0  0  0  0
   39.0472   28.5017   28.1172 H   0  0  0  0  0  0  0  0  0  0  0  0
   36.4434   28.2259   28.0978 H   0  0  0  0  0  0  0  0  0  0  0  0
   40.4324   25.0472   33.2997 H   0  0  0  0  0  0  0  0  0  0  0  0
   41.5297   24.7759   34.7002 H   0  0  0  0  0  0  0  0  0  0  0  0
   38.4366   22.6808   37.7879 H   0  0  0  0  0  0  0  0  0  0  0  0
   36.9595   21.4636   36.1580 H   0  0  0  0  0  0  0  0  0  0  0  0
   35.9020   20.6805   34.9976 H   0  0  0  0  0  0  0  0  0  0  0  0
   34.5354   19.5766   33.2364 H   0  0  0  0  0  0  0  0  0  0  0  0
   36.5516   21.6610   30.1512 H   0  0  0  0  0  0  0  0  0  0  0  0
  2  1  1  0
  2  3  2  0
  4  3  1  0
  5  4  2  0
  6  7  2  0
  6  5  1  0
  7  2  1  0
  8  6  1  0
  9  8  1  0
 10  9  2  0
 11 10  1  0
 11 12  1  0
 12  8  2  0
 13  1  1  0
 13 18  1  0
 15 14  2  0
 16 15  1  0
 17 16  2  0
 17 18  1  0
 18 19  2  0
 19 14  1  0
 20 21  2  0
 20 16  1  0
 22 21  1  0
 23 22  2  0
 24 23  1  0
 24 25  2  0
 25 20  1  0
  1 26  1  0
  1 27  1  0
  3 28  1  0
  4 29  1  0
  9 30  1  0
 10 31  1  0
 11 32  1  0
 13 33  1  0
 13 34  1  0
 14 35  1  0
 15 36  1  0
 21 37  1  0
 22 38  1  0
 24 39  1  0
M  ISO  8  26   8  27   8  28  14  29  14  30  14  31  14  32   9  33   8
M  ISO  6  34   8  35  14  36  14  37  14  38  14  39  14
M  END
>  <minimizedAffinity>  (1) 
-5.66811514

>  <minimizedRMSD>  (1) 
4.46026468

$$$$
