
     RDKit          3D

 41 45  0  0  0  0  0  0  0  0999 V2000
   40.2730   25.6820   34.8630 C   0  0  0  0  0  0  0  0  0  0  0  0
   41.4930   26.2230   34.4080 C   0  0  0  0  0  0  0  0  0  0  0  0
   42.6820   25.5270   34.4240 C   0  0  0  0  0  0  0  0  0  0  0  0
   42.7030   24.2260   34.9080 C   0  0  0  0  0  0  0  0  0  0  0  0
   41.5420   23.6530   35.3640 C   0  0  0  0  0  0  0  0  0  0  0  0
   40.3760   24.3760   35.3340 C   0  0  0  0  0  0  0  0  0  0  0  0
   39.2160   23.7150   35.8220 N   0  0  0  0  0  0  0  0  0  0  0  0
   38.5240   23.7310   36.9860 C   0  0  0  0  0  0  0  0  0  0  0  0
   37.4770   22.8890   36.9030 N   0  0  0  0  0  0  0  0  0  0  0  0
   37.5150   22.3390   35.6700 C   0  0  0  0  0  0  0  0  0  0  0  0
   36.6340   21.4190   35.1550 C   0  0  0  0  0  0  0  0  0  0  0  0
   35.6510   20.9380   35.7370 O   0  0  0  0  0  0  0  0  0  0  0  0
   36.8310   20.9700   33.8820 N   0  0  0  0  0  0  0  0  0  0  0  0
   37.8930   21.4690   33.2070 C   0  0  0  0  0  0  0  0  0  0  0  0
   38.2870   21.1420   31.8720 N   0  0  0  0  0  0  0  0  0  0  0  0
   38.7490   22.3690   33.7260 N   0  0  0  0  0  0  0  0  0  0  0  0
   38.6000   22.8530   34.9940 C   0  0  0  0  0  0  0  0  0  0  0  0
   38.0320   26.3930   33.9710 C   0  0  0  0  0  0  0  0  0  0  0  0
   37.0290   27.2920   34.3850 C   0  0  0  0  0  0  0  0  0  0  0  0
   37.5230   27.8330   35.5570 N   0  0  0  0  0  0  0  0  0  0  0  0
   38.7310   27.2600   35.7730 C   0  0  0  0  0  0  0  0  0  0  0  0
   39.0610   26.3990   34.8460 N   0  0  0  0  0  0  0  0  0  0  0  0
   38.9150   24.7210   30.7710 C   0  0  0  0  0  0  0  0  0  0  0  0
   39.0140   25.4790   31.9450 C   0  0  0  0  0  0  0  0  0  0  0  0
   37.9070   25.6040   32.7610 C   0  0  0  0  0  0  0  0  0  0  0  0
   36.7440   24.9690   32.3740 N   0  0  0  0  0  0  0  0  0  0  0  0
   36.6840   24.2480   31.2400 C   0  0  0  0  0  0  0  0  0  0  0  0
   37.7560   24.1220   30.4420 N   0  0  0  0  0  0  0  0  0  0  0  0
   41.4957   27.2526   34.0208 H   0  0  0  0  0  0  0  0  0  0  0  0
   43.6059   25.9977   34.0568 H   0  0  0  0  0  0  0  0  0  0  0  0
   43.6446   23.6576   34.9260 H   0  0  0  0  0  0  0  0  0  0  0  0
   41.5462   22.6230   35.7502 H   0  0  0  0  0  0  0  0  0  0  0  0
   38.7789   24.3398   37.8660 H   0  0  0  0  0  0  0  0  0  0  0  0
   36.1982   20.2802   33.4524 H   0  0  0  0  0  0  0  0  0  0  0  0
   37.7381   20.4638   31.3245 H   0  0  0  0  0  0  0  0  0  0  0  0
   39.1197   21.5846   31.4578 H   0  0  0  0  0  0  0  0  0  0  0  0
   36.0722   27.5126   33.8891 H   0  0  0  0  0  0  0  0  0  0  0  0
   39.3683   27.4946   36.6384 H   0  0  0  0  0  0  0  0  0  0  0  0
   39.7907   24.6148   30.1138 H   0  0  0  0  0  0  0  0  0  0  0  0
   39.9618   25.9685   32.2135 H   0  0  0  0  0  0  0  0  0  0  0  0
   35.7414   23.7537   30.9622 H   0  0  0  0  0  0  0  0  0  0  0  0
  1  6  2  0
  2  3  2  0
  2  1  1  0
  3  4  1  0
  4  5  2  0
  6  5  1  0
  6  7  1  0
  7  8  1  0
  9  8  2  0
 10  9  1  0
 11 10  1  0
 11 12  2  0
 13 11  1  0
 14 16  2  0
 14 13  1  0
 15 14  1  0
 16 17  1  0
 17 10  2  0
 17  7  1  0
 18 19  2  0
 18 22  1  0
 19 20  1  0
 20 21  2  0
 22  1  1  0
 22 21  1  0
 23 24  2  0
 24 25  1  0
 25 18  1  0
 26 25  2  0
 27 26  1  0
 28 23  1  0
 28 27  2  0
  2 29  1  0
  3 30  1  0
  4 31  1  0
  5 32  1  0
  8 33  1  0
 13 34  1  0
 15 35  1  0
 15 36  1  0
 19 37  1  0
 21 38  1  0
 23 39  1  0
 24 40  1  0
 27 41  1  0
M  ISO  8  29  14  30  14  31  14  32  14  33  14  34   9  37  14  38  14
M  ISO  3  39  14  40  14  41  14
M  END
>  <minimizedAffinity>  (1) 
-5.80059576

>  <minimizedRMSD>  (1) 
6.92131376

$$$$
