
     RDKit          3D

 34 37  0  0  0  0  0  0  0  0999 V2000
   40.2090   25.2970   35.0420 C   0  0  0  0  0  0  0  0  0  0  0  0
   41.4340   25.6350   34.4070 C   0  0  0  0  0  0  0  0  0  0  0  0
   42.5700   24.8700   34.5150 C   0  0  0  0  0  0  0  0  0  0  0  0
   42.5470   23.7280   35.2630 C   0  0  0  0  0  0  0  0  0  0  0  0
   41.3950   23.3510   35.8980 C   0  0  0  0  0  0  0  0  0  0  0  0
   40.2350   24.1160   35.7940 C   0  0  0  0  0  0  0  0  0  0  0  0
   38.0560   26.1310   34.0410 C   0  0  0  0  0  0  0  0  0  0  0  0
   37.1270   27.1440   34.3660 C   0  0  0  0  0  0  0  0  0  0  0  0
   37.6500   27.7220   35.5010 N   0  0  0  0  0  0  0  0  0  0  0  0
   38.8070   27.0740   35.7980 C   0  0  0  0  0  0  0  0  0  0  0  0
   39.0680   26.1150   34.9370 N   0  0  0  0  0  0  0  0  0  0  0  0
   38.2980   24.9450   30.5140 C   0  0  0  0  0  0  0  0  0  0  0  0
   38.4170   25.7220   31.6620 C   0  0  0  0  0  0  0  0  0  0  0  0
   37.8990   25.2900   32.8850 C   0  0  0  0  0  0  0  0  0  0  0  0
   37.2760   24.0690   32.8950 N   0  0  0  0  0  0  0  0  0  0  0  0
   37.1770   23.3360   31.7630 C   0  0  0  0  0  0  0  0  0  0  0  0
   37.6830   23.7650   30.5800 N   0  0  0  0  0  0  0  0  0  0  0  0
   39.0590   23.5790   36.4630 C   0  0  0  0  0  0  0  0  0  0  0  0
   38.7340   23.7970   37.7850 C   0  0  0  0  0  0  0  0  0  0  0  0
   37.5700   23.1850   38.1750 C   0  0  0  0  0  0  0  0  0  0  0  0
   37.1730   22.5760   37.0550 N   0  0  0  0  0  0  0  0  0  0  0  0
   38.0290   22.8100   36.0940 N   0  0  0  0  0  0  0  0  0  0  0  0
   41.4749   26.5519   33.8006 H   0  0  0  0  0  0  0  0  0  0  0  0
   43.4934   25.1760   34.0015 H   0  0  0  0  0  0  0  0  0  0  0  0
   43.4535   23.1117   35.3551 H   0  0  0  0  0  0  0  0  0  0  0  0
   41.3845   22.4302   36.4996 H   0  0  0  0  0  0  0  0  0  0  0  0
   36.2007   27.4095   33.8355 H   0  0  0  0  0  0  0  0  0  0  0  0
   39.4487   27.3221   36.6563 H   0  0  0  0  0  0  0  0  0  0  0  0
   38.7089   25.3025   29.5583 H   0  0  0  0  0  0  0  0  0  0  0  0
   38.9284   26.6943   31.6054 H   0  0  0  0  0  0  0  0  0  0  0  0
   36.6699   22.3607   31.8029 H   0  0  0  0  0  0  0  0  0  0  0  0
   39.3505   24.4049   38.4636 H   0  0  0  0  0  0  0  0  0  0  0  0
   37.0853   23.1937   39.1624 H   0  0  0  0  0  0  0  0  0  0  0  0
   36.3197   22.0067   36.9617 H   0  0  0  0  0  0  0  0  0  0  0  0
  1  6  2  0
  2  3  2  0
  2  1  1  0
  3  4  1  0
  4  5  2  0
  6  5  1  0
  6 18  1  0
  7  8  2  0
  7 11  1  0
  8  9  1  0
  9 10  2  0
 11  1  1  0
 11 10  1  0
 12 17  2  0
 12 13  1  0
 13 14  2  0
 14 15  1  0
 14  7  1  0
 16 15  2  0
 17 16  1  0
 18 19  1  0
 19 20  2  0
 21 20  1  0
 22 18  2  0
 22 21  1  0
  2 23  1  0
  3 24  1  0
  4 25  1  0
  5 26  1  0
  8 27  1  0
 10 28  1  0
 12 29  1  0
 13 30  1  0
 16 31  1  0
 19 32  1  0
 20 33  1  0
 21 34  1  0
M  ISO  8  23  14  24  14  25  14  26  14  27  14  28  14  29  14  30  14
M  ISO  4  31  14  32  14  33  14  34   9
M  END
>  <minimizedAffinity>  (1) 
-5.04205704

>  <minimizedRMSD>  (1) 
4.96194601

$$$$
