
     RDKit          3D

 38 41  0  0  0  0  0  0  0  0999 V2000
   40.2230   26.6330   34.9290 C   0  0  0  0  0  0  0  0  0  0  0  0
   38.9710   27.1170   34.2900 C   0  0  0  0  0  0  0  0  0  0  0  0
   37.8640   27.3870   35.0790 C   0  0  0  0  0  0  0  0  0  0  0  0
   36.6420   27.8450   34.5910 C   0  0  0  0  0  0  0  0  0  0  0  0
   36.5610   28.0270   33.2380 N   0  0  0  0  0  0  0  0  0  0  0  0
   37.6330   27.7650   32.4670 C   0  0  0  0  0  0  0  0  0  0  0  0
   38.7970   27.3220   32.9970 N   0  0  0  0  0  0  0  0  0  0  0  0
   37.5750   27.9500   31.0240 C   0  0  0  0  0  0  0  0  0  0  0  0
   38.7430   28.1320   30.2850 C   0  0  0  0  0  0  0  0  0  0  0  0
   38.4040   28.2830   28.9470 C   0  0  0  0  0  0  0  0  0  0  0  0
   37.0450   28.1900   28.9050 N   0  0  0  0  0  0  0  0  0  0  0  0
   36.5540   27.9930   30.1320 N   0  0  0  0  0  0  0  0  0  0  0  0
   40.7520   25.3820   34.2620 C   0  0  0  0  0  0  0  0  0  0  0  0
   41.0930   22.6610   36.8010 C   0  0  0  0  0  0  0  0  0  0  0  0
   39.8330   22.0160   36.6600 C   0  0  0  0  0  0  0  0  0  0  0  0
   38.9240   22.5110   35.7300 C   0  0  0  0  0  0  0  0  0  0  0  0
   39.3040   23.5990   35.0010 N   0  0  0  0  0  0  0  0  0  0  0  0
   40.5100   24.1980   35.1500 C   0  0  0  0  0  0  0  0  0  0  0  0
   41.3930   23.7410   36.0340 N   0  0  0  0  0  0  0  0  0  0  0  0
   37.6210   21.8800   35.5520 C   0  0  0  0  0  0  0  0  0  0  0  0
   37.0980   21.5450   34.3220 C   0  0  0  0  0  0  0  0  0  0  0  0
   35.8820   20.9870   34.5900 N   0  0  0  0  0  0  0  0  0  0  0  0
   35.7130   21.0030   35.9450 C   0  0  0  0  0  0  0  0  0  0  0  0
   36.7830   21.5540   36.5470 N   0  0  0  0  0  0  0  0  0  0  0  0
   40.9857   27.4225   34.8591 H   0  0  0  0  0  0  0  0  0  0  0  0
   39.9975   26.3898   35.9778 H   0  0  0  0  0  0  0  0  0  0  0  0
   37.9564   27.2290   36.1637 H   0  0  0  0  0  0  0  0  0  0  0  0
   35.7902   28.0488   35.2566 H   0  0  0  0  0  0  0  0  0  0  0  0
   39.7639   28.1526   30.6941 H   0  0  0  0  0  0  0  0  0  0  0  0
   39.0876   28.4437   28.1003 H   0  0  0  0  0  0  0  0  0  0  0  0
   36.4769   28.2614   28.0488 H   0  0  0  0  0  0  0  0  0  0  0  0
   40.2350   25.2320   33.3027 H   0  0  0  0  0  0  0  0  0  0  0  0
   41.8321   25.4912   34.0849 H   0  0  0  0  0  0  0  0  0  0  0  0
   41.8245   22.2850   37.5314 H   0  0  0  0  0  0  0  0  0  0  0  0
   39.5813   21.1402   37.2761 H   0  0  0  0  0  0  0  0  0  0  0  0
   37.5613   21.6952   33.3357 H   0  0  0  0  0  0  0  0  0  0  0  0
   34.8263   20.6192   36.4708 H   0  0  0  0  0  0  0  0  0  0  0  0
   36.9276   21.6953   37.5570 H   0  0  0  0  0  0  0  0  0  0  0  0
  2  1  1  0
  2  3  2  0
  4  3  1  0
  5  4  2  0
  6  7  2  0
  6  5  1  0
  7  2  1  0
  8  6  1  0
  9  8  1  0
 10  9  2  0
 11 10  1  0
 11 12  1  0
 12  8  2  0
 13  1  1  0
 13 18  1  0
 15 14  2  0
 16 15  1  0
 17 18  1  0
 17 16  2  0
 18 19  2  0
 19 14  1  0
 20 16  1  0
 20 24  1  0
 21 22  1  0
 21 20  2  0
 22 23  2  0
 23 24  1  0
  1 25  1  0
  1 26  1  0
  3 27  1  0
  4 28  1  0
  9 29  1  0
 10 30  1  0
 11 31  1  0
 13 32  1  0
 13 33  1  0
 14 34  1  0
 15 35  1  0
 21 36  1  0
 23 37  1  0
 24 38  1  0
M  ISO  8  25   8  26   8  27  14  28  14  29  14  30  14  31   9  32   8
M  ISO  6  33   8  34  14  35  14  36  14  37  14  38   9
M  END
>  <minimizedAffinity>  (1) 
-5.58164024

>  <minimizedRMSD>  (1) 
3.06607366

$$$$
