
     RDKit          3D

 29 31  0  0  0  0  0  0  0  0999 V2000
   40.3140   23.8010   35.3430 C   0  0  0  0  0  0  0  0  0  0  0  0
   40.8940   25.0470   35.0570 C   0  0  0  0  0  0  0  0  0  0  0  0
   39.8180   25.8550   34.7630 N   0  0  0  0  0  0  0  0  0  0  0  0
   38.7050   25.0980   34.8810 C   0  0  0  0  0  0  0  0  0  0  0  0
   38.9690   23.8680   35.2250 N   0  0  0  0  0  0  0  0  0  0  0  0
   37.9660   22.8960   35.4050 C   0  0  0  0  0  0  0  0  0  0  0  0
   37.5340   22.0380   34.3700 C   0  0  0  0  0  0  0  0  0  0  0  0
   36.5520   21.0870   34.5600 C   0  0  0  0  0  0  0  0  0  0  0  0
   35.9540   20.9460   35.7850 C   0  0  0  0  0  0  0  0  0  0  0  0
   36.3340   21.7510   36.8220 C   0  0  0  0  0  0  0  0  0  0  0  0
   37.3080   22.6860   36.6120 C   0  0  0  0  0  0  0  0  0  0  0  0
   37.6300   23.5020   37.7700 C   0  0  0  0  0  0  0  0  0  0  0  0
   38.3580   23.1590   38.7370 O   0  0  0  0  0  0  0  0  0  0  0  0
   41.9360   21.1880   37.4500 C   0  0  0  0  0  0  0  0  0  0  0  0
   41.1820   22.2990   37.0580 C   0  0  0  0  0  0  0  0  0  0  0  0
   41.1070   22.6390   35.7120 C   0  0  0  0  0  0  0  0  0  0  0  0
   41.7860   21.8560   34.8050 N   0  0  0  0  0  0  0  0  0  0  0  0
   42.5040   20.7900   35.2190 C   0  0  0  0  0  0  0  0  0  0  0  0
   42.5780   20.4600   36.5350 N   0  0  0  0  0  0  0  0  0  0  0  0
   41.9606   25.3158   35.0657 H   0  0  0  0  0  0  0  0  0  0  0  0
   37.6875   25.4776   34.7061 H   0  0  0  0  0  0  0  0  0  0  0  0
   37.9969   22.1309   33.3765 H   0  0  0  0  0  0  0  0  0  0  0  0
   36.2480   20.4393   33.7245 H   0  0  0  0  0  0  0  0  0  0  0  0
   35.1710   20.1877   35.9331 H   0  0  0  0  0  0  0  0  0  0  0  0
   35.8629   21.6478   37.8106 H   0  0  0  0  0  0  0  0  0  0  0  0
   37.1975   24.5128   37.8045 H   0  0  0  0  0  0  0  0  0  0  0  0
   41.9996   20.9144   38.5135 H   0  0  0  0  0  0  0  0  0  0  0  0
   40.6512   22.9005   37.8107 H   0  0  0  0  0  0  0  0  0  0  0  0
   43.0385   20.1778   34.4777 H   0  0  0  0  0  0  0  0  0  0  0  0
  1 16  1  0
  2  1  2  0
  3  4  2  0
  3  2  1  0
  4  5  1  0
  5  1  1  0
  5  6  1  0
  6 11  2  0
  7  8  2  0
  7  6  1  0
  8  9  1  0
  9 10  2  0
 11 10  1  0
 11 12  1  0
 12 13  2  0
 15 14  2  0
 16 15  1  0
 17 18  1  0
 17 16  2  0
 18 19  2  0
 19 14  1  0
  2 20  1  0
  4 21  1  0
  7 22  1  0
  8 23  1  0
  9 24  1  0
 10 25  1  0
 12 26  1  0
 14 27  1  0
 15 28  1  0
 18 29  1  0
M  ISO  8  20  14  21  14  22  14  23  14  24  14  25  14  26   6  27  14
M  ISO  2  28  14  29  14
M  END
>  <minimizedAffinity>  (1) 
-4.10255957

>  <minimizedRMSD>  (1) 
5.3762126

$$$$
