
     RDKit          3D

 41 44  0  0  0  0  0  0  0  0999 V2000
   39.1600   26.9120   35.3560 C   0  0  0  0  0  0  0  0  0  0  0  0
   38.1290   27.4680   34.4370 C   0  0  0  0  0  0  0  0  0  0  0  0
   36.9460   27.9670   34.9500 C   0  0  0  0  0  0  0  0  0  0  0  0
   35.9210   28.5080   34.1790 C   0  0  0  0  0  0  0  0  0  0  0  0
   36.1310   28.5320   32.8200 N   0  0  0  0  0  0  0  0  0  0  0  0
   37.2900   28.0430   32.3190 C   0  0  0  0  0  0  0  0  0  0  0  0
   38.2510   27.5300   33.1230 N   0  0  0  0  0  0  0  0  0  0  0  0
   37.5400   28.0570   30.8780 C   0  0  0  0  0  0  0  0  0  0  0  0
   38.8270   27.8400   30.3870 C   0  0  0  0  0  0  0  0  0  0  0  0
   38.7760   27.9060   28.9920 C   0  0  0  0  0  0  0  0  0  0  0  0
   37.4650   28.1620   28.6960 N   0  0  0  0  0  0  0  0  0  0  0  0
   36.7410   28.2500   29.8010 N   0  0  0  0  0  0  0  0  0  0  0  0
   40.3010   26.2680   34.6080 C   0  0  0  0  0  0  0  0  0  0  0  0
   41.5040   22.9300   35.7850 C   0  0  0  0  0  0  0  0  0  0  0  0
   40.3450   22.1530   35.5640 C   0  0  0  0  0  0  0  0  0  0  0  0
   39.2090   22.7530   35.0360 C   0  0  0  0  0  0  0  0  0  0  0  0
   39.2820   24.0860   34.7570 N   0  0  0  0  0  0  0  0  0  0  0  0
   40.4030   24.8120   34.9760 C   0  0  0  0  0  0  0  0  0  0  0  0
   41.4990   24.2550   35.4810 N   0  0  0  0  0  0  0  0  0  0  0  0
   37.9760   22.0250   34.7790 C   0  0  0  0  0  0  0  0  0  0  0  0
   37.5740   21.6290   33.5240 C   0  0  0  0  0  0  0  0  0  0  0  0
   36.4030   20.9480   33.3560 C   0  0  0  0  0  0  0  0  0  0  0  0
   35.5570   20.6110   34.3910 C   0  0  0  0  0  0  0  0  0  0  0  0
   35.9630   21.0120   35.6690 C   0  0  0  0  0  0  0  0  0  0  0  0
   37.1500   21.7020   35.8260 C   0  0  0  0  0  0  0  0  0  0  0  0
   39.5588   27.7280   35.9766 H   0  0  0  0  0  0  0  0  0  0  0  0
   38.6806   26.1379   35.9732 H   0  0  0  0  0  0  0  0  0  0  0  0
   36.8054   27.9343   36.0405 H   0  0  0  0  0  0  0  0  0  0  0  0
   34.9956   28.8944   34.6310 H   0  0  0  0  0  0  0  0  0  0  0  0
   39.7257   27.6500   30.9922 H   0  0  0  0  0  0  0  0  0  0  0  0
   39.6093   27.7795   28.2851 H   0  0  0  0  0  0  0  0  0  0  0  0
   37.0917   28.2715   27.7423 H   0  0  0  0  0  0  0  0  0  0  0  0
   41.2408   26.7763   34.8697 H   0  0  0  0  0  0  0  0  0  0  0  0
   40.1177   26.3546   33.5268 H   0  0  0  0  0  0  0  0  0  0  0  0
   42.4087   22.4638   36.2023 H   0  0  0  0  0  0  0  0  0  0  0  0
   40.3422   21.0805   35.8083 H   0  0  0  0  0  0  0  0  0  0  0  0
   38.2004   21.8627   32.6505 H   0  0  0  0  0  0  0  0  0  0  0  0
   36.1179   20.6510   32.3359 H   0  0  0  0  0  0  0  0  0  0  0  0
   34.6197   20.0604   34.2226 H   0  0  0  0  0  0  0  0  0  0  0  0
   35.3398   20.7789   36.5449 H   0  0  0  0  0  0  0  0  0  0  0  0
   37.4473   22.0073   36.8401 H   0  0  0  0  0  0  0  0  0  0  0  0
  2  3  2  0
  2  1  1  0
  4  3  1  0
  5  4  2  0
  6  5  1  0
  6  7  2  0
  7  2  1  0
  8  6  1  0
  9  8  1  0
 10  9  2  0
 11 10  1  0
 11 12  1  0
 12  8  2  0
 13 18  1  0
 13  1  1  0
 15 14  2  0
 16 15  1  0
 17 18  1  0
 17 16  2  0
 18 19  2  0
 19 14  1  0
 20 16  1  0
 20 25  1  0
 21 20  2  0
 22 21  1  0
 22 23  2  0
 23 24  1  0
 24 25  2  0
  1 26  1  0
  1 27  1  0
  3 28  1  0
  4 29  1  0
  9 30  1  0
 10 31  1  0
 11 32  1  0
 13 33  1  0
 13 34  1  0
 14 35  1  0
 15 36  1  0
 21 37  1  0
 22 38  1  0
 23 39  1  0
 24 40  1  0
 25 41  1  0
M  ISO  8  26   8  27   8  28  14  29  14  30  14  31  14  32   9  33   8
M  ISO  8  34   8  35  14  36  14  37  14  38  14  39  14  40  14  41  14
M  END
>  <minimizedAffinity>  (1) 
-5.51186323

>  <minimizedRMSD>  (1) 
3.73239779

$$$$
