
     RDKit          3D

 30 32  0  0  0  0  0  0  0  0999 V2000
   39.7100   23.5600   33.9860 C   0  0  0  0  0  0  0  0  0  0  0  0
   39.0990   23.3410   32.7250 C   0  0  0  0  0  0  0  0  0  0  0  0
   40.1420   23.1840   31.8510 N   0  0  0  0  0  0  0  0  0  0  0  0
   41.2840   23.3060   32.5700 C   0  0  0  0  0  0  0  0  0  0  0  0
   41.0530   23.5280   33.8360 N   0  0  0  0  0  0  0  0  0  0  0  0
   42.0870   23.6900   34.7810 C   0  0  0  0  0  0  0  0  0  0  0  0
   42.6610   22.6210   35.4890 C   0  0  0  0  0  0  0  0  0  0  0  0
   43.6690   22.7920   36.4080 C   0  0  0  0  0  0  0  0  0  0  0  0
   44.1650   24.0440   36.6760 C   0  0  0  0  0  0  0  0  0  0  0  0
   43.6400   25.1190   36.0150 C   0  0  0  0  0  0  0  0  0  0  0  0
   42.6330   24.9430   35.0970 C   0  0  0  0  0  0  0  0  0  0  0  0
   42.1110   26.1590   34.4150 C   0  0  0  0  0  0  0  0  0  0  0  0
   37.5710   22.8790   36.9370 C   0  0  0  0  0  0  0  0  0  0  0  0
   38.3150   22.6880   35.7590 C   0  0  0  0  0  0  0  0  0  0  0  0
   38.9550   23.7740   35.1890 C   0  0  0  0  0  0  0  0  0  0  0  0
   38.8290   25.0030   35.8120 N   0  0  0  0  0  0  0  0  0  0  0  0
   38.1120   25.1550   36.9360 C   0  0  0  0  0  0  0  0  0  0  0  0
   37.4840   24.0980   37.4990 N   0  0  0  0  0  0  0  0  0  0  0  0
   38.0232   23.3051   32.4984 H   0  0  0  0  0  0  0  0  0  0  0  0
   42.2918   23.2270   32.1363 H   0  0  0  0  0  0  0  0  0  0  0  0
   42.2879   21.6036   35.2999 H   0  0  0  0  0  0  0  0  0  0  0  0
   44.0818   21.9181   36.9333 H   0  0  0  0  0  0  0  0  0  0  0  0
   44.9721   24.1797   37.4110 H   0  0  0  0  0  0  0  0  0  0  0  0
   44.0252   26.1290   36.2188 H   0  0  0  0  0  0  0  0  0  0  0  0
   41.7950   26.8951   35.1689 H   0  0  0  0  0  0  0  0  0  0  0  0
   42.9015   26.5945   33.7861 H   0  0  0  0  0  0  0  0  0  0  0  0
   41.2508   25.8859   33.7861 H   0  0  0  0  0  0  0  0  0  0  0  0
   37.0564   22.0253   37.4022 H   0  0  0  0  0  0  0  0  0  0  0  0
   38.3869   21.6916   35.2984 H   0  0  0  0  0  0  0  0  0  0  0  0
   38.0344   26.1478   37.4034 H   0  0  0  0  0  0  0  0  0  0  0  0
  1 15  1  0
  2  1  2  0
  3  4  2  0
  3  2  1  0
  4  5  1  0
  5  1  1  0
  5  6  1  0
  6 11  1  0
  6  7  2  0
  7  8  1  0
  8  9  2  0
 10  9  1  0
 11 10  2  0
 12 11  1  0
 13 18  2  0
 14 13  1  0
 15 14  2  0
 15 16  1  0
 16 17  2  0
 17 18  1  0
  2 19  1  0
  4 20  1  0
  7 21  1  0
  8 22  1  0
  9 23  1  0
 10 24  1  0
 12 25  1  0
 12 26  1  0
 12 27  1  0
 13 28  1  0
 14 29  1  0
 17 30  1  0
M  ISO  8  19  14  20  14  21  14  22  14  23  14  24  14  25   8  26   8
M  ISO  4  27   8  28  14  29  14  30  14
M  END
>  <minimizedAffinity>  (1) 
-3.8089416

>  <minimizedRMSD>  (1) 
1.23297131

$$$$
