
     RDKit          3D

 36 39  0  0  0  0  0  0  0  0999 V2000
   37.0820   25.0580   32.7240 C   0  0  0  0  0  0  0  0  0  0  0  0
   36.7930   26.4170   32.5330 C   0  0  0  0  0  0  0  0  0  0  0  0
   35.8890   26.4400   31.5110 N   0  0  0  0  0  0  0  0  0  0  0  0
   35.6800   25.1390   31.1420 C   0  0  0  0  0  0  0  0  0  0  0  0
   36.3870   24.3030   31.8600 N   0  0  0  0  0  0  0  0  0  0  0  0
   36.3340   22.9060   31.6600 C   0  0  0  0  0  0  0  0  0  0  0  0
   35.3080   22.0980   32.1770 C   0  0  0  0  0  0  0  0  0  0  0  0
   35.2610   20.7360   31.9810 C   0  0  0  0  0  0  0  0  0  0  0  0
   36.2380   20.1040   31.2550 C   0  0  0  0  0  0  0  0  0  0  0  0
   37.2540   20.8460   30.7320 C   0  0  0  0  0  0  0  0  0  0  0  0
   37.2910   22.1980   30.9340 C   0  0  0  0  0  0  0  0  0  0  0  0
   38.3780   22.8950   30.3590 N   0  0  0  0  0  0  0  0  0  0  0  0
   40.2960   24.1520   34.3770 C   0  0  0  0  0  0  0  0  0  0  0  0
   39.3710   24.5860   33.4290 C   0  0  0  0  0  0  0  0  0  0  0  0
   38.0190   24.5970   33.7410 C   0  0  0  0  0  0  0  0  0  0  0  0
   37.6500   24.1680   34.9990 N   0  0  0  0  0  0  0  0  0  0  0  0
   38.5720   23.7540   35.8920 C   0  0  0  0  0  0  0  0  0  0  0  0
   39.8740   23.7470   35.5810 N   0  0  0  0  0  0  0  0  0  0  0  0
   38.0680   23.3050   37.2380 C   0  0  0  0  0  0  0  0  0  0  0  0
   39.0050   23.2640   38.3740 C   0  0  0  0  0  0  0  0  0  0  0  0
   37.9450   24.3250   38.3160 C   0  0  0  0  0  0  0  0  0  0  0  0
   37.2042   27.2749   33.0851 H   0  0  0  0  0  0  0  0  0  0  0  0
   34.9975   24.8314   30.3360 H   0  0  0  0  0  0  0  0  0  0  0  0
   34.5080   22.5736   32.7634 H   0  0  0  0  0  0  0  0  0  0  0  0
   34.4341   20.1507   32.4096 H   0  0  0  0  0  0  0  0  0  0  0  0
   36.2019   19.0159   31.0976 H   0  0  0  0  0  0  0  0  0  0  0  0
   38.0460   20.3566   30.1462 H   0  0  0  0  0  0  0  0  0  0  0  0
   38.4571   23.9149   30.4788 H   0  0  0  0  0  0  0  0  0  0  0  0
   39.0910   22.3830   29.8202 H   0  0  0  0  0  0  0  0  0  0  0  0
   41.3693   24.1423   34.1365 H   0  0  0  0  0  0  0  0  0  0  0  0
   39.7115   24.9185   32.4373 H   0  0  0  0  0  0  0  0  0  0  0  0
   37.3878   22.5734   36.7776 H   0  0  0  0  0  0  0  0  0  0  0  0
   38.9337   22.4556   39.1166 H   0  0  0  0  0  0  0  0  0  0  0  0
   40.1000   23.2641   38.4788 H   0  0  0  0  0  0  0  0  0  0  0  0
   38.2209   25.3717   38.1205 H   0  0  0  0  0  0  0  0  0  0  0  0
   37.1402   24.6658   38.9840 H   0  0  0  0  0  0  0  0  0  0  0  0
  1 15  1  0
  2  1  2  0
  3  2  1  0
  4  3  2  0
  4  5  1  0
  5  1  1  0
  6  5  1  0
  6  7  2  0
  8  7  1  0
  9  8  2  0
 10 11  2  0
 10  9  1  0
 11  6  1  0
 12 11  1  0
 13 18  2  0
 14 15  2  0
 14 13  1  0
 15 16  1  0
 16 17  2  0
 17 19  1  0
 18 17  1  0
 19 21  1  0
 19 20  1  0
 21 20  1  0
  2 22  1  0
  4 23  1  0
  7 24  1  0
  8 25  1  0
  9 26  1  0
 10 27  1  0
 12 28  1  0
 12 29  1  0
 13 30  1  0
 14 31  1  0
 19 32  1  0
 20 33  1  0
 20 34  1  0
 21 35  1  0
 21 36  1  0
M  ISO  8  22  14  23  14  24  14  25  14  26  14  27  14  30  14  31  14
M  ISO  5  32  13  33  13  34  13  35  13  36  13
M  END
>  <minimizedAffinity>  (1) 
-5.35616541

>  <minimizedRMSD>  (1) 
5.58412695

$$$$
