
     RDKit          3D

 41 43  0  0  0  0  0  0  0  0999 V2000
   38.0700   23.2570   35.5770 C   0  0  0  0  0  0  0  0  0  0  0  0
   37.8760   22.8010   36.9060 C   0  0  0  0  0  0  0  0  0  0  0  0
   37.8610   23.9430   37.6690 N   0  0  0  0  0  0  0  0  0  0  0  0
   38.0380   24.9840   36.8140 C   0  0  0  0  0  0  0  0  0  0  0  0
   38.1630   24.5950   35.5710 N   0  0  0  0  0  0  0  0  0  0  0  0
   38.3570   25.4960   34.4990 C   0  0  0  0  0  0  0  0  0  0  0  0
   37.2970   26.0310   33.7440 C   0  0  0  0  0  0  0  0  0  0  0  0
   37.4920   26.9060   32.7040 C   0  0  0  0  0  0  0  0  0  0  0  0
   38.7470   27.3030   32.3520 C   0  0  0  0  0  0  0  0  0  0  0  0
   39.8130   26.8170   33.0490 C   0  0  0  0  0  0  0  0  0  0  0  0
   39.6100   25.9400   34.0890 C   0  0  0  0  0  0  0  0  0  0  0  0
   40.7630   25.4750   34.7700 N   0  0  0  0  0  0  0  0  0  0  0  0
   39.4890   21.1460   32.8600 C   0  0  0  0  0  0  0  0  0  0  0  0
   39.3940   22.0280   33.9420 C   0  0  0  0  0  0  0  0  0  0  0  0
   38.1440   22.3360   34.4510 C   0  0  0  0  0  0  0  0  0  0  0  0
   37.0480   21.7560   33.8670 N   0  0  0  0  0  0  0  0  0  0  0  0
   37.1730   20.9140   32.8330 C   0  0  0  0  0  0  0  0  0  0  0  0
   38.3970   20.6160   32.3360 N   0  0  0  0  0  0  0  0  0  0  0  0
   36.0060   20.2790   32.1890 C   0  0  0  0  0  0  0  0  0  0  0  0
   36.2890   19.9320   30.7330 C   0  0  0  0  0  0  0  0  0  0  0  0
   35.5270   19.0380   32.9080 C   0  0  0  0  0  0  0  0  0  0  0  0
   34.8490   21.2640   32.1690 C   0  0  0  0  0  0  0  0  0  0  0  0
   37.7626   21.7622   37.2497 H   0  0  0  0  0  0  0  0  0  0  0  0
   38.0724   26.0366   37.1314 H   0  0  0  0  0  0  0  0  0  0  0  0
   36.2682   25.7357   33.9978 H   0  0  0  0  0  0  0  0  0  0  0  0
   36.6244   27.2912   32.1482 H   0  0  0  0  0  0  0  0  0  0  0  0
   38.8977   28.0047   31.5184 H   0  0  0  0  0  0  0  0  0  0  0  0
   40.8340   27.1257   32.7801 H   0  0  0  0  0  0  0  0  0  0  0  0
   40.6663   24.8168   35.5563 H   0  0  0  0  0  0  0  0  0  0  0  0
   41.6975   25.7954   34.4785 H   0  0  0  0  0  0  0  0  0  0  0  0
   40.4753   20.8928   32.4440 H   0  0  0  0  0  0  0  0  0  0  0  0
   40.2999   22.4705   34.3820 H   0  0  0  0  0  0  0  0  0  0  0  0
   36.9836   19.0803   30.6874 H   0  0  0  0  0  0  0  0  0  0  0  0
   35.3478   19.6649   30.2301 H   0  0  0  0  0  0  0  0  0  0  0  0
   36.7399   20.8002   30.2301 H   0  0  0  0  0  0  0  0  0  0  0  0
   35.5884   19.1971   33.9947 H   0  0  0  0  0  0  0  0  0  0  0  0
   34.4842   18.8305   32.6262 H   0  0  0  0  0  0  0  0  0  0  0  0
   36.1600   18.1836   32.6262 H   0  0  0  0  0  0  0  0  0  0  0  0
   34.5594   21.5105   33.2012 H   0  0  0  0  0  0  0  0  0  0  0  0
   35.1572   22.1811   31.6457 H   0  0  0  0  0  0  0  0  0  0  0  0
   33.9928   20.8134   31.6457 H   0  0  0  0  0  0  0  0  0  0  0  0
  1  2  2  0
  2  3  1  0
  4  3  2  0
  5  1  1  0
  5  4  1  0
  6  5  1  0
  7  6  2  0
  8  7  1  0
  9  8  2  0
  9 10  1  0
 10 11  2  0
 11  6  1  0
 11 12  1  0
 13 14  2  0
 14 15  1  0
 15  1  1  0
 16 15  2  0
 17 16  1  0
 18 17  2  0
 18 13  1  0
 19 17  1  0
 19 21  1  0
 20 19  1  0
 22 19  1  0
  2 23  1  0
  4 24  1  0
  7 25  1  0
  8 26  1  0
  9 27  1  0
 10 28  1  0
 12 29  1  0
 12 30  1  0
 13 31  1  0
 14 32  1  0
 20 33  1  0
 20 34  1  0
 20 35  1  0
 21 36  1  0
 21 37  1  0
 21 38  1  0
 22 39  1  0
 22 40  1  0
 22 41  1  0
M  ISO  8  23  14  24  14  25  14  26  14  27  14  28  14  31  14  32  14
M  ISO  8  33   8  34   8  35   8  36   8  37   8  38   8  39   8  40   8
M  ISO  1  41   8
M  END
>  <minimizedAffinity>  (1) 
-5.24164295

>  <minimizedRMSD>  (1) 
5.9305377

$$$$
