
     RDKit          3D

 43 46  0  0  0  0  0  0  0  0999 V2000
   37.2510   25.7290   31.8850 C   0  0  0  0  0  0  0  0  0  0  0  0
   35.9510   26.2250   31.6370 C   0  0  0  0  0  0  0  0  0  0  0  0
   36.1410   27.2480   30.7420 N   0  0  0  0  0  0  0  0  0  0  0  0
   37.4810   27.3210   30.4990 C   0  0  0  0  0  0  0  0  0  0  0  0
   38.1510   26.4180   31.1760 N   0  0  0  0  0  0  0  0  0  0  0  0
   37.3210   22.2630   33.2420 C   0  0  0  0  0  0  0  0  0  0  0  0
   37.1010   23.3440   32.3840 C   0  0  0  0  0  0  0  0  0  0  0  0
   37.4900   24.6220   32.7950 C   0  0  0  0  0  0  0  0  0  0  0  0
   38.0800   24.7560   34.0440 N   0  0  0  0  0  0  0  0  0  0  0  0
   38.2620   23.6820   34.8170 C   0  0  0  0  0  0  0  0  0  0  0  0
   37.8970   22.4520   34.4410 N   0  0  0  0  0  0  0  0  0  0  0  0
   38.8690   23.8420   36.0950 N   0  0  0  0  0  0  0  0  0  0  0  0
   38.1220   24.1040   37.3030 C   0  0  0  0  0  0  0  0  0  0  0  0
   38.9520   23.5140   38.4440 C   0  0  0  0  0  0  0  0  0  0  0  0
   39.5090   22.2600   37.9540 N   0  0  0  0  0  0  0  0  0  0  0  0
   40.6600   22.5440   37.1170 C   0  0  0  0  0  0  0  0  0  0  0  0
   40.3040   23.7530   36.2770 C   0  0  0  0  0  0  0  0  0  0  0  0
   39.5540   26.2990   31.0870 C   0  0  0  0  0  0  0  0  0  0  0  0
   40.2090   25.7490   29.9630 C   0  0  0  0  0  0  0  0  0  0  0  0
   41.5700   25.6290   29.8680 C   0  0  0  0  0  0  0  0  0  0  0  0
   42.3740   26.0520   30.8960 C   0  0  0  0  0  0  0  0  0  0  0  0
   41.7990   26.5920   32.0110 C   0  0  0  0  0  0  0  0  0  0  0  0
   40.4330   26.7010   32.0790 C   0  0  0  0  0  0  0  0  0  0  0  0
   39.9080   27.2710   33.2650 N   0  0  0  0  0  0  0  0  0  0  0  0
   35.0014   25.8711   32.0647 H   0  0  0  0  0  0  0  0  0  0  0  0
   37.9446   28.0493   29.8174 H   0  0  0  0  0  0  0  0  0  0  0  0
   37.0206   21.2507   32.9336 H   0  0  0  0  0  0  0  0  0  0  0  0
   36.6297   23.1916   31.4018 H   0  0  0  0  0  0  0  0  0  0  0  0
   37.9913   25.1869   37.4450 H   0  0  0  0  0  0  0  0  0  0  0  0
   37.1171   23.6584   37.2616 H   0  0  0  0  0  0  0  0  0  0  0  0
   39.7615   24.2056   38.7205 H   0  0  0  0  0  0  0  0  0  0  0  0
   38.3329   23.3485   39.3381 H   0  0  0  0  0  0  0  0  0  0  0  0
   39.7988   21.6767   38.7519 H   0  0  0  0  0  0  0  0  0  0  0  0
   41.5380   22.7629   37.7424 H   0  0  0  0  0  0  0  0  0  0  0  0
   40.9076   21.6812   36.4811 H   0  0  0  0  0  0  0  0  0  0  0  0
   40.7886   23.6654   35.2934 H   0  0  0  0  0  0  0  0  0  0  0  0
   40.6532   24.6593   36.7934 H   0  0  0  0  0  0  0  0  0  0  0  0
   39.5944   25.3990   29.1205 H   0  0  0  0  0  0  0  0  0  0  0  0
   42.0200   25.1920   28.9644 H   0  0  0  0  0  0  0  0  0  0  0  0
   43.4675   25.9575   30.8232 H   0  0  0  0  0  0  0  0  0  0  0  0
   42.4255   26.9364   32.8470 H   0  0  0  0  0  0  0  0  0  0  0  0
   40.5444   27.5765   34.0150 H   0  0  0  0  0  0  0  0  0  0  0  0
   38.8899   27.3799   33.3772 H   0  0  0  0  0  0  0  0  0  0  0  0
  1  8  1  0
  2  1  2  0
  3  2  1  0
  4  3  2  0
  4  5  1  0
  5  1  1  0
  6 11  2  0
  7  8  2  0
  7  6  1  0
  8  9  1  0
  9 10  2  0
 10 12  1  0
 11 10  1  0
 12 17  1  0
 12 13  1  0
 13 14  1  0
 15 14  1  0
 16 15  1  0
 17 16  1  0
 18  5  1  0
 18 23  1  0
 19 18  2  0
 20 19  1  0
 20 21  2  0
 21 22  1  0
 22 23  2  0
 23 24  1  0
  2 25  1  0
  4 26  1  0
  6 27  1  0
  7 28  1  0
 13 29  1  0
 13 30  1  0
 14 31  1  0
 14 32  1  0
 15 33  1  0
 16 34  1  0
 16 35  1  0
 17 36  1  0
 17 37  1  0
 19 38  1  0
 20 39  1  0
 21 40  1  0
 22 41  1  0
 24 42  1  0
 24 43  1  0
M  ISO  8  25  14  26  14  27  14  28  14  29  13  30  13  31  13  32  13
M  ISO  8  33   5  34  13  35  13  36  13  37  13  38  14  39  14  40  14
M  ISO  1  41  14
M  END
>  <minimizedAffinity>  (1) 
-5.06246519

>  <minimizedRMSD>  (1) 
4.36482191

$$$$
