
     RDKit          3D

 44 47  0  0  0  0  0  0  0  0999 V2000
   43.3960   23.6120   35.0080 C   0  0  0  0  0  0  0  0  0  0  0  0
   42.9490   22.3760   34.4970 C   0  0  0  0  0  0  0  0  0  0  0  0
   43.6720   21.4400   35.1870 N   0  0  0  0  0  0  0  0  0  0  0  0
   44.4830   22.1190   36.0420 C   0  0  0  0  0  0  0  0  0  0  0  0
   44.3340   23.4130   35.9500 N   0  0  0  0  0  0  0  0  0  0  0  0
   43.2580   26.9800   33.4130 C   0  0  0  0  0  0  0  0  0  0  0  0
   43.7470   25.7530   33.8760 C   0  0  0  0  0  0  0  0  0  0  0  0
   42.8710   24.8810   34.5340 C   0  0  0  0  0  0  0  0  0  0  0  0
   41.5720   25.2810   34.6880 N   0  0  0  0  0  0  0  0  0  0  0  0
   41.1430   26.4660   34.2290 C   0  0  0  0  0  0  0  0  0  0  0  0
   41.9710   27.3100   33.5970 N   0  0  0  0  0  0  0  0  0  0  0  0
   39.7840   26.8520   34.4050 N   0  0  0  0  0  0  0  0  0  0  0  0
   39.0530   26.7000   35.6420 C   0  0  0  0  0  0  0  0  0  0  0  0
   37.8400   27.6020   35.5740 C   0  0  0  0  0  0  0  0  0  0  0  0
   36.9160   27.2090   34.4410 C   0  0  0  0  0  0  0  0  0  0  0  0
   37.7130   26.6830   33.2470 C   0  0  0  0  0  0  0  0  0  0  0  0
   39.0430   27.4450   33.2910 C   0  0  0  0  0  0  0  0  0  0  0  0
   45.0680   24.3190   36.7360 C   0  0  0  0  0  0  0  0  0  0  0  0
   44.5450   24.9490   37.8880 C   0  0  0  0  0  0  0  0  0  0  0  0
   45.2590   25.8310   38.6520 C   0  0  0  0  0  0  0  0  0  0  0  0
   46.5580   26.1520   38.3200 C   0  0  0  0  0  0  0  0  0  0  0  0
   47.1150   25.5770   37.2220 C   0  0  0  0  0  0  0  0  0  0  0  0
   46.3830   24.6910   36.4630 C   0  0  0  0  0  0  0  0  0  0  0  0
   47.0250   24.1290   35.3320 N   0  0  0  0  0  0  0  0  0  0  0  0
   42.1905   22.2028   33.7194 H   0  0  0  0  0  0  0  0  0  0  0  0
   45.1861   21.6323   36.7339 H   0  0  0  0  0  0  0  0  0  0  0  0
   43.9329   27.6775   32.8954 H   0  0  0  0  0  0  0  0  0  0  0  0
   44.8015   25.4784   33.7255 H   0  0  0  0  0  0  0  0  0  0  0  0
   38.7355   25.6538   35.7633 H   0  0  0  0  0  0  0  0  0  0  0  0
   39.6866   26.9708   36.4994 H   0  0  0  0  0  0  0  0  0  0  0  0
   37.2897   27.5324   36.5239 H   0  0  0  0  0  0  0  0  0  0  0  0
   38.1859   28.6307   35.3948 H   0  0  0  0  0  0  0  0  0  0  0  0
   36.2303   26.4233   34.7910 H   0  0  0  0  0  0  0  0  0  0  0  0
   36.3506   28.0975   34.1232 H   0  0  0  0  0  0  0  0  0  0  0  0
   37.1809   26.8881   32.3064 H   0  0  0  0  0  0  0  0  0  0  0  0
   37.8590   25.5938   33.2952 H   0  0  0  0  0  0  0  0  0  0  0  0
   39.5940   27.3153   32.3478 H   0  0  0  0  0  0  0  0  0  0  0  0
   38.8946   28.5269   33.4235 H   0  0  0  0  0  0  0  0  0  0  0  0
   43.5114   24.7184   38.1854 H   0  0  0  0  0  0  0  0  0  0  0  0
   44.7932   26.2875   39.5378 H   0  0  0  0  0  0  0  0  0  0  0  0
   47.1335   26.8611   38.9332 H   0  0  0  0  0  0  0  0  0  0  0  0
   48.1502   25.8191   36.9395 H   0  0  0  0  0  0  0  0  0  0  0  0
   47.9967   24.3884   35.1095 H   0  0  0  0  0  0  0  0  0  0  0  0
   46.5201   23.4610   34.7322 H   0  0  0  0  0  0  0  0  0  0  0  0
  1  5  1  0
  2  1  2  0
  2  3  1  0
  3  4  2  0
  5  4  1  0
  5 18  1  0
  6 11  2  0
  6  7  1  0
  7  8  2  0
  8  9  1  0
  8  1  1  0
 10 12  1  0
 10  9  2  0
 11 10  1  0
 12 13  1  0
 14 13  1  0
 15 14  1  0
 16 17  1  0
 16 15  1  0
 17 12  1  0
 18 19  2  0
 19 20  1  0
 21 20  2  0
 22 21  1  0
 23 18  1  0
 23 22  2  0
 24 23  1  0
  2 25  1  0
  4 26  1  0
  6 27  1  0
  7 28  1  0
 13 29  1  0
 13 30  1  0
 14 31  1  0
 14 32  1  0
 15 33  1  0
 15 34  1  0
 16 35  1  0
 16 36  1  0
 17 37  1  0
 17 38  1  0
 19 39  1  0
 20 40  1  0
 21 41  1  0
 22 42  1  0
 24 43  1  0
 24 44  1  0
M  ISO  8  25  14  26  14  27  14  28  14  29  13  30  13  31  13  32  13
M  ISO  8  33  13  34  13  35  13  36  13  37  13  38  13  39  14  40  14
M  ISO  2  41  14  42  14
M  END
>  <minimizedAffinity>  (1) 
-5.03479862

>  <minimizedRMSD>  (1) 
4.9942975

$$$$
