
     RDKit          3D

 36 39  0  0  0  0  0  0  0  0999 V2000
   41.1950   24.9860   32.3810 C   0  0  0  0  0  0  0  0  0  0  0  0
   41.1950   25.1500   30.9810 C   0  0  0  0  0  0  0  0  0  0  0  0
   42.5000   24.9380   30.6120 N   0  0  0  0  0  0  0  0  0  0  0  0
   43.1860   24.6700   31.7490 C   0  0  0  0  0  0  0  0  0  0  0  0
   42.4210   24.6960   32.8140 N   0  0  0  0  0  0  0  0  0  0  0  0
   37.7100   25.9060   33.3120 C   0  0  0  0  0  0  0  0  0  0  0  0
   38.8880   25.7500   32.5790 C   0  0  0  0  0  0  0  0  0  0  0  0
   39.9790   25.1330   33.1740 C   0  0  0  0  0  0  0  0  0  0  0  0
   39.8410   24.7020   34.4680 N   0  0  0  0  0  0  0  0  0  0  0  0
   38.6990   24.8650   35.1450 C   0  0  0  0  0  0  0  0  0  0  0  0
   37.6460   25.4600   34.5760 N   0  0  0  0  0  0  0  0  0  0  0  0
   38.6060   24.4000   36.4880 N   0  0  0  0  0  0  0  0  0  0  0  0
   37.9540   25.0020   37.4840 N   0  0  0  0  0  0  0  0  0  0  0  0
   38.0620   24.3090   38.6100 C   0  0  0  0  0  0  0  0  0  0  0  0
   38.8340   23.1730   38.3490 C   0  0  0  0  0  0  0  0  0  0  0  0
   39.1440   23.2830   37.0120 C   0  0  0  0  0  0  0  0  0  0  0  0
   42.9180   24.4470   34.1110 C   0  0  0  0  0  0  0  0  0  0  0  0
   42.9920   23.1670   34.6770 C   0  0  0  0  0  0  0  0  0  0  0  0
   43.4730   22.9200   35.9330 C   0  0  0  0  0  0  0  0  0  0  0  0
   43.9160   23.9530   36.7120 C   0  0  0  0  0  0  0  0  0  0  0  0
   43.8700   25.2250   36.2180 C   0  0  0  0  0  0  0  0  0  0  0  0
   43.3860   25.4500   34.9590 C   0  0  0  0  0  0  0  0  0  0  0  0
   43.3690   26.7930   34.5140 N   0  0  0  0  0  0  0  0  0  0  0  0
   40.3417   25.3931   30.3308 H   0  0  0  0  0  0  0  0  0  0  0  0
   44.2644   24.4546   31.7760 H   0  0  0  0  0  0  0  0  0  0  0  0
   36.8364   26.3934   32.8544 H   0  0  0  0  0  0  0  0  0  0  0  0
   38.9504   26.1119   31.5421 H   0  0  0  0  0  0  0  0  0  0  0  0
   37.6209   24.5809   39.5803 H   0  0  0  0  0  0  0  0  0  0  0  0
   39.1259   22.3764   39.0491 H   0  0  0  0  0  0  0  0  0  0  0  0
   39.7489   22.5570   36.4489 H   0  0  0  0  0  0  0  0  0  0  0  0
   42.6436   22.3132   34.0773 H   0  0  0  0  0  0  0  0  0  0  0  0
   43.5036   21.8897   36.3170 H   0  0  0  0  0  0  0  0  0  0  0  0
   44.3043   23.7616   37.7232 H   0  0  0  0  0  0  0  0  0  0  0  0
   44.2217   26.0674   36.8317 H   0  0  0  0  0  0  0  0  0  0  0  0
   43.7117   27.5440   35.1300 H   0  0  0  0  0  0  0  0  0  0  0  0
   43.0139   27.0196   33.5741 H   0  0  0  0  0  0  0  0  0  0  0  0
  1  5  1  0
  1  8  1  0
  2  1  2  0
  3  2  1  0
  3  4  2  0
  4  5  1  0
  5 17  1  0
  6 11  2  0
  7  8  2  0
  7  6  1  0
  8  9  1  0
  9 10  2  0
 10 12  1  0
 11 10  1  0
 12 16  1  0
 12 13  1  0
 13 14  2  0
 15 14  1  0
 16 15  2  0
 17 18  2  0
 17 22  1  0
 18 19  1  0
 19 20  2  0
 21 20  1  0
 22 21  2  0
 23 22  1  0
  2 24  1  0
  4 25  1  0
  6 26  1  0
  7 27  1  0
 14 28  1  0
 15 29  1  0
 16 30  1  0
 18 31  1  0
 19 32  1  0
 20 33  1  0
 21 34  1  0
 23 35  1  0
 23 36  1  0
M  ISO  8  24  14  25  14  26  14  27  14  28  14  29  14  30  14  31  14
M  ISO  3  32  14  33  14  34  14
M  END
>  <minimizedAffinity>  (1) 
-4.84925365

>  <minimizedRMSD>  (1) 
2.48931336

$$$$
