
     RDKit          3D

 38 41  0  0  0  0  0  0  0  0999 V2000
   40.4840   26.3670   34.7630 C   0  0  0  0  0  0  0  0  0  0  0  0
   39.2020   26.8990   34.2210 C   0  0  0  0  0  0  0  0  0  0  0  0
   38.1350   27.1660   35.0790 C   0  0  0  0  0  0  0  0  0  0  0  0
   36.9030   27.6620   34.6750 C   0  0  0  0  0  0  0  0  0  0  0  0
   36.7510   27.8970   33.3320 N   0  0  0  0  0  0  0  0  0  0  0  0
   37.7910   27.6370   32.4910 C   0  0  0  0  0  0  0  0  0  0  0  0
   38.9770   27.1510   32.9400 N   0  0  0  0  0  0  0  0  0  0  0  0
   37.6570   27.8770   31.0550 C   0  0  0  0  0  0  0  0  0  0  0  0
   38.7910   28.1560   30.2860 C   0  0  0  0  0  0  0  0  0  0  0  0
   38.3360   28.3360   28.9670 C   0  0  0  0  0  0  0  0  0  0  0  0
   36.9860   28.1630   28.9870 N   0  0  0  0  0  0  0  0  0  0  0  0
   36.5900   27.8930   30.2210 N   0  0  0  0  0  0  0  0  0  0  0  0
   40.8150   25.0010   34.1980 C   0  0  0  0  0  0  0  0  0  0  0  0
   41.9710   22.3230   36.5350 C   0  0  0  0  0  0  0  0  0  0  0  0
   40.8760   22.2630   37.4290 C   0  0  0  0  0  0  0  0  0  0  0  0
   39.7870   23.1160   37.2270 C   0  0  0  0  0  0  0  0  0  0  0  0
   39.8290   23.9720   36.1710 N   0  0  0  0  0  0  0  0  0  0  0  0
   40.8960   24.0070   35.3270 C   0  0  0  0  0  0  0  0  0  0  0  0
   41.9430   23.2000   35.5070 N   0  0  0  0  0  0  0  0  0  0  0  0
   38.6450   23.0550   38.1580 C   0  0  0  0  0  0  0  0  0  0  0  0
   37.2520   23.2500   37.6610 C   0  0  0  0  0  0  0  0  0  0  0  0
   37.9580   24.3620   38.4230 C   0  0  0  0  0  0  0  0  0  0  0  0
   41.2950   27.0640   34.5054 H   0  0  0  0  0  0  0  0  0  0  0  0
   40.3768   26.2671   35.8532 H   0  0  0  0  0  0  0  0  0  0  0  0
   38.2801   26.9696   36.1516 H   0  0  0  0  0  0  0  0  0  0  0  0
   36.0925   27.8561   35.3929 H   0  0  0  0  0  0  0  0  0  0  0  0
   39.8301   28.2216   30.6410 H   0  0  0  0  0  0  0  0  0  0  0  0
   38.9533   28.5715   28.0875 H   0  0  0  0  0  0  0  0  0  0  0  0
   36.3668   28.2317   28.1668 H   0  0  0  0  0  0  0  0  0  0  0  0
   40.0289   24.6938   33.4925 H   0  0  0  0  0  0  0  0  0  0  0  0
   41.7794   25.0419   33.6704 H   0  0  0  0  0  0  0  0  0  0  0  0
   42.8383   21.6611   36.6755 H   0  0  0  0  0  0  0  0  0  0  0  0
   40.8815   21.5552   38.2710 H   0  0  0  0  0  0  0  0  0  0  0  0
   39.1147   22.2612   38.7574 H   0  0  0  0  0  0  0  0  0  0  0  0
   37.0616   23.3559   36.5828 H   0  0  0  0  0  0  0  0  0  0  0  0
   36.3009   22.7092   37.7746 H   0  0  0  0  0  0  0  0  0  0  0  0
   37.6388   24.6213   39.4432 H   0  0  0  0  0  0  0  0  0  0  0  0
   38.1874   25.4202   38.2293 H   0  0  0  0  0  0  0  0  0  0  0  0
  2  1  1  0
  2  3  2  0
  4  3  1  0
  5  4  2  0
  6  7  2  0
  6  5  1  0
  7  2  1  0
  8  6  1  0
  9  8  1  0
 10 11  1  0
 10  9  2  0
 11 12  1  0
 12  8  2  0
 13  1  1  0
 13 18  1  0
 14 15  2  0
 16 15  1  0
 16 20  1  0
 17 16  2  0
 18 19  2  0
 18 17  1  0
 19 14  1  0
 20 22  1  0
 21 20  1  0
 21 22  1  0
  1 23  1  0
  1 24  1  0
  3 25  1  0
  4 26  1  0
  9 27  1  0
 10 28  1  0
 11 29  1  0
 13 30  1  0
 13 31  1  0
 14 32  1  0
 15 33  1  0
 20 34  1  0
 21 35  1  0
 21 36  1  0
 22 37  1  0
 22 38  1  0
M  ISO  8  23   8  24   8  25  14  26  14  27  14  28  14  29   9  30   8
M  ISO  8  31   8  32  14  33  14  34  13  35  13  36  13  37  13  38  13
M  END
>  <minimizedAffinity>  (1) 
-5.42663574

>  <minimizedRMSD>  (1) 
1.72560489

$$$$
