
     RDKit          3D

 30 32  0  0  0  0  0  0  0  0999 V2000
   39.5450   24.0580   33.6320 C   0  0  0  0  0  0  0  0  0  0  0  0
   38.9560   24.4720   32.4160 C   0  0  0  0  0  0  0  0  0  0  0  0
   40.0080   24.8740   31.6470 N   0  0  0  0  0  0  0  0  0  0  0  0
   41.1320   24.7020   32.3800 C   0  0  0  0  0  0  0  0  0  0  0  0
   40.8690   24.2150   33.5670 N   0  0  0  0  0  0  0  0  0  0  0  0
   41.8820   23.9480   34.5140 C   0  0  0  0  0  0  0  0  0  0  0  0
   42.3250   22.6460   34.8150 C   0  0  0  0  0  0  0  0  0  0  0  0
   43.3140   22.3770   35.7380 C   0  0  0  0  0  0  0  0  0  0  0  0
   43.9160   23.4070   36.4120 C   0  0  0  0  0  0  0  0  0  0  0  0
   43.5330   24.6850   36.1670 C   0  0  0  0  0  0  0  0  0  0  0  0
   42.5440   24.9310   35.2420 C   0  0  0  0  0  0  0  0  0  0  0  0
   42.1910   26.2830   35.0320 N   0  0  0  0  0  0  0  0  0  0  0  0
   37.2540   21.8830   35.5870 C   0  0  0  0  0  0  0  0  0  0  0  0
   38.0150   22.3870   34.5360 C   0  0  0  0  0  0  0  0  0  0  0  0
   38.7560   23.5480   34.7430 C   0  0  0  0  0  0  0  0  0  0  0  0
   38.7020   24.1430   35.9770 N   0  0  0  0  0  0  0  0  0  0  0  0
   37.9500   23.6210   36.9680 C   0  0  0  0  0  0  0  0  0  0  0  0
   37.2310   22.4910   36.7610 N   0  0  0  0  0  0  0  0  0  0  0  0
   37.9790   24.5120   38.5260 S   0  0  0  0  0  0  0  0  0  0  0  0
   37.8887   24.4704   32.1496 H   0  0  0  0  0  0  0  0  0  0  0  0
   42.1442   24.9421   32.0224 H   0  0  0  0  0  0  0  0  0  0  0  0
   41.8589   21.8007   34.2875 H   0  0  0  0  0  0  0  0  0  0  0  0
   43.6187   21.3381   35.9326 H   0  0  0  0  0  0  0  0  0  0  0  0
   44.7062   23.1985   37.1483 H   0  0  0  0  0  0  0  0  0  0  0  0
   44.0094   25.5187   36.7037 H   0  0  0  0  0  0  0  0  0  0  0  0
   42.6679   27.0278   35.5600 H   0  0  0  0  0  0  0  0  0  0  0  0
   41.4567   26.5237   34.3510 H   0  0  0  0  0  0  0  0  0  0  0  0
   36.6638   20.9666   35.4389 H   0  0  0  0  0  0  0  0  0  0  0  0
   38.0308   21.8782   33.5609 H   0  0  0  0  0  0  0  0  0  0  0  0
   37.9499   23.6182   39.5638 H   0  0  0  0  0  0  0  0  0  0  0  0
  1 15  1  0
  2  1  2  0
  3  4  2  0
  3  2  1  0
  4  5  1  0
  5  1  1  0
  5  6  1  0
  6  7  2  0
  6 11  1  0
  7  8  1  0
  8  9  2  0
 10  9  1  0
 11 10  2  0
 12 11  1  0
 13 18  2  0
 14 15  2  0
 14 13  1  0
 15 16  1  0
 16 17  2  0
 17 19  1  0
 18 17  1  0
  2 20  1  0
  4 21  1  0
  7 22  1  0
  8 23  1  0
  9 24  1  0
 10 25  1  0
 12 26  1  0
 12 27  1  0
 13 28  1  0
 14 29  1  0
 19 30  1  0
M  ISO  8  20  14  21  14  22  14  23  14  24  14  25  14  28  14  29  14
M  ISO  1  30  11
M  END
>  <minimizedAffinity>  (1) 
-4.09785318

>  <minimizedRMSD>  (1) 
0.681095302

$$$$
