
     RDKit          3D

 38 41  0  0  0  0  0  0  0  0999 V2000
   39.9610   26.4260   35.1120 C   0  0  0  0  0  0  0  0  0  0  0  0
   38.8350   27.0120   34.3440 C   0  0  0  0  0  0  0  0  0  0  0  0
   37.6790   27.4030   35.0240 C   0  0  0  0  0  0  0  0  0  0  0  0
   36.5640   27.9640   34.4040 C   0  0  0  0  0  0  0  0  0  0  0  0
   36.6250   28.1290   33.0540 N   0  0  0  0  0  0  0  0  0  0  0  0
   37.7500   27.7480   32.3850 C   0  0  0  0  0  0  0  0  0  0  0  0
   38.8030   27.2090   33.0430 N   0  0  0  0  0  0  0  0  0  0  0  0
   37.8550   27.9070   30.9480 C   0  0  0  0  0  0  0  0  0  0  0  0
   37.1540   28.9160   30.2930 C   0  0  0  0  0  0  0  0  0  0  0  0
   37.4550   28.8160   28.9230 C   0  0  0  0  0  0  0  0  0  0  0  0
   38.3170   27.7620   28.8060 N   0  0  0  0  0  0  0  0  0  0  0  0
   38.5590   27.2210   29.9940 N   0  0  0  0  0  0  0  0  0  0  0  0
   40.2710   25.0070   34.6910 C   0  0  0  0  0  0  0  0  0  0  0  0
   38.0660   23.2310   37.1240 C   0  0  0  0  0  0  0  0  0  0  0  0
   37.3860   22.3390   36.2810 C   0  0  0  0  0  0  0  0  0  0  0  0
   37.6820   22.3550   34.9230 C   0  0  0  0  0  0  0  0  0  0  0  0
   38.6140   23.2290   34.4720 N   0  0  0  0  0  0  0  0  0  0  0  0
   39.2600   24.0850   35.3100 C   0  0  0  0  0  0  0  0  0  0  0  0
   38.9920   24.0870   36.6170 N   0  0  0  0  0  0  0  0  0  0  0  0
   37.0550   21.4860   33.9330 C   0  0  0  0  0  0  0  0  0  0  0  0
   35.8740   20.8010   34.2310 C   0  0  0  0  0  0  0  0  0  0  0  0
   35.4920   20.0530   33.1310 C   0  0  0  0  0  0  0  0  0  0  0  0
   36.4800   20.3290   32.2050 C   0  0  0  0  0  0  0  0  0  0  0  0
   37.3640   21.1620   32.7100 O   0  0  0  0  0  0  0  0  0  0  0  0
   40.8564   27.0449   34.9533 H   0  0  0  0  0  0  0  0  0  0  0  0
   39.6678   26.4043   36.1720 H   0  0  0  0  0  0  0  0  0  0  0  0
   37.6469   27.2595   36.1141 H   0  0  0  0  0  0  0  0  0  0  0  0
   35.6746   28.2602   34.9796 H   0  0  0  0  0  0  0  0  0  0  0  0
   36.4874   29.6553   30.7610 H   0  0  0  0  0  0  0  0  0  0  0  0
   37.0748   29.4548   28.1122 H   0  0  0  0  0  0  0  0  0  0  0  0
   38.7230   27.4327   27.9185 H   0  0  0  0  0  0  0  0  0  0  0  0
   40.2211   24.9276   33.5950 H   0  0  0  0  0  0  0  0  0  0  0  0
   41.2818   24.7310   35.0257 H   0  0  0  0  0  0  0  0  0  0  0  0
   37.8482   23.2376   38.2022 H   0  0  0  0  0  0  0  0  0  0  0  0
   36.6361   21.6432   36.6854 H   0  0  0  0  0  0  0  0  0  0  0  0
   35.3337   20.8487   35.1880 H   0  0  0  0  0  0  0  0  0  0  0  0
   34.6152   19.3980   33.0206 H   0  0  0  0  0  0  0  0  0  0  0  0
   36.5214   19.9108   31.1884 H   0  0  0  0  0  0  0  0  0  0  0  0
  2  3  2  0
  2  1  1  0
  4  3  1  0
  5  4  2  0
  6  7  2  0
  6  5  1  0
  7  2  1  0
  8  6  1  0
  9  8  1  0
 10  9  2  0
 11 10  1  0
 11 12  1  0
 12  8  2  0
 13  1  1  0
 13 18  1  0
 15 14  2  0
 16 15  1  0
 17 16  2  0
 17 18  1  0
 18 19  2  0
 19 14  1  0
 20 21  2  0
 20 16  1  0
 22 21  1  0
 23 24  1  0
 23 22  2  0
 24 20  1  0
  1 25  1  0
  1 26  1  0
  3 27  1  0
  4 28  1  0
  9 29  1  0
 10 30  1  0
 11 31  1  0
 13 32  1  0
 13 33  1  0
 14 34  1  0
 15 35  1  0
 21 36  1  0
 22 37  1  0
 23 38  1  0
M  ISO  8  25   8  26   8  27  14  28  14  29  14  30  14  31   9  32   8
M  ISO  6  33   8  34  14  35  14  36  14  37  14  38  14
M  END
>  <minimizedAffinity>  (1) 
-5.42264318

>  <minimizedRMSD>  (1) 
3.95026517

$$$$
