
     RDKit          3D

 52 56  0  0  0  0  0  0  0  0999 V2000
   38.1930   24.7460   36.7450 C   0  0  0  0  0  0  0  0  0  0  0  0
   39.0460   23.7790   36.1810 C   0  0  0  0  0  0  0  0  0  0  0  0
   39.3750   23.8600   34.8330 C   0  0  0  0  0  0  0  0  0  0  0  0
   38.8400   24.8990   34.1090 N   0  0  0  0  0  0  0  0  0  0  0  0
   38.0340   25.8020   34.6650 C   0  0  0  0  0  0  0  0  0  0  0  0
   37.7070   25.7310   35.9890 N   0  0  0  0  0  0  0  0  0  0  0  0
   37.4740   26.8990   33.8840 C   0  0  0  0  0  0  0  0  0  0  0  0
   36.5950   27.7980   34.4690 C   0  0  0  0  0  0  0  0  0  0  0  0
   36.1210   28.7950   33.6550 C   0  0  0  0  0  0  0  0  0  0  0  0
   36.4380   28.9710   32.3440 N   0  0  0  0  0  0  0  0  0  0  0  0
   37.2950   28.0670   31.8390 C   0  0  0  0  0  0  0  0  0  0  0  0
   37.7840   27.0730   32.5970 N   0  0  0  0  0  0  0  0  0  0  0  0
   37.7420   28.0880   30.4880 N   0  0  0  0  0  0  0  0  0  0  0  0
   37.1150   28.8620   29.4320 C   0  0  0  0  0  0  0  0  0  0  0  0
   38.0870   29.1230   28.3080 C   0  0  0  0  0  0  0  0  0  0  0  0
   39.4850   29.3760   28.7670 C   0  0  0  0  0  0  0  0  0  0  0  0
   39.9770   28.3720   29.7790 C   0  0  0  0  0  0  0  0  0  0  0  0
   38.8780   27.3470   29.9680 C   0  0  0  0  0  0  0  0  0  0  0  0
   40.2540   22.8460   34.2920 C   0  0  0  0  0  0  0  0  0  0  0  0
   39.7710   21.7500   33.5510 C   0  0  0  0  0  0  0  0  0  0  0  0
   40.8920   21.0350   33.2240 N   0  0  0  0  0  0  0  0  0  0  0  0
   41.9580   21.7030   33.7600 C   0  0  0  0  0  0  0  0  0  0  0  0
   41.5960   22.7790   34.3960 N   0  0  0  0  0  0  0  0  0  0  0  0
   42.5190   23.6350   35.0350 C   0  0  0  0  0  0  0  0  0  0  0  0
   43.0790   23.3540   36.2930 C   0  0  0  0  0  0  0  0  0  0  0  0
   43.9740   24.1850   36.9130 C   0  0  0  0  0  0  0  0  0  0  0  0
   44.3680   25.3450   36.3220 C   0  0  0  0  0  0  0  0  0  0  0  0
   43.8570   25.6680   35.1030 C   0  0  0  0  0  0  0  0  0  0  0  0
   42.9610   24.8300   34.4890 C   0  0  0  0  0  0  0  0  0  0  0  0
   42.4740   25.2360   33.2190 N   0  0  0  0  0  0  0  0  0  0  0  0
   37.9269   24.6891   37.8108 H   0  0  0  0  0  0  0  0  0  0  0  0
   39.4491   22.9655   36.8021 H   0  0  0  0  0  0  0  0  0  0  0  0
   36.2954   27.7163   35.5243 H   0  0  0  0  0  0  0  0  0  0  0  0
   35.4219   29.5169   34.1024 H   0  0  0  0  0  0  0  0  0  0  0  0
   36.2520   28.3039   29.0399 H   0  0  0  0  0  0  0  0  0  0  0  0
   36.7906   29.8272   29.8481 H   0  0  0  0  0  0  0  0  0  0  0  0
   37.7410   30.0042   27.7479 H   0  0  0  0  0  0  0  0  0  0  0  0
   38.1125   28.2141   27.6889 H   0  0  0  0  0  0  0  0  0  0  0  0
   40.1503   29.3426   27.8916 H   0  0  0  0  0  0  0  0  0  0  0  0
   39.4910   30.3601   29.2584 H   0  0  0  0  0  0  0  0  0  0  0  0
   40.8897   27.8815   29.4096 H   0  0  0  0  0  0  0  0  0  0  0  0
   40.2171   28.8657   30.7322 H   0  0  0  0  0  0  0  0  0  0  0  0
   38.6225   26.8756   29.0075 H   0  0  0  0  0  0  0  0  0  0  0  0
   39.1853   26.5398   30.6492 H   0  0  0  0  0  0  0  0  0  0  0  0
   38.7268   21.5199   33.2927 H   0  0  0  0  0  0  0  0  0  0  0  0
   43.0017   21.3691   33.6645 H   0  0  0  0  0  0  0  0  0  0  0  0
   42.7852   22.4246   36.8028 H   0  0  0  0  0  0  0  0  0  0  0  0
   44.3782   23.9115   37.8988 H   0  0  0  0  0  0  0  0  0  0  0  0
   45.0876   26.0107   36.8211 H   0  0  0  0  0  0  0  0  0  0  0  0
   44.1627   26.6022   34.6092 H   0  0  0  0  0  0  0  0  0  0  0  0
   42.7953   26.1220   32.8034 H   0  0  0  0  0  0  0  0  0  0  0  0
   41.7993   24.6447   32.7131 H   0  0  0  0  0  0  0  0  0  0  0  0
  2  1  2  0
  3  2  1  0
  4  5  1  0
  4  3  2  0
  5  6  2  0
  6  1  1  0
  7  8  2  0
  7  5  1  0
  9  8  1  0
 10  9  2  0
 11 10  1  0
 11 12  2  0
 12  7  1  0
 13 11  1  0
 14 13  1  0
 15 16  1  0
 15 14  1  0
 16 17  1  0
 17 18  1  0
 18 13  1  0
 19 23  1  0
 19  3  1  0
 20 19  2  0
 21 20  1  0
 21 22  2  0
 22 23  1  0
 23 24  1  0
 24 25  2  0
 25 26  1  0
 27 26  2  0
 28 27  1  0
 29 24  1  0
 29 28  2  0
 30 29  1  0
  1 31  1  0
  2 32  1  0
  8 33  1  0
  9 34  1  0
 14 35  1  0
 14 36  1  0
 15 37  1  0
 15 38  1  0
 16 39  1  0
 16 40  1  0
 17 41  1  0
 17 42  1  0
 18 43  1  0
 18 44  1  0
 20 45  1  0
 22 46  1  0
 25 47  1  0
 26 48  1  0
 27 49  1  0
 28 50  1  0
 30 51  1  0
 30 52  1  0
M  ISO  8  31  14  32  14  33  14  34  14  35  13  36  13  37  13  38  13
M  ISO  8  39  13  40  13  41  13  42  13  43  13  44  13  45  14  46  14
M  ISO  4  47  14  48  14  49  14  50  14
M  END
>  <minimizedAffinity>  (1) 
-5.89571142

>  <minimizedRMSD>  (1) 
1.37378347

$$$$
