
     RDKit          3D

 49 52  0  0  0  0  0  0  0  0999 V2000
   42.0570   22.2100   34.9960 C   0  0  0  0  0  0  0  0  0  0  0  0
   41.9240   21.0180   34.2770 C   0  0  0  0  0  0  0  0  0  0  0  0
   43.1820   20.7380   33.8110 N   0  0  0  0  0  0  0  0  0  0  0  0
   43.9900   21.7410   34.2560 C   0  0  0  0  0  0  0  0  0  0  0  0
   43.3460   22.6250   34.9600 N   0  0  0  0  0  0  0  0  0  0  0  0
   43.9700   23.7580   35.5280 C   0  0  0  0  0  0  0  0  0  0  0  0
   44.5120   23.7670   36.8210 C   0  0  0  0  0  0  0  0  0  0  0  0
   45.1190   24.8690   37.3720 C   0  0  0  0  0  0  0  0  0  0  0  0
   45.2160   26.0250   36.6590 C   0  0  0  0  0  0  0  0  0  0  0  0
   44.7110   26.0860   35.3960 C   0  0  0  0  0  0  0  0  0  0  0  0
   44.1090   24.9790   34.8590 C   0  0  0  0  0  0  0  0  0  0  0  0
   43.6040   25.1030   33.5450 N   0  0  0  0  0  0  0  0  0  0  0  0
   39.4600   22.9500   37.5600 C   0  0  0  0  0  0  0  0  0  0  0  0
   40.5470   22.3490   36.8860 C   0  0  0  0  0  0  0  0  0  0  0  0
   40.9340   22.8540   35.6600 C   0  0  0  0  0  0  0  0  0  0  0  0
   40.2360   23.9210   35.1620 N   0  0  0  0  0  0  0  0  0  0  0  0
   39.2160   24.4750   35.8100 C   0  0  0  0  0  0  0  0  0  0  0  0
   38.8240   23.9850   37.0200 N   0  0  0  0  0  0  0  0  0  0  0  0
   38.4880   25.6090   35.2590 C   0  0  0  0  0  0  0  0  0  0  0  0
   38.2970   26.7470   35.9970 C   0  0  0  0  0  0  0  0  0  0  0  0
   37.6000   27.7640   35.3950 C   0  0  0  0  0  0  0  0  0  0  0  0
   37.0900   27.7350   34.1460 N   0  0  0  0  0  0  0  0  0  0  0  0
   37.3030   26.5950   33.4560 C   0  0  0  0  0  0  0  0  0  0  0  0
   37.9830   25.5790   34.0170 N   0  0  0  0  0  0  0  0  0  0  0  0
   36.7670   26.4810   32.0540 C   0  0  0  0  0  0  0  0  0  0  0  0
   37.8580   26.7100   31.0320 C   0  0  0  0  0  0  0  0  0  0  0  0
   35.7180   27.5690   31.8530 C   0  0  0  0  0  0  0  0  0  0  0  0
   36.1740   25.1280   31.8030 C   0  0  0  0  0  0  0  0  0  0  0  0
   41.0070   20.4313   34.1194 H   0  0  0  0  0  0  0  0  0  0  0  0
   45.0678   21.7969   34.0433 H   0  0  0  0  0  0  0  0  0  0  0  0
   44.4481   22.8482   37.4225 H   0  0  0  0  0  0  0  0  0  0  0  0
   45.5278   24.8176   38.3919 H   0  0  0  0  0  0  0  0  0  0  0  0
   45.7010   26.9072   37.1022 H   0  0  0  0  0  0  0  0  0  0  0  0
   44.7858   27.0154   34.8124 H   0  0  0  0  0  0  0  0  0  0  0  0
   43.1417   24.3011   33.0931 H   0  0  0  0  0  0  0  0  0  0  0  0
   43.6982   25.9953   33.0391 H   0  0  0  0  0  0  0  0  0  0  0  0
   39.1384   22.5593   38.5367 H   0  0  0  0  0  0  0  0  0  0  0  0
   41.0762   21.4931   37.3304 H   0  0  0  0  0  0  0  0  0  0  0  0
   38.6836   26.8410   37.0225 H   0  0  0  0  0  0  0  0  0  0  0  0
   37.4435   28.6818   35.9808 H   0  0  0  0  0  0  0  0  0  0  0  0
   38.8084   26.9095   31.5487 H   0  0  0  0  0  0  0  0  0  0  0  0
   37.9641   25.8145   30.4020 H   0  0  0  0  0  0  0  0  0  0  0  0
   37.5951   27.5725   30.4020 H   0  0  0  0  0  0  0  0  0  0  0  0
   35.3708   27.9291   32.8327 H   0  0  0  0  0  0  0  0  0  0  0  0
   36.1597   28.4048   31.2906 H   0  0  0  0  0  0  0  0  0  0  0  0
   34.8666   27.1581   31.2906 H   0  0  0  0  0  0  0  0  0  0  0  0
   35.9592   24.6378   32.7640 H   0  0  0  0  0  0  0  0  0  0  0  0
   35.2412   25.2370   31.2304 H   0  0  0  0  0  0  0  0  0  0  0  0
   36.8864   24.5159   31.2304 H   0  0  0  0  0  0  0  0  0  0  0  0
  1 15  1  0
  2  1  2  0
  3  4  2  0
  3  2  1  0
  4  5  1  0
  5  1  1  0
  5  6  1  0
  6  7  2  0
  7  8  1  0
  9  8  2  0
 10  9  1  0
 11 10  2  0
 11  6  1  0
 12 11  1  0
 14 13  2  0
 15 14  1  0
 16 15  2  0
 16 17  1  0
 17 18  2  0
 18 13  1  0
 19 17  1  0
 19 20  2  0
 21 20  1  0
 22 21  2  0
 23 24  2  0
 23 22  1  0
 24 19  1  0
 25 23  1  0
 26 25  1  0
 27 25  1  0
 28 25  1  0
  2 29  1  0
  4 30  1  0
  7 31  1  0
  8 32  1  0
  9 33  1  0
 10 34  1  0
 12 35  1  0
 12 36  1  0
 13 37  1  0
 14 38  1  0
 20 39  1  0
 21 40  1  0
 26 41  1  0
 26 42  1  0
 26 43  1  0
 27 44  1  0
 27 45  1  0
 27 46  1  0
 28 47  1  0
 28 48  1  0
 28 49  1  0
M  ISO  8  29  14  30  14  31  14  32  14  33  14  34  14  37  14  38  14
M  ISO  8  39  14  40  14  41   8  42   8  43   8  44   8  45   8  46   8
M  ISO  3  47   8  48   8  49   8
M  END
>  <minimizedAffinity>  (1) 
-5.49486208

>  <minimizedRMSD>  (1) 
2.23369884

$$$$
