
     RDKit          3D

 44 48  0  0  0  0  0  0  0  0999 V2000
   38.1180   24.7850   36.7440 C   0  0  0  0  0  0  0  0  0  0  0  0
   38.9600   23.8030   36.1780 C   0  0  0  0  0  0  0  0  0  0  0  0
   39.2840   23.8890   34.8370 C   0  0  0  0  0  0  0  0  0  0  0  0
   38.7630   24.9400   34.1120 N   0  0  0  0  0  0  0  0  0  0  0  0
   37.9690   25.8520   34.6820 C   0  0  0  0  0  0  0  0  0  0  0  0
   37.6460   25.7770   35.9940 N   0  0  0  0  0  0  0  0  0  0  0  0
   37.4250   26.9640   33.8920 C   0  0  0  0  0  0  0  0  0  0  0  0
   36.5070   27.8210   34.4490 C   0  0  0  0  0  0  0  0  0  0  0  0
   36.0480   28.8370   33.6390 C   0  0  0  0  0  0  0  0  0  0  0  0
   36.4320   29.0420   32.3650 N   0  0  0  0  0  0  0  0  0  0  0  0
   37.3320   28.1780   31.8600 C   0  0  0  0  0  0  0  0  0  0  0  0
   37.8000   27.1730   32.6280 N   0  0  0  0  0  0  0  0  0  0  0  0
   37.8120   28.3150   30.4820 C   0  0  0  0  0  0  0  0  0  0  0  0
   38.9310   27.7450   29.8890 C   0  0  0  0  0  0  0  0  0  0  0  0
   38.9280   28.1990   28.5630 C   0  0  0  0  0  0  0  0  0  0  0  0
   37.8010   29.0190   28.4420 C   0  0  0  0  0  0  0  0  0  0  0  0
   37.1820   29.0520   29.5990 O   0  0  0  0  0  0  0  0  0  0  0  0
   40.1520   22.8650   34.2790 C   0  0  0  0  0  0  0  0  0  0  0  0
   39.6640   21.7820   33.5390 C   0  0  0  0  0  0  0  0  0  0  0  0
   40.7790   21.0580   33.1980 N   0  0  0  0  0  0  0  0  0  0  0  0
   41.8400   21.7090   33.7240 C   0  0  0  0  0  0  0  0  0  0  0  0
   41.5000   22.7920   34.3770 N   0  0  0  0  0  0  0  0  0  0  0  0
   42.4330   23.6350   35.0120 C   0  0  0  0  0  0  0  0  0  0  0  0
   43.1180   23.2650   36.1800 C   0  0  0  0  0  0  0  0  0  0  0  0
   44.0260   24.0820   36.7990 C   0  0  0  0  0  0  0  0  0  0  0  0
   44.3060   25.3270   36.2850 C   0  0  0  0  0  0  0  0  0  0  0  0
   43.6680   25.7330   35.1510 C   0  0  0  0  0  0  0  0  0  0  0  0
   42.7640   24.9050   34.5450 C   0  0  0  0  0  0  0  0  0  0  0  0
   42.1390   25.3910   33.3730 N   0  0  0  0  0  0  0  0  0  0  0  0
   37.8512   24.7294   37.8097 H   0  0  0  0  0  0  0  0  0  0  0  0
   39.3524   22.9814   36.7953 H   0  0  0  0  0  0  0  0  0  0  0  0
   36.1574   27.7026   35.4852 H   0  0  0  0  0  0  0  0  0  0  0  0
   35.3116   29.5337   34.0660 H   0  0  0  0  0  0  0  0  0  0  0  0
   39.6661   27.0768   30.3613 H   0  0  0  0  0  0  0  0  0  0  0  0
   39.6611   27.9597   27.7786 H   0  0  0  0  0  0  0  0  0  0  0  0
   37.4863   29.5475   27.5301 H   0  0  0  0  0  0  0  0  0  0  0  0
   38.6168   21.5598   33.2862 H   0  0  0  0  0  0  0  0  0  0  0  0
   42.8793   21.3655   33.6152 H   0  0  0  0  0  0  0  0  0  0  0  0
   42.9167   22.2758   36.6170 H   0  0  0  0  0  0  0  0  0  0  0  0
   44.5346   23.7408   37.7127 H   0  0  0  0  0  0  0  0  0  0  0  0
   45.0340   25.9851   36.7819 H   0  0  0  0  0  0  0  0  0  0  0  0
   43.8798   26.7245   34.7242 H   0  0  0  0  0  0  0  0  0  0  0  0
   42.3732   26.3280   33.0152 H   0  0  0  0  0  0  0  0  0  0  0  0
   41.4497   24.8079   32.8773 H   0  0  0  0  0  0  0  0  0  0  0  0
  2  1  2  0
  3  2  1  0
  4  5  1  0
  4  3  2  0
  5  6  2  0
  6  1  1  0
  7  8  2  0
  7  5  1  0
  9  8  1  0
 10  9  2  0
 11 10  1  0
 11 12  2  0
 12  7  1  0
 13 11  1  0
 14 13  2  0
 15 14  1  0
 16 15  2  0
 16 17  1  0
 17 13  1  0
 18 22  1  0
 18  3  1  0
 19 18  2  0
 20 19  1  0
 20 21  2  0
 21 22  1  0
 22 23  1  0
 23 24  2  0
 24 25  1  0
 26 25  2  0
 27 26  1  0
 28 23  1  0
 28 27  2  0
 29 28  1  0
  1 30  1  0
  2 31  1  0
  8 32  1  0
  9 33  1  0
 14 34  1  0
 15 35  1  0
 16 36  1  0
 19 37  1  0
 21 38  1  0
 24 39  1  0
 25 40  1  0
 26 41  1  0
 27 42  1  0
 29 43  1  0
 29 44  1  0
M  ISO  8  30  14  31  14  32  14  33  14  34  14  35  14  36  14  37  14
M  ISO  5  38  14  39  14  40  14  41  14  42  14
M  END
>  <minimizedAffinity>  (1) 
-5.47933149

>  <minimizedRMSD>  (1) 
1.39923394

$$$$
