
     RDKit          3D

 44 48  0  0  0  0  0  0  0  0999 V2000
   38.1740   24.8160   36.7090 C   0  0  0  0  0  0  0  0  0  0  0  0
   39.0140   23.8350   36.1470 C   0  0  0  0  0  0  0  0  0  0  0  0
   39.3320   23.9080   34.8080 C   0  0  0  0  0  0  0  0  0  0  0  0
   38.8070   24.9490   34.0640 N   0  0  0  0  0  0  0  0  0  0  0  0
   38.0110   25.8640   34.6300 C   0  0  0  0  0  0  0  0  0  0  0  0
   37.6920   25.8000   35.9530 N   0  0  0  0  0  0  0  0  0  0  0  0
   37.4580   26.9620   33.8430 C   0  0  0  0  0  0  0  0  0  0  0  0
   36.4700   27.7630   34.3520 C   0  0  0  0  0  0  0  0  0  0  0  0
   36.0170   28.7680   33.5360 C   0  0  0  0  0  0  0  0  0  0  0  0
   36.4550   29.0290   32.2920 N   0  0  0  0  0  0  0  0  0  0  0  0
   37.4330   28.2140   31.8220 C   0  0  0  0  0  0  0  0  0  0  0  0
   37.8960   27.2170   32.6080 N   0  0  0  0  0  0  0  0  0  0  0  0
   37.9780   28.3980   30.5080 N   0  0  0  0  0  0  0  0  0  0  0  0
   38.4110   27.4440   29.7300 N   0  0  0  0  0  0  0  0  0  0  0  0
   38.8680   27.9460   28.5440 C   0  0  0  0  0  0  0  0  0  0  0  0
   38.6610   29.3070   28.6940 C   0  0  0  0  0  0  0  0  0  0  0  0
   38.1030   29.6110   29.9180 C   0  0  0  0  0  0  0  0  0  0  0  0
   40.2040   22.8800   34.2590 C   0  0  0  0  0  0  0  0  0  0  0  0
   39.7180   21.7940   33.5070 C   0  0  0  0  0  0  0  0  0  0  0  0
   40.8320   21.0720   33.1820 N   0  0  0  0  0  0  0  0  0  0  0  0
   41.9010   21.7170   33.7250 C   0  0  0  0  0  0  0  0  0  0  0  0
   41.5480   22.7910   34.3670 N   0  0  0  0  0  0  0  0  0  0  0  0
   42.4820   23.6340   35.0190 C   0  0  0  0  0  0  0  0  0  0  0  0
   43.0350   23.3400   36.2680 C   0  0  0  0  0  0  0  0  0  0  0  0
   43.9440   24.1730   36.8890 C   0  0  0  0  0  0  0  0  0  0  0  0
   44.3480   25.3330   36.3050 C   0  0  0  0  0  0  0  0  0  0  0  0
   43.8420   25.6630   35.0970 C   0  0  0  0  0  0  0  0  0  0  0  0
   42.9400   24.8410   34.4750 C   0  0  0  0  0  0  0  0  0  0  0  0
   42.4510   25.2440   33.2140 N   0  0  0  0  0  0  0  0  0  0  0  0
   37.9152   24.7689   37.7771 H   0  0  0  0  0  0  0  0  0  0  0  0
   39.4116   23.0200   36.7696 H   0  0  0  0  0  0  0  0  0  0  0  0
   36.0617   27.6083   35.3616 H   0  0  0  0  0  0  0  0  0  0  0  0
   35.2247   29.4185   33.9349 H   0  0  0  0  0  0  0  0  0  0  0  0
   39.2934   27.4050   27.6859 H   0  0  0  0  0  0  0  0  0  0  0  0
   38.9117   30.0560   27.9284 H   0  0  0  0  0  0  0  0  0  0  0  0
   37.8268   30.5979   30.3177 H   0  0  0  0  0  0  0  0  0  0  0  0
   38.6736   21.5750   33.2401 H   0  0  0  0  0  0  0  0  0  0  0  0
   42.9407   21.3703   33.6315 H   0  0  0  0  0  0  0  0  0  0  0  0
   42.7351   22.4110   36.7749 H   0  0  0  0  0  0  0  0  0  0  0  0
   44.3485   23.8938   37.8731 H   0  0  0  0  0  0  0  0  0  0  0  0
   45.0733   25.9901   36.8071 H   0  0  0  0  0  0  0  0  0  0  0  0
   44.1562   26.5977   34.6096 H   0  0  0  0  0  0  0  0  0  0  0  0
   42.7739   26.1277   32.7948 H   0  0  0  0  0  0  0  0  0  0  0  0
   41.7712   24.6544   32.7128 H   0  0  0  0  0  0  0  0  0  0  0  0
  2  1  2  0
  3  2  1  0
  4  5  1  0
  4  3  2  0
  5  6  2  0
  6  1  1  0
  7  8  2  0
  7  5  1  0
  9  8  1  0
 10  9  2  0
 11 10  1  0
 11 12  2  0
 12  7  1  0
 13 11  1  0
 14 13  1  0
 15 16  1  0
 15 14  2  0
 16 17  2  0
 17 13  1  0
 18 22  1  0
 18  3  1  0
 19 18  2  0
 20 19  1  0
 20 21  2  0
 21 22  1  0
 22 23  1  0
 23 24  2  0
 24 25  1  0
 26 25  2  0
 27 26  1  0
 28 23  1  0
 28 27  2  0
 29 28  1  0
  1 30  1  0
  2 31  1  0
  8 32  1  0
  9 33  1  0
 15 34  1  0
 16 35  1  0
 17 36  1  0
 19 37  1  0
 21 38  1  0
 24 39  1  0
 25 40  1  0
 26 41  1  0
 27 42  1  0
 29 43  1  0
 29 44  1  0
M  ISO  8  30  14  31  14  32  14  33  14  34  14  35  14  36  14  37  14
M  ISO  5  38  14  39  14  40  14  41  14  42  14
M  END
>  <minimizedAffinity>  (1) 
-5.39349318

>  <minimizedRMSD>  (1) 
1.45712698

$$$$
