
     RDKit          3D

 38 41  0  0  0  0  0  0  0  0999 V2000
   39.9800   22.7800   34.1510 C   0  0  0  0  0  0  0  0  0  0  0  0
   39.4660   21.7080   33.4040 C   0  0  0  0  0  0  0  0  0  0  0  0
   40.5740   20.9650   33.0700 N   0  0  0  0  0  0  0  0  0  0  0  0
   41.6520   21.6040   33.6120 C   0  0  0  0  0  0  0  0  0  0  0  0
   41.3130   22.6840   34.2580 N   0  0  0  0  0  0  0  0  0  0  0  0
   42.2570   23.5080   34.9000 C   0  0  0  0  0  0  0  0  0  0  0  0
   42.8330   23.1840   36.1470 C   0  0  0  0  0  0  0  0  0  0  0  0
   43.7550   23.9860   36.7750 C   0  0  0  0  0  0  0  0  0  0  0  0
   44.1600   25.1580   36.2070 C   0  0  0  0  0  0  0  0  0  0  0  0
   43.6380   25.5220   35.0060 C   0  0  0  0  0  0  0  0  0  0  0  0
   42.7190   24.7070   34.3920 C   0  0  0  0  0  0  0  0  0  0  0  0
   42.2140   25.1520   33.1350 N   0  0  0  0  0  0  0  0  0  0  0  0
   38.1130   24.8240   36.6430 C   0  0  0  0  0  0  0  0  0  0  0  0
   38.9390   23.8330   36.0770 C   0  0  0  0  0  0  0  0  0  0  0  0
   39.1190   23.8200   34.7060 C   0  0  0  0  0  0  0  0  0  0  0  0
   38.4800   24.7820   33.9510 N   0  0  0  0  0  0  0  0  0  0  0  0
   37.7030   25.7080   34.5280 C   0  0  0  0  0  0  0  0  0  0  0  0
   37.5180   25.7310   35.8720 N   0  0  0  0  0  0  0  0  0  0  0  0
   37.0330   26.7200   33.7130 C   0  0  0  0  0  0  0  0  0  0  0  0
   36.6380   27.9140   34.2760 C   0  0  0  0  0  0  0  0  0  0  0  0
   36.0170   28.8100   33.4420 C   0  0  0  0  0  0  0  0  0  0  0  0
   35.7680   28.6100   32.1340 N   0  0  0  0  0  0  0  0  0  0  0  0
   36.1750   27.4200   31.6190 C   0  0  0  0  0  0  0  0  0  0  0  0
   36.7850   26.5280   32.4140 N   0  0  0  0  0  0  0  0  0  0  0  0
   36.0390   26.9690   30.3010 O   0  0  0  0  0  0  0  0  0  0  0  0
   38.4158   21.5079   33.1449 H   0  0  0  0  0  0  0  0  0  0  0  0
   42.6882   21.2480   33.5146 H   0  0  0  0  0  0  0  0  0  0  0  0
   42.5302   22.2475   36.6381 H   0  0  0  0  0  0  0  0  0  0  0  0
   44.1709   23.6796   37.7462 H   0  0  0  0  0  0  0  0  0  0  0  0
   44.8974   25.7985   36.7129 H   0  0  0  0  0  0  0  0  0  0  0  0
   43.9496   26.4630   34.5291 H   0  0  0  0  0  0  0  0  0  0  0  0
   42.5421   26.0423   32.7342 H   0  0  0  0  0  0  0  0  0  0  0  0
   41.5211   24.5832   32.6278 H   0  0  0  0  0  0  0  0  0  0  0  0
   37.9585   24.8483   37.7318 H   0  0  0  0  0  0  0  0  0  0  0  0
   39.4316   23.0835   36.7138 H   0  0  0  0  0  0  0  0  0  0  0  0
   36.8114   28.1376   35.3390 H   0  0  0  0  0  0  0  0  0  0  0  0
   35.6971   29.7683   33.8771 H   0  0  0  0  0  0  0  0  0  0  0  0
   36.3790   26.0748   30.0462 H   0  0  0  0  0  0  0  0  0  0  0  0
  1  5  1  0
  1 15  1  0
  2  1  2  0
  3  2  1  0
  3  4  2  0
  4  5  1  0
  5  6  1  0
  6  7  2  0
  7  8  1  0
  9  8  2  0
 10  9  1  0
 11  6  1  0
 11 10  2  0
 12 11  1  0
 14 13  2  0
 15 14  1  0
 16 17  1  0
 16 15  2  0
 17 18  2  0
 18 13  1  0
 19 20  2  0
 19 17  1  0
 21 20  1  0
 22 21  2  0
 23 22  1  0
 23 24  2  0
 24 19  1  0
 25 23  1  0
  2 26  1  0
  4 27  1  0
  7 28  1  0
  8 29  1  0
  9 30  1  0
 10 31  1  0
 12 32  1  0
 12 33  1  0
 13 34  1  0
 14 35  1  0
 20 36  1  0
 21 37  1  0
 25 38  1  0
M  ISO  8  26  14  27  14  28  14  29  14  30  14  31  14  34  14  35  14
M  ISO  3  36  14  37  14  38   3
M  END
>  <minimizedAffinity>  (1) 
-5.36425924

>  <minimizedRMSD>  (1) 
0.100076154

$$$$
