
     RDKit          3D

 39 42  0  0  0  0  0  0  0  0999 V2000
   40.8090   22.5170   34.4440 C   0  0  0  0  0  0  0  0  0  0  0  0
   40.4790   21.4090   33.6650 C   0  0  0  0  0  0  0  0  0  0  0  0
   41.6720   20.8890   33.2550 N   0  0  0  0  0  0  0  0  0  0  0  0
   42.6440   21.6890   33.7940 C   0  0  0  0  0  0  0  0  0  0  0  0
   42.1460   22.6650   34.5050 N   0  0  0  0  0  0  0  0  0  0  0  0
   42.9550   23.6180   35.1570 C   0  0  0  0  0  0  0  0  0  0  0  0
   43.5060   23.4190   36.4230 C   0  0  0  0  0  0  0  0  0  0  0  0
   44.2930   24.3450   37.0590 C   0  0  0  0  0  0  0  0  0  0  0  0
   44.5750   25.5320   36.4620 C   0  0  0  0  0  0  0  0  0  0  0  0
   44.0680   25.7890   35.2270 C   0  0  0  0  0  0  0  0  0  0  0  0
   43.2850   24.8550   34.6040 C   0  0  0  0  0  0  0  0  0  0  0  0
   42.7900   25.1840   33.3200 N   0  0  0  0  0  0  0  0  0  0  0  0
   38.5660   23.9440   37.0580 C   0  0  0  0  0  0  0  0  0  0  0  0
   39.5330   23.1500   36.4120 C   0  0  0  0  0  0  0  0  0  0  0  0
   39.8000   23.3610   35.0780 C   0  0  0  0  0  0  0  0  0  0  0  0
   39.1070   24.3490   34.4220 N   0  0  0  0  0  0  0  0  0  0  0  0
   38.1890   25.0890   35.0700 C   0  0  0  0  0  0  0  0  0  0  0  0
   37.9210   24.8860   36.3800 N   0  0  0  0  0  0  0  0  0  0  0  0
   37.4550   26.1410   34.3590 C   0  0  0  0  0  0  0  0  0  0  0  0
   37.1830   27.3340   34.9890 C   0  0  0  0  0  0  0  0  0  0  0  0
   36.4880   28.2680   34.2480 C   0  0  0  0  0  0  0  0  0  0  0  0
   36.0650   28.1070   32.9860 N   0  0  0  0  0  0  0  0  0  0  0  0
   36.3590   26.9190   32.4160 C   0  0  0  0  0  0  0  0  0  0  0  0
   37.0320   25.9810   33.0990 N   0  0  0  0  0  0  0  0  0  0  0  0
   35.9450   26.6550   31.0620 C   0  0  0  0  0  0  0  0  0  0  0  0
   35.1940   25.7200   30.6860 O   0  0  0  0  0  0  0  0  0  0  0  0
   39.4718   21.0340   33.4308 H   0  0  0  0  0  0  0  0  0  0  0  0
   43.7219   21.5279   33.6451 H   0  0  0  0  0  0  0  0  0  0  0  0
   43.2984   22.4696   36.9383 H   0  0  0  0  0  0  0  0  0  0  0  0
   44.6979   24.1252   38.0579 H   0  0  0  0  0  0  0  0  0  0  0  0
   45.2055   26.2758   36.9712 H   0  0  0  0  0  0  0  0  0  0  0  0
   44.2865   26.7454   34.7295 H   0  0  0  0  0  0  0  0  0  0  0  0
   43.0232   26.0930   32.8955 H   0  0  0  0  0  0  0  0  0  0  0  0
   42.1964   24.5145   32.8098 H   0  0  0  0  0  0  0  0  0  0  0  0
   38.3451   23.7840   38.1236 H   0  0  0  0  0  0  0  0  0  0  0  0
   40.0704   22.3679   36.9684 H   0  0  0  0  0  0  0  0  0  0  0  0
   37.5012   27.5316   36.0233 H   0  0  0  0  0  0  0  0  0  0  0  0
   36.2614   29.2279   34.7351 H   0  0  0  0  0  0  0  0  0  0  0  0
   36.3214   27.3355   30.2840 H   0  0  0  0  0  0  0  0  0  0  0  0
  1  5  1  0
  1 15  1  0
  2  1  2  0
  3  2  1  0
  3  4  2  0
  4  5  1  0
  5  6  1  0
  6  7  2  0
  7  8  1  0
  9  8  2  0
 10  9  1  0
 11  6  1  0
 11 10  2  0
 12 11  1  0
 14 13  2  0
 15 14  1  0
 16 17  1  0
 16 15  2  0
 17 18  2  0
 18 13  1  0
 19 20  2  0
 19 17  1  0
 21 20  1  0
 22 21  2  0
 23 22  1  0
 23 24  2  0
 24 19  1  0
 25 23  1  0
 26 25  2  0
  2 27  1  0
  4 28  1  0
  7 29  1  0
  8 30  1  0
  9 31  1  0
 10 32  1  0
 12 33  1  0
 12 34  1  0
 13 35  1  0
 14 36  1  0
 20 37  1  0
 21 38  1  0
 25 39  1  0
M  ISO  8  27  14  28  14  29  14  30  14  31  14  32  14  35  14  36  14
M  ISO  3  37  14  38  14  39   6
M  END
>  <minimizedAffinity>  (1) 
-5.08507824

>  <minimizedRMSD>  (1) 
0.885971725

$$$$
