
     RDKit          3D

 39 42  0  0  0  0  0  0  0  0999 V2000
   39.9820   22.9950   37.3650 C   0  0  0  0  0  0  0  0  0  0  0  0
   39.2070   23.1420   38.5420 C   0  0  0  0  0  0  0  0  0  0  0  0
   37.9470   23.7650   38.3880 C   0  0  0  0  0  0  0  0  0  0  0  0
   37.5370   24.1880   37.1620 N   0  0  0  0  0  0  0  0  0  0  0  0
   38.3240   24.0200   36.0710 C   0  0  0  0  0  0  0  0  0  0  0  0
   39.5320   23.4290   36.1770 N   0  0  0  0  0  0  0  0  0  0  0  0
   37.9410   24.4450   34.7640 N   0  0  0  0  0  0  0  0  0  0  0  0
   37.9960   23.6180   33.7080 C   0  0  0  0  0  0  0  0  0  0  0  0
   37.5690   24.3110   32.6140 N   0  0  0  0  0  0  0  0  0  0  0  0
   37.2490   25.5590   32.9810 C   0  0  0  0  0  0  0  0  0  0  0  0
   36.7700   26.7210   32.3800 C   0  0  0  0  0  0  0  0  0  0  0  0
   36.5430   26.6860   31.1510 O   0  0  0  0  0  0  0  0  0  0  0  0
   36.5620   27.8340   33.1100 N   0  0  0  0  0  0  0  0  0  0  0  0
   36.8040   27.8760   34.4400 C   0  0  0  0  0  0  0  0  0  0  0  0
   36.5260   29.1370   35.0640 N   0  0  0  0  0  0  0  0  0  0  0  0
   37.2730   26.7590   35.0640 N   0  0  0  0  0  0  0  0  0  0  0  0
   37.4830   25.6540   34.3510 C   0  0  0  0  0  0  0  0  0  0  0  0
   34.9770   30.9410   30.7170 N   0  0  0  0  0  0  0  0  0  0  0  0
   34.2050   30.4480   31.8040 C   0  0  0  0  0  0  0  0  0  0  0  0
   34.5740   29.0590   32.2790 C   0  0  0  0  0  0  0  0  0  0  0  0
   36.0660   28.9860   32.4070 C   0  0  0  0  0  0  0  0  0  0  0  0
   36.6410   29.2410   31.0580 C   0  0  0  0  0  0  0  0  0  0  0  0
   36.4050   30.7450   30.8160 C   0  0  0  0  0  0  0  0  0  0  0  0
   40.9706   22.5165   37.4258 H   0  0  0  0  0  0  0  0  0  0  0  0
   39.5655   22.7911   39.5209 H   0  0  0  0  0  0  0  0  0  0  0  0
   37.2959   23.9081   39.2630 H   0  0  0  0  0  0  0  0  0  0  0  0
   38.3264   22.5689   33.7226 H   0  0  0  0  0  0  0  0  0  0  0  0
   36.6822   29.2569   36.0750 H   0  0  0  0  0  0  0  0  0  0  0  0
   36.1701   29.9228   34.5012 H   0  0  0  0  0  0  0  0  0  0  0  0
   34.8022   31.9531   30.6394 H   0  0  0  0  0  0  0  0  0  0  0  0
   34.3272   31.1405   32.6499 H   0  0  0  0  0  0  0  0  0  0  0  0
   33.1701   30.3803   31.4374 H   0  0  0  0  0  0  0  0  0  0  0  0
   34.1069   28.8636   33.2555 H   0  0  0  0  0  0  0  0  0  0  0  0
   34.2180   28.3058   31.5607 H   0  0  0  0  0  0  0  0  0  0  0  0
   36.4232   29.7728   33.0876 H   0  0  0  0  0  0  0  0  0  0  0  0
   37.7161   29.0088   31.0433 H   0  0  0  0  0  0  0  0  0  0  0  0
   36.1786   28.6146   30.2809 H   0  0  0  0  0  0  0  0  0  0  0  0
   36.8944   31.0581   29.8819 H   0  0  0  0  0  0  0  0  0  0  0  0
   36.8262   31.3442   31.6367 H   0  0  0  0  0  0  0  0  0  0  0  0
  1  2  2  0
  3  2  1  0
  4  3  2  0
  5  6  2  0
  5  4  1  0
  6  1  1  0
  7  5  1  0
  8  7  1  0
  9 10  1  0
  9  8  2  0
 10 17  2  0
 11 10  1  0
 11 13  1  0
 12 11  2  0
 13 14  1  0
 14 16  2  0
 14 15  1  0
 17  7  1  0
 17 16  1  0
 18 23  1  0
 18 19  1  0
 19 20  1  0
 20 21  1  0
 21 13  1  0
 22 21  1  0
 23 22  1  0
  1 24  1  0
  2 25  1  0
  3 26  1  0
  8 27  1  0
 15 28  1  0
 15 29  1  0
 18 30  1  0
 19 31  1  0
 19 32  1  0
 20 33  1  0
 20 34  1  0
 21 35  1  0
 22 36  1  0
 22 37  1  0
 23 38  1  0
 23 39  1  0
M  ISO  8  24  14  25  14  26  14  27  14  30   5  31  13  32  13  33  13
M  ISO  6  34  13  35  13  36  13  37  13  38  13  39  13
M  END
>  <minimizedAffinity>  (1) 
-5.9960537

>  <minimizedRMSD>  (1) 
2.21251559

$$$$
