
     RDKit          3D

 34 37  0  0  0  0  0  0  0  0999 V2000
   40.0730   23.0140   36.9100 C   0  0  0  0  0  0  0  0  0  0  0  0
   39.3820   23.1110   38.1320 C   0  0  0  0  0  0  0  0  0  0  0  0
   38.1300   23.7330   38.0970 C   0  0  0  0  0  0  0  0  0  0  0  0
   37.6370   24.2080   36.9160 N   0  0  0  0  0  0  0  0  0  0  0  0
   38.3470   24.0900   35.7530 C   0  0  0  0  0  0  0  0  0  0  0  0
   39.5400   23.5000   35.7750 N   0  0  0  0  0  0  0  0  0  0  0  0
   37.8760   24.5680   34.5090 N   0  0  0  0  0  0  0  0  0  0  0  0
   37.8800   23.7920   33.4090 C   0  0  0  0  0  0  0  0  0  0  0  0
   37.3710   24.5260   32.3790 N   0  0  0  0  0  0  0  0  0  0  0  0
   37.0500   25.7470   32.8130 C   0  0  0  0  0  0  0  0  0  0  0  0
   36.5130   26.9290   32.3060 C   0  0  0  0  0  0  0  0  0  0  0  0
   36.2160   26.9170   31.0730 O   0  0  0  0  0  0  0  0  0  0  0  0
   36.3320   28.0130   33.1160 N   0  0  0  0  0  0  0  0  0  0  0  0
   36.6550   27.9910   34.4080 C   0  0  0  0  0  0  0  0  0  0  0  0
   36.3930   29.2140   35.0880 N   0  0  0  0  0  0  0  0  0  0  0  0
   37.1820   26.8550   34.9440 N   0  0  0  0  0  0  0  0  0  0  0  0
   37.3710   25.7740   34.1650 C   0  0  0  0  0  0  0  0  0  0  0  0
   35.7690   29.1320   32.4180 C   0  0  0  0  0  0  0  0  0  0  0  0
   36.5100   29.9740   31.6130 C   0  0  0  0  0  0  0  0  0  0  0  0
   35.8840   31.0460   30.9650 C   0  0  0  0  0  0  0  0  0  0  0  0
   34.5100   31.2100   31.1760 C   0  0  0  0  0  0  0  0  0  0  0  0
   33.7480   30.3770   31.9800 C   0  0  0  0  0  0  0  0  0  0  0  0
   34.4150   29.3190   32.6060 C   0  0  0  0  0  0  0  0  0  0  0  0
   41.0625   22.5342   36.8828 H   0  0  0  0  0  0  0  0  0  0  0  0
   39.8054   22.7173   39.0678 H   0  0  0  0  0  0  0  0  0  0  0  0
   37.5426   23.8395   39.0209 H   0  0  0  0  0  0  0  0  0  0  0  0
   38.2313   22.7512   33.3515 H   0  0  0  0  0  0  0  0  0  0  0  0
   36.6074   29.3014   36.0917 H   0  0  0  0  0  0  0  0  0  0  0  0
   35.9891   30.0115   34.5763 H   0  0  0  0  0  0  0  0  0  0  0  0
   37.5886   29.8033   31.4811 H   0  0  0  0  0  0  0  0  0  0  0  0
   36.4492   31.7315   30.3164 H   0  0  0  0  0  0  0  0  0  0  0  0
   34.0055   32.0490   30.6744 H   0  0  0  0  0  0  0  0  0  0  0  0
   32.6691   30.5403   32.1192 H   0  0  0  0  0  0  0  0  0  0  0  0
   33.8547   28.6294   33.2545 H   0  0  0  0  0  0  0  0  0  0  0  0
  1  2  2  0
  3  2  1  0
  4  3  2  0
  5  6  2  0
  5  4  1  0
  6  1  1  0
  7  5  1  0
  8  7  1  0
  9 10  1  0
  9  8  2  0
 10 17  2  0
 11 10  1  0
 11 13  1  0
 12 11  2  0
 13 14  1  0
 14 16  2  0
 14 15  1  0
 17  7  1  0
 17 16  1  0
 18 23  1  0
 18 13  1  0
 19 18  2  0
 20 21  2  0
 20 19  1  0
 21 22  1  0
 22 23  2  0
  1 24  1  0
  2 25  1  0
  3 26  1  0
  8 27  1  0
 15 28  1  0
 15 29  1  0
 19 30  1  0
 20 31  1  0
 21 32  1  0
 22 33  1  0
 23 34  1  0
M  ISO  8  24  14  25  14  26  14  27  14  30  14  31  14  32  14  33  14
M  ISO  1  34  14
M  END
>  <minimizedAffinity>  (1) 
-5.80411434

>  <minimizedRMSD>  (1) 
2.59115434

$$$$
