
     RDKit          3D

 27 29  0  0  0  0  0  0  0  0999 V2000
   39.9900   23.0280   37.3670 C   0  0  0  0  0  0  0  0  0  0  0  0
   39.1540   23.1730   38.4920 C   0  0  0  0  0  0  0  0  0  0  0  0
   37.8720   23.7380   38.2820 C   0  0  0  0  0  0  0  0  0  0  0  0
   37.5050   24.1100   37.0250 N   0  0  0  0  0  0  0  0  0  0  0  0
   38.3610   23.9430   35.9710 C   0  0  0  0  0  0  0  0  0  0  0  0
   39.5700   23.4150   36.1480 N   0  0  0  0  0  0  0  0  0  0  0  0
   37.9960   24.3230   34.6490 N   0  0  0  0  0  0  0  0  0  0  0  0
   38.1410   23.4570   33.6150 C   0  0  0  0  0  0  0  0  0  0  0  0
   37.7100   24.0940   32.4780 N   0  0  0  0  0  0  0  0  0  0  0  0
   37.3070   25.3230   32.7910 C   0  0  0  0  0  0  0  0  0  0  0  0
   36.7760   26.4480   32.1360 C   0  0  0  0  0  0  0  0  0  0  0  0
   36.6040   26.3420   30.8970 O   0  0  0  0  0  0  0  0  0  0  0  0
   36.4810   27.5780   32.8540 N   0  0  0  0  0  0  0  0  0  0  0  0
   36.6750   27.6580   34.1690 C   0  0  0  0  0  0  0  0  0  0  0  0
   36.3060   28.9140   34.7080 N   0  0  0  0  0  0  0  0  0  0  0  0
   37.1870   26.5840   34.8260 N   0  0  0  0  0  0  0  0  0  0  0  0
   37.4850   25.4740   34.1630 C   0  0  0  0  0  0  0  0  0  0  0  0
   35.9420   28.6480   32.0250 C   0  0  0  0  0  0  0  0  0  0  0  0
   34.5670   28.7780   32.2390 F   0  0  0  0  0  0  0  0  0  0  0  0
   36.0690   28.3140   30.6690 F   0  0  0  0  0  0  0  0  0  0  0  0
   36.6080   29.8260   32.1810 F   0  0  0  0  0  0  0  0  0  0  0  0
   40.9942   22.5950   37.4859 H   0  0  0  0  0  0  0  0  0  0  0  0
   39.4838   22.8599   39.4936 H   0  0  0  0  0  0  0  0  0  0  0  0
   37.1801   23.8747   39.1261 H   0  0  0  0  0  0  0  0  0  0  0  0
   38.5327   22.4309   33.6765 H   0  0  0  0  0  0  0  0  0  0  0  0
   36.4118   29.0926   35.7169 H   0  0  0  0  0  0  0  0  0  0  0  0
   35.9317   29.6492   34.0913 H   0  0  0  0  0  0  0  0  0  0  0  0
  1  2  2  0
  3  2  1  0
  4  3  2  0
  5  6  2  0
  5  4  1  0
  6  1  1  0
  7  5  1  0
  8  7  1  0
  9 10  1  0
  9  8  2  0
 10 17  2  0
 11 10  1  0
 11 13  1  0
 12 11  2  0
 13 14  1  0
 14 15  1  0
 14 16  2  0
 17  7  1  0
 17 16  1  0
 18 21  1  0
 18 19  1  0
 18 13  1  0
 20 18  1  0
  1 22  1  0
  2 23  1  0
  3 24  1  0
  8 25  1  0
 15 26  1  0
 15 27  1  0
M  ISO  4  22  14  23  14  24  14  25  14
M  END
>  <minimizedAffinity>  (1) 
-5.57204819

>  <minimizedRMSD>  (1) 
1.70742285

$$$$
