
     RDKit          3D

 32 34  0  0  0  0  0  0  0  0999 V2000
   40.1880   26.4160   34.9180 C   0  0  0  0  0  0  0  0  0  0  0  0
   38.9580   26.9890   34.2990 C   0  0  0  0  0  0  0  0  0  0  0  0
   37.8850   27.3250   35.1000 C   0  0  0  0  0  0  0  0  0  0  0  0
   36.6890   27.8650   34.6310 C   0  0  0  0  0  0  0  0  0  0  0  0
   36.6010   28.0660   33.2890 N   0  0  0  0  0  0  0  0  0  0  0  0
   37.6540   27.7390   32.4890 C   0  0  0  0  0  0  0  0  0  0  0  0
   38.8090   27.2090   32.9990 N   0  0  0  0  0  0  0  0  0  0  0  0
   37.5980   27.9370   31.0490 C   0  0  0  0  0  0  0  0  0  0  0  0
   38.7510   28.1620   30.3200 C   0  0  0  0  0  0  0  0  0  0  0  0
   38.3690   28.3130   28.9750 C   0  0  0  0  0  0  0  0  0  0  0  0
   37.0260   28.1760   28.9460 N   0  0  0  0  0  0  0  0  0  0  0  0
   36.5620   27.9550   30.1650 N   0  0  0  0  0  0  0  0  0  0  0  0
   40.5090   25.0440   34.3700 C   0  0  0  0  0  0  0  0  0  0  0  0
   41.7420   22.5320   36.8430 C   0  0  0  0  0  0  0  0  0  0  0  0
   40.5760   22.3120   37.6000 C   0  0  0  0  0  0  0  0  0  0  0  0
   39.4160   23.0030   37.2670 C   0  0  0  0  0  0  0  0  0  0  0  0
   39.4520   23.8680   36.2210 N   0  0  0  0  0  0  0  0  0  0  0  0
   40.6010   24.0610   35.5020 C   0  0  0  0  0  0  0  0  0  0  0  0
   41.7170   23.4030   35.8150 N   0  0  0  0  0  0  0  0  0  0  0  0
   38.2920   22.7660   38.0250 O   0  0  0  0  0  0  0  0  0  0  0  0
   41.0349   27.0876   34.7135 H   0  0  0  0  0  0  0  0  0  0  0  0
   40.0113   26.3181   35.9993 H   0  0  0  0  0  0  0  0  0  0  0  0
   37.9806   27.1548   36.1825 H   0  0  0  0  0  0  0  0  0  0  0  0
   35.8605   28.1152   35.3100 H   0  0  0  0  0  0  0  0  0  0  0  0
   39.7754   28.2133   30.7176 H   0  0  0  0  0  0  0  0  0  0  0  0
   39.0316   28.5044   28.1181 H   0  0  0  0  0  0  0  0  0  0  0  0
   36.4461   28.2351   28.0968 H   0  0  0  0  0  0  0  0  0  0  0  0
   39.7145   24.7312   33.6765 H   0  0  0  0  0  0  0  0  0  0  0  0
   41.4699   25.0785   33.8357 H   0  0  0  0  0  0  0  0  0  0  0  0
   42.6699   21.9952   37.0895 H   0  0  0  0  0  0  0  0  0  0  0  0
   40.5822   21.6043   38.4421 H   0  0  0  0  0  0  0  0  0  0  0  0
   37.4471   23.2389   37.8187 H   0  0  0  0  0  0  0  0  0  0  0  0
  2  1  1  0
  2  3  2  0
  4  3  1  0
  5  4  2  0
  6  7  2  0
  6  5  1  0
  7  2  1  0
  8  6  1  0
  9  8  1  0
 10  9  2  0
 11 10  1  0
 11 12  1  0
 12  8  2  0
 13  1  1  0
 13 18  1  0
 14 15  2  0
 16 15  1  0
 16 20  1  0
 17 16  2  0
 18 19  2  0
 18 17  1  0
 19 14  1  0
  1 21  1  0
  1 22  1  0
  3 23  1  0
  4 24  1  0
  9 25  1  0
 10 26  1  0
 11 27  1  0
 13 28  1  0
 13 29  1  0
 14 30  1  0
 15 31  1  0
 20 32  1  0
M  ISO  8  21   8  22   8  23  14  24  14  25  14  26  14  27   9  28   8
M  ISO  4  29   8  30  14  31  14  32   3
M  END
>  <minimizedAffinity>  (1) 
-5.30478287

>  <minimizedRMSD>  (1) 
1.41882133

$$$$
