
     RDKit          3D

 27 29  0  0  0  0  0  0  0  0999 V2000
   39.8830   22.8540   37.8420 C   0  0  0  0  0  0  0  0  0  0  0  0
   39.0710   23.4170   38.8390 C   0  0  0  0  0  0  0  0  0  0  0  0
   37.8790   24.0190   38.4240 C   0  0  0  0  0  0  0  0  0  0  0  0
   37.5620   24.0350   37.1040 N   0  0  0  0  0  0  0  0  0  0  0  0
   38.3720   23.4810   36.1700 C   0  0  0  0  0  0  0  0  0  0  0  0
   39.5110   22.9040   36.5510 N   0  0  0  0  0  0  0  0  0  0  0  0
   38.0740   23.4780   34.7820 N   0  0  0  0  0  0  0  0  0  0  0  0
   38.1550   22.3480   34.0510 C   0  0  0  0  0  0  0  0  0  0  0  0
   37.8150   22.6520   32.7660 N   0  0  0  0  0  0  0  0  0  0  0  0
   37.5240   23.9500   32.6880 C   0  0  0  0  0  0  0  0  0  0  0  0
   37.1210   24.8690   31.7160 C   0  0  0  0  0  0  0  0  0  0  0  0
   36.9660   24.4160   30.5510 O   0  0  0  0  0  0  0  0  0  0  0  0
   36.9170   26.1780   32.0530 N   0  0  0  0  0  0  0  0  0  0  0  0
   37.0880   26.6320   33.2940 C   0  0  0  0  0  0  0  0  0  0  0  0
   36.8270   28.0240   33.4460 N   0  0  0  0  0  0  0  0  0  0  0  0
   37.4790   25.7620   34.2620 N   0  0  0  0  0  0  0  0  0  0  0  0
   37.6850   24.4830   33.9610 C   0  0  0  0  0  0  0  0  0  0  0  0
   36.4960   27.0330   30.9340 C   0  0  0  0  0  0  0  0  0  0  0  0
   40.8304   22.3685   38.1189 H   0  0  0  0  0  0  0  0  0  0  0  0
   39.3596   23.3860   39.9000 H   0  0  0  0  0  0  0  0  0  0  0  0
   37.2031   24.4762   39.1617 H   0  0  0  0  0  0  0  0  0  0  0  0
   38.4446   21.3551   34.4255 H   0  0  0  0  0  0  0  0  0  0  0  0
   36.9313   28.4698   34.3687 H   0  0  0  0  0  0  0  0  0  0  0  0
   36.5340   28.5848   32.6333 H   0  0  0  0  0  0  0  0  0  0  0  0
   36.0422   27.9546   31.3273 H   0  0  0  0  0  0  0  0  0  0  0  0
   37.3711   27.2889   30.3186 H   0  0  0  0  0  0  0  0  0  0  0  0
   35.7596   26.4954   30.3186 H   0  0  0  0  0  0  0  0  0  0  0  0
  1  2  2  0
  3  2  1  0
  4  3  2  0
  5  6  2  0
  5  4  1  0
  6  1  1  0
  7  5  1  0
  8  7  1  0
  9  8  2  0
 10  9  1  0
 10 17  2  0
 11 13  1  0
 11 10  1  0
 12 11  2  0
 13 14  1  0
 14 15  1  0
 14 16  2  0
 17 16  1  0
 17  7  1  0
 18 13  1  0
  1 19  1  0
  2 20  1  0
  3 21  1  0
  8 22  1  0
 15 23  1  0
 15 24  1  0
 18 25  1  0
 18 26  1  0
 18 27  1  0
M  ISO  7  19  14  20  14  21  14  22  14  25   8  26   8  27   8
M  END
>  <minimizedAffinity>  (1) 
-5.07051897

>  <minimizedRMSD>  (1) 
0.253131539

$$$$
