
     RDKit          3D

 44 48  0  0  0  0  0  0  0  0999 V2000
   39.9680   22.9440   37.3890 C   0  0  0  0  0  0  0  0  0  0  0  0
   39.1600   23.1160   38.5280 C   0  0  0  0  0  0  0  0  0  0  0  0
   37.9100   23.7220   38.3190 C   0  0  0  0  0  0  0  0  0  0  0  0
   37.5370   24.1090   37.0680 N   0  0  0  0  0  0  0  0  0  0  0  0
   38.3550   23.9200   36.0040 C   0  0  0  0  0  0  0  0  0  0  0  0
   39.5560   23.3430   36.1700 N   0  0  0  0  0  0  0  0  0  0  0  0
   37.9960   24.3090   34.6970 N   0  0  0  0  0  0  0  0  0  0  0  0
   38.1090   23.4390   33.6560 C   0  0  0  0  0  0  0  0  0  0  0  0
   37.6910   24.0930   32.5330 N   0  0  0  0  0  0  0  0  0  0  0  0
   37.3230   25.3390   32.8370 C   0  0  0  0  0  0  0  0  0  0  0  0
   36.8280   26.4720   32.1970 C   0  0  0  0  0  0  0  0  0  0  0  0
   36.6510   26.3580   30.9640 O   0  0  0  0  0  0  0  0  0  0  0  0
   36.5670   27.6020   32.8960 N   0  0  0  0  0  0  0  0  0  0  0  0
   36.7720   27.6740   34.2140 C   0  0  0  0  0  0  0  0  0  0  0  0
   36.4430   28.9460   34.7920 N   0  0  0  0  0  0  0  0  0  0  0  0
   37.2550   26.5880   34.8730 N   0  0  0  0  0  0  0  0  0  0  0  0
   37.5170   25.4760   34.2130 C   0  0  0  0  0  0  0  0  0  0  0  0
   36.0500   28.7720   32.2100 C   0  0  0  0  0  0  0  0  0  0  0  0
   36.8480   29.4860   31.2820 C   0  0  0  0  0  0  0  0  0  0  0  0
   35.7220   30.8500   30.7260 S   0  0  0  0  0  0  0  0  0  0  0  0
   34.3610   30.2020   31.8610 C   0  0  0  0  0  0  0  0  0  0  0  0
   34.8500   29.3050   32.3440 N   0  0  0  0  0  0  0  0  0  0  0  0
   33.0560   30.8540   31.9500 N   0  0  0  0  0  0  0  0  0  0  0  0
   32.1040   30.2670   32.8460 C   0  0  0  0  0  0  0  0  0  0  0  0
   30.6900   30.6450   32.5130 C   0  0  0  0  0  0  0  0  0  0  0  0
   30.5520   31.8650   31.7710 N   0  0  0  0  0  0  0  0  0  0  0  0
   31.4150   31.9160   30.6030 C   0  0  0  0  0  0  0  0  0  0  0  0
   32.8290   32.0260   31.1350 C   0  0  0  0  0  0  0  0  0  0  0  0
   40.9567   22.4739   37.4961 H   0  0  0  0  0  0  0  0  0  0  0  0
   39.4890   22.7937   39.5270 H   0  0  0  0  0  0  0  0  0  0  0  0
   37.2305   23.8844   39.1686 H   0  0  0  0  0  0  0  0  0  0  0  0
   38.4702   22.4014   33.7098 H   0  0  0  0  0  0  0  0  0  0  0  0
   36.5669   29.0999   35.8029 H   0  0  0  0  0  0  0  0  0  0  0  0
   36.0830   29.7049   34.1959 H   0  0  0  0  0  0  0  0  0  0  0  0
   37.8822   29.2812   30.9683 H   0  0  0  0  0  0  0  0  0  0  0  0
   32.1981   29.1723   32.7926 H   0  0  0  0  0  0  0  0  0  0  0  0
   32.3208   30.6435   33.8566 H   0  0  0  0  0  0  0  0  0  0  0  0
   30.2493   29.8312   31.9184 H   0  0  0  0  0  0  0  0  0  0  0  0
   30.1786   30.8072   33.4733 H   0  0  0  0  0  0  0  0  0  0  0  0
   29.5736   31.9525   31.4611 H   0  0  0  0  0  0  0  0  0  0  0  0
   31.1699   32.7919   29.9843 H   0  0  0  0  0  0  0  0  0  0  0  0
   31.2902   31.0252   29.9699 H   0  0  0  0  0  0  0  0  0  0  0  0
   33.5468   32.0538   30.3020 H   0  0  0  0  0  0  0  0  0  0  0  0
   32.9621   32.9479   31.7201 H   0  0  0  0  0  0  0  0  0  0  0  0
  1  2  2  0
  3  2  1  0
  4  3  2  0
  5  6  2  0
  5  4  1  0
  6  1  1  0
  7  5  1  0
  8  7  1  0
  9 10  1  0
  9  8  2  0
 10 17  2  0
 11 10  1  0
 11 13  1  0
 12 11  2  0
 13 14  1  0
 14 15  1  0
 14 16  2  0
 17  7  1  0
 17 16  1  0
 18 22  1  0
 18 13  1  0
 19 18  2  0
 20 19  1  0
 20 21  1  0
 21 23  1  0
 21 22  2  0
 23 24  1  0
 25 24  1  0
 26 25  1  0
 27 28  1  0
 27 26  1  0
 28 23  1  0
  1 29  1  0
  2 30  1  0
  3 31  1  0
  8 32  1  0
 15 33  1  0
 15 34  1  0
 19 35  1  0
 24 36  1  0
 24 37  1  0
 25 38  1  0
 25 39  1  0
 26 40  1  0
 27 41  1  0
 27 42  1  0
 28 43  1  0
 28 44  1  0
M  ISO  8  29  14  30  14  31  14  32  14  35  14  36  13  37  13  38  13
M  ISO  6  39  13  40   5  41  13  42  13  43  13  44  13
M  END
>  <minimizedAffinity>  (1) 
-6.50796843

>  <minimizedRMSD>  (1) 
0.170901641

$$$$
