
     RDKit          3D

 37 41  0  0  0  0  0  0  0  0999 V2000
   39.9820   23.0050   37.3170 C   0  0  0  0  0  0  0  0  0  0  0  0
   39.1800   23.1530   38.4710 C   0  0  0  0  0  0  0  0  0  0  0  0
   37.9180   23.7540   38.2950 C   0  0  0  0  0  0  0  0  0  0  0  0
   37.5420   24.1520   37.0500 N   0  0  0  0  0  0  0  0  0  0  0  0
   38.3400   23.9910   35.9750 C   0  0  0  0  0  0  0  0  0  0  0  0
   39.5530   23.4210   36.1050 N   0  0  0  0  0  0  0  0  0  0  0  0
   37.9600   24.4000   34.6790 N   0  0  0  0  0  0  0  0  0  0  0  0
   38.0770   23.5510   33.6220 C   0  0  0  0  0  0  0  0  0  0  0  0
   37.6370   24.2200   32.5120 N   0  0  0  0  0  0  0  0  0  0  0  0
   37.2550   25.4520   32.8480 C   0  0  0  0  0  0  0  0  0  0  0  0
   36.7320   26.6030   32.2440 C   0  0  0  0  0  0  0  0  0  0  0  0
   36.5420   26.5090   30.9960 O   0  0  0  0  0  0  0  0  0  0  0  0
   36.4640   27.7080   32.9660 N   0  0  0  0  0  0  0  0  0  0  0  0
   36.6830   27.7530   34.2750 C   0  0  0  0  0  0  0  0  0  0  0  0
   36.3400   29.0110   34.8850 N   0  0  0  0  0  0  0  0  0  0  0  0
   37.1870   26.6640   34.9010 N   0  0  0  0  0  0  0  0  0  0  0  0
   37.4600   25.5590   34.2110 C   0  0  0  0  0  0  0  0  0  0  0  0
   35.9250   28.8800   32.3010 C   0  0  0  0  0  0  0  0  0  0  0  0
   36.7270   29.7150   31.4930 C   0  0  0  0  0  0  0  0  0  0  0  0
   35.5440   31.0100   30.9220 S   0  0  0  0  0  0  0  0  0  0  0  0
   34.1480   30.1910   31.8860 C   0  0  0  0  0  0  0  0  0  0  0  0
   34.6630   29.3010   32.3620 N   0  0  0  0  0  0  0  0  0  0  0  0
   32.7700   30.6180   31.9760 N   0  0  0  0  0  0  0  0  0  0  0  0
   32.1800   31.4700   31.1620 N   0  0  0  0  0  0  0  0  0  0  0  0
   30.8920   31.6520   31.5220 C   0  0  0  0  0  0  0  0  0  0  0  0
   30.7350   30.8300   32.6420 C   0  0  0  0  0  0  0  0  0  0  0  0
   31.9350   30.1710   32.9290 C   0  0  0  0  0  0  0  0  0  0  0  0
   40.9756   22.5418   37.4071 H   0  0  0  0  0  0  0  0  0  0  0  0
   39.5246   22.8151   39.4595 H   0  0  0  0  0  0  0  0  0  0  0  0
   37.2455   23.8995   39.1533 H   0  0  0  0  0  0  0  0  0  0  0  0
   38.4551   22.5185   33.6538 H   0  0  0  0  0  0  0  0  0  0  0  0
   36.4734   29.1458   35.8974 H   0  0  0  0  0  0  0  0  0  0  0  0
   35.9612   29.7763   34.3091 H   0  0  0  0  0  0  0  0  0  0  0  0
   37.7977   29.6171   31.2604 H   0  0  0  0  0  0  0  0  0  0  0  0
   30.1400   32.2975   31.0448 H   0  0  0  0  0  0  0  0  0  0  0  0
   29.8026   30.7177   33.2147 H   0  0  0  0  0  0  0  0  0  0  0  0
   32.1447   29.4581   33.7401 H   0  0  0  0  0  0  0  0  0  0  0  0
  1  2  2  0
  3  2  1  0
  4  3  2  0
  5  6  2  0
  5  4  1  0
  6  1  1  0
  7  5  1  0
  8  7  1  0
  9 10  1  0
  9  8  2  0
 10 17  2  0
 11 10  1  0
 11 13  1  0
 12 11  2  0
 13 14  1  0
 14 15  1  0
 14 16  2  0
 17  7  1  0
 17 16  1  0
 18 22  1  0
 18 13  1  0
 19 18  2  0
 20 19  1  0
 20 21  1  0
 21 23  1  0
 21 22  2  0
 23 27  1  0
 24 25  2  0
 24 23  1  0
 25 26  1  0
 26 27  2  0
  1 28  1  0
  2 29  1  0
  3 30  1  0
  8 31  1  0
 15 32  1  0
 15 33  1  0
 19 34  1  0
 25 35  1  0
 26 36  1  0
 27 37  1  0
M  ISO  8  28  14  29  14  30  14  31  14  34  14  35  14  36  14  37  14
M  END
>  <minimizedAffinity>  (1) 
-6.49706316

>  <minimizedRMSD>  (1) 
0.112326756

$$$$
