
     RDKit          3D

 43 47  0  0  0  0  0  0  0  0999 V2000
   39.9460   22.9500   37.2940 C   0  0  0  0  0  0  0  0  0  0  0  0
   39.1540   23.1270   38.4660 C   0  0  0  0  0  0  0  0  0  0  0  0
   37.9140   23.7590   38.2900 C   0  0  0  0  0  0  0  0  0  0  0  0
   37.5280   24.1660   37.0520 N   0  0  0  0  0  0  0  0  0  0  0  0
   38.3290   23.9700   35.9600 C   0  0  0  0  0  0  0  0  0  0  0  0
   39.5230   23.3690   36.0840 N   0  0  0  0  0  0  0  0  0  0  0  0
   37.9420   24.3850   34.6730 N   0  0  0  0  0  0  0  0  0  0  0  0
   38.0220   23.5250   33.6200 C   0  0  0  0  0  0  0  0  0  0  0  0
   37.5860   24.1940   32.5080 N   0  0  0  0  0  0  0  0  0  0  0  0
   37.2400   25.4400   32.8470 C   0  0  0  0  0  0  0  0  0  0  0  0
   36.7390   26.5940   32.2270 C   0  0  0  0  0  0  0  0  0  0  0  0
   36.5340   26.4930   31.0000 O   0  0  0  0  0  0  0  0  0  0  0  0
   36.5070   27.7130   32.9390 N   0  0  0  0  0  0  0  0  0  0  0  0
   36.7460   27.7640   34.2560 C   0  0  0  0  0  0  0  0  0  0  0  0
   36.4440   29.0340   34.8600 N   0  0  0  0  0  0  0  0  0  0  0  0
   37.2310   26.6700   34.8910 N   0  0  0  0  0  0  0  0  0  0  0  0
   37.4640   25.5590   34.2060 C   0  0  0  0  0  0  0  0  0  0  0  0
   35.9900   28.8940   32.2820 C   0  0  0  0  0  0  0  0  0  0  0  0
   36.7640   29.6050   31.3370 C   0  0  0  0  0  0  0  0  0  0  0  0
   35.6370   30.9880   30.8320 S   0  0  0  0  0  0  0  0  0  0  0  0
   34.3070   30.3510   32.0020 C   0  0  0  0  0  0  0  0  0  0  0  0
   34.8080   29.4420   32.4560 N   0  0  0  0  0  0  0  0  0  0  0  0
   33.0150   30.9860   32.1640 N   0  0  0  0  0  0  0  0  0  0  0  0
   32.2960   31.7220   31.1730 C   0  0  0  0  0  0  0  0  0  0  0  0
   30.8150   31.5270   31.2070 C   0  0  0  0  0  0  0  0  0  0  0  0
   30.2790   31.0920   32.3810 O   0  0  0  0  0  0  0  0  0  0  0  0
   31.0110   30.1900   33.1070 C   0  0  0  0  0  0  0  0  0  0  0  0
   32.3340   30.9030   33.4220 C   0  0  0  0  0  0  0  0  0  0  0  0
   40.9268   22.4593   37.3788 H   0  0  0  0  0  0  0  0  0  0  0  0
   39.4965   22.7866   39.4544 H   0  0  0  0  0  0  0  0  0  0  0  0
   37.2540   23.9252   39.1541 H   0  0  0  0  0  0  0  0  0  0  0  0
   38.3729   22.4831   33.6564 H   0  0  0  0  0  0  0  0  0  0  0  0
   36.5942   29.1729   35.8695 H   0  0  0  0  0  0  0  0  0  0  0  0
   36.0775   29.8045   34.2830 H   0  0  0  0  0  0  0  0  0  0  0  0
   37.7845   29.3905   30.9870 H   0  0  0  0  0  0  0  0  0  0  0  0
   32.6605   31.4110   30.1828 H   0  0  0  0  0  0  0  0  0  0  0  0
   32.4755   32.7866   31.3836 H   0  0  0  0  0  0  0  0  0  0  0  0
   30.3467   32.4925   30.9651 H   0  0  0  0  0  0  0  0  0  0  0  0
   30.6143   30.7228   30.4839 H   0  0  0  0  0  0  0  0  0  0  0  0
   30.4849   29.9256   34.0362 H   0  0  0  0  0  0  0  0  0  0  0  0
   31.1715   29.2524   32.5546 H   0  0  0  0  0  0  0  0  0  0  0  0
   32.9250   30.3212   34.1447 H   0  0  0  0  0  0  0  0  0  0  0  0
   32.1742   31.8934   33.8732 H   0  0  0  0  0  0  0  0  0  0  0  0
  1  2  2  0
  3  2  1  0
  4  3  2  0
  5  6  2  0
  5  4  1  0
  6  1  1  0
  7  5  1  0
  8  7  1  0
  9 10  1  0
  9  8  2  0
 10 17  2  0
 11 10  1  0
 11 13  1  0
 12 11  2  0
 13 14  1  0
 14 15  1  0
 14 16  2  0
 17  7  1  0
 17 16  1  0
 18 22  1  0
 18 13  1  0
 19 18  2  0
 20 19  1  0
 20 21  1  0
 21 23  1  0
 21 22  2  0
 23 28  1  0
 24 25  1  0
 24 23  1  0
 25 26  1  0
 26 27  1  0
 27 28  1  0
  1 29  1  0
  2 30  1  0
  3 31  1  0
  8 32  1  0
 15 33  1  0
 15 34  1  0
 19 35  1  0
 24 36  1  0
 24 37  1  0
 25 38  1  0
 25 39  1  0
 27 40  1  0
 27 41  1  0
 28 42  1  0
 28 43  1  0
M  ISO  8  29  14  30  14  31  14  32  14  35  14  36  13  37  13  38  13
M  ISO  5  39  13  40  13  41  13  42  13  43  13
M  END
>  <minimizedAffinity>  (1) 
-6.49510384

>  <minimizedRMSD>  (1) 
0.176566869

$$$$
