
     RDKit          3D

 42 46  0  0  0  0  0  0  0  0999 V2000
   39.9980   23.0040   37.3090 C   0  0  0  0  0  0  0  0  0  0  0  0
   39.2040   23.1410   38.4660 C   0  0  0  0  0  0  0  0  0  0  0  0
   37.9500   23.7270   38.2890 C   0  0  0  0  0  0  0  0  0  0  0  0
   37.5480   24.1310   37.0570 N   0  0  0  0  0  0  0  0  0  0  0  0
   38.3540   23.9760   35.9720 C   0  0  0  0  0  0  0  0  0  0  0  0
   39.5630   23.4170   36.1150 N   0  0  0  0  0  0  0  0  0  0  0  0
   37.9710   24.3850   34.6740 N   0  0  0  0  0  0  0  0  0  0  0  0
   38.0860   23.5430   33.6240 C   0  0  0  0  0  0  0  0  0  0  0  0
   37.6450   24.2070   32.5160 N   0  0  0  0  0  0  0  0  0  0  0  0
   37.2620   25.4340   32.8560 C   0  0  0  0  0  0  0  0  0  0  0  0
   36.7360   26.5840   32.2490 C   0  0  0  0  0  0  0  0  0  0  0  0
   36.5470   26.4850   31.0030 O   0  0  0  0  0  0  0  0  0  0  0  0
   36.4670   27.6860   32.9720 N   0  0  0  0  0  0  0  0  0  0  0  0
   36.6880   27.7310   34.2780 C   0  0  0  0  0  0  0  0  0  0  0  0
   36.3430   28.9860   34.8860 N   0  0  0  0  0  0  0  0  0  0  0  0
   37.1940   26.6520   34.9200 N   0  0  0  0  0  0  0  0  0  0  0  0
   37.4670   25.5520   34.2260 C   0  0  0  0  0  0  0  0  0  0  0  0
   35.9190   28.8660   32.3040 C   0  0  0  0  0  0  0  0  0  0  0  0
   36.7220   29.6840   31.4930 C   0  0  0  0  0  0  0  0  0  0  0  0
   35.5440   30.9810   30.9270 S   0  0  0  0  0  0  0  0  0  0  0  0
   34.1480   30.1780   31.9010 C   0  0  0  0  0  0  0  0  0  0  0  0
   34.6710   29.2890   32.3730 N   0  0  0  0  0  0  0  0  0  0  0  0
   32.7930   30.6170   31.9900 N   0  0  0  0  0  0  0  0  0  0  0  0
   31.6990   30.2720   32.9060 C   0  0  0  0  0  0  0  0  0  0  0  0
   31.4040   31.6850   33.4290 C   0  0  0  0  0  0  0  0  0  0  0  0
   31.5800   32.5390   32.1680 C   0  0  0  0  0  0  0  0  0  0  0  0
   32.1570   31.5850   31.1120 C   0  0  0  0  0  0  0  0  0  0  0  0
   40.9956   22.5479   37.3909 H   0  0  0  0  0  0  0  0  0  0  0  0
   39.5536   22.8047   39.4533 H   0  0  0  0  0  0  0  0  0  0  0  0
   37.2831   23.8624   39.1532 H   0  0  0  0  0  0  0  0  0  0  0  0
   38.4656   22.5111   33.6560 H   0  0  0  0  0  0  0  0  0  0  0  0
   36.4775   29.1222   35.8981 H   0  0  0  0  0  0  0  0  0  0  0  0
   35.9611   29.7496   34.3099 H   0  0  0  0  0  0  0  0  0  0  0  0
   37.7905   29.5765   31.2547 H   0  0  0  0  0  0  0  0  0  0  0  0
   30.8377   29.8342   32.3801 H   0  0  0  0  0  0  0  0  0  0  0  0
   31.9292   29.5134   33.6686 H   0  0  0  0  0  0  0  0  0  0  0  0
   30.3791   31.7593   33.8214 H   0  0  0  0  0  0  0  0  0  0  0  0
   32.0511   31.9913   34.2642 H   0  0  0  0  0  0  0  0  0  0  0  0
   30.6113   32.9410   31.8363 H   0  0  0  0  0  0  0  0  0  0  0  0
   32.2382   33.4024   32.3451 H   0  0  0  0  0  0  0  0  0  0  0  0
   32.8852   32.0875   30.4584 H   0  0  0  0  0  0  0  0  0  0  0  0
   31.4241   31.1678   30.4057 H   0  0  0  0  0  0  0  0  0  0  0  0
  1  2  2  0
  3  2  1  0
  4  3  2  0
  5  6  2  0
  5  4  1  0
  6  1  1  0
  7  5  1  0
  8  7  1  0
  9 10  1  0
  9  8  2  0
 10 17  2  0
 11 10  1  0
 11 13  1  0
 12 11  2  0
 13 14  1  0
 14 15  1  0
 14 16  2  0
 17  7  1  0
 17 16  1  0
 18 22  1  0
 18 13  1  0
 19 18  2  0
 20 19  1  0
 20 21  1  0
 21 23  1  0
 21 22  2  0
 23 24  1  0
 24 25  1  0
 26 25  1  0
 27 23  1  0
 27 26  1  0
  1 28  1  0
  2 29  1  0
  3 30  1  0
  8 31  1  0
 15 32  1  0
 15 33  1  0
 19 34  1  0
 24 35  1  0
 24 36  1  0
 25 37  1  0
 25 38  1  0
 26 39  1  0
 26 40  1  0
 27 41  1  0
 27 42  1  0
M  ISO  8  28  14  29  14  30  14  31  14  34  14  35  13  36  13  37  13
M  ISO  5  38  13  39  13  40  13  41  13  42  13
M  END
>  <minimizedAffinity>  (1) 
-6.3728776

>  <minimizedRMSD>  (1) 
0.0961142406

$$$$
