
     RDKit          3D

 46 50  0  0  0  0  0  0  0  0999 V2000
   40.3970   22.8730   36.8910 C   0  0  0  0  0  0  0  0  0  0  0  0
   39.7080   22.9750   38.1230 C   0  0  0  0  0  0  0  0  0  0  0  0
   38.4280   23.5490   38.0730 C   0  0  0  0  0  0  0  0  0  0  0  0
   37.9170   23.9700   36.8930 N   0  0  0  0  0  0  0  0  0  0  0  0
   38.6220   23.8500   35.7350 C   0  0  0  0  0  0  0  0  0  0  0  0
   39.8480   23.3040   35.7470 N   0  0  0  0  0  0  0  0  0  0  0  0
   38.1210   24.2770   34.4860 N   0  0  0  0  0  0  0  0  0  0  0  0
   38.1480   23.4630   33.4000 C   0  0  0  0  0  0  0  0  0  0  0  0
   37.6010   24.1450   32.3490 N   0  0  0  0  0  0  0  0  0  0  0  0
   37.2310   25.3680   32.7570 C   0  0  0  0  0  0  0  0  0  0  0  0
   36.6390   26.5090   32.2180 C   0  0  0  0  0  0  0  0  0  0  0  0
   36.3420   26.4420   31.0090 O   0  0  0  0  0  0  0  0  0  0  0  0
   36.4220   27.5890   32.9860 N   0  0  0  0  0  0  0  0  0  0  0  0
   36.7560   27.6210   34.2790 C   0  0  0  0  0  0  0  0  0  0  0  0
   36.4500   28.8580   34.9480 N   0  0  0  0  0  0  0  0  0  0  0  0
   37.3360   26.5210   34.8370 N   0  0  0  0  0  0  0  0  0  0  0  0
   37.5590   25.4460   34.1000 C   0  0  0  0  0  0  0  0  0  0  0  0
   35.8030   28.7760   32.4090 C   0  0  0  0  0  0  0  0  0  0  0  0
   36.5330   29.6650   31.5900 C   0  0  0  0  0  0  0  0  0  0  0  0
   35.2690   30.9530   31.1590 S   0  0  0  0  0  0  0  0  0  0  0  0
   33.9700   30.0530   32.1700 C   0  0  0  0  0  0  0  0  0  0  0  0
   34.5500   29.1640   32.5630 N   0  0  0  0  0  0  0  0  0  0  0  0
   32.5050   30.4130   32.4110 C   0  0  0  0  0  0  0  0  0  0  0  0
   31.9240   29.2120   33.0660 C   0  0  0  0  0  0  0  0  0  0  0  0
   30.7140   29.4710   33.9160 C   0  0  0  0  0  0  0  0  0  0  0  0
   30.1400   30.7970   33.4580 C   0  0  0  0  0  0  0  0  0  0  0  0
   31.1330   31.8370   33.9460 C   0  0  0  0  0  0  0  0  0  0  0  0
   32.4190   31.6720   33.2330 C   0  0  0  0  0  0  0  0  0  0  0  0
   41.4040   22.4308   36.8721 H   0  0  0  0  0  0  0  0  0  0  0  0
   40.1507   22.6241   39.0669 H   0  0  0  0  0  0  0  0  0  0  0  0
   37.8388   23.6568   38.9956 H   0  0  0  0  0  0  0  0  0  0  0  0
   38.5407   22.4359   33.3708 H   0  0  0  0  0  0  0  0  0  0  0  0
   36.6730   28.9720   35.9471 H   0  0  0  0  0  0  0  0  0  0  0  0
   36.0080   29.6292   34.4277 H   0  0  0  0  0  0  0  0  0  0  0  0
   37.5880   29.6081   31.2839 H   0  0  0  0  0  0  0  0  0  0  0  0
   31.9404   30.6426   31.4953 H   0  0  0  0  0  0  0  0  0  0  0  0
   31.6404   28.4983   32.2784 H   0  0  0  0  0  0  0  0  0  0  0  0
   32.6993   28.8297   33.7463 H   0  0  0  0  0  0  0  0  0  0  0  0
   29.9741   28.6689   33.7777 H   0  0  0  0  0  0  0  0  0  0  0  0
   30.9775   29.4999   34.9836 H   0  0  0  0  0  0  0  0  0  0  0  0
   30.0562   30.8253   32.3616 H   0  0  0  0  0  0  0  0  0  0  0  0
   29.1281   30.9707   33.8529 H   0  0  0  0  0  0  0  0  0  0  0  0
   30.7337   32.8433   33.7516 H   0  0  0  0  0  0  0  0  0  0  0  0
   31.2960   31.7064   35.0260 H   0  0  0  0  0  0  0  0  0  0  0  0
   33.2281   31.6549   33.9780 H   0  0  0  0  0  0  0  0  0  0  0  0
   32.5062   32.5162   32.5332 H   0  0  0  0  0  0  0  0  0  0  0  0
  1  2  2  0
  3  2  1  0
  4  3  2  0
  5  6  2  0
  5  4  1  0
  6  1  1  0
  7  5  1  0
  8  7  1  0
  9 10  1  0
  9  8  2  0
 10 17  2  0
 11 10  1  0
 11 13  1  0
 12 11  2  0
 13 14  1  0
 14 16  2  0
 14 15  1  0
 17  7  1  0
 17 16  1  0
 18 22  1  0
 18 13  1  0
 19 18  2  0
 20 19  1  0
 20 21  1  0
 21 23  1  0
 21 22  2  0
 23 24  1  0
 23 28  1  0
 24 25  1  0
 26 25  1  0
 26 27  1  0
 28 27  1  0
  1 29  1  0
  2 30  1  0
  3 31  1  0
  8 32  1  0
 15 33  1  0
 15 34  1  0
 19 35  1  0
 23 36  1  0
 24 37  1  0
 24 38  1  0
 25 39  1  0
 25 40  1  0
 26 41  1  0
 26 42  1  0
 27 43  1  0
 27 44  1  0
 28 45  1  0
 28 46  1  0
M  ISO  8  29  14  30  14  31  14  32  14  35  14  36  13  37  13  38  13
M  ISO  8  39  13  40  13  41  13  42  13  43  13  44  13  45  13  46  13
M  END
>  <minimizedAffinity>  (1) 
-6.35455132

>  <minimizedRMSD>  (1) 
0.589950562

$$$$
