
     RDKit          3D

 37 41  0  0  0  0  0  0  0  0999 V2000
   40.0420   22.9810   37.2700 C   0  0  0  0  0  0  0  0  0  0  0  0
   39.2590   23.1100   38.4330 C   0  0  0  0  0  0  0  0  0  0  0  0
   37.9900   23.7010   38.2700 C   0  0  0  0  0  0  0  0  0  0  0  0
   37.5780   24.1140   37.0420 N   0  0  0  0  0  0  0  0  0  0  0  0
   38.3860   23.9610   35.9500 C   0  0  0  0  0  0  0  0  0  0  0  0
   39.6030   23.4000   36.0690 N   0  0  0  0  0  0  0  0  0  0  0  0
   37.9910   24.3760   34.6610 N   0  0  0  0  0  0  0  0  0  0  0  0
   38.0980   23.5340   33.6010 C   0  0  0  0  0  0  0  0  0  0  0  0
   37.6470   24.2030   32.4990 N   0  0  0  0  0  0  0  0  0  0  0  0
   37.2610   25.4350   32.8380 C   0  0  0  0  0  0  0  0  0  0  0  0
   36.7320   26.5830   32.2500 C   0  0  0  0  0  0  0  0  0  0  0  0
   36.5320   26.4890   31.0060 O   0  0  0  0  0  0  0  0  0  0  0  0
   36.4680   27.6870   32.9820 N   0  0  0  0  0  0  0  0  0  0  0  0
   36.7000   27.7250   34.2830 C   0  0  0  0  0  0  0  0  0  0  0  0
   36.3600   28.9770   34.8980 N   0  0  0  0  0  0  0  0  0  0  0  0
   37.2130   26.6360   34.9000 N   0  0  0  0  0  0  0  0  0  0  0  0
   37.4830   25.5350   34.2020 C   0  0  0  0  0  0  0  0  0  0  0  0
   35.9180   28.8580   32.3240 C   0  0  0  0  0  0  0  0  0  0  0  0
   36.7240   29.7120   31.5350 C   0  0  0  0  0  0  0  0  0  0  0  0
   35.5270   31.0050   30.9590 S   0  0  0  0  0  0  0  0  0  0  0  0
   34.1340   30.1520   31.8970 C   0  0  0  0  0  0  0  0  0  0  0  0
   34.6630   29.2660   32.3680 N   0  0  0  0  0  0  0  0  0  0  0  0
   32.7290   30.6130   31.9420 C   0  0  0  0  0  0  0  0  0  0  0  0
   32.1000   31.6600   31.3290 C   0  0  0  0  0  0  0  0  0  0  0  0
   30.7860   31.6010   31.7420 C   0  0  0  0  0  0  0  0  0  0  0  0
   30.6420   30.5480   32.5770 N   0  0  0  0  0  0  0  0  0  0  0  0
   31.8270   29.9560   32.6920 N   0  0  0  0  0  0  0  0  0  0  0  0
   41.0402   22.5251   37.3452 H   0  0  0  0  0  0  0  0  0  0  0  0
   39.6180   22.7682   39.4150 H   0  0  0  0  0  0  0  0  0  0  0  0
   37.3297   23.8287   39.1405 H   0  0  0  0  0  0  0  0  0  0  0  0
   38.4783   22.5021   33.6254 H   0  0  0  0  0  0  0  0  0  0  0  0
   36.5028   29.1095   35.9094 H   0  0  0  0  0  0  0  0  0  0  0  0
   35.9733   29.7426   34.3278 H   0  0  0  0  0  0  0  0  0  0  0  0
   37.7989   29.6290   31.3166 H   0  0  0  0  0  0  0  0  0  0  0  0
   32.5491   32.3972   30.6472 H   0  0  0  0  0  0  0  0  0  0  0  0
   29.9875   32.2955   31.4418 H   0  0  0  0  0  0  0  0  0  0  0  0
   29.7701   30.2563   33.0413 H   0  0  0  0  0  0  0  0  0  0  0  0
  1  2  2  0
  3  2  1  0
  4  3  2  0
  5  6  2  0
  5  4  1  0
  6  1  1  0
  7  5  1  0
  8  7  1  0
  9 10  1  0
  9  8  2  0
 10 17  2  0
 11 10  1  0
 11 13  1  0
 12 11  2  0
 13 14  1  0
 14 15  1  0
 14 16  2  0
 17  7  1  0
 17 16  1  0
 18 22  1  0
 18 13  1  0
 19 18  2  0
 20 19  1  0
 20 21  1  0
 21 23  1  0
 21 22  2  0
 23 27  2  0
 24 25  2  0
 24 23  1  0
 25 26  1  0
 26 27  1  0
  1 28  1  0
  2 29  1  0
  3 30  1  0
  8 31  1  0
 15 32  1  0
 15 33  1  0
 19 34  1  0
 24 35  1  0
 25 36  1  0
 26 37  1  0
M  ISO  8  28  14  29  14  30  14  31  14  34  14  35  14  36  14  37   9
M  END
>  <minimizedAffinity>  (1) 
-6.21234083

>  <minimizedRMSD>  (1) 
0.542211056

$$$$
