
     RDKit          3D

 37 41  0  0  0  0  0  0  0  0999 V2000
   39.9880   23.0170   37.3040 C   0  0  0  0  0  0  0  0  0  0  0  0
   39.1790   23.1560   38.4620 C   0  0  0  0  0  0  0  0  0  0  0  0
   37.9270   23.7450   38.2870 C   0  0  0  0  0  0  0  0  0  0  0  0
   37.5310   24.1530   37.0480 N   0  0  0  0  0  0  0  0  0  0  0  0
   38.3490   23.9950   35.9640 C   0  0  0  0  0  0  0  0  0  0  0  0
   39.5640   23.4320   36.0940 N   0  0  0  0  0  0  0  0  0  0  0  0
   37.9630   24.4110   34.6700 N   0  0  0  0  0  0  0  0  0  0  0  0
   38.0750   23.5650   33.6120 C   0  0  0  0  0  0  0  0  0  0  0  0
   37.6320   24.2310   32.5050 N   0  0  0  0  0  0  0  0  0  0  0  0
   37.2480   25.4660   32.8500 C   0  0  0  0  0  0  0  0  0  0  0  0
   36.7240   26.6090   32.2440 C   0  0  0  0  0  0  0  0  0  0  0  0
   36.5310   26.5120   30.9970 O   0  0  0  0  0  0  0  0  0  0  0  0
   36.4550   27.7170   32.9700 N   0  0  0  0  0  0  0  0  0  0  0  0
   36.6770   27.7590   34.2720 C   0  0  0  0  0  0  0  0  0  0  0  0
   36.3350   29.0160   34.8850 N   0  0  0  0  0  0  0  0  0  0  0  0
   37.1870   26.6730   34.9080 N   0  0  0  0  0  0  0  0  0  0  0  0
   37.4560   25.5810   34.2160 C   0  0  0  0  0  0  0  0  0  0  0  0
   35.9100   28.8890   32.3100 C   0  0  0  0  0  0  0  0  0  0  0  0
   36.7170   29.7220   31.4980 C   0  0  0  0  0  0  0  0  0  0  0  0
   35.5250   31.0270   30.9310 S   0  0  0  0  0  0  0  0  0  0  0  0
   34.1400   30.2070   31.9010 C   0  0  0  0  0  0  0  0  0  0  0  0
   34.6630   29.3170   32.3710 N   0  0  0  0  0  0  0  0  0  0  0  0
   32.7600   30.7100   31.9470 C   0  0  0  0  0  0  0  0  0  0  0  0
   31.7880   30.5330   32.8810 C   0  0  0  0  0  0  0  0  0  0  0  0
   30.6690   31.2170   32.4500 C   0  0  0  0  0  0  0  0  0  0  0  0
   31.0190   31.7940   31.2400 C   0  0  0  0  0  0  0  0  0  0  0  0
   32.2640   31.4620   30.9930 O   0  0  0  0  0  0  0  0  0  0  0  0
   40.9842   22.5599   37.3964 H   0  0  0  0  0  0  0  0  0  0  0  0
   39.5230   22.8156   39.4498 H   0  0  0  0  0  0  0  0  0  0  0  0
   37.2582   23.8805   39.1498 H   0  0  0  0  0  0  0  0  0  0  0  0
   38.4533   22.5325   33.6419 H   0  0  0  0  0  0  0  0  0  0  0  0
   36.4713   29.1493   35.8972 H   0  0  0  0  0  0  0  0  0  0  0  0
   35.9541   29.7820   34.3113 H   0  0  0  0  0  0  0  0  0  0  0  0
   37.7865   29.6208   31.2615 H   0  0  0  0  0  0  0  0  0  0  0  0
   31.8770   29.9511   33.8103 H   0  0  0  0  0  0  0  0  0  0  0  0
   29.6983   31.2891   32.9623 H   0  0  0  0  0  0  0  0  0  0  0  0
   30.3722   32.4159   30.6037 H   0  0  0  0  0  0  0  0  0  0  0  0
  1  2  2  0
  3  2  1  0
  4  3  2  0
  5  6  2  0
  5  4  1  0
  6  1  1  0
  7  5  1  0
  8  7  1  0
  9 10  1  0
  9  8  2  0
 10 17  2  0
 11 10  1  0
 11 13  1  0
 12 11  2  0
 13 14  1  0
 14 15  1  0
 14 16  2  0
 17  7  1  0
 17 16  1  0
 18 22  1  0
 18 13  1  0
 19 18  2  0
 20 19  1  0
 20 21  1  0
 21 23  1  0
 21 22  2  0
 23 24  2  0
 25 24  1  0
 26 25  2  0
 27 26  1  0
 27 23  1  0
  1 28  1  0
  2 29  1  0
  3 30  1  0
  8 31  1  0
 15 32  1  0
 15 33  1  0
 19 34  1  0
 24 35  1  0
 25 36  1  0
 26 37  1  0
M  ISO  8  28  14  29  14  30  14  31  14  34  14  35  14  36  14  37  14
M  END
>  <minimizedAffinity>  (1) 
-6.14835835

>  <minimizedRMSD>  (1) 
0.319411188

$$$$
