
     RDKit          3D

 31 34  0  0  0  0  0  0  0  0999 V2000
   39.9650   23.0030   37.3160 C   0  0  0  0  0  0  0  0  0  0  0  0
   39.1780   23.1480   38.4730 C   0  0  0  0  0  0  0  0  0  0  0  0
   37.9150   23.7500   38.2920 C   0  0  0  0  0  0  0  0  0  0  0  0
   37.5220   24.1500   37.0550 N   0  0  0  0  0  0  0  0  0  0  0  0
   38.3240   23.9830   35.9760 C   0  0  0  0  0  0  0  0  0  0  0  0
   39.5340   23.4150   36.1090 N   0  0  0  0  0  0  0  0  0  0  0  0
   37.9510   24.3870   34.6730 N   0  0  0  0  0  0  0  0  0  0  0  0
   38.0640   23.5420   33.6220 C   0  0  0  0  0  0  0  0  0  0  0  0
   37.6310   24.2090   32.5120 N   0  0  0  0  0  0  0  0  0  0  0  0
   37.2520   25.4470   32.8430 C   0  0  0  0  0  0  0  0  0  0  0  0
   36.7380   26.5900   32.2270 C   0  0  0  0  0  0  0  0  0  0  0  0
   36.5540   26.4940   30.9930 O   0  0  0  0  0  0  0  0  0  0  0  0
   36.4740   27.6930   32.9450 N   0  0  0  0  0  0  0  0  0  0  0  0
   36.6860   27.7520   34.2650 C   0  0  0  0  0  0  0  0  0  0  0  0
   36.3470   29.0090   34.8630 N   0  0  0  0  0  0  0  0  0  0  0  0
   37.1840   26.6680   34.9070 N   0  0  0  0  0  0  0  0  0  0  0  0
   37.4520   25.5630   34.2100 C   0  0  0  0  0  0  0  0  0  0  0  0
   35.9370   28.8760   32.2820 C   0  0  0  0  0  0  0  0  0  0  0  0
   36.7260   29.6610   31.4280 C   0  0  0  0  0  0  0  0  0  0  0  0
   35.5730   30.9870   30.8850 S   0  0  0  0  0  0  0  0  0  0  0  0
   34.1850   30.2470   31.9240 C   0  0  0  0  0  0  0  0  0  0  0  0
   34.7100   29.3480   32.3860 N   0  0  0  0  0  0  0  0  0  0  0  0
   32.5210   30.8740   32.0720 S   0  0  0  0  0  0  0  0  0  0  0  0
   40.9595   22.5404   37.3998 H   0  0  0  0  0  0  0  0  0  0  0  0
   39.5268   22.8118   39.4606 H   0  0  0  0  0  0  0  0  0  0  0  0
   37.2475   23.8956   39.1541 H   0  0  0  0  0  0  0  0  0  0  0  0
   38.4364   22.5075   33.6557 H   0  0  0  0  0  0  0  0  0  0  0  0
   36.4760   29.1492   35.8752 H   0  0  0  0  0  0  0  0  0  0  0  0
   35.9743   29.7725   34.2807 H   0  0  0  0  0  0  0  0  0  0  0  0
   37.7806   29.5179   31.1500 H   0  0  0  0  0  0  0  0  0  0  0  0
   32.1954   30.9967   33.3971 H   0  0  0  0  0  0  0  0  0  0  0  0
  1  2  2  0
  3  2  1  0
  4  3  2  0
  5  6  2  0
  5  4  1  0
  6  1  1  0
  7  5  1  0
  8  7  1  0
  9 10  1  0
  9  8  2  0
 10 17  2  0
 11 10  1  0
 11 13  1  0
 12 11  2  0
 13 14  1  0
 14 15  1  0
 14 16  2  0
 17  7  1  0
 17 16  1  0
 18 22  1  0
 18 13  1  0
 19 18  2  0
 20 19  1  0
 20 21  1  0
 21 23  1  0
 21 22  2  0
  1 24  1  0
  2 25  1  0
  3 26  1  0
  8 27  1  0
 15 28  1  0
 15 29  1  0
 19 30  1  0
 23 31  1  0
M  ISO  6  24  14  25  14  26  14  27  14  30  14  31  11
M  END
>  <minimizedAffinity>  (1) 
-5.79937601

>  <minimizedRMSD>  (1) 
0.0156211564

$$$$
