
     RDKit          3D

 32 35  0  0  0  0  0  0  0  0999 V2000
   39.9740   22.9910   37.3220 C   0  0  0  0  0  0  0  0  0  0  0  0
   39.1650   23.1430   38.4740 C   0  0  0  0  0  0  0  0  0  0  0  0
   37.9130   23.7370   38.2880 C   0  0  0  0  0  0  0  0  0  0  0  0
   37.5180   24.1370   37.0500 N   0  0  0  0  0  0  0  0  0  0  0  0
   38.3370   23.9680   35.9650 C   0  0  0  0  0  0  0  0  0  0  0  0
   39.5420   23.4020   36.1190 N   0  0  0  0  0  0  0  0  0  0  0  0
   37.9590   24.3710   34.6690 N   0  0  0  0  0  0  0  0  0  0  0  0
   38.0660   23.5250   33.6230 C   0  0  0  0  0  0  0  0  0  0  0  0
   37.6300   24.1870   32.5130 N   0  0  0  0  0  0  0  0  0  0  0  0
   37.2540   25.4250   32.8420 C   0  0  0  0  0  0  0  0  0  0  0  0
   36.7400   26.5660   32.2220 C   0  0  0  0  0  0  0  0  0  0  0  0
   36.5480   26.4690   30.9810 O   0  0  0  0  0  0  0  0  0  0  0  0
   36.4780   27.6870   32.9440 N   0  0  0  0  0  0  0  0  0  0  0  0
   36.7010   27.7340   34.2590 C   0  0  0  0  0  0  0  0  0  0  0  0
   36.3680   28.9890   34.8500 N   0  0  0  0  0  0  0  0  0  0  0  0
   37.1970   26.6570   34.8970 N   0  0  0  0  0  0  0  0  0  0  0  0
   37.4630   25.5420   34.2110 C   0  0  0  0  0  0  0  0  0  0  0  0
   35.9420   28.8620   32.2730 C   0  0  0  0  0  0  0  0  0  0  0  0
   36.7570   29.6420   31.4190 C   0  0  0  0  0  0  0  0  0  0  0  0
   35.5860   30.9640   30.8620 S   0  0  0  0  0  0  0  0  0  0  0  0
   34.1920   30.2150   31.8970 C   0  0  0  0  0  0  0  0  0  0  0  0
   34.7130   29.3260   32.3630 N   0  0  0  0  0  0  0  0  0  0  0  0
   32.8830   30.7630   31.9530 N   0  0  0  0  0  0  0  0  0  0  0  0
   40.9687   22.5305   37.4137 H   0  0  0  0  0  0  0  0  0  0  0  0
   39.5046   22.8103   39.4660 H   0  0  0  0  0  0  0  0  0  0  0  0
   37.2434   23.8816   39.1486 H   0  0  0  0  0  0  0  0  0  0  0  0
   38.4372   22.4901   33.6590 H   0  0  0  0  0  0  0  0  0  0  0  0
   36.5013   29.1337   35.8610 H   0  0  0  0  0  0  0  0  0  0  0  0
   35.9942   29.7504   34.2657 H   0  0  0  0  0  0  0  0  0  0  0  0
   37.8150   29.4996   31.1539 H   0  0  0  0  0  0  0  0  0  0  0  0
   32.1610   30.3136   32.5341 H   0  0  0  0  0  0  0  0  0  0  0  0
   32.6557   31.6098   31.4126 H   0  0  0  0  0  0  0  0  0  0  0  0
  1  2  2  0
  3  2  1  0
  4  3  2  0
  5  6  2  0
  5  4  1  0
  6  1  1  0
  7  5  1  0
  8  7  1  0
  9 10  1  0
  9  8  2  0
 10 17  2  0
 11 10  1  0
 11 13  1  0
 12 11  2  0
 13 14  1  0
 14 15  1  0
 14 16  2  0
 17  7  1  0
 17 16  1  0
 18 22  1  0
 18 13  1  0
 19 18  2  0
 20 19  1  0
 20 21  1  0
 21 23  1  0
 21 22  2  0
  1 24  1  0
  2 25  1  0
  3 26  1  0
  8 27  1  0
 15 28  1  0
 15 29  1  0
 19 30  1  0
 23 31  1  0
 23 32  1  0
M  ISO  5  24  14  25  14  26  14  27  14  30  14
M  END
>  <minimizedAffinity>  (1) 
-5.77140713

>  <minimizedRMSD>  (1) 
0.0392325521

$$$$
