
     RDKit          3D

 31 34  0  0  0  0  0  0  0  0999 V2000
   39.9790   22.9960   37.3050 C   0  0  0  0  0  0  0  0  0  0  0  0
   39.1920   23.1460   38.4610 C   0  0  0  0  0  0  0  0  0  0  0  0
   37.9270   23.7500   38.2890 C   0  0  0  0  0  0  0  0  0  0  0  0
   37.5370   24.1460   37.0510 N   0  0  0  0  0  0  0  0  0  0  0  0
   38.3310   23.9800   35.9670 C   0  0  0  0  0  0  0  0  0  0  0  0
   39.5550   23.4040   36.0890 N   0  0  0  0  0  0  0  0  0  0  0  0
   37.9590   24.3790   34.6630 N   0  0  0  0  0  0  0  0  0  0  0  0
   38.0750   23.5380   33.6110 C   0  0  0  0  0  0  0  0  0  0  0  0
   37.6410   24.2100   32.5060 N   0  0  0  0  0  0  0  0  0  0  0  0
   37.2630   25.4380   32.8490 C   0  0  0  0  0  0  0  0  0  0  0  0
   36.7460   26.5820   32.2310 C   0  0  0  0  0  0  0  0  0  0  0  0
   36.5600   26.4890   30.9830 O   0  0  0  0  0  0  0  0  0  0  0  0
   36.4770   27.6930   32.9550 N   0  0  0  0  0  0  0  0  0  0  0  0
   36.6890   27.7390   34.2590 C   0  0  0  0  0  0  0  0  0  0  0  0
   36.3470   29.0010   34.8680 N   0  0  0  0  0  0  0  0  0  0  0  0
   37.1890   26.6520   34.8940 N   0  0  0  0  0  0  0  0  0  0  0  0
   37.4610   25.5520   34.2080 C   0  0  0  0  0  0  0  0  0  0  0  0
   35.9370   28.8730   32.2810 C   0  0  0  0  0  0  0  0  0  0  0  0
   36.7300   29.6820   31.4640 C   0  0  0  0  0  0  0  0  0  0  0  0
   35.5790   30.9890   30.8880 S   0  0  0  0  0  0  0  0  0  0  0  0
   34.1650   30.1930   31.8850 C   0  0  0  0  0  0  0  0  0  0  0  0
   34.7020   29.3210   32.3410 N   0  0  0  0  0  0  0  0  0  0  0  0
   32.8020   30.6040   32.0120 O   0  0  0  0  0  0  0  0  0  0  0  0
   40.9721   22.5313   37.3940 H   0  0  0  0  0  0  0  0  0  0  0  0
   39.5435   22.8103   39.4478 H   0  0  0  0  0  0  0  0  0  0  0  0
   37.2623   23.8985   39.1528 H   0  0  0  0  0  0  0  0  0  0  0  0
   38.4496   22.5042   33.6405 H   0  0  0  0  0  0  0  0  0  0  0  0
   36.4764   29.1359   35.8809 H   0  0  0  0  0  0  0  0  0  0  0  0
   35.9734   29.7673   34.2900 H   0  0  0  0  0  0  0  0  0  0  0  0
   37.7965   29.5631   31.2222 H   0  0  0  0  0  0  0  0  0  0  0  0
   32.1774   30.0805   32.5741 H   0  0  0  0  0  0  0  0  0  0  0  0
  1  2  2  0
  3  2  1  0
  4  3  2  0
  5  6  2  0
  5  4  1  0
  6  1  1  0
  7  5  1  0
  8  7  1  0
  9 10  1  0
  9  8  2  0
 10 17  2  0
 11 10  1  0
 11 13  1  0
 12 11  2  0
 13 14  1  0
 14 15  1  0
 14 16  2  0
 17  7  1  0
 17 16  1  0
 18 22  1  0
 18 13  1  0
 19 18  2  0
 20 19  1  0
 20 21  1  0
 21 23  1  0
 21 22  2  0
  1 24  1  0
  2 25  1  0
  3 26  1  0
  8 27  1  0
 15 28  1  0
 15 29  1  0
 19 30  1  0
 23 31  1  0
M  ISO  6  24  14  25  14  26  14  27  14  30  14  31   3
M  END
>  <minimizedAffinity>  (1) 
-5.75084639

>  <minimizedRMSD>  (1) 
0.0432830118

$$$$
