
     RDKit          3D

 32 35  0  0  0  0  0  0  0  0999 V2000
   39.9700   22.9970   37.3140 C   0  0  0  0  0  0  0  0  0  0  0  0
   39.1800   23.1420   38.4700 C   0  0  0  0  0  0  0  0  0  0  0  0
   37.9250   23.7390   38.2880 C   0  0  0  0  0  0  0  0  0  0  0  0
   37.5250   24.1420   37.0570 N   0  0  0  0  0  0  0  0  0  0  0  0
   38.3320   23.9770   35.9730 C   0  0  0  0  0  0  0  0  0  0  0  0
   39.5530   23.4050   36.0970 N   0  0  0  0  0  0  0  0  0  0  0  0
   37.9540   24.3840   34.6720 N   0  0  0  0  0  0  0  0  0  0  0  0
   38.0620   23.5390   33.6210 C   0  0  0  0  0  0  0  0  0  0  0  0
   37.6290   24.2010   32.5140 N   0  0  0  0  0  0  0  0  0  0  0  0
   37.2530   25.4360   32.8420 C   0  0  0  0  0  0  0  0  0  0  0  0
   36.7400   26.5840   32.2380 C   0  0  0  0  0  0  0  0  0  0  0  0
   36.5490   26.4870   30.9900 O   0  0  0  0  0  0  0  0  0  0  0  0
   36.4770   27.6990   32.9650 N   0  0  0  0  0  0  0  0  0  0  0  0
   36.6970   27.7410   34.2670 C   0  0  0  0  0  0  0  0  0  0  0  0
   36.3610   28.9990   34.8650 N   0  0  0  0  0  0  0  0  0  0  0  0
   37.1930   26.6590   34.9030 N   0  0  0  0  0  0  0  0  0  0  0  0
   37.4580   25.5560   34.2150 C   0  0  0  0  0  0  0  0  0  0  0  0
   35.9400   28.8790   32.2870 C   0  0  0  0  0  0  0  0  0  0  0  0
   36.7420   29.6600   31.4210 C   0  0  0  0  0  0  0  0  0  0  0  0
   35.5540   30.9730   30.8800 S   0  0  0  0  0  0  0  0  0  0  0  0
   34.1790   30.2190   31.9320 C   0  0  0  0  0  0  0  0  0  0  0  0
   34.7160   29.3450   32.3840 N   0  0  0  0  0  0  0  0  0  0  0  0
   32.8810   30.9260   31.8770 C   0  0  0  0  0  0  0  0  0  0  0  0
   32.3990   31.3460   30.7960 O   0  0  0  0  0  0  0  0  0  0  0  0
   40.9637   22.5342   37.4059 H   0  0  0  0  0  0  0  0  0  0  0  0
   39.5273   22.8064   39.4583 H   0  0  0  0  0  0  0  0  0  0  0  0
   37.2588   23.8818   39.1516 H   0  0  0  0  0  0  0  0  0  0  0  0
   38.4328   22.5040   33.6552 H   0  0  0  0  0  0  0  0  0  0  0  0
   36.4937   29.1401   35.8766 H   0  0  0  0  0  0  0  0  0  0  0  0
   35.9868   29.7622   34.2832 H   0  0  0  0  0  0  0  0  0  0  0  0
   37.7971   29.5226   31.1419 H   0  0  0  0  0  0  0  0  0  0  0  0
   32.3216   31.0887   32.8100 H   0  0  0  0  0  0  0  0  0  0  0  0
  1  2  2  0
  3  2  1  0
  4  3  2  0
  5  6  2  0
  5  4  1  0
  6  1  1  0
  7  5  1  0
  8  7  1  0
  9 10  1  0
  9  8  2  0
 10 17  2  0
 11 10  1  0
 11 13  1  0
 12 11  2  0
 13 14  1  0
 14 15  1  0
 14 16  2  0
 17  7  1  0
 17 16  1  0
 18 22  1  0
 18 13  1  0
 19 18  2  0
 20 19  1  0
 20 21  1  0
 21 22  2  0
 23 21  1  0
 24 23  2  0
  1 25  1  0
  2 26  1  0
  3 27  1  0
  8 28  1  0
 15 29  1  0
 15 30  1  0
 19 31  1  0
 23 32  1  0
M  ISO  6  25  14  26  14  27  14  28  14  31  14  32   6
M  END
>  <minimizedAffinity>  (1) 
-5.71033716

>  <minimizedRMSD>  (1) 
0.0642305911

$$$$
