
     RDKit          3D

 37 41  0  0  0  0  0  0  0  0999 V2000
   40.0030   22.9650   37.2960 C   0  0  0  0  0  0  0  0  0  0  0  0
   39.2100   23.1250   38.4600 C   0  0  0  0  0  0  0  0  0  0  0  0
   37.9570   23.7310   38.2920 C   0  0  0  0  0  0  0  0  0  0  0  0
   37.5660   24.1280   37.0590 N   0  0  0  0  0  0  0  0  0  0  0  0
   38.3630   23.9540   35.9620 C   0  0  0  0  0  0  0  0  0  0  0  0
   39.5680   23.3770   36.0880 N   0  0  0  0  0  0  0  0  0  0  0  0
   37.9760   24.3590   34.6670 N   0  0  0  0  0  0  0  0  0  0  0  0
   38.0800   23.5100   33.6140 C   0  0  0  0  0  0  0  0  0  0  0  0
   37.6360   24.1790   32.5140 N   0  0  0  0  0  0  0  0  0  0  0  0
   37.2610   25.4100   32.8400 C   0  0  0  0  0  0  0  0  0  0  0  0
   36.7400   26.5630   32.2380 C   0  0  0  0  0  0  0  0  0  0  0  0
   36.5420   26.4610   30.9910 O   0  0  0  0  0  0  0  0  0  0  0  0
   36.4820   27.6780   32.9670 N   0  0  0  0  0  0  0  0  0  0  0  0
   36.7120   27.7180   34.2680 C   0  0  0  0  0  0  0  0  0  0  0  0
   36.3780   28.9800   34.8670 N   0  0  0  0  0  0  0  0  0  0  0  0
   37.2160   26.6300   34.8990 N   0  0  0  0  0  0  0  0  0  0  0  0
   37.4780   25.5210   34.2050 C   0  0  0  0  0  0  0  0  0  0  0  0
   35.9410   28.8500   32.2980 C   0  0  0  0  0  0  0  0  0  0  0  0
   36.7340   29.6230   31.4160 C   0  0  0  0  0  0  0  0  0  0  0  0
   35.5620   30.9540   30.8700 S   0  0  0  0  0  0  0  0  0  0  0  0
   34.2070   30.2170   31.9400 C   0  0  0  0  0  0  0  0  0  0  0  0
   34.7170   29.3220   32.4120 N   0  0  0  0  0  0  0  0  0  0  0  0
   32.8440   30.9420   31.9190 C   0  0  0  0  0  0  0  0  0  0  0  0
   31.7480   30.3060   32.6910 C   0  0  0  0  0  0  0  0  0  0  0  0
   32.5270   31.5590   33.2000 C   0  0  0  0  0  0  0  0  0  0  0  0
   40.9939   22.4949   37.3799 H   0  0  0  0  0  0  0  0  0  0  0  0
   39.5608   22.7899   39.4473 H   0  0  0  0  0  0  0  0  0  0  0  0
   37.2955   23.8829   39.1577 H   0  0  0  0  0  0  0  0  0  0  0  0
   38.4529   22.4755   33.6432 H   0  0  0  0  0  0  0  0  0  0  0  0
   36.5169   29.1233   35.8775 H   0  0  0  0  0  0  0  0  0  0  0  0
   35.9995   29.7417   34.2861 H   0  0  0  0  0  0  0  0  0  0  0  0
   37.7844   29.4720   31.1262 H   0  0  0  0  0  0  0  0  0  0  0  0
   32.8981   31.2918   30.8775 H   0  0  0  0  0  0  0  0  0  0  0  0
   30.7042   30.3963   32.3557 H   0  0  0  0  0  0  0  0  0  0  0  0
   31.5265   29.2988   33.0736 H   0  0  0  0  0  0  0  0  0  0  0  0
   33.2259   31.4705   34.0448 H   0  0  0  0  0  0  0  0  0  0  0  0
   32.2534   32.5693   33.5382 H   0  0  0  0  0  0  0  0  0  0  0  0
  1  2  2  0
  3  2  1  0
  4  3  2  0
  5  6  2  0
  5  4  1  0
  6  1  1  0
  7  5  1  0
  8  7  1  0
  9 10  1  0
  9  8  2  0
 10 17  2  0
 11 10  1  0
 11 13  1  0
 12 11  2  0
 13 14  1  0
 14 15  1  0
 14 16  2  0
 17  7  1  0
 17 16  1  0
 18 22  1  0
 18 13  1  0
 19 18  2  0
 20 19  1  0
 20 21  1  0
 21 22  2  0
 23 21  1  0
 23 24  1  0
 23 25  1  0
 24 25  1  0
  1 26  1  0
  2 27  1  0
  3 28  1  0
  8 29  1  0
 15 30  1  0
 15 31  1  0
 19 32  1  0
 23 33  1  0
 24 34  1  0
 24 35  1  0
 25 36  1  0
 25 37  1  0
M  ISO  8  26  14  27  14  28  14  29  14  32  14  33  13  34  13  35  13
M  ISO  2  36  13  37  13
M  END
>  <minimizedAffinity>  (1) 
-5.82074308

>  <minimizedRMSD>  (1) 
0.0478679948

$$$$
