
     RDKit          3D

 51 57  0  0  1  0  0  0  0  0999 V2000
   35.8280   28.4490   32.5760 C   0  0  0  0  0  0  0  0  0  0  0  0
   36.4720   29.3510   31.7110 C   0  0  0  0  0  0  0  0  0  0  0  0
   35.1580   30.6250   31.3940 S   0  0  0  0  0  0  0  0  0  0  0  0
   33.9710   29.6960   32.4990 C   0  0  0  0  0  0  0  0  0  0  0  0
   34.6000   28.8210   32.8270 N   0  0  0  0  0  0  0  0  0  0  0  0
   40.9200   22.4820   36.3940 C   0  0  0  0  0  0  0  0  0  0  0  0
   40.3800   22.5840   37.7060 C   0  0  0  0  0  0  0  0  0  0  0  0
   39.1090   23.1680   37.8220 C   0  0  0  0  0  0  0  0  0  0  0  0
   38.4660   23.5990   36.7140 N   0  0  0  0  0  0  0  0  0  0  0  0
   39.0260   23.4810   35.4630 C   0  0  0  0  0  0  0  0  0  0  0  0
   40.2410   22.9270   35.3160 N   0  0  0  0  0  0  0  0  0  0  0  0
   38.3640   23.9250   34.3110 N   0  0  0  0  0  0  0  0  0  0  0  0
   38.2380   23.1040   33.2300 C   0  0  0  0  0  0  0  0  0  0  0  0
   37.5580   23.7960   32.2740 N   0  0  0  0  0  0  0  0  0  0  0  0
   37.2540   25.0110   32.7040 C   0  0  0  0  0  0  0  0  0  0  0  0
   36.6040   26.1710   32.2620 C   0  0  0  0  0  0  0  0  0  0  0  0
   36.1420   26.0980   31.0940 O   0  0  0  0  0  0  0  0  0  0  0  0
   36.5140   27.2610   33.0840 N   0  0  0  0  0  0  0  0  0  0  0  0
   37.0190   27.2700   34.2930 C   0  0  0  0  0  0  0  0  0  0  0  0
   36.8090   28.5080   34.9800 N   0  0  0  0  0  0  0  0  0  0  0  0
   37.6540   26.1690   34.7570 N   0  0  0  0  0  0  0  0  0  0  0  0
   37.7650   25.0770   33.9810 C   0  0  0  0  0  0  0  0  0  0  0  0
   32.5570   30.2830   32.6620 C   0  0  1  0  0  0  0  0  0  0  0  0
   31.7730   29.8380   33.8240 C   0  0  0  0  0  0  0  0  0  0  0  0
   32.4630   31.2410   33.7410 C   0  0  1  0  0  0  0  0  0  0  0  0
   33.5000   31.5270   34.7170 C   0  0  0  0  0  0  0  0  0  0  0  0
   34.7180   30.9660   34.8270 N   0  0  0  0  0  0  0  0  0  0  0  0
   35.5610   31.3420   35.8310 C   0  0  0  0  0  0  0  0  0  0  0  0
   35.2100   32.2890   36.7500 N   0  0  0  0  0  0  0  0  0  0  0  0
   33.9860   32.8820   36.6740 C   0  0  0  0  0  0  0  0  0  0  0  0
   33.6680   33.8320   37.6200 C   0  0  0  0  0  0  0  0  0  0  0  0
   32.4330   34.4430   37.5580 C   0  0  0  0  0  0  0  0  0  0  0  0
   31.5560   34.0910   36.5630 C   0  0  0  0  0  0  0  0  0  0  0  0
   31.9160   33.1470   35.6520 C   0  0  0  0  0  0  0  0  0  0  0  0
   33.1330   32.4940   35.6510 C   0  0  0  0  0  0  0  0  0  0  0  0
   37.4991   29.3120   31.3192 H   0  0  0  0  0  0  0  0  0  0  0  0
   41.9133   22.0303   36.2550 H   0  0  0  0  0  0  0  0  0  0  0  0
   40.9315   22.2229   38.5866 H   0  0  0  0  0  0  0  0  0  0  0  0
   38.6382   23.2745   38.8104 H   0  0  0  0  0  0  0  0  0  0  0  0
   38.6153   22.0742   33.1455 H   0  0  0  0  0  0  0  0  0  0  0  0
   37.1630   28.6311   35.9394 H   0  0  0  0  0  0  0  0  0  0  0  0
   36.3039   29.2758   34.5150 H   0  0  0  0  0  0  0  0  0  0  0  0
   32.3167   30.2990   31.5887 H   0  0  0  0  0  0  0  0  0  0  0  0
   30.6786   29.7489   33.7586 H   0  0  0  0  0  0  0  0  0  0  0  0
   31.7892   28.9823   34.5150 H   0  0  0  0  0  0  0  0  0  0  0  0
   32.1978   32.3084   33.7577 H   0  0  0  0  0  0  0  0  0  0  0  0
   36.5516   30.8691   35.9025 H   0  0  0  0  0  0  0  0  0  0  0  0
   34.3857   34.0982   38.4100 H   0  0  0  0  0  0  0  0  0  0  0  0
   32.1535   35.2058   38.2997 H   0  0  0  0  0  0  0  0  0  0  0  0
   30.5674   34.5695   36.5024 H   0  0  0  0  0  0  0  0  0  0  0  0
   31.1916   32.8872   34.8660 H   0  0  0  0  0  0  0  0  0  0  0  0
  1  5  1  0
  1 18  1  0
  2  1  2  0
  3  2  1  0
  3  4  1  0
  4 23  1  0
  4  5  2  0
  6  7  2  0
  7  8  1  0
  9  8  2  0
 10  9  1  0
 11 10  2  0
 11  6  1  0
 12 10  1  0
 13 12  1  0
 14 15  1  0
 14 13  2  0
 15 22  2  0
 16 15  1  0
 16 18  1  0
 17 16  2  0
 18 19  1  0
 19 21  2  0
 19 20  1  0
 22 12  1  0
 22 21  1  0
 23 25  1  0
 23 24  1  0
 25 24  1  0
 25 26  1  0
 26 27  2  0
 26 35  1  0
 27 28  1  0
 28 29  2  0
 30 29  1  0
 30 31  2  0
 32 31  1  0
 33 32  2  0
 34 33  1  0
 35 34  2  0
 35 30  1  0
  2 36  1  0
  6 37  1  0
  7 38  1  0
  8 39  1  0
 13 40  1  0
 20 41  1  0
 20 42  1  0
 23 43  1  6
 24 44  1  0
 24 45  1  0
 25 46  1  6
 28 47  1  0
 31 48  1  0
 32 49  1  0
 33 50  1  0
 34 51  1  0
M  ISO  8  36  14  37  14  38  14  39  14  40  14  43  13  44  13  45  13
M  ISO  6  46  13  47  14  48  14  49  14  50  14  51  14
M  END
>  <minimizedAffinity>  (1) 
-7.3314786

>  <minimizedRMSD>  (1) 
0.966540635

$$$$
