
     RDKit          3D

 47 52  0  0  1  0  0  0  0  0999 V2000
   41.2700   21.7980   36.1970 C   0  0  0  0  0  0  0  0  0  0  0  0
   40.9090   22.0260   37.5490 C   0  0  0  0  0  0  0  0  0  0  0  0
   39.7140   22.7160   37.7810 C   0  0  0  0  0  0  0  0  0  0  0  0
   38.9670   23.1320   36.7310 N   0  0  0  0  0  0  0  0  0  0  0  0
   39.3470   22.8950   35.4500 C   0  0  0  0  0  0  0  0  0  0  0  0
   40.4920   22.2320   35.1900 N   0  0  0  0  0  0  0  0  0  0  0  0
   38.5850   23.3190   34.3320 N   0  0  0  0  0  0  0  0  0  0  0  0
   38.2770   22.4610   33.3380 C   0  0  0  0  0  0  0  0  0  0  0  0
   37.5500   23.1590   32.4230 N   0  0  0  0  0  0  0  0  0  0  0  0
   37.3940   24.4180   32.8080 C   0  0  0  0  0  0  0  0  0  0  0  0
   36.7990   25.6080   32.3820 C   0  0  0  0  0  0  0  0  0  0  0  0
   36.1970   25.5050   31.2640 O   0  0  0  0  0  0  0  0  0  0  0  0
   36.8820   26.7500   33.1270 N   0  0  0  0  0  0  0  0  0  0  0  0
   37.5200   26.7800   34.2710 C   0  0  0  0  0  0  0  0  0  0  0  0
   37.4880   28.0630   34.8930 N   0  0  0  0  0  0  0  0  0  0  0  0
   38.1160   25.6560   34.7340 N   0  0  0  0  0  0  0  0  0  0  0  0
   38.0540   24.5170   34.0270 C   0  0  0  0  0  0  0  0  0  0  0  0
   36.2400   27.9560   32.6160 C   0  0  0  0  0  0  0  0  0  0  0  0
   36.8240   28.7330   31.5990 C   0  0  0  0  0  0  0  0  0  0  0  0
   35.5920   30.0940   31.3530 S   0  0  0  0  0  0  0  0  0  0  0  0
   34.4980   29.3670   32.6800 C   0  0  0  0  0  0  0  0  0  0  0  0
   35.0900   28.4550   33.0040 N   0  0  0  0  0  0  0  0  0  0  0  0
   33.1780   30.0920   32.9820 C   0  0  1  0  0  0  0  0  0  0  0  0
   31.9500   29.2890   32.9880 C   0  0  0  0  0  0  0  0  0  0  0  0
   32.6560   29.7530   34.3130 C   0  0  2  0  0  0  0  0  0  0  0  0
   31.9430   30.7960   35.0940 C   0  0  0  0  0  0  0  0  0  0  0  0
   30.7700   30.5740   35.7850 C   0  0  0  0  0  0  0  0  0  0  0  0
   30.1090   31.5450   36.5080 C   0  0  0  0  0  0  0  0  0  0  0  0
   30.6380   32.8350   36.5600 C   0  0  0  0  0  0  0  0  0  0  0  0
   31.8100   33.1110   35.8870 C   0  0  0  0  0  0  0  0  0  0  0  0
   32.4320   32.1050   35.1770 C   0  0  0  0  0  0  0  0  0  0  0  0
   42.2006   21.2579   35.9685 H   0  0  0  0  0  0  0  0  0  0  0  0
   41.5404   21.6759   38.3789 H   0  0  0  0  0  0  0  0  0  0  0  0
   39.3834   22.9193   38.8103 H   0  0  0  0  0  0  0  0  0  0  0  0
   38.5594   21.3996   33.2781 H   0  0  0  0  0  0  0  0  0  0  0  0
   37.9567   28.2081   35.7986 H   0  0  0  0  0  0  0  0  0  0  0  0
   36.9961   28.8445   34.4366 H   0  0  0  0  0  0  0  0  0  0  0  0
   37.7789   28.5717   31.0774 H   0  0  0  0  0  0  0  0  0  0  0  0
   33.4258   31.0228   32.4508 H   0  0  0  0  0  0  0  0  0  0  0  0
   30.9921   29.7352   32.6825 H   0  0  0  0  0  0  0  0  0  0  0  0
   31.6305   28.3290   32.5563 H   0  0  0  0  0  0  0  0  0  0  0  0
   33.0786   29.2836   35.2136 H   0  0  0  0  0  0  0  0  0  0  0  0
   30.3364   29.5634   35.7579 H   0  0  0  0  0  0  0  0  0  0  0  0
   29.1753   31.3050   37.0377 H   0  0  0  0  0  0  0  0  0  0  0  0
   30.1261   33.6233   37.1314 H   0  0  0  0  0  0  0  0  0  0  0  0
   32.2436   34.1215   35.9161 H   0  0  0  0  0  0  0  0  0  0  0  0
   33.3650   32.3450   34.6461 H   0  0  0  0  0  0  0  0  0  0  0  0
  1  2  2  0
  2  3  1  0
  4  3  2  0
  5  4  1  0
  6  5  2  0
  6  1  1  0
  7  5  1  0
  8  7  1  0
  9 10  1  0
  9  8  2  0
 10 17  2  0
 11 10  1  0
 11 13  1  0
 12 11  2  0
 13 14  1  0
 14 16  2  0
 14 15  1  0
 17  7  1  0
 17 16  1  0
 18 22  1  0
 18 13  1  0
 19 18  2  0
 20 19  1  0
 20 21  1  0
 21 23  1  0
 21 22  2  0
 23 24  1  0
 23 25  1  0
 24 25  1  0
 25 26  1  0
 26 31  1  0
 26 27  2  0
 27 28  1  0
 28 29  2  0
 30 29  1  0
 31 30  2  0
  1 32  1  0
  2 33  1  0
  3 34  1  0
  8 35  1  0
 15 36  1  0
 15 37  1  0
 19 38  1  0
 23 39  1  6
 24 40  1  0
 24 41  1  0
 25 42  1  1
 27 43  1  0
 28 44  1  0
 29 45  1  0
 30 46  1  0
 31 47  1  0
M  ISO  8  32  14  33  14  34  14  35  14  38  14  39  13  40  13  41  13
M  ISO  6  42  13  43  14  44  14  45  14  46  14  47  14
M  END
>  <minimizedAffinity>  (1) 
-6.21853447

>  <minimizedRMSD>  (1) 
2.09741521

$$$$
