
     RDKit          3D

 45 50  0  0  1  0  0  0  0  0999 V2000
   41.1830   21.9080   36.2920 C   0  0  0  0  0  0  0  0  0  0  0  0
   40.7960   22.1170   37.6330 C   0  0  0  0  0  0  0  0  0  0  0  0
   39.5860   22.8070   37.8370 C   0  0  0  0  0  0  0  0  0  0  0  0
   38.8730   23.2240   36.7700 N   0  0  0  0  0  0  0  0  0  0  0  0
   39.2900   22.9970   35.4830 C   0  0  0  0  0  0  0  0  0  0  0  0
   40.4340   22.3450   35.2610 N   0  0  0  0  0  0  0  0  0  0  0  0
   38.5550   23.4270   34.3650 N   0  0  0  0  0  0  0  0  0  0  0  0
   38.2830   22.5720   33.3500 C   0  0  0  0  0  0  0  0  0  0  0  0
   37.5660   23.2710   32.4270 N   0  0  0  0  0  0  0  0  0  0  0  0
   37.3800   24.5220   32.8210 C   0  0  0  0  0  0  0  0  0  0  0  0
   36.7720   25.7080   32.3890 C   0  0  0  0  0  0  0  0  0  0  0  0
   36.2000   25.6090   31.2630 O   0  0  0  0  0  0  0  0  0  0  0  0
   36.8200   26.8420   33.1500 N   0  0  0  0  0  0  0  0  0  0  0  0
   37.4330   26.8680   34.3090 C   0  0  0  0  0  0  0  0  0  0  0  0
   37.3650   28.1470   34.9410 N   0  0  0  0  0  0  0  0  0  0  0  0
   38.0370   25.7480   34.7750 N   0  0  0  0  0  0  0  0  0  0  0  0
   38.0080   24.6200   34.0520 C   0  0  0  0  0  0  0  0  0  0  0  0
   36.1660   28.0430   32.6400 C   0  0  0  0  0  0  0  0  0  0  0  0
   36.7500   28.8230   31.6140 C   0  0  0  0  0  0  0  0  0  0  0  0
   35.5040   30.1740   31.3800 S   0  0  0  0  0  0  0  0  0  0  0  0
   34.4190   29.4390   32.7110 C   0  0  0  0  0  0  0  0  0  0  0  0
   35.0180   28.5370   33.0260 N   0  0  0  0  0  0  0  0  0  0  0  0
   33.0940   30.1660   33.0120 C   0  0  1  0  0  0  0  0  0  0  0  0
   31.8670   29.3600   32.9900 C   0  0  0  0  0  0  0  0  0  0  0  0
   32.5610   29.7970   34.3300 C   0  0  2  0  0  0  0  0  0  0  0  0
   31.7320   30.7350   35.1430 C   0  0  0  0  0  0  0  0  0  0  0  0
   32.1350   32.0490   35.2810 C   0  0  0  0  0  0  0  0  0  0  0  0
   31.3870   32.9420   36.0270 C   0  0  0  0  0  0  0  0  0  0  0  0
   30.2530   32.4870   36.6170 N   0  0  0  0  0  0  0  0  0  0  0  0
   29.8710   31.1880   36.4720 C   0  0  0  0  0  0  0  0  0  0  0  0
   30.6010   30.3210   35.7420 N   0  0  0  0  0  0  0  0  0  0  0  0
   42.1216   21.3738   36.0830 H   0  0  0  0  0  0  0  0  0  0  0  0
   41.4076   21.7596   38.4745 H   0  0  0  0  0  0  0  0  0  0  0  0
   39.2250   23.0045   38.8571 H   0  0  0  0  0  0  0  0  0  0  0  0
   38.5836   21.5159   33.2840 H   0  0  0  0  0  0  0  0  0  0  0  0
   37.8104   28.2925   35.8582 H   0  0  0  0  0  0  0  0  0  0  0  0
   36.8706   28.9238   34.4795 H   0  0  0  0  0  0  0  0  0  0  0  0
   37.7033   28.6667   31.0880 H   0  0  0  0  0  0  0  0  0  0  0  0
   33.3450   31.1083   32.5030 H   0  0  0  0  0  0  0  0  0  0  0  0
   30.9107   29.8107   32.6860 H   0  0  0  0  0  0  0  0  0  0  0  0
   31.5532   28.4089   32.5351 H   0  0  0  0  0  0  0  0  0  0  0  0
   33.0295   29.3527   35.2206 H   0  0  0  0  0  0  0  0  0  0  0  0
   33.0602   32.3888   34.7927 H   0  0  0  0  0  0  0  0  0  0  0  0
   31.7022   33.9900   36.1386 H   0  0  0  0  0  0  0  0  0  0  0  0
   28.9489   30.8393   36.9600 H   0  0  0  0  0  0  0  0  0  0  0  0
  1  2  2  0
  2  3  1  0
  4  3  2  0
  5  4  1  0
  6  5  2  0
  6  1  1  0
  7  5  1  0
  8  7  1  0
  9 10  1  0
  9  8  2  0
 10 17  2  0
 11 10  1  0
 11 13  1  0
 12 11  2  0
 13 14  1  0
 14 16  2  0
 14 15  1  0
 17  7  1  0
 17 16  1  0
 18 22  1  0
 18 13  1  0
 19 18  2  0
 20 19  1  0
 20 21  1  0
 21 23  1  0
 21 22  2  0
 23 25  1  0
 24 23  1  0
 24 25  1  0
 25 26  1  0
 26 27  2  0
 26 31  1  0
 27 28  1  0
 28 29  2  0
 30 29  1  0
 31 30  2  0
  1 32  1  0
  2 33  1  0
  3 34  1  0
  8 35  1  0
 15 36  1  0
 15 37  1  0
 19 38  1  0
 23 39  1  1
 24 40  1  0
 24 41  1  0
 25 42  1  1
 27 43  1  0
 28 44  1  0
 30 45  1  0
M  ISO  8  32  14  33  14  34  14  35  14  38  14  39  13  40  13  41  13
M  ISO  4  42  13  43  14  44  14  45  14
M  END
>  <minimizedAffinity>  (1) 
-6.15236664

>  <minimizedRMSD>  (1) 
1.90028954

$$$$
