
     RDKit          3D

 38 42  0  0  1  0  0  0  0  0999 V2000
   40.0760   22.9470   37.1730 C   0  0  0  0  0  0  0  0  0  0  0  0
   39.2940   23.0940   38.3570 C   0  0  0  0  0  0  0  0  0  0  0  0
   38.0340   23.6880   38.2230 C   0  0  0  0  0  0  0  0  0  0  0  0
   37.6140   24.0930   37.0040 N   0  0  0  0  0  0  0  0  0  0  0  0
   38.3840   23.9380   35.8970 C   0  0  0  0  0  0  0  0  0  0  0  0
   39.6070   23.3700   35.9820 N   0  0  0  0  0  0  0  0  0  0  0  0
   37.9710   24.3550   34.6040 N   0  0  0  0  0  0  0  0  0  0  0  0
   38.0540   23.5230   33.5470 C   0  0  0  0  0  0  0  0  0  0  0  0
   37.5910   24.2080   32.4660 N   0  0  0  0  0  0  0  0  0  0  0  0
   37.2230   25.4370   32.8170 C   0  0  0  0  0  0  0  0  0  0  0  0
   36.6930   26.5990   32.2430 C   0  0  0  0  0  0  0  0  0  0  0  0
   36.4740   26.5040   30.9930 O   0  0  0  0  0  0  0  0  0  0  0  0
   36.4490   27.7100   33.0020 N   0  0  0  0  0  0  0  0  0  0  0  0
   36.7010   27.7320   34.2870 C   0  0  0  0  0  0  0  0  0  0  0  0
   36.3730   28.9820   34.8960 N   0  0  0  0  0  0  0  0  0  0  0  0
   37.2150   26.6310   34.8860 N   0  0  0  0  0  0  0  0  0  0  0  0
   37.4650   25.5340   34.1850 C   0  0  0  0  0  0  0  0  0  0  0  0
   35.8990   28.8870   32.3420 C   0  0  0  0  0  0  0  0  0  0  0  0
   36.6730   29.7040   31.5110 C   0  0  0  0  0  0  0  0  0  0  0  0
   35.4850   31.0050   30.9570 S   0  0  0  0  0  0  0  0  0  0  0  0
   34.1240   30.2080   31.9610 C   0  0  0  0  0  0  0  0  0  0  0  0
   34.6640   29.3240   32.4220 N   0  0  0  0  0  0  0  0  0  0  0  0
   32.7370   30.8680   31.9140 C   0  0  1  0  0  0  0  0  0  0  0  0
   31.7550   30.4400   32.9190 C   0  0  0  0  0  0  0  0  0  0  0  0
   32.5300   31.7940   33.0400 C   0  0  1  0  0  0  0  0  0  0  0  0
   33.7350   31.9340   34.3780 S   0  0  0  0  0  0  0  0  0  0  0  0
   41.0719   22.4837   37.2324 H   0  0  0  0  0  0  0  0  0  0  0  0
   39.6660   22.7545   39.3349 H   0  0  0  0  0  0  0  0  0  0  0  0
   37.3897   23.8244   39.1041 H   0  0  0  0  0  0  0  0  0  0  0  0
   38.4252   22.4876   33.5563 H   0  0  0  0  0  0  0  0  0  0  0  0
   36.5275   29.1195   35.9050 H   0  0  0  0  0  0  0  0  0  0  0  0
   35.9820   29.7457   34.3261 H   0  0  0  0  0  0  0  0  0  0  0  0
   37.7362   29.5970   31.2497 H   0  0  0  0  0  0  0  0  0  0  0  0
   32.6678   30.9361   30.8183 H   0  0  0  0  0  0  0  0  0  0  0  0
   30.6814   30.4339   32.6793 H   0  0  0  0  0  0  0  0  0  0  0  0
   31.6103   29.5536   33.5541 H   0  0  0  0  0  0  0  0  0  0  0  0
   32.2936   32.8656   33.1165 H   0  0  0  0  0  0  0  0  0  0  0  0
   33.0892   31.8590   35.5839 H   0  0  0  0  0  0  0  0  0  0  0  0
  1  2  2  0
  3  2  1  0
  4  3  2  0
  5  6  2  0
  5  4  1  0
  6  1  1  0
  7  5  1  0
  8  7  1  0
  9 10  1  0
  9  8  2  0
 10 17  2  0
 11 10  1  0
 11 13  1  0
 12 11  2  0
 13 14  1  0
 14 16  2  0
 14 15  1  0
 17  7  1  0
 17 16  1  0
 18 22  1  0
 18 13  1  0
 19 18  2  0
 20 19  1  0
 20 21  1  0
 21 22  2  0
 23 21  1  0
 23 24  1  0
 23 25  1  0
 24 25  1  0
 25 26  1  0
  1 27  1  0
  2 28  1  0
  3 29  1  0
  8 30  1  0
 15 31  1  0
 15 32  1  0
 19 33  1  0
 23 34  1  6
 24 35  1  0
 24 36  1  0
 25 37  1  6
 26 38  1  0
M  ISO  8  27  14  28  14  29  14  30  14  33  14  34  13  35  13  36  13
M  ISO  2  37  13  38  11
M  END
>  <minimizedAffinity>  (1) 
-5.90440369

>  <minimizedRMSD>  (1) 
0.182632759

$$$$
