
     RDKit          3D

 38 42  0  0  1  0  0  0  0  0999 V2000
   40.0640   22.9380   37.1770 C   0  0  0  0  0  0  0  0  0  0  0  0
   39.3030   23.0900   38.3590 C   0  0  0  0  0  0  0  0  0  0  0  0
   38.0460   23.7000   38.2280 C   0  0  0  0  0  0  0  0  0  0  0  0
   37.6300   24.1040   37.0080 N   0  0  0  0  0  0  0  0  0  0  0  0
   38.3930   23.9400   35.8980 C   0  0  0  0  0  0  0  0  0  0  0  0
   39.6040   23.3600   35.9810 N   0  0  0  0  0  0  0  0  0  0  0  0
   37.9770   24.3570   34.6100 N   0  0  0  0  0  0  0  0  0  0  0  0
   38.0580   23.5200   33.5550 C   0  0  0  0  0  0  0  0  0  0  0  0
   37.5900   24.2000   32.4710 N   0  0  0  0  0  0  0  0  0  0  0  0
   37.2220   25.4300   32.8180 C   0  0  0  0  0  0  0  0  0  0  0  0
   36.6880   26.5900   32.2430 C   0  0  0  0  0  0  0  0  0  0  0  0
   36.4650   26.4890   30.9950 O   0  0  0  0  0  0  0  0  0  0  0  0
   36.4460   27.7020   32.9990 N   0  0  0  0  0  0  0  0  0  0  0  0
   36.7020   27.7300   34.2850 C   0  0  0  0  0  0  0  0  0  0  0  0
   36.3780   28.9810   34.8850 N   0  0  0  0  0  0  0  0  0  0  0  0
   37.2210   26.6250   34.8810 N   0  0  0  0  0  0  0  0  0  0  0  0
   37.4690   25.5240   34.1760 C   0  0  0  0  0  0  0  0  0  0  0  0
   35.8890   28.8780   32.3370 C   0  0  0  0  0  0  0  0  0  0  0  0
   36.6600   29.6720   31.4670 C   0  0  0  0  0  0  0  0  0  0  0  0
   35.4590   30.9780   30.9360 S   0  0  0  0  0  0  0  0  0  0  0  0
   34.1210   30.2130   31.9930 C   0  0  0  0  0  0  0  0  0  0  0  0
   34.6650   29.3330   32.4480 N   0  0  0  0  0  0  0  0  0  0  0  0
   32.7380   30.8930   31.9740 C   0  0  1  0  0  0  0  0  0  0  0  0
   31.6590   30.2370   32.7270 C   0  0  0  0  0  0  0  0  0  0  0  0
   32.4140   31.4930   33.2760 C   0  0  2  0  0  0  0  0  0  0  0  0
   31.5780   32.6000   33.3730 O   0  0  0  0  0  0  0  0  0  0  0  0
   41.0551   22.4642   37.2340 H   0  0  0  0  0  0  0  0  0  0  0  0
   39.6783   22.7466   39.3343 H   0  0  0  0  0  0  0  0  0  0  0  0
   37.4057   23.8477   39.1102 H   0  0  0  0  0  0  0  0  0  0  0  0
   38.4310   22.4852   33.5676 H   0  0  0  0  0  0  0  0  0  0  0  0
   36.5349   29.1248   35.8928 H   0  0  0  0  0  0  0  0  0  0  0  0
   35.9868   29.7415   34.3110 H   0  0  0  0  0  0  0  0  0  0  0  0
   37.7133   29.5477   31.1753 H   0  0  0  0  0  0  0  0  0  0  0  0
   32.7801   31.2466   30.9332 H   0  0  0  0  0  0  0  0  0  0  0  0
   30.6155   30.3194   32.3889 H   0  0  0  0  0  0  0  0  0  0  0  0
   31.4530   29.2184   33.0877 H   0  0  0  0  0  0  0  0  0  0  0  0
   33.0430   31.7952   34.1263 H   0  0  0  0  0  0  0  0  0  0  0  0
   31.4188   32.8107   34.3271 H   0  0  0  0  0  0  0  0  0  0  0  0
  1  2  2  0
  3  2  1  0
  4  3  2  0
  5  6  2  0
  5  4  1  0
  6  1  1  0
  7  5  1  0
  8  7  1  0
  9 10  1  0
  9  8  2  0
 10 17  2  0
 11 10  1  0
 11 13  1  0
 12 11  2  0
 13 14  1  0
 14 16  2  0
 14 15  1  0
 17  7  1  0
 17 16  1  0
 18 22  1  0
 18 13  1  0
 19 18  2  0
 20 19  1  0
 20 21  1  0
 21 22  2  0
 23 21  1  0
 23 24  1  0
 23 25  1  0
 24 25  1  0
 25 26  1  0
  1 27  1  0
  2 28  1  0
  3 29  1  0
  8 30  1  0
 15 31  1  0
 15 32  1  0
 19 33  1  0
 23 34  1  6
 24 35  1  0
 24 36  1  0
 25 37  1  1
 26 38  1  0
M  ISO  8  27  14  28  14  29  14  30  14  33  14  34  13  35  13  36  13
M  ISO  2  37  13  38   3
M  END
>  <minimizedAffinity>  (1) 
-5.88971472

>  <minimizedRMSD>  (1) 
0.0926462263

$$$$
