
     RDKit          3D

 44 49  0  0  1  0  0  0  0  0999 V2000
   40.9210   22.4230   36.4330 C   0  0  0  0  0  0  0  0  0  0  0  0
   40.3970   22.5600   37.7410 C   0  0  0  0  0  0  0  0  0  0  0  0
   39.1360   23.1620   37.8570 C   0  0  0  0  0  0  0  0  0  0  0  0
   38.4910   23.5760   36.7430 N   0  0  0  0  0  0  0  0  0  0  0  0
   39.0300   23.4250   35.5080 C   0  0  0  0  0  0  0  0  0  0  0  0
   40.2370   22.8510   35.3550 N   0  0  0  0  0  0  0  0  0  0  0  0
   38.3760   23.8500   34.3250 N   0  0  0  0  0  0  0  0  0  0  0  0
   38.2560   23.0240   33.2660 C   0  0  0  0  0  0  0  0  0  0  0  0
   37.5910   23.7080   32.2980 N   0  0  0  0  0  0  0  0  0  0  0  0
   37.2910   24.9260   32.7080 C   0  0  0  0  0  0  0  0  0  0  0  0
   36.6560   26.0950   32.2660 C   0  0  0  0  0  0  0  0  0  0  0  0
   36.2010   26.0030   31.0800 O   0  0  0  0  0  0  0  0  0  0  0  0
   36.5580   27.2030   33.0620 N   0  0  0  0  0  0  0  0  0  0  0  0
   37.0540   27.2210   34.2750 C   0  0  0  0  0  0  0  0  0  0  0  0
   36.8470   28.4660   34.9370 N   0  0  0  0  0  0  0  0  0  0  0  0
   37.6790   26.1110   34.7520 N   0  0  0  0  0  0  0  0  0  0  0  0
   37.7910   25.0210   34.0060 C   0  0  0  0  0  0  0  0  0  0  0  0
   35.8850   28.3780   32.5250 C   0  0  0  0  0  0  0  0  0  0  0  0
   36.4950   29.2180   31.5790 C   0  0  0  0  0  0  0  0  0  0  0  0
   35.2010   30.5050   31.2620 S   0  0  0  0  0  0  0  0  0  0  0  0
   34.0510   29.6710   32.4770 C   0  0  0  0  0  0  0  0  0  0  0  0
   34.6750   28.7920   32.8260 N   0  0  0  0  0  0  0  0  0  0  0  0
   32.6590   30.3140   32.6780 C   0  0  1  0  0  0  0  0  0  0  0  0
   31.5650   29.4070   33.0570 C   0  0  0  0  0  0  0  0  0  0  0  0
   32.2790   30.3360   34.0990 C   0  0  2  0  0  0  0  0  0  0  0  0
   31.3990   31.4400   34.5990 C   0  0  0  0  0  0  0  0  0  0  0  0
   31.2340   32.7140   34.0870 C   0  0  0  0  0  0  0  0  0  0  0  0
   30.3130   33.3930   34.8810 C   0  0  0  0  0  0  0  0  0  0  0  0
   29.9610   32.4600   35.8630 C   0  0  0  0  0  0  0  0  0  0  0  0
   30.6090   31.3560   35.6590 O   0  0  0  0  0  0  0  0  0  0  0  0
   41.9078   21.9571   36.2944 H   0  0  0  0  0  0  0  0  0  0  0  0
   40.9525   22.2109   38.6239 H   0  0  0  0  0  0  0  0  0  0  0  0
   38.6750   23.2965   38.8466 H   0  0  0  0  0  0  0  0  0  0  0  0
   38.6267   21.9906   33.1983 H   0  0  0  0  0  0  0  0  0  0  0  0
   37.1927   28.6022   35.8977 H   0  0  0  0  0  0  0  0  0  0  0  0
   36.3517   29.2296   34.4548 H   0  0  0  0  0  0  0  0  0  0  0  0
   37.4975   29.1324   31.1344 H   0  0  0  0  0  0  0  0  0  0  0  0
   32.7340   31.0615   31.8745 H   0  0  0  0  0  0  0  0  0  0  0  0
   30.5330   29.6176   32.7397 H   0  0  0  0  0  0  0  0  0  0  0  0
   31.3642   28.3293   32.9659 H   0  0  0  0  0  0  0  0  0  0  0  0
   32.8464   30.2422   35.0367 H   0  0  0  0  0  0  0  0  0  0  0  0
   31.7441   33.1222   33.2020 H   0  0  0  0  0  0  0  0  0  0  0  0
   29.9471   34.4237   34.7635 H   0  0  0  0  0  0  0  0  0  0  0  0
   29.2461   32.6360   36.6803 H   0  0  0  0  0  0  0  0  0  0  0  0
  1  2  2  0
  2  3  1  0
  4  3  2  0
  5  4  1  0
  6  5  2  0
  6  1  1  0
  7  5  1  0
  8  7  1  0
  9 10  1  0
  9  8  2  0
 10 17  2  0
 11 10  1  0
 11 13  1  0
 12 11  2  0
 13 14  1  0
 14 16  2  0
 14 15  1  0
 17  7  1  0
 17 16  1  0
 18 22  1  0
 18 13  1  0
 19 18  2  0
 20 19  1  0
 20 21  1  0
 21 23  1  0
 21 22  2  0
 23 24  1  0
 23 25  1  0
 24 25  1  0
 25 26  1  0
 26 30  1  0
 27 26  2  0
 27 28  1  0
 28 29  2  0
 30 29  1  0
  1 31  1  0
  2 32  1  0
  3 33  1  0
  8 34  1  0
 15 35  1  0
 15 36  1  0
 19 37  1  0
 23 38  1  6
 24 39  1  0
 24 40  1  0
 25 41  1  1
 27 42  1  0
 28 43  1  0
 29 44  1  0
M  ISO  8  31  14  32  14  33  14  34  14  37  14  38  13  39  13  40  13
M  ISO  4  41  13  42  14  43  14  44  14
M  END
>  <minimizedAffinity>  (1) 
-5.84361124

>  <minimizedRMSD>  (1) 
1.35558438

$$$$
