
     RDKit          3D

 44 49  0  0  1  0  0  0  0  0999 V2000
   40.4160   22.8140   36.8020 C   0  0  0  0  0  0  0  0  0  0  0  0
   39.7580   22.9180   38.0510 C   0  0  0  0  0  0  0  0  0  0  0  0
   38.4880   23.5190   38.0460 C   0  0  0  0  0  0  0  0  0  0  0  0
   37.9630   23.9600   36.8820 N   0  0  0  0  0  0  0  0  0  0  0  0
   38.6370   23.8370   35.6970 C   0  0  0  0  0  0  0  0  0  0  0  0
   39.8510   23.2700   35.6670 N   0  0  0  0  0  0  0  0  0  0  0  0
   38.1060   24.2900   34.4800 N   0  0  0  0  0  0  0  0  0  0  0  0
   38.0900   23.4780   33.3890 C   0  0  0  0  0  0  0  0  0  0  0  0
   37.5220   24.1810   32.3730 N   0  0  0  0  0  0  0  0  0  0  0  0
   37.1810   25.3930   32.7710 C   0  0  0  0  0  0  0  0  0  0  0  0
   36.5940   26.5690   32.2930 C   0  0  0  0  0  0  0  0  0  0  0  0
   36.2550   26.5020   31.0690 O   0  0  0  0  0  0  0  0  0  0  0  0
   36.4180   27.6620   33.0970 N   0  0  0  0  0  0  0  0  0  0  0  0
   36.7920   27.6570   34.3520 C   0  0  0  0  0  0  0  0  0  0  0  0
   36.5220   28.8910   35.0150 N   0  0  0  0  0  0  0  0  0  0  0  0
   37.3660   26.5460   34.8690 N   0  0  0  0  0  0  0  0  0  0  0  0
   37.5530   25.4620   34.1130 C   0  0  0  0  0  0  0  0  0  0  0  0
   35.7970   28.8500   32.5190 C   0  0  0  0  0  0  0  0  0  0  0  0
   36.4470   29.6330   31.5540 C   0  0  0  0  0  0  0  0  0  0  0  0
   35.2110   30.9670   31.1900 S   0  0  0  0  0  0  0  0  0  0  0  0
   34.0250   30.2200   32.4220 C   0  0  0  0  0  0  0  0  0  0  0  0
   34.6050   29.3240   32.8030 N   0  0  0  0  0  0  0  0  0  0  0  0
   32.6710   30.9230   32.6000 C   0  0  1  0  0  0  0  0  0  0  0  0
   31.5050   30.0790   32.9060 C   0  0  0  0  0  0  0  0  0  0  0  0
   32.2090   30.8980   34.0000 C   0  0  2  0  0  0  0  0  0  0  0  0
   31.4730   32.0220   34.6180 C   0  0  0  0  0  0  0  0  0  0  0  0
   32.1950   32.7850   35.7170 C   0  0  0  0  0  0  0  0  0  0  0  0
   30.9220   32.0210   35.9930 C   0  0  0  0  0  0  0  0  0  0  0  0
   41.4123   22.3499   36.7570 H   0  0  0  0  0  0  0  0  0  0  0  0
   40.2178   22.5470   38.9788 H   0  0  0  0  0  0  0  0  0  0  0  0
   37.9246   23.6298   38.9842 H   0  0  0  0  0  0  0  0  0  0  0  0
   38.4662   22.4456   33.3380 H   0  0  0  0  0  0  0  0  0  0  0  0
   36.7720   29.0079   36.0073 H   0  0  0  0  0  0  0  0  0  0  0  0
   36.0770   29.6650   34.5013 H   0  0  0  0  0  0  0  0  0  0  0  0
   37.4471   29.4905   31.1187 H   0  0  0  0  0  0  0  0  0  0  0  0
   32.8360   31.6945   31.8334 H   0  0  0  0  0  0  0  0  0  0  0  0
   30.5038   30.3693   32.5548 H   0  0  0  0  0  0  0  0  0  0  0  0
   31.2422   29.0204   32.7635 H   0  0  0  0  0  0  0  0  0  0  0  0
   32.7064   30.7089   34.9627 H   0  0  0  0  0  0  0  0  0  0  0  0
   30.9997   32.2260   33.6462 H   0  0  0  0  0  0  0  0  0  0  0  0
   33.1565   32.4187   36.1061 H   0  0  0  0  0  0  0  0  0  0  0  0
   32.5377   33.8203   35.8609 H   0  0  0  0  0  0  0  0  0  0  0  0
   29.9923   32.5674   36.2101 H   0  0  0  0  0  0  0  0  0  0  0  0
   30.6328   31.2363   36.7076 H   0  0  0  0  0  0  0  0  0  0  0  0
  1  2  2  0
  3  2  1  0
  4  3  2  0
  5  4  1  0
  6  5  2  0
  6  1  1  0
  7  5  1  0
  8  7  1  0
  9 10  1  0
  9  8  2  0
 10 17  2  0
 11 10  1  0
 11 13  1  0
 12 11  2  0
 13 14  1  0
 14 16  2  0
 14 15  1  0
 17  7  1  0
 17 16  1  0
 18 22  1  0
 18 13  1  0
 19 18  2  0
 20 19  1  0
 20 21  1  0
 21 23  1  0
 21 22  2  0
 23 24  1  0
 23 25  1  0
 24 25  1  0
 25 26  1  0
 26 27  1  0
 26 28  1  0
 27 28  1  0
  1 29  1  0
  2 30  1  0
  3 31  1  0
  8 32  1  0
 15 33  1  0
 15 34  1  0
 19 35  1  0
 23 36  1  6
 24 37  1  0
 24 38  1  0
 25 39  1  1
 26 40  1  0
 27 41  1  0
 27 42  1  0
 28 43  1  0
 28 44  1  0
M  ISO  8  29  14  30  14  31  14  32  14  35  14  36  13  37  13  38  13
M  ISO  6  39  13  40  13  41  13  42  13  43  13  44  13
M  END
>  <minimizedAffinity>  (1) 
-5.79019356

>  <minimizedRMSD>  (1) 
1.18331873

$$$$
