
     RDKit          3D

 39 43  0  0  1  0  0  0  0  0999 V2000
   40.0550   22.9200   37.2120 C   0  0  0  0  0  0  0  0  0  0  0  0
   39.2880   23.0660   38.3850 C   0  0  0  0  0  0  0  0  0  0  0  0
   38.0280   23.6750   38.2430 C   0  0  0  0  0  0  0  0  0  0  0  0
   37.6180   24.0830   37.0210 N   0  0  0  0  0  0  0  0  0  0  0  0
   38.4030   23.9180   35.9070 C   0  0  0  0  0  0  0  0  0  0  0  0
   39.6120   23.3400   36.0100 N   0  0  0  0  0  0  0  0  0  0  0  0
   37.9910   24.3350   34.6340 N   0  0  0  0  0  0  0  0  0  0  0  0
   38.0620   23.4790   33.5710 C   0  0  0  0  0  0  0  0  0  0  0  0
   37.5970   24.1580   32.4800 N   0  0  0  0  0  0  0  0  0  0  0  0
   37.2410   25.3950   32.8250 C   0  0  0  0  0  0  0  0  0  0  0  0
   36.7170   26.5530   32.2400 C   0  0  0  0  0  0  0  0  0  0  0  0
   36.4900   26.4470   30.9960 O   0  0  0  0  0  0  0  0  0  0  0  0
   36.4870   27.6740   32.9870 N   0  0  0  0  0  0  0  0  0  0  0  0
   36.7480   27.7060   34.2710 C   0  0  0  0  0  0  0  0  0  0  0  0
   36.4330   28.9670   34.8680 N   0  0  0  0  0  0  0  0  0  0  0  0
   37.2530   26.6120   34.8780 N   0  0  0  0  0  0  0  0  0  0  0  0
   37.4920   25.4970   34.1800 C   0  0  0  0  0  0  0  0  0  0  0  0
   35.9420   28.8530   32.3200 C   0  0  0  0  0  0  0  0  0  0  0  0
   36.7100   29.6070   31.4110 C   0  0  0  0  0  0  0  0  0  0  0  0
   35.5380   30.9370   30.8890 S   0  0  0  0  0  0  0  0  0  0  0  0
   34.2100   30.2310   32.0010 C   0  0  0  0  0  0  0  0  0  0  0  0
   34.7350   29.3380   32.4630 N   0  0  0  0  0  0  0  0  0  0  0  0
   32.8500   30.9520   32.0060 C   0  0  1  0  0  0  0  0  0  0  0  0
   31.7370   30.2820   32.6920 C   0  0  0  0  0  0  0  0  0  0  0  0
   32.5170   31.4820   33.3390 C   0  0  2  0  0  0  0  0  0  0  0  0
   31.7770   32.7740   33.3500 C   0  0  0  0  0  0  0  0  0  0  0  0
   31.8940   33.6060   34.2190 O   0  0  0  0  0  0  0  0  0  0  0  0
   41.0465   22.4484   37.2792 H   0  0  0  0  0  0  0  0  0  0  0  0
   39.6560   22.7211   39.3625 H   0  0  0  0  0  0  0  0  0  0  0  0
   37.3804   23.8184   39.1206 H   0  0  0  0  0  0  0  0  0  0  0  0
   38.4246   22.4406   33.5900 H   0  0  0  0  0  0  0  0  0  0  0  0
   36.5945   29.1150   35.8744 H   0  0  0  0  0  0  0  0  0  0  0  0
   36.0446   29.7271   34.2915 H   0  0  0  0  0  0  0  0  0  0  0  0
   37.7498   29.4443   31.0912 H   0  0  0  0  0  0  0  0  0  0  0  0
   32.9243   31.3704   30.9914 H   0  0  0  0  0  0  0  0  0  0  0  0
   30.7042   30.4165   32.3382 H   0  0  0  0  0  0  0  0  0  0  0  0
   31.4944   29.2490   32.9819 H   0  0  0  0  0  0  0  0  0  0  0  0
   33.0654   31.6650   34.2748 H   0  0  0  0  0  0  0  0  0  0  0  0
   31.0851   32.9831   32.5208 H   0  0  0  0  0  0  0  0  0  0  0  0
  1  2  2  0
  3  2  1  0
  4  3  2  0
  5  6  2  0
  5  4  1  0
  6  1  1  0
  7  5  1  0
  8  7  1  0
  9 10  1  0
  9  8  2  0
 10 17  2  0
 11 10  1  0
 11 13  1  0
 12 11  2  0
 13 14  1  0
 14 15  1  0
 14 16  2  0
 17  7  1  0
 17 16  1  0
 18 22  1  0
 18 13  1  0
 19 18  2  0
 20 19  1  0
 20 21  1  0
 21 23  1  0
 21 22  2  0
 23 24  1  0
 23 25  1  0
 24 25  1  0
 25 26  1  0
 26 27  2  0
  1 28  1  0
  2 29  1  0
  3 30  1  0
  8 31  1  0
 15 32  1  0
 15 33  1  0
 19 34  1  0
 23 35  1  6
 24 36  1  0
 24 37  1  0
 25 38  1  1
 26 39  1  0
M  ISO  8  28  14  29  14  30  14  31  14  34  14  35  13  36  13  37  13
M  ISO  2  38  13  39   6
M  END
>  <minimizedAffinity>  (1) 
-5.66541576

>  <minimizedRMSD>  (1) 
0.129683122

$$$$
