
     RDKit          3D

 20 21  0  0  0  0  0  0  0  0999 V2000
   38.3890   23.4720   33.7630 C   0  0  0  0  0  0  0  0  0  0  0  0
   37.6410   22.3900   34.2720 C   0  0  0  0  0  0  0  0  0  0  0  0
   37.8240   22.0480   35.6110 C   0  0  0  0  0  0  0  0  0  0  0  0
   38.7040   22.7640   36.3590 N   0  0  0  0  0  0  0  0  0  0  0  0
   39.4120   23.8020   35.8410 C   0  0  0  0  0  0  0  0  0  0  0  0
   39.2490   24.1510   34.5420 N   0  0  0  0  0  0  0  0  0  0  0  0
   36.7240   21.6900   33.3800 C   0  0  0  0  0  0  0  0  0  0  0  0
   36.7050   22.1280   32.0710 C   0  0  0  0  0  0  0  0  0  0  0  0
   35.8280   21.4600   31.2160 C   0  0  0  0  0  0  0  0  0  0  0  0
   35.0380   20.4250   31.6800 C   0  0  0  0  0  0  0  0  0  0  0  0
   35.1160   20.0460   33.0040 C   0  0  0  0  0  0  0  0  0  0  0  0
   35.9690   20.6690   33.9180 C   0  0  0  0  0  0  0  0  0  0  0  0
   38.2666   23.7655   32.7100 H   0  0  0  0  0  0  0  0  0  0  0  0
   37.2647   21.2114   36.0552 H   0  0  0  0  0  0  0  0  0  0  0  0
   40.1170   24.3585   36.4760 H   0  0  0  0  0  0  0  0  0  0  0  0
   37.3429   22.9539   31.7231 H   0  0  0  0  0  0  0  0  0  0  0  0
   35.7644   21.7606   30.1598 H   0  0  0  0  0  0  0  0  0  0  0  0
   34.3501   19.9058   30.9964 H   0  0  0  0  0  0  0  0  0  0  0  0
   34.4805   19.2194   33.3544 H   0  0  0  0  0  0  0  0  0  0  0  0
   36.0330   20.3711   34.9750 H   0  0  0  0  0  0  0  0  0  0  0  0
  1  2  2  0
  1  6  1  0
  2  3  1  0
  3  4  2  0
  5  4  1  0
  6  5  2  0
  7 12  1  0
  7  2  1  0
  8  7  2  0
  9 10  2  0
  9  8  1  0
 10 11  1  0
 11 12  2  0
  1 13  1  0
  3 14  1  0
  5 15  1  0
  8 16  1  0
  9 17  1  0
 10 18  1  0
 11 19  1  0
 12 20  1  0
M  ISO  8  13  14  14  14  15  14  16  14  17  14  18  14  19  14  20  14
M  END
>  <minimizedAffinity>  (1) 
-3.51426959

>  <minimizedRMSD>  (1) 
7.39207315

$$$$
