
     RDKit          3D

 34 37  0  0  0  0  0  0  0  0999 V2000
   37.0870   21.9010   33.3420 C   0  0  0  0  0  0  0  0  0  0  0  0
   36.0940   20.9340   33.1830 C   0  0  0  0  0  0  0  0  0  0  0  0
   35.5630   20.3990   34.3620 C   0  0  0  0  0  0  0  0  0  0  0  0
   36.0410   20.8480   35.6010 C   0  0  0  0  0  0  0  0  0  0  0  0
   37.0420   21.8250   35.6640 C   0  0  0  0  0  0  0  0  0  0  0  0
   37.5910   22.3780   34.5210 C   0  0  0  0  0  0  0  0  0  0  0  0
   38.5570   23.3840   34.8600 C   0  0  0  0  0  0  0  0  0  0  0  0
   39.8820   23.0020   35.1180 C   0  0  0  0  0  0  0  0  0  0  0  0
   40.5700   24.1350   35.3830 N   0  0  0  0  0  0  0  0  0  0  0  0
   39.7480   25.2050   35.3030 C   0  0  0  0  0  0  0  0  0  0  0  0
   39.9280   26.5540   35.4760 C   0  0  0  0  0  0  0  0  0  0  0  0
   38.8500   27.4170   35.3200 C   0  0  0  0  0  0  0  0  0  0  0  0
   37.5890   26.9360   34.9910 C   0  0  0  0  0  0  0  0  0  0  0  0
   37.3630   25.5790   34.8070 C   0  0  0  0  0  0  0  0  0  0  0  0
   38.4670   24.7800   34.9760 C   0  0  0  0  0  0  0  0  0  0  0  0
   37.0470   23.6190   31.5670 C   0  0  0  0  0  0  0  0  0  0  0  0
   37.6330   22.4270   32.1070 C   0  0  0  0  0  0  0  0  0  0  0  0
   38.6830   21.8320   31.4260 C   0  0  0  0  0  0  0  0  0  0  0  0
   39.1240   22.4000   30.2680 N   0  0  0  0  0  0  0  0  0  0  0  0
   38.5440   23.5470   29.7690 C   0  0  0  0  0  0  0  0  0  0  0  0
   37.5020   24.1600   30.4210 N   0  0  0  0  0  0  0  0  0  0  0  0
   35.7489   20.6112   32.1897 H   0  0  0  0  0  0  0  0  0  0  0  0
   34.7762   19.6316   34.3169 H   0  0  0  0  0  0  0  0  0  0  0  0
   35.6268   20.4298   36.5303 H   0  0  0  0  0  0  0  0  0  0  0  0
   37.4011   22.1615   36.6478 H   0  0  0  0  0  0  0  0  0  0  0  0
   40.2836   21.9780   35.1068 H   0  0  0  0  0  0  0  0  0  0  0  0
   41.5733   24.1768   35.6122 H   0  0  0  0  0  0  0  0  0  0  0  0
   40.9204   26.9504   35.7368 H   0  0  0  0  0  0  0  0  0  0  0  0
   38.9976   28.4981   35.4592 H   0  0  0  0  0  0  0  0  0  0  0  0
   36.7546   27.6433   34.8742 H   0  0  0  0  0  0  0  0  0  0  0  0
   36.3742   25.1741   34.5455 H   0  0  0  0  0  0  0  0  0  0  0  0
   36.2119   24.0995   32.0977 H   0  0  0  0  0  0  0  0  0  0  0  0
   39.1530   20.9161   31.8136 H   0  0  0  0  0  0  0  0  0  0  0  0
   38.9229   23.9793   28.8311 H   0  0  0  0  0  0  0  0  0  0  0  0
  1  6  1  0
  2  1  2  0
  2  3  1  0
  3  4  2  0
  4  5  1  0
  6  7  1  0
  6  5  2  0
  7 15  1  0
  7  8  2  0
  8  9  1  0
 10  9  1  0
 10 11  2  0
 12 11  1  0
 13 12  2  0
 14 15  2  0
 14 13  1  0
 15 10  1  0
 16 17  2  0
 17  1  1  0
 18 17  1  0
 19 18  2  0
 20 19  1  0
 20 21  2  0
 21 16  1  0
  2 22  1  0
  3 23  1  0
  4 24  1  0
  5 25  1  0
  8 26  1  0
  9 27  1  0
 11 28  1  0
 12 29  1  0
 13 30  1  0
 14 31  1  0
 16 32  1  0
 18 33  1  0
 20 34  1  0
M  ISO  8  22  14  23  14  24  14  25  14  26  14  27   9  28  14  29  14
M  ISO  5  30  14  31  14  32  14  33  14  34  14
M  END
>  <minimizedAffinity>  (1) 
-4.89481449

>  <minimizedRMSD>  (1) 
5.03694439

$$$$
