
     RDKit          3D

 30 32  0  0  0  0  0  0  0  0999 V2000
   37.2350   24.2200   32.5850 C   0  0  0  0  0  0  0  0  0  0  0  0
   37.2320   25.6130   32.6710 C   0  0  0  0  0  0  0  0  0  0  0  0
   36.2770   26.2740   31.8930 C   0  0  0  0  0  0  0  0  0  0  0  0
   35.3980   25.5370   31.0910 C   0  0  0  0  0  0  0  0  0  0  0  0
   35.4640   24.1420   31.0610 C   0  0  0  0  0  0  0  0  0  0  0  0
   36.3970   23.4540   31.8210 C   0  0  0  0  0  0  0  0  0  0  0  0
   37.8720   23.1540   34.7090 C   0  0  0  0  0  0  0  0  0  0  0  0
   38.2320   23.5450   33.3780 C   0  0  0  0  0  0  0  0  0  0  0  0
   39.5150   23.2580   32.9190 C   0  0  0  0  0  0  0  0  0  0  0  0
   40.3860   22.6140   33.7430 N   0  0  0  0  0  0  0  0  0  0  0  0
   40.0220   22.2480   35.0170 C   0  0  0  0  0  0  0  0  0  0  0  0
   38.7640   22.5200   35.4970 N   0  0  0  0  0  0  0  0  0  0  0  0
   36.2250   22.0390   31.6450 C   0  0  0  0  0  0  0  0  0  0  0  0
   36.9890   21.1630   30.8580 C   0  0  0  0  0  0  0  0  0  0  0  0
   36.6210   19.8360   30.8190 C   0  0  0  0  0  0  0  0  0  0  0  0
   35.5390   19.3550   31.5220 C   0  0  0  0  0  0  0  0  0  0  0  0
   34.7650   20.2030   32.3100 C   0  0  0  0  0  0  0  0  0  0  0  0
   35.1310   21.5130   32.3470 C   0  0  0  0  0  0  0  0  0  0  0  0
   37.9393   26.1585   33.3130 H   0  0  0  0  0  0  0  0  0  0  0  0
   36.2164   27.3722   31.9111 H   0  0  0  0  0  0  0  0  0  0  0  0
   34.6488   26.0608   30.4791 H   0  0  0  0  0  0  0  0  0  0  0  0
   34.7645   23.5806   30.4242 H   0  0  0  0  0  0  0  0  0  0  0  0
   36.8633   23.3721   35.0896 H   0  0  0  0  0  0  0  0  0  0  0  0
   39.8207   23.5482   31.9030 H   0  0  0  0  0  0  0  0  0  0  0  0
   40.7481   21.7302   35.6610 H   0  0  0  0  0  0  0  0  0  0  0  0
   37.8572   21.5259   30.2884 H   0  0  0  0  0  0  0  0  0  0  0  0
   37.2106   19.1380   30.2064 H   0  0  0  0  0  0  0  0  0  0  0  0
   35.2828   18.2870   31.4603 H   0  0  0  0  0  0  0  0  0  0  0  0
   33.8982   19.8312   32.8761 H   0  0  0  0  0  0  0  0  0  0  0  0
   34.5334   22.2000   32.9641 H   0  0  0  0  0  0  0  0  0  0  0  0
  1  2  2  0
  1  8  1  0
  3  2  1  0
  4  3  2  0
  5  4  1  0
  5  6  2  0
  6  1  1  0
  7 12  2  0
  8  7  1  0
  9  8  2  0
  9 10  1  0
 10 11  2  0
 11 12  1  0
 13  6  1  0
 13 18  1  0
 14 13  2  0
 15 14  1  0
 15 16  2  0
 16 17  1  0
 17 18  2  0
  2 19  1  0
  3 20  1  0
  4 21  1  0
  5 22  1  0
  7 23  1  0
  9 24  1  0
 11 25  1  0
 14 26  1  0
 15 27  1  0
 16 28  1  0
 17 29  1  0
 18 30  1  0
M  ISO  8  19  14  20  14  21  14  22  14  23  14  24  14  25  14  26  14
M  ISO  4  27  14  28  14  29  14  30  14
M  END
>  <minimizedAffinity>  (1) 
-4.77782393

>  <minimizedRMSD>  (1) 
4.21235228

$$$$
