
     RDKit          3D

 33 36  0  0  0  0  0  0  0  0999 V2000
   39.4740   24.8360   32.2460 C   0  0  0  0  0  0  0  0  0  0  0  0
   39.3150   24.8850   30.8590 C   0  0  0  0  0  0  0  0  0  0  0  0
   38.1980   24.2210   30.3450 C   0  0  0  0  0  0  0  0  0  0  0  0
   37.3260   23.5630   31.2180 C   0  0  0  0  0  0  0  0  0  0  0  0
   37.5470   23.5540   32.5980 C   0  0  0  0  0  0  0  0  0  0  0  0
   38.6450   24.2040   33.1470 C   0  0  0  0  0  0  0  0  0  0  0  0
   40.5060   26.8950   33.1130 C   0  0  0  0  0  0  0  0  0  0  0  0
   40.6400   25.5120   32.7670 C   0  0  0  0  0  0  0  0  0  0  0  0
   41.8680   24.8960   32.9430 C   0  0  0  0  0  0  0  0  0  0  0  0
   42.9120   25.6140   33.4400 N   0  0  0  0  0  0  0  0  0  0  0  0
   42.7650   26.9430   33.7680 C   0  0  0  0  0  0  0  0  0  0  0  0
   41.5610   27.5820   33.6040 N   0  0  0  0  0  0  0  0  0  0  0  0
   38.6200   24.0910   34.5430 N   0  0  0  0  0  0  0  0  0  0  0  0
   37.7410   24.7930   35.3280 C   0  0  0  0  0  0  0  0  0  0  0  0
   37.9140   24.4730   36.6260 N   0  0  0  0  0  0  0  0  0  0  0  0
   38.8940   23.5770   36.6520 C   0  0  0  0  0  0  0  0  0  0  0  0
   39.5390   22.8600   37.6640 C   0  0  0  0  0  0  0  0  0  0  0  0
   40.5320   21.9910   37.3800 N   0  0  0  0  0  0  0  0  0  0  0  0
   40.9580   21.7610   36.1260 C   0  0  0  0  0  0  0  0  0  0  0  0
   40.3610   22.4340   35.0980 N   0  0  0  0  0  0  0  0  0  0  0  0
   39.3670   23.3040   35.3840 C   0  0  0  0  0  0  0  0  0  0  0  0
   39.0960   23.0940   39.0130 N   0  0  0  0  0  0  0  0  0  0  0  0
   40.0272   25.4151   30.2096 H   0  0  0  0  0  0  0  0  0  0  0  0
   38.0061   24.2160   29.2619 H   0  0  0  0  0  0  0  0  0  0  0  0
   36.4476   23.0415   30.8100 H   0  0  0  0  0  0  0  0  0  0  0  0
   36.8428   23.0257   33.2575 H   0  0  0  0  0  0  0  0  0  0  0  0
   39.5387   27.4011   32.9783 H   0  0  0  0  0  0  0  0  0  0  0  0
   41.9984   23.8351   32.6832 H   0  0  0  0  0  0  0  0  0  0  0  0
   43.6248   27.5010   34.1673 H   0  0  0  0  0  0  0  0  0  0  0  0
   37.0005   25.5143   34.9519 H   0  0  0  0  0  0  0  0  0  0  0  0
   41.7706   21.0456   35.9316 H   0  0  0  0  0  0  0  0  0  0  0  0
   39.5388   22.5908   39.7951 H   0  0  0  0  0  0  0  0  0  0  0  0
   38.3362   23.7647   39.1965 H   0  0  0  0  0  0  0  0  0  0  0  0
  1  8  1  0
  1  6  1  0
  2  1  2  0
  3  2  1  0
  3  4  2  0
  4  5  1  0
  5  6  2  0
  6 13  1  0
  7 12  2  0
  8  9  2  0
  8  7  1  0
  9 10  1  0
 10 11  2  0
 12 11  1  0
 13 14  1  0
 13 21  1  0
 14 15  2  0
 15 16  1  0
 16 17  2  0
 17 22  1  0
 18 17  1  0
 19 18  2  0
 20 21  2  0
 20 19  1  0
 21 16  1  0
  2 23  1  0
  3 24  1  0
  4 25  1  0
  5 26  1  0
  7 27  1  0
  9 28  1  0
 11 29  1  0
 14 30  1  0
 19 31  1  0
 22 32  1  0
 22 33  1  0
M  ISO  8  23  14  24  14  25  14  26  14  27  14  28  14  29  14  30  14
M  ISO  1  31  14
M  END
>  <minimizedAffinity>  (1) 
-4.77541399

>  <minimizedRMSD>  (1) 
4.88713312

$$$$
