
     RDKit          3D

 28 30  0  0  0  0  0  0  0  0999 V2000
   39.3400   25.3190   34.6300 C   0  0  0  0  0  0  0  0  0  0  0  0
   40.1600   26.4390   34.7790 C   0  0  0  0  0  0  0  0  0  0  0  0
   40.3900   27.1960   33.6290 C   0  0  0  0  0  0  0  0  0  0  0  0
   39.8080   26.8120   32.4190 C   0  0  0  0  0  0  0  0  0  0  0  0
   38.9990   25.6770   32.3500 C   0  0  0  0  0  0  0  0  0  0  0  0
   38.7420   24.8920   33.4750 C   0  0  0  0  0  0  0  0  0  0  0  0
   37.9810   24.8720   36.6300 C   0  0  0  0  0  0  0  0  0  0  0  0
   39.1170   24.5370   35.8250 C   0  0  0  0  0  0  0  0  0  0  0  0
   39.9300   23.4950   36.2350 C   0  0  0  0  0  0  0  0  0  0  0  0
   39.6190   22.8310   37.3850 N   0  0  0  0  0  0  0  0  0  0  0  0
   38.5190   23.1790   38.1380 C   0  0  0  0  0  0  0  0  0  0  0  0
   37.6940   24.2090   37.7560 N   0  0  0  0  0  0  0  0  0  0  0  0
   37.8570   23.8120   33.1500 C   0  0  0  0  0  0  0  0  0  0  0  0
   36.8920   24.1270   32.1790 C   0  0  0  0  0  0  0  0  0  0  0  0
   35.9310   23.2240   31.7380 C   0  0  0  0  0  0  0  0  0  0  0  0
   35.9690   22.0010   32.2980 N   0  0  0  0  0  0  0  0  0  0  0  0
   36.8770   21.6670   33.2290 C   0  0  0  0  0  0  0  0  0  0  0  0
   37.7830   22.5360   33.6370 N   0  0  0  0  0  0  0  0  0  0  0  0
   40.6008   26.7101   35.7497 H   0  0  0  0  0  0  0  0  0  0  0  0
   41.0272   28.0915   33.6757 H   0  0  0  0  0  0  0  0  0  0  0  0
   39.9887   27.4090   31.5130 H   0  0  0  0  0  0  0  0  0  0  0  0
   38.5529   25.3941   31.3852 H   0  0  0  0  0  0  0  0  0  0  0  0
   37.3262   25.6974   36.3137 H   0  0  0  0  0  0  0  0  0  0  0  0
   40.8118   23.2072   35.6437 H   0  0  0  0  0  0  0  0  0  0  0  0
   38.2975   22.6227   39.0608 H   0  0  0  0  0  0  0  0  0  0  0  0
   36.8968   25.1382   31.7460 H   0  0  0  0  0  0  0  0  0  0  0  0
   35.1841   23.4934   30.9767 H   0  0  0  0  0  0  0  0  0  0  0  0
   36.8657   20.6542   33.6581 H   0  0  0  0  0  0  0  0  0  0  0  0
  1  2  2  0
  1  8  1  0
  3  2  1  0
  4  3  2  0
  5  4  1  0
  5  6  2  0
  6  1  1  0
  7 12  2  0
  8  9  2  0
  8  7  1  0
  9 10  1  0
 10 11  2  0
 12 11  1  0
 13  6  1  0
 13 18  1  0
 14 13  2  0
 15 14  1  0
 15 16  2  0
 16 17  1  0
 17 18  2  0
  2 19  1  0
  3 20  1  0
  4 21  1  0
  5 22  1  0
  7 23  1  0
  9 24  1  0
 11 25  1  0
 14 26  1  0
 15 27  1  0
 17 28  1  0
M  ISO  8  19  14  20  14  21  14  22  14  23  14  24  14  25  14  26  14
M  ISO  2  27  14  28  14
M  END
>  <minimizedAffinity>  (1) 
-4.69100809

>  <minimizedRMSD>  (1) 
5.10698748

$$$$
