
     RDKit          3D

 29 31  0  0  0  0  0  0  0  0999 V2000
   37.8800   23.4810   33.5850 C   0  0  0  0  0  0  0  0  0  0  0  0
   37.2160   23.2050   32.3870 C   0  0  0  0  0  0  0  0  0  0  0  0
   36.4620   22.0280   32.3510 C   0  0  0  0  0  0  0  0  0  0  0  0
   36.4120   21.2080   33.4850 C   0  0  0  0  0  0  0  0  0  0  0  0
   37.1050   21.5530   34.6490 C   0  0  0  0  0  0  0  0  0  0  0  0
   37.8590   22.7130   34.7170 C   0  0  0  0  0  0  0  0  0  0  0  0
   38.0060   25.9140   33.9440 C   0  0  0  0  0  0  0  0  0  0  0  0
   38.6680   24.6920   33.5990 C   0  0  0  0  0  0  0  0  0  0  0  0
   40.0250   24.7250   33.2940 C   0  0  0  0  0  0  0  0  0  0  0  0
   40.6870   25.9120   33.3340 N   0  0  0  0  0  0  0  0  0  0  0  0
   40.0310   27.0770   33.6670 C   0  0  0  0  0  0  0  0  0  0  0  0
   38.6900   27.0760   33.9720 N   0  0  0  0  0  0  0  0  0  0  0  0
   38.4280   22.8650   36.0260 C   0  0  0  0  0  0  0  0  0  0  0  0
   37.5430   23.4690   36.9320 C   0  0  0  0  0  0  0  0  0  0  0  0
   37.9020   23.6860   38.2490 C   0  0  0  0  0  0  0  0  0  0  0  0
   39.1550   23.3000   38.6740 C   0  0  0  0  0  0  0  0  0  0  0  0
   40.0020   22.7110   37.7650 C   0  0  0  0  0  0  0  0  0  0  0  0
   39.6610   22.4940   36.4750 N   0  0  0  0  0  0  0  0  0  0  0  0
   37.2828   23.8774   31.5190 H   0  0  0  0  0  0  0  0  0  0  0  0
   35.9129   21.7486   31.4397 H   0  0  0  0  0  0  0  0  0  0  0  0
   35.8202   20.2811   33.4596 H   0  0  0  0  0  0  0  0  0  0  0  0
   37.0506   20.8917   35.5263 H   0  0  0  0  0  0  0  0  0  0  0  0
   36.9334   25.9049   34.1876 H   0  0  0  0  0  0  0  0  0  0  0  0
   40.5566   23.8008   33.0234 H   0  0  0  0  0  0  0  0  0  0  0  0
   40.5896   28.0243   33.6893 H   0  0  0  0  0  0  0  0  0  0  0  0
   36.5444   23.7757   36.5875 H   0  0  0  0  0  0  0  0  0  0  0  0
   37.1975   24.1602   38.9482 H   0  0  0  0  0  0  0  0  0  0  0  0
   39.4700   23.4594   39.7158 H   0  0  0  0  0  0  0  0  0  0  0  0
   41.0023   22.4024   38.1028 H   0  0  0  0  0  0  0  0  0  0  0  0
  1  8  1  0
  1  6  1  0
  2  1  2  0
  3  2  1  0
  3  4  2  0
  4  5  1  0
  5  6  2  0
  6 13  1  0
  7 12  2  0
  8  7  1  0
  9 10  1  0
  9  8  2  0
 10 11  2  0
 11 12  1  0
 13 18  1  0
 13 14  2  0
 14 15  1  0
 15 16  2  0
 17 16  1  0
 18 17  2  0
  2 19  1  0
  3 20  1  0
  4 21  1  0
  5 22  1  0
  7 23  1  0
  9 24  1  0
 11 25  1  0
 14 26  1  0
 15 27  1  0
 16 28  1  0
 17 29  1  0
M  ISO  8  19  14  20  14  21  14  22  14  23  14  24  14  25  14  26  14
M  ISO  3  27  14  28  14  29  14
M  END
>  <minimizedAffinity>  (1) 
-4.58835268

>  <minimizedRMSD>  (1) 
3.67252398

$$$$
