
     RDKit          3D

 25 27  0  0  0  0  0  0  0  0999 V2000
   39.1190   25.1680   34.7440 C   0  0  0  0  0  0  0  0  0  0  0  0
   39.7770   26.4020   34.8570 C   0  0  0  0  0  0  0  0  0  0  0  0
   39.9740   27.1010   33.6640 C   0  0  0  0  0  0  0  0  0  0  0  0
   39.5230   26.5510   32.4630 C   0  0  0  0  0  0  0  0  0  0  0  0
   38.8740   25.3080   32.4560 C   0  0  0  0  0  0  0  0  0  0  0  0
   38.6400   24.5560   33.6190 C   0  0  0  0  0  0  0  0  0  0  0  0
   37.9440   24.7500   36.8830 C   0  0  0  0  0  0  0  0  0  0  0  0
   39.0360   24.4350   36.0120 C   0  0  0  0  0  0  0  0  0  0  0  0
   39.9990   23.4650   36.3760 C   0  0  0  0  0  0  0  0  0  0  0  0
   39.8390   22.8440   37.5830 N   0  0  0  0  0  0  0  0  0  0  0  0
   38.7760   23.1610   38.4110 C   0  0  0  0  0  0  0  0  0  0  0  0
   37.8350   24.1080   38.0660 N   0  0  0  0  0  0  0  0  0  0  0  0
   37.8660   23.3490   33.4550 C   0  0  0  0  0  0  0  0  0  0  0  0
   36.9470   23.2490   32.4840 N   0  0  0  0  0  0  0  0  0  0  0  0
   36.3300   22.1220   32.5630 O   0  0  0  0  0  0  0  0  0  0  0  0
   36.7720   21.4190   33.5540 C   0  0  0  0  0  0  0  0  0  0  0  0
   37.6990   22.1860   34.0730 N   0  0  0  0  0  0  0  0  0  0  0  0
   40.1171   26.7951   35.8264 H   0  0  0  0  0  0  0  0  0  0  0  0
   40.4806   28.0774   33.6708 H   0  0  0  0  0  0  0  0  0  0  0  0
   39.6772   27.0943   31.5191 H   0  0  0  0  0  0  0  0  0  0  0  0
   38.5314   24.9021   31.4927 H   0  0  0  0  0  0  0  0  0  0  0  0
   37.2014   25.5073   36.5914 H   0  0  0  0  0  0  0  0  0  0  0  0
   40.8429   23.2203   35.7142 H   0  0  0  0  0  0  0  0  0  0  0  0
   38.6788   22.6407   39.3753 H   0  0  0  0  0  0  0  0  0  0  0  0
   36.4485   20.4200   33.8817 H   0  0  0  0  0  0  0  0  0  0  0  0
  1  2  2  0
  1  8  1  0
  3  2  1  0
  4  3  2  0
  5  4  1  0
  5  6  2  0
  6  1  1  0
  7 12  2  0
  8  9  2  0
  8  7  1  0
  9 10  1  0
 10 11  2  0
 12 11  1  0
 13  6  1  0
 13 17  1  0
 14 15  1  0
 14 13  2  0
 15 16  1  0
 16 17  2  0
  2 18  1  0
  3 19  1  0
  4 20  1  0
  5 21  1  0
  7 22  1  0
  9 23  1  0
 11 24  1  0
 16 25  1  0
M  ISO  8  18  14  19  14  20  14  21  14  22  14  23  14  24  14  25  14
M  END
>  <minimizedAffinity>  (1) 
-4.40380001

>  <minimizedRMSD>  (1) 
4.7454505

$$$$
