
     RDKit          3D

 23 24  0  0  0  0  0  0  0  0999 V2000
   38.6530   24.4510   34.4630 C   0  0  0  0  0  0  0  0  0  0  0  0
   37.8670   23.5970   33.6750 C   0  0  0  0  0  0  0  0  0  0  0  0
   37.8480   23.9020   32.3070 C   0  0  0  0  0  0  0  0  0  0  0  0
   38.5810   24.9890   31.8310 C   0  0  0  0  0  0  0  0  0  0  0  0
   39.3300   25.7730   32.6900 C   0  0  0  0  0  0  0  0  0  0  0  0
   39.3880   25.5230   34.0570 C   0  0  0  0  0  0  0  0  0  0  0  0
   39.6880   23.1930   36.3360 C   0  0  0  0  0  0  0  0  0  0  0  0
   38.6800   24.0980   35.8620 C   0  0  0  0  0  0  0  0  0  0  0  0
   37.7930   24.5690   36.7790 C   0  0  0  0  0  0  0  0  0  0  0  0
   37.8600   24.2010   38.0790 N   0  0  0  0  0  0  0  0  0  0  0  0
   38.8400   23.3290   38.5080 C   0  0  0  0  0  0  0  0  0  0  0  0
   39.7570   22.8250   37.6230 N   0  0  0  0  0  0  0  0  0  0  0  0
   40.2010   26.5620   34.6820 C   0  0  0  0  0  0  0  0  0  0  0  0
   41.3890   26.1590   35.2470 F   0  0  0  0  0  0  0  0  0  0  0  0
   40.4810   27.6010   33.7610 F   0  0  0  0  0  0  0  0  0  0  0  0
   39.5540   27.2640   35.6960 F   0  0  0  0  0  0  0  0  0  0  0  0
   37.3070   22.7506   34.0993 H   0  0  0  0  0  0  0  0  0  0  0  0
   37.2577   23.2868   31.6120 H   0  0  0  0  0  0  0  0  0  0  0  0
   38.5632   25.2263   30.7570 H   0  0  0  0  0  0  0  0  0  0  0  0
   39.8976   26.6209   32.2790 H   0  0  0  0  0  0  0  0  0  0  0  0
   40.4236   22.7906   35.6240 H   0  0  0  0  0  0  0  0  0  0  0  0
   37.0039   25.2643   36.4566 H   0  0  0  0  0  0  0  0  0  0  0  0
   38.8853   23.0366   39.5674 H   0  0  0  0  0  0  0  0  0  0  0  0
  1  8  1  0
  2  1  2  0
  3  2  1  0
  4  3  2  0
  4  5  1  0
  5  6  2  0
  6  1  1  0
  6 13  1  0
  7 12  2  0
  8  7  1  0
  8  9  2  0
  9 10  1  0
 10 11  2  0
 12 11  1  0
 13 14  1  0
 13 16  1  0
 15 13  1  0
  2 17  1  0
  3 18  1  0
  4 19  1  0
  5 20  1  0
  7 21  1  0
  9 22  1  0
 11 23  1  0
M  ISO  7  17  14  18  14  19  14  20  14  21  14  22  14  23  14
M  END
>  <minimizedAffinity>  (1) 
-4.40362692

>  <minimizedRMSD>  (1) 
5.56300211

$$$$
