
     RDKit          3D

 27 29  0  0  0  0  0  0  0  0999 V2000
   38.3890   25.3020   35.2410 C   0  0  0  0  0  0  0  0  0  0  0  0
   38.2160   26.5600   35.8270 C   0  0  0  0  0  0  0  0  0  0  0  0
   37.5180   27.4960   35.0710 C   0  0  0  0  0  0  0  0  0  0  0  0
   37.0400   27.1470   33.8040 C   0  0  0  0  0  0  0  0  0  0  0  0
   37.2500   25.8700   33.2790 C   0  0  0  0  0  0  0  0  0  0  0  0
   37.9390   24.9130   34.0050 C   0  0  0  0  0  0  0  0  0  0  0  0
   38.5290   23.8690   37.2390 C   0  0  0  0  0  0  0  0  0  0  0  0
   39.1320   24.3420   36.0280 C   0  0  0  0  0  0  0  0  0  0  0  0
   40.3850   23.8700   35.6680 C   0  0  0  0  0  0  0  0  0  0  0  0
   41.0040   22.9680   36.4780 N   0  0  0  0  0  0  0  0  0  0  0  0
   40.4130   22.5230   37.6400 C   0  0  0  0  0  0  0  0  0  0  0  0
   39.1730   22.9760   38.0210 N   0  0  0  0  0  0  0  0  0  0  0  0
   37.9760   23.7090   33.2890 N   0  0  0  0  0  0  0  0  0  0  0  0
   38.6540   23.6420   32.0990 C   0  0  0  0  0  0  0  0  0  0  0  0
   38.5270   22.3370   31.6720 C   0  0  0  0  0  0  0  0  0  0  0  0
   37.8110   21.6680   32.5660 N   0  0  0  0  0  0  0  0  0  0  0  0
   37.4500   22.4760   33.5800 C   0  0  0  0  0  0  0  0  0  0  0  0
   38.6089   26.7955   36.8271 H   0  0  0  0  0  0  0  0  0  0  0  0
   37.3427   28.5067   35.4682 H   0  0  0  0  0  0  0  0  0  0  0  0
   36.4889   27.8913   33.2105 H   0  0  0  0  0  0  0  0  0  0  0  0
   36.8644   25.6220   32.2791 H   0  0  0  0  0  0  0  0  0  0  0  0
   37.5347   24.2359   37.5336 H   0  0  0  0  0  0  0  0  0  0  0  0
   40.8702   24.2182   34.7443 H   0  0  0  0  0  0  0  0  0  0  0  0
   40.9415   21.7943   38.2722 H   0  0  0  0  0  0  0  0  0  0  0  0
   39.1878   24.4588   31.5911 H   0  0  0  0  0  0  0  0  0  0  0  0
   38.9488   21.9206   30.7453 H   0  0  0  0  0  0  0  0  0  0  0  0
   36.8539   22.2029   34.4632 H   0  0  0  0  0  0  0  0  0  0  0  0
  1  2  2  0
  1  8  1  0
  3  2  1  0
  4  3  2  0
  5  4  1  0
  5  6  2  0
  6  1  1  0
  7 12  2  0
  8  7  1  0
  9  8  2  0
  9 10  1  0
 10 11  2  0
 11 12  1  0
 13 17  1  0
 13  6  1  0
 14 13  1  0
 15 14  2  0
 15 16  1  0
 16 17  2  0
  2 18  1  0
  3 19  1  0
  4 20  1  0
  5 21  1  0
  7 22  1  0
  9 23  1  0
 11 24  1  0
 14 25  1  0
 15 26  1  0
 17 27  1  0
M  ISO  8  18  14  19  14  20  14  21  14  22  14  23  14  24  14  25  14
M  ISO  2  26  14  27  14
M  END
>  <minimizedAffinity>  (1) 
-4.39081573

>  <minimizedRMSD>  (1) 
5.09274435

$$$$
