
     RDKit          3D

 27 29  0  0  0  0  0  0  0  0999 V2000
   37.7490   23.3530   33.4140 C   0  0  0  0  0  0  0  0  0  0  0  0
   37.9510   24.6310   32.8840 C   0  0  0  0  0  0  0  0  0  0  0  0
   37.2750   24.9120   31.6920 C   0  0  0  0  0  0  0  0  0  0  0  0
   36.4580   23.9420   31.1070 C   0  0  0  0  0  0  0  0  0  0  0  0
   36.3120   22.6930   31.7010 C   0  0  0  0  0  0  0  0  0  0  0  0
   36.9640   22.3640   32.8890 C   0  0  0  0  0  0  0  0  0  0  0  0
   37.9280   23.6210   35.8610 C   0  0  0  0  0  0  0  0  0  0  0  0
   38.4570   23.0840   34.6440 C   0  0  0  0  0  0  0  0  0  0  0  0
   39.6230   22.3420   34.7090 C   0  0  0  0  0  0  0  0  0  0  0  0
   40.2180   22.1480   35.9140 N   0  0  0  0  0  0  0  0  0  0  0  0
   39.6820   22.6780   37.0640 C   0  0  0  0  0  0  0  0  0  0  0  0
   38.5280   23.4210   37.0390 N   0  0  0  0  0  0  0  0  0  0  0  0
   36.6910   21.0180   33.3590 C   0  0  0  0  0  0  0  0  0  0  0  0
   35.7060   20.6580   34.3900 C   0  0  0  0  0  0  0  0  0  0  0  0
   35.2290   20.5520   33.0180 C   0  0  0  0  0  0  0  0  0  0  0  0
   38.6016   25.3701   33.3743 H   0  0  0  0  0  0  0  0  0  0  0  0
   37.3869   25.8970   31.2154 H   0  0  0  0  0  0  0  0  0  0  0  0
   35.9267   24.1673   30.1706 H   0  0  0  0  0  0  0  0  0  0  0  0
   35.6647   21.9444   31.2208 H   0  0  0  0  0  0  0  0  0  0  0  0
   37.0025   24.2145   35.8260 H   0  0  0  0  0  0  0  0  0  0  0  0
   40.0626   21.9145   33.7957 H   0  0  0  0  0  0  0  0  0  0  0  0
   40.1887   22.5029   38.0245 H   0  0  0  0  0  0  0  0  0  0  0  0
   37.7457   20.7296   33.2392 H   0  0  0  0  0  0  0  0  0  0  0  0
   35.8563   19.7402   34.9773 H   0  0  0  0  0  0  0  0  0  0  0  0
   35.3236   21.1868   35.2755 H   0  0  0  0  0  0  0  0  0  0  0  0
   34.4933   21.2711   32.6285 H   0  0  0  0  0  0  0  0  0  0  0  0
   34.7756   19.7644   32.3983 H   0  0  0  0  0  0  0  0  0  0  0  0
  1  8  1  0
  2  1  2  0
  3  2  1  0
  4  3  2  0
  4  5  1  0
  5  6  2  0
  6 13  1  0
  6  1  1  0
  7 12  2  0
  8  9  2  0
  8  7  1  0
  9 10  1  0
 10 11  2  0
 12 11  1  0
 13 14  1  0
 15 13  1  0
 15 14  1  0
  2 16  1  0
  3 17  1  0
  4 18  1  0
  5 19  1  0
  7 20  1  0
  9 21  1  0
 11 22  1  0
 13 23  1  0
 14 24  1  0
 14 25  1  0
 15 26  1  0
 15 27  1  0
M  ISO  8  16  14  17  14  18  14  19  14  20  14  21  14  22  14  23  13
M  ISO  4  24  13  25  13  26  13  27  13
M  END
>  <minimizedAffinity>  (1) 
-3.96340513

>  <minimizedRMSD>  (1) 
2.53660583

$$$$
