
     RDKit          3D

 21 22  0  0  0  0  0  0  0  0999 V2000
   36.8760   21.4750   33.3000 C   0  0  0  0  0  0  0  0  0  0  0  0
   37.2820   21.5420   31.9820 C   0  0  0  0  0  0  0  0  0  0  0  0
   36.6100   20.7210   31.0750 C   0  0  0  0  0  0  0  0  0  0  0  0
   35.5850   19.8900   31.5250 C   0  0  0  0  0  0  0  0  0  0  0  0
   35.2270   19.8730   32.8720 C   0  0  0  0  0  0  0  0  0  0  0  0
   35.8800   20.6820   33.7960 C   0  0  0  0  0  0  0  0  0  0  0  0
   37.8950   23.6660   33.8090 C   0  0  0  0  0  0  0  0  0  0  0  0
   37.5890   22.3340   34.2230 C   0  0  0  0  0  0  0  0  0  0  0  0
   37.9900   21.9200   35.5010 C   0  0  0  0  0  0  0  0  0  0  0  0
   38.6460   22.7920   36.2880 N   0  0  0  0  0  0  0  0  0  0  0  0
   38.9330   24.0700   35.8740 C   0  0  0  0  0  0  0  0  0  0  0  0
   38.5550   24.5050   34.6310 N   0  0  0  0  0  0  0  0  0  0  0  0
   35.4110   20.5510   35.0760 O   0  0  0  0  0  0  0  0  0  0  0  0
   38.0955   22.2099   31.6623 H   0  0  0  0  0  0  0  0  0  0  0  0
   36.8877   20.7296   30.0107 H   0  0  0  0  0  0  0  0  0  0  0  0
   35.0545   19.2425   30.8113 H   0  0  0  0  0  0  0  0  0  0  0  0
   34.4164   19.2102   33.2091 H   0  0  0  0  0  0  0  0  0  0  0  0
   37.5891   24.0101   32.8100 H   0  0  0  0  0  0  0  0  0  0  0  0
   37.7723   20.9011   35.8538 H   0  0  0  0  0  0  0  0  0  0  0  0
   39.4724   24.7518   36.5480 H   0  0  0  0  0  0  0  0  0  0  0  0
   34.6716   19.9220   35.2703 H   0  0  0  0  0  0  0  0  0  0  0  0
  1  6  1  0
  1  8  1  0
  2  1  2  0
  3  4  2  0
  3  2  1  0
  4  5  1  0
  5  6  2  0
  6 13  1  0
  7  8  2  0
  7 12  1  0
  8  9  1  0
  9 10  2  0
 11 10  1  0
 12 11  2  0
  2 14  1  0
  3 15  1  0
  4 16  1  0
  5 17  1  0
  7 18  1  0
  9 19  1  0
 11 20  1  0
 13 21  1  0
M  ISO  8  14  14  15  14  16  14  17  14  18  14  19  14  20  14  21   3
M  END
>  <minimizedAffinity>  (1) 
-3.90454435

>  <minimizedRMSD>  (1) 
0.478744119

$$$$
