
     RDKit          3D

 26 27  0  0  0  0  0  0  0  0999 V2000
   38.9290   27.0160   33.6390 C   0  0  0  0  0  0  0  0  0  0  0  0
   38.5070   27.3550   32.3480 C   0  0  0  0  0  0  0  0  0  0  0  0
   37.2400   27.9340   32.2720 C   0  0  0  0  0  0  0  0  0  0  0  0
   36.4910   28.1370   33.4290 C   0  0  0  0  0  0  0  0  0  0  0  0
   36.9920   27.7680   34.6700 C   0  0  0  0  0  0  0  0  0  0  0  0
   38.2560   27.1810   34.8180 C   0  0  0  0  0  0  0  0  0  0  0  0
   41.3740   27.3510   33.8080 C   0  0  0  0  0  0  0  0  0  0  0  0
   40.2550   26.4530   33.7160 C   0  0  0  0  0  0  0  0  0  0  0  0
   40.5390   25.1180   33.7110 C   0  0  0  0  0  0  0  0  0  0  0  0
   41.8100   24.6650   33.7920 N   0  0  0  0  0  0  0  0  0  0  0  0
   42.8580   25.5490   33.8790 C   0  0  0  0  0  0  0  0  0  0  0  0
   42.6380   26.8960   33.8850 N   0  0  0  0  0  0  0  0  0  0  0  0
   38.4370   26.8610   36.2340 C   0  0  0  0  0  0  0  0  0  0  0  0
   38.1340   25.4220   36.5980 C   0  0  0  0  0  0  0  0  0  0  0  0
   39.1291   27.1778   31.4583 H   0  0  0  0  0  0  0  0  0  0  0  0
   36.8310   28.2313   31.2951 H   0  0  0  0  0  0  0  0  0  0  0  0
   35.4930   28.5941   33.3585 H   0  0  0  0  0  0  0  0  0  0  0  0
   36.3774   27.9419   35.5656 H   0  0  0  0  0  0  0  0  0  0  0  0
   41.1925   28.4359   33.8156 H   0  0  0  0  0  0  0  0  0  0  0  0
   39.7142   24.3937   33.6394 H   0  0  0  0  0  0  0  0  0  0  0  0
   43.8872   25.1665   33.9446 H   0  0  0  0  0  0  0  0  0  0  0  0
   39.4831   27.0700   36.5022 H   0  0  0  0  0  0  0  0  0  0  0  0
   37.7178   27.4815   36.7887 H   0  0  0  0  0  0  0  0  0  0  0  0
   38.1120   25.3176   37.6928 H   0  0  0  0  0  0  0  0  0  0  0  0
   37.1561   25.1368   36.1827 H   0  0  0  0  0  0  0  0  0  0  0  0
   38.9139   24.7667   36.1827 H   0  0  0  0  0  0  0  0  0  0  0  0
  1  8  1  0
  1  6  1  0
  2  1  2  0
  3  2  1  0
  3  4  2  0
  4  5  1  0
  5  6  2  0
  6 13  1  0
  7 12  2  0
  8  7  1  0
  9  8  2  0
  9 10  1  0
 10 11  2  0
 11 12  1  0
 13 14  1  0
  2 15  1  0
  3 16  1  0
  4 17  1  0
  5 18  1  0
  7 19  1  0
  9 20  1  0
 11 21  1  0
 13 22  1  0
 13 23  1  0
 14 24  1  0
 14 25  1  0
 14 26  1  0
M  ISO  8  15  14  16  14  17  14  18  14  19  14  20  14  21  14  22   8
M  ISO  4  23   8  24   8  25   8  26   8
M  END
>  <minimizedAffinity>  (1) 
-3.86404419

>  <minimizedRMSD>  (1) 
6.08143711

$$$$
