
     RDKit          3D

 24 25  0  0  0  0  0  0  0  0999 V2000
   37.2320   21.4380   33.7520 C   0  0  0  0  0  0  0  0  0  0  0  0
   37.6960   21.1670   32.4890 C   0  0  0  0  0  0  0  0  0  0  0  0
   36.9760   20.2260   31.7580 C   0  0  0  0  0  0  0  0  0  0  0  0
   35.8670   19.6080   32.2720 C   0  0  0  0  0  0  0  0  0  0  0  0
   35.4490   19.9200   33.5440 C   0  0  0  0  0  0  0  0  0  0  0  0
   36.1360   20.8470   34.2960 C   0  0  0  0  0  0  0  0  0  0  0  0
   37.8960   23.7720   34.1010 C   0  0  0  0  0  0  0  0  0  0  0  0
   37.9610   22.4080   34.5320 C   0  0  0  0  0  0  0  0  0  0  0  0
   38.7080   22.0940   35.6570 C   0  0  0  0  0  0  0  0  0  0  0  0
   39.3560   23.0820   36.3260 N   0  0  0  0  0  0  0  0  0  0  0  0
   39.2800   24.3900   35.8950 C   0  0  0  0  0  0  0  0  0  0  0  0
   38.5500   24.7350   34.7830 N   0  0  0  0  0  0  0  0  0  0  0  0
   35.5330   21.0530   35.5460 C   0  0  0  0  0  0  0  0  0  0  0  0
   35.6980   20.4820   36.6450 O   0  0  0  0  0  0  0  0  0  0  0  0
   38.5863   21.6651   32.0777 H   0  0  0  0  0  0  0  0  0  0  0  0
   37.3067   19.9720   30.7401 H   0  0  0  0  0  0  0  0  0  0  0  0
   35.3157   18.8687   31.6724 H   0  0  0  0  0  0  0  0  0  0  0  0
   34.5602   19.4261   33.9638 H   0  0  0  0  0  0  0  0  0  0  0  0
   37.3095   24.0362   33.2087 H   0  0  0  0  0  0  0  0  0  0  0  0
   38.7752   21.0526   36.0049 H   0  0  0  0  0  0  0  0  0  0  0  0
   39.8146   25.1730   36.4528 H   0  0  0  0  0  0  0  0  0  0  0  0
   35.7414   22.1104   35.7663 H   0  0  0  0  0  0  0  0  0  0  0  0
   34.5643   20.5922   35.3024 H   0  0  0  0  0  0  0  0  0  0  0  0
   35.5137   21.1199   37.3793 H   0  0  0  0  0  0  0  0  0  0  0  0
  1  6  1  0
  1  8  1  0
  2  1  2  0
  3  4  2  0
  3  2  1  0
  4  5  1  0
  5  6  2  0
  6 13  1  0
  7  8  2  0
  7 12  1  0
  8  9  1  0
  9 10  2  0
 11 10  1  0
 12 11  2  0
 13 14  1  0
  2 15  1  0
  3 16  1  0
  4 17  1  0
  5 18  1  0
  7 19  1  0
  9 20  1  0
 11 21  1  0
 13 22  1  0
 13 23  1  0
 14 24  1  0
M  ISO  8  15  14  16  14  17  14  18  14  19  14  20  14  21  14  22   8
M  ISO  2  23   8  24   3
M  END
>  <minimizedAffinity>  (1) 
-3.77238989

>  <minimizedRMSD>  (1) 
0.915869594

$$$$
