
     RDKit          3D

 41 43  0  0  0  0  0  0  0  0999 V2000
   39.5870   26.9420   33.4100 C   0  0  0  0  0  0  0  0  0  0  0  0
   39.4910   27.1600   32.0430 C   0  0  0  0  0  0  0  0  0  0  0  0
   38.2510   27.5830   31.5890 C   0  0  0  0  0  0  0  0  0  0  0  0
   37.2130   27.7610   32.4880 C   0  0  0  0  0  0  0  0  0  0  0  0
   37.3950   27.5200   33.8270 C   0  0  0  0  0  0  0  0  0  0  0  0
   38.6070   27.0950   34.3460 C   0  0  0  0  0  0  0  0  0  0  0  0
   42.0210   27.3250   33.5470 C   0  0  0  0  0  0  0  0  0  0  0  0
   40.8890   26.4930   33.8620 C   0  0  0  0  0  0  0  0  0  0  0  0
   41.1460   25.3620   34.5700 C   0  0  0  0  0  0  0  0  0  0  0  0
   42.3910   25.0250   34.9640 N   0  0  0  0  0  0  0  0  0  0  0  0
   43.4550   25.8320   34.6550 C   0  0  0  0  0  0  0  0  0  0  0  0
   43.2660   26.9930   33.9390 N   0  0  0  0  0  0  0  0  0  0  0  0
   38.4900   26.8960   35.8030 C   0  0  0  0  0  0  0  0  0  0  0  0
   37.5410   25.7860   36.1770 C   0  0  0  0  0  0  0  0  0  0  0  0
   38.1030   24.5620   36.5960 N   0  0  0  0  0  0  0  0  0  0  0  0
   38.0390   24.3940   38.0170 C   0  0  0  0  0  0  0  0  0  0  0  0
   38.7950   23.2080   38.5380 C   0  0  0  0  0  0  0  0  0  0  0  0
   39.9010   22.9270   37.5180 C   0  0  0  0  0  0  0  0  0  0  0  0
   39.1480   22.4330   36.2790 C   0  0  0  0  0  0  0  0  0  0  0  0
   38.1930   23.4740   35.7510 C   0  0  0  0  0  0  0  0  0  0  0  0
   40.3428   27.0073   31.3640 H   0  0  0  0  0  0  0  0  0  0  0  0
   38.0924   27.7766   30.5179 H   0  0  0  0  0  0  0  0  0  0  0  0
   36.2313   28.0994   32.1250 H   0  0  0  0  0  0  0  0  0  0  0  0
   36.5479   27.6697   34.5126 H   0  0  0  0  0  0  0  0  0  0  0  0
   41.8658   28.2512   32.9742 H   0  0  0  0  0  0  0  0  0  0  0  0
   40.3089   24.6978   34.8310 H   0  0  0  0  0  0  0  0  0  0  0  0
   44.4670   25.5502   34.9813 H   0  0  0  0  0  0  0  0  0  0  0  0
   39.4855   26.6546   36.2038 H   0  0  0  0  0  0  0  0  0  0  0  0
   38.0875   27.8271   36.2286 H   0  0  0  0  0  0  0  0  0  0  0  0
   36.9083   26.1559   36.9972 H   0  0  0  0  0  0  0  0  0  0  0  0
   37.0096   25.5456   35.2443 H   0  0  0  0  0  0  0  0  0  0  0  0
   38.4510   25.2983   38.4887 H   0  0  0  0  0  0  0  0  0  0  0  0
   36.9808   24.2237   38.2644 H   0  0  0  0  0  0  0  0  0  0  0  0
   39.2318   23.4359   39.5215 H   0  0  0  0  0  0  0  0  0  0  0  0
   38.1361   22.3365   38.6661 H   0  0  0  0  0  0  0  0  0  0  0  0
   40.4662   23.8433   37.2922 H   0  0  0  0  0  0  0  0  0  0  0  0
   40.6379   22.1968   37.8839 H   0  0  0  0  0  0  0  0  0  0  0  0
   39.8777   22.1882   35.4931 H   0  0  0  0  0  0  0  0  0  0  0  0
   38.5629   21.5468   36.5657 H   0  0  0  0  0  0  0  0  0  0  0  0
   38.5468   23.8155   34.7671 H   0  0  0  0  0  0  0  0  0  0  0  0
   37.1956   23.0163   35.6751 H   0  0  0  0  0  0  0  0  0  0  0  0
  1  8  1  0
  1  6  1  0
  2  1  2  0
  3  2  1  0
  3  4  2  0
  4  5  1  0
  5  6  2  0
  6 13  1  0
  7  8  2  0
  7 12  1  0
  8  9  1  0
  9 10  2  0
 11 10  1  0
 12 11  2  0
 13 14  1  0
 14 15  1  0
 15 16  1  0
 16 17  1  0
 18 17  1  0
 19 18  1  0
 20 19  1  0
 20 15  1  0
  2 21  1  0
  3 22  1  0
  4 23  1  0
  5 24  1  0
  7 25  1  0
  9 26  1  0
 11 27  1  0
 13 28  1  0
 13 29  1  0
 14 30  1  0
 14 31  1  0
 16 32  1  0
 16 33  1  0
 17 34  1  0
 17 35  1  0
 18 36  1  0
 18 37  1  0
 19 38  1  0
 19 39  1  0
 20 40  1  0
 20 41  1  0
M  ISO  8  21  14  22  14  23  14  24  14  25  14  26  14  27  14  28   8
M  ISO  8  29   8  30   8  31   8  32  13  33  13  34  13  35  13  36  13
M  ISO  5  37  13  38  13  39  13  40  13  41  13
M  END
>  <minimizedAffinity>  (1) 
-5.11956692

>  <minimizedRMSD>  (1) 
1.74774802

$$$$
