
     RDKit          3D

 31 33  0  0  0  0  0  0  0  0999 V2000
   38.9760   26.9280   33.4820 C   0  0  0  0  0  0  0  0  0  0  0  0
   38.6740   27.4380   32.2240 C   0  0  0  0  0  0  0  0  0  0  0  0
   37.4270   28.0160   32.0680 C   0  0  0  0  0  0  0  0  0  0  0  0
   36.5640   28.0580   33.1460 C   0  0  0  0  0  0  0  0  0  0  0  0
   36.9400   27.5300   34.3640 C   0  0  0  0  0  0  0  0  0  0  0  0
   38.1770   26.9390   34.5730 C   0  0  0  0  0  0  0  0  0  0  0  0
   41.4050   27.2300   33.8620 C   0  0  0  0  0  0  0  0  0  0  0  0
   40.2940   26.3380   33.6040 C   0  0  0  0  0  0  0  0  0  0  0  0
   40.5700   25.0180   33.4970 C   0  0  0  0  0  0  0  0  0  0  0  0
   41.8310   24.5480   33.6260 N   0  0  0  0  0  0  0  0  0  0  0  0
   42.8640   25.4050   33.8700 C   0  0  0  0  0  0  0  0  0  0  0  0
   42.6550   26.7500   33.9890 N   0  0  0  0  0  0  0  0  0  0  0  0
   38.2970   26.4610   35.9610 C   0  0  0  0  0  0  0  0  0  0  0  0
   37.5120   25.2030   36.2410 C   0  0  0  0  0  0  0  0  0  0  0  0
   38.3010   24.3040   37.0870 C   0  0  0  0  0  0  0  0  0  0  0  0
   38.0990   24.1340   38.4120 N   0  0  0  0  0  0  0  0  0  0  0  0
   38.9790   23.2660   38.8430 O   0  0  0  0  0  0  0  0  0  0  0  0
   39.7370   22.8800   37.8190 C   0  0  0  0  0  0  0  0  0  0  0  0
   39.3320   23.5170   36.7060 N   0  0  0  0  0  0  0  0  0  0  0  0
   39.3924   27.3843   31.3927 H   0  0  0  0  0  0  0  0  0  0  0  0
   37.1261   28.4371   31.0974 H   0  0  0  0  0  0  0  0  0  0  0  0
   35.5702   28.5156   33.0325 H   0  0  0  0  0  0  0  0  0  0  0  0
   36.2302   27.5798   35.2028 H   0  0  0  0  0  0  0  0  0  0  0  0
   41.2249   28.3112   33.9551 H   0  0  0  0  0  0  0  0  0  0  0  0
   39.7502   24.3114   33.3007 H   0  0  0  0  0  0  0  0  0  0  0  0
   43.8839   25.0059   33.9728 H   0  0  0  0  0  0  0  0  0  0  0  0
   39.3586   26.2610   36.1685 H   0  0  0  0  0  0  0  0  0  0  0  0
   37.8830   27.2482   36.6083 H   0  0  0  0  0  0  0  0  0  0  0  0
   36.5766   25.4636   36.7578 H   0  0  0  0  0  0  0  0  0  0  0  0
   37.2822   24.6991   35.2906 H   0  0  0  0  0  0  0  0  0  0  0  0
   40.5629   22.1555   37.8744 H   0  0  0  0  0  0  0  0  0  0  0  0
  1  8  1  0
  1  6  1  0
  2  1  2  0
  3  2  1  0
  3  4  2  0
  4  5  1  0
  5  6  2  0
  6 13  1  0
  7 12  2  0
  8  7  1  0
  9  8  2  0
  9 10  1  0
 10 11  2  0
 11 12  1  0
 13 14  1  0
 14 15  1  0
 15 16  2  0
 16 17  1  0
 18 17  1  0
 19 15  1  0
 19 18  2  0
  2 20  1  0
  3 21  1  0
  4 22  1  0
  5 23  1  0
  7 24  1  0
  9 25  1  0
 11 26  1  0
 13 27  1  0
 13 28  1  0
 14 29  1  0
 14 30  1  0
 18 31  1  0
M  ISO  8  20  14  21  14  22  14  23  14  24  14  25  14  26  14  27   8
M  ISO  4  28   8  29   8  30   8  31  14
M  END
>  <minimizedAffinity>  (1) 
-4.69271803

>  <minimizedRMSD>  (1) 
1.16088772

$$$$
