
     RDKit          3D

 40 43  0  0  0  0  0  0  0  0999 V2000
   37.2160   27.5900   33.6620 C   0  0  0  0  0  0  0  0  0  0  0  0
   36.4990   28.2620   34.6550 C   0  0  0  0  0  0  0  0  0  0  0  0
   35.5060   29.1220   34.2210 C   0  0  0  0  0  0  0  0  0  0  0  0
   35.2800   29.2660   32.8660 C   0  0  0  0  0  0  0  0  0  0  0  0
   36.0300   28.5670   31.9540 C   0  0  0  0  0  0  0  0  0  0  0  0
   37.0430   27.6890   32.3220 C   0  0  0  0  0  0  0  0  0  0  0  0
   37.8720   25.3090   34.3590 C   0  0  0  0  0  0  0  0  0  0  0  0
   38.2470   26.6910   34.1560 C   0  0  0  0  0  0  0  0  0  0  0  0
   39.5240   27.0410   34.4410 C   0  0  0  0  0  0  0  0  0  0  0  0
   40.4190   26.1410   34.8940 N   0  0  0  0  0  0  0  0  0  0  0  0
   40.0440   24.8340   35.0790 C   0  0  0  0  0  0  0  0  0  0  0  0
   38.7810   24.4250   34.8130 N   0  0  0  0  0  0  0  0  0  0  0  0
   37.6790   27.1000   31.1340 C   0  0  0  0  0  0  0  0  0  0  0  0
   39.0010   27.7790   30.7910 C   0  0  0  0  0  0  0  0  0  0  0  0
   38.9070   28.5640   29.5500 C   0  0  0  0  0  0  0  0  0  0  0  0
   37.8070   28.7360   28.7320 C   0  0  0  0  0  0  0  0  0  0  0  0
   38.1850   29.5280   27.7180 N   0  0  0  0  0  0  0  0  0  0  0  0
   39.4740   29.8580   27.8700 C   0  0  0  0  0  0  0  0  0  0  0  0
   40.3390   30.6320   27.1290 C   0  0  0  0  0  0  0  0  0  0  0  0
   41.6590   30.8610   27.4480 C   0  0  0  0  0  0  0  0  0  0  0  0
   42.1410   30.2670   28.5970 C   0  0  0  0  0  0  0  0  0  0  0  0
   41.3050   29.4760   29.3750 C   0  0  0  0  0  0  0  0  0  0  0  0
   39.9810   29.2680   29.0230 C   0  0  0  0  0  0  0  0  0  0  0  0
   36.7124   28.1153   35.7241 H   0  0  0  0  0  0  0  0  0  0  0  0
   34.9025   29.6855   34.9478 H   0  0  0  0  0  0  0  0  0  0  0  0
   34.4913   29.9475   32.5147 H   0  0  0  0  0  0  0  0  0  0  0  0
   35.8202   28.7077   30.8834 H   0  0  0  0  0  0  0  0  0  0  0  0
   36.8449   24.9801   34.1427 H   0  0  0  0  0  0  0  0  0  0  0  0
   39.8383   28.0856   34.2992 H   0  0  0  0  0  0  0  0  0  0  0  0
   40.7815   24.1068   35.4494 H   0  0  0  0  0  0  0  0  0  0  0  0
   37.8680   26.0334   31.3256 H   0  0  0  0  0  0  0  0  0  0  0  0
   36.9971   27.2394   30.2822 H   0  0  0  0  0  0  0  0  0  0  0  0
   39.2811   28.4501   31.6163 H   0  0  0  0  0  0  0  0  0  0  0  0
   39.7591   26.9958   30.6432 H   0  0  0  0  0  0  0  0  0  0  0  0
   36.8070   28.3037   28.8842 H   0  0  0  0  0  0  0  0  0  0  0  0
   37.5789   29.8345   26.9436 H   0  0  0  0  0  0  0  0  0  0  0  0
   39.9467   31.1019   26.2150 H   0  0  0  0  0  0  0  0  0  0  0  0
   42.3015   31.4901   26.8145 H   0  0  0  0  0  0  0  0  0  0  0  0
   43.1882   30.4201   28.8969 H   0  0  0  0  0  0  0  0  0  0  0  0
   41.7013   29.0062   30.2872 H   0  0  0  0  0  0  0  0  0  0  0  0
  1  8  1  0
  1  2  2  0
  3  2  1  0
  4  3  2  0
  5  6  2  0
  5  4  1  0
  6  1  1  0
  7 12  2  0
  8  7  1  0
  8  9  2  0
  9 10  1  0
 10 11  2  0
 12 11  1  0
 13  6  1  0
 14 13  1  0
 15 14  1  0
 16 15  2  0
 17 18  1  0
 17 16  1  0
 18 23  2  0
 19 20  2  0
 19 18  1  0
 20 21  1  0
 21 22  2  0
 23 22  1  0
 23 15  1  0
  2 24  1  0
  3 25  1  0
  4 26  1  0
  5 27  1  0
  7 28  1  0
  9 29  1  0
 11 30  1  0
 13 31  1  0
 13 32  1  0
 14 33  1  0
 14 34  1  0
 16 35  1  0
 17 36  1  0
 19 37  1  0
 20 38  1  0
 21 39  1  0
 22 40  1  0
M  ISO  8  24  14  25  14  26  14  27  14  28  14  29  14  30  14  31   8
M  ISO  8  32   8  33   8  34   8  35  14  36   9  37  14  38  14  39  14
M  ISO  1  40  14
M  END
>  <minimizedAffinity>  (1) 
-4.67289543

>  <minimizedRMSD>  (1) 
8.12129116

$$$$
