
     RDKit          3D

 33 35  0  0  0  0  0  0  0  0999 V2000
   38.8800   26.8840   33.6090 C   0  0  0  0  0  0  0  0  0  0  0  0
   38.4580   27.4470   32.3850 C   0  0  0  0  0  0  0  0  0  0  0  0
   37.1920   28.0120   32.3970 C   0  0  0  0  0  0  0  0  0  0  0  0
   36.4320   28.0000   33.5540 C   0  0  0  0  0  0  0  0  0  0  0  0
   36.9270   27.4190   34.7290 C   0  0  0  0  0  0  0  0  0  0  0  0
   38.1900   26.8380   34.7710 C   0  0  0  0  0  0  0  0  0  0  0  0
   41.3050   27.1570   33.9780 C   0  0  0  0  0  0  0  0  0  0  0  0
   40.2060   26.3030   33.5840 C   0  0  0  0  0  0  0  0  0  0  0  0
   40.4960   25.0310   33.2210 C   0  0  0  0  0  0  0  0  0  0  0  0
   41.7750   24.5860   33.2310 N   0  0  0  0  0  0  0  0  0  0  0  0
   42.8040   25.4160   33.6080 C   0  0  0  0  0  0  0  0  0  0  0  0
   42.5710   26.7180   33.9870 N   0  0  0  0  0  0  0  0  0  0  0  0
   38.4130   26.3100   36.1050 C   0  0  0  0  0  0  0  0  0  0  0  0
   38.4150   24.8270   36.2390 C   0  0  0  0  0  0  0  0  0  0  0  0
   37.7120   24.2200   37.3880 C   0  0  0  0  0  0  0  0  0  0  0  0
   38.4840   23.3940   38.4280 C   0  0  0  0  0  0  0  0  0  0  0  0
   37.9950   24.7860   38.7500 C   0  0  0  0  0  0  0  0  0  0  0  0
   39.0897   27.4380   31.4845 H   0  0  0  0  0  0  0  0  0  0  0  0
   36.7894   28.4721   31.4826 H   0  0  0  0  0  0  0  0  0  0  0  0
   35.4289   28.4514   33.5509 H   0  0  0  0  0  0  0  0  0  0  0  0
   36.3046   27.4224   35.6360 H   0  0  0  0  0  0  0  0  0  0  0  0
   41.0959   28.1944   34.2782 H   0  0  0  0  0  0  0  0  0  0  0  0
   39.6854   24.3531   32.9153 H   0  0  0  0  0  0  0  0  0  0  0  0
   43.8346   25.0314   33.6066 H   0  0  0  0  0  0  0  0  0  0  0  0
   39.3897   26.6785   36.4517 H   0  0  0  0  0  0  0  0  0  0  0  0
   37.5568   26.6559   36.7027 H   0  0  0  0  0  0  0  0  0  0  0  0
   37.9573   24.4183   35.3261 H   0  0  0  0  0  0  0  0  0  0  0  0
   39.4722   24.5743   36.4074 H   0  0  0  0  0  0  0  0  0  0  0  0
   36.8208   24.0290   36.7722 H   0  0  0  0  0  0  0  0  0  0  0  0
   38.0121   22.5196   38.9000 H   0  0  0  0  0  0  0  0  0  0  0  0
   39.4559   22.8795   38.4549 H   0  0  0  0  0  0  0  0  0  0  0  0
   38.7185   25.6072   38.8608 H   0  0  0  0  0  0  0  0  0  0  0  0
   37.3739   25.2184   39.5483 H   0  0  0  0  0  0  0  0  0  0  0  0
  1  6  2  0
  2  3  2  0
  2  1  1  0
  3  4  1  0
  4  5  2  0
  5  6  1  0
  6 13  1  0
  7 12  2  0
  8  1  1  0
  8  7  1  0
  9 10  1  0
  9  8  2  0
 10 11  2  0
 11 12  1  0
 13 14  1  0
 14 15  1  0
 15 16  1  0
 15 17  1  0
 16 17  1  0
  2 18  1  0
  3 19  1  0
  4 20  1  0
  5 21  1  0
  7 22  1  0
  9 23  1  0
 11 24  1  0
 13 25  1  0
 13 26  1  0
 14 27  1  0
 14 28  1  0
 15 29  1  0
 16 30  1  0
 16 31  1  0
 17 32  1  0
 17 33  1  0
M  ISO  8  18  14  19  14  20  14  21  14  22  14  23  14  24  14  25   8
M  ISO  8  26   8  27   8  28   8  29  13  30  13  31  13  32  13  33  13
M  END
>  <minimizedAffinity>  (1) 
-4.5304718

>  <minimizedRMSD>  (1) 
1.55609572

$$$$
