
     RDKit          3D

 27 28  0  0  0  0  0  0  0  0999 V2000
   38.8670   26.8660   33.6550 C   0  0  0  0  0  0  0  0  0  0  0  0
   38.5030   27.4280   32.4280 C   0  0  0  0  0  0  0  0  0  0  0  0
   37.2520   28.0130   32.3780 C   0  0  0  0  0  0  0  0  0  0  0  0
   36.4400   28.0190   33.4960 C   0  0  0  0  0  0  0  0  0  0  0  0
   36.8790   27.4430   34.6660 C   0  0  0  0  0  0  0  0  0  0  0  0
   38.1260   26.8370   34.7840 C   0  0  0  0  0  0  0  0  0  0  0  0
   41.3060   27.1290   33.9820 C   0  0  0  0  0  0  0  0  0  0  0  0
   40.1880   26.2620   33.6850 C   0  0  0  0  0  0  0  0  0  0  0  0
   40.4580   24.9540   33.4600 C   0  0  0  0  0  0  0  0  0  0  0  0
   41.7110   24.4690   33.5080 N   0  0  0  0  0  0  0  0  0  0  0  0
   42.7620   25.3130   33.7930 C   0  0  0  0  0  0  0  0  0  0  0  0
   42.5620   26.6520   34.0320 N   0  0  0  0  0  0  0  0  0  0  0  0
   38.3080   26.3010   36.1460 C   0  0  0  0  0  0  0  0  0  0  0  0
   37.9050   24.8380   36.2680 C   0  0  0  0  0  0  0  0  0  0  0  0
   38.0160   24.3710   38.0060 S   0  0  0  0  0  0  0  0  0  0  0  0
   39.1719   27.4059   31.5550 H   0  0  0  0  0  0  0  0  0  0  0  0
   36.9010   28.4760   31.4439 H   0  0  0  0  0  0  0  0  0  0  0  0
   35.4440   28.4836   33.4508 H   0  0  0  0  0  0  0  0  0  0  0  0
   36.2169   27.4624   35.5442 H   0  0  0  0  0  0  0  0  0  0  0  0
   41.1259   28.1977   34.1704 H   0  0  0  0  0  0  0  0  0  0  0  0
   39.6283   24.2689   33.2314 H   0  0  0  0  0  0  0  0  0  0  0  0
   43.7835   24.9066   33.8301 H   0  0  0  0  0  0  0  0  0  0  0  0
   39.3686   26.3966   36.4216 H   0  0  0  0  0  0  0  0  0  0  0  0
   37.6558   26.8791   36.8171 H   0  0  0  0  0  0  0  0  0  0  0  0
   36.8732   24.7042   35.9109 H   0  0  0  0  0  0  0  0  0  0  0  0
   38.5701   24.2070   35.6601 H   0  0  0  0  0  0  0  0  0  0  0  0
   37.7562   25.4640   38.7900 H   0  0  0  0  0  0  0  0  0  0  0  0
  1  8  1  0
  1  6  1  0
  2  1  2  0
  3  2  1  0
  3  4  2  0
  4  5  1  0
  5  6  2  0
  6 13  1  0
  7 12  2  0
  8  7  1  0
  9 10  1  0
  9  8  2  0
 10 11  2  0
 11 12  1  0
 13 14  1  0
 14 15  1  0
  2 16  1  0
  3 17  1  0
  4 18  1  0
  5 19  1  0
  7 20  1  0
  9 21  1  0
 11 22  1  0
 13 23  1  0
 13 24  1  0
 14 25  1  0
 14 26  1  0
 15 27  1  0
M  ISO  8  16  14  17  14  18  14  19  14  20  14  21  14  22  14  23   8
M  ISO  4  24   8  25   8  26   8  27  11
M  END
>  <minimizedAffinity>  (1) 
-3.68029618

>  <minimizedRMSD>  (1) 
0.425228

$$$$
