
     RDKit          3D

 33 35  0  0  0  0  0  0  0  0999 V2000
   36.2940   22.9920   31.9460 C   0  0  0  0  0  0  0  0  0  0  0  0
   35.4700   23.8390   31.2040 C   0  0  0  0  0  0  0  0  0  0  0  0
   35.7020   25.1960   31.3470 C   0  0  0  0  0  0  0  0  0  0  0  0
   36.7070   25.6380   32.1870 C   0  0  0  0  0  0  0  0  0  0  0  0
   37.4710   24.7390   32.8790 C   0  0  0  0  0  0  0  0  0  0  0  0
   37.2940   23.3650   32.7870 C   0  0  0  0  0  0  0  0  0  0  0  0
   36.9040   20.8670   30.8380 C   0  0  0  0  0  0  0  0  0  0  0  0
   36.0430   21.5710   31.7650 C   0  0  0  0  0  0  0  0  0  0  0  0
   35.0800   20.8650   32.3990 C   0  0  0  0  0  0  0  0  0  0  0  0
   34.9190   19.5470   32.1810 N   0  0  0  0  0  0  0  0  0  0  0  0
   35.7430   18.8900   31.2990 C   0  0  0  0  0  0  0  0  0  0  0  0
   36.7410   19.5500   30.6220 N   0  0  0  0  0  0  0  0  0  0  0  0
   38.2400   22.6580   33.6690 C   0  0  0  0  0  0  0  0  0  0  0  0
   37.5540   22.0610   34.8980 C   0  0  0  0  0  0  0  0  0  0  0  0
   38.1490   22.5230   36.1110 N   0  0  0  0  0  0  0  0  0  0  0  0
   37.5090   23.1400   37.0920 N   0  0  0  0  0  0  0  0  0  0  0  0
   38.3580   23.4420   38.0910 C   0  0  0  0  0  0  0  0  0  0  0  0
   39.5850   22.9690   37.6690 C   0  0  0  0  0  0  0  0  0  0  0  0
   39.4530   22.3820   36.4060 C   0  0  0  0  0  0  0  0  0  0  0  0
   34.6811   23.4505   30.5432 H   0  0  0  0  0  0  0  0  0  0  0  0
   35.0878   25.9214   30.7933 H   0  0  0  0  0  0  0  0  0  0  0  0
   36.8929   26.7164   32.2993 H   0  0  0  0  0  0  0  0  0  0  0  0
   38.2627   25.1225   33.5393 H   0  0  0  0  0  0  0  0  0  0  0  0
   37.6971   21.4135   30.3067 H   0  0  0  0  0  0  0  0  0  0  0  0
   34.4141   21.3788   33.1079 H   0  0  0  0  0  0  0  0  0  0  0  0
   35.6009   17.8122   31.1310 H   0  0  0  0  0  0  0  0  0  0  0  0
   38.7146   21.8454   33.0994 H   0  0  0  0  0  0  0  0  0  0  0  0
   38.9823   23.3896   34.0208 H   0  0  0  0  0  0  0  0  0  0  0  0
   36.4925   22.3494   34.8891 H   0  0  0  0  0  0  0  0  0  0  0  0
   37.6656   20.9675   34.8559 H   0  0  0  0  0  0  0  0  0  0  0  0
   38.1258   23.9536   39.0367 H   0  0  0  0  0  0  0  0  0  0  0  0
   40.5229   23.0426   38.2390 H   0  0  0  0  0  0  0  0  0  0  0  0
   40.2371   21.9123   35.7940 H   0  0  0  0  0  0  0  0  0  0  0  0
  1  6  2  0
  2  3  2  0
  2  1  1  0
  3  4  1  0
  4  5  2  0
  6  5  1  0
  6 13  1  0
  7  8  2  0
  8  1  1  0
  8  9  1  0
 10  9  2  0
 11 10  1  0
 12  7  1  0
 12 11  2  0
 13 14  1  0
 14 15  1  0
 15 19  1  0
 15 16  1  0
 16 17  2  0
 18 17  1  0
 19 18  2  0
  2 20  1  0
  3 21  1  0
  4 22  1  0
  5 23  1  0
  7 24  1  0
  9 25  1  0
 11 26  1  0
 13 27  1  0
 13 28  1  0
 14 29  1  0
 14 30  1  0
 17 31  1  0
 18 32  1  0
 19 33  1  0
M  ISO  8  20  14  21  14  22  14  23  14  24  14  25  14  26  14  27   8
M  ISO  6  28   8  29   8  30   8  31  14  32  14  33  14
M  END
>  <minimizedAffinity>  (1) 
-4.88993073

>  <minimizedRMSD>  (1) 
5.753263

$$$$
