
     RDKit          3D

 44 48  0  0  0  0  0  0  0  0999 V2000
   38.4130   22.6570   33.6880 C   0  0  0  0  0  0  0  0  0  0  0  0
   36.4360   23.0530   32.0780 C   0  0  0  0  0  0  0  0  0  0  0  0
   35.5790   23.9210   31.3870 C   0  0  0  0  0  0  0  0  0  0  0  0
   35.7780   25.2700   31.5620 C   0  0  0  0  0  0  0  0  0  0  0  0
   36.7840   25.6970   32.3870 C   0  0  0  0  0  0  0  0  0  0  0  0
   37.5820   24.8020   33.0290 C   0  0  0  0  0  0  0  0  0  0  0  0
   37.4320   23.4300   32.8940 C   0  0  0  0  0  0  0  0  0  0  0  0
   37.0520   20.9730   30.8910 C   0  0  0  0  0  0  0  0  0  0  0  0
   36.1830   21.6310   31.8580 C   0  0  0  0  0  0  0  0  0  0  0  0
   35.2170   20.9230   32.4840 C   0  0  0  0  0  0  0  0  0  0  0  0
   35.0650   19.6100   32.2090 N   0  0  0  0  0  0  0  0  0  0  0  0
   35.8790   18.9870   31.3020 C   0  0  0  0  0  0  0  0  0  0  0  0
   36.8690   19.6630   30.6450 N   0  0  0  0  0  0  0  0  0  0  0  0
   37.7790   21.9150   34.8450 C   0  0  0  0  0  0  0  0  0  0  0  0
   38.0100   22.5440   36.1060 N   0  0  0  0  0  0  0  0  0  0  0  0
   37.0700   22.8410   36.9920 N   0  0  0  0  0  0  0  0  0  0  0  0
   37.6190   23.4250   38.0720 C   0  0  0  0  0  0  0  0  0  0  0  0
   38.9650   23.4740   37.8060 C   0  0  0  0  0  0  0  0  0  0  0  0
   39.2210   22.9100   36.5480 C   0  0  0  0  0  0  0  0  0  0  0  0
   40.5140   22.8040   35.9680 N   0  0  0  0  0  0  0  0  0  0  0  0
   41.3810   21.7790   35.9030 C   0  0  0  0  0  0  0  0  0  0  0  0
   42.5030   22.1710   35.2350 N   0  0  0  0  0  0  0  0  0  0  0  0
   42.3600   23.4620   34.8660 C   0  0  0  0  0  0  0  0  0  0  0  0
   43.1590   24.3790   34.1750 C   0  0  0  0  0  0  0  0  0  0  0  0
   42.6980   25.6400   33.9680 N   0  0  0  0  0  0  0  0  0  0  0  0
   41.4850   25.9950   34.4260 C   0  0  0  0  0  0  0  0  0  0  0  0
   40.7240   25.1160   35.0860 N   0  0  0  0  0  0  0  0  0  0  0  0
   41.1180   23.8450   35.3280 C   0  0  0  0  0  0  0  0  0  0  0  0
   39.1670   23.3514   34.0871 H   0  0  0  0  0  0  0  0  0  0  0  0
   38.8611   21.9067   33.0200 H   0  0  0  0  0  0  0  0  0  0  0  0
   34.7814   23.5390   30.7328 H   0  0  0  0  0  0  0  0  0  0  0  0
   35.1361   25.9984   31.0449 H   0  0  0  0  0  0  0  0  0  0  0  0
   36.9485   26.7749   32.5320 H   0  0  0  0  0  0  0  0  0  0  0  0
   38.3803   25.1827   33.6831 H   0  0  0  0  0  0  0  0  0  0  0  0
   37.8419   21.5361   30.3724 H   0  0  0  0  0  0  0  0  0  0  0  0
   34.5574   21.4144   33.2144 H   0  0  0  0  0  0  0  0  0  0  0  0
   35.7330   17.9162   31.0967 H   0  0  0  0  0  0  0  0  0  0  0  0
   36.6937   21.8610   34.6740 H   0  0  0  0  0  0  0  0  0  0  0  0
   38.2388   20.9166   34.8866 H   0  0  0  0  0  0  0  0  0  0  0  0
   37.1016   23.7854   38.9733 H   0  0  0  0  0  0  0  0  0  0  0  0
   39.7280   23.8928   38.4787 H   0  0  0  0  0  0  0  0  0  0  0  0
   41.2113   20.7772   36.3243 H   0  0  0  0  0  0  0  0  0  0  0  0
   44.1507   24.0820   33.8030 H   0  0  0  0  0  0  0  0  0  0  0  0
   41.1155   27.0171   34.2563 H   0  0  0  0  0  0  0  0  0  0  0  0
  1 14  1  0
  2  7  2  0
  3  4  2  0
  3  2  1  0
  4  5  1  0
  5  6  2  0
  7  6  1  0
  7  1  1  0
  8  9  2  0
  9  2  1  0
  9 10  1  0
 11 10  2  0
 12 11  1  0
 13  8  1  0
 13 12  2  0
 14 15  1  0
 15 19  1  0
 15 16  1  0
 16 17  2  0
 18 17  1  0
 19 18  2  0
 20 19  1  0
 21 20  1  0
 22 21  2  0
 23 22  1  0
 23 28  2  0
 24 23  1  0
 25 24  2  0
 25 26  1  0
 26 27  2  0
 27 28  1  0
 28 20  1  0
  1 29  1  0
  1 30  1  0
  3 31  1  0
  4 32  1  0
  5 33  1  0
  6 34  1  0
  8 35  1  0
 10 36  1  0
 12 37  1  0
 14 38  1  0
 14 39  1  0
 17 40  1  0
 18 41  1  0
 21 42  1  0
 24 43  1  0
 26 44  1  0
M  ISO  8  29   8  30   8  31  14  32  14  33  14  34  14  35  14  36  14
M  ISO  8  37  14  38   8  39   8  40  14  41  14  42  14  43  14  44  14
M  END
>  <minimizedAffinity>  (1) 
-5.63990307

>  <minimizedRMSD>  (1) 
1.4454447

$$$$
