
     RDKit          3D

 39 42  0  0  0  0  0  0  0  0999 V2000
   36.3960   23.0530   32.0660 C   0  0  0  0  0  0  0  0  0  0  0  0
   35.5340   23.9100   31.3770 C   0  0  0  0  0  0  0  0  0  0  0  0
   35.7570   25.2640   31.5450 C   0  0  0  0  0  0  0  0  0  0  0  0
   36.7720   25.7090   32.3470 C   0  0  0  0  0  0  0  0  0  0  0  0
   37.5660   24.8120   32.9820 C   0  0  0  0  0  0  0  0  0  0  0  0
   37.4080   23.4490   32.8650 C   0  0  0  0  0  0  0  0  0  0  0  0
   36.9940   20.9640   30.8860 C   0  0  0  0  0  0  0  0  0  0  0  0
   36.1500   21.6320   31.8680 C   0  0  0  0  0  0  0  0  0  0  0  0
   35.2170   20.9120   32.5130 C   0  0  0  0  0  0  0  0  0  0  0  0
   35.0420   19.6080   32.2830 N   0  0  0  0  0  0  0  0  0  0  0  0
   35.8440   18.9740   31.3510 C   0  0  0  0  0  0  0  0  0  0  0  0
   36.8200   19.6510   30.6510 N   0  0  0  0  0  0  0  0  0  0  0  0
   38.4040   22.6870   33.6600 C   0  0  0  0  0  0  0  0  0  0  0  0
   37.8320   22.0320   34.8860 C   0  0  0  0  0  0  0  0  0  0  0  0
   38.0960   22.7350   36.0970 N   0  0  0  0  0  0  0  0  0  0  0  0
   37.2350   23.4950   36.7780 N   0  0  0  0  0  0  0  0  0  0  0  0
   37.7970   24.0250   37.8610 C   0  0  0  0  0  0  0  0  0  0  0  0
   39.0780   23.5470   37.8220 C   0  0  0  0  0  0  0  0  0  0  0  0
   39.2810   22.7130   36.6910 C   0  0  0  0  0  0  0  0  0  0  0  0
   40.5790   22.0360   36.4300 C   0  0  0  0  0  0  0  0  0  0  0  0
   41.2920   21.4230   37.4940 C   0  0  0  0  0  0  0  0  0  0  0  0
   42.7260   20.7730   36.7230 S   0  0  0  0  0  0  0  0  0  0  0  0
   42.2120   21.4030   35.0090 C   0  0  0  0  0  0  0  0  0  0  0  0
   41.1750   21.9320   35.2780 N   0  0  0  0  0  0  0  0  0  0  0  0
   34.7242   23.5291   30.7374 H   0  0  0  0  0  0  0  0  0  0  0  0
   35.1121   25.9905   31.0289 H   0  0  0  0  0  0  0  0  0  0  0  0
   36.9429   26.7880   32.4759 H   0  0  0  0  0  0  0  0  0  0  0  0
   38.3761   25.1916   33.6220 H   0  0  0  0  0  0  0  0  0  0  0  0
   37.7660   21.5279   30.3420 H   0  0  0  0  0  0  0  0  0  0  0  0
   34.5767   21.4125   33.2543 H   0  0  0  0  0  0  0  0  0  0  0  0
   35.6990   17.8999   31.1632 H   0  0  0  0  0  0  0  0  0  0  0  0
   38.8341   21.9043   33.0178 H   0  0  0  0  0  0  0  0  0  0  0  0
   39.1571   23.4102   34.0062 H   0  0  0  0  0  0  0  0  0  0  0  0
   36.7418   21.9566   34.7608 H   0  0  0  0  0  0  0  0  0  0  0  0
   38.3177   21.0492   34.9769 H   0  0  0  0  0  0  0  0  0  0  0  0
   37.3404   24.6893   38.6095 H   0  0  0  0  0  0  0  0  0  0  0  0
   39.8507   23.7787   38.5699 H   0  0  0  0  0  0  0  0  0  0  0  0
   41.0100   21.3686   38.5558 H   0  0  0  0  0  0  0  0  0  0  0  0
   42.7244   21.3080   34.0403 H   0  0  0  0  0  0  0  0  0  0  0  0
  1  6  2  0
  2  3  2  0
  2  1  1  0
  3  4  1  0
  4  5  2  0
  6  5  1  0
  6 13  1  0
  7  8  2  0
  8  1  1  0
  8  9  1  0
 10  9  2  0
 11 10  1  0
 12  7  1  0
 12 11  2  0
 13 14  1  0
 14 15  1  0
 15 19  1  0
 15 16  1  0
 16 17  2  0
 18 17  1  0
 19 18  2  0
 20 19  1  0
 20 21  2  0
 22 21  1  0
 23 24  2  0
 23 22  1  0
 24 20  1  0
  2 25  1  0
  3 26  1  0
  4 27  1  0
  5 28  1  0
  7 29  1  0
  9 30  1  0
 11 31  1  0
 13 32  1  0
 13 33  1  0
 14 34  1  0
 14 35  1  0
 17 36  1  0
 18 37  1  0
 21 38  1  0
 23 39  1  0
M  ISO  8  25  14  26  14  27  14  28  14  29  14  30  14  31  14  32   8
M  ISO  7  33   8  34   8  35   8  36  14  37  14  38  14  39  14
M  END
>  <minimizedAffinity>  (1) 
-5.30145693

>  <minimizedRMSD>  (1) 
0.609489799

$$$$
