
     RDKit          3D

 47 50  0  0  0  0  0  0  0  0999 V2000
   38.3550   22.7940   33.5010 C   0  0  0  0  0  0  0  0  0  0  0  0
   36.2950   23.0570   31.9610 C   0  0  0  0  0  0  0  0  0  0  0  0
   35.3790   23.8640   31.2780 C   0  0  0  0  0  0  0  0  0  0  0  0
   35.5360   25.2270   31.3940 C   0  0  0  0  0  0  0  0  0  0  0  0
   36.5710   25.7230   32.1640 C   0  0  0  0  0  0  0  0  0  0  0  0
   37.4180   24.8760   32.7950 C   0  0  0  0  0  0  0  0  0  0  0  0
   37.3190   23.4970   32.7220 C   0  0  0  0  0  0  0  0  0  0  0  0
   36.9440   20.9420   30.8670 C   0  0  0  0  0  0  0  0  0  0  0  0
   36.0900   21.6180   31.8080 C   0  0  0  0  0  0  0  0  0  0  0  0
   35.1750   20.8930   32.4740 C   0  0  0  0  0  0  0  0  0  0  0  0
   35.0430   19.5720   32.2800 N   0  0  0  0  0  0  0  0  0  0  0  0
   35.8700   18.9400   31.3740 C   0  0  0  0  0  0  0  0  0  0  0  0
   36.8190   19.6250   30.6690 N   0  0  0  0  0  0  0  0  0  0  0  0
   37.8020   22.0860   34.7120 C   0  0  0  0  0  0  0  0  0  0  0  0
   38.1050   22.7300   35.9450 N   0  0  0  0  0  0  0  0  0  0  0  0
   37.2700   23.4480   36.6750 N   0  0  0  0  0  0  0  0  0  0  0  0
   37.8840   23.9020   37.7750 C   0  0  0  0  0  0  0  0  0  0  0  0
   39.1700   23.4210   37.6930 C   0  0  0  0  0  0  0  0  0  0  0  0
   39.3140   22.6750   36.5280 C   0  0  0  0  0  0  0  0  0  0  0  0
   40.4910   22.0190   36.0760 N   0  0  0  0  0  0  0  0  0  0  0  0
   40.9230   21.9760   34.6830 C   0  0  0  0  0  0  0  0  0  0  0  0
   42.3390   21.5230   34.5560 C   0  0  0  0  0  0  0  0  0  0  0  0
   43.2570   22.0740   35.4990 N   0  0  0  0  0  0  0  0  0  0  0  0
   42.7250   22.1250   36.8230 C   0  0  0  0  0  0  0  0  0  0  0  0
   41.4690   21.2760   36.8620 C   0  0  0  0  0  0  0  0  0  0  0  0
   39.1016   23.5294   33.8353 H   0  0  0  0  0  0  0  0  0  0  0  0
   38.7972   22.0290   32.8458 H   0  0  0  0  0  0  0  0  0  0  0  0
   34.5687   23.4288   30.6747 H   0  0  0  0  0  0  0  0  0  0  0  0
   34.8462   25.9127   30.8802 H   0  0  0  0  0  0  0  0  0  0  0  0
   36.7071   26.8099   32.2645 H   0  0  0  0  0  0  0  0  0  0  0  0
   38.2298   25.3074   33.3991 H   0  0  0  0  0  0  0  0  0  0  0  0
   37.7023   21.5105   30.3086 H   0  0  0  0  0  0  0  0  0  0  0  0
   34.5167   21.3962   33.1975 H   0  0  0  0  0  0  0  0  0  0  0  0
   35.7625   17.8568   31.2153 H   0  0  0  0  0  0  0  0  0  0  0  0
   36.7082   22.0292   34.6106 H   0  0  0  0  0  0  0  0  0  0  0  0
   38.2751   21.0935   34.7454 H   0  0  0  0  0  0  0  0  0  0  0  0
   37.4529   24.5253   38.5723 H   0  0  0  0  0  0  0  0  0  0  0  0
   39.9626   23.5989   38.4347 H   0  0  0  0  0  0  0  0  0  0  0  0
   40.2753   21.2793   34.1306 H   0  0  0  0  0  0  0  0  0  0  0  0
   40.8511   22.9934   34.2710 H   0  0  0  0  0  0  0  0  0  0  0  0
   42.3543   20.4291   34.6705 H   0  0  0  0  0  0  0  0  0  0  0  0
   42.6770   21.8762   33.5706 H   0  0  0  0  0  0  0  0  0  0  0  0
   44.1077   21.4934   35.5082 H   0  0  0  0  0  0  0  0  0  0  0  0
   43.4634   21.7305   37.5365 H   0  0  0  0  0  0  0  0  0  0  0  0
   42.4902   23.1638   37.0984 H   0  0  0  0  0  0  0  0  0  0  0  0
   41.1188   21.1500   37.8971 H   0  0  0  0  0  0  0  0  0  0  0  0
   41.6394   20.2650   36.4636 H   0  0  0  0  0  0  0  0  0  0  0  0
  1 14  1  0
  2  7  2  0
  3  4  2  0
  3  2  1  0
  4  5  1  0
  5  6  2  0
  7  6  1  0
  7  1  1  0
  8  9  2  0
  9  2  1  0
  9 10  1  0
 11 10  2  0
 12 11  1  0
 13  8  1  0
 13 12  2  0
 14 15  1  0
 15 19  1  0
 15 16  1  0
 16 17  2  0
 18 17  1  0
 19 18  2  0
 20 19  1  0
 20 25  1  0
 21 20  1  0
 22 21  1  0
 22 23  1  0
 23 24  1  0
 24 25  1  0
  1 26  1  0
  1 27  1  0
  3 28  1  0
  4 29  1  0
  5 30  1  0
  6 31  1  0
  8 32  1  0
 10 33  1  0
 12 34  1  0
 14 35  1  0
 14 36  1  0
 17 37  1  0
 18 38  1  0
 21 39  1  0
 21 40  1  0
 22 41  1  0
 22 42  1  0
 23 43  1  0
 24 44  1  0
 24 45  1  0
 25 46  1  0
 25 47  1  0
M  ISO  8  26   8  27   8  28  14  29  14  30  14  31  14  32  14  33  14
M  ISO  8  34  14  35   8  36   8  37  14  38  14  39  13  40  13  41  13
M  ISO  6  42  13  43   5  44  13  45  13  46  13  47  13
M  END
>  <minimizedAffinity>  (1) 
-5.26736164

>  <minimizedRMSD>  (1) 
0.542149901

$$$$
