
     RDKit          3D

 45 47  0  0  0  0  0  0  0  0999 V2000
   36.3470   23.1150   31.9830 C   0  0  0  0  0  0  0  0  0  0  0  0
   35.4190   23.9150   31.3330 C   0  0  0  0  0  0  0  0  0  0  0  0
   35.5610   25.2750   31.4530 C   0  0  0  0  0  0  0  0  0  0  0  0
   36.6040   25.7780   32.2030 C   0  0  0  0  0  0  0  0  0  0  0  0
   37.4820   24.9420   32.8150 C   0  0  0  0  0  0  0  0  0  0  0  0
   37.3820   23.5660   32.7250 C   0  0  0  0  0  0  0  0  0  0  0  0
   37.0480   21.0110   30.8820 C   0  0  0  0  0  0  0  0  0  0  0  0
   36.1610   21.6780   31.8250 C   0  0  0  0  0  0  0  0  0  0  0  0
   35.2470   20.9410   32.4770 C   0  0  0  0  0  0  0  0  0  0  0  0
   35.1260   19.6220   32.2880 N   0  0  0  0  0  0  0  0  0  0  0  0
   35.9730   18.9950   31.3890 C   0  0  0  0  0  0  0  0  0  0  0  0
   36.9410   19.6870   30.6800 N   0  0  0  0  0  0  0  0  0  0  0  0
   38.4550   22.8670   33.4770 C   0  0  0  0  0  0  0  0  0  0  0  0
   37.9520   22.0220   34.6120 C   0  0  0  0  0  0  0  0  0  0  0  0
   38.1830   22.5910   35.9050 N   0  0  0  0  0  0  0  0  0  0  0  0
   37.2650   23.1350   36.7100 N   0  0  0  0  0  0  0  0  0  0  0  0
   37.8220   23.5790   37.8320 C   0  0  0  0  0  0  0  0  0  0  0  0
   39.1480   23.2810   37.6870 C   0  0  0  0  0  0  0  0  0  0  0  0
   39.4010   22.6420   36.4490 C   0  0  0  0  0  0  0  0  0  0  0  0
   40.7860   22.2700   36.1760 C   0  0  0  0  0  0  0  0  0  0  0  0
   40.9490   21.5490   34.8550 C   0  0  0  0  0  0  0  0  0  0  0  0
   41.6720   23.5330   36.0130 C   0  0  0  0  0  0  0  0  0  0  0  0
   41.4600   21.5160   37.2930 C   0  0  0  0  0  0  0  0  0  0  0  0
   34.6003   23.4763   30.7437 H   0  0  0  0  0  0  0  0  0  0  0  0
   34.8524   25.9550   30.9576 H   0  0  0  0  0  0  0  0  0  0  0  0
   36.7256   26.8664   32.3062 H   0  0  0  0  0  0  0  0  0  0  0  0
   38.3033   25.3758   33.4043 H   0  0  0  0  0  0  0  0  0  0  0  0
   37.8057   21.5913   30.3350 H   0  0  0  0  0  0  0  0  0  0  0  0
   34.5746   21.4390   33.1911 H   0  0  0  0  0  0  0  0  0  0  0  0
   35.8735   17.9107   31.2328 H   0  0  0  0  0  0  0  0  0  0  0  0
   39.0013   22.2174   32.7774 H   0  0  0  0  0  0  0  0  0  0  0  0
   39.0947   23.6456   33.9180 H   0  0  0  0  0  0  0  0  0  0  0  0
   36.8687   21.8800   34.4845 H   0  0  0  0  0  0  0  0  0  0  0  0
   38.5091   21.0742   34.5759 H   0  0  0  0  0  0  0  0  0  0  0  0
   37.3290   24.0730   38.6822 H   0  0  0  0  0  0  0  0  0  0  0  0
   39.9203   23.5086   38.4366 H   0  0  0  0  0  0  0  0  0  0  0  0
   41.1881   20.4916   35.0415 H   0  0  0  0  0  0  0  0  0  0  0  0
   40.0127   21.6177   34.2818 H   0  0  0  0  0  0  0  0  0  0  0  0
   41.7647   22.0138   34.2818 H   0  0  0  0  0  0  0  0  0  0  0  0
   41.9440   23.9207   37.0058 H   0  0  0  0  0  0  0  0  0  0  0  0
   42.5854   23.2711   35.4588 H   0  0  0  0  0  0  0  0  0  0  0  0
   41.1149   24.3027   35.4588 H   0  0  0  0  0  0  0  0  0  0  0  0
   41.1116   21.9057   38.2609 H   0  0  0  0  0  0  0  0  0  0  0  0
   41.2106   20.4474   37.2168 H   0  0  0  0  0  0  0  0  0  0  0  0
   42.5498   21.6445   37.2168 H   0  0  0  0  0  0  0  0  0  0  0  0
  1  6  2  0
  2  3  2  0
  2  1  1  0
  3  4  1  0
  4  5  2  0
  6  5  1  0
  6 13  1  0
  7  8  2  0
  8  1  1  0
  8  9  1  0
 10  9  2  0
 11 10  1  0
 12  7  1  0
 12 11  2  0
 13 14  1  0
 14 15  1  0
 15 19  1  0
 15 16  1  0
 16 17  2  0
 18 17  1  0
 19 18  2  0
 20 19  1  0
 20 23  1  0
 21 20  1  0
 22 20  1  0
  2 24  1  0
  3 25  1  0
  4 26  1  0
  5 27  1  0
  7 28  1  0
  9 29  1  0
 11 30  1  0
 13 31  1  0
 13 32  1  0
 14 33  1  0
 14 34  1  0
 17 35  1  0
 18 36  1  0
 21 37  1  0
 21 38  1  0
 21 39  1  0
 22 40  1  0
 22 41  1  0
 22 42  1  0
 23 43  1  0
 23 44  1  0
 23 45  1  0
M  ISO  8  24  14  25  14  26  14  27  14  28  14  29  14  30  14  31   8
M  ISO  8  32   8  33   8  34   8  35  14  36  14  37   8  38   8  39   8
M  ISO  6  40   8  41   8  42   8  43   8  44   8  45   8
M  END
>  <minimizedAffinity>  (1) 
-5.25872135

>  <minimizedRMSD>  (1) 
0.422582448

$$$$
