
     RDKit          3D

 39 41  0  0  0  0  0  0  0  0999 V2000
   36.4770   23.3030   32.0830 C   0  0  0  0  0  0  0  0  0  0  0  0
   35.6930   24.2180   31.3690 C   0  0  0  0  0  0  0  0  0  0  0  0
   35.9520   25.5500   31.5740 C   0  0  0  0  0  0  0  0  0  0  0  0
   36.9510   25.9310   32.4570 C   0  0  0  0  0  0  0  0  0  0  0  0
   37.6650   24.9770   33.1080 C   0  0  0  0  0  0  0  0  0  0  0  0
   37.4540   23.6160   32.9460 C   0  0  0  0  0  0  0  0  0  0  0  0
   37.0420   21.2100   30.8940 C   0  0  0  0  0  0  0  0  0  0  0  0
   36.1770   21.9040   31.8400 C   0  0  0  0  0  0  0  0  0  0  0  0
   35.1660   21.2120   32.4160 C   0  0  0  0  0  0  0  0  0  0  0  0
   34.9450   19.9200   32.1440 N   0  0  0  0  0  0  0  0  0  0  0  0
   35.7720   19.2720   31.2440 C   0  0  0  0  0  0  0  0  0  0  0  0
   36.8140   19.9070   30.6200 N   0  0  0  0  0  0  0  0  0  0  0  0
   38.3690   22.8130   33.7740 C   0  0  0  0  0  0  0  0  0  0  0  0
   37.7090   22.1440   34.9480 C   0  0  0  0  0  0  0  0  0  0  0  0
   38.0940   22.6890   36.2140 N   0  0  0  0  0  0  0  0  0  0  0  0
   37.3090   23.3480   37.0670 N   0  0  0  0  0  0  0  0  0  0  0  0
   37.9890   23.7090   38.1560 C   0  0  0  0  0  0  0  0  0  0  0  0
   39.2540   23.2360   37.9330 C   0  0  0  0  0  0  0  0  0  0  0  0
   39.3490   22.5710   36.6820 C   0  0  0  0  0  0  0  0  0  0  0  0
   40.6020   21.9540   36.2160 C   0  0  0  0  0  0  0  0  0  0  0  0
   41.4420   21.5640   37.4390 C   0  0  0  0  0  0  0  0  0  0  0  0
   34.9063   23.8845   30.6762 H   0  0  0  0  0  0  0  0  0  0  0  0
   35.3684   26.3137   31.0391 H   0  0  0  0  0  0  0  0  0  0  0  0
   37.1632   26.9966   32.6285 H   0  0  0  0  0  0  0  0  0  0  0  0
   38.4542   25.3016   33.8021 H   0  0  0  0  0  0  0  0  0  0  0  0
   37.8727   21.7424   30.4077 H   0  0  0  0  0  0  0  0  0  0  0  0
   34.5059   21.7271   33.1294 H   0  0  0  0  0  0  0  0  0  0  0  0
   35.5869   18.2107   31.0216 H   0  0  0  0  0  0  0  0  0  0  0  0
   38.8155   22.0338   33.1388 H   0  0  0  0  0  0  0  0  0  0  0  0
   39.1168   23.5075   34.1844 H   0  0  0  0  0  0  0  0  0  0  0  0
   36.6195   22.2512   34.8410 H   0  0  0  0  0  0  0  0  0  0  0  0
   38.0309   21.0922   34.9404 H   0  0  0  0  0  0  0  0  0  0  0  0
   37.6182   24.2605   39.0326 H   0  0  0  0  0  0  0  0  0  0  0  0
   40.0922   23.3560   38.6351 H   0  0  0  0  0  0  0  0  0  0  0  0
   40.3743   21.0567   35.6218 H   0  0  0  0  0  0  0  0  0  0  0  0
   41.1599   22.6653   35.5892 H   0  0  0  0  0  0  0  0  0  0  0  0
   40.8929   21.8190   38.3574 H   0  0  0  0  0  0  0  0  0  0  0  0
   41.6395   20.4821   37.4183 H   0  0  0  0  0  0  0  0  0  0  0  0
   42.3959   22.1113   37.4183 H   0  0  0  0  0  0  0  0  0  0  0  0
  1  6  2  0
  2  3  2  0
  2  1  1  0
  3  4  1  0
  4  5  2  0
  6  5  1  0
  6 13  1  0
  7  8  2  0
  8  1  1  0
  8  9  1  0
 10  9  2  0
 11 10  1  0
 12  7  1  0
 12 11  2  0
 13 14  1  0
 14 15  1  0
 15 19  1  0
 15 16  1  0
 16 17  2  0
 18 17  1  0
 19 18  2  0
 20 19  1  0
 20 21  1  0
  2 22  1  0
  3 23  1  0
  4 24  1  0
  5 25  1  0
  7 26  1  0
  9 27  1  0
 11 28  1  0
 13 29  1  0
 13 30  1  0
 14 31  1  0
 14 32  1  0
 17 33  1  0
 18 34  1  0
 20 35  1  0
 20 36  1  0
 21 37  1  0
 21 38  1  0
 21 39  1  0
M  ISO  8  22  14  23  14  24  14  25  14  26  14  27  14  28  14  29   8
M  ISO  8  30   8  31   8  32   8  33  14  34  14  35   8  36   8  37   8
M  ISO  2  38   8  39   8
M  END
>  <minimizedAffinity>  (1) 
-5.18690586

>  <minimizedRMSD>  (1) 
0.796005964

$$$$
