
     RDKit          3D

 35 37  0  0  0  0  0  0  0  0999 V2000
   36.6550   23.3500   32.2730 C   0  0  0  0  0  0  0  0  0  0  0  0
   35.9430   24.3310   31.5750 C   0  0  0  0  0  0  0  0  0  0  0  0
   36.2580   25.6410   31.8440 C   0  0  0  0  0  0  0  0  0  0  0  0
   37.2380   25.9250   32.7670 C   0  0  0  0  0  0  0  0  0  0  0  0
   37.8870   24.9170   33.4070 C   0  0  0  0  0  0  0  0  0  0  0  0
   37.6170   23.5840   33.1810 C   0  0  0  0  0  0  0  0  0  0  0  0
   37.1080   21.3060   30.9520 C   0  0  0  0  0  0  0  0  0  0  0  0
   36.2900   21.9690   31.9560 C   0  0  0  0  0  0  0  0  0  0  0  0
   35.2760   21.2950   32.5210 C   0  0  0  0  0  0  0  0  0  0  0  0
   34.9970   20.0320   32.1840 N   0  0  0  0  0  0  0  0  0  0  0  0
   35.7690   19.4010   31.2330 C   0  0  0  0  0  0  0  0  0  0  0  0
   36.8250   20.0360   30.6160 N   0  0  0  0  0  0  0  0  0  0  0  0
   38.4540   22.6760   34.0030 C   0  0  0  0  0  0  0  0  0  0  0  0
   37.7410   22.1440   35.2210 C   0  0  0  0  0  0  0  0  0  0  0  0
   38.0670   22.8420   36.4260 N   0  0  0  0  0  0  0  0  0  0  0  0
   37.3610   23.8160   36.9770 N   0  0  0  0  0  0  0  0  0  0  0  0
   37.9510   24.2460   38.0950 C   0  0  0  0  0  0  0  0  0  0  0  0
   39.0850   23.4720   38.2150 C   0  0  0  0  0  0  0  0  0  0  0  0
   39.1730   22.5650   37.1470 C   0  0  0  0  0  0  0  0  0  0  0  0
   40.1880   21.5940   36.9020 N   0  0  0  0  0  0  0  0  0  0  0  0
   35.1656   24.0655   30.8434 H   0  0  0  0  0  0  0  0  0  0  0  0
   35.7312   26.4558   31.3258 H   0  0  0  0  0  0  0  0  0  0  0  0
   37.4970   26.9711   32.9876 H   0  0  0  0  0  0  0  0  0  0  0  0
   38.6647   25.1770   34.1402 H   0  0  0  0  0  0  0  0  0  0  0  0
   37.9455   21.8363   30.4751 H   0  0  0  0  0  0  0  0  0  0  0  0
   34.6583   21.7953   33.2814 H   0  0  0  0  0  0  0  0  0  0  0  0
   35.5359   18.3616   30.9587 H   0  0  0  0  0  0  0  0  0  0  0  0
   38.7611   21.8240   33.3787 H   0  0  0  0  0  0  0  0  0  0  0  0
   39.3145   23.2611   34.3597 H   0  0  0  0  0  0  0  0  0  0  0  0
   36.6570   22.2272   35.0534 H   0  0  0  0  0  0  0  0  0  0  0  0
   38.0650   21.1013   35.3546 H   0  0  0  0  0  0  0  0  0  0  0  0
   37.6076   25.0426   38.7713 H   0  0  0  0  0  0  0  0  0  0  0  0
   39.8173   23.5534   39.0318 H   0  0  0  0  0  0  0  0  0  0  0  0
   40.9806   21.5019   37.5533 H   0  0  0  0  0  0  0  0  0  0  0  0
   40.1286   20.9847   36.0737 H   0  0  0  0  0  0  0  0  0  0  0  0
  1  6  2  0
  2  3  2  0
  2  1  1  0
  3  4  1  0
  4  5  2  0
  6  5  1  0
  6 13  1  0
  7  8  2  0
  8  1  1  0
  8  9  1  0
 10  9  2  0
 11 10  1  0
 12  7  1  0
 12 11  2  0
 13 14  1  0
 14 15  1  0
 15 16  1  0
 15 19  1  0
 16 17  2  0
 17 18  1  0
 19 18  2  0
 20 19  1  0
  2 21  1  0
  3 22  1  0
  4 23  1  0
  5 24  1  0
  7 25  1  0
  9 26  1  0
 11 27  1  0
 13 28  1  0
 13 29  1  0
 14 30  1  0
 14 31  1  0
 17 32  1  0
 18 33  1  0
 20 34  1  0
 20 35  1  0
M  ISO  8  21  14  22  14  23  14  24  14  25  14  26  14  27  14  28   8
M  ISO  5  29   8  30   8  31   8  32  14  33  14
M  END
>  <minimizedAffinity>  (1) 
-5.04803658

>  <minimizedRMSD>  (1) 
0.696683884

$$$$
