
     RDKit          3D

 35 37  0  0  0  0  0  0  0  0999 V2000
   36.6510   23.3870   32.2400 C   0  0  0  0  0  0  0  0  0  0  0  0
   35.9050   24.3650   31.5680 C   0  0  0  0  0  0  0  0  0  0  0  0
   36.2050   25.6780   31.8430 C   0  0  0  0  0  0  0  0  0  0  0  0
   37.2010   25.9680   32.7430 C   0  0  0  0  0  0  0  0  0  0  0  0
   37.8840   24.9690   33.3580 C   0  0  0  0  0  0  0  0  0  0  0  0
   37.6300   23.6280   33.1260 C   0  0  0  0  0  0  0  0  0  0  0  0
   37.1380   21.3500   30.9220 C   0  0  0  0  0  0  0  0  0  0  0  0
   36.3000   22.0050   31.9170 C   0  0  0  0  0  0  0  0  0  0  0  0
   35.2800   21.3240   32.4720 C   0  0  0  0  0  0  0  0  0  0  0  0
   35.0340   20.0520   32.1120 N   0  0  0  0  0  0  0  0  0  0  0  0
   35.8210   19.4330   31.1730 C   0  0  0  0  0  0  0  0  0  0  0  0
   36.8670   20.0770   30.5810 N   0  0  0  0  0  0  0  0  0  0  0  0
   38.5030   22.7300   33.9160 C   0  0  0  0  0  0  0  0  0  0  0  0
   37.8030   22.1360   35.1140 C   0  0  0  0  0  0  0  0  0  0  0  0
   38.0900   22.8060   36.3370 N   0  0  0  0  0  0  0  0  0  0  0  0
   37.2810   23.6320   36.9800 N   0  0  0  0  0  0  0  0  0  0  0  0
   37.8740   24.0830   38.1000 C   0  0  0  0  0  0  0  0  0  0  0  0
   39.1080   23.4850   38.1160 C   0  0  0  0  0  0  0  0  0  0  0  0
   39.2470   22.6720   36.9950 C   0  0  0  0  0  0  0  0  0  0  0  0
   40.4530   21.9000   36.7300 C   0  0  0  0  0  0  0  0  0  0  0  0
   41.2910   21.5290   37.5930 O   0  0  0  0  0  0  0  0  0  0  0  0
   35.1147   24.0939   30.8525 H   0  0  0  0  0  0  0  0  0  0  0  0
   35.6522   26.4892   31.3466 H   0  0  0  0  0  0  0  0  0  0  0  0
   37.4469   27.0165   32.9669 H   0  0  0  0  0  0  0  0  0  0  0  0
   38.6754   25.2372   34.0734 H   0  0  0  0  0  0  0  0  0  0  0  0
   37.9781   21.8869   30.4573 H   0  0  0  0  0  0  0  0  0  0  0  0
   34.6434   21.8114   33.2251 H   0  0  0  0  0  0  0  0  0  0  0  0
   35.6026   18.3924   30.8913 H   0  0  0  0  0  0  0  0  0  0  0  0
   38.8435   21.9104   33.2662 H   0  0  0  0  0  0  0  0  0  0  0  0
   39.3443   23.3320   34.2898 H   0  0  0  0  0  0  0  0  0  0  0  0
   36.7179   22.1817   34.9397 H   0  0  0  0  0  0  0  0  0  0  0  0
   38.1689   21.1041   35.2201 H   0  0  0  0  0  0  0  0  0  0  0  0
   37.4589   24.7805   38.8424 H   0  0  0  0  0  0  0  0  0  0  0  0
   39.8711   23.6263   38.8955 H   0  0  0  0  0  0  0  0  0  0  0  0
   40.6486   21.6165   35.6853 H   0  0  0  0  0  0  0  0  0  0  0  0
  1  6  2  0
  2  3  2  0
  2  1  1  0
  3  4  1  0
  4  5  2  0
  6  5  1  0
  6 13  1  0
  7  8  2  0
  8  1  1  0
  8  9  1  0
 10  9  2  0
 11 10  1  0
 12  7  1  0
 12 11  2  0
 13 14  1  0
 14 15  1  0
 15 16  1  0
 15 19  1  0
 16 17  2  0
 17 18  1  0
 19 18  2  0
 20 19  1  0
 20 21  2  0
  2 22  1  0
  3 23  1  0
  4 24  1  0
  5 25  1  0
  7 26  1  0
  9 27  1  0
 11 28  1  0
 13 29  1  0
 13 30  1  0
 14 31  1  0
 14 32  1  0
 17 33  1  0
 18 34  1  0
 20 35  1  0
M  ISO  8  22  14  23  14  24  14  25  14  26  14  27  14  28  14  29   8
M  ISO  6  30   8  31   8  32   8  33  14  34  14  35   6
M  END
>  <minimizedAffinity>  (1) 
-4.98706341

>  <minimizedRMSD>  (1) 
0.921371877

$$$$
