
     RDKit          3D

 42 45  0  0  0  0  0  0  0  0999 V2000
   40.1300   23.2470   37.5630 C   0  0  0  0  0  0  0  0  0  0  0  0
   39.1260   23.0480   38.5190 C   0  0  0  0  0  0  0  0  0  0  0  0
   37.7980   23.1160   38.0590 C   0  0  0  0  0  0  0  0  0  0  0  0
   37.5650   23.3630   36.7380 N   0  0  0  0  0  0  0  0  0  0  0  0
   38.5660   23.5450   35.8660 C   0  0  0  0  0  0  0  0  0  0  0  0
   39.8370   23.4880   36.2720 N   0  0  0  0  0  0  0  0  0  0  0  0
   38.3620   23.8080   34.4710 N   0  0  0  0  0  0  0  0  0  0  0  0
   38.8640   24.8640   33.8060 C   0  0  0  0  0  0  0  0  0  0  0  0
   38.5910   25.0030   32.4720 C   0  0  0  0  0  0  0  0  0  0  0  0
   37.8040   24.0450   31.8560 C   0  0  0  0  0  0  0  0  0  0  0  0
   37.5460   24.1570   30.6270 O   0  0  0  0  0  0  0  0  0  0  0  0
   37.2920   22.9920   32.4730 N   0  0  0  0  0  0  0  0  0  0  0  0
   37.5940   22.9020   33.8030 C   0  0  0  0  0  0  0  0  0  0  0  0
   37.1150   21.9040   34.4050 O   0  0  0  0  0  0  0  0  0  0  0  0
   36.4680   21.9730   31.8400 C   0  0  0  0  0  0  0  0  0  0  0  0
   37.0340   21.6440   30.5870 F   0  0  0  0  0  0  0  0  0  0  0  0
   35.1900   22.3720   31.6750 F   0  0  0  0  0  0  0  0  0  0  0  0
   36.5530   20.8070   32.6280 F   0  0  0  0  0  0  0  0  0  0  0  0
   39.1020   26.1240   31.7070 C   0  0  0  0  0  0  0  0  0  0  0  0
   38.1940   27.2180   31.3800 C   0  0  0  0  0  0  0  0  0  0  0  0
   38.0430   27.6830   30.0800 C   0  0  0  0  0  0  0  0  0  0  0  0
   37.1760   28.6720   29.6680 C   0  0  0  0  0  0  0  0  0  0  0  0
   36.3620   29.2910   30.5920 C   0  0  0  0  0  0  0  0  0  0  0  0
   36.4570   28.8850   31.9030 C   0  0  0  0  0  0  0  0  0  0  0  0
   35.6900   29.4830   32.8660 C   0  0  0  0  0  0  0  0  0  0  0  0
   35.7290   29.1640   34.2160 C   0  0  0  0  0  0  0  0  0  0  0  0
   36.6370   28.1520   34.5580 C   0  0  0  0  0  0  0  0  0  0  0  0
   37.3980   27.5610   33.5850 C   0  0  0  0  0  0  0  0  0  0  0  0
   37.3410   27.8910   32.2560 C   0  0  0  0  0  0  0  0  0  0  0  0
   41.1839   23.2053   37.8752 H   0  0  0  0  0  0  0  0  0  0  0  0
   39.3633   22.8489   39.5745 H   0  0  0  0  0  0  0  0  0  0  0  0
   36.9589   22.9719   38.7555 H   0  0  0  0  0  0  0  0  0  0  0  0
   39.4860   25.6064   34.3276 H   0  0  0  0  0  0  0  0  0  0  0  0
   39.9357   26.5550   32.2808 H   0  0  0  0  0  0  0  0  0  0  0  0
   39.3587   25.6875   30.7305 H   0  0  0  0  0  0  0  0  0  0  0  0
   38.6739   27.2189   29.3076 H   0  0  0  0  0  0  0  0  0  0  0  0
   37.1340   28.9654   28.6087 H   0  0  0  0  0  0  0  0  0  0  0  0
   35.6601   30.0828   30.2914 H   0  0  0  0  0  0  0  0  0  0  0  0
   34.9933   30.2724   32.5473 H   0  0  0  0  0  0  0  0  0  0  0  0
   35.0955   29.6671   34.9613 H   0  0  0  0  0  0  0  0  0  0  0  0
   36.7379   27.8333   35.6060 H   0  0  0  0  0  0  0  0  0  0  0  0
   38.1000   26.7708   33.8895 H   0  0  0  0  0  0  0  0  0  0  0  0
  1  2  2  0
  3  2  1  0
  4  3  2  0
  5  6  2  0
  5  4  1  0
  6  1  1  0
  7  5  1  0
  8  7  1  0
  9  8  2  0
 10  9  1  0
 10 12  1  0
 11 10  2  0
 12 13  1  0
 13 14  2  0
 13  7  1  0
 15 12  1  0
 15 18  1  0
 16 15  1  0
 17 15  1  0
 19  9  1  0
 20 19  1  0
 20 29  1  0
 21 20  2  0
 22 21  1  0
 22 23  2  0
 23 24  1  0
 24 29  2  0
 24 25  1  0
 25 26  2  0
 26 27  1  0
 28 27  2  0
 29 28  1  0
  1 30  1  0
  2 31  1  0
  3 32  1  0
  8 33  1  0
 19 34  1  0
 19 35  1  0
 21 36  1  0
 22 37  1  0
 23 38  1  0
 25 39  1  0
 26 40  1  0
 27 41  1  0
 28 42  1  0
M  ISO  8  30  14  31  14  32  14  33  14  34   8  35   8  36  14  37  14
M  ISO  5  38  14  39  14  40  14  41  14  42  14
M  END
>  <minimizedAffinity>  (1) 
-6.7527504

>  <minimizedRMSD>  (1) 
2.2465055

$$$$
