
     RDKit          3D

 39 41  0  0  0  0  0  0  0  0999 V2000
   39.9390   22.8790   37.7510 C   0  0  0  0  0  0  0  0  0  0  0  0
   39.0190   23.2030   38.7490 C   0  0  0  0  0  0  0  0  0  0  0  0
   37.6720   23.3500   38.3460 C   0  0  0  0  0  0  0  0  0  0  0  0
   37.3450   23.1730   37.0420 N   0  0  0  0  0  0  0  0  0  0  0  0
   38.2630   22.8620   36.1170 C   0  0  0  0  0  0  0  0  0  0  0  0
   39.5490   22.7180   36.4780 N   0  0  0  0  0  0  0  0  0  0  0  0
   37.9630   22.6660   34.7340 N   0  0  0  0  0  0  0  0  0  0  0  0
   38.5590   23.3400   33.7260 C   0  0  0  0  0  0  0  0  0  0  0  0
   38.1630   23.0400   32.4380 C   0  0  0  0  0  0  0  0  0  0  0  0
   37.1930   22.0860   32.2260 C   0  0  0  0  0  0  0  0  0  0  0  0
   36.8420   21.8250   31.0430 O   0  0  0  0  0  0  0  0  0  0  0  0
   36.5900   21.4080   33.2010 N   0  0  0  0  0  0  0  0  0  0  0  0
   37.0150   21.7390   34.4530 C   0  0  0  0  0  0  0  0  0  0  0  0
   36.4470   21.0980   35.4040 O   0  0  0  0  0  0  0  0  0  0  0  0
   35.5710   20.4040   33.0050 C   0  0  0  0  0  0  0  0  0  0  0  0
   36.0580   19.4010   32.1720 F   0  0  0  0  0  0  0  0  0  0  0  0
   34.4370   20.9350   32.4470 F   0  0  0  0  0  0  0  0  0  0  0  0
   35.2720   19.8450   34.2500 F   0  0  0  0  0  0  0  0  0  0  0  0
   38.7740   23.7380   31.3120 C   0  0  0  0  0  0  0  0  0  0  0  0
   39.6340   24.8340   31.7340 N   0  0  0  0  0  0  0  0  0  0  0  0
   39.3190   25.5160   32.8740 C   0  0  0  0  0  0  0  0  0  0  0  0
   40.0520   26.5670   33.3710 C   0  0  0  0  0  0  0  0  0  0  0  0
   39.6070   27.2190   34.6080 C   0  0  0  0  0  0  0  0  0  0  0  0
   41.1510   26.9040   32.6390 C   0  0  0  0  0  0  0  0  0  0  0  0
   41.8670   27.8710   33.0550 O   0  0  0  0  0  0  0  0  0  0  0  0
   41.5070   26.2520   31.4940 N   0  0  0  0  0  0  0  0  0  0  0  0
   40.7350   25.2380   31.0790 C   0  0  0  0  0  0  0  0  0  0  0  0
   41.0210   24.6030   30.0260 O   0  0  0  0  0  0  0  0  0  0  0  0
   41.0001   22.7538   38.0124 H   0  0  0  0  0  0  0  0  0  0  0  0
   39.3265   23.3373   39.7966 H   0  0  0  0  0  0  0  0  0  0  0  0
   36.8966   23.6055   39.0832 H   0  0  0  0  0  0  0  0  0  0  0  0
   39.3303   24.0988   33.9241 H   0  0  0  0  0  0  0  0  0  0  0  0
   37.9754   24.1426   30.6728 H   0  0  0  0  0  0  0  0  0  0  0  0
   39.3991   23.0133   30.7697 H   0  0  0  0  0  0  0  0  0  0  0  0
   38.4221   25.2047   33.4297 H   0  0  0  0  0  0  0  0  0  0  0  0
   39.9886   26.6598   35.4750 H   0  0  0  0  0  0  0  0  0  0  0  0
   39.9912   28.2493   34.6381 H   0  0  0  0  0  0  0  0  0  0  0  0
   38.5076   27.2367   34.6381 H   0  0  0  0  0  0  0  0  0  0  0  0
   42.3449   26.5312   30.9640 H   0  0  0  0  0  0  0  0  0  0  0  0
  1  2  2  0
  3  2  1  0
  4  3  2  0
  5  6  2  0
  5  4  1  0
  6  1  1  0
  7  5  1  0
  8  7  1  0
  9  8  2  0
 10  9  1  0
 10 12  1  0
 11 10  2  0
 12 13  1  0
 13  7  1  0
 13 14  2  0
 15 12  1  0
 15 18  1  0
 16 15  1  0
 17 15  1  0
 19 20  1  0
 19  9  1  0
 20 21  1  0
 21 22  2  0
 22 23  1  0
 24 25  2  0
 24 22  1  0
 26 24  1  0
 27 26  1  0
 27 20  1  0
 28 27  2  0
  1 29  1  0
  2 30  1  0
  3 31  1  0
  8 32  1  0
 19 33  1  0
 19 34  1  0
 21 35  1  0
 23 36  1  0
 23 37  1  0
 23 38  1  0
 26 39  1  0
M  ISO  8  29  14  30  14  31  14  32  14  33   8  34   8  35  14  36   8
M  ISO  3  37   8  38   8  39   9
M  END
>  <minimizedAffinity>  (1) 
-6.03441429

>  <minimizedRMSD>  (1) 
0.814110756

$$$$
