
     RDKit          3D

 36 38  0  0  0  0  0  0  0  0999 V2000
   39.9370   22.8670   37.8070 C   0  0  0  0  0  0  0  0  0  0  0  0
   39.0020   23.2660   38.7590 C   0  0  0  0  0  0  0  0  0  0  0  0
   37.6920   23.4540   38.3150 C   0  0  0  0  0  0  0  0  0  0  0  0
   37.4030   23.2430   37.0060 N   0  0  0  0  0  0  0  0  0  0  0  0
   38.3350   22.8570   36.1160 C   0  0  0  0  0  0  0  0  0  0  0  0
   39.5850   22.6740   36.5190 N   0  0  0  0  0  0  0  0  0  0  0  0
   38.0600   22.6270   34.7340 N   0  0  0  0  0  0  0  0  0  0  0  0
   38.7260   23.2280   33.7260 C   0  0  0  0  0  0  0  0  0  0  0  0
   38.3580   22.9140   32.4200 C   0  0  0  0  0  0  0  0  0  0  0  0
   37.3500   22.0210   32.2210 C   0  0  0  0  0  0  0  0  0  0  0  0
   37.0020   21.7250   31.0470 O   0  0  0  0  0  0  0  0  0  0  0  0
   36.6780   21.4130   33.2030 N   0  0  0  0  0  0  0  0  0  0  0  0
   37.0770   21.7550   34.4520 C   0  0  0  0  0  0  0  0  0  0  0  0
   36.4400   21.1800   35.3960 O   0  0  0  0  0  0  0  0  0  0  0  0
   35.5960   20.4530   33.0010 C   0  0  0  0  0  0  0  0  0  0  0  0
   36.0690   19.4050   32.1820 F   0  0  0  0  0  0  0  0  0  0  0  0
   34.5020   21.0110   32.4270 F   0  0  0  0  0  0  0  0  0  0  0  0
   35.2850   19.9050   34.2500 F   0  0  0  0  0  0  0  0  0  0  0  0
   39.0590   23.5330   31.3090 C   0  0  0  0  0  0  0  0  0  0  0  0
   39.6740   24.7770   31.6730 N   0  0  0  0  0  0  0  0  0  0  0  0
   39.1340   25.9710   31.9030 C   0  0  0  0  0  0  0  0  0  0  0  0
   39.8120   27.1110   32.2620 C   0  0  0  0  0  0  0  0  0  0  0  0
   41.1760   27.0520   32.4060 C   0  0  0  0  0  0  0  0  0  0  0  0
   41.9170   28.0150   32.7280 O   0  0  0  0  0  0  0  0  0  0  0  0
   41.7460   25.8470   32.1770 N   0  0  0  0  0  0  0  0  0  0  0  0
   41.0290   24.7600   31.8270 C   0  0  0  0  0  0  0  0  0  0  0  0
   41.6770   23.7020   31.6440 O   0  0  0  0  0  0  0  0  0  0  0  0
   40.9819   22.7062   38.1109 H   0  0  0  0  0  0  0  0  0  0  0  0
   39.2825   23.4254   39.8106 H   0  0  0  0  0  0  0  0  0  0  0  0
   36.9051   23.7687   39.0163 H   0  0  0  0  0  0  0  0  0  0  0  0
   39.5354   23.9445   33.9297 H   0  0  0  0  0  0  0  0  0  0  0  0
   38.3399   23.7189   30.4976 H   0  0  0  0  0  0  0  0  0  0  0  0
   39.8570   22.8454   30.9920 H   0  0  0  0  0  0  0  0  0  0  0  0
   38.0423   26.0533   31.7957 H   0  0  0  0  0  0  0  0  0  0  0  0
   39.2715   28.0540   32.4310 H   0  0  0  0  0  0  0  0  0  0  0  0
   42.7674   25.7562   32.2737 H   0  0  0  0  0  0  0  0  0  0  0  0
  1  2  2  0
  3  2  1  0
  4  3  2  0
  5  6  2  0
  5  4  1  0
  6  1  1  0
  7  5  1  0
  8  7  1  0
  9  8  2  0
 10  9  1  0
 10 12  1  0
 11 10  2  0
 12 13  1  0
 13  7  1  0
 13 14  2  0
 15 12  1  0
 15 18  1  0
 16 15  1  0
 17 15  1  0
 19 20  1  0
 19  9  1  0
 20 26  1  0
 20 21  1  0
 21 22  2  0
 22 23  1  0
 23 24  2  0
 25 23  1  0
 26 25  1  0
 27 26  2  0
  1 28  1  0
  2 29  1  0
  3 30  1  0
  8 31  1  0
 19 32  1  0
 19 33  1  0
 21 34  1  0
 22 35  1  0
 25 36  1  0
M  ISO  8  28  14  29  14  30  14  31  14  32   8  33   8  34  14  35  14
M  ISO  1  36   9
M  END
>  <minimizedAffinity>  (1) 
-5.75518894

>  <minimizedRMSD>  (1) 
3.28561783

$$$$
