
     RDKit          3D

 40 43  0  0  0  0  0  0  0  0999 V2000
   40.7200   26.7220   34.6800 C   0  0  0  0  0  0  0  0  0  0  0  0
   39.3810   27.0740   34.1600 C   0  0  0  0  0  0  0  0  0  0  0  0
   38.3080   27.1720   35.0380 C   0  0  0  0  0  0  0  0  0  0  0  0
   37.0020   27.4970   34.6630 C   0  0  0  0  0  0  0  0  0  0  0  0
   36.8010   27.7270   33.3320 N   0  0  0  0  0  0  0  0  0  0  0  0
   37.8590   27.6320   32.4610 C   0  0  0  0  0  0  0  0  0  0  0  0
   39.1060   27.3120   32.8830 N   0  0  0  0  0  0  0  0  0  0  0  0
   37.6720   27.8740   31.0370 C   0  0  0  0  0  0  0  0  0  0  0  0
   38.7800   28.1850   30.2330 C   0  0  0  0  0  0  0  0  0  0  0  0
   38.2760   28.3580   28.9300 C   0  0  0  0  0  0  0  0  0  0  0  0
   36.9220   28.1540   28.9920 N   0  0  0  0  0  0  0  0  0  0  0  0
   36.5760   27.8680   30.2390 N   0  0  0  0  0  0  0  0  0  0  0  0
   41.2670   25.4770   34.0330 C   0  0  0  0  0  0  0  0  0  0  0  0
   41.4920   22.7260   36.5470 C   0  0  0  0  0  0  0  0  0  0  0  0
   40.2570   22.0990   36.3630 C   0  0  0  0  0  0  0  0  0  0  0  0
   39.3800   22.6000   35.4140 C   0  0  0  0  0  0  0  0  0  0  0  0
   39.7860   23.6940   34.7060 N   0  0  0  0  0  0  0  0  0  0  0  0
   40.9860   24.2820   34.9020 C   0  0  0  0  0  0  0  0  0  0  0  0
   41.8250   23.8090   35.8050 N   0  0  0  0  0  0  0  0  0  0  0  0
   38.0440   21.9950   35.1500 C   0  0  0  0  0  0  0  0  0  0  0  0
   37.6460   21.6610   33.8440 C   0  0  0  0  0  0  0  0  0  0  0  0
   35.9820   20.9980   34.1270 S   0  0  0  0  0  0  0  0  0  0  0  0
   36.1020   21.2870   35.9940 C   0  0  0  0  0  0  0  0  0  0  0  0
   37.2490   21.7920   36.1700 N   0  0  0  0  0  0  0  0  0  0  0  0
   34.9740   20.9330   36.9200 C   0  0  0  0  0  0  0  0  0  0  0  0
   41.4085   27.5568   34.4823 H   0  0  0  0  0  0  0  0  0  0  0  0
   40.6260   26.5309   35.7592 H   0  0  0  0  0  0  0  0  0  0  0  0
   38.5008   26.9800   36.1038 H   0  0  0  0  0  0  0  0  0  0  0  0
   36.1845   27.5636   35.3960 H   0  0  0  0  0  0  0  0  0  0  0  0
   39.8279   28.2751   30.5553 H   0  0  0  0  0  0  0  0  0  0  0  0
   38.8588   28.6094   28.0316 H   0  0  0  0  0  0  0  0  0  0  0  0
   36.2741   28.2137   28.1935 H   0  0  0  0  0  0  0  0  0  0  0  0
   40.7888   25.3354   33.0526 H   0  0  0  0  0  0  0  0  0  0  0  0
   42.3543   25.5836   33.9048 H   0  0  0  0  0  0  0  0  0  0  0  0
   42.1967   22.3385   37.2975 H   0  0  0  0  0  0  0  0  0  0  0  0
   39.9842   21.2188   36.9638 H   0  0  0  0  0  0  0  0  0  0  0  0
   38.1983   21.7724   32.8993 H   0  0  0  0  0  0  0  0  0  0  0  0
   35.3087   21.0381   37.9626 H   0  0  0  0  0  0  0  0  0  0  0  0
   34.1246   21.6078   36.7379 H   0  0  0  0  0  0  0  0  0  0  0  0
   34.6624   19.8939   36.7379 H   0  0  0  0  0  0  0  0  0  0  0  0
  2  1  1  0
  2  3  2  0
  4  3  1  0
  5  4  2  0
  6  7  2  0
  6  5  1  0
  7  2  1  0
  8  6  1  0
  9  8  1  0
 10 11  1  0
 10  9  2  0
 11 12  1  0
 12  8  2  0
 13  1  1  0
 13 18  1  0
 15 14  2  0
 16 15  1  0
 17 18  1  0
 17 16  2  0
 18 19  2  0
 19 14  1  0
 20 16  1  0
 20 24  1  0
 21 22  1  0
 21 20  2  0
 22 23  1  0
 23 24  2  0
 23 25  1  0
  1 26  1  0
  1 27  1  0
  3 28  1  0
  4 29  1  0
  9 30  1  0
 10 31  1  0
 11 32  1  0
 13 33  1  0
 13 34  1  0
 14 35  1  0
 15 36  1  0
 21 37  1  0
 25 38  1  0
 25 39  1  0
 25 40  1  0
M  ISO  8  26   8  27   8  28  14  29  14  30  14  31  14  32   9  33   8
M  ISO  7  34   8  35  14  36  14  37  14  38   8  39   8  40   8
M  END
>  <minimizedAffinity>  (1) 
-5.49470186

>  <minimizedRMSD>  (1) 
0.412160218

$$$$
