
     RDKit          3D

 33 34  0  0  0  0  0  0  0  0999 V2000
   40.0070   22.8660   37.7740 C   0  0  0  0  0  0  0  0  0  0  0  0
   39.0720   23.2790   38.7290 C   0  0  0  0  0  0  0  0  0  0  0  0
   37.7630   23.4770   38.2840 C   0  0  0  0  0  0  0  0  0  0  0  0
   37.4510   23.2680   36.9740 N   0  0  0  0  0  0  0  0  0  0  0  0
   38.3870   22.8700   36.0870 C   0  0  0  0  0  0  0  0  0  0  0  0
   39.6380   22.6770   36.4980 N   0  0  0  0  0  0  0  0  0  0  0  0
   38.1110   22.6390   34.7050 N   0  0  0  0  0  0  0  0  0  0  0  0
   38.7760   23.2330   33.6960 C   0  0  0  0  0  0  0  0  0  0  0  0
   38.3970   22.9140   32.4080 C   0  0  0  0  0  0  0  0  0  0  0  0
   37.3770   22.0180   32.2040 C   0  0  0  0  0  0  0  0  0  0  0  0
   37.0320   21.7270   31.0150 O   0  0  0  0  0  0  0  0  0  0  0  0
   36.7090   21.4220   33.1790 N   0  0  0  0  0  0  0  0  0  0  0  0
   37.1150   21.7660   34.4310 C   0  0  0  0  0  0  0  0  0  0  0  0
   36.4800   21.1980   35.3830 O   0  0  0  0  0  0  0  0  0  0  0  0
   35.6210   20.4700   32.9890 C   0  0  0  0  0  0  0  0  0  0  0  0
   36.0670   19.4290   32.1840 F   0  0  0  0  0  0  0  0  0  0  0  0
   34.5240   21.0590   32.4170 F   0  0  0  0  0  0  0  0  0  0  0  0
   35.2910   19.9430   34.2390 F   0  0  0  0  0  0  0  0  0  0  0  0
   39.0780   23.5330   31.2800 C   0  0  0  0  0  0  0  0  0  0  0  0
   38.3120   24.5310   30.5660 N   0  0  0  0  0  0  0  0  0  0  0  0
   38.6690   25.9010   30.7030 C   0  0  0  0  0  0  0  0  0  0  0  0
   39.4080   26.3250   31.6670 N   0  0  0  0  0  0  0  0  0  0  0  0
   38.1680   26.7910   29.7180 N   0  0  0  0  0  0  0  0  0  0  0  0
   39.6320   27.3420   31.7090 H   0  0  0  0  0  0  0  0  0  0  0  0
   41.0522   22.6950   38.0713 H   0  0  0  0  0  0  0  0  0  0  0  0
   39.3541   23.4401   39.7799 H   0  0  0  0  0  0  0  0  0  0  0  0
   36.9846   23.8014   38.9903 H   0  0  0  0  0  0  0  0  0  0  0  0
   39.5908   23.9458   33.8911 H   0  0  0  0  0  0  0  0  0  0  0  0
   39.9929   24.0130   31.6575 H   0  0  0  0  0  0  0  0  0  0  0  0
   39.2690   22.7240   30.5595 H   0  0  0  0  0  0  0  0  0  0  0  0
   37.5206   24.2539   29.9679 H   0  0  0  0  0  0  0  0  0  0  0  0
   38.3948   27.7945   29.7675 H   0  0  0  0  0  0  0  0  0  0  0  0
   37.5775   26.4336   28.9535 H   0  0  0  0  0  0  0  0  0  0  0  0
  1  2  2  0
  3  2  1  0
  4  3  2  0
  5  6  2  0
  5  4  1  0
  6  1  1  0
  7  5  1  0
  8  7  1  0
  9  8  2  0
 10  9  1  0
 10 12  1  0
 11 10  2  0
 12 13  1  0
 13  7  1  0
 13 14  2  0
 15 12  1  0
 15 18  1  0
 16 15  1  0
 17 15  1  0
 19  9  1  0
 20 21  1  0
 20 19  1  0
 21 22  2  0
 22 24  1  0
 23 21  1  0
  1 25  1  0
  2 26  1  0
  3 27  1  0
  8 28  1  0
 19 29  1  0
 19 30  1  0
 20 31  1  0
 23 32  1  0
 23 33  1  0
M  ISO  6  25  14  26  14  27  14  28  14  29   8  30   8
M  END
>  <minimizedAffinity>  (1) 
-5.54125834

>  <minimizedRMSD>  (1) 
2.21188092

$$$$
