
     RDKit          3D

 37 39  0  0  0  0  0  0  0  0999 V2000
   38.8470   23.7280   35.8870 N   0  0  0  0  0  0  0  0  0  0  0  0
   40.0390   23.2100   36.5110 C   0  0  0  0  0  0  0  0  0  0  0  0
   39.9550   22.8050   37.9250 C   0  0  0  0  0  0  0  0  0  0  0  0
   38.9670   23.5030   38.7860 C   0  0  0  0  0  0  0  0  0  0  0  0
   37.7710   24.0470   38.0310 C   0  0  0  0  0  0  0  0  0  0  0  0
   38.2860   24.7290   36.7470 C   0  0  0  0  0  0  0  0  0  0  0  0
   38.3250   23.3090   34.6340 C   0  0  0  0  0  0  0  0  0  0  0  0
   37.7380   24.1480   33.6940 C   0  0  0  0  0  0  0  0  0  0  0  0
   37.2750   23.5960   32.5140 C   0  0  0  0  0  0  0  0  0  0  0  0
   37.4090   22.2610   32.3190 N   0  0  0  0  0  0  0  0  0  0  0  0
   37.9800   21.4690   33.2450 C   0  0  0  0  0  0  0  0  0  0  0  0
   38.4320   22.0050   34.3930 N   0  0  0  0  0  0  0  0  0  0  0  0
   36.6760   24.3940   31.5310 N   0  0  0  0  0  0  0  0  0  0  0  0
   35.4610   24.1140   30.7890 C   0  0  0  0  0  0  0  0  0  0  0  0
   34.7310   25.4510   30.9680 C   0  0  0  0  0  0  0  0  0  0  0  0
   35.8370   26.4840   31.1300 C   0  0  0  0  0  0  0  0  0  0  0  0
   37.1250   25.6730   31.0310 C   0  0  0  0  0  0  0  0  0  0  0  0
   40.3532   22.3270   35.9352 H   0  0  0  0  0  0  0  0  0  0  0  0
   40.7429   24.0553   36.5069 H   0  0  0  0  0  0  0  0  0  0  0  0
   39.7091   21.7330   37.9455 H   0  0  0  0  0  0  0  0  0  0  0  0
   40.9331   23.0748   38.3497 H   0  0  0  0  0  0  0  0  0  0  0  0
   38.6045   22.7925   39.5435 H   0  0  0  0  0  0  0  0  0  0  0  0
   39.4840   24.3664   39.2302 H   0  0  0  0  0  0  0  0  0  0  0  0
   37.0896   23.2242   37.7688 H   0  0  0  0  0  0  0  0  0  0  0  0
   37.2233   24.7698   38.6536 H   0  0  0  0  0  0  0  0  0  0  0  0
   39.0574   25.4695   37.0052 H   0  0  0  0  0  0  0  0  0  0  0  0
   37.4566   25.2397   36.2358 H   0  0  0  0  0  0  0  0  0  0  0  0
   37.6439   25.2272   33.8847 H   0  0  0  0  0  0  0  0  0  0  0  0
   38.0767   20.3883   33.0640 H   0  0  0  0  0  0  0  0  0  0  0  0
   34.8970   23.2780   31.2284 H   0  0  0  0  0  0  0  0  0  0  0  0
   35.6148   23.8043   29.7448 H   0  0  0  0  0  0  0  0  0  0  0  0
   34.1166   25.6776   30.0842 H   0  0  0  0  0  0  0  0  0  0  0  0
   34.0484   25.4373   31.8305 H   0  0  0  0  0  0  0  0  0  0  0  0
   35.7877   27.2369   30.3296 H   0  0  0  0  0  0  0  0  0  0  0  0
   35.7601   27.0381   32.0771 H   0  0  0  0  0  0  0  0  0  0  0  0
   37.4792   25.6003   29.9921 H   0  0  0  0  0  0  0  0  0  0  0  0
   37.9778   26.1026   31.5770 H   0  0  0  0  0  0  0  0  0  0  0  0
  1  2  1  0
  1  6  1  0
  2  3  1  0
  3  4  1  0
  5  4  1  0
  6  5  1  0
  7  1  1  0
  8  7  2  0
  9  8  1  0
 10  9  2  0
 10 11  1  0
 11 12  2  0
 12  7  1  0
 13  9  1  0
 14 15  1  0
 14 13  1  0
 15 16  1  0
 17 16  1  0
 17 13  1  0
  2 18  1  0
  2 19  1  0
  3 20  1  0
  3 21  1  0
  4 22  1  0
  4 23  1  0
  5 24  1  0
  5 25  1  0
  6 26  1  0
  6 27  1  0
  8 28  1  0
 11 29  1  0
 14 30  1  0
 14 31  1  0
 15 32  1  0
 15 33  1  0
 16 34  1  0
 16 35  1  0
 17 36  1  0
 17 37  1  0
M  ISO  8  18  13  19  13  20  13  21  13  22  13  23  13  24  13  25  13
M  ISO  8  26  13  27  13  28  14  29  14  30  13  31  13  32  13  33  13
M  ISO  4  34  13  35  13  36  13  37  13
M  END
>  <minimizedAffinity>  (1) 
-4.93238735

>  <minimizedRMSD>  (1) 
0.767119706

$$$$
