
     RDKit          3D

 38 40  0  0  0  0  0  0  0  0999 V2000
   38.9510   23.6880   35.9000 N   0  0  0  0  0  0  0  0  0  0  0  0
   40.1180   23.1500   36.5570 C   0  0  0  0  0  0  0  0  0  0  0  0
   39.9820   22.7380   37.9640 C   0  0  0  0  0  0  0  0  0  0  0  0
   38.9780   23.4560   38.7970 C   0  0  0  0  0  0  0  0  0  0  0  0
   37.8110   23.9970   38.0090 C   0  0  0  0  0  0  0  0  0  0  0  0
   38.3800   24.6920   36.7500 C   0  0  0  0  0  0  0  0  0  0  0  0
   38.4650   23.2810   34.6290 C   0  0  0  0  0  0  0  0  0  0  0  0
   37.8630   24.1300   33.7070 C   0  0  0  0  0  0  0  0  0  0  0  0
   37.4320   23.6090   32.5000 C   0  0  0  0  0  0  0  0  0  0  0  0
   37.6140   22.2890   32.2660 N   0  0  0  0  0  0  0  0  0  0  0  0
   38.2030   21.4890   33.1850 C   0  0  0  0  0  0  0  0  0  0  0  0
   38.6200   21.9900   34.3500 N   0  0  0  0  0  0  0  0  0  0  0  0
   36.7920   24.4500   31.4890 C   0  0  0  0  0  0  0  0  0  0  0  0
   35.3270   24.0810   31.4130 C   0  0  0  0  0  0  0  0  0  0  0  0
   34.7110   25.2580   30.6870 C   0  0  0  0  0  0  0  0  0  0  0  0
   35.6760   26.4110   30.8400 C   0  0  0  0  0  0  0  0  0  0  0  0
   36.7210   25.9110   31.8330 C   0  0  0  0  0  0  0  0  0  0  0  0
   40.4389   22.2666   35.9855 H   0  0  0  0  0  0  0  0  0  0  0  0
   40.8341   23.9847   36.5795 H   0  0  0  0  0  0  0  0  0  0  0  0
   39.7131   21.6714   37.9704 H   0  0  0  0  0  0  0  0  0  0  0  0
   40.9519   22.9817   38.4222 H   0  0  0  0  0  0  0  0  0  0  0  0
   38.5918   22.7577   39.5541 H   0  0  0  0  0  0  0  0  0  0  0  0
   39.4910   24.3197   39.2452 H   0  0  0  0  0  0  0  0  0  0  0  0
   37.1436   23.1739   37.7139 H   0  0  0  0  0  0  0  0  0  0  0  0
   37.2319   24.7090   38.6153 H   0  0  0  0  0  0  0  0  0  0  0  0
   39.1548   25.4158   37.0429 H   0  0  0  0  0  0  0  0  0  0  0  0
   37.5795   25.2276   36.2186 H   0  0  0  0  0  0  0  0  0  0  0  0
   37.7316   25.1984   33.9335 H   0  0  0  0  0  0  0  0  0  0  0  0
   38.3391   20.4187   32.9706 H   0  0  0  0  0  0  0  0  0  0  0  0
   37.3944   24.2902   30.5826 H   0  0  0  0  0  0  0  0  0  0  0  0
   35.1838   23.1492   30.8463 H   0  0  0  0  0  0  0  0  0  0  0  0
   34.8763   23.8989   32.3998 H   0  0  0  0  0  0  0  0  0  0  0  0
   33.7393   25.5140   31.1346 H   0  0  0  0  0  0  0  0  0  0  0  0
   34.5369   25.0237   29.6264 H   0  0  0  0  0  0  0  0  0  0  0  0
   36.1437   26.6563   29.8751 H   0  0  0  0  0  0  0  0  0  0  0  0
   35.1775   27.3283   31.1864 H   0  0  0  0  0  0  0  0  0  0  0  0
   36.3925   26.0631   32.8717 H   0  0  0  0  0  0  0  0  0  0  0  0
   37.6868   26.4333   31.7664 H   0  0  0  0  0  0  0  0  0  0  0  0
  1  2  1  0
  1  6  1  0
  2  3  1  0
  3  4  1  0
  5  4  1  0
  6  5  1  0
  7  1  1  0
  8  7  2  0
  9  8  1  0
 10  9  2  0
 10 11  1  0
 11 12  2  0
 12  7  1  0
 13 17  1  0
 13  9  1  0
 14 13  1  0
 15 16  1  0
 15 14  1  0
 16 17  1  0
  2 18  1  0
  2 19  1  0
  3 20  1  0
  3 21  1  0
  4 22  1  0
  4 23  1  0
  5 24  1  0
  5 25  1  0
  6 26  1  0
  6 27  1  0
  8 28  1  0
 11 29  1  0
 13 30  1  0
 14 31  1  0
 14 32  1  0
 15 33  1  0
 15 34  1  0
 16 35  1  0
 16 36  1  0
 17 37  1  0
 17 38  1  0
M  ISO  8  18  13  19  13  20  13  21  13  22  13  23  13  24  13  25  13
M  ISO  8  26  13  27  13  28  14  29  14  30  13  31  13  32  13  33  13
M  ISO  5  34  13  35  13  36  13  37  13  38  13
M  END
>  <minimizedAffinity>  (1) 
-4.8788414

>  <minimizedRMSD>  (1) 
0.770064116

$$$$
