
     RDKit          3D

 27 28  0  0  0  0  0  0  0  0999 V2000
   38.6380   23.5870   35.7330 N   0  0  0  0  0  0  0  0  0  0  0  0
   39.8610   23.0740   36.2550 C   0  0  0  0  0  0  0  0  0  0  0  0
   39.8870   22.7220   37.6910 C   0  0  0  0  0  0  0  0  0  0  0  0
   39.0100   23.4810   38.6120 C   0  0  0  0  0  0  0  0  0  0  0  0
   37.7540   23.9940   37.9600 C   0  0  0  0  0  0  0  0  0  0  0  0
   38.1580   24.6320   36.6140 C   0  0  0  0  0  0  0  0  0  0  0  0
   37.9900   23.1490   34.5450 C   0  0  0  0  0  0  0  0  0  0  0  0
   37.8320   23.9080   33.3840 C   0  0  0  0  0  0  0  0  0  0  0  0
   37.1800   23.3520   32.3030 C   0  0  0  0  0  0  0  0  0  0  0  0
   36.7170   22.0740   32.4220 N   0  0  0  0  0  0  0  0  0  0  0  0
   36.8840   21.3740   33.5490 C   0  0  0  0  0  0  0  0  0  0  0  0
   37.5110   21.8940   34.6020 N   0  0  0  0  0  0  0  0  0  0  0  0
   37.0340   24.1600   31.1260 C   0  0  0  0  0  0  0  0  0  0  0  0
   35.9460   24.7130   30.7850 O   0  0  0  0  0  0  0  0  0  0  0  0
   40.1081   22.1651   35.6868 H   0  0  0  0  0  0  0  0  0  0  0  0
   40.5818   23.8985   36.1517 H   0  0  0  0  0  0  0  0  0  0  0  0
   39.6060   21.6616   37.7723 H   0  0  0  0  0  0  0  0  0  0  0  0
   40.9074   22.9738   38.0157 H   0  0  0  0  0  0  0  0  0  0  0  0
   38.7253   22.8209   39.4446 H   0  0  0  0  0  0  0  0  0  0  0  0
   39.5798   24.3587   38.9510 H   0  0  0  0  0  0  0  0  0  0  0  0
   37.0543   23.1631   37.7869 H   0  0  0  0  0  0  0  0  0  0  0  0
   37.2562   24.7328   38.6053 H   0  0  0  0  0  0  0  0  0  0  0  0
   38.9545   25.3725   36.7791 H   0  0  0  0  0  0  0  0  0  0  0  0
   37.2912   25.1361   36.1618 H   0  0  0  0  0  0  0  0  0  0  0  0
   38.2220   24.9352   33.3320 H   0  0  0  0  0  0  0  0  0  0  0  0
   36.4951   20.3467   33.6073 H   0  0  0  0  0  0  0  0  0  0  0  0
   37.9152   24.3075   30.4844 H   0  0  0  0  0  0  0  0  0  0  0  0
  1  2  1  0
  1  6  1  0
  2  3  1  0
  3  4  1  0
  5  4  1  0
  6  5  1  0
  7 12  1  0
  7  1  1  0
  8  7  2  0
  9 10  2  0
  9  8  1  0
 10 11  1  0
 11 12  2  0
 13  9  1  0
 14 13  2  0
  2 15  1  0
  2 16  1  0
  3 17  1  0
  3 18  1  0
  4 19  1  0
  4 20  1  0
  5 21  1  0
  5 22  1  0
  6 23  1  0
  6 24  1  0
  8 25  1  0
 11 26  1  0
 13 27  1  0
M  ISO  8  15  13  16  13  17  13  18  13  19  13  20  13  21  13  22  13
M  ISO  5  23  13  24  13  25  14  26  14  27   6
M  END
>  <minimizedAffinity>  (1) 
-4.03701687

>  <minimizedRMSD>  (1) 
0.145656928

$$$$
