
     RDKit          3D

 28 29  0  0  0  0  0  0  0  0999 V2000
   38.6440   23.6140   35.7200 N   0  0  0  0  0  0  0  0  0  0  0  0
   39.8570   23.0960   36.2560 C   0  0  0  0  0  0  0  0  0  0  0  0
   39.8990   22.7260   37.6770 C   0  0  0  0  0  0  0  0  0  0  0  0
   38.9830   23.4530   38.6050 C   0  0  0  0  0  0  0  0  0  0  0  0
   37.7490   24.0070   37.9460 C   0  0  0  0  0  0  0  0  0  0  0  0
   38.1650   24.6550   36.6080 C   0  0  0  0  0  0  0  0  0  0  0  0
   37.9990   23.1930   34.5240 C   0  0  0  0  0  0  0  0  0  0  0  0
   37.8590   23.9720   33.3780 C   0  0  0  0  0  0  0  0  0  0  0  0
   37.1970   23.4020   32.2870 C   0  0  0  0  0  0  0  0  0  0  0  0
   36.7260   22.1350   32.3960 N   0  0  0  0  0  0  0  0  0  0  0  0
   36.8820   21.4180   33.5220 C   0  0  0  0  0  0  0  0  0  0  0  0
   37.5130   21.9510   34.5670 N   0  0  0  0  0  0  0  0  0  0  0  0
   37.0460   24.2380   31.0550 C   0  0  0  0  0  0  0  0  0  0  0  0
   40.1066   22.1934   35.6789 H   0  0  0  0  0  0  0  0  0  0  0  0
   40.5636   23.9354   36.1776 H   0  0  0  0  0  0  0  0  0  0  0  0
   39.6566   21.6553   37.7462 H   0  0  0  0  0  0  0  0  0  0  0  0
   40.9110   23.0012   38.0089 H   0  0  0  0  0  0  0  0  0  0  0  0
   38.6683   22.7557   39.3954 H   0  0  0  0  0  0  0  0  0  0  0  0
   39.5463   24.3136   38.9949 H   0  0  0  0  0  0  0  0  0  0  0  0
   37.0307   23.1952   37.7589 H   0  0  0  0  0  0  0  0  0  0  0  0
   37.2736   24.7545   38.5981 H   0  0  0  0  0  0  0  0  0  0  0  0
   38.9651   25.3889   36.7845 H   0  0  0  0  0  0  0  0  0  0  0  0
   37.3042   25.1689   36.1553 H   0  0  0  0  0  0  0  0  0  0  0  0
   38.2546   24.9974   33.3332 H   0  0  0  0  0  0  0  0  0  0  0  0
   36.4891   20.3922   33.5805 H   0  0  0  0  0  0  0  0  0  0  0  0
   36.8572   25.2830   31.3419 H   0  0  0  0  0  0  0  0  0  0  0  0
   37.9687   24.1824   30.4588 H   0  0  0  0  0  0  0  0  0  0  0  0
   36.2010   23.8631   30.4588 H   0  0  0  0  0  0  0  0  0  0  0  0
  1  2  1  0
  1  6  1  0
  2  3  1  0
  3  4  1  0
  5  4  1  0
  6  5  1  0
  7 12  1  0
  7  1  1  0
  8  7  2  0
  9 10  2  0
  9  8  1  0
 10 11  1  0
 11 12  2  0
 13  9  1  0
  2 14  1  0
  2 15  1  0
  3 16  1  0
  3 17  1  0
  4 18  1  0
  4 19  1  0
  5 20  1  0
  5 21  1  0
  6 22  1  0
  6 23  1  0
  8 24  1  0
 11 25  1  0
 13 26  1  0
 13 27  1  0
 13 28  1  0
M  ISO  8  14  13  15  13  16  13  17  13  18  13  19  13  20  13  21  13
M  ISO  7  22  13  23  13  24  14  25  14  26   8  27   8  28   8
M  END
>  <minimizedAffinity>  (1) 
-4.02697945

>  <minimizedRMSD>  (1) 
0.0777329206

$$$$
