
     RDKit          3D

 44 48  0  0  0  0  0  0  0  0999 V2000
   41.2510   26.0490   33.9970 C   0  0  0  0  0  0  0  0  0  0  0  0
   42.2610   22.9270   35.7830 C   0  0  0  0  0  0  0  0  0  0  0  0
   41.5540   21.9640   35.0490 C   0  0  0  0  0  0  0  0  0  0  0  0
   40.7630   22.3670   33.9830 C   0  0  0  0  0  0  0  0  0  0  0  0
   40.7260   23.7080   33.7170 N   0  0  0  0  0  0  0  0  0  0  0  0
   41.4140   24.6240   34.4350 C   0  0  0  0  0  0  0  0  0  0  0  0
   42.1690   24.2330   35.4530 N   0  0  0  0  0  0  0  0  0  0  0  0
   39.9860   21.4170   33.1580 C   0  0  0  0  0  0  0  0  0  0  0  0
   40.6530   20.5000   32.3020 C   0  0  0  0  0  0  0  0  0  0  0  0
   39.2200   19.6300   31.5580 S   0  0  0  0  0  0  0  0  0  0  0  0
   37.9850   20.6560   32.5320 C   0  0  0  0  0  0  0  0  0  0  0  0
   38.6780   21.4490   33.2320 N   0  0  0  0  0  0  0  0  0  0  0  0
   36.5320   20.3870   32.3370 C   0  0  0  0  0  0  0  0  0  0  0  0
   35.5160   21.2830   32.2160 C   0  0  0  0  0  0  0  0  0  0  0  0
   34.3980   20.5150   32.0580 N   0  0  0  0  0  0  0  0  0  0  0  0
   34.8070   19.2140   32.0930 C   0  0  0  0  0  0  0  0  0  0  0  0
   36.1600   19.1200   32.2700 N   0  0  0  0  0  0  0  0  0  0  0  0
   40.3290   26.7790   34.9630 C   0  0  0  0  0  0  0  0  0  0  0  0
   39.0430   27.1430   34.3240 C   0  0  0  0  0  0  0  0  0  0  0  0
   37.9080   27.2830   35.1020 C   0  0  0  0  0  0  0  0  0  0  0  0
   36.6380   27.6240   34.6030 C   0  0  0  0  0  0  0  0  0  0  0  0
   36.5550   27.8230   33.2580 N   0  0  0  0  0  0  0  0  0  0  0  0
   37.6770   27.6860   32.4850 C   0  0  0  0  0  0  0  0  0  0  0  0
   38.8940   27.3510   33.0220 N   0  0  0  0  0  0  0  0  0  0  0  0
   37.6210   27.8930   31.0460 C   0  0  0  0  0  0  0  0  0  0  0  0
   38.7950   28.1190   30.3200 C   0  0  0  0  0  0  0  0  0  0  0  0
   38.4070   28.2790   28.9770 C   0  0  0  0  0  0  0  0  0  0  0  0
   37.0400   28.1460   28.9500 N   0  0  0  0  0  0  0  0  0  0  0  0
   36.5880   27.9200   30.1640 N   0  0  0  0  0  0  0  0  0  0  0  0
   42.2338   26.5429   33.9854 H   0  0  0  0  0  0  0  0  0  0  0  0
   40.8144   26.0727   32.9876 H   0  0  0  0  0  0  0  0  0  0  0  0
   42.8919   22.6179   36.6294 H   0  0  0  0  0  0  0  0  0  0  0  0
   41.6259   20.8993   35.3158 H   0  0  0  0  0  0  0  0  0  0  0  0
   41.7298   20.3527   32.1325 H   0  0  0  0  0  0  0  0  0  0  0  0
   35.5804   22.3808   32.2400 H   0  0  0  0  0  0  0  0  0  0  0  0
   34.1339   18.3499   31.9917 H   0  0  0  0  0  0  0  0  0  0  0  0
   36.7434   18.2736   32.3349 H   0  0  0  0  0  0  0  0  0  0  0  0
   40.1266   26.1261   35.8248 H   0  0  0  0  0  0  0  0  0  0  0  0
   40.8290   27.7062   35.2797 H   0  0  0  0  0  0  0  0  0  0  0  0
   38.0053   27.1163   36.1849 H   0  0  0  0  0  0  0  0  0  0  0  0
   35.7622   27.7242   35.2610 H   0  0  0  0  0  0  0  0  0  0  0  0
   39.8188   28.1629   30.7198 H   0  0  0  0  0  0  0  0  0  0  0  0
   39.0674   28.4723   28.1188 H   0  0  0  0  0  0  0  0  0  0  0  0
   36.4558   28.2133   28.1044 H   0  0  0  0  0  0  0  0  0  0  0  0
  1  6  1  0
  1 18  1  0
  3  2  2  0
  4  3  1  0
  5  4  2  0
  5  6  1  0
  6  7  2  0
  7  2  1  0
  8 12  1  0
  8  4  1  0
  9  8  2  0
 10  9  1  0
 10 11  1  0
 11 12  2  0
 13 11  1  0
 14 13  2  0
 15 16  2  0
 15 14  1  0
 16 17  1  0
 17 13  1  0
 19 18  1  0
 19 20  2  0
 21 20  1  0
 22 21  2  0
 23 24  2  0
 23 22  1  0
 24 19  1  0
 25 23  1  0
 26 25  1  0
 27 26  2  0
 28 27  1  0
 28 29  1  0
 29 25  2  0
  1 30  1  0
  1 31  1  0
  2 32  1  0
  3 33  1  0
  9 34  1  0
 14 35  1  0
 16 36  1  0
 17 37  1  0
 18 38  1  0
 18 39  1  0
 20 40  1  0
 21 41  1  0
 26 42  1  0
 27 43  1  0
 28 44  1  0
M  ISO  8  30   8  31   8  32  14  33  14  34  14  35  14  36  14  37   9
M  ISO  7  38   8  39   8  40  14  41  14  42  14  43  14  44   9
M  END
>  <minimizedAffinity>  (1) 
-5.24962807

>  <minimizedRMSD>  (1) 
2.79549289

$$$$
