
     RDKit          3D

 41 43  0  0  0  0  0  0  0  0999 V2000
   38.6670   23.5650   35.7850 N   0  0  0  0  0  0  0  0  0  0  0  0
   39.8720   23.0690   36.3260 C   0  0  0  0  0  0  0  0  0  0  0  0
   39.8910   22.7250   37.7610 C   0  0  0  0  0  0  0  0  0  0  0  0
   38.9750   23.4720   38.6680 C   0  0  0  0  0  0  0  0  0  0  0  0
   37.7500   24.0270   37.9970 C   0  0  0  0  0  0  0  0  0  0  0  0
   38.1810   24.6220   36.6490 C   0  0  0  0  0  0  0  0  0  0  0  0
   38.0200   23.1290   34.6070 C   0  0  0  0  0  0  0  0  0  0  0  0
   37.8930   23.8640   33.4220 C   0  0  0  0  0  0  0  0  0  0  0  0
   37.2370   23.3220   32.3440 C   0  0  0  0  0  0  0  0  0  0  0  0
   36.7300   22.0780   32.4710 N   0  0  0  0  0  0  0  0  0  0  0  0
   36.8560   21.3720   33.6210 C   0  0  0  0  0  0  0  0  0  0  0  0
   37.4900   21.8940   34.6660 N   0  0  0  0  0  0  0  0  0  0  0  0
   37.1360   24.3370   30.9100 S   0  0  0  0  0  0  0  0  0  0  0  0
   39.4250   27.8660   29.3060 N   0  0  0  0  0  0  0  0  0  0  0  0
   39.6350   26.5140   28.9010 C   0  0  0  0  0  0  0  0  0  0  0  0
   39.4780   25.4900   29.9910 C   0  0  0  0  0  0  0  0  0  0  0  0
   38.2870   25.7100   30.8770 C   0  0  0  0  0  0  0  0  0  0  0  0
   37.6330   27.0580   30.6720 C   0  0  0  0  0  0  0  0  0  0  0  0
   38.7730   28.0520   30.5600 C   0  0  0  0  0  0  0  0  0  0  0  0
   40.1326   22.1584   35.7667 H   0  0  0  0  0  0  0  0  0  0  0  0
   40.5826   23.9033   36.2314 H   0  0  0  0  0  0  0  0  0  0  0  0
   39.6378   21.6579   37.8457 H   0  0  0  0  0  0  0  0  0  0  0  0
   40.9006   23.0023   38.0983 H   0  0  0  0  0  0  0  0  0  0  0  0
   38.6497   22.7890   39.4665 H   0  0  0  0  0  0  0  0  0  0  0  0
   39.5433   24.3349   39.0453 H   0  0  0  0  0  0  0  0  0  0  0  0
   37.0165   23.2237   37.8339 H   0  0  0  0  0  0  0  0  0  0  0  0
   37.2844   24.7997   38.6264 H   0  0  0  0  0  0  0  0  0  0  0  0
   38.9817   25.3582   36.8129 H   0  0  0  0  0  0  0  0  0  0  0  0
   37.3195   25.1148   36.1747 H   0  0  0  0  0  0  0  0  0  0  0  0
   38.3188   24.8760   33.3545 H   0  0  0  0  0  0  0  0  0  0  0  0
   36.4306   20.3599   33.6900 H   0  0  0  0  0  0  0  0  0  0  0  0
   38.8533   28.3257   28.5830 H   0  0  0  0  0  0  0  0  0  0  0  0
   38.9111   26.2799   28.1066 H   0  0  0  0  0  0  0  0  0  0  0  0
   40.6825   26.4522   28.5711 H   0  0  0  0  0  0  0  0  0  0  0  0
   39.3805   24.4997   29.5221 H   0  0  0  0  0  0  0  0  0  0  0  0
   40.3678   25.5732   30.6323 H   0  0  0  0  0  0  0  0  0  0  0  0
   38.6930   25.7409   31.8989 H   0  0  0  0  0  0  0  0  0  0  0  0
   37.0324   27.0572   29.7504 H   0  0  0  0  0  0  0  0  0  0  0  0
   36.9530   27.3103   31.4990 H   0  0  0  0  0  0  0  0  0  0  0  0
   39.4900   27.8855   31.3775 H   0  0  0  0  0  0  0  0  0  0  0  0
   38.3817   29.0778   30.6286 H   0  0  0  0  0  0  0  0  0  0  0  0
  1  2  1  0
  1  6  1  0
  2  3  1  0
  3  4  1  0
  5  4  1  0
  6  5  1  0
  7 12  1  0
  7  1  1  0
  8  7  2  0
  9 10  2  0
  9  8  1  0
 10 11  1  0
 11 12  2  0
 13  9  1  0
 14 19  1  0
 15 14  1  0
 15 16  1  0
 16 17  1  0
 17 13  1  0
 18 17  1  0
 19 18  1  0
  2 20  1  0
  2 21  1  0
  3 22  1  0
  3 23  1  0
  4 24  1  0
  4 25  1  0
  5 26  1  0
  5 27  1  0
  6 28  1  0
  6 29  1  0
  8 30  1  0
 11 31  1  0
 14 32  1  0
 15 33  1  0
 15 34  1  0
 16 35  1  0
 16 36  1  0
 17 37  1  0
 18 38  1  0
 18 39  1  0
 19 40  1  0
 19 41  1  0
M  ISO  8  20  13  21  13  22  13  23  13  24  13  25  13  26  13  27  13
M  ISO  8  28  13  29  13  30  14  31  14  32   5  33  13  34  13  35  13
M  ISO  6  36  13  37  13  38  13  39  13  40  13  41  13
M  END
>  <minimizedAffinity>  (1) 
-4.49318981

>  <minimizedRMSD>  (1) 
1.57547271

$$$$
