
     RDKit          3D

 38 39  0  0  0  0  0  0  0  0999 V2000
   38.8510   23.9840   35.9410 N   0  0  0  0  0  0  0  0  0  0  0  0
   40.0320   23.4070   36.4830 C   0  0  0  0  0  0  0  0  0  0  0  0
   39.9210   22.7240   37.7870 C   0  0  0  0  0  0  0  0  0  0  0  0
   38.9380   23.2600   38.7520 C   0  0  0  0  0  0  0  0  0  0  0  0
   37.7340   23.9110   38.0890 C   0  0  0  0  0  0  0  0  0  0  0  0
   38.2500   24.8070   36.9600 C   0  0  0  0  0  0  0  0  0  0  0  0
   38.3340   23.7970   34.6260 C   0  0  0  0  0  0  0  0  0  0  0  0
   38.3600   24.7500   33.6040 C   0  0  0  0  0  0  0  0  0  0  0  0
   37.8270   24.4360   32.3730 C   0  0  0  0  0  0  0  0  0  0  0  0
   37.2940   23.1980   32.2090 N   0  0  0  0  0  0  0  0  0  0  0  0
   37.2810   22.2900   33.2150 C   0  0  0  0  0  0  0  0  0  0  0  0
   37.7970   22.5880   34.4110 N   0  0  0  0  0  0  0  0  0  0  0  0
   37.9100   25.7010   31.1510 S   0  0  0  0  0  0  0  0  0  0  0  0
   36.5580   26.8960   31.2470 C   0  0  0  0  0  0  0  0  0  0  0  0
   35.2560   26.1320   31.0430 C   0  0  0  0  0  0  0  0  0  0  0  0
   36.7000   27.9830   30.2200 C   0  0  0  0  0  0  0  0  0  0  0  0
   36.5010   27.5580   32.6240 C   0  0  0  0  0  0  0  0  0  0  0  0
   40.4022   22.6697   35.7555 H   0  0  0  0  0  0  0  0  0  0  0  0
   40.7003   24.2605   36.6700 H   0  0  0  0  0  0  0  0  0  0  0  0
   39.6520   21.6759   37.5891 H   0  0  0  0  0  0  0  0  0  0  0  0
   40.8989   22.8734   38.2680 H   0  0  0  0  0  0  0  0  0  0  0  0
   38.5831   22.4327   39.3841 H   0  0  0  0  0  0  0  0  0  0  0  0
   39.4484   24.0400   39.3361 H   0  0  0  0  0  0  0  0  0  0  0  0
   37.0688   23.1371   37.6784 H   0  0  0  0  0  0  0  0  0  0  0  0
   37.1656   24.5036   38.8210 H   0  0  0  0  0  0  0  0  0  0  0  0
   39.0000   25.5062   37.3584 H   0  0  0  0  0  0  0  0  0  0  0  0
   37.4144   25.3782   36.5294 H   0  0  0  0  0  0  0  0  0  0  0  0
   38.8020   25.7417   33.7809 H   0  0  0  0  0  0  0  0  0  0  0  0
   36.8407   21.2964   33.0450 H   0  0  0  0  0  0  0  0  0  0  0  0
   34.8228   25.8778   32.0216 H   0  0  0  0  0  0  0  0  0  0  0  0
   34.5480   26.7579   30.4800 H   0  0  0  0  0  0  0  0  0  0  0  0
   35.4570   25.2086   30.4800 H   0  0  0  0  0  0  0  0  0  0  0  0
   36.8265   28.9514   30.7262 H   0  0  0  0  0  0  0  0  0  0  0  0
   37.5793   27.7805   29.5909 H   0  0  0  0  0  0  0  0  0  0  0  0
   35.7982   28.0131   29.5909 H   0  0  0  0  0  0  0  0  0  0  0  0
   36.5675   26.7862   33.4049 H   0  0  0  0  0  0  0  0  0  0  0  0
   37.3421   28.2591   32.7289 H   0  0  0  0  0  0  0  0  0  0  0  0
   35.5524   28.1050   32.7289 H   0  0  0  0  0  0  0  0  0  0  0  0
  1  2  1  0
  1  6  1  0
  2  3  1  0
  3  4  1  0
  5  4  1  0
  6  5  1  0
  7  1  1  0
  8  7  2  0
  9  8  1  0
 10  9  2  0
 10 11  1  0
 11 12  2  0
 12  7  1  0
 13 14  1  0
 13  9  1  0
 14 17  1  0
 15 14  1  0
 16 14  1  0
  2 18  1  0
  2 19  1  0
  3 20  1  0
  3 21  1  0
  4 22  1  0
  4 23  1  0
  5 24  1  0
  5 25  1  0
  6 26  1  0
  6 27  1  0
  8 28  1  0
 11 29  1  0
 15 30  1  0
 15 31  1  0
 15 32  1  0
 16 33  1  0
 16 34  1  0
 16 35  1  0
 17 36  1  0
 17 37  1  0
 17 38  1  0
M  ISO  8  18  13  19  13  20  13  21  13  22  13  23  13  24  13  25  13
M  ISO  8  26  13  27  13  28  14  29  14  30   8  31   8  32   8  33   8
M  ISO  5  34   8  35   8  36   8  37   8  38   8
M  END
>  <minimizedAffinity>  (1) 
-4.27445936

>  <minimizedRMSD>  (1) 
1.21780872

$$$$
