
     RDKit          3D

 40 43  0  0  0  0  0  0  0  0999 V2000
   41.6570   25.3180   33.8690 C   0  0  0  0  0  0  0  0  0  0  0  0
   41.7930   22.7830   36.6180 C   0  0  0  0  0  0  0  0  0  0  0  0
   40.5250   22.1950   36.5010 C   0  0  0  0  0  0  0  0  0  0  0  0
   39.6670   22.6590   35.5150 C   0  0  0  0  0  0  0  0  0  0  0  0
   40.1050   23.6650   34.7090 N   0  0  0  0  0  0  0  0  0  0  0  0
   41.3340   24.2180   34.8400 C   0  0  0  0  0  0  0  0  0  0  0  0
   42.1640   23.7890   35.7730 N   0  0  0  0  0  0  0  0  0  0  0  0
   38.3040   22.0910   35.3220 C   0  0  0  0  0  0  0  0  0  0  0  0
   37.8350   21.7750   34.0250 C   0  0  0  0  0  0  0  0  0  0  0  0
   36.1740   21.1470   34.3870 S   0  0  0  0  0  0  0  0  0  0  0  0
   36.3800   21.4130   36.2500 C   0  0  0  0  0  0  0  0  0  0  0  0
   37.5460   21.8920   36.3680 N   0  0  0  0  0  0  0  0  0  0  0  0
   35.4360   21.1490   37.3870 C   0  0  0  0  0  0  0  0  0  0  0  0
   35.6800   21.3570   38.6040 O   0  0  0  0  0  0  0  0  0  0  0  0
   34.2080   20.6370   37.0450 O   0  0  0  0  0  0  0  0  0  0  0  0
   41.3100   26.6580   34.4770 C   0  0  0  0  0  0  0  0  0  0  0  0
   39.8680   26.9870   34.3390 C   0  0  0  0  0  0  0  0  0  0  0  0
   39.0950   27.1580   35.4590 C   0  0  0  0  0  0  0  0  0  0  0  0
   37.7280   27.4690   35.4480 C   0  0  0  0  0  0  0  0  0  0  0  0
   37.1620   27.6050   34.2130 N   0  0  0  0  0  0  0  0  0  0  0  0
   37.9230   27.4370   33.0900 C   0  0  0  0  0  0  0  0  0  0  0  0
   39.2510   27.1340   33.1710 N   0  0  0  0  0  0  0  0  0  0  0  0
   37.3430   27.5770   31.7590 C   0  0  0  0  0  0  0  0  0  0  0  0
   37.7410   28.6250   30.9350 C   0  0  0  0  0  0  0  0  0  0  0  0
   37.0130   28.4870   29.7400 C   0  0  0  0  0  0  0  0  0  0  0  0
   36.2210   27.3860   29.8880 N   0  0  0  0  0  0  0  0  0  0  0  0
   36.4240   26.8560   31.0840 N   0  0  0  0  0  0  0  0  0  0  0  0
   41.0745   25.1737   32.9471 H   0  0  0  0  0  0  0  0  0  0  0  0
   42.7319   25.2926   33.6368 H   0  0  0  0  0  0  0  0  0  0  0  0
   42.4906   22.4325   37.3929 H   0  0  0  0  0  0  0  0  0  0  0  0
   40.2176   21.3833   37.1767 H   0  0  0  0  0  0  0  0  0  0  0  0
   38.3432   21.8820   33.0553 H   0  0  0  0  0  0  0  0  0  0  0  0
   33.5400   20.4409   37.7489 H   0  0  0  0  0  0  0  0  0  0  0  0
   41.5668   26.6376   35.5464 H   0  0  0  0  0  0  0  0  0  0  0  0
   41.8823   27.4282   33.9392 H   0  0  0  0  0  0  0  0  0  0  0  0
   39.5835   27.0427   36.4378 H   0  0  0  0  0  0  0  0  0  0  0  0
   37.1488   27.5953   36.3746 H   0  0  0  0  0  0  0  0  0  0  0  0
   38.4785   29.4062   31.1714 H   0  0  0  0  0  0  0  0  0  0  0  0
   37.0708   29.1402   28.8568 H   0  0  0  0  0  0  0  0  0  0  0  0
   35.5670   27.0236   29.1796 H   0  0  0  0  0  0  0  0  0  0  0  0
  1 16  1  0
  1  6  1  0
  3  2  2  0
  4  3  1  0
  5  6  1  0
  5  4  2  0
  6  7  2  0
  7  2  1  0
  8  4  1  0
  8 12  1  0
  9 10  1  0
  9  8  2  0
 10 11  1  0
 11 12  2  0
 11 13  1  0
 13 14  2  0
 15 13  1  0
 17 16  1  0
 17 18  2  0
 19 18  1  0
 20 19  2  0
 21 22  2  0
 21 20  1  0
 22 17  1  0
 23 21  1  0
 24 23  1  0
 25 26  1  0
 25 24  2  0
 26 27  1  0
 27 23  2  0
  1 28  1  0
  1 29  1  0
  2 30  1  0
  3 31  1  0
  9 32  1  0
 15 33  1  0
 16 34  1  0
 16 35  1  0
 18 36  1  0
 19 37  1  0
 24 38  1  0
 25 39  1  0
 26 40  1  0
M  ISO  8  28   8  29   8  30  14  31  14  32  14  33   3  34   8  35   8
M  ISO  5  36  14  37  14  38  14  39  14  40   9
M  END
>  <minimizedAffinity>  (1) 
-5.22512054

>  <minimizedRMSD>  (1) 
1.07337582

$$$$
