
     RDKit          3D

 29 30  0  0  0  0  0  0  0  0999 V2000
   38.6980   23.6570   35.7950 N   0  0  0  0  0  0  0  0  0  0  0  0
   39.9100   23.1360   36.3450 C   0  0  0  0  0  0  0  0  0  0  0  0
   39.9190   22.7650   37.7690 C   0  0  0  0  0  0  0  0  0  0  0  0
   38.9950   23.4840   38.6760 C   0  0  0  0  0  0  0  0  0  0  0  0
   37.7770   24.0550   38.0080 C   0  0  0  0  0  0  0  0  0  0  0  0
   38.2170   24.6970   36.6830 C   0  0  0  0  0  0  0  0  0  0  0  0
   38.0680   23.2400   34.5970 C   0  0  0  0  0  0  0  0  0  0  0  0
   37.8030   24.1000   33.5020 C   0  0  0  0  0  0  0  0  0  0  0  0
   37.1820   23.5510   32.3960 C   0  0  0  0  0  0  0  0  0  0  0  0
   36.8570   22.2350   32.4040 N   0  0  0  0  0  0  0  0  0  0  0  0
   37.1320   21.4490   33.4740 C   0  0  0  0  0  0  0  0  0  0  0  0
   37.7280   21.9510   34.5500 N   0  0  0  0  0  0  0  0  0  0  0  0
   36.8800   24.6710   31.0720 S   0  0  0  0  0  0  0  0  0  0  0  0
   35.1110   25.0330   30.9980 C   0  0  0  0  0  0  0  0  0  0  0  0
   40.1689   22.2344   35.7704 H   0  0  0  0  0  0  0  0  0  0  0  0
   40.6246   23.9693   36.2737 H   0  0  0  0  0  0  0  0  0  0  0  0
   39.6725   21.6947   37.8307 H   0  0  0  0  0  0  0  0  0  0  0  0
   40.9237   23.0419   38.1209 H   0  0  0  0  0  0  0  0  0  0  0  0
   38.6614   22.7806   39.4531 H   0  0  0  0  0  0  0  0  0  0  0  0
   39.5579   24.3390   39.0786 H   0  0  0  0  0  0  0  0  0  0  0  0
   37.0496   23.2538   37.8108 H   0  0  0  0  0  0  0  0  0  0  0  0
   37.3029   24.8061   38.6569 H   0  0  0  0  0  0  0  0  0  0  0  0
   39.0222   25.4219   36.8732 H   0  0  0  0  0  0  0  0  0  0  0  0
   37.3660   25.2183   36.2204 H   0  0  0  0  0  0  0  0  0  0  0  0
   38.0810   25.1639   33.5313 H   0  0  0  0  0  0  0  0  0  0  0  0
   36.8586   20.3838   33.4509 H   0  0  0  0  0  0  0  0  0  0  0  0
   34.7105   25.1150   32.0192 H   0  0  0  0  0  0  0  0  0  0  0  0
   34.9529   25.9821   30.4649 H   0  0  0  0  0  0  0  0  0  0  0  0
   34.5928   24.2223   30.4649 H   0  0  0  0  0  0  0  0  0  0  0  0
  1  2  1  0
  1  6  1  0
  2  3  1  0
  3  4  1  0
  5  4  1  0
  6  5  1  0
  7  1  1  0
  8  7  2  0
  9 10  2  0
  9  8  1  0
 10 11  1  0
 11 12  2  0
 12  7  1  0
 13  9  1  0
 14 13  1  0
  2 15  1  0
  2 16  1  0
  3 17  1  0
  3 18  1  0
  4 19  1  0
  4 20  1  0
  5 21  1  0
  5 22  1  0
  6 23  1  0
  6 24  1  0
  8 25  1  0
 11 26  1  0
 14 27  1  0
 14 28  1  0
 14 29  1  0
M  ISO  8  15  13  16  13  17  13  18  13  19  13  20  13  21  13  22  13
M  ISO  7  23  13  24  13  25  14  26  14  27   8  28   8  29   8
M  END
>  <minimizedAffinity>  (1) 
-4.18550873

>  <minimizedRMSD>  (1) 
0.662633479

$$$$
