
     RDKit          3D

 42 44  0  0  0  0  0  0  0  0999 V2000
   38.0310   23.1520   34.6090 C   0  0  0  0  0  0  0  0  0  0  0  0
   37.9140   23.9130   33.4410 C   0  0  0  0  0  0  0  0  0  0  0  0
   37.2510   23.3430   32.3580 C   0  0  0  0  0  0  0  0  0  0  0  0
   36.7490   22.0890   32.4710 N   0  0  0  0  0  0  0  0  0  0  0  0
   36.8800   21.3820   33.6150 C   0  0  0  0  0  0  0  0  0  0  0  0
   37.5140   21.9140   34.6650 N   0  0  0  0  0  0  0  0  0  0  0  0
   38.6700   23.5800   35.7910 N   0  0  0  0  0  0  0  0  0  0  0  0
   39.8860   23.0630   36.3550 C   0  0  0  0  0  0  0  0  0  0  0  0
   39.8950   22.7200   37.7750 C   0  0  0  0  0  0  0  0  0  0  0  0
   39.0020   23.4970   38.6790 C   0  0  0  0  0  0  0  0  0  0  0  0
   37.7590   24.0350   38.0010 C   0  0  0  0  0  0  0  0  0  0  0  0
   38.1920   24.6460   36.6610 C   0  0  0  0  0  0  0  0  0  0  0  0
   37.1450   24.3690   30.9200 S   0  0  0  0  0  0  0  0  0  0  0  0
   38.0680   25.8990   31.0840 C   0  0  0  0  0  0  0  0  0  0  0  0
   37.1750   27.0990   30.8620 C   0  0  0  0  0  0  0  0  0  0  0  0
   36.7550   27.7360   32.1280 C   0  0  0  0  0  0  0  0  0  0  0  0
   35.8640   28.8150   32.0730 C   0  0  0  0  0  0  0  0  0  0  0  0
   35.3880   29.5050   33.1670 C   0  0  0  0  0  0  0  0  0  0  0  0
   35.8270   29.0960   34.4150 C   0  0  0  0  0  0  0  0  0  0  0  0
   36.7120   28.0320   34.5280 C   0  0  0  0  0  0  0  0  0  0  0  0
   37.1500   27.3830   33.3810 C   0  0  0  0  0  0  0  0  0  0  0  0
   38.3323   24.9286   33.3805 H   0  0  0  0  0  0  0  0  0  0  0  0
   36.4639   20.3660   33.6826 H   0  0  0  0  0  0  0  0  0  0  0  0
   40.1426   22.1504   35.7970 H   0  0  0  0  0  0  0  0  0  0  0  0
   40.6018   23.8939   36.2699 H   0  0  0  0  0  0  0  0  0  0  0  0
   39.6079   21.6615   37.8594 H   0  0  0  0  0  0  0  0  0  0  0  0
   40.9132   22.9618   38.1137 H   0  0  0  0  0  0  0  0  0  0  0  0
   38.6895   22.8408   39.5047 H   0  0  0  0  0  0  0  0  0  0  0  0
   39.5783   24.3674   39.0257 H   0  0  0  0  0  0  0  0  0  0  0  0
   37.0426   23.2185   37.8274 H   0  0  0  0  0  0  0  0  0  0  0  0
   37.2704   24.7920   38.6321 H   0  0  0  0  0  0  0  0  0  0  0  0
   38.9986   25.3745   36.8304 H   0  0  0  0  0  0  0  0  0  0  0  0
   37.3392   25.1577   36.1909 H   0  0  0  0  0  0  0  0  0  0  0  0
   38.4977   25.9529   32.0952 H   0  0  0  0  0  0  0  0  0  0  0  0
   38.8641   25.9103   30.3250 H   0  0  0  0  0  0  0  0  0  0  0  0
   37.7224   27.8390   30.2597 H   0  0  0  0  0  0  0  0  0  0  0  0
   36.2678   26.7490   30.3477 H   0  0  0  0  0  0  0  0  0  0  0  0
   35.5172   29.1367   31.0799 H   0  0  0  0  0  0  0  0  0  0  0  0
   34.6881   30.3460   33.0534 H   0  0  0  0  0  0  0  0  0  0  0  0
   35.4740   29.6149   35.3184 H   0  0  0  0  0  0  0  0  0  0  0  0
   37.0633   27.7058   35.5180 H   0  0  0  0  0  0  0  0  0  0  0  0
   37.8507   26.5422   33.4911 H   0  0  0  0  0  0  0  0  0  0  0  0
  1  6  1  0
  1  7  1  0
  2  1  2  0
  3  4  2  0
  3  2  1  0
  4  5  1  0
  5  6  2  0
  7  8  1  0
  7 12  1  0
  8  9  1  0
  9 10  1  0
 11 10  1  0
 12 11  1  0
 13 14  1  0
 13  3  1  0
 15 14  1  0
 15 16  1  0
 16 21  1  0
 17 16  2  0
 17 18  1  0
 18 19  2  0
 19 20  1  0
 21 20  2  0
  2 22  1  0
  5 23  1  0
  8 24  1  0
  8 25  1  0
  9 26  1  0
  9 27  1  0
 10 28  1  0
 10 29  1  0
 11 30  1  0
 11 31  1  0
 12 32  1  0
 12 33  1  0
 14 34  1  0
 14 35  1  0
 15 36  1  0
 15 37  1  0
 17 38  1  0
 18 39  1  0
 19 40  1  0
 20 41  1  0
 21 42  1  0
M  ISO  8  22  14  23  14  24  13  25  13  26  13  27  13  28  13  29  13
M  ISO  8  30  13  31  13  32  13  33  13  34   8  35   8  36   8  37   8
M  ISO  5  38  14  39  14  40  14  41  14  42  14
M  END
>  <minimizedAffinity>  (1) 
-5.23322344

>  <minimizedRMSD>  (1) 
3.01691318

$$$$
