
     RDKit          3D

 46 49  0  0  0  0  0  0  0  0999 V2000
   38.0690   25.4910   33.7420 C   0  0  0  0  0  0  0  0  0  0  0  0
   37.9910   26.7580   33.1520 C   0  0  0  0  0  0  0  0  0  0  0  0
   37.3910   26.8830   31.9040 C   0  0  0  0  0  0  0  0  0  0  0  0
   36.9050   25.7760   31.3060 N   0  0  0  0  0  0  0  0  0  0  0  0
   36.9940   24.5700   31.8970 C   0  0  0  0  0  0  0  0  0  0  0  0
   37.5620   24.4180   33.0890 N   0  0  0  0  0  0  0  0  0  0  0  0
   38.6430   25.2050   34.9930 N   0  0  0  0  0  0  0  0  0  0  0  0
   39.8880   24.5510   35.2440 C   0  0  0  0  0  0  0  0  0  0  0  0
   39.9060   23.4360   36.2050 C   0  0  0  0  0  0  0  0  0  0  0  0
   38.9350   23.4960   37.3280 C   0  0  0  0  0  0  0  0  0  0  0  0
   37.6660   24.2350   36.9910 C   0  0  0  0  0  0  0  0  0  0  0  0
   38.0540   25.5330   36.2810 C   0  0  0  0  0  0  0  0  0  0  0  0
   37.3530   28.5340   31.2630 S   0  0  0  0  0  0  0  0  0  0  0  0
   35.7190   29.2950   31.4050 C   0  0  0  0  0  0  0  0  0  0  0  0
   34.8040   28.4470   32.2330 C   0  0  0  0  0  0  0  0  0  0  0  0
   33.8970   29.1730   33.0620 N   0  0  0  0  0  0  0  0  0  0  0  0
   32.5410   29.1230   32.9050 C   0  0  0  0  0  0  0  0  0  0  0  0
   32.0330   29.9130   33.8410 N   0  0  0  0  0  0  0  0  0  0  0  0
   33.0080   30.4430   34.5650 C   0  0  0  0  0  0  0  0  0  0  0  0
   32.9920   31.3070   35.6280 C   0  0  0  0  0  0  0  0  0  0  0  0
   31.8990   31.7560   36.1040 O   0  0  0  0  0  0  0  0  0  0  0  0
   34.1560   31.6910   36.1850 N   0  0  0  0  0  0  0  0  0  0  0  0
   35.3280   31.2120   35.6790 C   0  0  0  0  0  0  0  0  0  0  0  0
   36.5250   31.6360   36.2860 N   0  0  0  0  0  0  0  0  0  0  0  0
   35.3740   30.3630   34.6360 N   0  0  0  0  0  0  0  0  0  0  0  0
   34.2330   29.9790   34.0810 C   0  0  0  0  0  0  0  0  0  0  0  0
   38.3978   27.6405   33.6674 H   0  0  0  0  0  0  0  0  0  0  0  0
   36.5865   23.6883   31.3807 H   0  0  0  0  0  0  0  0  0  0  0  0
   40.2502   24.1587   34.2823 H   0  0  0  0  0  0  0  0  0  0  0  0
   40.5133   25.3252   35.7126 H   0  0  0  0  0  0  0  0  0  0  0  0
   39.7070   22.5112   35.6436 H   0  0  0  0  0  0  0  0  0  0  0  0
   40.8962   23.4862   36.6814 H   0  0  0  0  0  0  0  0  0  0  0  0
   38.6722   22.4673   37.6155 H   0  0  0  0  0  0  0  0  0  0  0  0
   39.4218   24.0482   38.1454 H   0  0  0  0  0  0  0  0  0  0  0  0
   37.0393   23.6195   36.3289 H   0  0  0  0  0  0  0  0  0  0  0  0
   37.0949   24.4536   37.9053 H   0  0  0  0  0  0  0  0  0  0  0  0
   38.7841   26.0843   36.8917 H   0  0  0  0  0  0  0  0  0  0  0  0
   37.1620   26.1600   36.1351 H   0  0  0  0  0  0  0  0  0  0  0  0
   35.8217   30.2824   31.8787 H   0  0  0  0  0  0  0  0  0  0  0  0
   35.2893   29.3947   30.3973 H   0  0  0  0  0  0  0  0  0  0  0  0
   34.2140   27.8158   31.5522 H   0  0  0  0  0  0  0  0  0  0  0  0
   35.4489   27.8706   32.9127 H   0  0  0  0  0  0  0  0  0  0  0  0
   31.9832   28.5444   32.1539 H   0  0  0  0  0  0  0  0  0  0  0  0
   34.1611   32.3398   36.9850 H   0  0  0  0  0  0  0  0  0  0  0  0
   37.4305   31.2960   35.9320 H   0  0  0  0  0  0  0  0  0  0  0  0
   36.4954   32.2863   37.0842 H   0  0  0  0  0  0  0  0  0  0  0  0
  1  7  1  0
  2  1  2  0
  3  2  1  0
  4  5  1  0
  4  3  2  0
  5  6  2  0
  6  1  1  0
  7  8  1  0
  7 12  1  0
  8  9  1  0
  9 10  1  0
 11 10  1  0
 12 11  1  0
 13 14  1  0
 13  3  1  0
 14 15  1  0
 15 16  1  0
 16 26  1  0
 17 16  1  0
 17 18  2  0
 18 19  1  0
 19 20  1  0
 20 21  2  0
 20 22  1  0
 23 22  1  0
 23 24  1  0
 25 23  2  0
 26 19  2  0
 26 25  1  0
  2 27  1  0
  5 28  1  0
  8 29  1  0
  8 30  1  0
  9 31  1  0
  9 32  1  0
 10 33  1  0
 10 34  1  0
 11 35  1  0
 11 36  1  0
 12 37  1  0
 12 38  1  0
 14 39  1  0
 14 40  1  0
 15 41  1  0
 15 42  1  0
 17 43  1  0
 22 44  1  0
 24 45  1  0
 24 46  1  0
M  ISO  8  27  14  28  14  29  13  30  13  31  13  32  13  33  13  34  13
M  ISO  8  35  13  36  13  37  13  38  13  39   8  40   8  41   8  42   8
M  ISO  2  43  14  44   9
M  END
>  <minimizedAffinity>  (1) 
-5.02974892

>  <minimizedRMSD>  (1) 
3.55614114

$$$$
