
     RDKit          3D

 46 48  0  0  0  0  0  0  0  0999 V2000
   38.0500   23.1970   34.6340 C   0  0  0  0  0  0  0  0  0  0  0  0
   37.9050   23.9690   33.4810 C   0  0  0  0  0  0  0  0  0  0  0  0
   37.2540   23.4190   32.3780 C   0  0  0  0  0  0  0  0  0  0  0  0
   36.7880   22.1510   32.4830 N   0  0  0  0  0  0  0  0  0  0  0  0
   36.9410   21.4280   33.6090 C   0  0  0  0  0  0  0  0  0  0  0  0
   37.5640   21.9460   34.6710 N   0  0  0  0  0  0  0  0  0  0  0  0
   38.6900   23.6300   35.8200 N   0  0  0  0  0  0  0  0  0  0  0  0
   39.9160   23.1260   36.3750 C   0  0  0  0  0  0  0  0  0  0  0  0
   39.9250   22.7410   37.7920 C   0  0  0  0  0  0  0  0  0  0  0  0
   39.0320   23.5080   38.7060 C   0  0  0  0  0  0  0  0  0  0  0  0
   37.7980   24.0520   38.0310 C   0  0  0  0  0  0  0  0  0  0  0  0
   38.2100   24.6850   36.6990 C   0  0  0  0  0  0  0  0  0  0  0  0
   37.1140   24.4470   30.9650 S   0  0  0  0  0  0  0  0  0  0  0  0
   37.5290   26.1760   31.3100 C   0  0  0  0  0  0  0  0  0  0  0  0
   36.4090   26.8420   32.0560 C   0  0  0  0  0  0  0  0  0  0  0  0
   35.9050   27.9380   31.2680 N   0  0  0  0  0  0  0  0  0  0  0  0
   35.6170   29.0540   32.1000 C   0  0  0  0  0  0  0  0  0  0  0  0
   35.1210   30.2570   31.3110 C   0  0  0  0  0  0  0  0  0  0  0  0
   36.0010   30.6030   30.2390 N   0  0  0  0  0  0  0  0  0  0  0  0
   37.1400   29.7330   30.1330 C   0  0  0  0  0  0  0  0  0  0  0  0
   36.7570   28.2600   30.1440 C   0  0  0  0  0  0  0  0  0  0  0  0
   38.2982   24.9956   33.4430 H   0  0  0  0  0  0  0  0  0  0  0  0
   36.5492   20.4012   33.6545 H   0  0  0  0  0  0  0  0  0  0  0  0
   40.1971   22.2362   35.7926 H   0  0  0  0  0  0  0  0  0  0  0  0
   40.6130   23.9750   36.3168 H   0  0  0  0  0  0  0  0  0  0  0  0
   39.6302   21.6829   37.8505 H   0  0  0  0  0  0  0  0  0  0  0  0
   40.9455   22.9573   38.1409 H   0  0  0  0  0  0  0  0  0  0  0  0
   38.7163   22.8422   39.5228 H   0  0  0  0  0  0  0  0  0  0  0  0
   39.6081   24.3722   39.0684 H   0  0  0  0  0  0  0  0  0  0  0  0
   37.0846   23.2349   37.8483 H   0  0  0  0  0  0  0  0  0  0  0  0
   37.3189   24.8055   38.6734 H   0  0  0  0  0  0  0  0  0  0  0  0
   39.0103   25.4204   36.8686 H   0  0  0  0  0  0  0  0  0  0  0  0
   37.3508   25.1973   36.2415 H   0  0  0  0  0  0  0  0  0  0  0  0
   38.4442   26.2149   31.9190 H   0  0  0  0  0  0  0  0  0  0  0  0
   37.6874   26.7028   30.3574 H   0  0  0  0  0  0  0  0  0  0  0  0
   35.6026   26.1157   32.2354 H   0  0  0  0  0  0  0  0  0  0  0  0
   36.7784   27.2182   33.0214 H   0  0  0  0  0  0  0  0  0  0  0  0
   34.8418   28.7632   32.8242 H   0  0  0  0  0  0  0  0  0  0  0  0
   36.5510   29.3460   32.6024 H   0  0  0  0  0  0  0  0  0  0  0  0
   34.1305   30.0225   30.8939 H   0  0  0  0  0  0  0  0  0  0  0  0
   35.0747   31.1145   31.9985 H   0  0  0  0  0  0  0  0  0  0  0  0
   35.4730   30.5588   29.3558 H   0  0  0  0  0  0  0  0  0  0  0  0
   37.8121   29.9282   30.9816 H   0  0  0  0  0  0  0  0  0  0  0  0
   37.6292   29.9419   29.1702 H   0  0  0  0  0  0  0  0  0  0  0  0
   36.2226   28.0235   29.2121 H   0  0  0  0  0  0  0  0  0  0  0  0
   37.6789   27.6662   30.2308 H   0  0  0  0  0  0  0  0  0  0  0  0
  1  6  1  0
  1  7  1  0
  2  1  2  0
  3  4  2  0
  3  2  1  0
  4  5  1  0
  5  6  2  0
  7  8  1  0
  7 12  1  0
  8  9  1  0
  9 10  1  0
 11 10  1  0
 12 11  1  0
 13 14  1  0
 13  3  1  0
 14 15  1  0
 16 15  1  0
 16 17  1  0
 18 17  1  0
 19 18  1  0
 20 21  1  0
 20 19  1  0
 21 16  1  0
  2 22  1  0
  5 23  1  0
  8 24  1  0
  8 25  1  0
  9 26  1  0
  9 27  1  0
 10 28  1  0
 10 29  1  0
 11 30  1  0
 11 31  1  0
 12 32  1  0
 12 33  1  0
 14 34  1  0
 14 35  1  0
 15 36  1  0
 15 37  1  0
 17 38  1  0
 17 39  1  0
 18 40  1  0
 18 41  1  0
 19 42  1  0
 20 43  1  0
 20 44  1  0
 21 45  1  0
 21 46  1  0
M  ISO  8  22  14  23  14  24  13  25  13  26  13  27  13  28  13  29  13
M  ISO  8  30  13  31  13  32  13  33  13  34   8  35   8  36   8  37   8
M  ISO  8  38  13  39  13  40  13  41  13  42   5  43  13  44  13  45  13
M  ISO  1  46  13
M  END
>  <minimizedAffinity>  (1) 
-4.91149569

>  <minimizedRMSD>  (1) 
2.7113955

$$$$
