
     RDKit          3D

 39 41  0  0  0  0  0  0  0  0999 V2000
   37.9450   22.9570   34.6700 C   0  0  0  0  0  0  0  0  0  0  0  0
   37.9450   23.5800   33.4110 C   0  0  0  0  0  0  0  0  0  0  0  0
   37.2570   22.9520   32.3820 C   0  0  0  0  0  0  0  0  0  0  0  0
   36.6170   21.7710   32.6300 N   0  0  0  0  0  0  0  0  0  0  0  0
   36.6450   21.2140   33.8470 C   0  0  0  0  0  0  0  0  0  0  0  0
   37.3030   21.7980   34.8660 N   0  0  0  0  0  0  0  0  0  0  0  0
   38.5990   23.4730   35.8130 N   0  0  0  0  0  0  0  0  0  0  0  0
   39.8480   23.0430   36.3710 C   0  0  0  0  0  0  0  0  0  0  0  0
   39.8900   22.7410   37.8010 C   0  0  0  0  0  0  0  0  0  0  0  0
   39.0100   23.5300   38.6880 C   0  0  0  0  0  0  0  0  0  0  0  0
   37.7350   24.0190   38.0130 C   0  0  0  0  0  0  0  0  0  0  0  0
   38.0990   24.5680   36.6460 C   0  0  0  0  0  0  0  0  0  0  0  0
   37.3030   23.7970   30.8250 S   0  0  0  0  0  0  0  0  0  0  0  0
   37.3190   25.5760   30.9940 C   0  0  0  0  0  0  0  0  0  0  0  0
   35.9250   26.1220   31.2890 C   0  0  0  0  0  0  0  0  0  0  0  0
   36.0350   27.6020   31.1720 C   0  0  0  0  0  0  0  0  0  0  0  0
   35.7410   28.4900   32.1870 C   0  0  0  0  0  0  0  0  0  0  0  0
   35.9410   29.7650   31.7710 N   0  0  0  0  0  0  0  0  0  0  0  0
   36.3630   29.6690   30.4890 C   0  0  0  0  0  0  0  0  0  0  0  0
   36.4190   28.3740   30.1340 N   0  0  0  0  0  0  0  0  0  0  0  0
   38.4715   24.5317   33.2464 H   0  0  0  0  0  0  0  0  0  0  0  0
   36.1209   20.2620   34.0175 H   0  0  0  0  0  0  0  0  0  0  0  0
   40.1500   22.1314   35.8346 H   0  0  0  0  0  0  0  0  0  0  0  0
   40.5162   23.9086   36.2519 H   0  0  0  0  0  0  0  0  0  0  0  0
   39.6179   21.6822   37.9229 H   0  0  0  0  0  0  0  0  0  0  0  0
   40.9119   23.0014   38.1140 H   0  0  0  0  0  0  0  0  0  0  0  0
   38.7290   22.9015   39.5459 H   0  0  0  0  0  0  0  0  0  0  0  0
   39.5764   24.4239   38.9883 H   0  0  0  0  0  0  0  0  0  0  0  0
   37.0289   23.1829   37.9019 H   0  0  0  0  0  0  0  0  0  0  0  0
   37.2609   24.8029   38.6219 H   0  0  0  0  0  0  0  0  0  0  0  0
   38.8786   25.3367   36.7524 H   0  0  0  0  0  0  0  0  0  0  0  0
   37.2117   25.0180   36.1768 H   0  0  0  0  0  0  0  0  0  0  0  0
   37.9925   25.8507   31.8192 H   0  0  0  0  0  0  0  0  0  0  0  0
   37.6659   26.0099   30.0446 H   0  0  0  0  0  0  0  0  0  0  0  0
   35.1992   25.7331   30.5596 H   0  0  0  0  0  0  0  0  0  0  0  0
   35.5752   25.8200   32.2872 H   0  0  0  0  0  0  0  0  0  0  0  0
   35.3938   28.2040   33.1908 H   0  0  0  0  0  0  0  0  0  0  0  0
   36.6201   30.5183   29.8389 H   0  0  0  0  0  0  0  0  0  0  0  0
   36.7106   28.0240   29.2102 H   0  0  0  0  0  0  0  0  0  0  0  0
  1  6  1  0
  1  7  1  0
  2  1  2  0
  3  4  2  0
  3  2  1  0
  4  5  1  0
  5  6  2  0
  7  8  1  0
  7 12  1  0
  8  9  1  0
  9 10  1  0
 11 10  1  0
 12 11  1  0
 13 14  1  0
 13  3  1  0
 14 15  1  0
 16 15  1  0
 16 17  2  0
 18 17  1  0
 19 18  2  0
 20 19  1  0
 20 16  1  0
  2 21  1  0
  5 22  1  0
  8 23  1  0
  8 24  1  0
  9 25  1  0
  9 26  1  0
 10 27  1  0
 10 28  1  0
 11 29  1  0
 11 30  1  0
 12 31  1  0
 12 32  1  0
 14 33  1  0
 14 34  1  0
 15 35  1  0
 15 36  1  0
 17 37  1  0
 19 38  1  0
 20 39  1  0
M  ISO  8  21  14  22  14  23  13  24  13  25  13  26  13  27  13  28  13
M  ISO  8  29  13  30  13  31  13  32  13  33   8  34   8  35   8  36   8
M  ISO  3  37  14  38  14  39   9
M  END
>  <minimizedAffinity>  (1) 
-4.79517126

>  <minimizedRMSD>  (1) 
2.27904081

$$$$
