
     RDKit          3D

 17 18  0  0  0  0  0  0  0  0999 V2000
   38.4490   24.2870   34.9840 C   0  0  0  0  0  0  0  0  0  0  0  0
   38.1590   24.9830   36.1820 C   0  0  0  0  0  0  0  0  0  0  0  0
   37.6010   24.2300   37.2300 C   0  0  0  0  0  0  0  0  0  0  0  0
   37.3740   22.9070   37.0490 N   0  0  0  0  0  0  0  0  0  0  0  0
   37.6700   22.2820   35.8740 C   0  0  0  0  0  0  0  0  0  0  0  0
   38.2020   22.9800   34.8620 N   0  0  0  0  0  0  0  0  0  0  0  0
   38.4280   26.4370   36.3280 C   0  0  0  0  0  0  0  0  0  0  0  0
   39.2030   27.1430   35.2820 C   0  0  0  0  0  0  0  0  0  0  0  0
   37.7480   27.3970   35.3980 C   0  0  0  0  0  0  0  0  0  0  0  0
   38.8869   24.8338   34.1359 H   0  0  0  0  0  0  0  0  0  0  0  0
   37.3513   24.7105   38.1875 H   0  0  0  0  0  0  0  0  0  0  0  0
   37.4723   21.2062   35.7572 H   0  0  0  0  0  0  0  0  0  0  0  0
   38.5132   26.3310   37.4196 H   0  0  0  0  0  0  0  0  0  0  0  0
   39.5943   26.5840   34.4192 H   0  0  0  0  0  0  0  0  0  0  0  0
   40.1010   27.7784   35.2818 H   0  0  0  0  0  0  0  0  0  0  0  0
   37.3857   28.3653   35.7736 H   0  0  0  0  0  0  0  0  0  0  0  0
   36.8894   27.3437   34.7124 H   0  0  0  0  0  0  0  0  0  0  0  0
  1  2  2  0
  2  7  1  0
  2  3  1  0
  4  3  2  0
  5  4  1  0
  6  1  1  0
  6  5  2  0
  8  9  1  0
  8  7  1  0
  9  7  1  0
  1 10  1  0
  3 11  1  0
  5 12  1  0
  7 13  1  0
  8 14  1  0
  8 15  1  0
  9 16  1  0
  9 17  1  0
M  ISO  8  10  14  11  14  12  14  13  13  14  13  15  13  16  13  17  13
M  END
>  <minimizedAffinity>  (1) 
-3.30653763

>  <minimizedRMSD>  (1) 
3.46539187

$$$$
