
     RDKit          3D

 31 34  0  0  1  0  0  0  0  0999 V2000
   40.1400   26.7300   34.9260 C   0  0  1  0  0  0  0  0  0  0  0  0
   41.2100   26.5510   33.9380 C   0  0  0  0  0  0  0  0  0  0  0  0
   39.9010   27.0800   33.4780 C   0  0  1  0  0  0  0  0  0  0  0  0
   38.9870   26.3010   32.7080 N   0  0  0  0  0  0  0  0  0  0  0  0
   39.0210   25.0910   32.1070 C   0  0  0  0  0  0  0  0  0  0  0  0
   37.8420   24.8370   31.4950 N   0  0  0  0  0  0  0  0  0  0  0  0
   37.0220   25.9040   31.7030 C   0  0  0  0  0  0  0  0  0  0  0  0
   35.7320   26.0990   31.2750 C   0  0  0  0  0  0  0  0  0  0  0  0
   35.0760   25.2840   30.5920 O   0  0  0  0  0  0  0  0  0  0  0  0
   35.1150   27.2560   31.6110 N   0  0  0  0  0  0  0  0  0  0  0  0
   35.8080   28.1450   32.3460 C   0  0  0  0  0  0  0  0  0  0  0  0
   35.2280   29.3980   32.7460 N   0  0  0  0  0  0  0  0  0  0  0  0
   37.0710   27.9300   32.7530 N   0  0  0  0  0  0  0  0  0  0  0  0
   37.7480   26.8020   32.4560 C   0  0  0  0  0  0  0  0  0  0  0  0
   40.0140   24.2480   35.4640 C   0  0  0  0  0  0  0  0  0  0  0  0
   39.4330   25.5490   35.4920 C   0  0  0  0  0  0  0  0  0  0  0  0
   38.1680   25.6680   36.0710 C   0  0  0  0  0  0  0  0  0  0  0  0
   37.5550   24.5630   36.5750 N   0  0  0  0  0  0  0  0  0  0  0  0
   38.1490   23.3320   36.5260 C   0  0  0  0  0  0  0  0  0  0  0  0
   39.3710   23.1930   35.9720 N   0  0  0  0  0  0  0  0  0  0  0  0
   40.0664   27.2557   35.8894 H   0  0  0  0  0  0  0  0  0  0  0  0
   42.0889   27.2121   33.9593 H   0  0  0  0  0  0  0  0  0  0  0  0
   41.8461   25.7053   33.6379 H   0  0  0  0  0  0  0  0  0  0  0  0
   39.5888   27.9670   32.9073 H   0  0  0  0  0  0  0  0  0  0  0  0
   39.8846   24.4097   32.1145 H   0  0  0  0  0  0  0  0  0  0  0  0
   34.1478   27.4494   31.3141 H   0  0  0  0  0  0  0  0  0  0  0  0
   35.7772   30.0634   33.3086 H   0  0  0  0  0  0  0  0  0  0  0  0
   34.2633   29.6304   32.4700 H   0  0  0  0  0  0  0  0  0  0  0  0
   41.0093   24.1101   35.0163 H   0  0  0  0  0  0  0  0  0  0  0  0
   37.6707   26.6480   36.1193 H   0  0  0  0  0  0  0  0  0  0  0  0
   37.6297   22.4545   36.9387 H   0  0  0  0  0  0  0  0  0  0  0  0
  1 16  1  0
  2  1  1  0
  3  2  1  0
  3  1  1  0
  4  3  1  0
  5  4  1  0
  6  7  1  0
  6  5  2  0
  7 14  2  0
  8 10  1  0
  8  7  1  0
  9  8  2  0
 10 11  1  0
 11 12  1  0
 11 13  2  0
 14  4  1  0
 14 13  1  0
 15 16  2  0
 15 20  1  0
 16 17  1  0
 17 18  2  0
 19 18  1  0
 20 19  2  0
  1 21  1  1
  2 22  1  0
  2 23  1  0
  3 24  1  1
  5 25  1  0
 10 26  1  0
 12 27  1  0
 12 28  1  0
 15 29  1  0
 17 30  1  0
 19 31  1  0
M  ISO  8  21  13  22  13  23  13  24  13  25  14  26   9  29  14  30  14
M  ISO  1  31  14
M  END
>  <minimizedAffinity>  (1) 
-4.67421579

>  <minimizedRMSD>  (1) 
2.65442038

$$$$
