
     RDKit          3D

 24 26  0  0  1  0  0  0  0  0999 V2000
   38.8450   26.4420   35.0330 C   0  0  1  0  0  0  0  0  0  0  0  0
   38.3320   27.0460   36.2670 C   0  0  0  0  0  0  0  0  0  0  0  0
   37.8160   25.7060   35.8620 C   0  0  2  0  0  0  0  0  0  0  0  0
   37.2250   27.6320   33.5200 C   0  0  0  0  0  0  0  0  0  0  0  0
   38.4490   26.9690   33.7140 C   0  0  0  0  0  0  0  0  0  0  0  0
   39.2580   26.8440   32.5850 C   0  0  0  0  0  0  0  0  0  0  0  0
   38.8420   27.3470   31.4000 N   0  0  0  0  0  0  0  0  0  0  0  0
   37.6320   27.9870   31.2680 C   0  0  0  0  0  0  0  0  0  0  0  0
   36.8250   28.1250   32.3430 N   0  0  0  0  0  0  0  0  0  0  0  0
   38.2430   24.5830   36.7370 C   0  0  0  0  0  0  0  0  0  0  0  0
   38.0650   24.5320   38.1230 C   0  0  0  0  0  0  0  0  0  0  0  0
   38.6150   23.3160   38.4740 C   0  0  0  0  0  0  0  0  0  0  0  0
   39.0970   22.6650   37.3790 N   0  0  0  0  0  0  0  0  0  0  0  0
   38.8560   23.4590   36.3470 N   0  0  0  0  0  0  0  0  0  0  0  0
   39.8522   26.2228   34.6491 H   0  0  0  0  0  0  0  0  0  0  0  0
   38.9887   27.1355   37.1449 H   0  0  0  0  0  0  0  0  0  0  0  0
   37.8610   28.0090   36.5137 H   0  0  0  0  0  0  0  0  0  0  0  0
   36.8460   25.2413   35.6315 H   0  0  0  0  0  0  0  0  0  0  0  0
   36.5577   27.7523   34.3861 H   0  0  0  0  0  0  0  0  0  0  0  0
   40.2319   26.3377   32.6578 H   0  0  0  0  0  0  0  0  0  0  0  0
   37.3221   28.3853   30.2906 H   0  0  0  0  0  0  0  0  0  0  0  0
   37.5978   25.2825   38.7776 H   0  0  0  0  0  0  0  0  0  0  0  0
   38.6584   22.9247   39.5011 H   0  0  0  0  0  0  0  0  0  0  0  0
   39.5555   21.7429   37.3579 H   0  0  0  0  0  0  0  0  0  0  0  0
  1  3  1  0
  1  2  1  0
  3  2  1  0
  3 10  1  0
  4  5  2  0
  5  1  1  0
  6  5  1  0
  7  6  2  0
  8  7  1  0
  8  9  2  0
  9  4  1  0
 10 11  1  0
 11 12  2  0
 13 12  1  0
 14 10  2  0
 14 13  1  0
  1 15  1  1
  2 16  1  0
  2 17  1  0
  3 18  1  6
  4 19  1  0
  6 20  1  0
  8 21  1  0
 11 22  1  0
 12 23  1  0
 13 24  1  0
M  ISO  8  15  13  16  13  17  13  18  13  19  14  20  14  21  14  22  14
M  ISO  2  23  14  24   9
M  END
>  <minimizedAffinity>  (1) 
-4.44755602

>  <minimizedRMSD>  (1) 
5.5122776

$$$$
