
     RDKit          3D

 24 26  0  0  1  0  0  0  0  0999 V2000
   38.3870   26.4130   36.2750 C   0  0  1  0  0  0  0  0  0  0  0  0
   39.2530   27.2620   35.4480 C   0  0  0  0  0  0  0  0  0  0  0  0
   37.8220   27.2210   35.1350 C   0  0  1  0  0  0  0  0  0  0  0  0
   39.5240   24.3060   35.5890 C   0  0  0  0  0  0  0  0  0  0  0  0
   38.4330   24.9440   36.1880 C   0  0  0  0  0  0  0  0  0  0  0  0
   37.4310   24.1080   36.6760 C   0  0  0  0  0  0  0  0  0  0  0  0
   37.5740   22.7640   36.5430 N   0  0  0  0  0  0  0  0  0  0  0  0
   38.6520   22.1930   35.9530 C   0  0  0  0  0  0  0  0  0  0  0  0
   39.6350   22.9680   35.4720 N   0  0  0  0  0  0  0  0  0  0  0  0
   37.3310   26.5690   33.9210 C   0  0  0  0  0  0  0  0  0  0  0  0
   37.2140   25.3960   33.2140 C   0  0  0  0  0  0  0  0  0  0  0  0
   36.5710   25.3690   32.0320 C   0  0  0  0  0  0  0  0  0  0  0  0
   36.0080   26.4870   31.4760 C   0  0  0  0  0  0  0  0  0  0  0  0
   36.4180   27.7780   32.7650 S   0  0  0  0  0  0  0  0  0  0  0  0
   38.1942   26.3217   37.3541 H   0  0  0  0  0  0  0  0  0  0  0  0
   39.6909   28.1753   35.8771 H   0  0  0  0  0  0  0  0  0  0  0  0
   40.1704   27.0862   34.8671 H   0  0  0  0  0  0  0  0  0  0  0  0
   37.0241   27.9702   35.0250 H   0  0  0  0  0  0  0  0  0  0  0  0
   40.3369   24.9313   35.1912 H   0  0  0  0  0  0  0  0  0  0  0  0
   36.5384   24.5297   37.1612 H   0  0  0  0  0  0  0  0  0  0  0  0
   38.7205   21.0984   35.8690 H   0  0  0  0  0  0  0  0  0  0  0  0
   37.6501   24.4705   33.6182 H   0  0  0  0  0  0  0  0  0  0  0  0
   36.4948   24.4135   31.4924 H   0  0  0  0  0  0  0  0  0  0  0  0
   35.4620   26.5960   30.5273 H   0  0  0  0  0  0  0  0  0  0  0  0
  2  1  1  0
  3  2  1  0
  3  1  1  0
  4  5  2  0
  5  1  1  0
  5  6  1  0
  7  6  2  0
  8  7  1  0
  9  4  1  0
  9  8  2  0
 10  3  1  0
 11 10  2  0
 12 11  1  0
 13 12  2  0
 13 14  1  0
 14 10  1  0
  1 15  1  1
  2 16  1  0
  2 17  1  0
  3 18  1  1
  4 19  1  0
  6 20  1  0
  8 21  1  0
 11 22  1  0
 12 23  1  0
 13 24  1  0
M  ISO  8  15  13  16  13  17  13  18  13  19  14  20  14  21  14  22  14
M  ISO  2  23  14  24  14
M  END
>  <minimizedAffinity>  (1) 
-4.0772419

>  <minimizedRMSD>  (1) 
1.14263129

$$$$
