
     RDKit          3D

 24 26  0  0  1  0  0  0  0  0999 V2000
   38.0950   26.0240   36.1160 C   0  0  1  0  0  0  0  0  0  0  0  0
   38.7670   27.2640   35.7310 C   0  0  0  0  0  0  0  0  0  0  0  0
   37.5440   26.8430   34.9830 C   0  0  1  0  0  0  0  0  0  0  0  0
   40.0450   24.6040   35.3600 C   0  0  0  0  0  0  0  0  0  0  0  0
   38.7010   24.7150   35.8230 C   0  0  0  0  0  0  0  0  0  0  0  0
   37.9870   23.5140   35.9850 C   0  0  0  0  0  0  0  0  0  0  0  0
   38.5930   22.3400   35.7020 N   0  0  0  0  0  0  0  0  0  0  0  0
   39.8910   22.2770   35.2570 C   0  0  0  0  0  0  0  0  0  0  0  0
   40.5840   23.4150   35.0970 N   0  0  0  0  0  0  0  0  0  0  0  0
   37.6730   26.3950   33.6130 N   0  0  0  0  0  0  0  0  0  0  0  0
   36.9010   25.5020   32.9730 N   0  0  0  0  0  0  0  0  0  0  0  0
   37.3180   25.3370   31.7170 C   0  0  0  0  0  0  0  0  0  0  0  0
   38.4270   26.1640   31.5100 C   0  0  0  0  0  0  0  0  0  0  0  0
   38.6110   26.8060   32.7210 C   0  0  0  0  0  0  0  0  0  0  0  0
   37.7013   25.6309   37.0649 H   0  0  0  0  0  0  0  0  0  0  0  0
   38.7265   28.1379   36.3979 H   0  0  0  0  0  0  0  0  0  0  0  0
   39.7955   27.5264   35.4424 H   0  0  0  0  0  0  0  0  0  0  0  0
   36.5642   27.2834   34.7463 H   0  0  0  0  0  0  0  0  0  0  0  0
   40.6458   25.5144   35.2179 H   0  0  0  0  0  0  0  0  0  0  0  0
   36.9455   23.5304   36.3386 H   0  0  0  0  0  0  0  0  0  0  0  0
   40.3567   21.3056   35.0345 H   0  0  0  0  0  0  0  0  0  0  0  0
   36.8671   24.6655   30.9715 H   0  0  0  0  0  0  0  0  0  0  0  0
   39.0197   26.2781   30.5904 H   0  0  0  0  0  0  0  0  0  0  0  0
   39.4013   27.5417   32.9310 H   0  0  0  0  0  0  0  0  0  0  0  0
  2  1  1  0
  3  2  1  0
  3  1  1  0
  4  5  2  0
  5  6  1  0
  5  1  1  0
  7  6  2  0
  8  7  1  0
  9  8  2  0
  9  4  1  0
 10  3  1  0
 11 10  1  0
 12 11  2  0
 13 12  1  0
 13 14  2  0
 14 10  1  0
  1 15  1  1
  2 16  1  0
  2 17  1  0
  3 18  1  1
  4 19  1  0
  6 20  1  0
  8 21  1  0
 12 22  1  0
 13 23  1  0
 14 24  1  0
M  ISO  8  15  13  16  13  17  13  18  13  19  14  20  14  21  14  22  14
M  ISO  2  23  14  24  14
M  END
>  <minimizedAffinity>  (1) 
-3.60184479

>  <minimizedRMSD>  (1) 
1.9092828

$$$$
