
     RDKit          3D

 32 34  0  0  1  0  0  0  0  0999 V2000
   39.4670   26.2510   35.6830 C   0  0  1  0  0  0  0  0  0  0  0  0
   40.1760   26.7220   34.5180 C   0  0  0  0  0  0  0  0  0  0  0  0
   38.8300   27.2470   34.7030 C   0  0  1  0  0  0  0  0  0  0  0  0
   39.3560   23.8720   35.0130 C   0  0  0  0  0  0  0  0  0  0  0  0
   38.8910   24.9150   35.8050 C   0  0  0  0  0  0  0  0  0  0  0  0
   37.8750   24.6350   36.7140 C   0  0  0  0  0  0  0  0  0  0  0  0
   37.3930   23.3570   36.7770 N   0  0  0  0  0  0  0  0  0  0  0  0
   37.8770   22.3540   35.9790 C   0  0  0  0  0  0  0  0  0  0  0  0
   38.8700   22.6260   35.0890 N   0  0  0  0  0  0  0  0  0  0  0  0
   37.6640   26.8770   33.8970 C   0  0  0  0  0  0  0  0  0  0  0  0
   37.1490   25.8420   33.3670 O   0  0  0  0  0  0  0  0  0  0  0  0
   34.9150   30.0640   32.9170 C   0  0  0  0  0  0  0  0  0  0  0  0
   35.5260   29.3700   31.9070 C   0  0  0  0  0  0  0  0  0  0  0  0
   36.4120   28.3490   32.2540 C   0  0  0  0  0  0  0  0  0  0  0  0
   36.7250   27.9780   33.5280 C   0  0  0  0  0  0  0  0  0  0  0  0
   36.0720   28.7190   34.4910 C   0  0  0  0  0  0  0  0  0  0  0  0
   35.1870   29.7380   34.2190 C   0  0  0  0  0  0  0  0  0  0  0  0
   33.8060   31.3400   32.4820 S   0  0  0  0  0  0  0  0  0  0  0  0
   32.7230   31.3490   33.5120 O   0  0  0  0  0  0  0  0  0  0  0  0
   33.1950   31.0610   31.1280 O   0  0  0  0  0  0  0  0  0  0  0  0
   39.7168   26.2039   36.7532 H   0  0  0  0  0  0  0  0  0  0  0  0
   40.3735   26.0258   33.6896 H   0  0  0  0  0  0  0  0  0  0  0  0
   41.1574   27.1976   34.3740 H   0  0  0  0  0  0  0  0  0  0  0  0
   38.3953   28.2570   34.7342 H   0  0  0  0  0  0  0  0  0  0  0  0
   40.1596   24.0790   34.2909 H   0  0  0  0  0  0  0  0  0  0  0  0
   37.4696   25.4227   37.3660 H   0  0  0  0  0  0  0  0  0  0  0  0
   37.4661   21.3366   36.0571 H   0  0  0  0  0  0  0  0  0  0  0  0
   35.3243   29.6103   30.8527 H   0  0  0  0  0  0  0  0  0  0  0  0
   36.8967   27.7994   31.4336 H   0  0  0  0  0  0  0  0  0  0  0  0
   36.2716   28.4799   35.5460 H   0  0  0  0  0  0  0  0  0  0  0  0
   34.7024   30.2857   35.0407 H   0  0  0  0  0  0  0  0  0  0  0  0
   34.4589   32.5431   32.4258 H   0  0  0  0  0  0  0  0  0  0  0  0
  1  5  1  0
  2  3  1  0
  2  1  1  0
  3  1  1  0
  4  9  2  0
  4  5  1  0
  5  6  2  0
  6  7  1  0
  8  7  2  0
  9  8  1  0
 10  3  1  0
 11 10  2  0
 12 17  2  0
 13 14  2  0
 13 12  1  0
 14 15  1  0
 15 10  1  0
 15 16  2  0
 17 16  1  0
 18 12  1  0
 18 19  2  0
 20 18  2  0
  1 21  1  1
  2 22  1  0
  2 23  1  0
  3 24  1  1
  4 25  1  0
  6 26  1  0
  8 27  1  0
 13 28  1  0
 14 29  1  0
 16 30  1  0
 17 31  1  0
 18 32  1  0
M  ISO  8  21  13  22  13  23  13  24  13  25  14  26  14  27  14  28  14
M  ISO  4  29  14  30  14  31  14  32  11
M  END
>  <minimizedAffinity>  (1) 
-4.67505264

>  <minimizedRMSD>  (1) 
3.21092057

$$$$
