
     RDKit          3D

 28 30  0  0  1  0  0  0  0  0999 V2000
   38.2600   26.3250   36.3670 C   0  0  1  0  0  0  0  0  0  0  0  0
   39.0170   27.3300   35.6620 C   0  0  0  0  0  0  0  0  0  0  0  0
   37.6480   27.1360   35.2150 C   0  0  1  0  0  0  0  0  0  0  0  0
   39.5950   24.4020   35.5830 C   0  0  0  0  0  0  0  0  0  0  0  0
   38.4460   24.8870   36.1920 C   0  0  0  0  0  0  0  0  0  0  0  0
   37.4980   23.9660   36.6370 C   0  0  0  0  0  0  0  0  0  0  0  0
   37.7430   22.6350   36.4560 N   0  0  0  0  0  0  0  0  0  0  0  0
   38.9040   22.1930   35.8430 C   0  0  0  0  0  0  0  0  0  0  0  0
   39.8290   23.0900   35.4080 N   0  0  0  0  0  0  0  0  0  0  0  0
   37.2630   26.5000   33.9530 C   0  0  0  0  0  0  0  0  0  0  0  0
   37.1330   25.3370   33.4500 O   0  0  0  0  0  0  0  0  0  0  0  0
   36.8880   27.4560   32.8550 C   0  0  0  0  0  0  0  0  0  0  0  0
   36.2870   28.6660   32.9640 C   0  0  0  0  0  0  0  0  0  0  0  0
   35.9550   29.5200   31.9590 C   0  0  0  0  0  0  0  0  0  0  0  0
   36.2550   29.1270   30.6840 C   0  0  0  0  0  0  0  0  0  0  0  0
   36.8580   27.9200   30.5150 C   0  0  0  0  0  0  0  0  0  0  0  0
   37.1560   27.1300   31.5540 N   0  0  0  0  0  0  0  0  0  0  0  0
   38.0610   26.1366   37.4323 H   0  0  0  0  0  0  0  0  0  0  0  0
   39.2873   28.2622   36.1797 H   0  0  0  0  0  0  0  0  0  0  0  0
   39.9873   27.3164   35.1441 H   0  0  0  0  0  0  0  0  0  0  0  0
   36.7849   27.7997   35.0580 H   0  0  0  0  0  0  0  0  0  0  0  0
   40.3467   25.1225   35.2282 H   0  0  0  0  0  0  0  0  0  0  0  0
   36.5717   24.3050   37.1239 H   0  0  0  0  0  0  0  0  0  0  0  0
   39.0779   21.1153   35.7079 H   0  0  0  0  0  0  0  0  0  0  0  0
   36.0390   28.9955   33.9838 H   0  0  0  0  0  0  0  0  0  0  0  0
   35.4667   30.4844   32.1627 H   0  0  0  0  0  0  0  0  0  0  0  0
   36.0160   29.7673   29.8221 H   0  0  0  0  0  0  0  0  0  0  0  0
   37.1075   27.5838   29.4978 H   0  0  0  0  0  0  0  0  0  0  0  0
  2  1  1  0
  3  2  1  0
  3  1  1  0
  4  5  2  0
  5  1  1  0
  5  6  1  0
  7  6  2  0
  8  7  1  0
  9  4  1  0
  9  8  2  0
 10  3  1  0
 11 10  2  0
 12 13  2  0
 12 10  1  0
 14 13  1  0
 15 14  2  0
 16 15  1  0
 16 17  2  0
 17 12  1  0
  1 18  1  1
  2 19  1  0
  2 20  1  0
  3 21  1  1
  4 22  1  0
  6 23  1  0
  8 24  1  0
 13 25  1  0
 14 26  1  0
 15 27  1  0
 16 28  1  0
M  ISO  8  18  13  19  13  20  13  21  13  22  14  23  14  24  14  25  14
M  ISO  3  26  14  27  14  28  14
M  END
>  <minimizedAffinity>  (1) 
-4.6360836

>  <minimizedRMSD>  (1) 
2.89623857

$$$$
