
     RDKit          3D

 24 26  0  0  1  0  0  0  0  0999 V2000
   38.2320   26.3620   36.2040 C   0  0  1  0  0  0  0  0  0  0  0  0
   38.9500   27.3400   35.4220 C   0  0  0  0  0  0  0  0  0  0  0  0
   37.5970   27.0430   34.9860 C   0  0  1  0  0  0  0  0  0  0  0  0
   39.6760   24.4450   35.6080 C   0  0  0  0  0  0  0  0  0  0  0  0
   38.4900   24.9260   36.1480 C   0  0  0  0  0  0  0  0  0  0  0  0
   37.5680   24.0000   36.6480 C   0  0  0  0  0  0  0  0  0  0  0  0
   37.8750   22.6760   36.5840 N   0  0  0  0  0  0  0  0  0  0  0  0
   39.0700   22.2350   36.0390 C   0  0  0  0  0  0  0  0  0  0  0  0
   39.9660   23.1350   35.5520 N   0  0  0  0  0  0  0  0  0  0  0  0
   37.2650   26.2910   33.7740 C   0  0  0  0  0  0  0  0  0  0  0  0
   37.2040   25.0980   33.3410 O   0  0  0  0  0  0  0  0  0  0  0  0
   36.8420   27.0860   32.5750 C   0  0  0  0  0  0  0  0  0  0  0  0
   36.5690   26.7310   31.3080 N   0  0  0  0  0  0  0  0  0  0  0  0
   36.2340   27.7850   30.5990 O   0  0  0  0  0  0  0  0  0  0  0  0
   36.2730   28.8560   31.3510 C   0  0  0  0  0  0  0  0  0  0  0  0
   36.6470   28.4150   32.5610 N   0  0  0  0  0  0  0  0  0  0  0  0
   38.0286   26.2538   37.2796 H   0  0  0  0  0  0  0  0  0  0  0  0
   39.1708   28.3241   35.8610 H   0  0  0  0  0  0  0  0  0  0  0  0
   39.9253   27.3300   34.9134 H   0  0  0  0  0  0  0  0  0  0  0  0
   36.7018   27.6455   34.7724 H   0  0  0  0  0  0  0  0  0  0  0  0
   40.4062   25.1654   35.2107 H   0  0  0  0  0  0  0  0  0  0  0  0
   36.6152   24.3352   37.0836 H   0  0  0  0  0  0  0  0  0  0  0  0
   39.2938   21.1587   36.0002 H   0  0  0  0  0  0  0  0  0  0  0  0
   36.0481   29.8913   31.0550 H   0  0  0  0  0  0  0  0  0  0  0  0
  2  1  1  0
  3  2  1  0
  3  1  1  0
  4  5  2  0
  5  1  1  0
  5  6  1  0
  7  6  2  0
  8  7  1  0
  9  4  1  0
  9  8  2  0
 10  3  1  0
 11 10  2  0
 12 10  1  0
 13 12  2  0
 14 13  1  0
 14 15  1  0
 15 16  2  0
 16 12  1  0
  1 17  1  1
  2 18  1  0
  2 19  1  0
  3 20  1  1
  4 21  1  0
  6 22  1  0
  8 23  1  0
 15 24  1  0
M  ISO  8  17  13  18  13  19  13  20  13  21  14  22  14  23  14  24  14
M  END
>  <minimizedAffinity>  (1) 
-4.25745249

>  <minimizedRMSD>  (1) 
2.58561516

$$$$
