
     RDKit          3D

 26 28  0  0  1  0  0  0  0  0999 V2000
   38.2900   26.3630   36.2840 C   0  0  1  0  0  0  0  0  0  0  0  0
   39.0190   27.3250   35.4930 C   0  0  0  0  0  0  0  0  0  0  0  0
   37.6340   27.1070   35.1160 C   0  0  1  0  0  0  0  0  0  0  0  0
   39.6170   24.3950   35.5950 C   0  0  0  0  0  0  0  0  0  0  0  0
   38.4690   24.9170   36.1800 C   0  0  0  0  0  0  0  0  0  0  0  0
   37.5100   24.0260   36.6770 C   0  0  0  0  0  0  0  0  0  0  0  0
   37.7490   22.6890   36.5680 N   0  0  0  0  0  0  0  0  0  0  0  0
   38.9070   22.2070   35.9810 C   0  0  0  0  0  0  0  0  0  0  0  0
   39.8400   23.0730   35.4940 N   0  0  0  0  0  0  0  0  0  0  0  0
   37.2340   26.4170   33.8930 C   0  0  0  0  0  0  0  0  0  0  0  0
   37.1990   25.3070   33.3110 O   0  0  0  0  0  0  0  0  0  0  0  0
   36.5890   27.1540   32.7540 C   0  0  0  0  0  0  0  0  0  0  0  0
   36.3570   28.6000   32.8260 C   0  0  0  0  0  0  0  0  0  0  0  0
   37.4300   28.1190   31.9360 C   0  0  0  0  0  0  0  0  0  0  0  0
   38.1338   26.2360   37.3654 H   0  0  0  0  0  0  0  0  0  0  0  0
   39.3097   28.2847   35.9451 H   0  0  0  0  0  0  0  0  0  0  0  0
   39.9675   27.2808   34.9377 H   0  0  0  0  0  0  0  0  0  0  0  0
   36.7531   27.7493   34.9695 H   0  0  0  0  0  0  0  0  0  0  0  0
   40.3720   25.0904   35.1995 H   0  0  0  0  0  0  0  0  0  0  0  0
   36.5857   24.3966   37.1443 H   0  0  0  0  0  0  0  0  0  0  0  0
   39.0743   21.1223   35.9076 H   0  0  0  0  0  0  0  0  0  0  0  0
   35.9524   26.2812   32.5465 H   0  0  0  0  0  0  0  0  0  0  0  0
   35.4405   29.0260   32.3919 H   0  0  0  0  0  0  0  0  0  0  0  0
   36.3156   29.3277   33.6498 H   0  0  0  0  0  0  0  0  0  0  0  0
   38.4846   28.2922   32.1963 H   0  0  0  0  0  0  0  0  0  0  0  0
   37.6791   28.2361   30.8710 H   0  0  0  0  0  0  0  0  0  0  0  0
  2  1  1  0
  3  2  1  0
  3  1  1  0
  4  5  2  0
  5  1  1  0
  5  6  1  0
  7  6  2  0
  8  7  1  0
  9  4  1  0
  9  8  2  0
 10  3  1  0
 11 10  2  0
 12 13  1  0
 12 10  1  0
 14 12  1  0
 14 13  1  0
  1 15  1  1
  2 16  1  0
  2 17  1  0
  3 18  1  1
  4 19  1  0
  6 20  1  0
  8 21  1  0
 12 22  1  0
 13 23  1  0
 13 24  1  0
 14 25  1  0
 14 26  1  0
M  ISO  8  15  13  16  13  17  13  18  13  19  14  20  14  21  14  22  13
M  ISO  4  23  13  24  13  25  13  26  13
M  END
>  <minimizedAffinity>  (1) 
-4.02441978

>  <minimizedRMSD>  (1) 
1.71009481

$$$$
