
     RDKit          3D

 34 36  0  0  1  0  0  0  0  0999 V2000
   38.2690   26.3790   36.3090 C   0  0  1  0  0  0  0  0  0  0  0  0
   39.0560   27.3170   35.5640 C   0  0  0  0  0  0  0  0  0  0  0  0
   37.6340   27.1380   35.1610 C   0  0  1  0  0  0  0  0  0  0  0  0
   39.5950   24.4040   35.5990 C   0  0  0  0  0  0  0  0  0  0  0  0
   38.4430   24.9270   36.1980 C   0  0  0  0  0  0  0  0  0  0  0  0
   37.5220   24.0060   36.6610 C   0  0  0  0  0  0  0  0  0  0  0  0
   37.7750   22.6740   36.5150 N   0  0  0  0  0  0  0  0  0  0  0  0
   38.9100   22.2110   35.9270 C   0  0  0  0  0  0  0  0  0  0  0  0
   39.8270   23.0860   35.4640 N   0  0  0  0  0  0  0  0  0  0  0  0
   37.2450   26.4620   33.9000 C   0  0  0  0  0  0  0  0  0  0  0  0
   37.1920   25.2420   33.4820 O   0  0  0  0  0  0  0  0  0  0  0  0
   36.8030   27.4000   32.7970 C   0  0  0  0  0  0  0  0  0  0  0  0
   36.0550   28.4510   33.2460 C   0  0  0  0  0  0  0  0  0  0  0  0
   35.7450   29.3930   31.5980 S   0  0  0  0  0  0  0  0  0  0  0  0
   36.7310   28.1030   30.6620 C   0  0  0  0  0  0  0  0  0  0  0  0
   37.0540   27.3600   31.5230 N   0  0  0  0  0  0  0  0  0  0  0  0
   36.8790   28.2690   29.2430 N   0  0  0  0  0  0  0  0  0  0  0  0
   38.1430   28.7100   28.7700 C   0  0  0  0  0  0  0  0  0  0  0  0
   39.1860   28.3550   29.4310 N   0  0  0  0  0  0  0  0  0  0  0  0
   38.2440   29.5140   27.6050 N   0  0  0  0  0  0  0  0  0  0  0  0
   39.2310   27.7830   30.2750 H   0  0  0  0  0  0  0  0  0  0  0  0
   38.0715   26.2479   37.3831 H   0  0  0  0  0  0  0  0  0  0  0  0
   39.3718   28.2581   36.0378 H   0  0  0  0  0  0  0  0  0  0  0  0
   40.0147   27.2533   35.0285 H   0  0  0  0  0  0  0  0  0  0  0  0
   36.7621   27.7940   35.0217 H   0  0  0  0  0  0  0  0  0  0  0  0
   40.3501   25.1077   35.2188 H   0  0  0  0  0  0  0  0  0  0  0  0
   36.5930   24.3447   37.1430 H   0  0  0  0  0  0  0  0  0  0  0  0
   39.0799   21.1286   35.8292 H   0  0  0  0  0  0  0  0  0  0  0  0
   36.2092   26.3830   34.2619 H   0  0  0  0  0  0  0  0  0  0  0  0
   37.1653   24.6281   34.2582 H   0  0  0  0  0  0  0  0  0  0  0  0
   35.7224   28.6917   34.2665 H   0  0  0  0  0  0  0  0  0  0  0  0
   36.1011   28.0763   28.5960 H   0  0  0  0  0  0  0  0  0  0  0  0
   39.1677   29.8266   27.2735 H   0  0  0  0  0  0  0  0  0  0  0  0
   37.3936   29.7849   27.0909 H   0  0  0  0  0  0  0  0  0  0  0  0
  2  1  1  0
  3  2  1  0
  3  1  1  0
  4  5  2  0
  5  1  1  0
  5  6  1  0
  7  6  2  0
  8  7  1  0
  9  4  1  0
  9  8  2  0
 10 11  1  0
 10  3  1  0
 12 13  2  0
 12 10  1  0
 14 13  1  0
 15 16  2  0
 15 14  1  0
 16 12  1  0
 17 15  1  0
 18 17  1  0
 18 19  2  0
 19 21  1  0
 20 18  1  0
  1 22  1  1
  2 23  1  0
  2 24  1  0
  3 25  1  1
  4 26  1  0
  6 27  1  0
  8 28  1  0
 10 29  1  0
 11 30  1  0
 13 31  1  0
 17 32  1  0
 20 33  1  0
 20 34  1  0
M  ISO  8  22  13  23  13  24  13  25  13  26  14  27  14  28  14  29   8
M  ISO  2  30   3  31  14
M  END
>  <minimizedAffinity>  (1) 
-5.52455187

>  <minimizedRMSD>  (1) 
0.298848897

$$$$
