
     RDKit          3D

 40 43  0  0  1  0  0  0  0  0999 V2000
   38.2970   26.3550   36.3550 C   0  0  1  0  0  0  0  0  0  0  0  0
   39.1020   27.3160   35.6600 C   0  0  0  0  0  0  0  0  0  0  0  0
   37.6700   27.2050   35.2670 C   0  0  1  0  0  0  0  0  0  0  0  0
   39.5500   24.3950   35.4800 C   0  0  0  0  0  0  0  0  0  0  0  0
   38.4290   24.9080   36.1450 C   0  0  0  0  0  0  0  0  0  0  0  0
   37.4960   23.9860   36.5770 C   0  0  0  0  0  0  0  0  0  0  0  0
   37.7060   22.6590   36.3440 N   0  0  0  0  0  0  0  0  0  0  0  0
   38.8090   22.2030   35.6950 C   0  0  0  0  0  0  0  0  0  0  0  0
   39.7380   23.0820   35.2610 N   0  0  0  0  0  0  0  0  0  0  0  0
   37.2420   26.6230   33.9730 C   0  0  0  0  0  0  0  0  0  0  0  0
   37.1290   25.4340   33.4840 O   0  0  0  0  0  0  0  0  0  0  0  0
   36.8390   27.6460   32.9390 C   0  0  0  0  0  0  0  0  0  0  0  0
   36.0200   28.6240   33.4170 C   0  0  0  0  0  0  0  0  0  0  0  0
   35.7970   29.7080   31.8410 S   0  0  0  0  0  0  0  0  0  0  0  0
   36.9030   28.5440   30.8670 C   0  0  0  0  0  0  0  0  0  0  0  0
   37.1880   27.7360   31.6810 N   0  0  0  0  0  0  0  0  0  0  0  0
   37.3220   28.6130   29.4390 C   0  0  0  0  0  0  0  0  0  0  0  0
   37.4290   30.0050   28.9060 C   0  0  0  0  0  0  0  0  0  0  0  0
   38.8510   30.3840   29.1810 C   0  0  0  0  0  0  0  0  0  0  0  0
   39.6540   29.1350   28.9900 C   0  0  0  0  0  0  0  0  0  0  0  0
   38.7270   28.0190   29.3520 C   0  0  0  0  0  0  0  0  0  0  0  0
   38.1084   26.1606   37.4211 H   0  0  0  0  0  0  0  0  0  0  0  0
   39.4519   28.2150   36.1885 H   0  0  0  0  0  0  0  0  0  0  0  0
   40.0514   27.2590   35.1074 H   0  0  0  0  0  0  0  0  0  0  0  0
   36.8173   27.8947   35.1820 H   0  0  0  0  0  0  0  0  0  0  0  0
   40.3132   25.1004   35.1196 H   0  0  0  0  0  0  0  0  0  0  0  0
   36.5905   24.3195   37.1050 H   0  0  0  0  0  0  0  0  0  0  0  0
   38.9445   21.1248   35.5241 H   0  0  0  0  0  0  0  0  0  0  0  0
   36.2060   26.5709   34.3391 H   0  0  0  0  0  0  0  0  0  0  0  0
   37.0666   24.7779   34.2228 H   0  0  0  0  0  0  0  0  0  0  0  0
   35.6014   28.7577   34.4254 H   0  0  0  0  0  0  0  0  0  0  0  0
   36.5589   28.0794   28.8533 H   0  0  0  0  0  0  0  0  0  0  0  0
   36.7354   30.6795   29.4294 H   0  0  0  0  0  0  0  0  0  0  0  0
   37.1690   30.0734   27.8393 H   0  0  0  0  0  0  0  0  0  0  0  0
   39.1820   31.1627   28.4781 H   0  0  0  0  0  0  0  0  0  0  0  0
   38.9712   30.7896   30.1964 H   0  0  0  0  0  0  0  0  0  0  0  0
   39.9810   29.0419   27.9439 H   0  0  0  0  0  0  0  0  0  0  0  0
   40.5650   29.1315   29.6065 H   0  0  0  0  0  0  0  0  0  0  0  0
   38.7587   27.2364   28.5796 H   0  0  0  0  0  0  0  0  0  0  0  0
   39.0190   27.5620   30.3090 H   0  0  0  0  0  0  0  0  0  0  0  0
  2  1  1  0
  3  2  1  0
  3  1  1  0
  4  5  2  0
  5  1  1  0
  5  6  1  0
  7  6  2  0
  8  7  1  0
  9  4  1  0
  9  8  2  0
 10 11  1  0
 10  3  1  0
 12 13  2  0
 12 10  1  0
 14 13  1  0
 15 16  2  0
 15 14  1  0
 16 12  1  0
 17 15  1  0
 18 19  1  0
 18 17  1  0
 20 19  1  0
 20 21  1  0
 21 17  1  0
  1 22  1  1
  2 23  1  0
  2 24  1  0
  3 25  1  1
  4 26  1  0
  6 27  1  0
  8 28  1  0
 10 29  1  0
 11 30  1  0
 13 31  1  0
 17 32  1  0
 18 33  1  0
 18 34  1  0
 19 35  1  0
 19 36  1  0
 20 37  1  0
 20 38  1  0
 21 39  1  0
 21 40  1  0
M  ISO  8  22  13  23  13  24  13  25  13  26  14  27  14  28  14  29   8
M  ISO  8  30   3  31  14  32  13  33  13  34  13  35  13  36  13  37  13
M  ISO  3  38  13  39  13  40  13
M  END
>  <minimizedAffinity>  (1) 
-4.96139526

>  <minimizedRMSD>  (1) 
0.625485897

$$$$
