
     RDKit          3D

 30 32  0  0  1  0  0  0  0  0999 V2000
   38.3710   26.3910   36.3390 C   0  0  1  0  0  0  0  0  0  0  0  0
   39.1730   27.3340   35.6170 C   0  0  0  0  0  0  0  0  0  0  0  0
   37.7170   27.2880   35.3070 C   0  0  1  0  0  0  0  0  0  0  0  0
   39.4830   24.4010   35.3420 C   0  0  0  0  0  0  0  0  0  0  0  0
   38.4350   24.9440   36.0930 C   0  0  0  0  0  0  0  0  0  0  0  0
   37.4960   24.0530   36.5740 C   0  0  0  0  0  0  0  0  0  0  0  0
   37.6350   22.7240   36.3040 N   0  0  0  0  0  0  0  0  0  0  0  0
   38.6710   22.2360   35.5710 C   0  0  0  0  0  0  0  0  0  0  0  0
   39.6000   23.0870   35.0890 N   0  0  0  0  0  0  0  0  0  0  0  0
   37.1890   26.7530   34.0310 C   0  0  0  0  0  0  0  0  0  0  0  0
   37.0520   25.5820   33.5040 O   0  0  0  0  0  0  0  0  0  0  0  0
   36.6830   27.8030   33.0760 C   0  0  0  0  0  0  0  0  0  0  0  0
   35.7690   28.6540   33.6240 C   0  0  0  0  0  0  0  0  0  0  0  0
   35.4260   29.8220   32.1310 S   0  0  0  0  0  0  0  0  0  0  0  0
   36.6380   28.8580   31.0770 C   0  0  0  0  0  0  0  0  0  0  0  0
   37.0060   28.0250   31.8360 N   0  0  0  0  0  0  0  0  0  0  0  0
   36.9840   29.1280   29.6870 C   0  0  0  0  0  0  0  0  0  0  0  0
   37.2590   30.2940   29.2750 O   0  0  0  0  0  0  0  0  0  0  0  0
   37.0210   28.1050   28.7810 O   0  0  0  0  0  0  0  0  0  0  0  0
   38.2350   26.1811   37.4102 H   0  0  0  0  0  0  0  0  0  0  0  0
   39.5893   28.2068   36.1414 H   0  0  0  0  0  0  0  0  0  0  0  0
   40.0857   27.2517   35.0086 H   0  0  0  0  0  0  0  0  0  0  0  0
   36.8898   28.0127   35.2855 H   0  0  0  0  0  0  0  0  0  0  0  0
   40.2473   25.0822   34.9397 H   0  0  0  0  0  0  0  0  0  0  0  0
   36.6438   24.4123   37.1695 H   0  0  0  0  0  0  0  0  0  0  0  0
   38.7508   21.1569   35.3728 H   0  0  0  0  0  0  0  0  0  0  0  0
   36.1888   26.6676   34.4807 H   0  0  0  0  0  0  0  0  0  0  0  0
   36.9727   24.9045   34.2215 H   0  0  0  0  0  0  0  0  0  0  0  0
   35.3447   28.6692   34.6387 H   0  0  0  0  0  0  0  0  0  0  0  0
   37.2560   28.2882   27.8369 H   0  0  0  0  0  0  0  0  0  0  0  0
  2  1  1  0
  3  2  1  0
  3  1  1  0
  4  5  2  0
  5  1  1  0
  5  6  1  0
  7  6  2  0
  8  7  1  0
  9  4  1  0
  9  8  2  0
 10 11  1  0
 10  3  1  0
 12 13  2  0
 12 10  1  0
 14 13  1  0
 15 16  2  0
 15 14  1  0
 16 12  1  0
 17 15  1  0
 18 17  2  0
 19 17  1  0
  1 20  1  1
  2 21  1  0
  2 22  1  0
  3 23  1  1
  4 24  1  0
  6 25  1  0
  8 26  1  0
 10 27  1  0
 11 28  1  0
 13 29  1  0
 19 30  1  0
M  ISO  8  20  13  21  13  22  13  23  13  24  14  25  14  26  14  27   8
M  ISO  3  28   3  29  14  30   3
M  END
>  <minimizedAffinity>  (1) 
-4.91508675

>  <minimizedRMSD>  (1) 
0.734207928

$$$$
