
     RDKit          3D

 30 32  0  0  1  0  0  0  0  0999 V2000
   38.2490   26.3850   36.3200 C   0  0  1  0  0  0  0  0  0  0  0  0
   39.0490   27.3330   35.6030 C   0  0  0  0  0  0  0  0  0  0  0  0
   37.6370   27.1490   35.1610 C   0  0  1  0  0  0  0  0  0  0  0  0
   39.5940   24.4260   35.5970 C   0  0  0  0  0  0  0  0  0  0  0  0
   38.4380   24.9370   36.1990 C   0  0  0  0  0  0  0  0  0  0  0  0
   37.5270   24.0050   36.6570 C   0  0  0  0  0  0  0  0  0  0  0  0
   37.7900   22.6750   36.5060 N   0  0  0  0  0  0  0  0  0  0  0  0
   38.9290   22.2240   35.9160 C   0  0  0  0  0  0  0  0  0  0  0  0
   39.8360   23.1110   35.4580 N   0  0  0  0  0  0  0  0  0  0  0  0
   37.2840   26.4820   33.8860 C   0  0  0  0  0  0  0  0  0  0  0  0
   37.1220   25.2650   33.4930 O   0  0  0  0  0  0  0  0  0  0  0  0
   37.0610   27.4350   32.7300 C   0  0  0  0  0  0  0  0  0  0  0  0
   36.0500   28.3240   32.9400 C   0  0  0  0  0  0  0  0  0  0  0  0
   36.1340   29.3520   31.3280 S   0  0  0  0  0  0  0  0  0  0  0  0
   37.5770   28.2960   30.7140 C   0  0  0  0  0  0  0  0  0  0  0  0
   37.7220   27.5350   31.6030 N   0  0  0  0  0  0  0  0  0  0  0  0
   38.2730   28.4900   29.4020 C   0  0  0  0  0  0  0  0  0  0  0  0
   39.2140   29.4990   29.4840 F   0  0  0  0  0  0  0  0  0  0  0  0
   37.3240   28.7030   28.4490 F   0  0  0  0  0  0  0  0  0  0  0  0
   38.9920   27.3260   29.2260 F   0  0  0  0  0  0  0  0  0  0  0  0
   38.0240   26.2447   37.3876 H   0  0  0  0  0  0  0  0  0  0  0  0
   39.3469   28.2722   36.0921 H   0  0  0  0  0  0  0  0  0  0  0  0
   40.0216   27.2789   35.0920 H   0  0  0  0  0  0  0  0  0  0  0  0
   36.7646   27.8004   35.0042 H   0  0  0  0  0  0  0  0  0  0  0  0
   40.3429   25.1371   35.2182 H   0  0  0  0  0  0  0  0  0  0  0  0
   36.5951   24.3334   37.1405 H   0  0  0  0  0  0  0  0  0  0  0  0
   39.1094   21.1438   35.8130 H   0  0  0  0  0  0  0  0  0  0  0  0
   36.2181   26.5381   34.1518 H   0  0  0  0  0  0  0  0  0  0  0  0
   37.0430   24.6714   34.2813 H   0  0  0  0  0  0  0  0  0  0  0  0
   35.3716   28.4235   33.8002 H   0  0  0  0  0  0  0  0  0  0  0  0
  2  1  1  0
  3  2  1  0
  3  1  1  0
  4  5  2  0
  5  1  1  0
  5  6  1  0
  7  6  2  0
  8  7  1  0
  9  4  1  0
  9  8  2  0
 10 11  1  0
 10  3  1  0
 12 13  2  0
 12 10  1  0
 14 13  1  0
 15 14  1  0
 15 16  2  0
 16 12  1  0
 17 18  1  0
 17 15  1  0
 19 17  1  0
 20 17  1  0
  1 21  1  1
  2 22  1  0
  2 23  1  0
  3 24  1  1
  4 25  1  0
  6 26  1  0
  8 27  1  0
 10 28  1  0
 11 29  1  0
 13 30  1  0
M  ISO  8  21  13  22  13  23  13  24  13  25  14  26  14  27  14  28   8
M  ISO  2  29   3  30  14
M  END
>  <minimizedAffinity>  (1) 
-4.73576164

>  <minimizedRMSD>  (1) 
1.0007385

$$$$
