
     RDKit          3D

 33 35  0  0  1  0  0  0  0  0999 V2000
   38.2940   26.3280   36.3790 C   0  0  1  0  0  0  0  0  0  0  0  0
   39.0930   27.3000   35.6880 C   0  0  0  0  0  0  0  0  0  0  0  0
   37.6640   27.1690   35.2840 C   0  0  1  0  0  0  0  0  0  0  0  0
   39.5840   24.3810   35.5310 C   0  0  0  0  0  0  0  0  0  0  0  0
   38.4470   24.8840   36.1730 C   0  0  0  0  0  0  0  0  0  0  0  0
   37.5160   23.9500   36.5850 C   0  0  0  0  0  0  0  0  0  0  0  0
   37.7450   22.6240   36.3550 N   0  0  0  0  0  0  0  0  0  0  0  0
   38.8660   22.1810   35.7290 C   0  0  0  0  0  0  0  0  0  0  0  0
   39.7910   23.0710   35.3150 N   0  0  0  0  0  0  0  0  0  0  0  0
   37.2590   26.5800   33.9860 C   0  0  0  0  0  0  0  0  0  0  0  0
   37.1540   25.3900   33.5020 O   0  0  0  0  0  0  0  0  0  0  0  0
   36.8730   27.5930   32.9300 C   0  0  0  0  0  0  0  0  0  0  0  0
   36.0770   28.5900   33.4060 C   0  0  0  0  0  0  0  0  0  0  0  0
   35.8490   29.6560   31.8240 S   0  0  0  0  0  0  0  0  0  0  0  0
   36.9210   28.4590   30.8560 C   0  0  0  0  0  0  0  0  0  0  0  0
   37.1990   27.6630   31.6780 N   0  0  0  0  0  0  0  0  0  0  0  0
   37.2320   28.6480   29.3950 C   0  0  0  0  0  0  0  0  0  0  0  0
   37.4360   30.1160   29.0890 C   0  0  0  0  0  0  0  0  0  0  0  0
   38.0992   26.1325   37.4438 H   0  0  0  0  0  0  0  0  0  0  0  0
   39.4269   28.2043   36.2179 H   0  0  0  0  0  0  0  0  0  0  0  0
   40.0474   27.2550   35.1429 H   0  0  0  0  0  0  0  0  0  0  0  0
   36.8017   27.8459   35.1927 H   0  0  0  0  0  0  0  0  0  0  0  0
   40.3470   25.0941   35.1856 H   0  0  0  0  0  0  0  0  0  0  0  0
   36.5963   24.2727   37.0950 H   0  0  0  0  0  0  0  0  0  0  0  0
   39.0183   21.1046   35.5610 H   0  0  0  0  0  0  0  0  0  0  0  0
   36.2166   26.5306   34.3337 H   0  0  0  0  0  0  0  0  0  0  0  0
   37.0963   24.7362   34.2432 H   0  0  0  0  0  0  0  0  0  0  0  0
   35.6749   28.7430   34.4184 H   0  0  0  0  0  0  0  0  0  0  0  0
   38.1485   28.0939   29.1441 H   0  0  0  0  0  0  0  0  0  0  0  0
   36.3892   28.2708   28.7972 H   0  0  0  0  0  0  0  0  0  0  0  0
   37.5143   30.6794   30.0305 H   0  0  0  0  0  0  0  0  0  0  0  0
   38.3606   30.2442   28.5070 H   0  0  0  0  0  0  0  0  0  0  0  0
   36.5814   30.4914   28.5070 H   0  0  0  0  0  0  0  0  0  0  0  0
  2  1  1  0
  3  2  1  0
  3  1  1  0
  4  5  2  0
  5  1  1  0
  5  6  1  0
  7  6  2  0
  8  7  1  0
  9  4  1  0
  9  8  2  0
 10 11  1  0
 10  3  1  0
 12 13  2  0
 12 10  1  0
 14 13  1  0
 15 16  2  0
 15 14  1  0
 16 12  1  0
 17 15  1  0
 18 17  1  0
  1 19  1  1
  2 20  1  0
  2 21  1  0
  3 22  1  1
  4 23  1  0
  6 24  1  0
  8 25  1  0
 10 26  1  0
 11 27  1  0
 13 28  1  0
 17 29  1  0
 17 30  1  0
 18 31  1  0
 18 32  1  0
 18 33  1  0
M  ISO  8  19  13  20  13  21  13  22  13  23  14  24  14  25  14  26   8
M  ISO  7  27   3  28  14  29   8  30   8  31   8  32   8  33   8
M  END
>  <minimizedAffinity>  (1) 
-4.49367952

>  <minimizedRMSD>  (1) 
0.344831556

$$$$
