
     RDKit          3D

 46 50  0  0  1  0  0  0  0  0999 V2000
   36.7860   27.7990   33.1570 C   0  0  0  0  0  0  0  0  0  0  0  0
   35.7900   28.6080   33.5460 C   0  0  0  0  0  0  0  0  0  0  0  0
   35.6640   29.8150   32.0660 S   0  0  0  0  0  0  0  0  0  0  0  0
   37.0620   28.9080   31.2060 C   0  0  0  0  0  0  0  0  0  0  0  0
   37.3090   28.0660   32.0000 N   0  0  0  0  0  0  0  0  0  0  0  0
   37.4750   29.4120   29.8990 C   0  0  0  0  0  0  0  0  0  0  0  0
   37.0970   30.6190   29.4100 C   0  0  0  0  0  0  0  0  0  0  0  0
   37.5940   30.9430   28.1440 C   0  0  0  0  0  0  0  0  0  0  0  0
   38.3890   30.0750   27.5020 N   0  0  0  0  0  0  0  0  0  0  0  0
   38.7560   28.8850   27.9940 C   0  0  0  0  0  0  0  0  0  0  0  0
   38.2630   28.5860   29.2300 N   0  0  0  0  0  0  0  0  0  0  0  0
   39.6000   27.9660   27.3100 N   0  0  0  0  0  0  0  0  0  0  0  0
   39.7050   26.7190   27.7810 C   0  0  0  0  0  0  0  0  0  0  0  0
   40.4970   25.7550   27.1900 C   0  0  0  0  0  0  0  0  0  0  0  0
   41.1800   26.1950   26.0590 C   0  0  0  0  0  0  0  0  0  0  0  0
   42.0150   25.2250   25.4130 N   0  0  0  0  0  0  0  0  0  0  0  0
   41.0730   27.4490   25.5900 N   0  0  0  0  0  0  0  0  0  0  0  0
   40.2700   28.3380   26.2310 C   0  0  0  0  0  0  0  0  0  0  0  0
   40.2160   29.4840   25.7450 O   0  0  0  0  0  0  0  0  0  0  0  0
   37.0870   26.6970   34.1690 C   0  0  2  0  0  0  0  0  0  0  0  0
   38.3970   26.3750   36.4400 C   0  0  1  0  0  0  0  0  0  0  0  0
   39.2100   27.2460   35.6690 C   0  0  0  0  0  0  0  0  0  0  0  0
   37.7750   27.2650   35.3740 C   0  0  1  0  0  0  0  0  0  0  0  0
   39.4330   24.3250   35.5480 C   0  0  0  0  0  0  0  0  0  0  0  0
   38.3930   24.9250   36.2490 C   0  0  0  0  0  0  0  0  0  0  0  0
   37.4210   24.0810   36.7120 C   0  0  0  0  0  0  0  0  0  0  0  0
   37.5120   22.7320   36.4760 N   0  0  0  0  0  0  0  0  0  0  0  0
   38.5460   22.1910   35.7860 C   0  0  0  0  0  0  0  0  0  0  0  0
   39.5290   23.0040   35.3110 N   0  0  0  0  0  0  0  0  0  0  0  0
   37.1440   25.5770   33.5420 O   0  0  0  0  0  0  0  0  0  0  0  0
   35.1994   28.5842   34.4737 H   0  0  0  0  0  0  0  0  0  0  0  0
   36.4415   31.2995   29.9732 H   0  0  0  0  0  0  0  0  0  0  0  0
   37.3342   31.9046   27.6773 H   0  0  0  0  0  0  0  0  0  0  0  0
   39.1337   26.4487   28.6813 H   0  0  0  0  0  0  0  0  0  0  0  0
   40.5812   24.7293   27.5784 H   0  0  0  0  0  0  0  0  0  0  0  0
   42.5486   25.4840   24.5709 H   0  0  0  0  0  0  0  0  0  0  0  0
   42.0813   24.2692   25.7910 H   0  0  0  0  0  0  0  0  0  0  0  0
   36.4354   26.2090   34.9088 H   0  0  0  0  0  0  0  0  0  0  0  0
   38.2702   26.2121   37.5205 H   0  0  0  0  0  0  0  0  0  0  0  0
   39.6734   28.1194   36.1511 H   0  0  0  0  0  0  0  0  0  0  0  0
   40.1066   27.0928   35.0505 H   0  0  0  0  0  0  0  0  0  0  0  0
   37.0188   28.0598   35.2941 H   0  0  0  0  0  0  0  0  0  0  0  0
   40.2318   24.9745   35.1607 H   0  0  0  0  0  0  0  0  0  0  0  0
   36.5656   24.4840   37.2740 H   0  0  0  0  0  0  0  0  0  0  0  0
   38.5902   21.1058   35.6117 H   0  0  0  0  0  0  0  0  0  0  0  0
   37.1818   24.8344   34.1957 H   0  0  0  0  0  0  0  0  0  0  0  0
  1  2  2  0
  1 20  1  0
  3  2  1  0
  4  5  2  0
  4  3  1  0
  5  1  1  0
  6  4  1  0
  7  6  2  0
  8  7  1  0
  9 10  1  0
  9  8  2  0
 10 11  2  0
 11  6  1  0
 12 13  1  0
 12 10  1  0
 14 13  2  0
 15 14  1  0
 16 15  1  0
 17 15  2  0
 17 18  1  0
 18 12  1  0
 19 18  2  0
 20 23  1  0
 22 21  1  0
 23 22  1  0
 23 21  1  0
 24 25  2  0
 25 21  1  0
 25 26  1  0
 27 26  2  0
 28 27  1  0
 29 24  1  0
 29 28  2  0
 30 20  1  0
  2 31  1  0
  7 32  1  0
  8 33  1  0
 13 34  1  0
 14 35  1  0
 16 36  1  0
 16 37  1  0
 20 38  1  1
 21 39  1  1
 22 40  1  0
 22 41  1  0
 23 42  1  1
 24 43  1  0
 26 44  1  0
 28 45  1  0
 30 46  1  0
M  ISO  8  31  14  32  14  33  14  34  14  35  14  38   8  39  13  40  13
M  ISO  6  41  13  42  13  43  14  44  14  45  14  46   3
M  END
>  <minimizedAffinity>  (1) 
-5.86458683

>  <minimizedRMSD>  (1) 
0.854906857

$$$$
