
     RDKit          3D

 45 49  0  0  1  0  0  0  0  0999 V2000
   37.0660   27.5280   32.7720 C   0  0  0  0  0  0  0  0  0  0  0  0
   35.9390   28.2670   32.8400 C   0  0  0  0  0  0  0  0  0  0  0  0
   36.0940   29.3410   31.2590 S   0  0  0  0  0  0  0  0  0  0  0  0
   37.7200   28.5080   30.8530 C   0  0  0  0  0  0  0  0  0  0  0  0
   37.8380   27.7540   31.7520 N   0  0  0  0  0  0  0  0  0  0  0  0
   38.3940   28.9430   29.6370 C   0  0  0  0  0  0  0  0  0  0  0  0
   38.5780   30.2460   29.2950 C   0  0  0  0  0  0  0  0  0  0  0  0
   39.2430   30.4780   28.0940 C   0  0  0  0  0  0  0  0  0  0  0  0
   39.6590   29.4370   27.3550 N   0  0  0  0  0  0  0  0  0  0  0  0
   39.4770   28.1530   27.6930 C   0  0  0  0  0  0  0  0  0  0  0  0
   38.8210   27.9470   28.8750 N   0  0  0  0  0  0  0  0  0  0  0  0
   39.9250   27.0630   26.8940 N   0  0  0  0  0  0  0  0  0  0  0  0
   39.8120   25.8240   27.4040 C   0  0  0  0  0  0  0  0  0  0  0  0
   40.2590   24.7780   26.6000 C   0  0  0  0  0  0  0  0  0  0  0  0
   40.7760   25.1030   25.3580 C   0  0  0  0  0  0  0  0  0  0  0  0
   41.1980   24.1960   24.5800 O   0  0  0  0  0  0  0  0  0  0  0  0
   40.8650   26.3640   24.8950 N   0  0  0  0  0  0  0  0  0  0  0  0
   40.4290   27.3680   25.6860 C   0  0  0  0  0  0  0  0  0  0  0  0
   40.4970   28.5620   25.2870 O   0  0  0  0  0  0  0  0  0  0  0  0
   37.1840   26.5370   33.9320 C   0  0  2  0  0  0  0  0  0  0  0  0
   38.3210   26.4180   36.3120 C   0  0  1  0  0  0  0  0  0  0  0  0
   39.1370   27.2970   35.5490 C   0  0  0  0  0  0  0  0  0  0  0  0
   37.7290   27.2110   35.1530 C   0  0  1  0  0  0  0  0  0  0  0  0
   39.5480   24.3890   35.5780 C   0  0  0  0  0  0  0  0  0  0  0  0
   38.4170   24.9630   36.1950 C   0  0  0  0  0  0  0  0  0  0  0  0
   37.4750   24.0780   36.6460 C   0  0  0  0  0  0  0  0  0  0  0  0
   37.6600   22.7270   36.4870 N   0  0  0  0  0  0  0  0  0  0  0  0
   38.7660   22.2160   35.8870 C   0  0  0  0  0  0  0  0  0  0  0  0
   39.7240   23.0620   35.4250 N   0  0  0  0  0  0  0  0  0  0  0  0
   37.2620   25.3520   33.4350 O   0  0  0  0  0  0  0  0  0  0  0  0
   35.1436   28.2562   33.5997 H   0  0  0  0  0  0  0  0  0  0  0  0
   38.2218   31.0699   29.9309 H   0  0  0  0  0  0  0  0  0  0  0  0
   39.4264   31.5075   27.7527 H   0  0  0  0  0  0  0  0  0  0  0  0
   39.3888   25.6458   28.4036 H   0  0  0  0  0  0  0  0  0  0  0  0
   40.2032   23.7332   26.9394 H   0  0  0  0  0  0  0  0  0  0  0  0
   41.2554   26.5580   23.9618 H   0  0  0  0  0  0  0  0  0  0  0  0
   36.4347   26.1547   34.6408 H   0  0  0  0  0  0  0  0  0  0  0  0
   38.1246   26.3054   37.3885 H   0  0  0  0  0  0  0  0  0  0  0  0
   39.5119   28.2223   36.0109 H   0  0  0  0  0  0  0  0  0  0  0  0
   40.0840   27.1669   35.0047 H   0  0  0  0  0  0  0  0  0  0  0  0
   36.9318   27.9486   34.9788 H   0  0  0  0  0  0  0  0  0  0  0  0
   40.3309   25.0631   35.2002 H   0  0  0  0  0  0  0  0  0  0  0  0
   36.5650   24.4513   37.1384 H   0  0  0  0  0  0  0  0  0  0  0  0
   38.8852   21.1281   35.7761 H   0  0  0  0  0  0  0  0  0  0  0  0
   37.3057   24.6887   34.1686 H   0  0  0  0  0  0  0  0  0  0  0  0
  1  2  2  0
  1 20  1  0
  3  2  1  0
  4  3  1  0
  4  5  2  0
  5  1  1  0
  6  4  1  0
  7  6  2  0
  8  7  1  0
  9 10  1  0
  9  8  2  0
 10 11  2  0
 11  6  1  0
 12 13  1  0
 12 10  1  0
 14 13  2  0
 15 14  1  0
 16 15  2  0
 17 15  1  0
 17 18  1  0
 18 12  1  0
 19 18  2  0
 20 23  1  0
 22 21  1  0
 23 22  1  0
 23 21  1  0
 24 25  2  0
 25 21  1  0
 25 26  1  0
 27 26  2  0
 28 27  1  0
 29 24  1  0
 29 28  2  0
 30 20  1  0
  2 31  1  0
  7 32  1  0
  8 33  1  0
 13 34  1  0
 14 35  1  0
 17 36  1  0
 20 37  1  1
 21 38  1  1
 22 39  1  0
 22 40  1  0
 23 41  1  1
 24 42  1  0
 26 43  1  0
 28 44  1  0
 30 45  1  0
M  ISO  8  31  14  32  14  33  14  34  14  35  14  36   9  37   8  38  13
M  ISO  7  39  13  40  13  41  13  42  14  43  14  44  14  45   3
M  END
>  <minimizedAffinity>  (1) 
-5.83633614

>  <minimizedRMSD>  (1) 
0.955196261

$$$$
