
     RDKit          3D

 50 54  0  0  1  0  0  0  0  0999 V2000
   36.7960   27.8020   33.1310 C   0  0  0  0  0  0  0  0  0  0  0  0
   35.7850   28.5940   33.5250 C   0  0  0  0  0  0  0  0  0  0  0  0
   35.6480   29.8090   32.0520 S   0  0  0  0  0  0  0  0  0  0  0  0
   37.0620   28.9280   31.1890 C   0  0  0  0  0  0  0  0  0  0  0  0
   37.3240   28.0830   31.9690 N   0  0  0  0  0  0  0  0  0  0  0  0
   37.4640   29.4440   29.8860 C   0  0  0  0  0  0  0  0  0  0  0  0
   37.0460   30.6310   29.3940 C   0  0  0  0  0  0  0  0  0  0  0  0
   37.5310   30.9780   28.1210 C   0  0  0  0  0  0  0  0  0  0  0  0
   38.3580   30.1330   27.4790 N   0  0  0  0  0  0  0  0  0  0  0  0
   38.7630   28.9510   27.9900 C   0  0  0  0  0  0  0  0  0  0  0  0
   38.2790   28.6440   29.2210 N   0  0  0  0  0  0  0  0  0  0  0  0
   39.6410   28.0620   27.3030 N   0  0  0  0  0  0  0  0  0  0  0  0
   40.4210   28.4790   26.1540 C   0  0  0  0  0  0  0  0  0  0  0  0
   40.5430   27.2840   25.2310 C   0  0  0  0  0  0  0  0  0  0  0  0
   41.1800   26.1000   25.8820 C   0  0  0  0  0  0  0  0  0  0  0  0
   41.1450   26.2310   27.4010 C   0  0  0  0  0  0  0  0  0  0  0  0
   39.7530   26.7150   27.7660 C   0  0  0  0  0  0  0  0  0  0  0  0
   37.1110   26.6960   34.1340 C   0  0  2  0  0  0  0  0  0  0  0  0
   38.4010   26.3740   36.4190 C   0  0  1  0  0  0  0  0  0  0  0  0
   39.2210   27.2420   35.6530 C   0  0  0  0  0  0  0  0  0  0  0  0
   37.7900   27.2700   35.3470 C   0  0  1  0  0  0  0  0  0  0  0  0
   39.4330   24.3170   35.5240 C   0  0  0  0  0  0  0  0  0  0  0  0
   38.3930   24.9260   36.2260 C   0  0  0  0  0  0  0  0  0  0  0  0
   37.4210   24.0790   36.6860 C   0  0  0  0  0  0  0  0  0  0  0  0
   37.5110   22.7310   36.4450 N   0  0  0  0  0  0  0  0  0  0  0  0
   38.5420   22.1850   35.7570 C   0  0  0  0  0  0  0  0  0  0  0  0
   39.5290   22.9970   35.2840 N   0  0  0  0  0  0  0  0  0  0  0  0
   37.1820   25.5820   33.4970 O   0  0  0  0  0  0  0  0  0  0  0  0
   35.1919   28.5547   34.4506 H   0  0  0  0  0  0  0  0  0  0  0  0
   36.3659   31.2874   29.9567 H   0  0  0  0  0  0  0  0  0  0  0  0
   37.2375   31.9301   27.6548 H   0  0  0  0  0  0  0  0  0  0  0  0
   39.9131   29.3049   25.6345 H   0  0  0  0  0  0  0  0  0  0  0  0
   41.4151   28.8311   26.4667 H   0  0  0  0  0  0  0  0  0  0  0  0
   41.1513   27.5744   24.3617 H   0  0  0  0  0  0  0  0  0  0  0  0
   39.5235   26.9889   24.9420 H   0  0  0  0  0  0  0  0  0  0  0  0
   40.6367   25.1904   25.5862 H   0  0  0  0  0  0  0  0  0  0  0  0
   42.2296   26.0425   25.5579 H   0  0  0  0  0  0  0  0  0  0  0  0
   41.3423   25.2558   27.8701 H   0  0  0  0  0  0  0  0  0  0  0  0
   41.9135   26.9340   27.7550 H   0  0  0  0  0  0  0  0  0  0  0  0
   39.6148   26.6783   28.8567 H   0  0  0  0  0  0  0  0  0  0  0  0
   38.9839   26.0777   27.3052 H   0  0  0  0  0  0  0  0  0  0  0  0
   36.4725   26.1863   34.8706 H   0  0  0  0  0  0  0  0  0  0  0  0
   38.2661   26.2106   37.4984 H   0  0  0  0  0  0  0  0  0  0  0  0
   39.6854   28.1128   36.1387 H   0  0  0  0  0  0  0  0  0  0  0  0
   40.1206   27.0841   35.0400 H   0  0  0  0  0  0  0  0  0  0  0  0
   37.0398   28.0699   35.2616 H   0  0  0  0  0  0  0  0  0  0  0  0
   40.2342   24.9643   35.1379 H   0  0  0  0  0  0  0  0  0  0  0  0
   36.5659   24.4797   37.2501 H   0  0  0  0  0  0  0  0  0  0  0  0
   38.5822   21.0997   35.5822 H   0  0  0  0  0  0  0  0  0  0  0  0
   37.2297   24.8343   34.1441 H   0  0  0  0  0  0  0  0  0  0  0  0
  1  2  2  0
  1 18  1  0
  3  2  1  0
  4  5  2  0
  4  3  1  0
  5  1  1  0
  6  4  1  0
  7  6  2  0
  8  7  1  0
  9 10  1  0
  9  8  2  0
 10 11  2  0
 11  6  1  0
 12 17  1  0
 12 10  1  0
 13 12  1  0
 14 15  1  0
 14 13  1  0
 15 16  1  0
 16 17  1  0
 18 21  1  0
 20 19  1  0
 21 20  1  0
 21 19  1  0
 22 23  2  0
 23 19  1  0
 23 24  1  0
 25 24  2  0
 26 25  1  0
 27 22  1  0
 27 26  2  0
 28 18  1  0
  2 29  1  0
  7 30  1  0
  8 31  1  0
 13 32  1  0
 13 33  1  0
 14 34  1  0
 14 35  1  0
 15 36  1  0
 15 37  1  0
 16 38  1  0
 16 39  1  0
 17 40  1  0
 17 41  1  0
 18 42  1  1
 19 43  1  1
 20 44  1  0
 20 45  1  0
 21 46  1  1
 22 47  1  0
 24 48  1  0
 26 49  1  0
 28 50  1  0
M  ISO  8  29  14  30  14  31  14  32  13  33  13  34  13  35  13  36  13
M  ISO  8  37  13  38  13  39  13  40  13  41  13  42   8  43  13  44  13
M  ISO  6  45  13  46  13  47  14  48  14  49  14  50   3
M  END
>  <minimizedAffinity>  (1) 
-5.79451895

>  <minimizedRMSD>  (1) 
0.812322497

$$$$
