
     RDKit          3D

 48 52  0  0  1  0  0  0  0  0999 V2000
   37.0920   26.6380   34.1350 C   0  0  1  0  0  0  0  0  0  0  0  0
   38.3480   26.3930   36.4480 C   0  0  1  0  0  0  0  0  0  0  0  0
   39.1600   27.2640   35.6700 C   0  0  0  0  0  0  0  0  0  0  0  0
   37.7320   27.2450   35.3440 C   0  0  1  0  0  0  0  0  0  0  0  0
   39.4580   24.3450   35.6040 C   0  0  0  0  0  0  0  0  0  0  0  0
   38.3770   24.9470   36.2840 C   0  0  0  0  0  0  0  0  0  0  0  0
   37.4230   24.0800   36.7410 C   0  0  0  0  0  0  0  0  0  0  0  0
   37.5470   22.7280   36.5320 N   0  0  0  0  0  0  0  0  0  0  0  0
   38.6150   22.1950   35.8670 C   0  0  0  0  0  0  0  0  0  0  0  0
   39.5820   23.0220   35.3980 N   0  0  0  0  0  0  0  0  0  0  0  0
   36.8580   27.6930   33.0560 C   0  0  0  0  0  0  0  0  0  0  0  0
   35.8470   28.5340   33.3770 C   0  0  0  0  0  0  0  0  0  0  0  0
   35.8000   29.6690   31.8320 S   0  0  0  0  0  0  0  0  0  0  0  0
   37.2120   28.7080   31.0820 C   0  0  0  0  0  0  0  0  0  0  0  0
   37.4180   27.9050   31.9150 N   0  0  0  0  0  0  0  0  0  0  0  0
   37.6790   29.1410   29.7660 C   0  0  0  0  0  0  0  0  0  0  0  0
   37.3620   30.3390   29.2130 C   0  0  0  0  0  0  0  0  0  0  0  0
   37.8940   30.5930   27.9460 C   0  0  0  0  0  0  0  0  0  0  0  0
   38.6710   29.6690   27.3540 N   0  0  0  0  0  0  0  0  0  0  0  0
   38.9780   28.4810   27.9150 C   0  0  0  0  0  0  0  0  0  0  0  0
   38.4490   28.2580   29.1470 N   0  0  0  0  0  0  0  0  0  0  0  0
   39.7990   27.4990   27.2940 N   0  0  0  0  0  0  0  0  0  0  0  0
   40.1070   26.2270   27.9360 C   0  0  0  0  0  0  0  0  0  0  0  0
   39.9620   25.0920   26.9450 C   0  0  0  0  0  0  0  0  0  0  0  0
   40.4650   25.4090   25.7060 O   0  0  0  0  0  0  0  0  0  0  0  0
   41.2750   26.5410   25.7160 C   0  0  0  0  0  0  0  0  0  0  0  0
   40.3550   27.7360   25.9990 C   0  0  0  0  0  0  0  0  0  0  0  0
   37.1580   25.4880   33.5580 O   0  0  0  0  0  0  0  0  0  0  0  0
   36.3997   26.2047   34.8719 H   0  0  0  0  0  0  0  0  0  0  0  0
   38.2021   26.2541   37.5294 H   0  0  0  0  0  0  0  0  0  0  0  0
   39.5943   28.1591   36.1392 H   0  0  0  0  0  0  0  0  0  0  0  0
   40.0727   27.1146   35.0745 H   0  0  0  0  0  0  0  0  0  0  0  0
   36.9584   28.0188   35.2311 H   0  0  0  0  0  0  0  0  0  0  0  0
   40.2512   25.0016   35.2172 H   0  0  0  0  0  0  0  0  0  0  0  0
   36.5476   24.4693   37.2814 H   0  0  0  0  0  0  0  0  0  0  0  0
   38.6895   21.1083   35.7139 H   0  0  0  0  0  0  0  0  0  0  0  0
   35.2208   28.5595   34.2810 H   0  0  0  0  0  0  0  0  0  0  0  0
   36.7229   31.0683   29.7323 H   0  0  0  0  0  0  0  0  0  0  0  0
   37.6783   31.5434   27.4359 H   0  0  0  0  0  0  0  0  0  0  0  0
   41.1403   26.2509   28.3123 H   0  0  0  0  0  0  0  0  0  0  0  0
   39.4071   26.0671   28.7694 H   0  0  0  0  0  0  0  0  0  0  0  0
   40.5020   24.2150   27.3313 H   0  0  0  0  0  0  0  0  0  0  0  0
   38.8880   24.8855   26.8274 H   0  0  0  0  0  0  0  0  0  0  0  0
   42.0381   26.4547   26.5035 H   0  0  0  0  0  0  0  0  0  0  0  0
   41.7990   26.6623   24.7564 H   0  0  0  0  0  0  0  0  0  0  0  0
   40.9313   28.6729   25.9948 H   0  0  0  0  0  0  0  0  0  0  0  0
   39.5716   27.8351   25.2332 H   0  0  0  0  0  0  0  0  0  0  0  0
   37.1989   24.7761   34.2447 H   0  0  0  0  0  0  0  0  0  0  0  0
  1  4  1  0
  3  2  1  0
  4  3  1  0
  4  2  1  0
  5  6  2  0
  6  2  1  0
  6  7  1  0
  8  7  2  0
  9  8  1  0
 10  5  1  0
 10  9  2  0
 11 12  2  0
 11  1  1  0
 13 12  1  0
 14 13  1  0
 14 15  2  0
 15 11  1  0
 16 14  1  0
 17 16  2  0
 18 17  1  0
 19 20  1  0
 19 18  2  0
 20 21  2  0
 21 16  1  0
 22 20  1  0
 22 23  1  0
 24 23  1  0
 25 26  1  0
 25 24  1  0
 26 27  1  0
 27 22  1  0
 28  1  1  0
  1 29  1  1
  2 30  1  1
  3 31  1  0
  3 32  1  0
  4 33  1  1
  5 34  1  0
  7 35  1  0
  9 36  1  0
 12 37  1  0
 17 38  1  0
 18 39  1  0
 23 40  1  0
 23 41  1  0
 24 42  1  0
 24 43  1  0
 26 44  1  0
 26 45  1  0
 27 46  1  0
 27 47  1  0
 28 48  1  0
M  ISO  8  29   8  30  13  31  13  32  13  33  13  34  14  35  14  36  14
M  ISO  8  37  14  38  14  39  14  40  13  41  13  42  13  43  13  44  13
M  ISO  4  45  13  46  13  47  13  48   3
M  END
>  <minimizedAffinity>  (1) 
-5.77624989

>  <minimizedRMSD>  (1) 
0.62699455

$$$$
