
     RDKit          3D

 45 49  0  0  1  0  0  0  0  0999 V2000
   36.7990   27.7820   33.1800 C   0  0  0  0  0  0  0  0  0  0  0  0
   35.8030   28.5950   33.5640 C   0  0  0  0  0  0  0  0  0  0  0  0
   35.6790   29.7910   32.0750 S   0  0  0  0  0  0  0  0  0  0  0  0
   37.0770   28.8760   31.2210 C   0  0  0  0  0  0  0  0  0  0  0  0
   37.3180   28.0420   32.0190 N   0  0  0  0  0  0  0  0  0  0  0  0
   37.4880   29.3710   29.9130 C   0  0  0  0  0  0  0  0  0  0  0  0
   37.1090   30.5680   29.4200 C   0  0  0  0  0  0  0  0  0  0  0  0
   37.6030   30.8890   28.1440 C   0  0  0  0  0  0  0  0  0  0  0  0
   38.3990   30.0210   27.5020 N   0  0  0  0  0  0  0  0  0  0  0  0
   38.7660   28.8310   28.0100 C   0  0  0  0  0  0  0  0  0  0  0  0
   38.2720   28.5410   29.2550 N   0  0  0  0  0  0  0  0  0  0  0  0
   39.6250   27.9420   27.2680 C   0  0  0  0  0  0  0  0  0  0  0  0
   39.7530   26.6190   27.5990 C   0  0  0  0  0  0  0  0  0  0  0  0
   40.5980   25.7980   26.8480 C   0  0  0  0  0  0  0  0  0  0  0  0
   41.3040   26.3230   25.7720 C   0  0  0  0  0  0  0  0  0  0  0  0
   41.1420   27.6530   25.4790 C   0  0  0  0  0  0  0  0  0  0  0  0
   40.3070   28.4900   26.2110 C   0  0  0  0  0  0  0  0  0  0  0  0
   37.0950   26.6840   34.2010 C   0  0  2  0  0  0  0  0  0  0  0  0
   38.4010   26.3690   36.4770 C   0  0  1  0  0  0  0  0  0  0  0  0
   39.2140   27.2350   35.6980 C   0  0  0  0  0  0  0  0  0  0  0  0
   37.7770   27.2560   35.4060 C   0  0  1  0  0  0  0  0  0  0  0  0
   39.4400   24.3020   35.5780 C   0  0  0  0  0  0  0  0  0  0  0  0
   38.3900   24.9180   36.2820 C   0  0  0  0  0  0  0  0  0  0  0  0
   37.4150   24.0750   36.7400 C   0  0  0  0  0  0  0  0  0  0  0  0
   37.4960   22.7260   36.5060 N   0  0  0  0  0  0  0  0  0  0  0  0
   38.5300   22.1740   35.8210 C   0  0  0  0  0  0  0  0  0  0  0  0
   39.5190   22.9760   35.3490 N   0  0  0  0  0  0  0  0  0  0  0  0
   37.1540   25.5630   33.5730 O   0  0  0  0  0  0  0  0  0  0  0  0
   35.2123   28.5784   34.4918 H   0  0  0  0  0  0  0  0  0  0  0  0
   36.4541   31.2504   29.9817 H   0  0  0  0  0  0  0  0  0  0  0  0
   37.3381   31.8476   27.6740 H   0  0  0  0  0  0  0  0  0  0  0  0
   39.1938   26.2053   28.4511 H   0  0  0  0  0  0  0  0  0  0  0  0
   40.7047   24.7347   27.1087 H   0  0  0  0  0  0  0  0  0  0  0  0
   41.9740   25.6895   25.1722 H   0  0  0  0  0  0  0  0  0  0  0  0
   41.6965   28.0758   24.6283 H   0  0  0  0  0  0  0  0  0  0  0  0
   40.1971   29.5534   25.9519 H   0  0  0  0  0  0  0  0  0  0  0  0
   36.4450   26.2004   34.9451 H   0  0  0  0  0  0  0  0  0  0  0  0
   38.2795   26.2123   37.5590 H   0  0  0  0  0  0  0  0  0  0  0  0
   39.6806   28.1100   36.1741 H   0  0  0  0  0  0  0  0  0  0  0  0
   40.1085   27.0763   35.0778 H   0  0  0  0  0  0  0  0  0  0  0  0
   37.0193   28.0495   35.3270 H   0  0  0  0  0  0  0  0  0  0  0  0
   40.2466   24.9417   35.1903 H   0  0  0  0  0  0  0  0  0  0  0  0
   36.5600   24.4818   37.2999 H   0  0  0  0  0  0  0  0  0  0  0  0
   38.5663   21.0880   35.6500 H   0  0  0  0  0  0  0  0  0  0  0  0
   37.1931   24.8203   34.2265 H   0  0  0  0  0  0  0  0  0  0  0  0
  1  2  2  0
  1 18  1  0
  3  2  1  0
  4  5  2  0
  4  3  1  0
  5  1  1  0
  6  4  1  0
  7  6  2  0
  8  7  1  0
  9 10  1  0
  9  8  2  0
 10 11  2  0
 11  6  1  0
 12 13  2  0
 12 10  1  0
 14 13  1  0
 15 14  2  0
 16 15  1  0
 16 17  2  0
 17 12  1  0
 18 21  1  0
 20 19  1  0
 21 20  1  0
 21 19  1  0
 22 23  2  0
 23 19  1  0
 23 24  1  0
 25 24  2  0
 26 25  1  0
 27 22  1  0
 27 26  2  0
 28 18  1  0
  2 29  1  0
  7 30  1  0
  8 31  1  0
 13 32  1  0
 14 33  1  0
 15 34  1  0
 16 35  1  0
 17 36  1  0
 18 37  1  1
 19 38  1  1
 20 39  1  0
 20 40  1  0
 21 41  1  1
 22 42  1  0
 24 43  1  0
 26 44  1  0
 28 45  1  0
M  ISO  8  29  14  30  14  31  14  32  14  33  14  34  14  35  14  36  14
M  ISO  8  37   8  38  13  39  13  40  13  41  13  42  14  43  14  44  14
M  ISO  1  45   3
M  END
>  <minimizedAffinity>  (1) 
-5.49654865

>  <minimizedRMSD>  (1) 
0.808929503

$$$$
