
     RDKit          3D

 43 47  0  0  1  0  0  0  0  0999 V2000
   36.7960   27.7860   33.1830 C   0  0  0  0  0  0  0  0  0  0  0  0
   35.8080   28.6120   33.5610 C   0  0  0  0  0  0  0  0  0  0  0  0
   35.6970   29.7980   32.0610 S   0  0  0  0  0  0  0  0  0  0  0  0
   37.0850   28.8620   31.2170 C   0  0  0  0  0  0  0  0  0  0  0  0
   37.3290   28.0250   32.0140 N   0  0  0  0  0  0  0  0  0  0  0  0
   37.5010   29.3410   29.9010 C   0  0  0  0  0  0  0  0  0  0  0  0
   37.1400   30.5460   29.3940 C   0  0  0  0  0  0  0  0  0  0  0  0
   37.6390   30.8470   28.1230 C   0  0  0  0  0  0  0  0  0  0  0  0
   38.4250   29.9510   27.4940 N   0  0  0  0  0  0  0  0  0  0  0  0
   38.7740   28.7640   28.0030 C   0  0  0  0  0  0  0  0  0  0  0  0
   38.2770   28.4930   29.2410 N   0  0  0  0  0  0  0  0  0  0  0  0
   39.6250   27.8060   27.3100 C   0  0  0  0  0  0  0  0  0  0  0  0
   40.2920   28.2300   26.1960 C   0  0  0  0  0  0  0  0  0  0  0  0
   41.1130   27.3290   25.5160 C   0  0  0  0  0  0  0  0  0  0  0  0
   41.2020   26.0790   26.0010 N   0  0  0  0  0  0  0  0  0  0  0  0
   40.5320   25.6930   27.1020 C   0  0  0  0  0  0  0  0  0  0  0  0
   39.7240   26.5540   27.7850 N   0  0  0  0  0  0  0  0  0  0  0  0
   37.0830   26.6910   34.2090 C   0  0  2  0  0  0  0  0  0  0  0  0
   38.4070   26.3750   36.4740 C   0  0  1  0  0  0  0  0  0  0  0  0
   39.2170   27.2340   35.6860 C   0  0  0  0  0  0  0  0  0  0  0  0
   37.7780   27.2660   35.4080 C   0  0  1  0  0  0  0  0  0  0  0  0
   39.4270   24.3080   35.5840 C   0  0  0  0  0  0  0  0  0  0  0  0
   38.3890   24.9300   36.2880 C   0  0  0  0  0  0  0  0  0  0  0  0
   37.4180   24.0840   36.7500 C   0  0  0  0  0  0  0  0  0  0  0  0
   37.5000   22.7350   36.5170 N   0  0  0  0  0  0  0  0  0  0  0  0
   38.5260   22.1810   35.8310 C   0  0  0  0  0  0  0  0  0  0  0  0
   39.5180   22.9870   35.3500 N   0  0  0  0  0  0  0  0  0  0  0  0
   37.1190   25.5630   33.5940 O   0  0  0  0  0  0  0  0  0  0  0  0
   35.2171   28.6087   34.4888 H   0  0  0  0  0  0  0  0  0  0  0  0
   36.4946   31.2433   29.9483 H   0  0  0  0  0  0  0  0  0  0  0  0
   37.3927   31.8049   27.6416 H   0  0  0  0  0  0  0  0  0  0  0  0
   40.1838   29.2653   25.8403 H   0  0  0  0  0  0  0  0  0  0  0  0
   41.6673   27.6314   24.6153 H   0  0  0  0  0  0  0  0  0  0  0  0
   40.6383   24.6583   27.4600 H   0  0  0  0  0  0  0  0  0  0  0  0
   36.4343   26.2156   34.9595 H   0  0  0  0  0  0  0  0  0  0  0  0
   38.2927   26.2201   37.5570 H   0  0  0  0  0  0  0  0  0  0  0  0
   39.6948   28.1060   36.1564 H   0  0  0  0  0  0  0  0  0  0  0  0
   40.1038   27.0679   35.0568 H   0  0  0  0  0  0  0  0  0  0  0  0
   37.0258   28.0654   35.3357 H   0  0  0  0  0  0  0  0  0  0  0  0
   40.2301   24.9494   35.1920 H   0  0  0  0  0  0  0  0  0  0  0  0
   36.5644   24.4893   37.3131 H   0  0  0  0  0  0  0  0  0  0  0  0
   38.5608   21.0945   35.6627 H   0  0  0  0  0  0  0  0  0  0  0  0
   37.1425   24.8270   34.2557 H   0  0  0  0  0  0  0  0  0  0  0  0
  1  2  2  0
  1 18  1  0
  3  2  1  0
  4  5  2  0
  4  3  1  0
  5  1  1  0
  6  4  1  0
  7  6  2  0
  8  7  1  0
  9 10  1  0
  9  8  2  0
 10 11  2  0
 11  6  1  0
 12 17  1  0
 12 10  1  0
 13 12  2  0
 14 15  2  0
 14 13  1  0
 15 16  1  0
 16 17  2  0
 18 21  1  0
 20 19  1  0
 21 20  1  0
 21 19  1  0
 22 23  2  0
 23 19  1  0
 23 24  1  0
 25 24  2  0
 26 25  1  0
 27 22  1  0
 27 26  2  0
 28 18  1  0
  2 29  1  0
  7 30  1  0
  8 31  1  0
 13 32  1  0
 14 33  1  0
 16 34  1  0
 18 35  1  1
 19 36  1  1
 20 37  1  0
 20 38  1  0
 21 39  1  1
 22 40  1  0
 24 41  1  0
 26 42  1  0
 28 43  1  0
M  ISO  8  29  14  30  14  31  14  32  14  33  14  34  14  35   8  36  13
M  ISO  7  37  13  38  13  39  13  40  14  41  14  42  14  43   3
M  END
>  <minimizedAffinity>  (1) 
-5.47236538

>  <minimizedRMSD>  (1) 
0.87466681

$$$$
