
     RDKit          3D

 40 44  0  0  1  0  0  0  0  0999 V2000
   37.0870   26.6890   34.2200 C   0  0  1  0  0  0  0  0  0  0  0  0
   38.4030   26.3610   36.4870 C   0  0  1  0  0  0  0  0  0  0  0  0
   39.2070   27.2370   35.7100 C   0  0  0  0  0  0  0  0  0  0  0  0
   37.7700   27.2510   35.4230 C   0  0  1  0  0  0  0  0  0  0  0  0
   39.4350   24.2960   35.5780 C   0  0  0  0  0  0  0  0  0  0  0  0
   38.3880   24.9180   36.2900 C   0  0  0  0  0  0  0  0  0  0  0  0
   37.4170   24.0690   36.7480 C   0  0  0  0  0  0  0  0  0  0  0  0
   37.4940   22.7200   36.5090 N   0  0  0  0  0  0  0  0  0  0  0  0
   38.5270   22.1700   35.8150 C   0  0  0  0  0  0  0  0  0  0  0  0
   39.5130   22.9720   35.3420 N   0  0  0  0  0  0  0  0  0  0  0  0
   36.7990   27.7850   33.1940 C   0  0  0  0  0  0  0  0  0  0  0  0
   35.7980   28.6020   33.5800 C   0  0  0  0  0  0  0  0  0  0  0  0
   35.6830   29.7950   32.0840 S   0  0  0  0  0  0  0  0  0  0  0  0
   37.0790   28.8740   31.2410 C   0  0  0  0  0  0  0  0  0  0  0  0
   37.3260   28.0370   32.0350 N   0  0  0  0  0  0  0  0  0  0  0  0
   37.4870   29.3600   29.9280 C   0  0  0  0  0  0  0  0  0  0  0  0
   37.1260   30.5700   29.4240 C   0  0  0  0  0  0  0  0  0  0  0  0
   37.6100   30.8700   28.1520 C   0  0  0  0  0  0  0  0  0  0  0  0
   38.3800   29.9810   27.5080 N   0  0  0  0  0  0  0  0  0  0  0  0
   38.7340   28.7850   28.0100 C   0  0  0  0  0  0  0  0  0  0  0  0
   38.2510   28.5130   29.2530 N   0  0  0  0  0  0  0  0  0  0  0  0
   39.5690   27.8430   27.2900 C   0  0  0  0  0  0  0  0  0  0  0  0
   39.8080   26.5410   27.4860 N   0  0  0  0  0  0  0  0  0  0  0  0
   40.6330   26.1190   26.5750 O   0  0  0  0  0  0  0  0  0  0  0  0
   40.9550   27.1150   25.7670 C   0  0  0  0  0  0  0  0  0  0  0  0
   40.2840   28.2070   26.2150 N   0  0  0  0  0  0  0  0  0  0  0  0
   37.1320   25.5630   33.5970 O   0  0  0  0  0  0  0  0  0  0  0  0
   36.4342   26.2189   34.9702 H   0  0  0  0  0  0  0  0  0  0  0  0
   38.2928   26.1966   37.5690 H   0  0  0  0  0  0  0  0  0  0  0  0
   39.6697   28.1122   36.1896 H   0  0  0  0  0  0  0  0  0  0  0  0
   40.1002   27.0875   35.0856 H   0  0  0  0  0  0  0  0  0  0  0  0
   37.0067   28.0398   35.3514 H   0  0  0  0  0  0  0  0  0  0  0  0
   40.2418   24.9349   35.1895 H   0  0  0  0  0  0  0  0  0  0  0  0
   36.5649   24.4729   37.3144 H   0  0  0  0  0  0  0  0  0  0  0  0
   38.5621   21.0847   35.6392 H   0  0  0  0  0  0  0  0  0  0  0  0
   35.2053   28.5877   34.5066 H   0  0  0  0  0  0  0  0  0  0  0  0
   36.4903   31.2699   29.9862 H   0  0  0  0  0  0  0  0  0  0  0  0
   37.3616   31.8314   27.6786 H   0  0  0  0  0  0  0  0  0  0  0  0
   41.6331   27.0681   24.9021 H   0  0  0  0  0  0  0  0  0  0  0  0
   37.1616   24.8232   34.2542 H   0  0  0  0  0  0  0  0  0  0  0  0
  1  4  1  0
  3  2  1  0
  4  3  1  0
  4  2  1  0
  5  6  2  0
  6  2  1  0
  6  7  1  0
  8  7  2  0
  9  8  1  0
 10  5  1  0
 10  9  2  0
 11 12  2  0
 11  1  1  0
 13 12  1  0
 14 15  2  0
 14 13  1  0
 15 11  1  0
 16 14  1  0
 17 16  2  0
 18 17  1  0
 19 20  1  0
 19 18  2  0
 20 21  2  0
 21 16  1  0
 22 23  2  0
 22 20  1  0
 24 23  1  0
 25 26  2  0
 25 24  1  0
 26 22  1  0
 27  1  1  0
  1 28  1  1
  2 29  1  1
  3 30  1  0
  3 31  1  0
  4 32  1  1
  5 33  1  0
  7 34  1  0
  9 35  1  0
 12 36  1  0
 17 37  1  0
 18 38  1  0
 25 39  1  0
 27 40  1  0
M  ISO  8  28   8  29  13  30  13  31  13  32  13  33  14  34  14  35  14
M  ISO  5  36  14  37  14  38  14  39  14  40   3
M  END
>  <minimizedAffinity>  (1) 
-5.44400644

>  <minimizedRMSD>  (1) 
0.810783863

$$$$
