
     RDKit          3D

 42 46  0  0  1  0  0  0  0  0999 V2000
   37.1000   26.6880   34.1910 C   0  0  1  0  0  0  0  0  0  0  0  0
   38.3960   26.3690   36.4730 C   0  0  1  0  0  0  0  0  0  0  0  0
   39.2100   27.2370   35.6960 C   0  0  0  0  0  0  0  0  0  0  0  0
   37.7750   27.2560   35.3990 C   0  0  1  0  0  0  0  0  0  0  0  0
   39.4430   24.3070   35.5720 C   0  0  0  0  0  0  0  0  0  0  0  0
   38.3880   24.9200   36.2770 C   0  0  0  0  0  0  0  0  0  0  0  0
   37.4140   24.0730   36.7340 C   0  0  0  0  0  0  0  0  0  0  0  0
   37.4980   22.7230   36.4980 N   0  0  0  0  0  0  0  0  0  0  0  0
   38.5360   22.1760   35.8130 C   0  0  0  0  0  0  0  0  0  0  0  0
   39.5250   22.9840   35.3420 N   0  0  0  0  0  0  0  0  0  0  0  0
   36.7980   27.7870   33.1740 C   0  0  0  0  0  0  0  0  0  0  0  0
   35.8010   28.5960   33.5600 C   0  0  0  0  0  0  0  0  0  0  0  0
   35.6720   29.7930   32.0720 S   0  0  0  0  0  0  0  0  0  0  0  0
   37.0700   28.8820   31.2170 C   0  0  0  0  0  0  0  0  0  0  0  0
   37.3230   28.0430   32.0120 N   0  0  0  0  0  0  0  0  0  0  0  0
   37.4780   29.3800   29.9080 C   0  0  0  0  0  0  0  0  0  0  0  0
   37.0890   30.5840   29.4060 C   0  0  0  0  0  0  0  0  0  0  0  0
   37.5860   30.8960   28.1400 C   0  0  0  0  0  0  0  0  0  0  0  0
   38.3910   30.0310   27.5040 N   0  0  0  0  0  0  0  0  0  0  0  0
   38.7650   28.8520   28.0080 C   0  0  0  0  0  0  0  0  0  0  0  0
   38.2760   28.5530   29.2440 N   0  0  0  0  0  0  0  0  0  0  0  0
   39.6170   27.9920   27.2770 C   0  0  0  0  0  0  0  0  0  0  0  0
   39.8310   26.5880   27.5260 C   0  0  0  0  0  0  0  0  0  0  0  0
   40.7030   25.9350   26.6940 C   0  0  0  0  0  0  0  0  0  0  0  0
   41.3480   26.6170   25.6540 C   0  0  0  0  0  0  0  0  0  0  0  0
   40.6450   28.3710   25.8760 S   0  0  0  0  0  0  0  0  0  0  0  0
   37.1670   25.5660   33.5630 O   0  0  0  0  0  0  0  0  0  0  0  0
   36.4470   26.2013   34.9303 H   0  0  0  0  0  0  0  0  0  0  0  0
   38.2710   26.2117   37.5545 H   0  0  0  0  0  0  0  0  0  0  0  0
   39.6735   28.1128   36.1736 H   0  0  0  0  0  0  0  0  0  0  0  0
   40.1068   27.0796   35.0787 H   0  0  0  0  0  0  0  0  0  0  0  0
   37.0154   28.0475   35.3183 H   0  0  0  0  0  0  0  0  0  0  0  0
   40.2484   24.9493   35.1863 H   0  0  0  0  0  0  0  0  0  0  0  0
   36.5580   24.4771   37.2943 H   0  0  0  0  0  0  0  0  0  0  0  0
   38.5768   21.0904   35.6406 H   0  0  0  0  0  0  0  0  0  0  0  0
   35.2116   28.5769   34.4886 H   0  0  0  0  0  0  0  0  0  0  0  0
   36.4273   31.2652   29.9611 H   0  0  0  0  0  0  0  0  0  0  0  0
   37.3180   31.8506   27.6636 H   0  0  0  0  0  0  0  0  0  0  0  0
   39.3179   26.0647   28.3463 H   0  0  0  0  0  0  0  0  0  0  0  0
   40.8986   24.8631   26.8447 H   0  0  0  0  0  0  0  0  0  0  0  0
   42.0661   26.2405   24.9107 H   0  0  0  0  0  0  0  0  0  0  0  0
   37.2113   24.8240   34.2169 H   0  0  0  0  0  0  0  0  0  0  0  0
  1  4  1  0
  3  2  1  0
  4  3  1  0
  4  2  1  0
  5  6  2  0
  6  2  1  0
  6  7  1  0
  8  7  2  0
  9  8  1  0
 10  5  1  0
 10  9  2  0
 11 12  2  0
 11  1  1  0
 13 12  1  0
 14 15  2  0
 14 13  1  0
 15 11  1  0
 16 14  1  0
 17 16  2  0
 18 17  1  0
 19 20  1  0
 19 18  2  0
 20 21  2  0
 21 16  1  0
 22 23  2  0
 22 20  1  0
 24 23  1  0
 25 26  1  0
 25 24  2  0
 26 22  1  0
 27  1  1  0
  1 28  1  1
  2 29  1  1
  3 30  1  0
  3 31  1  0
  4 32  1  1
  5 33  1  0
  7 34  1  0
  9 35  1  0
 12 36  1  0
 17 37  1  0
 18 38  1  0
 23 39  1  0
 24 40  1  0
 25 41  1  0
 27 42  1  0
M  ISO  8  28   8  29  13  30  13  31  13  32  13  33  14  34  14  35  14
M  ISO  7  36  14  37  14  38  14  39  14  40  14  41  14  42   3
M  END
>  <minimizedAffinity>  (1) 
-5.41103172

>  <minimizedRMSD>  (1) 
0.77999562

$$$$
