
     RDKit          3D

 51 55  0  0  1  0  0  0  0  0999 V2000
   37.0670   26.6890   34.2420 C   0  0  1  0  0  0  0  0  0  0  0  0
   38.4090   26.3690   36.4950 C   0  0  1  0  0  0  0  0  0  0  0  0
   39.2120   27.2340   35.7080 C   0  0  0  0  0  0  0  0  0  0  0  0
   37.7750   27.2640   35.4380 C   0  0  1  0  0  0  0  0  0  0  0  0
   39.4260   24.3070   35.5910 C   0  0  0  0  0  0  0  0  0  0  0  0
   38.3950   24.9200   36.3030 C   0  0  0  0  0  0  0  0  0  0  0  0
   37.4260   24.0750   36.7730 C   0  0  0  0  0  0  0  0  0  0  0  0
   37.5080   22.7260   36.5350 N   0  0  0  0  0  0  0  0  0  0  0  0
   38.5310   22.1780   35.8360 C   0  0  0  0  0  0  0  0  0  0  0  0
   39.5160   22.9860   35.3510 N   0  0  0  0  0  0  0  0  0  0  0  0
   36.7850   27.7850   33.2160 C   0  0  0  0  0  0  0  0  0  0  0  0
   35.8060   28.6170   33.5910 C   0  0  0  0  0  0  0  0  0  0  0  0
   35.7000   29.8010   32.0920 S   0  0  0  0  0  0  0  0  0  0  0  0
   37.0800   28.8560   31.2480 C   0  0  0  0  0  0  0  0  0  0  0  0
   37.3200   28.0200   32.0460 N   0  0  0  0  0  0  0  0  0  0  0  0
   37.4950   29.3290   29.9330 C   0  0  0  0  0  0  0  0  0  0  0  0
   37.1560   30.5490   29.4300 C   0  0  0  0  0  0  0  0  0  0  0  0
   37.6470   30.8340   28.1540 C   0  0  0  0  0  0  0  0  0  0  0  0
   38.4000   29.9300   27.5110 N   0  0  0  0  0  0  0  0  0  0  0  0
   38.7270   28.7350   28.0170 C   0  0  0  0  0  0  0  0  0  0  0  0
   38.2430   28.4680   29.2590 N   0  0  0  0  0  0  0  0  0  0  0  0
   39.5610   27.7260   27.3120 C   0  0  0  0  0  0  0  0  0  0  0  0
   40.3390   28.4140   26.2240 C   0  0  0  0  0  0  0  0  0  0  0  0
   41.1290   27.4220   25.4040 C   0  0  0  0  0  0  0  0  0  0  0  0
   41.2620   26.1060   26.1170 C   0  0  0  0  0  0  0  0  0  0  0  0
   41.6710   26.4040   27.5610 C   0  0  0  0  0  0  0  0  0  0  0  0
   40.5640   27.1510   28.2880 C   0  0  0  0  0  0  0  0  0  0  0  0
   37.0940   25.5600   33.6280 O   0  0  0  0  0  0  0  0  0  0  0  0
   36.4154   26.2191   34.9934 H   0  0  0  0  0  0  0  0  0  0  0  0
   38.2990   26.2074   37.5775 H   0  0  0  0  0  0  0  0  0  0  0  0
   39.6900   28.1046   36.1808 H   0  0  0  0  0  0  0  0  0  0  0  0
   40.0960   27.0736   35.0733 H   0  0  0  0  0  0  0  0  0  0  0  0
   37.0242   28.0651   35.3706 H   0  0  0  0  0  0  0  0  0  0  0  0
   40.2252   24.9516   35.1962 H   0  0  0  0  0  0  0  0  0  0  0  0
   36.5774   24.4793   37.3443 H   0  0  0  0  0  0  0  0  0  0  0  0
   38.5664   21.0925   35.6616 H   0  0  0  0  0  0  0  0  0  0  0  0
   35.2160   28.6194   34.5194 H   0  0  0  0  0  0  0  0  0  0  0  0
   36.5361   31.2629   29.9922 H   0  0  0  0  0  0  0  0  0  0  0  0
   37.4164   31.7982   27.6775 H   0  0  0  0  0  0  0  0  0  0  0  0
   38.9150   26.9373   26.8990 H   0  0  0  0  0  0  0  0  0  0  0  0
   39.6383   28.9469   25.5644 H   0  0  0  0  0  0  0  0  0  0  0  0
   41.0436   29.1172   26.6921 H   0  0  0  0  0  0  0  0  0  0  0  0
   42.1328   27.8310   25.2168 H   0  0  0  0  0  0  0  0  0  0  0  0
   40.5951   27.2512   24.4575 H   0  0  0  0  0  0  0  0  0  0  0  0
   40.3005   25.5718   26.1017 H   0  0  0  0  0  0  0  0  0  0  0  0
   42.0145   25.4729   25.6242 H   0  0  0  0  0  0  0  0  0  0  0  0
   41.8708   25.4565   28.0829 H   0  0  0  0  0  0  0  0  0  0  0  0
   42.5746   27.0312   27.5512 H   0  0  0  0  0  0  0  0  0  0  0  0
   41.0076   27.9710   28.8718 H   0  0  0  0  0  0  0  0  0  0  0  0
   40.0416   26.4436   28.9488 H   0  0  0  0  0  0  0  0  0  0  0  0
   37.1116   24.8245   34.2904 H   0  0  0  0  0  0  0  0  0  0  0  0
  1  4  1  0
  3  2  1  0
  4  3  1  0
  4  2  1  0
  5  6  2  0
  6  2  1  0
  6  7  1  0
  8  7  2  0
  9  8  1  0
 10  5  1  0
 10  9  2  0
 11 12  2  0
 11  1  1  0
 13 12  1  0
 14 15  2  0
 14 13  1  0
 15 11  1  0
 16 14  1  0
 17 16  2  0
 18 17  1  0
 19 20  1  0
 19 18  2  0
 20 21  2  0
 21 16  1  0
 22 20  1  0
 22 27  1  0
 23 22  1  0
 24 25  1  0
 24 23  1  0
 25 26  1  0
 26 27  1  0
 28  1  1  0
  1 29  1  1
  2 30  1  1
  3 31  1  0
  3 32  1  0
  4 33  1  1
  5 34  1  0
  7 35  1  0
  9 36  1  0
 12 37  1  0
 17 38  1  0
 18 39  1  0
 22 40  1  0
 23 41  1  0
 23 42  1  0
 24 43  1  0
 24 44  1  0
 25 45  1  0
 25 46  1  0
 26 47  1  0
 26 48  1  0
 27 49  1  0
 27 50  1  0
 28 51  1  0
M  ISO  8  29   8  30  13  31  13  32  13  33  13  34  14  35  14  36  14
M  ISO  8  37  14  38  14  39  14  40  13  41  13  42  13  43  13  44  13
M  ISO  7  45  13  46  13  47  13  48  13  49  13  50  13  51   3
M  END
>  <minimizedAffinity>  (1) 
-5.39805841

>  <minimizedRMSD>  (1) 
0.802008212

$$$$
