
     RDKit          3D

 48 52  0  0  1  0  0  0  0  0999 V2000
   37.1810   26.5830   33.9760 C   0  0  1  0  0  0  0  0  0  0  0  0
   38.3910   26.4230   36.3190 C   0  0  1  0  0  0  0  0  0  0  0  0
   39.2260   27.2500   35.5200 C   0  0  0  0  0  0  0  0  0  0  0  0
   37.8050   27.2340   35.1680 C   0  0  1  0  0  0  0  0  0  0  0  0
   39.4840   24.3250   35.5820 C   0  0  0  0  0  0  0  0  0  0  0  0
   38.4020   24.9700   36.2180 C   0  0  0  0  0  0  0  0  0  0  0  0
   37.4290   24.1340   36.6930 C   0  0  0  0  0  0  0  0  0  0  0  0
   37.5390   22.7740   36.5430 N   0  0  0  0  0  0  0  0  0  0  0  0
   38.6070   22.2000   35.9210 C   0  0  0  0  0  0  0  0  0  0  0  0
   39.5980   22.9920   35.4320 N   0  0  0  0  0  0  0  0  0  0  0  0
   36.9530   27.6030   32.8600 C   0  0  0  0  0  0  0  0  0  0  0  0
   35.8880   28.3970   33.0990 C   0  0  0  0  0  0  0  0  0  0  0  0
   35.8710   29.4910   31.5240 S   0  0  0  0  0  0  0  0  0  0  0  0
   37.3750   28.5870   30.8760 C   0  0  0  0  0  0  0  0  0  0  0  0
   37.5800   27.8100   31.7400 N   0  0  0  0  0  0  0  0  0  0  0  0
   37.8890   29.0080   29.5820 C   0  0  0  0  0  0  0  0  0  0  0  0
   37.5330   30.1760   28.9750 C   0  0  0  0  0  0  0  0  0  0  0  0
   38.1210   30.4250   27.7280 C   0  0  0  0  0  0  0  0  0  0  0  0
   38.9830   29.5210   27.2100 N   0  0  0  0  0  0  0  0  0  0  0  0
   39.3250   28.3750   27.8200 C   0  0  0  0  0  0  0  0  0  0  0  0
   38.7360   28.1550   29.0370 N   0  0  0  0  0  0  0  0  0  0  0  0
   40.2720   27.4000   27.2330 C   0  0  0  0  0  0  0  0  0  0  0  0
   40.3810   27.5400   25.7290 C   0  0  0  0  0  0  0  0  0  0  0  0
   41.1320   26.2760   25.3640 C   0  0  0  0  0  0  0  0  0  0  0  0
   40.8560   25.2700   26.4660 C   0  0  0  0  0  0  0  0  0  0  0  0
   39.8490   25.9670   27.3860 C   0  0  0  0  0  0  0  0  0  0  0  0
   37.2560   25.4170   33.4370 O   0  0  0  0  0  0  0  0  0  0  0  0
   36.4878   26.1660   34.7214 H   0  0  0  0  0  0  0  0  0  0  0  0
   38.2261   26.3322   37.4028 H   0  0  0  0  0  0  0  0  0  0  0  0
   39.6626   28.1594   35.9586 H   0  0  0  0  0  0  0  0  0  0  0  0
   40.1473   27.0645   34.9484 H   0  0  0  0  0  0  0  0  0  0  0  0
   37.0433   28.0112   35.0074 H   0  0  0  0  0  0  0  0  0  0  0  0
   40.2909   24.9557   35.1806 H   0  0  0  0  0  0  0  0  0  0  0  0
   36.5491   24.5561   37.2006 H   0  0  0  0  0  0  0  0  0  0  0  0
   38.6667   21.1067   35.8156 H   0  0  0  0  0  0  0  0  0  0  0  0
   35.2107   28.4125   33.9656 H   0  0  0  0  0  0  0  0  0  0  0  0
   36.8261   30.8809   29.4370 H   0  0  0  0  0  0  0  0  0  0  0  0
   37.8839   31.3464   27.1759 H   0  0  0  0  0  0  0  0  0  0  0  0
   41.2028   27.6226   27.7753 H   0  0  0  0  0  0  0  0  0  0  0  0
   39.3889   27.5695   25.2548 H   0  0  0  0  0  0  0  0  0  0  0  0
   40.8732   28.4665   25.3984 H   0  0  0  0  0  0  0  0  0  0  0  0
   40.7745   25.8882   24.3987 H   0  0  0  0  0  0  0  0  0  0  0  0
   42.2103   26.4708   25.2676 H   0  0  0  0  0  0  0  0  0  0  0  0
   40.4266   24.3468   26.0497 H   0  0  0  0  0  0  0  0  0  0  0  0
   41.7719   24.9752   26.9992 H   0  0  0  0  0  0  0  0  0  0  0  0
   39.9475   25.6249   28.4268 H   0  0  0  0  0  0  0  0  0  0  0  0
   38.7952   25.7743   27.1363 H   0  0  0  0  0  0  0  0  0  0  0  0
   37.3003   24.7278   34.1463 H   0  0  0  0  0  0  0  0  0  0  0  0
  1  4  1  0
  3  2  1  0
  4  3  1  0
  4  2  1  0
  5  6  2  0
  6  2  1  0
  6  7  1  0
  8  7  2  0
  9  8  1  0
 10  5  1  0
 10  9  2  0
 11 12  2  0
 11  1  1  0
 13 12  1  0
 14 13  1  0
 14 15  2  0
 15 11  1  0
 16 14  1  0
 17 16  2  0
 18 17  1  0
 19 18  2  0
 19 20  1  0
 20 21  2  0
 21 16  1  0
 22 26  1  0
 22 20  1  0
 23 22  1  0
 24 23  1  0
 24 25  1  0
 25 26  1  0
 27  1  1  0
  1 28  1  1
  2 29  1  1
  3 30  1  0
  3 31  1  0
  4 32  1  1
  5 33  1  0
  7 34  1  0
  9 35  1  0
 12 36  1  0
 17 37  1  0
 18 38  1  0
 22 39  1  0
 23 40  1  0
 23 41  1  0
 24 42  1  0
 24 43  1  0
 25 44  1  0
 25 45  1  0
 26 46  1  0
 26 47  1  0
 27 48  1  0
M  ISO  8  28   8  29  13  30  13  31  13  32  13  33  14  34  14  35  14
M  ISO  8  36  14  37  14  38  14  39  13  40  13  41  13  42  13  43  13
M  ISO  5  44  13  45  13  46  13  47  13  48   3
M  END
>  <minimizedAffinity>  (1) 
-5.34959126

>  <minimizedRMSD>  (1) 
0.585379303

$$$$
