
     RDKit          3D

 37 40  0  0  1  0  0  0  0  0999 V2000
   37.0890   26.7220   34.2200 C   0  0  1  0  0  0  0  0  0  0  0  0
   38.4280   26.3560   36.4700 C   0  0  1  0  0  0  0  0  0  0  0  0
   39.2350   27.2230   35.6890 C   0  0  0  0  0  0  0  0  0  0  0  0
   37.7970   27.2630   35.4180 C   0  0  1  0  0  0  0  0  0  0  0  0
   39.4220   24.2970   35.5240 C   0  0  0  0  0  0  0  0  0  0  0  0
   38.3920   24.9160   36.2590 C   0  0  0  0  0  0  0  0  0  0  0  0
   37.4220   24.0670   36.7190 C   0  0  0  0  0  0  0  0  0  0  0  0
   37.4870   22.7200   36.4600 N   0  0  0  0  0  0  0  0  0  0  0  0
   38.5060   22.1730   35.7430 C   0  0  0  0  0  0  0  0  0  0  0  0
   39.4960   22.9800   35.2650 N   0  0  0  0  0  0  0  0  0  0  0  0
   36.7510   27.8490   33.2420 C   0  0  0  0  0  0  0  0  0  0  0  0
   35.7550   28.6400   33.6870 C   0  0  0  0  0  0  0  0  0  0  0  0
   35.5730   29.8770   32.2340 S   0  0  0  0  0  0  0  0  0  0  0  0
   36.9490   29.0020   31.3160 C   0  0  0  0  0  0  0  0  0  0  0  0
   37.2370   28.1440   32.0710 N   0  0  0  0  0  0  0  0  0  0  0  0
   37.3110   29.5360   30.0060 C   0  0  0  0  0  0  0  0  0  0  0  0
   36.9270   30.7650   29.5610 C   0  0  0  0  0  0  0  0  0  0  0  0
   37.3680   31.1100   28.2870 C   0  0  0  0  0  0  0  0  0  0  0  0
   38.1220   30.2510   27.5850 N   0  0  0  0  0  0  0  0  0  0  0  0
   38.4960   29.0410   28.0290 C   0  0  0  0  0  0  0  0  0  0  0  0
   38.0560   28.7190   29.2760 N   0  0  0  0  0  0  0  0  0  0  0  0
   39.2950   28.1690   27.2440 N   0  0  0  0  0  0  0  0  0  0  0  0
   37.1250   25.6160   33.5640 O   0  0  0  0  0  0  0  0  0  0  0  0
   36.4782   26.2025   34.9730 H   0  0  0  0  0  0  0  0  0  0  0  0
   38.3261   26.1869   37.5521 H   0  0  0  0  0  0  0  0  0  0  0  0
   39.7173   28.0877   36.1683 H   0  0  0  0  0  0  0  0  0  0  0  0
   40.1181   27.0624   35.0532 H   0  0  0  0  0  0  0  0  0  0  0  0
   37.0462   28.0647   35.3591 H   0  0  0  0  0  0  0  0  0  0  0  0
   40.2252   24.9388   35.1330 H   0  0  0  0  0  0  0  0  0  0  0  0
   36.5806   24.4683   37.3029 H   0  0  0  0  0  0  0  0  0  0  0  0
   38.5310   21.0902   35.5508 H   0  0  0  0  0  0  0  0  0  0  0  0
   35.1952   28.5893   34.6326 H   0  0  0  0  0  0  0  0  0  0  0  0
   36.3083   31.4410   30.1694 H   0  0  0  0  0  0  0  0  0  0  0  0
   37.0987   32.0857   27.8563 H   0  0  0  0  0  0  0  0  0  0  0  0
   39.5656   27.2463   27.6131 H   0  0  0  0  0  0  0  0  0  0  0  0
   39.6042   28.4590   26.3053 H   0  0  0  0  0  0  0  0  0  0  0  0
   37.1497   24.8566   34.1986 H   0  0  0  0  0  0  0  0  0  0  0  0
  1  4  1  0
  3  2  1  0
  4  3  1  0
  4  2  1  0
  5  6  2  0
  6  2  1  0
  6  7  1  0
  8  7  2  0
  9  8  1  0
 10  5  1  0
 10  9  2  0
 11 12  2  0
 11  1  1  0
 13 12  1  0
 14 15  2  0
 14 13  1  0
 15 11  1  0
 16 14  1  0
 17 16  2  0
 18 17  1  0
 19 20  1  0
 19 18  2  0
 20 21  2  0
 21 16  1  0
 22 20  1  0
 23  1  1  0
  1 24  1  1
  2 25  1  1
  3 26  1  0
  3 27  1  0
  4 28  1  1
  5 29  1  0
  7 30  1  0
  9 31  1  0
 12 32  1  0
 17 33  1  0
 18 34  1  0
 22 35  1  0
 22 36  1  0
 23 37  1  0
M  ISO  8  24   8  25  13  26  13  27  13  28  13  29  14  30  14  31  14
M  ISO  4  32  14  33  14  34  14  37   3
M  END
>  <minimizedAffinity>  (1) 
-5.34946632

>  <minimizedRMSD>  (1) 
0.852532148

$$$$
