
     RDKit          3D

 36 39  0  0  1  0  0  0  0  0999 V2000
   37.1190   26.6510   34.1100 C   0  0  1  0  0  0  0  0  0  0  0  0
   38.3560   26.3980   36.4300 C   0  0  1  0  0  0  0  0  0  0  0  0
   39.1800   27.2600   35.6550 C   0  0  0  0  0  0  0  0  0  0  0  0
   37.7540   27.2540   35.3220 C   0  0  1  0  0  0  0  0  0  0  0  0
   39.4600   24.3400   35.5910 C   0  0  0  0  0  0  0  0  0  0  0  0
   38.3790   24.9480   36.2620 C   0  0  0  0  0  0  0  0  0  0  0  0
   37.4140   24.0870   36.7100 C   0  0  0  0  0  0  0  0  0  0  0  0
   37.5350   22.7370   36.4990 N   0  0  0  0  0  0  0  0  0  0  0  0
   38.5940   22.1970   35.8490 C   0  0  0  0  0  0  0  0  0  0  0  0
   39.5760   23.0150   35.3850 N   0  0  0  0  0  0  0  0  0  0  0  0
   36.8370   27.7260   33.0600 C   0  0  0  0  0  0  0  0  0  0  0  0
   35.8080   28.5220   33.3910 C   0  0  0  0  0  0  0  0  0  0  0  0
   35.7160   29.6860   31.8730 S   0  0  0  0  0  0  0  0  0  0  0  0
   37.1640   28.7860   31.0960 C   0  0  0  0  0  0  0  0  0  0  0  0
   37.4050   27.9700   31.9110 N   0  0  0  0  0  0  0  0  0  0  0  0
   37.6050   29.2610   29.7900 C   0  0  0  0  0  0  0  0  0  0  0  0
   37.2420   30.4590   29.2540 C   0  0  0  0  0  0  0  0  0  0  0  0
   37.7590   30.7500   27.9880 C   0  0  0  0  0  0  0  0  0  0  0  0
   38.5640   29.8530   27.3890 N   0  0  0  0  0  0  0  0  0  0  0  0
   38.9190   28.6760   27.9170 C   0  0  0  0  0  0  0  0  0  0  0  0
   38.4020   28.4150   29.1550 N   0  0  0  0  0  0  0  0  0  0  0  0
   39.9920   27.5080   27.0930 S   0  0  0  0  0  0  0  0  0  0  0  0
   37.2010   25.5160   33.5110 O   0  0  0  0  0  0  0  0  0  0  0  0
   36.4625   26.1677   34.8485 H   0  0  0  0  0  0  0  0  0  0  0  0
   38.2001   26.2621   37.5104 H   0  0  0  0  0  0  0  0  0  0  0  0
   39.6204   28.1517   36.1251 H   0  0  0  0  0  0  0  0  0  0  0  0
   40.0942   27.1011   35.0643 H   0  0  0  0  0  0  0  0  0  0  0  0
   36.9874   28.0342   35.2052 H   0  0  0  0  0  0  0  0  0  0  0  0
   40.2609   24.9913   35.2110 H   0  0  0  0  0  0  0  0  0  0  0  0
   36.5356   24.4802   37.2428 H   0  0  0  0  0  0  0  0  0  0  0  0
   38.6586   21.1093   35.6984 H   0  0  0  0  0  0  0  0  0  0  0  0
   35.1825   28.5091   34.2957 H   0  0  0  0  0  0  0  0  0  0  0  0
   36.5800   31.1577   29.7865 H   0  0  0  0  0  0  0  0  0  0  0  0
   37.5114   31.6984   27.4887 H   0  0  0  0  0  0  0  0  0  0  0  0
   40.6690   26.7711   28.0287 H   0  0  0  0  0  0  0  0  0  0  0  0
   37.2534   24.7911   34.1832 H   0  0  0  0  0  0  0  0  0  0  0  0
  1  4  1  0
  3  2  1  0
  4  3  1  0
  4  2  1  0
  5  6  2  0
  6  2  1  0
  6  7  1  0
  8  7  2  0
  9  8  1  0
 10  5  1  0
 10  9  2  0
 11 12  2  0
 11  1  1  0
 13 12  1  0
 14 13  1  0
 14 15  2  0
 15 11  1  0
 16 14  1  0
 17 16  2  0
 18 17  1  0
 19 20  1  0
 19 18  2  0
 20 21  2  0
 21 16  1  0
 22 20  1  0
 23  1  1  0
  1 24  1  1
  2 25  1  1
  3 26  1  0
  3 27  1  0
  4 28  1  1
  5 29  1  0
  7 30  1  0
  9 31  1  0
 12 32  1  0
 17 33  1  0
 18 34  1  0
 22 35  1  0
 23 36  1  0
M  ISO  8  24   8  25  13  26  13  27  13  28  13  29  14  30  14  31  14
M  ISO  5  32  14  33  14  34  14  35  11  36   3
M  END
>  <minimizedAffinity>  (1) 
-5.23741961

>  <minimizedRMSD>  (1) 
0.554479897

$$$$
