
     RDKit          3D

 42 46  0  0  1  0  0  0  0  0999 V2000
   37.1260   26.6250   34.0890 C   0  0  1  0  0  0  0  0  0  0  0  0
   38.3380   26.3890   36.4280 C   0  0  1  0  0  0  0  0  0  0  0  0
   39.1610   27.2630   35.6700 C   0  0  0  0  0  0  0  0  0  0  0  0
   37.7420   27.2370   35.3110 C   0  0  1  0  0  0  0  0  0  0  0  0
   39.4610   24.3450   35.6110 C   0  0  0  0  0  0  0  0  0  0  0  0
   38.3770   24.9410   36.2660 C   0  0  0  0  0  0  0  0  0  0  0  0
   37.4160   24.0700   36.7070 C   0  0  0  0  0  0  0  0  0  0  0  0
   37.5450   22.7220   36.5020 N   0  0  0  0  0  0  0  0  0  0  0  0
   38.6220   22.1930   35.8590 C   0  0  0  0  0  0  0  0  0  0  0  0
   39.6010   23.0230   35.4040 N   0  0  0  0  0  0  0  0  0  0  0  0
   36.8860   27.6940   33.0230 C   0  0  0  0  0  0  0  0  0  0  0  0
   35.8540   28.5060   33.3190 C   0  0  0  0  0  0  0  0  0  0  0  0
   35.8210   29.6590   31.7930 S   0  0  0  0  0  0  0  0  0  0  0  0
   37.2820   28.7370   31.0660 C   0  0  0  0  0  0  0  0  0  0  0  0
   37.4860   27.9250   31.8940 N   0  0  0  0  0  0  0  0  0  0  0  0
   37.7640   29.1950   29.7680 C   0  0  0  0  0  0  0  0  0  0  0  0
   37.2690   30.2730   29.1120 C   0  0  0  0  0  0  0  0  0  0  0  0
   37.8450   30.5660   27.8700 C   0  0  0  0  0  0  0  0  0  0  0  0
   38.8350   29.7810   27.4030 N   0  0  0  0  0  0  0  0  0  0  0  0
   39.3220   28.7110   28.0600 C   0  0  0  0  0  0  0  0  0  0  0  0
   38.7410   28.4500   29.2690 N   0  0  0  0  0  0  0  0  0  0  0  0
   40.4160   27.8550   27.5300 C   0  0  0  0  0  0  0  0  0  0  0  0
   39.9390   26.4600   27.0980 C   0  0  0  0  0  0  0  0  0  0  0  0
   40.4470   27.4770   26.1000 C   0  0  0  0  0  0  0  0  0  0  0  0
   37.2020   25.4820   33.5090 O   0  0  0  0  0  0  0  0  0  0  0  0
   36.4463   26.1531   34.8138 H   0  0  0  0  0  0  0  0  0  0  0  0
   38.1696   26.2493   37.5060 H   0  0  0  0  0  0  0  0  0  0  0  0
   39.5797   28.1603   36.1491 H   0  0  0  0  0  0  0  0  0  0  0  0
   40.0878   27.1183   35.0955 H   0  0  0  0  0  0  0  0  0  0  0  0
   36.9688   28.0081   35.1782 H   0  0  0  0  0  0  0  0  0  0  0  0
   40.2571   25.0062   35.2380 H   0  0  0  0  0  0  0  0  0  0  0  0
   36.5305   24.4578   37.2318 H   0  0  0  0  0  0  0  0  0  0  0  0
   38.7006   21.1062   35.7085 H   0  0  0  0  0  0  0  0  0  0  0  0
   35.2017   28.5064   34.2047 H   0  0  0  0  0  0  0  0  0  0  0  0
   36.4578   30.8851   29.5331 H   0  0  0  0  0  0  0  0  0  0  0  0
   37.4933   31.4270   27.2826 H   0  0  0  0  0  0  0  0  0  0  0  0
   41.1779   28.2918   28.1923 H   0  0  0  0  0  0  0  0  0  0  0  0
   40.5385   25.5693   27.3373 H   0  0  0  0  0  0  0  0  0  0  0  0
   39.0213   25.8664   27.2220 H   0  0  0  0  0  0  0  0  0  0  0  0
   41.4132   27.3144   25.6001 H   0  0  0  0  0  0  0  0  0  0  0  0
   40.0376   27.9201   25.1802 H   0  0  0  0  0  0  0  0  0  0  0  0
   37.2495   24.7675   34.1927 H   0  0  0  0  0  0  0  0  0  0  0  0
  1  4  1  0
  3  2  1  0
  4  3  1  0
  4  2  1  0
  5  6  2  0
  6  2  1  0
  6  7  1  0
  8  7  2  0
  9  8  1  0
 10  5  1  0
 10  9  2  0
 11 12  2  0
 11  1  1  0
 13 12  1  0
 14 13  1  0
 14 15  2  0
 15 11  1  0
 16 14  1  0
 17 16  2  0
 18 17  1  0
 19 18  2  0
 19 20  1  0
 20 21  2  0
 21 16  1  0
 22 20  1  0
 23 22  1  0
 24 23  1  0
 24 22  1  0
 25  1  1  0
  1 26  1  1
  2 27  1  1
  3 28  1  0
  3 29  1  0
  4 30  1  1
  5 31  1  0
  7 32  1  0
  9 33  1  0
 12 34  1  0
 17 35  1  0
 18 36  1  0
 22 37  1  0
 23 38  1  0
 23 39  1  0
 24 40  1  0
 24 41  1  0
 25 42  1  0
M  ISO  8  26   8  27  13  28  13  29  13  30  13  31  14  32  14  33  14
M  ISO  8  34  14  35  14  36  14  37  13  38  13  39  13  40  13  41  13
M  ISO  1  42   3
M  END
>  <minimizedAffinity>  (1) 
-5.19005299

>  <minimizedRMSD>  (1) 
0.477026939

$$$$
