
     RDKit          3D

 37 40  0  0  1  0  0  0  0  0999 V2000
   37.1030   26.6940   34.1710 C   0  0  1  0  0  0  0  0  0  0  0  0
   38.3920   26.3650   36.4510 C   0  0  1  0  0  0  0  0  0  0  0  0
   39.2080   27.2390   35.6840 C   0  0  0  0  0  0  0  0  0  0  0  0
   37.7730   27.2580   35.3830 C   0  0  1  0  0  0  0  0  0  0  0  0
   39.4520   24.3130   35.5430 C   0  0  0  0  0  0  0  0  0  0  0  0
   38.3920   24.9160   36.2500 C   0  0  0  0  0  0  0  0  0  0  0  0
   37.4220   24.0660   36.7040 C   0  0  0  0  0  0  0  0  0  0  0  0
   37.5080   22.7180   36.4660 N   0  0  0  0  0  0  0  0  0  0  0  0
   38.5520   22.1770   35.7770 C   0  0  0  0  0  0  0  0  0  0  0  0
   39.5380   22.9890   35.3090 N   0  0  0  0  0  0  0  0  0  0  0  0
   36.8030   27.7980   33.1540 C   0  0  0  0  0  0  0  0  0  0  0  0
   35.7970   28.6010   33.5500 C   0  0  0  0  0  0  0  0  0  0  0  0
   35.6610   29.8070   32.0710 S   0  0  0  0  0  0  0  0  0  0  0  0
   37.0640   28.9110   31.2130 C   0  0  0  0  0  0  0  0  0  0  0  0
   37.3260   28.0660   31.9960 N   0  0  0  0  0  0  0  0  0  0  0  0
   37.4640   29.4180   29.9050 C   0  0  0  0  0  0  0  0  0  0  0  0
   37.0530   30.6160   29.4040 C   0  0  0  0  0  0  0  0  0  0  0  0
   37.5420   30.9440   28.1360 C   0  0  0  0  0  0  0  0  0  0  0  0
   38.3590   30.0910   27.5020 N   0  0  0  0  0  0  0  0  0  0  0  0
   38.7560   28.9140   28.0060 C   0  0  0  0  0  0  0  0  0  0  0  0
   38.2730   28.6110   29.2370 N   0  0  0  0  0  0  0  0  0  0  0  0
   39.6480   28.0060   27.2890 C   0  0  0  0  0  0  0  0  0  0  0  0
   39.6060   26.7820   27.5860 O   0  0  0  0  0  0  0  0  0  0  0  0
   37.1680   25.5750   33.5370 O   0  0  0  0  0  0  0  0  0  0  0  0
   36.4553   26.2028   34.9121 H   0  0  0  0  0  0  0  0  0  0  0  0
   38.2603   26.1999   37.5305 H   0  0  0  0  0  0  0  0  0  0  0  0
   39.6690   28.1117   36.1697 H   0  0  0  0  0  0  0  0  0  0  0  0
   40.1071   27.0875   35.0686 H   0  0  0  0  0  0  0  0  0  0  0  0
   37.0133   28.0497   35.3054 H   0  0  0  0  0  0  0  0  0  0  0  0
   40.2548   24.9604   35.1605 H   0  0  0  0  0  0  0  0  0  0  0  0
   36.5650   24.4669   37.2651 H   0  0  0  0  0  0  0  0  0  0  0  0
   38.5970   21.0922   35.6007 H   0  0  0  0  0  0  0  0  0  0  0  0
   35.2086   28.5713   34.4789 H   0  0  0  0  0  0  0  0  0  0  0  0
   36.3791   31.2831   29.9616 H   0  0  0  0  0  0  0  0  0  0  0  0
   37.2584   31.8952   27.6619 H   0  0  0  0  0  0  0  0  0  0  0  0
   40.3344   28.3788   26.5145 H   0  0  0  0  0  0  0  0  0  0  0  0
   37.2113   24.8295   34.1870 H   0  0  0  0  0  0  0  0  0  0  0  0
  1  4  1  0
  3  2  1  0
  4  3  1  0
  4  2  1  0
  5  6  2  0
  6  2  1  0
  6  7  1  0
  8  7  2  0
  9  8  1  0
 10  5  1  0
 10  9  2  0
 11 12  2  0
 11  1  1  0
 13 12  1  0
 14 15  2  0
 14 13  1  0
 15 11  1  0
 16 14  1  0
 17 16  2  0
 18 17  1  0
 19 20  1  0
 19 18  2  0
 20 21  2  0
 21 16  1  0
 22 23  2  0
 22 20  1  0
 24  1  1  0
  1 25  1  1
  2 26  1  1
  3 27  1  0
  3 28  1  0
  4 29  1  1
  5 30  1  0
  7 31  1  0
  9 32  1  0
 12 33  1  0
 17 34  1  0
 18 35  1  0
 22 36  1  0
 24 37  1  0
M  ISO  8  25   8  26  13  27  13  28  13  29  13  30  14  31  14  32  14
M  ISO  5  33  14  34  14  35  14  36   6  37   3
M  END
>  <minimizedAffinity>  (1) 
-5.1599865

>  <minimizedRMSD>  (1) 
0.722985625

$$$$
