
     RDKit          3D

 22 23  0  0  0  0  0  0  0  0999 V2000
   37.9900   24.5450   37.3590 C   0  0  0  0  0  0  0  0  0  0  0  0
   38.5800   24.8980   36.1170 C   0  0  0  0  0  0  0  0  0  0  0  0
   39.6930   24.1660   35.6900 C   0  0  0  0  0  0  0  0  0  0  0  0
   40.1430   23.1530   36.4970 N   0  0  0  0  0  0  0  0  0  0  0  0
   39.5540   22.8520   37.6670 C   0  0  0  0  0  0  0  0  0  0  0  0
   38.4830   23.5440   38.0950 N   0  0  0  0  0  0  0  0  0  0  0  0
   38.1140   25.9470   35.2810 N   0  0  0  0  0  0  0  0  0  0  0  0
   38.0830   27.3820   35.5870 C   0  0  0  0  0  0  0  0  0  0  0  0
   36.8960   27.7920   34.7130 C   0  0  0  0  0  0  0  0  0  0  0  0
   37.3710   27.1330   33.4120 C   0  0  0  0  0  0  0  0  0  0  0  0
   37.5780   25.7150   33.9340 C   0  0  0  0  0  0  0  0  0  0  0  0
   37.1142   25.1035   37.7211 H   0  0  0  0  0  0  0  0  0  0  0  0
   40.1915   24.3959   34.7368 H   0  0  0  0  0  0  0  0  0  0  0  0
   39.9521   22.0308   38.2812 H   0  0  0  0  0  0  0  0  0  0  0  0
   37.8936   27.5715   36.6539 H   0  0  0  0  0  0  0  0  0  0  0  0
   39.0199   27.9254   35.3948 H   0  0  0  0  0  0  0  0  0  0  0  0
   35.9455   27.3715   35.0730 H   0  0  0  0  0  0  0  0  0  0  0  0
   36.6753   28.8685   34.6628 H   0  0  0  0  0  0  0  0  0  0  0  0
   38.3060   27.5777   33.0403 H   0  0  0  0  0  0  0  0  0  0  0  0
   36.6902   27.2295   32.5534 H   0  0  0  0  0  0  0  0  0  0  0  0
   36.6271   25.1635   33.9742 H   0  0  0  0  0  0  0  0  0  0  0  0
   38.2377   25.1059   33.2986 H   0  0  0  0  0  0  0  0  0  0  0  0
  1  6  2  0
  2  1  1  0
  3  2  2  0
  3  4  1  0
  4  5  2  0
  5  6  1  0
  7  8  1  0
  7  2  1  0
  9  8  1  0
 10 11  1  0
 10  9  1  0
 11  7  1  0
  1 12  1  0
  3 13  1  0
  5 14  1  0
  8 15  1  0
  8 16  1  0
  9 17  1  0
  9 18  1  0
 10 19  1  0
 10 20  1  0
 11 21  1  0
 11 22  1  0
M  ISO  8  12  14  13  14  14  14  15  13  16  13  17  13  18  13  19  13
M  ISO  3  20  13  21  13  22  13
M  END
>  <minimizedAffinity>  (1) 
-3.443542

>  <minimizedRMSD>  (1) 
5.17400599

$$$$
