
     RDKit          3D

 26 28  0  0  0  0  0  0  0  0999 V2000
   40.3450   22.9680   35.4920 C   0  0  0  0  0  0  0  0  0  0  0  0
   40.0390   22.4250   36.7470 C   0  0  0  0  0  0  0  0  0  0  0  0
   39.0810   23.0870   37.5130 C   0  0  0  0  0  0  0  0  0  0  0  0
   38.4820   24.2110   37.0370 N   0  0  0  0  0  0  0  0  0  0  0  0
   38.8120   24.7050   35.8060 C   0  0  0  0  0  0  0  0  0  0  0  0
   39.7260   24.0890   35.0560 N   0  0  0  0  0  0  0  0  0  0  0  0
   38.6430   22.6810   38.8120 N   0  0  0  0  0  0  0  0  0  0  0  0
   38.2000   25.8800   35.2830 N   0  0  0  0  0  0  0  0  0  0  0  0
   38.1750   27.0490   35.9800 C   0  0  0  0  0  0  0  0  0  0  0  0
   37.5410   27.9900   35.2600 N   0  0  0  0  0  0  0  0  0  0  0  0
   37.1530   27.4480   34.1030 C   0  0  0  0  0  0  0  0  0  0  0  0
   36.4790   27.8640   32.9620 C   0  0  0  0  0  0  0  0  0  0  0  0
   36.0860   29.0560   32.9080 O   0  0  0  0  0  0  0  0  0  0  0  0
   36.2510   27.0100   31.9400 N   0  0  0  0  0  0  0  0  0  0  0  0
   36.6700   25.7180   31.9850 C   0  0  0  0  0  0  0  0  0  0  0  0
   36.3660   24.9300   30.8460 N   0  0  0  0  0  0  0  0  0  0  0  0
   37.3310   25.2950   33.0950 N   0  0  0  0  0  0  0  0  0  0  0  0
   37.5690   26.1270   34.1240 C   0  0  0  0  0  0  0  0  0  0  0  0
   41.0960   22.4778   34.8550 H   0  0  0  0  0  0  0  0  0  0  0  0
   40.5346   21.5136   37.1127 H   0  0  0  0  0  0  0  0  0  0  0  0
   37.9279   23.2306   39.3095 H   0  0  0  0  0  0  0  0  0  0  0  0
   39.0425   21.8389   39.2503 H   0  0  0  0  0  0  0  0  0  0  0  0
   38.6077   27.2003   36.9799 H   0  0  0  0  0  0  0  0  0  0  0  0
   35.7475   27.3463   31.1068 H   0  0  0  0  0  0  0  0  0  0  0  0
   36.6537   23.9416   30.8119 H   0  0  0  0  0  0  0  0  0  0  0  0
   35.8575   25.3460   30.0527 H   0  0  0  0  0  0  0  0  0  0  0  0
  1  2  2  0
  2  3  1  0
  3  7  1  0
  4  3  2  0
  5  4  1  0
  6  1  1  0
  6  5  2  0
  8  5  1  0
  8  9  1  0
 10  9  2  0
 11 18  2  0
 11 10  1  0
 12 11  1  0
 13 12  2  0
 14 15  1  0
 14 12  1  0
 15 17  2  0
 16 15  1  0
 17 18  1  0
 18  8  1  0
  1 19  1  0
  2 20  1  0
  7 21  1  0
  7 22  1  0
  9 23  1  0
 14 24  1  0
 16 25  1  0
 16 26  1  0
M  ISO  4  19  14  20  14  23  14  24   9
M  END
>  <minimizedAffinity>  (1) 
-5.80769634

>  <minimizedRMSD>  (1) 
5.06403637

$$$$
