
     RDKit          3D

 25 26  0  0  0  0  0  0  0  0999 V2000
   40.9090   23.1700   36.2500 C   0  0  0  0  0  0  0  0  0  0  0  0
   40.3360   22.6890   37.4240 C   0  0  0  0  0  0  0  0  0  0  0  0
   39.0580   23.1410   37.7460 C   0  0  0  0  0  0  0  0  0  0  0  0
   38.4280   24.0280   36.9020 N   0  0  0  0  0  0  0  0  0  0  0  0
   39.0390   24.4620   35.7690 C   0  0  0  0  0  0  0  0  0  0  0  0
   40.2610   24.0370   35.4520 N   0  0  0  0  0  0  0  0  0  0  0  0
   38.3090   22.7660   38.8960 N   0  0  0  0  0  0  0  0  0  0  0  0
   38.2730   25.3870   34.9760 N   0  0  0  0  0  0  0  0  0  0  0  0
   37.8310   25.0200   33.7550 C   0  0  0  0  0  0  0  0  0  0  0  0
   37.0980   25.9450   33.0310 C   0  0  0  0  0  0  0  0  0  0  0  0
   36.5680   25.6350   31.6810 C   0  0  0  0  0  0  0  0  0  0  0  0
   36.8430   27.2060   33.5730 C   0  0  0  0  0  0  0  0  0  0  0  0
   36.1770   28.0950   32.9560 O   0  0  0  0  0  0  0  0  0  0  0  0
   37.3270   27.4820   34.8020 N   0  0  0  0  0  0  0  0  0  0  0  0
   38.0390   26.5970   35.5190 C   0  0  0  0  0  0  0  0  0  0  0  0
   38.4620   26.9140   36.6570 O   0  0  0  0  0  0  0  0  0  0  0  0
   41.9172   22.8324   35.9680 H   0  0  0  0  0  0  0  0  0  0  0  0
   40.8714   21.9797   38.0722 H   0  0  0  0  0  0  0  0  0  0  0  0
   37.3678   23.1560   39.0473 H   0  0  0  0  0  0  0  0  0  0  0  0
   38.7080   22.1045   39.5773 H   0  0  0  0  0  0  0  0  0  0  0  0
   38.0456   24.0205   33.3489 H   0  0  0  0  0  0  0  0  0  0  0  0
   35.6221   25.0817   31.7766 H   0  0  0  0  0  0  0  0  0  0  0  0
   36.3909   26.5719   31.1325 H   0  0  0  0  0  0  0  0  0  0  0  0
   37.2979   25.0214   31.1325 H   0  0  0  0  0  0  0  0  0  0  0  0
   37.1426   28.4107   35.2075 H   0  0  0  0  0  0  0  0  0  0  0  0
  1  2  2  0
  2  3  1  0
  3  7  1  0
  4  3  2  0
  5  4  1  0
  6  5  2  0
  6  1  1  0
  8 15  1  0
  8  5  1  0
  9  8  1  0
 10 12  1  0
 10  9  2  0
 11 10  1  0
 12 14  1  0
 13 12  2  0
 14 15  1  0
 15 16  2  0
  1 17  1  0
  2 18  1  0
  7 19  1  0
  7 20  1  0
  9 21  1  0
 11 22  1  0
 11 23  1  0
 11 24  1  0
 14 25  1  0
M  ISO  7  17  14  18  14  21  14  22   8  23   8  24   8  25   9
M  END
>  <minimizedAffinity>  (1) 
-5.19391108

>  <minimizedRMSD>  (1) 
3.59133363

$$$$
