
     RDKit          3D

 26 28  0  0  0  0  0  0  0  0999 V2000
   40.2970   22.1340   36.7460 C   0  0  0  0  0  0  0  0  0  0  0  0
   39.7460   22.8340   37.8250 C   0  0  0  0  0  0  0  0  0  0  0  0
   38.5750   23.5460   37.6130 C   0  0  0  0  0  0  0  0  0  0  0  0
   38.0110   23.5390   36.3740 N   0  0  0  0  0  0  0  0  0  0  0  0
   38.5760   22.8470   35.3430 C   0  0  0  0  0  0  0  0  0  0  0  0
   39.7100   22.1530   35.5420 N   0  0  0  0  0  0  0  0  0  0  0  0
   37.8670   24.3150   38.5800 N   0  0  0  0  0  0  0  0  0  0  0  0
   37.8830   22.9080   34.0490 C   0  0  0  0  0  0  0  0  0  0  0  0
   38.0350   23.8410   33.0390 C   0  0  0  0  0  0  0  0  0  0  0  0
   37.2030   23.5220   32.0220 N   0  0  0  0  0  0  0  0  0  0  0  0
   36.5110   22.4040   32.3390 C   0  0  0  0  0  0  0  0  0  0  0  0
   35.5430   21.6680   31.6520 C   0  0  0  0  0  0  0  0  0  0  0  0
   34.9740   20.5380   32.2010 C   0  0  0  0  0  0  0  0  0  0  0  0
   35.3910   20.1560   33.4520 C   0  0  0  0  0  0  0  0  0  0  0  0
   36.3530   20.8920   34.1280 C   0  0  0  0  0  0  0  0  0  0  0  0
   36.9290   22.0260   33.5850 C   0  0  0  0  0  0  0  0  0  0  0  0
   41.2247   21.5603   36.8883 H   0  0  0  0  0  0  0  0  0  0  0  0
   40.2281   22.8199   38.8136 H   0  0  0  0  0  0  0  0  0  0  0  0
   37.0021   24.8070   38.3139 H   0  0  0  0  0  0  0  0  0  0  0  0
   38.2198   24.3792   39.5456 H   0  0  0  0  0  0  0  0  0  0  0  0
   38.7203   24.7012   33.0598 H   0  0  0  0  0  0  0  0  0  0  0  0
   37.1105   24.0490   31.1419 H   0  0  0  0  0  0  0  0  0  0  0  0
   35.2275   21.9969   30.6509 H   0  0  0  0  0  0  0  0  0  0  0  0
   34.2120   19.9624   31.6551 H   0  0  0  0  0  0  0  0  0  0  0  0
   34.9592   19.2599   33.9216 H   0  0  0  0  0  0  0  0  0  0  0  0
   36.6682   20.5628   35.1291 H   0  0  0  0  0  0  0  0  0  0  0  0
  1  2  2  0
  3  2  1  0
  3  7  1  0
  4  3  2  0
  5  6  2  0
  5  4  1  0
  6  1  1  0
  8  5  1  0
  9  8  2  0
 10 11  1  0
 10  9  1  0
 11 16  2  0
 12 13  2  0
 12 11  1  0
 13 14  1  0
 14 15  2  0
 16  8  1  0
 16 15  1  0
  1 17  1  0
  2 18  1  0
  7 19  1  0
  7 20  1  0
  9 21  1  0
 10 22  1  0
 12 23  1  0
 13 24  1  0
 14 25  1  0
 15 26  1  0
M  ISO  8  17  14  18  14  21  14  22   9  23  14  24  14  25  14  26  14
M  END
>  <minimizedAffinity>  (1) 
-4.95732403

>  <minimizedRMSD>  (1) 
1.37190259

$$$$
