
     RDKit          3D

 18 19  0  0  0  0  0  0  0  0999 V2000
   37.4650   23.4580   37.0380 C   0  0  0  0  0  0  0  0  0  0  0  0
   38.3300   22.8750   36.1020 C   0  0  0  0  0  0  0  0  0  0  0  0
   39.6040   22.5250   36.5390 C   0  0  0  0  0  0  0  0  0  0  0  0
   39.9560   22.7570   37.8340 N   0  0  0  0  0  0  0  0  0  0  0  0
   39.0890   23.3230   38.7100 C   0  0  0  0  0  0  0  0  0  0  0  0
   37.8560   23.6710   38.3180 N   0  0  0  0  0  0  0  0  0  0  0  0
   37.8390   22.6780   34.7460 C   0  0  0  0  0  0  0  0  0  0  0  0
   38.0960   23.5600   33.7250 C   0  0  0  0  0  0  0  0  0  0  0  0
   37.5720   23.2570   32.4910 C   0  0  0  0  0  0  0  0  0  0  0  0
   36.8340   22.1650   32.2250 N   0  0  0  0  0  0  0  0  0  0  0  0
   36.6120   21.3270   33.2760 C   0  0  0  0  0  0  0  0  0  0  0  0
   37.1040   21.5760   34.5150 N   0  0  0  0  0  0  0  0  0  0  0  0
   36.4502   23.7480   36.7280 H   0  0  0  0  0  0  0  0  0  0  0  0
   40.3213   22.0644   35.8437 H   0  0  0  0  0  0  0  0  0  0  0  0
   39.4005   23.4977   39.7504 H   0  0  0  0  0  0  0  0  0  0  0  0
   38.6946   24.4685   33.8876 H   0  0  0  0  0  0  0  0  0  0  0  0
   37.7699   23.9555   31.6646 H   0  0  0  0  0  0  0  0  0  0  0  0
   36.0138   20.4182   33.1142 H   0  0  0  0  0  0  0  0  0  0  0  0
  1  6  2  0
  2  3  2  0
  2  1  1  0
  3  4  1  0
  4  5  2  0
  6  5  1  0
  7  2  1  0
  8  7  2  0
  9  8  1  0
 10  9  2  0
 10 11  1  0
 11 12  2  0
 12  7  1  0
  1 13  1  0
  3 14  1  0
  5 15  1  0
  8 16  1  0
  9 17  1  0
 11 18  1  0
M  ISO  6  13  14  14  14  15  14  16  14  17  14  18  14
M  END
>  <minimizedAffinity>  (1) 
-3.41043878

>  <minimizedRMSD>  (1) 
6.12419796

$$$$
