
     RDKit          3D

 19 20  0  0  0  0  0  0  0  0999 V2000
   41.0500   23.0360   36.2400 C   0  0  0  0  0  0  0  0  0  0  0  0
   40.5400   22.5720   37.4570 C   0  0  0  0  0  0  0  0  0  0  0  0
   39.2800   23.0060   37.8370 C   0  0  0  0  0  0  0  0  0  0  0  0
   38.5880   23.8660   37.0110 N   0  0  0  0  0  0  0  0  0  0  0  0
   39.1280   24.2860   35.8420 C   0  0  0  0  0  0  0  0  0  0  0  0
   40.3460   23.8710   35.4660 N   0  0  0  0  0  0  0  0  0  0  0  0
   38.5830   22.6570   39.0270 N   0  0  0  0  0  0  0  0  0  0  0  0
   38.3140   25.1840   35.0580 N   0  0  0  0  0  0  0  0  0  0  0  0
   37.8080   26.2930   35.6570 C   0  0  0  0  0  0  0  0  0  0  0  0
   37.0640   27.0020   34.7140 C   0  0  0  0  0  0  0  0  0  0  0  0
   37.1500   26.2890   33.5770 N   0  0  0  0  0  0  0  0  0  0  0  0
   37.9030   25.1880   33.7700 C   0  0  0  0  0  0  0  0  0  0  0  0
   42.0480   22.7087   35.9129 H   0  0  0  0  0  0  0  0  0  0  0  0
   41.1198   21.8854   38.0914 H   0  0  0  0  0  0  0  0  0  0  0  0
   37.6448   23.0425   39.2062 H   0  0  0  0  0  0  0  0  0  0  0  0
   39.0165   22.0188   39.7094 H   0  0  0  0  0  0  0  0  0  0  0  0
   37.9592   26.5828   36.7073 H   0  0  0  0  0  0  0  0  0  0  0  0
   36.5209   27.9461   34.8680 H   0  0  0  0  0  0  0  0  0  0  0  0
   38.1413   24.4266   33.0128 H   0  0  0  0  0  0  0  0  0  0  0  0
  1  2  2  0
  2  3  1  0
  3  7  1  0
  4  3  2  0
  5  4  1  0
  6  5  2  0
  6  1  1  0
  8  9  1  0
  8  5  1  0
 10  9  2  0
 11 12  2  0
 11 10  1  0
 12  8  1  0
  1 13  1  0
  2 14  1  0
  7 15  1  0
  7 16  1  0
  9 17  1  0
 10 18  1  0
 12 19  1  0
M  ISO  5  13  14  14  14  17  14  18  14  19  14
M  END
>  <minimizedAffinity>  (1) 
-4.15587044

>  <minimizedRMSD>  (1) 
2.7501924

$$$$
