
     RDKit          3D

 13 13  0  0  0  0  0  0  0  0999 V2000
   38.2050   24.9050   35.9090 C   0  0  0  0  0  0  0  0  0  0  0  0
   38.1800   23.7520   36.7090 C   0  0  0  0  0  0  0  0  0  0  0  0
   38.1030   22.5020   36.0980 C   0  0  0  0  0  0  0  0  0  0  0  0
   38.0570   22.4660   34.7400 N   0  0  0  0  0  0  0  0  0  0  0  0
   38.0820   23.5830   33.9870 C   0  0  0  0  0  0  0  0  0  0  0  0
   38.1570   24.8050   34.5780 N   0  0  0  0  0  0  0  0  0  0  0  0
   38.2250   23.7230   38.1430 C   0  0  0  0  0  0  0  0  0  0  0  0
   37.9850   24.7040   38.9210 O   0  0  0  0  0  0  0  0  0  0  0  0
   38.5340   22.6430   38.9590 O   0  0  0  0  0  0  0  0  0  0  0  0
   38.2645   25.8968   36.3810 H   0  0  0  0  0  0  0  0  0  0  0  0
   38.0803   21.5774   36.6934 H   0  0  0  0  0  0  0  0  0  0  0  0
   38.0416   23.5059   32.8904 H   0  0  0  0  0  0  0  0  0  0  0  0
   38.5312   22.7495   39.9433 H   0  0  0  0  0  0  0  0  0  0  0  0
  1  2  2  0
  2  7  1  0
  3  2  1  0
  4  3  2  0
  5  6  2  0
  5  4  1  0
  6  1  1  0
  7  8  2  0
  7  9  1  0
  1 10  1  0
  3 11  1  0
  5 12  1  0
  9 13  1  0
M  ISO  4  10  14  11  14  12  14  13   3
M  END
>  <minimizedAffinity>  (1) 
-3.38713503

>  <minimizedRMSD>  (1) 
2.43640852

$$$$
