
     RDKit          3D

 21 21  0  0  0  0  0  0  0  0999 V2000
   38.6680   23.4080   38.5920 C   0  0  0  0  0  0  0  0  0  0  0  0
   37.9300   24.2970   37.8030 C   0  0  0  0  0  0  0  0  0  0  0  0
   38.3800   24.5340   36.4960 C   0  0  0  0  0  0  0  0  0  0  0  0
   39.5000   23.8970   36.0630 N   0  0  0  0  0  0  0  0  0  0  0  0
   40.1840   23.0410   36.8670 C   0  0  0  0  0  0  0  0  0  0  0  0
   39.7700   22.8060   38.1080 N   0  0  0  0  0  0  0  0  0  0  0  0
   37.7560   25.4040   35.5570 N   0  0  0  0  0  0  0  0  0  0  0  0
   41.4220   22.3500   36.3610 C   0  0  0  0  0  0  0  0  0  0  0  0
   41.8610   21.2390   37.2650 C   0  0  0  0  0  0  0  0  0  0  0  0
   42.4870   23.4250   36.2230 C   0  0  0  0  0  0  0  0  0  0  0  0
   38.3431   23.1983   39.6218 H   0  0  0  0  0  0  0  0  0  0  0  0
   37.0290   24.7924   38.1938 H   0  0  0  0  0  0  0  0  0  0  0  0
   38.1570   25.5181   34.6152 H   0  0  0  0  0  0  0  0  0  0  0  0
   36.9036   25.9192   35.8197 H   0  0  0  0  0  0  0  0  0  0  0  0
   41.2264   21.8654   35.3930 H   0  0  0  0  0  0  0  0  0  0  0  0
   41.7385   21.5491   38.3132 H   0  0  0  0  0  0  0  0  0  0  0  0
   41.2481   20.3460   37.0728 H   0  0  0  0  0  0  0  0  0  0  0  0
   42.9187   21.0061   37.0728 H   0  0  0  0  0  0  0  0  0  0  0  0
   42.8103   23.7513   37.2225 H   0  0  0  0  0  0  0  0  0  0  0  0
   43.3489   23.0188   35.6733 H   0  0  0  0  0  0  0  0  0  0  0  0
   42.0728   24.2831   35.6733 H   0  0  0  0  0  0  0  0  0  0  0  0
  2  1  2  0
  3  2  1  0
  4  3  2  0
  4  5  1  0
  5  6  2  0
  6  1  1  0
  7  3  1  0
  8  5  1  0
  8  9  1  0
 10  8  1  0
  1 11  1  0
  2 12  1  0
  7 13  1  0
  7 14  1  0
  8 15  1  0
  9 16  1  0
  9 17  1  0
  9 18  1  0
 10 19  1  0
 10 20  1  0
 10 21  1  0
M  ISO  8  11  14  12  14  15   8  16   8  17   8  18   8  19   8  20   8
M  ISO  1  21   8
M  END
>  <minimizedAffinity>  (1) 
-3.47690082

>  <minimizedRMSD>  (1) 
3.70509696

$$$$
