
     RDKit          3D

 15 15  0  0  0  0  0  0  0  0999 V2000
   40.3830   22.1810   37.0350 C   0  0  0  0  0  0  0  0  0  0  0  0
   39.8130   22.9920   38.0230 C   0  0  0  0  0  0  0  0  0  0  0  0
   38.5270   23.4740   37.8200 C   0  0  0  0  0  0  0  0  0  0  0  0
   37.8540   23.1430   36.6630 N   0  0  0  0  0  0  0  0  0  0  0  0
   38.4520   22.3510   35.7330 C   0  0  0  0  0  0  0  0  0  0  0  0
   39.6930   21.8830   35.9230 N   0  0  0  0  0  0  0  0  0  0  0  0
   37.8080   24.3040   38.7170 N   0  0  0  0  0  0  0  0  0  0  0  0
   37.7130   21.9920   34.4710 C   0  0  0  0  0  0  0  0  0  0  0  0
   37.4800   23.1880   33.7880 F   0  0  0  0  0  0  0  0  0  0  0  0
   36.5700   21.3000   34.6880 F   0  0  0  0  0  0  0  0  0  0  0  0
   38.5670   21.2450   33.6670 F   0  0  0  0  0  0  0  0  0  0  0  0
   41.4007   21.7862   37.1704 H   0  0  0  0  0  0  0  0  0  0  0  0
   40.3703   23.2414   38.9380 H   0  0  0  0  0  0  0  0  0  0  0  0
   36.8546   24.6136   38.4804 H   0  0  0  0  0  0  0  0  0  0  0  0
   38.2392   24.5973   39.6052 H   0  0  0  0  0  0  0  0  0  0  0  0
  1  2  2  0
  3  2  1  0
  3  7  1  0
  4  3  2  0
  5  6  2  0
  5  4  1  0
  6  1  1  0
  8 10  1  0
  8  5  1  0
  9  8  1  0
 11  8  1  0
  1 12  1  0
  2 13  1  0
  7 14  1  0
  7 15  1  0
M  ISO  2  12  14  13  14
M  END
>  <minimizedAffinity>  (1) 
-3.41084242

>  <minimizedRMSD>  (1) 
0.605933607

$$$$
