
     RDKit          3D

 14 14  0  0  0  0  0  0  0  0999 V2000
   40.4150   22.1840   37.0550 C   0  0  0  0  0  0  0  0  0  0  0  0
   39.8380   22.9940   38.0520 C   0  0  0  0  0  0  0  0  0  0  0  0
   38.5520   23.4770   37.8250 C   0  0  0  0  0  0  0  0  0  0  0  0
   37.9080   23.1460   36.6520 N   0  0  0  0  0  0  0  0  0  0  0  0
   38.5130   22.3630   35.7280 C   0  0  0  0  0  0  0  0  0  0  0  0
   39.7410   21.8860   35.9150 N   0  0  0  0  0  0  0  0  0  0  0  0
   37.8130   24.3000   38.7070 N   0  0  0  0  0  0  0  0  0  0  0  0
   37.7460   22.0730   34.5190 C   0  0  0  0  0  0  0  0  0  0  0  0
   36.6910   21.3610   34.6550 O   0  0  0  0  0  0  0  0  0  0  0  0
   41.4297   21.7858   37.2026 H   0  0  0  0  0  0  0  0  0  0  0  0
   40.3832   23.2362   38.9762 H   0  0  0  0  0  0  0  0  0  0  0  0
   36.8643   24.6083   38.4505 H   0  0  0  0  0  0  0  0  0  0  0  0
   38.2237   24.5909   39.6057 H   0  0  0  0  0  0  0  0  0  0  0  0
   38.0613   22.4500   33.5349 H   0  0  0  0  0  0  0  0  0  0  0  0
  1  2  2  0
  3  2  1  0
  3  7  1  0
  4  3  2  0
  5  6  2  0
  5  4  1  0
  6  1  1  0
  8  9  2  0
  8  5  1  0
  1 10  1  0
  2 11  1  0
  7 12  1  0
  7 13  1  0
  8 14  1  0
M  ISO  3  10  14  11  14  14   6
M  END
>  <minimizedAffinity>  (1) 
-2.97159028

>  <minimizedRMSD>  (1) 
0.630453587

$$$$
