
     RDKit          3D

 13 13  0  0  0  0  0  0  0  0999 V2000
   40.4410   22.1850   37.0970 C   0  0  0  0  0  0  0  0  0  0  0  0
   39.8520   22.9910   38.0770 C   0  0  0  0  0  0  0  0  0  0  0  0
   38.5740   23.4850   37.8450 C   0  0  0  0  0  0  0  0  0  0  0  0
   37.9500   23.1640   36.6760 N   0  0  0  0  0  0  0  0  0  0  0  0
   38.5500   22.3790   35.7460 C   0  0  0  0  0  0  0  0  0  0  0  0
   39.7850   21.8980   35.9630 N   0  0  0  0  0  0  0  0  0  0  0  0
   37.8240   24.3160   38.7240 N   0  0  0  0  0  0  0  0  0  0  0  0
   37.6590   22.0080   34.2380 S   0  0  0  0  0  0  0  0  0  0  0  0
   41.4520   21.7827   37.2581 H   0  0  0  0  0  0  0  0  0  0  0  0
   40.3873   23.2279   39.0083 H   0  0  0  0  0  0  0  0  0  0  0  0
   36.8801   24.6294   38.4562 H   0  0  0  0  0  0  0  0  0  0  0  0
   38.2251   24.6039   39.6279 H   0  0  0  0  0  0  0  0  0  0  0  0
   36.4274   21.4952   34.5497 H   0  0  0  0  0  0  0  0  0  0  0  0
  1  2  2  0
  3  2  1  0
  3  7  1  0
  4  3  2  0
  5  6  2  0
  5  4  1  0
  6  1  1  0
  8  5  1  0
  1  9  1  0
  2 10  1  0
  7 11  1  0
  7 12  1  0
  8 13  1  0
M  ISO  3   9  14  10  14  13  11
M  END
>  <minimizedAffinity>  (1) 
-2.88703275

>  <minimizedRMSD>  (1) 
0.523722112

$$$$
