
     RDKit          3D

 26 28  0  0  0  0  0  0  0  0999 V2000
   40.4280   23.2500   36.0810 C   0  0  0  0  0  0  0  0  0  0  0  0
   39.2280   22.7870   36.6150 C   0  0  0  0  0  0  0  0  0  0  0  0
   38.2730   23.8070   36.4450 C   0  0  0  0  0  0  0  0  0  0  0  0
   38.9290   24.8200   35.8280 N   0  0  0  0  0  0  0  0  0  0  0  0
   40.1940   24.5000   35.6120 N   0  0  0  0  0  0  0  0  0  0  0  0
   38.2390   26.0180   35.5070 C   0  0  0  0  0  0  0  0  0  0  0  0
   37.1950   26.3250   34.6570 C   0  0  0  0  0  0  0  0  0  0  0  0
   36.8990   27.6720   34.7240 C   0  0  0  0  0  0  0  0  0  0  0  0
   37.7730   28.1690   35.6190 N   0  0  0  0  0  0  0  0  0  0  0  0
   38.5600   27.2110   36.0830 N   0  0  0  0  0  0  0  0  0  0  0  0
   43.7780   21.8740   35.3930 C   0  0  0  0  0  0  0  0  0  0  0  0
   43.8270   20.7580   36.2230 C   0  0  0  0  0  0  0  0  0  0  0  0
   42.6940   20.4880   37.0190 C   0  0  0  0  0  0  0  0  0  0  0  0
   41.6220   21.3210   36.9370 N   0  0  0  0  0  0  0  0  0  0  0  0
   41.6060   22.4030   36.1160 C   0  0  0  0  0  0  0  0  0  0  0  0
   42.6990   22.6670   35.3480 N   0  0  0  0  0  0  0  0  0  0  0  0
   42.5780   19.4070   37.9060 N   0  0  0  0  0  0  0  0  0  0  0  0
   39.0580   21.8061   37.0829 H   0  0  0  0  0  0  0  0  0  0  0  0
   37.2161   23.7863   36.7491 H   0  0  0  0  0  0  0  0  0  0  0  0
   36.6728   25.5988   34.0167 H   0  0  0  0  0  0  0  0  0  0  0  0
   36.1216   28.2178   34.1692 H   0  0  0  0  0  0  0  0  0  0  0  0
   37.8226   29.1577   35.9034 H   0  0  0  0  0  0  0  0  0  0  0  0
   44.6453   22.1106   34.7591 H   0  0  0  0  0  0  0  0  0  0  0  0
   44.7158   20.1107   36.2571 H   0  0  0  0  0  0  0  0  0  0  0  0
   41.7144   19.2798   38.4527 H   0  0  0  0  0  0  0  0  0  0  0  0
   43.3565   18.7407   38.0105 H   0  0  0  0  0  0  0  0  0  0  0  0
  1 15  1  0
  1  2  1  0
  3  2  2  0
  4  3  1  0
  5  4  1  0
  5  1  2  0
  6  4  1  0
  6 10  2  0
  7  8  2  0
  7  6  1  0
  8  9  1  0
  9 10  1  0
 11 12  2  0
 12 13  1  0
 13 17  1  0
 14 13  2  0
 15 14  1  0
 16 11  1  0
 16 15  2  0
  2 18  1  0
  3 19  1  0
  7 20  1  0
  8 21  1  0
  9 22  1  0
 11 23  1  0
 12 24  1  0
 17 25  1  0
 17 26  1  0
M  ISO  7  18  14  19  14  20  14  21  14  22   9  23  14  24  14
M  END
>  <minimizedAffinity>  (1) 
-4.78167534

>  <minimizedRMSD>  (1) 
3.58831215

$$$$
