
     RDKit          3D

 25 27  0  0  0  0  0  0  0  0999 V2000
   39.4290   23.6960   35.9370 C   0  0  0  0  0  0  0  0  0  0  0  0
   38.5820   24.1120   36.9370 C   0  0  0  0  0  0  0  0  0  0  0  0
   37.6960   25.0540   36.4270 C   0  0  0  0  0  0  0  0  0  0  0  0
   38.0400   25.1770   35.1200 N   0  0  0  0  0  0  0  0  0  0  0  0
   39.0700   24.3760   34.8060 N   0  0  0  0  0  0  0  0  0  0  0  0
   41.6350   21.3260   37.6900 C   0  0  0  0  0  0  0  0  0  0  0  0
   42.4370   20.8250   36.6500 C   0  0  0  0  0  0  0  0  0  0  0  0
   42.1920   21.3220   35.3680 C   0  0  0  0  0  0  0  0  0  0  0  0
   41.2140   22.2460   35.1780 N   0  0  0  0  0  0  0  0  0  0  0  0
   40.4620   22.7070   36.1920 C   0  0  0  0  0  0  0  0  0  0  0  0
   40.6810   22.2390   37.4510 N   0  0  0  0  0  0  0  0  0  0  0  0
   42.9030   20.9260   34.2110 N   0  0  0  0  0  0  0  0  0  0  0  0
   37.4410   26.0270   34.1190 C   0  0  0  0  0  0  0  0  0  0  0  0
   37.1920   27.3830   34.3850 C   0  0  0  0  0  0  0  0  0  0  0  0
   36.4450   27.9260   32.7840 S   0  0  0  0  0  0  0  0  0  0  0  0
   36.6210   26.1770   32.0520 C   0  0  0  0  0  0  0  0  0  0  0  0
   37.0970   25.5890   32.9090 N   0  0  0  0  0  0  0  0  0  0  0  0
   38.6023   23.7554   37.9774 H   0  0  0  0  0  0  0  0  0  0  0  0
   36.8942   25.5823   36.9636 H   0  0  0  0  0  0  0  0  0  0  0  0
   41.7920   20.9637   38.7167 H   0  0  0  0  0  0  0  0  0  0  0  0
   43.2210   20.0764   36.8371 H   0  0  0  0  0  0  0  0  0  0  0  0
   42.6671   21.3360   33.2961 H   0  0  0  0  0  0  0  0  0  0  0  0
   43.6566   20.2276   34.2835 H   0  0  0  0  0  0  0  0  0  0  0  0
   37.3882   27.9642   35.2981 H   0  0  0  0  0  0  0  0  0  0  0  0
   36.3352   25.8204   31.0514 H   0  0  0  0  0  0  0  0  0  0  0  0
  1 10  1  0
  1  2  1  0
  3  2  2  0
  4  3  1  0
  5  4  1  0
  5  1  2  0
  7  6  2  0
  8  7  1  0
  9  8  2  0
  9 10  1  0
 10 11  2  0
 11  6  1  0
 12  8  1  0
 13 14  2  0
 13  4  1  0
 15 14  1  0
 16 15  1  0
 16 17  2  0
 17 13  1  0
  2 18  1  0
  3 19  1  0
  6 20  1  0
  7 21  1  0
 12 22  1  0
 12 23  1  0
 14 24  1  0
 16 25  1  0
M  ISO  6  18  14  19  14  20  14  21  14  24  14  25  14
M  END
>  <minimizedAffinity>  (1) 
-3.95360303

>  <minimizedRMSD>  (1) 
4.69640446

$$$$
