
     RDKit          3D

 27 29  0  0  0  0  0  0  0  0999 V2000
   41.6770   22.1960   36.4720 C   0  0  0  0  0  0  0  0  0  0  0  0
   40.6200   21.9980   37.3260 C   0  0  0  0  0  0  0  0  0  0  0  0
   39.6670   22.9900   37.1130 C   0  0  0  0  0  0  0  0  0  0  0  0
   40.1930   23.7740   36.1110 N   0  0  0  0  0  0  0  0  0  0  0  0
   41.3810   23.3130   35.7250 N   0  0  0  0  0  0  0  0  0  0  0  0
   43.8120   19.2460   37.0170 C   0  0  0  0  0  0  0  0  0  0  0  0
   45.0270   19.6570   36.4390 C   0  0  0  0  0  0  0  0  0  0  0  0
   45.0870   20.9290   35.8780 C   0  0  0  0  0  0  0  0  0  0  0  0
   43.9830   21.7160   35.9110 N   0  0  0  0  0  0  0  0  0  0  0  0
   42.8290   21.3100   36.4680 C   0  0  0  0  0  0  0  0  0  0  0  0
   42.7520   20.0670   37.0200 N   0  0  0  0  0  0  0  0  0  0  0  0
   46.2320   21.4700   35.2710 N   0  0  0  0  0  0  0  0  0  0  0  0
   39.5310   24.9230   35.5760 C   0  0  0  0  0  0  0  0  0  0  0  0
   40.2380   25.9170   34.9380 C   0  0  0  0  0  0  0  0  0  0  0  0
   39.4840   26.9890   34.4580 C   0  0  0  0  0  0  0  0  0  0  0  0
   38.1470   27.0450   34.6120 N   0  0  0  0  0  0  0  0  0  0  0  0
   37.4900   26.0390   35.2490 C   0  0  0  0  0  0  0  0  0  0  0  0
   38.1920   24.9870   35.7250 N   0  0  0  0  0  0  0  0  0  0  0  0
   40.5392   21.1844   38.0618 H   0  0  0  0  0  0  0  0  0  0  0  0
   38.7053   23.1191   37.6312 H   0  0  0  0  0  0  0  0  0  0  0  0
   43.7313   18.2463   37.4686 H   0  0  0  0  0  0  0  0  0  0  0  0
   45.9036   18.9925   36.4308 H   0  0  0  0  0  0  0  0  0  0  0  0
   47.0981   20.9151   35.2187 H   0  0  0  0  0  0  0  0  0  0  0  0
   46.2056   22.4217   34.8781 H   0  0  0  0  0  0  0  0  0  0  0  0
   41.3300   25.8694   34.8141 H   0  0  0  0  0  0  0  0  0  0  0  0
   39.9966   27.8122   33.9388 H   0  0  0  0  0  0  0  0  0  0  0  0
   36.3981   26.0812   35.3755 H   0  0  0  0  0  0  0  0  0  0  0  0
  1  2  1  0
  3  2  2  0
  4  3  1  0
  5  4  1  0
  5  1  2  0
  6 11  2  0
  7  6  1  0
  8  9  1  0
  8  7  2  0
  9 10  2  0
 10  1  1  0
 10 11  1  0
 12  8  1  0
 13 18  1  0
 13  4  1  0
 14 13  2  0
 15 16  2  0
 15 14  1  0
 16 17  1  0
 17 18  2  0
  2 19  1  0
  3 20  1  0
  6 21  1  0
  7 22  1  0
 12 23  1  0
 12 24  1  0
 14 25  1  0
 15 26  1  0
 17 27  1  0
M  ISO  7  19  14  20  14  21  14  22  14  25  14  26  14  27  14
M  END
>  <minimizedAffinity>  (1) 
-3.79383278

>  <minimizedRMSD>  (1) 
4.60964394

$$$$
