
     RDKit          3D

 38 41  0  0  0  0  0  0  0  0999 V2000
   41.6290   22.1790   35.9940 C   0  0  0  0  0  0  0  0  0  0  0  0
   41.9220   23.4440   35.5120 C   0  0  0  0  0  0  0  0  0  0  0  0
   40.6840   24.1250   35.4050 C   0  0  0  0  0  0  0  0  0  0  0  0
   39.7250   23.2450   35.8240 N   0  0  0  0  0  0  0  0  0  0  0  0
   40.2940   22.1220   36.1610 N   0  0  0  0  0  0  0  0  0  0  0  0
   44.9430   20.5710   36.0410 C   0  0  0  0  0  0  0  0  0  0  0  0
   44.6670   19.3640   36.6910 C   0  0  0  0  0  0  0  0  0  0  0  0
   43.3560   19.1060   37.1070 C   0  0  0  0  0  0  0  0  0  0  0  0
   42.4140   20.0470   36.8550 N   0  0  0  0  0  0  0  0  0  0  0  0
   42.7020   21.2200   36.2210 C   0  0  0  0  0  0  0  0  0  0  0  0
   43.9630   21.4540   35.8270 N   0  0  0  0  0  0  0  0  0  0  0  0
   42.9540   17.9430   37.7640 N   0  0  0  0  0  0  0  0  0  0  0  0
   38.3100   23.5590   35.8730 C   0  0  0  0  0  0  0  0  0  0  0  0
   37.4500   22.5150   35.3200 C   0  0  0  0  0  0  0  0  0  0  0  0
   36.6840   21.7990   36.2470 C   0  0  0  0  0  0  0  0  0  0  0  0
   35.8000   20.8010   35.8870 C   0  0  0  0  0  0  0  0  0  0  0  0
   35.6720   20.5030   34.5470 C   0  0  0  0  0  0  0  0  0  0  0  0
   36.3970   21.1690   33.5820 C   0  0  0  0  0  0  0  0  0  0  0  0
   36.3050   20.8980   32.2350 C   0  0  0  0  0  0  0  0  0  0  0  0
   37.0470   21.5690   31.2710 C   0  0  0  0  0  0  0  0  0  0  0  0
   37.8880   22.5330   31.7560 C   0  0  0  0  0  0  0  0  0  0  0  0
   38.0030   22.8260   33.0780 C   0  0  0  0  0  0  0  0  0  0  0  0
   37.2580   22.1500   34.0120 C   0  0  0  0  0  0  0  0  0  0  0  0
   42.9171   23.8408   35.2622 H   0  0  0  0  0  0  0  0  0  0  0  0
   40.5260   25.1557   35.0548 H   0  0  0  0  0  0  0  0  0  0  0  0
   45.9668   20.7936   35.7058 H   0  0  0  0  0  0  0  0  0  0  0  0
   45.4663   18.6303   36.8721 H   0  0  0  0  0  0  0  0  0  0  0  0
   41.9693   17.8221   38.0409 H   0  0  0  0  0  0  0  0  0  0  0  0
   43.6419   17.2052   37.9723 H   0  0  0  0  0  0  0  0  0  0  0  0
   38.0274   23.7192   36.9239 H   0  0  0  0  0  0  0  0  0  0  0  0
   38.1613   24.4554   35.2530 H   0  0  0  0  0  0  0  0  0  0  0  0
   36.7913   22.0431   37.3142 H   0  0  0  0  0  0  0  0  0  0  0  0
   35.2158   20.2603   36.6462 H   0  0  0  0  0  0  0  0  0  0  0  0
   34.9721   19.7121   34.2394 H   0  0  0  0  0  0  0  0  0  0  0  0
   35.6098   20.1115   31.9061 H   0  0  0  0  0  0  0  0  0  0  0  0
   36.9645   21.3421   30.1978 H   0  0  0  0  0  0  0  0  0  0  0  0
   38.5018   23.0992   31.0400 H   0  0  0  0  0  0  0  0  0  0  0  0
   38.6999   23.6126   33.4028 H   0  0  0  0  0  0  0  0  0  0  0  0
  1  5  2  0
  1 10  1  0
  2  1  1  0
  3  2  2  0
  3  4  1  0
  4 13  1  0
  4  5  1  0
  6  7  2  0
  7  8  1  0
  8 12  1  0
  9  8  2  0
 10  9  1  0
 11  6  1  0
 11 10  2  0
 14 13  1  0
 14 15  2  0
 16 15  1  0
 17 16  2  0
 18 23  2  0
 18 17  1  0
 19 18  1  0
 20 21  1  0
 20 19  2  0
 21 22  2  0
 22 23  1  0
 23 14  1  0
  2 24  1  0
  3 25  1  0
  6 26  1  0
  7 27  1  0
 12 28  1  0
 12 29  1  0
 13 30  1  0
 13 31  1  0
 15 32  1  0
 16 33  1  0
 17 34  1  0
 19 35  1  0
 20 36  1  0
 21 37  1  0
 22 38  1  0
M  ISO  8  24  14  25  14  26  14  27  14  30   8  31   8  32  14  33  14
M  ISO  5  34  14  35  14  36  14  37  14  38  14
M  END
>  <minimizedAffinity>  (1) 
-4.84533548

>  <minimizedRMSD>  (1) 
3.01599169

$$$$
