
     RDKit          3D

 29 31  0  0  0  0  0  0  0  0999 V2000
   38.8390   22.1490   34.1830 C   0  0  0  0  0  0  0  0  0  0  0  0
   40.1540   21.9270   33.7710 C   0  0  0  0  0  0  0  0  0  0  0  0
   40.0810   21.0480   32.6740 C   0  0  0  0  0  0  0  0  0  0  0  0
   38.7540   20.7930   32.4860 N   0  0  0  0  0  0  0  0  0  0  0  0
   37.9990   21.4390   33.3760 N   0  0  0  0  0  0  0  0  0  0  0  0
   37.8770   25.0910   36.1840 C   0  0  0  0  0  0  0  0  0  0  0  0
   38.0950   24.6780   37.4810 C   0  0  0  0  0  0  0  0  0  0  0  0
   38.5780   23.3730   37.6640 C   0  0  0  0  0  0  0  0  0  0  0  0
   38.8100   22.5800   36.5760 N   0  0  0  0  0  0  0  0  0  0  0  0
   38.5790   23.0340   35.3190 C   0  0  0  0  0  0  0  0  0  0  0  0
   38.1120   24.2930   35.1380 N   0  0  0  0  0  0  0  0  0  0  0  0
   38.8600   22.7740   38.9150 N   0  0  0  0  0  0  0  0  0  0  0  0
   38.2040   19.9240   31.4500 C   0  0  0  0  0  0  0  0  0  0  0  0
   36.7660   19.6130   31.7490 C   0  0  0  0  0  0  0  0  0  0  0  0
   36.3020   18.3780   32.1860 C   0  0  0  0  0  0  0  0  0  0  0  0
   34.9610   18.4530   32.3550 N   0  0  0  0  0  0  0  0  0  0  0  0
   34.6200   19.7270   32.0210 C   0  0  0  0  0  0  0  0  0  0  0  0
   35.6960   20.4170   31.6600 N   0  0  0  0  0  0  0  0  0  0  0  0
   41.0655   22.3538   34.2150 H   0  0  0  0  0  0  0  0  0  0  0  0
   40.9219   20.6484   32.0881 H   0  0  0  0  0  0  0  0  0  0  0  0
   37.4982   26.1080   36.0046 H   0  0  0  0  0  0  0  0  0  0  0  0
   37.8989   25.3424   38.3355 H   0  0  0  0  0  0  0  0  0  0  0  0
   39.2129   21.8072   38.9552 H   0  0  0  0  0  0  0  0  0  0  0  0
   38.7123   23.3049   39.7852 H   0  0  0  0  0  0  0  0  0  0  0  0
   38.7798   18.9873   31.4171 H   0  0  0  0  0  0  0  0  0  0  0  0
   38.2677   20.4362   30.4786 H   0  0  0  0  0  0  0  0  0  0  0  0
   36.9218   17.4871   32.3649 H   0  0  0  0  0  0  0  0  0  0  0  0
   33.5965   20.1293   32.0464 H   0  0  0  0  0  0  0  0  0  0  0  0
   35.7069   21.4029   31.3620 H   0  0  0  0  0  0  0  0  0  0  0  0
  1 10  1  0
  2  1  1  0
  3  2  2  0
  4  3  1  0
  4  5  1  0
  5  1  2  0
  6  7  2  0
  7  8  1  0
  8 12  1  0
  9  8  2  0
 10  9  1  0
 11 10  2  0
 11  6  1  0
 13 14  1  0
 13  4  1  0
 14 15  2  0
 15 16  1  0
 17 16  2  0
 18 14  1  0
 18 17  1  0
  2 19  1  0
  3 20  1  0
  6 21  1  0
  7 22  1  0
 12 23  1  0
 12 24  1  0
 13 25  1  0
 13 26  1  0
 15 27  1  0
 17 28  1  0
 18 29  1  0
M  ISO  8  19  14  20  14  21  14  22  14  25   8  26   8  27  14  28  14
M  ISO  1  29   9
M  END
>  <minimizedAffinity>  (1) 
-4.51062059

>  <minimizedRMSD>  (1) 
7.47768593

$$$$
