
     RDKit          3D

 32 34  0  0  0  0  0  0  0  0999 V2000
   41.6900   21.9510   36.3160 C   0  0  0  0  0  0  0  0  0  0  0  0
   41.7740   23.1970   35.6830 C   0  0  0  0  0  0  0  0  0  0  0  0
   40.4900   23.7750   35.7740 C   0  0  0  0  0  0  0  0  0  0  0  0
   39.7150   22.8820   36.4340 N   0  0  0  0  0  0  0  0  0  0  0  0
   40.4200   21.8190   36.7490 N   0  0  0  0  0  0  0  0  0  0  0  0
   45.1360   20.7060   35.9470 C   0  0  0  0  0  0  0  0  0  0  0  0
   45.0730   19.4500   36.5550 C   0  0  0  0  0  0  0  0  0  0  0  0
   43.8400   19.0510   37.0840 C   0  0  0  0  0  0  0  0  0  0  0  0
   42.7790   19.8930   36.9810 N   0  0  0  0  0  0  0  0  0  0  0  0
   42.8670   21.1090   36.3850 C   0  0  0  0  0  0  0  0  0  0  0  0
   44.0570   21.4950   35.8750 N   0  0  0  0  0  0  0  0  0  0  0  0
   43.6110   17.8190   37.7260 N   0  0  0  0  0  0  0  0  0  0  0  0
   38.2960   23.0510   36.7630 C   0  0  0  0  0  0  0  0  0  0  0  0
   37.4620   22.2370   35.8540 C   0  0  0  0  0  0  0  0  0  0  0  0
   36.3820   21.4800   36.3280 C   0  0  0  0  0  0  0  0  0  0  0  0
   35.5840   20.7090   35.4960 C   0  0  0  0  0  0  0  0  0  0  0  0
   35.8430   20.6690   34.1430 C   0  0  0  0  0  0  0  0  0  0  0  0
   36.9030   21.4050   33.6450 C   0  0  0  0  0  0  0  0  0  0  0  0
   37.7020   22.1800   34.4910 C   0  0  0  0  0  0  0  0  0  0  0  0
   42.6636   23.6375   35.2092 H   0  0  0  0  0  0  0  0  0  0  0  0
   40.1800   24.7564   35.3858 H   0  0  0  0  0  0  0  0  0  0  0  0
   46.0886   21.0527   35.5200 H   0  0  0  0  0  0  0  0  0  0  0  0
   45.9581   18.7996   36.6157 H   0  0  0  0  0  0  0  0  0  0  0  0
   42.6743   17.5947   38.0909 H   0  0  0  0  0  0  0  0  0  0  0  0
   44.3802   17.1421   37.8308 H   0  0  0  0  0  0  0  0  0  0  0  0
   38.1226   22.7299   37.8007 H   0  0  0  0  0  0  0  0  0  0  0  0
   38.0241   24.1106   36.6480 H   0  0  0  0  0  0  0  0  0  0  0  0
   36.1579   21.4981   37.4048 H   0  0  0  0  0  0  0  0  0  0  0  0
   34.7469   20.1312   35.9148 H   0  0  0  0  0  0  0  0  0  0  0  0
   35.2179   20.0626   33.4711 H   0  0  0  0  0  0  0  0  0  0  0  0
   37.1206   21.3802   32.5670 H   0  0  0  0  0  0  0  0  0  0  0  0
   38.5374   22.7557   34.0659 H   0  0  0  0  0  0  0  0  0  0  0  0
  1 10  1  0
  1  5  2  0
  2  3  2  0
  2  1  1  0
  3  4  1  0
  4  5  1  0
  4 13  1  0
  6  7  2  0
  7  8  1  0
  8 12  1  0
  9  8  2  0
 10  9  1  0
 11  6  1  0
 11 10  2  0
 14 15  2  0
 14 13  1  0
 16 15  1  0
 17 16  2  0
 18 17  1  0
 18 19  2  0
 19 14  1  0
  2 20  1  0
  3 21  1  0
  6 22  1  0
  7 23  1  0
 12 24  1  0
 12 25  1  0
 13 26  1  0
 13 27  1  0
 15 28  1  0
 16 29  1  0
 17 30  1  0
 18 31  1  0
 19 32  1  0
M  ISO  8  20  14  21  14  22  14  23  14  26   8  27   8  28  14  29  14
M  ISO  3  30  14  31  14  32  14
M  END
>  <minimizedAffinity>  (1) 
-4.37480783

>  <minimizedRMSD>  (1) 
2.51503038

$$$$
