
     RDKit          3D

 32 34  0  0  0  0  0  0  0  0999 V2000
   39.2420   22.4650   34.7120 C   0  0  0  0  0  0  0  0  0  0  0  0
   40.2940   21.9320   33.9520 C   0  0  0  0  0  0  0  0  0  0  0  0
   41.4180   22.7400   34.2670 C   0  0  0  0  0  0  0  0  0  0  0  0
   41.0000   23.6680   35.1570 N   0  0  0  0  0  0  0  0  0  0  0  0
   39.7200   23.5060   35.4180 N   0  0  0  0  0  0  0  0  0  0  0  0
   36.1940   20.8880   33.3460 C   0  0  0  0  0  0  0  0  0  0  0  0
   35.4470   20.6410   34.4790 C   0  0  0  0  0  0  0  0  0  0  0  0
   35.9930   21.0190   35.7340 C   0  0  0  0  0  0  0  0  0  0  0  0
   37.2260   21.6070   35.7560 N   0  0  0  0  0  0  0  0  0  0  0  0
   37.9300   21.8310   34.5960 C   0  0  0  0  0  0  0  0  0  0  0  0
   37.3940   21.4640   33.4220 N   0  0  0  0  0  0  0  0  0  0  0  0
   35.3650   20.8380   36.9730 N   0  0  0  0  0  0  0  0  0  0  0  0
   41.8420   24.7040   35.7470 C   0  0  0  0  0  0  0  0  0  0  0  0
   41.9970   25.7320   34.7290 N   0  0  0  0  0  0  0  0  0  0  0  0
   40.9750   26.4930   34.2970 C   0  0  0  0  0  0  0  0  0  0  0  0
   41.2240   27.4400   33.3310 C   0  0  0  0  0  0  0  0  0  0  0  0
   42.4560   27.6620   32.7740 C   0  0  0  0  0  0  0  0  0  0  0  0
   42.7190   28.5160   31.8920 O   0  0  0  0  0  0  0  0  0  0  0  0
   43.4620   26.8690   33.2410 N   0  0  0  0  0  0  0  0  0  0  0  0
   43.2040   25.9440   34.1900 C   0  0  0  0  0  0  0  0  0  0  0  0
   44.2110   25.2630   34.5490 O   0  0  0  0  0  0  0  0  0  0  0  0
   40.2562   21.0755   33.2629 H   0  0  0  0  0  0  0  0  0  0  0  0
   42.4356   22.6316   33.8636 H   0  0  0  0  0  0  0  0  0  0  0  0
   35.7924   20.6046   32.3619 H   0  0  0  0  0  0  0  0  0  0  0  0
   34.4575   20.1652   34.4122 H   0  0  0  0  0  0  0  0  0  0  0  0
   35.8344   21.1427   37.8377 H   0  0  0  0  0  0  0  0  0  0  0  0
   34.4338   20.4002   37.0193 H   0  0  0  0  0  0  0  0  0  0  0  0
   41.3591   25.1236   36.6418 H   0  0  0  0  0  0  0  0  0  0  0  0
   42.8162   24.2988   36.0581 H   0  0  0  0  0  0  0  0  0  0  0  0
   39.9629   26.3608   34.7072 H   0  0  0  0  0  0  0  0  0  0  0  0
   40.3821   28.0572   32.9842 H   0  0  0  0  0  0  0  0  0  0  0  0
   44.4171   26.9754   32.8704 H   0  0  0  0  0  0  0  0  0  0  0  0
  1  5  2  0
  2  3  2  0
  2  1  1  0
  3  4  1  0
  4  5  1  0
  4 13  1  0
  6 11  2  0
  6  7  1  0
  7  8  2  0
  8  9  1  0
  8 12  1  0
 10  1  1  0
 10  9  2  0
 11 10  1  0
 14 13  1  0
 15 14  1  0
 16 15  2  0
 17 19  1  0
 17 16  1  0
 18 17  2  0
 19 20  1  0
 20 21  2  0
 20 14  1  0
  2 22  1  0
  3 23  1  0
  6 24  1  0
  7 25  1  0
 12 26  1  0
 12 27  1  0
 13 28  1  0
 13 29  1  0
 15 30  1  0
 16 31  1  0
 19 32  1  0
M  ISO  8  22  14  23  14  24  14  25  14  28   8  29   8  30  14  31  14
M  ISO  1  32   9
M  END
>  <minimizedAffinity>  (1) 
-4.18629169

>  <minimizedRMSD>  (1) 
6.31390238

$$$$
