
     RDKit          3D

 27 29  0  0  0  0  0  0  0  0999 V2000
   41.3800   23.1710   35.7960 C   0  0  0  0  0  0  0  0  0  0  0  0
   42.2450   22.2390   36.3920 C   0  0  0  0  0  0  0  0  0  0  0  0
   43.4740   22.9290   36.5640 C   0  0  0  0  0  0  0  0  0  0  0  0
   43.2840   24.1880   36.0810 N   0  0  0  0  0  0  0  0  0  0  0  0
   42.0490   24.3370   35.6250 N   0  0  0  0  0  0  0  0  0  0  0  0
   37.7590   22.5000   36.0770 C   0  0  0  0  0  0  0  0  0  0  0  0
   37.4670   21.9210   34.8410 C   0  0  0  0  0  0  0  0  0  0  0  0
   38.5220   21.7660   33.9190 C   0  0  0  0  0  0  0  0  0  0  0  0
   39.7560   22.1870   34.2860 N   0  0  0  0  0  0  0  0  0  0  0  0
   40.0230   22.7490   35.4910 C   0  0  0  0  0  0  0  0  0  0  0  0
   39.0060   22.8840   36.3450 N   0  0  0  0  0  0  0  0  0  0  0  0
   38.3990   21.2010   32.6340 N   0  0  0  0  0  0  0  0  0  0  0  0
   44.2840   25.2480   36.0580 C   0  0  0  0  0  0  0  0  0  0  0  0
   45.0760   25.3010   37.3150 C   0  0  0  0  0  0  0  0  0  0  0  0
   44.7230   25.8810   38.4850 N   0  0  0  0  0  0  0  0  0  0  0  0
   45.7090   25.6840   39.2980 O   0  0  0  0  0  0  0  0  0  0  0  0
   46.6720   25.0210   38.7450 C   0  0  0  0  0  0  0  0  0  0  0  0
   46.3100   24.7500   37.4660 N   0  0  0  0  0  0  0  0  0  0  0  0
   42.0190   21.1981   36.6666 H   0  0  0  0  0  0  0  0  0  0  0  0
   44.3989   22.5254   37.0019 H   0  0  0  0  0  0  0  0  0  0  0  0
   36.9644   22.6383   36.8250 H   0  0  0  0  0  0  0  0  0  0  0  0
   36.4456   21.5958   34.5941 H   0  0  0  0  0  0  0  0  0  0  0  0
   37.4828   20.8647   32.3048 H   0  0  0  0  0  0  0  0  0  0  0  0
   39.2253   21.1243   32.0239 H   0  0  0  0  0  0  0  0  0  0  0  0
   44.9685   25.0709   35.2153 H   0  0  0  0  0  0  0  0  0  0  0  0
   43.7565   26.2073   35.9508 H   0  0  0  0  0  0  0  0  0  0  0  0
   47.6169   24.7287   39.2264 H   0  0  0  0  0  0  0  0  0  0  0  0
  1  2  1  0
  2  3  2  0
  4  3  1  0
  5  1  2  0
  5  4  1  0
  6 11  2  0
  7  6  1  0
  8  9  1  0
  8  7  2  0
  9 10  2  0
 10  1  1  0
 10 11  1  0
 12  8  1  0
 13  4  1  0
 13 14  1  0
 14 18  1  0
 14 15  2  0
 15 16  1  0
 17 16  1  0
 18 17  2  0
  2 19  1  0
  3 20  1  0
  6 21  1  0
  7 22  1  0
 12 23  1  0
 12 24  1  0
 13 25  1  0
 13 26  1  0
 17 27  1  0
M  ISO  7  19  14  20  14  21  14  22  14  25   8  26   8  27  14
M  END
>  <minimizedAffinity>  (1) 
-4.13402462

>  <minimizedRMSD>  (1) 
7.00808287

$$$$
