
     RDKit          3D

 30 32  0  0  0  0  0  0  0  0999 V2000
   41.7260   21.9780   36.3130 C   0  0  0  0  0  0  0  0  0  0  0  0
   41.7990   23.2020   35.6750 C   0  0  0  0  0  0  0  0  0  0  0  0
   40.5270   23.7930   35.7660 C   0  0  0  0  0  0  0  0  0  0  0  0
   39.7560   22.9150   36.4430 N   0  0  0  0  0  0  0  0  0  0  0  0
   40.4510   21.8300   36.7760 N   0  0  0  0  0  0  0  0  0  0  0  0
   45.1680   20.7170   35.9430 C   0  0  0  0  0  0  0  0  0  0  0  0
   45.0900   19.4600   36.5540 C   0  0  0  0  0  0  0  0  0  0  0  0
   43.8560   19.0650   37.0850 C   0  0  0  0  0  0  0  0  0  0  0  0
   42.7860   19.9000   36.9910 N   0  0  0  0  0  0  0  0  0  0  0  0
   42.9030   21.1180   36.3870 C   0  0  0  0  0  0  0  0  0  0  0  0
   44.0910   21.5110   35.8700 N   0  0  0  0  0  0  0  0  0  0  0  0
   43.6350   17.8400   37.7210 N   0  0  0  0  0  0  0  0  0  0  0  0
   38.3400   23.0830   36.7900 C   0  0  0  0  0  0  0  0  0  0  0  0
   37.4780   22.2730   35.9180 C   0  0  0  0  0  0  0  0  0  0  0  0
   36.4240   21.5890   36.5020 C   0  0  0  0  0  0  0  0  0  0  0  0
   35.5520   20.7940   35.7560 C   0  0  0  0  0  0  0  0  0  0  0  0
   35.7860   20.7230   34.4370 N   0  0  0  0  0  0  0  0  0  0  0  0
   36.8060   21.3830   33.8560 C   0  0  0  0  0  0  0  0  0  0  0  0
   37.6250   22.1390   34.6100 N   0  0  0  0  0  0  0  0  0  0  0  0
   42.6861   23.6327   35.1876 H   0  0  0  0  0  0  0  0  0  0  0  0
   40.2217   24.7715   35.3670 H   0  0  0  0  0  0  0  0  0  0  0  0
   46.1240   21.0568   35.5181 H   0  0  0  0  0  0  0  0  0  0  0  0
   45.9703   18.8032   36.6151 H   0  0  0  0  0  0  0  0  0  0  0  0
   42.7006   17.6123   38.0896 H   0  0  0  0  0  0  0  0  0  0  0  0
   44.4066   17.1651   37.8210 H   0  0  0  0  0  0  0  0  0  0  0  0
   38.1874   22.7720   37.8340 H   0  0  0  0  0  0  0  0  0  0  0  0
   38.0726   24.1417   36.6569 H   0  0  0  0  0  0  0  0  0  0  0  0
   36.2695   21.6751   37.5877 H   0  0  0  0  0  0  0  0  0  0  0  0
   34.7165   20.2539   36.2253 H   0  0  0  0  0  0  0  0  0  0  0  0
   36.9688   21.3045   32.7709 H   0  0  0  0  0  0  0  0  0  0  0  0
  1 10  1  0
  1  5  2  0
  2  3  2  0
  2  1  1  0
  3  4  1  0
  4  5  1  0
  4 13  1  0
  6  7  2  0
  7  8  1  0
  8 12  1  0
  9  8  2  0
 10  9  1  0
 11  6  1  0
 11 10  2  0
 14 15  2  0
 14 13  1  0
 16 15  1  0
 17 16  2  0
 18 17  1  0
 18 19  2  0
 19 14  1  0
  2 20  1  0
  3 21  1  0
  6 22  1  0
  7 23  1  0
 12 24  1  0
 12 25  1  0
 13 26  1  0
 13 27  1  0
 15 28  1  0
 16 29  1  0
 18 30  1  0
M  ISO  8  20  14  21  14  22  14  23  14  26   8  27   8  28  14  29  14
M  ISO  1  30  14
M  END
>  <minimizedAffinity>  (1) 
-4.05936337

>  <minimizedRMSD>  (1) 
2.51525927

$$$$
