
     RDKit          3D

 35 37  0  0  0  0  0  0  0  0999 V2000
   40.9630   22.3430   35.4690 C   0  0  0  0  0  0  0  0  0  0  0  0
   40.1870   21.9760   34.3740 C   0  0  0  0  0  0  0  0  0  0  0  0
   39.1010   22.8860   34.3690 C   0  0  0  0  0  0  0  0  0  0  0  0
   39.2640   23.7230   35.4140 N   0  0  0  0  0  0  0  0  0  0  0  0
   40.3760   23.4100   36.0850 N   0  0  0  0  0  0  0  0  0  0  0  0
   44.4890   21.2580   35.5330 C   0  0  0  0  0  0  0  0  0  0  0  0
   44.4380   20.1350   36.3690 C   0  0  0  0  0  0  0  0  0  0  0  0
   43.1980   19.7570   36.9040 C   0  0  0  0  0  0  0  0  0  0  0  0
   42.1160   20.5090   36.5760 N   0  0  0  0  0  0  0  0  0  0  0  0
   42.1800   21.5930   35.7650 C   0  0  0  0  0  0  0  0  0  0  0  0
   43.3740   21.9400   35.2630 N   0  0  0  0  0  0  0  0  0  0  0  0
   42.9850   18.6640   37.7510 N   0  0  0  0  0  0  0  0  0  0  0  0
   38.3920   24.8210   35.7930 C   0  0  0  0  0  0  0  0  0  0  0  0
   38.8860   26.1440   35.2790 C   0  0  0  0  0  0  0  0  0  0  0  0
   38.3520   26.4230   33.8990 C   0  0  0  0  0  0  0  0  0  0  0  0
   37.0150   27.0860   34.2520 C   0  0  0  0  0  0  0  0  0  0  0  0
   37.4740   28.1060   35.2680 C   0  0  0  0  0  0  0  0  0  0  0  0
   38.3950   27.2870   36.1470 C   0  0  0  0  0  0  0  0  0  0  0  0
   40.3759   21.1563   33.6652 H   0  0  0  0  0  0  0  0  0  0  0  0
   38.2742   22.9062   33.6438 H   0  0  0  0  0  0  0  0  0  0  0  0
   45.4480   21.5776   35.0991 H   0  0  0  0  0  0  0  0  0  0  0  0
   45.3489   19.5633   36.6003 H   0  0  0  0  0  0  0  0  0  0  0  0
   42.0374   18.4587   38.0985 H   0  0  0  0  0  0  0  0  0  0  0  0
   43.7758   18.0646   38.0271 H   0  0  0  0  0  0  0  0  0  0  0  0
   37.3887   24.6341   35.3825 H   0  0  0  0  0  0  0  0  0  0  0  0
   38.3729   24.8723   36.8916 H   0  0  0  0  0  0  0  0  0  0  0  0
   39.9841   26.0802   35.2814 H   0  0  0  0  0  0  0  0  0  0  0  0
   38.2076   25.4968   33.3234 H   0  0  0  0  0  0  0  0  0  0  0  0
   39.0134   27.0298   33.2631 H   0  0  0  0  0  0  0  0  0  0  0  0
   36.5550   27.5648   33.3750 H   0  0  0  0  0  0  0  0  0  0  0  0
   36.2412   26.3934   34.6148 H   0  0  0  0  0  0  0  0  0  0  0  0
   38.0143   28.9342   34.7861 H   0  0  0  0  0  0  0  0  0  0  0  0
   36.6500   28.5856   35.8166 H   0  0  0  0  0  0  0  0  0  0  0  0
   37.8475   26.8985   37.0184 H   0  0  0  0  0  0  0  0  0  0  0  0
   39.2300   27.8907   36.5320 H   0  0  0  0  0  0  0  0  0  0  0  0
  1 10  1  0
  1  5  2  0
  2  1  1  0
  3  2  2  0
  3  4  1  0
  4 13  1  0
  4  5  1  0
  6  7  2  0
  7  8  1  0
  8 12  1  0
  9  8  2  0
 10  9  1  0
 11  6  1  0
 11 10  2  0
 14 13  1  0
 14 18  1  0
 15 16  1  0
 15 14  1  0
 16 17  1  0
 17 18  1  0
  2 19  1  0
  3 20  1  0
  6 21  1  0
  7 22  1  0
 12 23  1  0
 12 24  1  0
 13 25  1  0
 13 26  1  0
 14 27  1  0
 15 28  1  0
 15 29  1  0
 16 30  1  0
 16 31  1  0
 17 32  1  0
 17 33  1  0
 18 34  1  0
 18 35  1  0
M  ISO  8  19  14  20  14  21  14  22  14  25   8  26   8  27  13  28  13
M  ISO  7  29  13  30  13  31  13  32  13  33  13  34  13  35  13
M  END
>  <minimizedAffinity>  (1) 
-3.95854044

>  <minimizedRMSD>  (1) 
2.50154948

$$$$
