
     RDKit          3D

 35 37  0  0  0  0  0  0  0  0999 V2000
   39.6820   24.9710   35.3430 C   0  0  0  0  0  0  0  0  0  0  0  0
   40.4720   26.0490   34.9900 C   0  0  0  0  0  0  0  0  0  0  0  0
   39.5930   27.0700   34.5820 C   0  0  0  0  0  0  0  0  0  0  0  0
   38.3200   26.5690   34.7030 N   0  0  0  0  0  0  0  0  0  0  0  0
   38.3750   25.3220   35.1570 N   0  0  0  0  0  0  0  0  0  0  0  0
   40.5730   22.1110   37.4970 C   0  0  0  0  0  0  0  0  0  0  0  0
   41.4760   21.4070   36.6940 C   0  0  0  0  0  0  0  0  0  0  0  0
   41.7710   21.9200   35.4180 C   0  0  0  0  0  0  0  0  0  0  0  0
   41.1690   23.0760   35.0200 N   0  0  0  0  0  0  0  0  0  0  0  0
   40.2970   23.7380   35.8190 C   0  0  0  0  0  0  0  0  0  0  0  0
   40.0210   23.2360   37.0440 N   0  0  0  0  0  0  0  0  0  0  0  0
   42.6520   21.3240   34.5110 N   0  0  0  0  0  0  0  0  0  0  0  0
   37.0780   27.2610   34.3990 C   0  0  0  0  0  0  0  0  0  0  0  0
   36.7100   27.0920   33.0490 N   0  0  0  0  0  0  0  0  0  0  0  0
   35.8450   28.1250   32.5260 C   0  0  0  0  0  0  0  0  0  0  0  0
   36.6070   29.1370   31.6980 C   0  0  0  0  0  0  0  0  0  0  0  0
   37.3170   28.4980   30.7130 O   0  0  0  0  0  0  0  0  0  0  0  0
   38.2720   27.6320   31.2430 C   0  0  0  0  0  0  0  0  0  0  0  0
   37.6310   26.5770   32.1230 C   0  0  0  0  0  0  0  0  0  0  0  0
   41.5704   26.0991   35.0217 H   0  0  0  0  0  0  0  0  0  0  0  0
   39.8720   28.0753   34.2334 H   0  0  0  0  0  0  0  0  0  0  0  0
   40.3191   21.7370   38.4998 H   0  0  0  0  0  0  0  0  0  0  0  0
   41.9430   20.4771   37.0507 H   0  0  0  0  0  0  0  0  0  0  0  0
   42.8181   21.7595   33.5925 H   0  0  0  0  0  0  0  0  0  0  0  0
   43.1350   20.4494   34.7612 H   0  0  0  0  0  0  0  0  0  0  0  0
   36.2792   26.8601   35.0402 H   0  0  0  0  0  0  0  0  0  0  0  0
   37.2268   28.3350   34.5845 H   0  0  0  0  0  0  0  0  0  0  0  0
   35.0748   27.6575   31.8949 H   0  0  0  0  0  0  0  0  0  0  0  0
   35.3937   28.6540   33.3783 H   0  0  0  0  0  0  0  0  0  0  0  0
   35.8970   29.8398   31.2377 H   0  0  0  0  0  0  0  0  0  0  0  0
   37.3047   29.6843   32.3489 H   0  0  0  0  0  0  0  0  0  0  0  0
   38.8030   27.1356   30.4174 H   0  0  0  0  0  0  0  0  0  0  0  0
   38.9702   28.2193   31.8575 H   0  0  0  0  0  0  0  0  0  0  0  0
   37.1067   25.8582   31.4761 H   0  0  0  0  0  0  0  0  0  0  0  0
   38.4405   26.1103   32.7034 H   0  0  0  0  0  0  0  0  0  0  0  0
  1 10  1  0
  2  1  1  0
  3  4  1  0
  3  2  2  0
  4  5  1  0
  5  1  2  0
  7  6  2  0
  8  7  1  0
  9  8  2  0
  9 10  1  0
 10 11  2  0
 11  6  1  0
 12  8  1  0
 13  4  1  0
 14 13  1  0
 15 14  1  0
 16 15  1  0
 17 18  1  0
 17 16  1  0
 18 19  1  0
 19 14  1  0
  2 20  1  0
  3 21  1  0
  6 22  1  0
  7 23  1  0
 12 24  1  0
 12 25  1  0
 13 26  1  0
 13 27  1  0
 15 28  1  0
 15 29  1  0
 16 30  1  0
 16 31  1  0
 18 32  1  0
 18 33  1  0
 19 34  1  0
 19 35  1  0
M  ISO  8  20  14  21  14  22  14  23  14  26   8  27   8  28  13  29  13
M  ISO  6  30  13  31  13  32  13  33  13  34  13  35  13
M  END
>  <minimizedAffinity>  (1) 
-3.92273641

>  <minimizedRMSD>  (1) 
5.99471474

$$$$
