
     RDKit          3D

 29 31  0  0  0  0  0  0  0  0999 V2000
   42.0550   22.0110   36.5370 C   0  0  0  0  0  0  0  0  0  0  0  0
   43.1080   22.6620   35.8900 C   0  0  0  0  0  0  0  0  0  0  0  0
   44.1910   21.7570   35.8750 C   0  0  0  0  0  0  0  0  0  0  0  0
   43.7440   20.6320   36.4990 N   0  0  0  0  0  0  0  0  0  0  0  0
   42.4800   20.7740   36.8950 N   0  0  0  0  0  0  0  0  0  0  0  0
   39.1970   24.2740   35.9870 C   0  0  0  0  0  0  0  0  0  0  0  0
   38.3810   24.0040   37.0830 C   0  0  0  0  0  0  0  0  0  0  0  0
   38.8250   23.0310   38.0170 C   0  0  0  0  0  0  0  0  0  0  0  0
   40.0190   22.4290   37.7790 N   0  0  0  0  0  0  0  0  0  0  0  0
   40.7910   22.7130   36.7020 C   0  0  0  0  0  0  0  0  0  0  0  0
   40.3540   23.6310   35.8390 N   0  0  0  0  0  0  0  0  0  0  0  0
   38.1210   22.6480   39.1660 N   0  0  0  0  0  0  0  0  0  0  0  0
   44.5320   19.4230   36.7150 C   0  0  0  0  0  0  0  0  0  0  0  0
   43.7500   18.2550   36.3450 N   0  0  0  0  0  0  0  0  0  0  0  0
   43.3300   17.8170   35.1780 N   0  0  0  0  0  0  0  0  0  0  0  0
   42.6240   16.6740   35.3130 C   0  0  0  0  0  0  0  0  0  0  0  0
   42.5930   16.3670   36.6590 C   0  0  0  0  0  0  0  0  0  0  0  0
   43.3120   17.3830   37.2810 C   0  0  0  0  0  0  0  0  0  0  0  0
   43.0956   23.6802   35.4739 H   0  0  0  0  0  0  0  0  0  0  0  0
   45.1903   21.9256   35.4474 H   0  0  0  0  0  0  0  0  0  0  0  0
   38.8850   25.0203   35.2416 H   0  0  0  0  0  0  0  0  0  0  0  0
   37.4235   24.5276   37.2206 H   0  0  0  0  0  0  0  0  0  0  0  0
   38.5123   21.9325   39.7952 H   0  0  0  0  0  0  0  0  0  0  0  0
   37.2121   23.0819   39.3816 H   0  0  0  0  0  0  0  0  0  0  0  0
   45.4416   19.4644   36.0977 H   0  0  0  0  0  0  0  0  0  0  0  0
   44.8089   19.3540   37.7773 H   0  0  0  0  0  0  0  0  0  0  0  0
   42.1596   16.0948   34.5013 H   0  0  0  0  0  0  0  0  0  0  0  0
   42.1049   15.5047   37.1367 H   0  0  0  0  0  0  0  0  0  0  0  0
   43.4951   17.4640   38.3626 H   0  0  0  0  0  0  0  0  0  0  0  0
  1 10  1  0
  1  5  2  0
  2  1  1  0
  3  2  2  0
  3  4  1  0
  4 13  1  0
  4  5  1  0
  6  7  2  0
  7  8  1  0
  8 12  1  0
  9  8  2  0
 10  9  1  0
 11  6  1  0
 11 10  2  0
 14 13  1  0
 14 18  1  0
 15 16  2  0
 15 14  1  0
 16 17  1  0
 17 18  2  0
  2 19  1  0
  3 20  1  0
  6 21  1  0
  7 22  1  0
 12 23  1  0
 12 24  1  0
 13 25  1  0
 13 26  1  0
 16 27  1  0
 17 28  1  0
 18 29  1  0
M  ISO  8  19  14  20  14  21  14  22  14  25   8  26   8  27  14  28  14
M  ISO  1  29  14
M  END
>  <minimizedAffinity>  (1) 
-3.84102964

>  <minimizedRMSD>  (1) 
7.13616467

$$$$
