
     RDKit          3D

 29 31  0  0  0  0  0  0  0  0999 V2000
   39.0990   22.5930   35.4670 C   0  0  0  0  0  0  0  0  0  0  0  0
   39.2250   23.9670   35.2180 C   0  0  0  0  0  0  0  0  0  0  0  0
   40.5280   24.3240   35.6490 C   0  0  0  0  0  0  0  0  0  0  0  0
   41.0970   23.1730   36.1200 N   0  0  0  0  0  0  0  0  0  0  0  0
   40.2590   22.1490   36.0160 N   0  0  0  0  0  0  0  0  0  0  0  0
   36.3920   20.9790   33.5520 C   0  0  0  0  0  0  0  0  0  0  0  0
   35.4620   20.6790   34.5250 C   0  0  0  0  0  0  0  0  0  0  0  0
   35.7660   21.0340   35.8590 C   0  0  0  0  0  0  0  0  0  0  0  0
   36.9530   21.6490   36.0990 N   0  0  0  0  0  0  0  0  0  0  0  0
   37.8500   21.9320   35.1220 C   0  0  0  0  0  0  0  0  0  0  0  0
   37.5340   21.5840   33.8690 N   0  0  0  0  0  0  0  0  0  0  0  0
   34.9390   20.8070   36.9740 N   0  0  0  0  0  0  0  0  0  0  0  0
   42.4430   23.0450   36.6720 C   0  0  0  0  0  0  0  0  0  0  0  0
   43.3020   24.0160   35.9360 C   0  0  0  0  0  0  0  0  0  0  0  0
   44.0370   25.0160   36.5560 C   0  0  0  0  0  0  0  0  0  0  0  0
   44.7070   25.7150   35.5630 C   0  0  0  0  0  0  0  0  0  0  0  0
   44.3390   25.0970   34.3770 C   0  0  0  0  0  0  0  0  0  0  0  0
   43.5220   24.1150   34.6520 O   0  0  0  0  0  0  0  0  0  0  0  0
   38.4676   24.6324   34.7780 H   0  0  0  0  0  0  0  0  0  0  0  0
   40.9873   25.3228   35.6120 H   0  0  0  0  0  0  0  0  0  0  0  0
   36.1878   20.7156   32.5037 H   0  0  0  0  0  0  0  0  0  0  0  0
   34.5150   20.1800   34.2714 H   0  0  0  0  0  0  0  0  0  0  0  0
   35.2464   21.1019   37.9118 H   0  0  0  0  0  0  0  0  0  0  0  0
   34.0260   20.3458   36.8527 H   0  0  0  0  0  0  0  0  0  0  0  0
   42.4365   23.2828   37.7460 H   0  0  0  0  0  0  0  0  0  0  0  0
   42.8208   22.0181   36.5595 H   0  0  0  0  0  0  0  0  0  0  0  0
   44.0804   25.2175   37.6365 H   0  0  0  0  0  0  0  0  0  0  0  0
   45.3835   26.5733   35.6887 H   0  0  0  0  0  0  0  0  0  0  0  0
   44.6787   25.3858   33.3714 H   0  0  0  0  0  0  0  0  0  0  0  0
  1  5  2  0
  2  1  1  0
  2  3  2  0
  3  4  1  0
  4 13  1  0
  5  4  1  0
  6 11  2  0
  6  7  1  0
  7  8  2  0
  8  9  1  0
  8 12  1  0
 10  1  1  0
 10  9  2  0
 11 10  1  0
 14 15  2  0
 14 13  1  0
 16 15  1  0
 17 18  1  0
 17 16  2  0
 18 14  1  0
  2 19  1  0
  3 20  1  0
  6 21  1  0
  7 22  1  0
 12 23  1  0
 12 24  1  0
 13 25  1  0
 13 26  1  0
 15 27  1  0
 16 28  1  0
 17 29  1  0
M  ISO  8  19  14  20  14  21  14  22  14  25   8  26   8  27  14  28  14
M  ISO  1  29  14
M  END
>  <minimizedAffinity>  (1) 
-4.40739012

>  <minimizedRMSD>  (1) 
6.01349163

$$$$
