
     RDKit          3D

 43 47  0  0  0  0  0  0  0  0999 V2000
   42.4880   22.8750   36.6470 C   0  0  0  0  0  0  0  0  0  0  0  0
   39.1110   22.5230   35.5060 C   0  0  0  0  0  0  0  0  0  0  0  0
   39.2480   23.9010   35.3570 C   0  0  0  0  0  0  0  0  0  0  0  0
   40.5690   24.2120   35.7780 C   0  0  0  0  0  0  0  0  0  0  0  0
   41.1330   23.0320   36.1460 N   0  0  0  0  0  0  0  0  0  0  0  0
   40.2860   22.0280   35.9910 N   0  0  0  0  0  0  0  0  0  0  0  0
   36.3660   21.0050   33.5780 C   0  0  0  0  0  0  0  0  0  0  0  0
   35.4380   20.7110   34.5430 C   0  0  0  0  0  0  0  0  0  0  0  0
   35.7530   21.0360   35.8690 C   0  0  0  0  0  0  0  0  0  0  0  0
   36.9520   21.6200   36.1290 N   0  0  0  0  0  0  0  0  0  0  0  0
   37.8490   21.8980   35.1520 C   0  0  0  0  0  0  0  0  0  0  0  0
   37.5240   21.5770   33.8880 N   0  0  0  0  0  0  0  0  0  0  0  0
   34.9120   20.7980   36.9810 N   0  0  0  0  0  0  0  0  0  0  0  0
   43.2660   24.0700   36.2330 C   0  0  0  0  0  0  0  0  0  0  0  0
   44.3260   24.5850   36.9350 C   0  0  0  0  0  0  0  0  0  0  0  0
   44.7750   25.6940   36.2130 C   0  0  0  0  0  0  0  0  0  0  0  0
   43.9700   25.7980   35.1150 C   0  0  0  0  0  0  0  0  0  0  0  0
   43.1180   24.8210   35.1940 O   0  0  0  0  0  0  0  0  0  0  0  0
   43.9130   26.7180   33.9970 C   0  0  0  0  0  0  0  0  0  0  0  0
   44.9390   27.5860   33.6430 C   0  0  0  0  0  0  0  0  0  0  0  0
   44.5980   28.3190   32.5580 N   0  0  0  0  0  0  0  0  0  0  0  0
   43.3650   27.9720   32.1640 C   0  0  0  0  0  0  0  0  0  0  0  0
   42.5670   28.4070   31.1310 C   0  0  0  0  0  0  0  0  0  0  0  0
   41.3110   27.8740   30.9400 C   0  0  0  0  0  0  0  0  0  0  0  0
   40.8970   26.8960   31.8210 C   0  0  0  0  0  0  0  0  0  0  0  0
   41.7190   26.4820   32.8430 C   0  0  0  0  0  0  0  0  0  0  0  0
   42.9700   27.0000   33.0500 C   0  0  0  0  0  0  0  0  0  0  0  0
   42.4748   22.7987   37.7443 H   0  0  0  0  0  0  0  0  0  0  0  0
   42.9442   21.9599   36.2413 H   0  0  0  0  0  0  0  0  0  0  0  0
   38.4879   24.6055   34.9883 H   0  0  0  0  0  0  0  0  0  0  0  0
   41.0394   25.2061   35.8012 H   0  0  0  0  0  0  0  0  0  0  0  0
   36.1477   20.7628   32.5274 H   0  0  0  0  0  0  0  0  0  0  0  0
   34.4796   20.2366   34.2854 H   0  0  0  0  0  0  0  0  0  0  0  0
   35.2194   21.0679   37.9263 H   0  0  0  0  0  0  0  0  0  0  0  0
   33.9922   20.3547   36.8455 H   0  0  0  0  0  0  0  0  0  0  0  0
   44.7403   24.2012   37.8789 H   0  0  0  0  0  0  0  0  0  0  0  0
   45.6137   26.3546   36.4777 H   0  0  0  0  0  0  0  0  0  0  0  0
   45.8992   27.6663   34.1736 H   0  0  0  0  0  0  0  0  0  0  0  0
   45.1912   29.0300   32.1070 H   0  0  0  0  0  0  0  0  0  0  0  0
   42.9357   29.1886   30.4504 H   0  0  0  0  0  0  0  0  0  0  0  0
   40.6641   28.2145   30.1181 H   0  0  0  0  0  0  0  0  0  0  0  0
   39.9011   26.4436   31.7049 H   0  0  0  0  0  0  0  0  0  0  0  0
   41.3553   25.6994   33.5251 H   0  0  0  0  0  0  0  0  0  0  0  0
  2  6  2  0
  3  2  1  0
  3  4  2  0
  4  5  1  0
  5  1  1  0
  6  5  1  0
  7 12  2  0
  7  8  1  0
  8  9  2  0
  9 10  1  0
  9 13  1  0
 11  2  1  0
 11 10  2  0
 12 11  1  0
 14  1  1  0
 14 15  2  0
 16 15  1  0
 17 18  1  0
 17 16  2  0
 18 14  1  0
 19 17  1  0
 20 19  2  0
 21 20  1  0
 22 21  1  0
 22 27  2  0
 23 22  1  0
 24 23  2  0
 24 25  1  0
 25 26  2  0
 26 27  1  0
 27 19  1  0
  1 28  1  0
  1 29  1  0
  3 30  1  0
  4 31  1  0
  7 32  1  0
  8 33  1  0
 13 34  1  0
 13 35  1  0
 15 36  1  0
 16 37  1  0
 20 38  1  0
 21 39  1  0
 23 40  1  0
 24 41  1  0
 25 42  1  0
 26 43  1  0
M  ISO  8  28   8  29   8  30  14  31  14  32  14  33  14  36  14  37  14
M  ISO  6  38  14  39   9  40  14  41  14  42  14  43  14
M  END
>  <minimizedAffinity>  (1) 
-5.60372162

>  <minimizedRMSD>  (1) 
2.07689118

$$$$
