
     RDKit          3D

 42 45  0  0  0  0  0  0  0  0999 V2000
   42.6870   22.5730   36.3950 C   0  0  0  0  0  0  0  0  0  0  0  0
   39.2480   22.4060   35.4430 C   0  0  0  0  0  0  0  0  0  0  0  0
   39.3910   23.8070   35.4400 C   0  0  0  0  0  0  0  0  0  0  0  0
   40.7430   24.0450   35.8080 C   0  0  0  0  0  0  0  0  0  0  0  0
   41.3080   22.8220   36.0030 N   0  0  0  0  0  0  0  0  0  0  0  0
   40.4280   21.8450   35.7880 N   0  0  0  0  0  0  0  0  0  0  0  0
   36.4050   21.0470   33.5210 C   0  0  0  0  0  0  0  0  0  0  0  0
   35.4650   20.7840   34.5080 C   0  0  0  0  0  0  0  0  0  0  0  0
   35.8170   21.0770   35.8370 C   0  0  0  0  0  0  0  0  0  0  0  0
   37.0420   21.5930   36.0650 N   0  0  0  0  0  0  0  0  0  0  0  0
   37.9490   21.8460   35.0980 C   0  0  0  0  0  0  0  0  0  0  0  0
   37.5910   21.5580   33.8340 N   0  0  0  0  0  0  0  0  0  0  0  0
   34.9900   20.8740   36.9640 N   0  0  0  0  0  0  0  0  0  0  0  0
   43.4230   23.8500   36.2640 C   0  0  0  0  0  0  0  0  0  0  0  0
   44.0970   24.4870   37.3030 C   0  0  0  0  0  0  0  0  0  0  0  0
   44.6500   25.6390   36.7900 C   0  0  0  0  0  0  0  0  0  0  0  0
   44.2850   25.6590   35.4410 C   0  0  0  0  0  0  0  0  0  0  0  0
   43.5700   24.5830   35.2070 O   0  0  0  0  0  0  0  0  0  0  0  0
   44.6810   26.7190   34.5660 N   0  0  0  0  0  0  0  0  0  0  0  0
   45.8630   27.3420   34.7530 C   0  0  0  0  0  0  0  0  0  0  0  0
   46.3450   28.3730   33.9730 C   0  0  0  0  0  0  0  0  0  0  0  0
   47.6430   29.0350   34.2020 C   0  0  0  0  0  0  0  0  0  0  0  0
   45.5710   28.8090   32.9220 C   0  0  0  0  0  0  0  0  0  0  0  0
   45.9110   29.7400   32.1460 O   0  0  0  0  0  0  0  0  0  0  0  0
   44.3870   28.1710   32.7500 N   0  0  0  0  0  0  0  0  0  0  0  0
   43.9510   27.1670   33.5330 C   0  0  0  0  0  0  0  0  0  0  0  0
   42.8370   26.6200   33.3120 O   0  0  0  0  0  0  0  0  0  0  0  0
   42.7241   22.2231   37.4372 H   0  0  0  0  0  0  0  0  0  0  0  0
   43.1377   21.7983   35.7572 H   0  0  0  0  0  0  0  0  0  0  0  0
   38.6213   24.5564   35.2035 H   0  0  0  0  0  0  0  0  0  0  0  0
   41.2350   25.0231   35.9141 H   0  0  0  0  0  0  0  0  0  0  0  0
   36.1657   20.8303   32.4694 H   0  0  0  0  0  0  0  0  0  0  0  0
   34.4803   20.3616   34.2591 H   0  0  0  0  0  0  0  0  0  0  0  0
   35.3318   21.1185   37.9044 H   0  0  0  0  0  0  0  0  0  0  0  0
   34.0451   20.4815   36.8454 H   0  0  0  0  0  0  0  0  0  0  0  0
   44.1735   24.1347   38.3422 H   0  0  0  0  0  0  0  0  0  0  0  0
   45.2520   26.3859   37.3283 H   0  0  0  0  0  0  0  0  0  0  0  0
   46.4898   27.0023   35.5907 H   0  0  0  0  0  0  0  0  0  0  0  0
   47.8222   29.1264   35.2834 H   0  0  0  0  0  0  0  0  0  0  0  0
   48.4455   28.4361   33.7467 H   0  0  0  0  0  0  0  0  0  0  0  0
   47.6293   30.0362   33.7467 H   0  0  0  0  0  0  0  0  0  0  0  0
   43.7839   28.4735   31.9718 H   0  0  0  0  0  0  0  0  0  0  0  0
  2  6  2  0
  3  2  1  0
  3  4  2  0
  4  5  1  0
  5  1  1  0
  6  5  1  0
  7 12  2  0
  7  8  1  0
  8  9  2  0
  9 10  1  0
  9 13  1  0
 11  2  1  0
 11 10  2  0
 12 11  1  0
 14  1  1  0
 14 15  2  0
 16 15  1  0
 17 16  2  0
 18 17  1  0
 18 14  1  0
 19 20  1  0
 19 17  1  0
 21 22  1  0
 21 20  2  0
 23 21  1  0
 24 23  2  0
 25 23  1  0
 25 26  1  0
 26 19  1  0
 27 26  2  0
  1 28  1  0
  1 29  1  0
  3 30  1  0
  4 31  1  0
  7 32  1  0
  8 33  1  0
 13 34  1  0
 13 35  1  0
 15 36  1  0
 16 37  1  0
 20 38  1  0
 22 39  1  0
 22 40  1  0
 22 41  1  0
 25 42  1  0
M  ISO  8  28   8  29   8  30  14  31  14  32  14  33  14  36  14  37  14
M  ISO  5  38  14  39   8  40   8  41   8  42   9
M  END
>  <minimizedAffinity>  (1) 
-5.39954567

>  <minimizedRMSD>  (1) 
1.73161161

$$$$
