
     RDKit          3D

 42 46  0  0  0  0  0  0  0  0999 V2000
   42.5700   22.7810   36.5740 C   0  0  0  0  0  0  0  0  0  0  0  0
   39.1470   22.4870   35.5500 C   0  0  0  0  0  0  0  0  0  0  0  0
   39.2470   23.8940   35.5830 C   0  0  0  0  0  0  0  0  0  0  0  0
   40.5730   24.1900   35.9800 C   0  0  0  0  0  0  0  0  0  0  0  0
   41.1780   22.9880   36.1580 N   0  0  0  0  0  0  0  0  0  0  0  0
   40.3500   21.9700   35.9080 N   0  0  0  0  0  0  0  0  0  0  0  0
   36.3980   21.0410   33.5730 C   0  0  0  0  0  0  0  0  0  0  0  0
   35.4570   20.7450   34.5210 C   0  0  0  0  0  0  0  0  0  0  0  0
   35.7590   21.0430   35.8760 C   0  0  0  0  0  0  0  0  0  0  0  0
   36.9690   21.6060   36.1480 N   0  0  0  0  0  0  0  0  0  0  0  0
   37.8790   21.8850   35.1700 C   0  0  0  0  0  0  0  0  0  0  0  0
   37.5600   21.5900   33.9120 N   0  0  0  0  0  0  0  0  0  0  0  0
   34.9150   20.8090   36.9680 N   0  0  0  0  0  0  0  0  0  0  0  0
   43.3170   24.0120   36.1900 C   0  0  0  0  0  0  0  0  0  0  0  0
   44.2100   24.6730   37.0060 C   0  0  0  0  0  0  0  0  0  0  0  0
   44.7020   25.7690   36.3050 C   0  0  0  0  0  0  0  0  0  0  0  0
   44.0660   25.7040   35.0850 C   0  0  0  0  0  0  0  0  0  0  0  0
   43.2810   24.6710   35.0770 O   0  0  0  0  0  0  0  0  0  0  0  0
   44.2450   26.6220   34.0120 N   0  0  0  0  0  0  0  0  0  0  0  0
   43.4500   26.7610   32.9340 C   0  0  0  0  0  0  0  0  0  0  0  0
   43.9180   27.7290   32.1150 N   0  0  0  0  0  0  0  0  0  0  0  0
   45.0350   28.2260   32.6680 C   0  0  0  0  0  0  0  0  0  0  0  0
   45.8880   29.2170   32.2430 C   0  0  0  0  0  0  0  0  0  0  0  0
   46.9300   29.4710   33.0500 N   0  0  0  0  0  0  0  0  0  0  0  0
   47.1450   28.8140   34.2020 C   0  0  0  0  0  0  0  0  0  0  0  0
   46.3020   27.8520   34.5950 N   0  0  0  0  0  0  0  0  0  0  0  0
   45.2290   27.5260   33.8530 C   0  0  0  0  0  0  0  0  0  0  0  0
   45.6210   29.8830   31.0230 N   0  0  0  0  0  0  0  0  0  0  0  0
   42.6223   22.6293   37.6622 H   0  0  0  0  0  0  0  0  0  0  0  0
   42.9995   21.8901   36.0925 H   0  0  0  0  0  0  0  0  0  0  0  0
   38.4524   24.6172   35.3471 H   0  0  0  0  0  0  0  0  0  0  0  0
   41.0198   25.1859   36.1159 H   0  0  0  0  0  0  0  0  0  0  0  0
   36.1900   20.8215   32.5154 H   0  0  0  0  0  0  0  0  0  0  0  0
   34.4953   20.2898   34.2418 H   0  0  0  0  0  0  0  0  0  0  0  0
   35.2217   21.0594   37.9189 H   0  0  0  0  0  0  0  0  0  0  0  0
   33.9873   20.3864   36.8206 H   0  0  0  0  0  0  0  0  0  0  0  0
   44.4851   24.3845   38.0312 H   0  0  0  0  0  0  0  0  0  0  0  0
   45.4324   26.5170   36.6470 H   0  0  0  0  0  0  0  0  0  0  0  0
   42.5432   26.1675   32.7456 H   0  0  0  0  0  0  0  0  0  0  0  0
   48.0163   29.0675   34.8238 H   0  0  0  0  0  0  0  0  0  0  0  0
   46.2523   30.6272   30.6936 H   0  0  0  0  0  0  0  0  0  0  0  0
   44.7954   29.6235   30.4646 H   0  0  0  0  0  0  0  0  0  0  0  0
  2  3  1  0
  2  6  2  0
  3  4  2  0
  4  5  1  0
  5  1  1  0
  6  5  1  0
  7 12  2  0
  7  8  1  0
  8  9  2  0
  9 10  1  0
  9 13  1  0
 11  2  1  0
 11 10  2  0
 12 11  1  0
 14  1  1  0
 14 15  2  0
 16 15  1  0
 17 16  2  0
 18 17  1  0
 18 14  1  0
 19 17  1  0
 20 19  1  0
 21 22  1  0
 21 20  2  0
 22 27  2  0
 23 22  1  0
 23 24  2  0
 24 25  1  0
 25 26  2  0
 27 19  1  0
 27 26  1  0
 28 23  1  0
  1 29  1  0
  1 30  1  0
  3 31  1  0
  4 32  1  0
  7 33  1  0
  8 34  1  0
 13 35  1  0
 13 36  1  0
 15 37  1  0
 16 38  1  0
 20 39  1  0
 25 40  1  0
 28 41  1  0
 28 42  1  0
M  ISO  8  29   8  30   8  31  14  32  14  33  14  34  14  37  14  38  14
M  ISO  2  39  14  40  14
M  END
>  <minimizedAffinity>  (1) 
-5.35543394

>  <minimizedRMSD>  (1) 
1.44974196

$$$$
