
     RDKit          3D

 39 42  0  0  0  0  0  0  0  0999 V2000
   39.2080   22.4360   35.4750 C   0  0  0  0  0  0  0  0  0  0  0  0
   39.3680   23.8240   35.4100 C   0  0  0  0  0  0  0  0  0  0  0  0
   40.7010   24.0960   35.8020 C   0  0  0  0  0  0  0  0  0  0  0  0
   41.2550   22.8850   36.0760 N   0  0  0  0  0  0  0  0  0  0  0  0
   40.3890   21.9010   35.8880 N   0  0  0  0  0  0  0  0  0  0  0  0
   36.4070   21.0420   33.5320 C   0  0  0  0  0  0  0  0  0  0  0  0
   35.4680   20.7690   34.5020 C   0  0  0  0  0  0  0  0  0  0  0  0
   35.8000   21.0650   35.8360 C   0  0  0  0  0  0  0  0  0  0  0  0
   37.0200   21.6040   36.1030 N   0  0  0  0  0  0  0  0  0  0  0  0
   37.9240   21.8620   35.1220 C   0  0  0  0  0  0  0  0  0  0  0  0
   37.5860   21.5700   33.8580 N   0  0  0  0  0  0  0  0  0  0  0  0
   34.9640   20.8530   36.9590 N   0  0  0  0  0  0  0  0  0  0  0  0
   42.6280   22.6470   36.5250 C   0  0  0  0  0  0  0  0  0  0  0  0
   43.3940   23.8950   36.2660 C   0  0  0  0  0  0  0  0  0  0  0  0
   44.1590   24.5520   37.2130 C   0  0  0  0  0  0  0  0  0  0  0  0
   44.7160   25.6590   36.6140 C   0  0  0  0  0  0  0  0  0  0  0  0
   44.2520   25.6230   35.3000 C   0  0  0  0  0  0  0  0  0  0  0  0
   43.4870   24.5700   35.1630 O   0  0  0  0  0  0  0  0  0  0  0  0
   44.6210   26.6430   34.3190 C   0  0  0  0  0  0  0  0  0  0  0  0
   44.0370   26.7440   33.0750 C   0  0  0  0  0  0  0  0  0  0  0  0
   44.3940   27.7110   32.1570 C   0  0  0  0  0  0  0  0  0  0  0  0
   45.3750   28.6180   32.4930 C   0  0  0  0  0  0  0  0  0  0  0  0
   45.9960   28.5650   33.7310 C   0  0  0  0  0  0  0  0  0  0  0  0
   45.6020   27.5780   34.6140 C   0  0  0  0  0  0  0  0  0  0  0  0
   38.6069   24.5604   35.1125 H   0  0  0  0  0  0  0  0  0  0  0  0
   41.1866   25.0806   35.8705 H   0  0  0  0  0  0  0  0  0  0  0  0
   36.1813   20.8220   32.4781 H   0  0  0  0  0  0  0  0  0  0  0  0
   34.4916   20.3342   34.2420 H   0  0  0  0  0  0  0  0  0  0  0  0
   35.2952   21.1021   37.9019 H   0  0  0  0  0  0  0  0  0  0  0  0
   34.0247   20.4497   36.8329 H   0  0  0  0  0  0  0  0  0  0  0  0
   42.6386   22.4137   37.5999 H   0  0  0  0  0  0  0  0  0  0  0  0
   43.0734   21.7954   35.9898 H   0  0  0  0  0  0  0  0  0  0  0  0
   44.2977   24.2441   38.2599 H   0  0  0  0  0  0  0  0  0  0  0  0
   45.3805   26.4069   37.0712 H   0  0  0  0  0  0  0  0  0  0  0  0
   43.2525   26.0229   32.8017 H   0  0  0  0  0  0  0  0  0  0  0  0
   43.9034   27.7567   31.1735 H   0  0  0  0  0  0  0  0  0  0  0  0
   45.6689   29.3934   31.7703 H   0  0  0  0  0  0  0  0  0  0  0  0
   46.7796   29.2876   34.0026 H   0  0  0  0  0  0  0  0  0  0  0  0
   46.0900   27.5315   35.5987 H   0  0  0  0  0  0  0  0  0  0  0  0
  1  5  2  0
  2  1  1  0
  2  3  2  0
  3  4  1  0
  4 13  1  0
  5  4  1  0
  6 11  2  0
  6  7  1  0
  7  8  2  0
  8  9  1  0
  8 12  1  0
 10  1  1  0
 10  9  2  0
 11 10  1  0
 14 13  1  0
 14 15  2  0
 16 15  1  0
 17 16  2  0
 18 17  1  0
 18 14  1  0
 19 24  1  0
 19 17  1  0
 20 19  2  0
 21 22  2  0
 21 20  1  0
 22 23  1  0
 23 24  2  0
  2 25  1  0
  3 26  1  0
  6 27  1  0
  7 28  1  0
 12 29  1  0
 12 30  1  0
 13 31  1  0
 13 32  1  0
 15 33  1  0
 16 34  1  0
 20 35  1  0
 21 36  1  0
 22 37  1  0
 23 38  1  0
 24 39  1  0
M  ISO  8  25  14  26  14  27  14  28  14  31   8  32   8  33  14  34  14
M  ISO  5  35  14  36  14  37  14  38  14  39  14
M  END
>  <minimizedAffinity>  (1) 
-5.0443635

>  <minimizedRMSD>  (1) 
1.27408671

$$$$
