
     RDKit          3D

 42 45  0  0  0  0  0  0  0  0999 V2000
   39.1490   22.5190   35.5180 C   0  0  0  0  0  0  0  0  0  0  0  0
   39.2830   23.9050   35.4070 C   0  0  0  0  0  0  0  0  0  0  0  0
   40.6040   24.2000   35.8210 C   0  0  0  0  0  0  0  0  0  0  0  0
   41.1820   23.0080   36.1530 N   0  0  0  0  0  0  0  0  0  0  0  0
   40.3190   22.0100   35.9750 N   0  0  0  0  0  0  0  0  0  0  0  0
   36.3990   21.0290   33.5650 C   0  0  0  0  0  0  0  0  0  0  0  0
   35.4580   20.7320   34.5300 C   0  0  0  0  0  0  0  0  0  0  0  0
   35.7720   21.0480   35.8640 C   0  0  0  0  0  0  0  0  0  0  0  0
   36.9690   21.6210   36.1310 N   0  0  0  0  0  0  0  0  0  0  0  0
   37.8730   21.9010   35.1570 C   0  0  0  0  0  0  0  0  0  0  0  0
   37.5600   21.5960   33.8990 N   0  0  0  0  0  0  0  0  0  0  0  0
   34.9310   20.8150   36.9700 N   0  0  0  0  0  0  0  0  0  0  0  0
   42.5330   22.8140   36.6310 C   0  0  0  0  0  0  0  0  0  0  0  0
   43.3140   24.0240   36.2480 C   0  0  0  0  0  0  0  0  0  0  0  0
   44.2600   24.6230   37.0540 C   0  0  0  0  0  0  0  0  0  0  0  0
   44.7700   25.7030   36.3710 C   0  0  0  0  0  0  0  0  0  0  0  0
   44.1020   25.7080   35.1690 C   0  0  0  0  0  0  0  0  0  0  0  0
   43.2640   24.7090   35.1490 O   0  0  0  0  0  0  0  0  0  0  0  0
   44.1960   26.5850   34.0310 N   0  0  0  0  0  0  0  0  0  0  0  0
   45.3430   27.0460   33.2430 C   0  0  0  0  0  0  0  0  0  0  0  0
   44.7910   28.1190   32.3200 C   0  0  0  0  0  0  0  0  0  0  0  0
   43.8010   27.6150   31.4860 O   0  0  0  0  0  0  0  0  0  0  0  0
   42.7610   27.0350   32.1630 C   0  0  0  0  0  0  0  0  0  0  0  0
   42.8910   27.0750   33.6480 C   0  0  0  0  0  0  0  0  0  0  0  0
   38.5191   24.6201   35.0677 H   0  0  0  0  0  0  0  0  0  0  0  0
   41.0729   25.1940   35.8664 H   0  0  0  0  0  0  0  0  0  0  0  0
   36.1900   20.7961   32.5104 H   0  0  0  0  0  0  0  0  0  0  0  0
   34.4977   20.2653   34.2655 H   0  0  0  0  0  0  0  0  0  0  0  0
   35.2403   21.0781   37.9166 H   0  0  0  0  0  0  0  0  0  0  0  0
   34.0069   20.3816   36.8320 H   0  0  0  0  0  0  0  0  0  0  0  0
   42.5325   22.6963   37.7247 H   0  0  0  0  0  0  0  0  0  0  0  0
   42.9762   21.9080   36.1919 H   0  0  0  0  0  0  0  0  0  0  0  0
   44.5539   24.2957   38.0622 H   0  0  0  0  0  0  0  0  0  0  0  0
   45.5427   26.4079   36.7117 H   0  0  0  0  0  0  0  0  0  0  0  0
   46.1186   27.4654   33.9007 H   0  0  0  0  0  0  0  0  0  0  0  0
   45.8115   26.2241   32.6818 H   0  0  0  0  0  0  0  0  0  0  0  0
   44.3659   28.9301   32.9294 H   0  0  0  0  0  0  0  0  0  0  0  0
   45.6144   28.4902   31.6921 H   0  0  0  0  0  0  0  0  0  0  0  0
   41.8349   27.5595   31.8849 H   0  0  0  0  0  0  0  0  0  0  0  0
   42.7558   25.9726   31.8779 H   0  0  0  0  0  0  0  0  0  0  0  0
   42.7707   28.1106   33.9988 H   0  0  0  0  0  0  0  0  0  0  0  0
   42.1141   26.4417   34.1012 H   0  0  0  0  0  0  0  0  0  0  0  0
  1  5  2  0
  2  1  1  0
  2  3  2  0
  3  4  1  0
  4 13  1  0
  5  4  1  0
  6 11  2  0
  6  7  1  0
  7  8  2  0
  8  9  1  0
  8 12  1  0
 10  1  1  0
 10  9  2  0
 11 10  1  0
 14 13  1  0
 14 15  2  0
 16 15  1  0
 17 16  2  0
 18 17  1  0
 18 14  1  0
 19 17  1  0
 20 19  1  0
 21 20  1  0
 22 23  1  0
 22 21  1  0
 23 24  1  0
 24 19  1  0
  2 25  1  0
  3 26  1  0
  6 27  1  0
  7 28  1  0
 12 29  1  0
 12 30  1  0
 13 31  1  0
 13 32  1  0
 15 33  1  0
 16 34  1  0
 20 35  1  0
 20 36  1  0
 21 37  1  0
 21 38  1  0
 23 39  1  0
 23 40  1  0
 24 41  1  0
 24 42  1  0
M  ISO  8  25  14  26  14  27  14  28  14  31   8  32   8  33  14  34  14
M  ISO  8  35  13  36  13  37  13  38  13  39  13  40  13  41  13  42  13
M  END
>  <minimizedAffinity>  (1) 
-4.99701881

>  <minimizedRMSD>  (1) 
1.23404789

$$$$
