
     RDKit          3D

 41 44  0  0  0  0  0  0  0  0999 V2000
   39.1650   22.4920   35.5120 C   0  0  0  0  0  0  0  0  0  0  0  0
   39.3400   23.8610   35.3300 C   0  0  0  0  0  0  0  0  0  0  0  0
   40.6520   24.1620   35.7610 C   0  0  0  0  0  0  0  0  0  0  0  0
   41.1860   22.9720   36.1730 N   0  0  0  0  0  0  0  0  0  0  0  0
   40.3110   21.9890   36.0260 N   0  0  0  0  0  0  0  0  0  0  0  0
   36.4000   21.0370   33.5550 C   0  0  0  0  0  0  0  0  0  0  0  0
   35.4590   20.7460   34.5340 C   0  0  0  0  0  0  0  0  0  0  0  0
   35.7780   21.0530   35.8770 C   0  0  0  0  0  0  0  0  0  0  0  0
   36.9870   21.6100   36.1020 N   0  0  0  0  0  0  0  0  0  0  0  0
   37.8950   21.8910   35.1510 C   0  0  0  0  0  0  0  0  0  0  0  0
   37.5670   21.5900   33.8850 N   0  0  0  0  0  0  0  0  0  0  0  0
   34.9370   20.8200   36.9660 N   0  0  0  0  0  0  0  0  0  0  0  0
   42.5280   22.7640   36.7070 C   0  0  0  0  0  0  0  0  0  0  0  0
   43.3670   23.9010   36.2250 C   0  0  0  0  0  0  0  0  0  0  0  0
   44.1510   24.7110   37.0290 C   0  0  0  0  0  0  0  0  0  0  0  0
   44.7660   25.6400   36.2010 C   0  0  0  0  0  0  0  0  0  0  0  0
   44.3190   25.3390   34.9320 C   0  0  0  0  0  0  0  0  0  0  0  0
   43.5110   24.3250   34.9940 O   0  0  0  0  0  0  0  0  0  0  0  0
   44.7320   26.0800   33.7860 N   0  0  0  0  0  0  0  0  0  0  0  0
   45.1510   27.4710   33.7970 C   0  0  0  0  0  0  0  0  0  0  0  0
   44.6470   28.0070   32.4500 C   0  0  0  0  0  0  0  0  0  0  0  0
   44.0790   26.8100   31.7170 C   0  0  0  0  0  0  0  0  0  0  0  0
   44.8380   25.6710   32.3960 C   0  0  0  0  0  0  0  0  0  0  0  0
   38.6011   24.5703   34.9289 H   0  0  0  0  0  0  0  0  0  0  0  0
   41.1413   25.1472   35.7644 H   0  0  0  0  0  0  0  0  0  0  0  0
   36.1810   20.8098   32.5012 H   0  0  0  0  0  0  0  0  0  0  0  0
   34.4930   20.2897   34.2722 H   0  0  0  0  0  0  0  0  0  0  0  0
   35.2432   21.0725   37.9165 H   0  0  0  0  0  0  0  0  0  0  0  0
   34.0101   20.3955   36.8193 H   0  0  0  0  0  0  0  0  0  0  0  0
   42.5003   22.7538   37.8066 H   0  0  0  0  0  0  0  0  0  0  0  0
   42.9402   21.8006   36.3723 H   0  0  0  0  0  0  0  0  0  0  0  0
   44.2652   24.6329   38.1203 H   0  0  0  0  0  0  0  0  0  0  0  0
   45.4594   26.4422   36.4938 H   0  0  0  0  0  0  0  0  0  0  0  0
   44.6888   28.0144   34.6343 H   0  0  0  0  0  0  0  0  0  0  0  0
   46.2367   27.5906   33.9268 H   0  0  0  0  0  0  0  0  0  0  0  0
   43.8663   28.7658   32.6074 H   0  0  0  0  0  0  0  0  0  0  0  0
   45.4542   28.4871   31.8774 H   0  0  0  0  0  0  0  0  0  0  0  0
   44.2958   26.8550   30.6395 H   0  0  0  0  0  0  0  0  0  0  0  0
   42.9838   26.7219   31.7693 H   0  0  0  0  0  0  0  0  0  0  0  0
   44.3550   24.6985   32.2201 H   0  0  0  0  0  0  0  0  0  0  0  0
   45.8673   25.5252   32.0364 H   0  0  0  0  0  0  0  0  0  0  0  0
  1  5  2  0
  2  1  1  0
  2  3  2  0
  3  4  1  0
  4 13  1  0
  5  4  1  0
  6 11  2  0
  6  7  1  0
  7  8  2  0
  8  9  1  0
  8 12  1  0
 10  1  1  0
 10  9  2  0
 11 10  1  0
 14 13  1  0
 14 15  2  0
 16 15  1  0
 17 18  1  0
 17 16  2  0
 18 14  1  0
 19 20  1  0
 19 17  1  0
 21 20  1  0
 22 23  1  0
 22 21  1  0
 23 19  1  0
  2 24  1  0
  3 25  1  0
  6 26  1  0
  7 27  1  0
 12 28  1  0
 12 29  1  0
 13 30  1  0
 13 31  1  0
 15 32  1  0
 16 33  1  0
 20 34  1  0
 20 35  1  0
 21 36  1  0
 21 37  1  0
 22 38  1  0
 22 39  1  0
 23 40  1  0
 23 41  1  0
M  ISO  8  24  14  25  14  26  14  27  14  30   8  31   8  32  14  33  14
M  ISO  8  34  13  35  13  36  13  37  13  38  13  39  13  40  13  41  13
M  END
>  <minimizedAffinity>  (1) 
-4.7384181

>  <minimizedRMSD>  (1) 
0.639993668

$$$$
