
     RDKit          3D

 36 39  0  0  0  0  0  0  0  0999 V2000
   39.1920   22.4400   35.4830 C   0  0  0  0  0  0  0  0  0  0  0  0
   39.3340   23.8400   35.4390 C   0  0  0  0  0  0  0  0  0  0  0  0
   40.6730   24.1090   35.8330 C   0  0  0  0  0  0  0  0  0  0  0  0
   41.2380   22.8920   36.0860 N   0  0  0  0  0  0  0  0  0  0  0  0
   40.3700   21.9180   35.8790 N   0  0  0  0  0  0  0  0  0  0  0  0
   36.4000   21.0330   33.5370 C   0  0  0  0  0  0  0  0  0  0  0  0
   35.4560   20.7540   34.5010 C   0  0  0  0  0  0  0  0  0  0  0  0
   35.7880   21.0540   35.8370 C   0  0  0  0  0  0  0  0  0  0  0  0
   37.0070   21.6000   36.1090 N   0  0  0  0  0  0  0  0  0  0  0  0
   37.9100   21.8590   35.1260 C   0  0  0  0  0  0  0  0  0  0  0  0
   37.5720   21.5640   33.8640 N   0  0  0  0  0  0  0  0  0  0  0  0
   34.9530   20.8410   36.9630 N   0  0  0  0  0  0  0  0  0  0  0  0
   42.6210   22.6620   36.5260 C   0  0  0  0  0  0  0  0  0  0  0  0
   43.3690   23.9250   36.2570 C   0  0  0  0  0  0  0  0  0  0  0  0
   44.2030   24.5460   37.1590 C   0  0  0  0  0  0  0  0  0  0  0  0
   44.7190   25.6850   36.5620 C   0  0  0  0  0  0  0  0  0  0  0  0
   44.1600   25.6930   35.3030 C   0  0  0  0  0  0  0  0  0  0  0  0
   43.3920   24.6530   35.1880 O   0  0  0  0  0  0  0  0  0  0  0  0
   44.3840   26.7110   34.2410 C   0  0  0  0  0  0  0  0  0  0  0  0
   45.6700   26.5580   33.3960 C   0  0  0  0  0  0  0  0  0  0  0  0
   45.5430   27.6800   34.3530 C   0  0  0  0  0  0  0  0  0  0  0  0
   38.5659   24.5753   35.1573 H   0  0  0  0  0  0  0  0  0  0  0  0
   41.1547   25.0944   35.9168 H   0  0  0  0  0  0  0  0  0  0  0  0
   36.1796   20.8128   32.4820 H   0  0  0  0  0  0  0  0  0  0  0  0
   34.4824   20.3147   34.2382 H   0  0  0  0  0  0  0  0  0  0  0  0
   35.2845   21.0932   37.9050 H   0  0  0  0  0  0  0  0  0  0  0  0
   34.0150   20.4341   36.8389 H   0  0  0  0  0  0  0  0  0  0  0  0
   42.6437   22.4289   37.6008 H   0  0  0  0  0  0  0  0  0  0  0  0
   43.0714   21.8125   35.9918 H   0  0  0  0  0  0  0  0  0  0  0  0
   44.4223   24.1977   38.1791 H   0  0  0  0  0  0  0  0  0  0  0  0
   45.4167   26.4168   36.9952 H   0  0  0  0  0  0  0  0  0  0  0  0
   43.3041   26.8181   34.0609 H   0  0  0  0  0  0  0  0  0  0  0  0
   46.3696   25.7348   33.6033 H   0  0  0  0  0  0  0  0  0  0  0  0
   45.8889   26.4735   32.3213 H   0  0  0  0  0  0  0  0  0  0  0  0
   45.4317   28.7071   33.9753 H   0  0  0  0  0  0  0  0  0  0  0  0
   46.1568   28.0449   35.1897 H   0  0  0  0  0  0  0  0  0  0  0  0
  1  5  2  0
  2  1  1  0
  2  3  2  0
  3  4  1  0
  4 13  1  0
  5  4  1  0
  6 11  2  0
  6  7  1  0
  7  8  2  0
  8  9  1  0
  8 12  1  0
 10  1  1  0
 10  9  2  0
 11 10  1  0
 14 13  1  0
 14 15  2  0
 16 15  1  0
 17 16  2  0
 18 17  1  0
 18 14  1  0
 19 21  1  0
 19 17  1  0
 20 19  1  0
 20 21  1  0
  2 22  1  0
  3 23  1  0
  6 24  1  0
  7 25  1  0
 12 26  1  0
 12 27  1  0
 13 28  1  0
 13 29  1  0
 15 30  1  0
 16 31  1  0
 19 32  1  0
 20 33  1  0
 20 34  1  0
 21 35  1  0
 21 36  1  0
M  ISO  8  22  14  23  14  24  14  25  14  28   8  29   8  30  14  31  14
M  ISO  5  32  13  33  13  34  13  35  13  36  13
M  END
>  <minimizedAffinity>  (1) 
-4.68333864

>  <minimizedRMSD>  (1) 
0.769778728

$$$$
