
     RDKit          3D

 32 34  0  0  0  0  0  0  0  0999 V2000
   39.1200   22.5450   35.4920 C   0  0  0  0  0  0  0  0  0  0  0  0
   39.2460   23.9350   35.2810 C   0  0  0  0  0  0  0  0  0  0  0  0
   40.5620   24.2610   35.7010 C   0  0  0  0  0  0  0  0  0  0  0  0
   41.1260   23.0880   36.1250 N   0  0  0  0  0  0  0  0  0  0  0  0
   40.2830   22.0590   36.0070 N   0  0  0  0  0  0  0  0  0  0  0  0
   36.3850   21.0050   33.5500 C   0  0  0  0  0  0  0  0  0  0  0  0
   35.4570   20.7100   34.5120 C   0  0  0  0  0  0  0  0  0  0  0  0
   35.7620   21.0390   35.8500 C   0  0  0  0  0  0  0  0  0  0  0  0
   36.9580   21.6300   36.1100 N   0  0  0  0  0  0  0  0  0  0  0  0
   37.8570   21.9110   35.1460 C   0  0  0  0  0  0  0  0  0  0  0  0
   37.5350   21.5840   33.8820 N   0  0  0  0  0  0  0  0  0  0  0  0
   34.9320   20.8100   36.9740 N   0  0  0  0  0  0  0  0  0  0  0  0
   42.4750   22.9480   36.6430 C   0  0  0  0  0  0  0  0  0  0  0  0
   43.3070   24.0070   36.0360 C   0  0  0  0  0  0  0  0  0  0  0  0
   44.1050   24.8820   36.7390 C   0  0  0  0  0  0  0  0  0  0  0  0
   44.7270   25.7210   35.8380 C   0  0  0  0  0  0  0  0  0  0  0  0
   44.2700   25.3120   34.5970 C   0  0  0  0  0  0  0  0  0  0  0  0
   43.4490   24.3140   34.7850 O   0  0  0  0  0  0  0  0  0  0  0  0
   44.6020   25.8550   33.2660 C   0  0  0  0  0  0  0  0  0  0  0  0
   44.4700   27.2360   33.2630 F   0  0  0  0  0  0  0  0  0  0  0  0
   43.7540   25.3550   32.2850 F   0  0  0  0  0  0  0  0  0  0  0  0
   45.8980   25.5890   32.8930 F   0  0  0  0  0  0  0  0  0  0  0  0
   38.4859   24.6199   34.8770 H   0  0  0  0  0  0  0  0  0  0  0  0
   41.0332   25.2549   35.6883 H   0  0  0  0  0  0  0  0  0  0  0  0
   36.1784   20.7619   32.4973 H   0  0  0  0  0  0  0  0  0  0  0  0
   34.5021   20.2309   34.2500 H   0  0  0  0  0  0  0  0  0  0  0  0
   35.2489   21.0888   37.9135 H   0  0  0  0  0  0  0  0  0  0  0  0
   34.0113   20.3646   36.8521 H   0  0  0  0  0  0  0  0  0  0  0  0
   42.4685   23.0591   37.7374 H   0  0  0  0  0  0  0  0  0  0  0  0
   42.8789   21.9550   36.3963 H   0  0  0  0  0  0  0  0  0  0  0  0
   44.2257   24.9075   37.8321 H   0  0  0  0  0  0  0  0  0  0  0  0
   45.4318   26.5365   36.0575 H   0  0  0  0  0  0  0  0  0  0  0  0
  1  5  2  0
  2  1  1  0
  2  3  2  0
  3  4  1  0
  4 13  1  0
  5  4  1  0
  6 11  2  0
  6  7  1  0
  7  8  2  0
  8  9  1  0
  8 12  1  0
 10  1  1  0
 10  9  2  0
 11 10  1  0
 14 13  1  0
 14 15  2  0
 16 15  1  0
 17 18  1  0
 17 16  2  0
 18 14  1  0
 19 17  1  0
 20 19  1  0
 21 19  1  0
 22 19  1  0
  2 23  1  0
  3 24  1  0
  6 25  1  0
  7 26  1  0
 12 27  1  0
 12 28  1  0
 13 29  1  0
 13 30  1  0
 15 31  1  0
 16 32  1  0
M  ISO  8  23  14  24  14  25  14  26  14  29   8  30   8  31  14  32  14
M  END
>  <minimizedAffinity>  (1) 
-4.55682468

>  <minimizedRMSD>  (1) 
0.30900833

$$$$
