
     RDKit          3D

 35 37  0  0  0  0  0  0  0  0999 V2000
   39.1110   22.5840   35.4750 C   0  0  0  0  0  0  0  0  0  0  0  0
   39.2440   23.9670   35.2250 C   0  0  0  0  0  0  0  0  0  0  0  0
   40.5380   24.3240   35.6510 C   0  0  0  0  0  0  0  0  0  0  0  0
   41.1060   23.1630   36.1260 N   0  0  0  0  0  0  0  0  0  0  0  0
   40.2640   22.1350   36.0230 N   0  0  0  0  0  0  0  0  0  0  0  0
   36.3900   20.9900   33.5680 C   0  0  0  0  0  0  0  0  0  0  0  0
   35.4620   20.6930   34.5600 C   0  0  0  0  0  0  0  0  0  0  0  0
   35.7780   21.0430   35.8760 C   0  0  0  0  0  0  0  0  0  0  0  0
   36.9650   21.6450   36.0910 N   0  0  0  0  0  0  0  0  0  0  0  0
   37.8640   21.9340   35.1320 C   0  0  0  0  0  0  0  0  0  0  0  0
   37.5460   21.5910   33.8680 N   0  0  0  0  0  0  0  0  0  0  0  0
   34.9400   20.8050   36.9590 N   0  0  0  0  0  0  0  0  0  0  0  0
   42.4500   23.0370   36.6760 C   0  0  0  0  0  0  0  0  0  0  0  0
   43.3110   24.0160   35.9700 C   0  0  0  0  0  0  0  0  0  0  0  0
   44.0460   25.0130   36.5710 C   0  0  0  0  0  0  0  0  0  0  0  0
   44.7160   25.7190   35.5950 C   0  0  0  0  0  0  0  0  0  0  0  0
   44.3500   25.1070   34.4160 C   0  0  0  0  0  0  0  0  0  0  0  0
   43.5330   24.1230   34.6870 O   0  0  0  0  0  0  0  0  0  0  0  0
   44.7020   25.3540   32.9780 C   0  0  0  0  0  0  0  0  0  0  0  0
   45.1920   26.7660   32.8310 C   0  0  0  0  0  0  0  0  0  0  0  0
   38.4874   24.6333   34.7850 H   0  0  0  0  0  0  0  0  0  0  0  0
   40.9988   25.3221   35.6124 H   0  0  0  0  0  0  0  0  0  0  0  0
   36.1702   20.7270   32.5228 H   0  0  0  0  0  0  0  0  0  0  0  0
   34.5099   20.1986   34.3171 H   0  0  0  0  0  0  0  0  0  0  0  0
   35.2300   21.0869   37.9063 H   0  0  0  0  0  0  0  0  0  0  0  0
   34.0290   20.3467   36.8143 H   0  0  0  0  0  0  0  0  0  0  0  0
   42.4373   23.2560   37.7539 H   0  0  0  0  0  0  0  0  0  0  0  0
   42.8315   22.0144   36.5393 H   0  0  0  0  0  0  0  0  0  0  0  0
   44.0911   25.2131   37.6517 H   0  0  0  0  0  0  0  0  0  0  0  0
   45.3908   26.5775   35.7275 H   0  0  0  0  0  0  0  0  0  0  0  0
   45.4920   24.6550   32.6662 H   0  0  0  0  0  0  0  0  0  0  0  0
   43.8147   25.2005   32.3462 H   0  0  0  0  0  0  0  0  0  0  0  0
   45.3449   27.2066   33.8272 H   0  0  0  0  0  0  0  0  0  0  0  0
   46.1435   26.7683   32.2791 H   0  0  0  0  0  0  0  0  0  0  0  0
   44.4465   27.3572   32.2791 H   0  0  0  0  0  0  0  0  0  0  0  0
  1  5  2  0
  2  1  1  0
  2  3  2  0
  3  4  1  0
  4 13  1  0
  5  4  1  0
  6 11  2  0
  6  7  1  0
  7  8  2  0
  8  9  1  0
  8 12  1  0
 10  1  1  0
 10  9  2  0
 11 10  1  0
 14 15  2  0
 14 13  1  0
 16 15  1  0
 17 18  1  0
 17 16  2  0
 18 14  1  0
 19 17  1  0
 20 19  1  0
  2 21  1  0
  3 22  1  0
  6 23  1  0
  7 24  1  0
 12 25  1  0
 12 26  1  0
 13 27  1  0
 13 28  1  0
 15 29  1  0
 16 30  1  0
 19 31  1  0
 19 32  1  0
 20 33  1  0
 20 34  1  0
 20 35  1  0
M  ISO  8  21  14  22  14  23  14  24  14  27   8  28   8  29  14  30  14
M  ISO  5  31   8  32   8  33   8  34   8  35   8
M  END
>  <minimizedAffinity>  (1) 
-4.35549307

>  <minimizedRMSD>  (1) 
0.0348488092

$$$$
