
     RDKit          3D

 36 39  0  0  1  0  0  0  0  0999 V2000
   38.3340   23.6850   36.0840 N   0  0  0  0  0  0  0  0  0  0  0  0
   37.3660   24.0390   37.1240 C   0  0  0  0  0  0  0  0  0  0  0  0
   38.0280   23.4910   38.3780 C   0  0  0  0  0  0  0  0  0  0  0  0
   39.4340   23.0850   37.9500 C   0  0  0  0  0  0  0  0  0  0  0  0
   39.5910   23.9740   36.7320 C   0  0  1  0  0  0  0  0  0  0  0  0
   40.7360   23.6040   35.9470 N   0  0  0  0  0  0  0  0  0  0  0  0
   41.1790   24.2520   34.8770 C   0  0  0  0  0  0  0  0  0  0  0  0
   42.2760   23.6590   34.3570 N   0  0  0  0  0  0  0  0  0  0  0  0
   42.5590   22.5730   35.1260 C   0  0  0  0  0  0  0  0  0  0  0  0
   43.5480   21.6150   35.0660 C   0  0  0  0  0  0  0  0  0  0  0  0
   44.4310   21.6250   34.1750 O   0  0  0  0  0  0  0  0  0  0  0  0
   43.5590   20.6410   35.9980 N   0  0  0  0  0  0  0  0  0  0  0  0
   42.5990   20.6390   36.9580 C   0  0  0  0  0  0  0  0  0  0  0  0
   42.5070   19.6630   37.9940 N   0  0  0  0  0  0  0  0  0  0  0  0
   41.6390   21.5820   37.0040 N   0  0  0  0  0  0  0  0  0  0  0  0
   41.5670   22.5870   36.1020 C   0  0  0  0  0  0  0  0  0  0  0  0
   38.0700   23.1850   34.7720 C   0  0  0  0  0  0  0  0  0  0  0  0
   38.0120   21.8060   34.5020 C   0  0  0  0  0  0  0  0  0  0  0  0
   37.7470   21.4060   33.1960 C   0  0  0  0  0  0  0  0  0  0  0  0
   37.5580   22.3870   32.2480 N   0  0  0  0  0  0  0  0  0  0  0  0
   37.6240   23.6930   32.5570 C   0  0  0  0  0  0  0  0  0  0  0  0
   37.8770   24.1290   33.8090 N   0  0  0  0  0  0  0  0  0  0  0  0
   37.2301   25.1287   37.1883 H   0  0  0  0  0  0  0  0  0  0  0  0
   36.3580   23.6367   36.9447 H   0  0  0  0  0  0  0  0  0  0  0  0
   38.0718   24.2642   39.1592 H   0  0  0  0  0  0  0  0  0  0  0  0
   37.4678   22.6429   38.7987 H   0  0  0  0  0  0  0  0  0  0  0  0
   40.1809   23.3141   38.7243 H   0  0  0  0  0  0  0  0  0  0  0  0
   39.5754   22.0097   37.7663 H   0  0  0  0  0  0  0  0  0  0  0  0
   39.7723   25.0411   36.9281 H   0  0  0  0  0  0  0  0  0  0  0  0
   40.7116   25.1585   34.4650 H   0  0  0  0  0  0  0  0  0  0  0  0
   44.2843   19.9099   35.9820 H   0  0  0  0  0  0  0  0  0  0  0  0
   41.7512   19.7218   38.6913 H   0  0  0  0  0  0  0  0  0  0  0  0
   43.1963   18.8994   38.0448 H   0  0  0  0  0  0  0  0  0  0  0  0
   38.1714   21.0656   35.2997 H   0  0  0  0  0  0  0  0  0  0  0  0
   37.6903   20.3404   32.9292 H   0  0  0  0  0  0  0  0  0  0  0  0
   37.4660   24.4344   31.7599 H   0  0  0  0  0  0  0  0  0  0  0  0
  1  5  1  0
  1  2  1  0
  2  3  1  0
  4  3  1  0
  5  4  1  0
  6 16  1  0
  6  5  1  0
  7  6  1  0
  8  7  2  0
  8  9  1  0
  9 16  2  0
 10  9  1  0
 10 12  1  0
 11 10  2  0
 12 13  1  0
 13 15  2  0
 13 14  1  0
 16 15  1  0
 17  1  1  0
 18 17  2  0
 19 18  1  0
 20 21  1  0
 20 19  2  0
 21 22  2  0
 22 17  1  0
  2 23  1  0
  2 24  1  0
  3 25  1  0
  3 26  1  0
  4 27  1  0
  4 28  1  0
  5 29  1  1
  7 30  1  0
 12 31  1  0
 14 32  1  0
 14 33  1  0
 18 34  1  0
 19 35  1  0
 21 36  1  0
M  ISO  8  23  13  24  13  25  13  26  13  27  13  28  13  29  13  30  14
M  ISO  4  31   9  34  14  35  14  36  14
M  END
>  <minimizedAffinity>  (1) 
-4.81946802

>  <minimizedRMSD>  (1) 
1.13693833

$$$$
