
     RDKit          3D

 33 36  0  0  1  0  0  0  0  0999 V2000
   38.8770   22.4390   35.9040 N   0  0  0  0  0  0  0  0  0  0  0  0
   38.9600   23.2730   37.1060 C   0  0  0  0  0  0  0  0  0  0  0  0
   40.2190   22.7390   37.7760 C   0  0  0  0  0  0  0  0  0  0  0  0
   40.8630   21.8100   36.7550 C   0  0  0  0  0  0  0  0  0  0  0  0
   40.2550   22.3880   35.4850 C   0  0  2  0  0  0  0  0  0  0  0  0
   40.8290   23.6940   35.2160 N   0  0  0  0  0  0  0  0  0  0  0  0
   42.0850   24.0600   35.5720 C   0  0  0  0  0  0  0  0  0  0  0  0
   42.3310   25.3210   35.1900 N   0  0  0  0  0  0  0  0  0  0  0  0
   41.2340   25.8010   34.5730 C   0  0  0  0  0  0  0  0  0  0  0  0
   40.8420   26.9800   33.9690 C   0  0  0  0  0  0  0  0  0  0  0  0
   39.6050   27.1160   33.4290 N   0  0  0  0  0  0  0  0  0  0  0  0
   38.7290   26.1000   33.4700 C   0  0  0  0  0  0  0  0  0  0  0  0
   39.1070   24.9600   34.0530 N   0  0  0  0  0  0  0  0  0  0  0  0
   40.3100   24.7730   34.6000 C   0  0  0  0  0  0  0  0  0  0  0  0
   37.7140   21.8460   35.3240 C   0  0  0  0  0  0  0  0  0  0  0  0
   36.6420   21.4020   36.1000 C   0  0  0  0  0  0  0  0  0  0  0  0
   35.5440   20.8360   35.4570 C   0  0  0  0  0  0  0  0  0  0  0  0
   35.5870   20.7490   34.0800 N   0  0  0  0  0  0  0  0  0  0  0  0
   36.6500   21.1930   33.3650 C   0  0  0  0  0  0  0  0  0  0  0  0
   37.7000   21.7340   33.9830 N   0  0  0  0  0  0  0  0  0  0  0  0
   39.0654   24.3370   36.8476 H   0  0  0  0  0  0  0  0  0  0  0  0
   38.0642   23.2239   37.7425 H   0  0  0  0  0  0  0  0  0  0  0  0
   40.9004   23.5652   38.0271 H   0  0  0  0  0  0  0  0  0  0  0  0
   39.9894   22.2150   38.7156 H   0  0  0  0  0  0  0  0  0  0  0  0
   41.9601   21.8899   36.7598 H   0  0  0  0  0  0  0  0  0  0  0  0
   40.6860   20.7364   36.9165 H   0  0  0  0  0  0  0  0  0  0  0  0
   40.4158   21.8345   34.5481 H   0  0  0  0  0  0  0  0  0  0  0  0
   42.8012   23.4132   36.0999 H   0  0  0  0  0  0  0  0  0  0  0  0
   41.5460   27.8241   33.9251 H   0  0  0  0  0  0  0  0  0  0  0  0
   37.7245   26.2040   33.0340 H   0  0  0  0  0  0  0  0  0  0  0  0
   36.6640   21.4971   37.1957 H   0  0  0  0  0  0  0  0  0  0  0  0
   34.6752   20.4720   36.0250 H   0  0  0  0  0  0  0  0  0  0  0  0
   36.6460   21.1063   32.2684 H   0  0  0  0  0  0  0  0  0  0  0  0
  1  2  1  0
  2  3  1  0
  4  3  1  0
  5  1  1  0
  5  4  1  0
  6  5  1  0
  6  7  1  0
  8  7  2  0
  9 14  2  0
  9  8  1  0
 10  9  1  0
 11 12  1  0
 11 10  2  0
 12 13  2  0
 13 14  1  0
 14  6  1  0
 15  1  1  0
 15 16  2  0
 17 16  1  0
 18 17  2  0
 19 20  2  0
 19 18  1  0
 20 15  1  0
  2 21  1  0
  2 22  1  0
  3 23  1  0
  3 24  1  0
  4 25  1  0
  4 26  1  0
  5 27  1  6
  7 28  1  0
 10 29  1  0
 12 30  1  0
 16 31  1  0
 17 32  1  0
 19 33  1  0
M  ISO  8  21  13  22  13  23  13  24  13  25  13  26  13  27  13  28  14
M  ISO  5  29  14  30  14  31  14  32  14  33  14
M  END
>  <minimizedAffinity>  (1) 
-4.77776718

>  <minimizedRMSD>  (1) 
2.73332214

$$$$
