
     RDKit          3D

 30 32  0  0  1  0  0  0  0  0999 V2000
   38.6930   22.5540   36.1090 N   0  0  0  0  0  0  0  0  0  0  0  0
   38.7030   23.4310   37.2610 C   0  0  0  0  0  0  0  0  0  0  0  0
   39.9430   22.9410   38.0240 C   0  0  0  0  0  0  0  0  0  0  0  0
   40.6620   22.0260   37.0650 C   0  0  0  0  0  0  0  0  0  0  0  0
   40.0970   22.5060   35.7510 C   0  0  2  0  0  0  0  0  0  0  0  0
   37.5870   21.9030   35.4880 C   0  0  0  0  0  0  0  0  0  0  0  0
   36.5180   21.3830   36.2250 C   0  0  0  0  0  0  0  0  0  0  0  0
   35.4700   20.7600   35.5560 C   0  0  0  0  0  0  0  0  0  0  0  0
   35.5520   20.6920   34.1760 N   0  0  0  0  0  0  0  0  0  0  0  0
   36.5950   21.2040   33.5070 C   0  0  0  0  0  0  0  0  0  0  0  0
   37.6120   21.8080   34.1390 N   0  0  0  0  0  0  0  0  0  0  0  0
   40.5780   23.8530   35.3640 C   0  0  0  0  0  0  0  0  0  0  0  0
   39.7840   24.9010   34.9000 C   0  0  0  0  0  0  0  0  0  0  0  0
   40.4020   26.0950   34.5840 C   0  0  0  0  0  0  0  0  0  0  0  0
   41.7320   26.3150   34.6930 N   0  0  0  0  0  0  0  0  0  0  0  0
   42.4800   25.2730   35.1480 C   0  0  0  0  0  0  0  0  0  0  0  0
   41.9080   24.0940   35.4660 N   0  0  0  0  0  0  0  0  0  0  0  0
   38.8085   24.4840   36.9609 H   0  0  0  0  0  0  0  0  0  0  0  0
   37.7761   23.3973   37.8524 H   0  0  0  0  0  0  0  0  0  0  0  0
   40.5851   23.7898   38.3020 H   0  0  0  0  0  0  0  0  0  0  0  0
   39.6739   22.4271   38.9586 H   0  0  0  0  0  0  0  0  0  0  0  0
   41.7523   22.1635   37.1127 H   0  0  0  0  0  0  0  0  0  0  0  0
   40.5190   20.9531   37.2608 H   0  0  0  0  0  0  0  0  0  0  0  0
   40.3679   21.8783   34.8893 H   0  0  0  0  0  0  0  0  0  0  0  0
   36.5064   21.4659   37.3218 H   0  0  0  0  0  0  0  0  0  0  0  0
   34.6120   20.3390   36.1006 H   0  0  0  0  0  0  0  0  0  0  0  0
   36.6172   21.1266   32.4100 H   0  0  0  0  0  0  0  0  0  0  0  0
   38.6963   24.7803   34.7888 H   0  0  0  0  0  0  0  0  0  0  0  0
   39.7720   26.9201   34.2203 H   0  0  0  0  0  0  0  0  0  0  0  0
   43.5677   25.3944   35.2580 H   0  0  0  0  0  0  0  0  0  0  0  0
  1  2  1  0
  2  3  1  0
  4  3  1  0
  5  1  1  0
  5  4  1  0
  6  1  1  0
  6  7  2  0
  8  7  1  0
  9  8  2  0
 10 11  2  0
 10  9  1  0
 11  6  1  0
 12 17  1  0
 12  5  1  0
 13 12  2  0
 14 15  2  0
 14 13  1  0
 15 16  1  0
 16 17  2  0
  2 18  1  0
  2 19  1  0
  3 20  1  0
  3 21  1  0
  4 22  1  0
  4 23  1  0
  5 24  1  6
  7 25  1  0
  8 26  1  0
 10 27  1  0
 13 28  1  0
 14 29  1  0
 16 30  1  0
M  ISO  8  18  13  19  13  20  13  21  13  22  13  23  13  24  13  25  14
M  ISO  5  26  14  27  14  28  14  29  14  30  14
M  END
>  <minimizedAffinity>  (1) 
-4.38057327

>  <minimizedRMSD>  (1) 
1.67227793

$$$$
