
     RDKit          3D

 32 34  0  0  1  0  0  0  0  0999 V2000
   38.8750   23.8080   36.0940 N   0  0  0  0  0  0  0  0  0  0  0  0
   37.8560   24.6590   36.7210 C   0  0  0  0  0  0  0  0  0  0  0  0
   37.7980   24.1010   38.1380 C   0  0  0  0  0  0  0  0  0  0  0  0
   38.9960   23.1670   38.2550 C   0  0  0  0  0  0  0  0  0  0  0  0
   39.8550   23.7740   37.1370 C   0  0  1  0  0  0  0  0  0  0  0  0
   38.8460   23.2120   34.8080 C   0  0  0  0  0  0  0  0  0  0  0  0
   38.3060   21.9540   34.5580 C   0  0  0  0  0  0  0  0  0  0  0  0
   38.3250   21.4540   33.2560 C   0  0  0  0  0  0  0  0  0  0  0  0
   38.8800   22.2400   32.2830 N   0  0  0  0  0  0  0  0  0  0  0  0
   39.3940   23.4540   32.5580 C   0  0  0  0  0  0  0  0  0  0  0  0
   39.3810   23.9400   33.8030 N   0  0  0  0  0  0  0  0  0  0  0  0
   41.0350   22.9350   36.8800 C   0  0  0  0  0  0  0  0  0  0  0  0
   41.0840   21.6460   37.3840 C   0  0  0  0  0  0  0  0  0  0  0  0
   42.1850   20.8420   37.1490 C   0  0  0  0  0  0  0  0  0  0  0  0
   43.2650   21.3210   36.4000 C   0  0  0  0  0  0  0  0  0  0  0  0
   43.1990   22.6090   35.9050 C   0  0  0  0  0  0  0  0  0  0  0  0
   42.0970   23.4070   36.1420 C   0  0  0  0  0  0  0  0  0  0  0  0
   38.1632   25.7152   36.7206 H   0  0  0  0  0  0  0  0  0  0  0  0
   36.8870   24.6440   36.2005 H   0  0  0  0  0  0  0  0  0  0  0  0
   37.8708   24.9143   38.8751 H   0  0  0  0  0  0  0  0  0  0  0  0
   36.8506   23.5771   38.3326 H   0  0  0  0  0  0  0  0  0  0  0  0
   39.4834   23.2368   39.2386 H   0  0  0  0  0  0  0  0  0  0  0  0
   38.7790   22.0923   38.1657 H   0  0  0  0  0  0  0  0  0  0  0  0
   40.3154   24.7562   37.3194 H   0  0  0  0  0  0  0  0  0  0  0  0
   37.8701   21.3619   35.3762 H   0  0  0  0  0  0  0  0  0  0  0  0
   37.9088   20.4635   33.0199 H   0  0  0  0  0  0  0  0  0  0  0  0
   39.8308   24.0543   31.7463 H   0  0  0  0  0  0  0  0  0  0  0  0
   40.2413   21.2586   37.9755 H   0  0  0  0  0  0  0  0  0  0  0  0
   42.2114   19.8195   37.5537 H   0  0  0  0  0  0  0  0  0  0  0  0
   44.1444   20.6882   36.2100 H   0  0  0  0  0  0  0  0  0  0  0  0
   44.0371   23.0052   35.3129 H   0  0  0  0  0  0  0  0  0  0  0  0
   42.0676   24.4294   35.7373 H   0  0  0  0  0  0  0  0  0  0  0  0
  1  2  1  0
  1  5  1  0
  2  3  1  0
  3  4  1  0
  5  4  1  0
  6  1  1  0
  7  6  2  0
  8  7  1  0
  9 10  1  0
  9  8  2  0
 10 11  2  0
 11  6  1  0
 12  5  1  0
 12 13  2  0
 14 13  1  0
 15 14  2  0
 16 17  2  0
 16 15  1  0
 17 12  1  0
  2 18  1  0
  2 19  1  0
  3 20  1  0
  3 21  1  0
  4 22  1  0
  4 23  1  0
  5 24  1  1
  7 25  1  0
  8 26  1  0
 10 27  1  0
 13 28  1  0
 14 29  1  0
 15 30  1  0
 16 31  1  0
 17 32  1  0
M  ISO  8  18  13  19  13  20  13  21  13  22  13  23  13  24  13  25  14
M  ISO  7  26  14  27  14  28  14  29  14  30  14  31  14  32  14
M  END
>  <minimizedAffinity>  (1) 
-4.21344852

>  <minimizedRMSD>  (1) 
2.02280474

$$$$
