
     RDKit          3D

 29 30  0  0  1  0  0  0  0  0999 V2000
   38.1920   22.8660   36.2170 N   0  0  0  0  0  0  0  0  0  0  0  0
   37.8230   23.5260   37.4590 C   0  0  0  0  0  0  0  0  0  0  0  0
   39.0320   23.2270   38.3390 C   0  0  0  0  0  0  0  0  0  0  0  0
   40.1050   22.6990   37.3910 C   0  0  0  0  0  0  0  0  0  0  0  0
   39.5910   23.2140   36.0720 C   0  0  2  0  0  0  0  0  0  0  0  0
   37.3870   22.0660   35.3410 C   0  0  0  0  0  0  0  0  0  0  0  0
   36.3110   21.3100   35.8040 C   0  0  0  0  0  0  0  0  0  0  0  0
   35.5750   20.5610   34.9050 C   0  0  0  0  0  0  0  0  0  0  0  0
   35.9530   20.6040   33.5810 N   0  0  0  0  0  0  0  0  0  0  0  0
   37.0010   21.3470   33.1690 C   0  0  0  0  0  0  0  0  0  0  0  0
   37.7250   22.0790   34.0240 N   0  0  0  0  0  0  0  0  0  0  0  0
   39.8090   24.6010   35.8400 N   0  0  0  0  0  0  0  0  0  0  0  0
   40.9150   25.0040   35.0670 C   0  0  0  0  0  0  0  0  0  0  0  0
   41.7650   24.2030   34.5170 N   0  0  0  0  0  0  0  0  0  0  0  0
   41.1140   26.4140   34.8750 N   0  0  0  0  0  0  0  0  0  0  0  0
   42.5770   24.5250   33.9480 H   0  0  0  0  0  0  0  0  0  0  0  0
   37.6905   24.6083   37.3139 H   0  0  0  0  0  0  0  0  0  0  0  0
   36.8674   23.1814   37.8810 H   0  0  0  0  0  0  0  0  0  0  0  0
   39.3786   24.1427   38.8403 H   0  0  0  0  0  0  0  0  0  0  0  0
   38.7921   22.5005   39.1293 H   0  0  0  0  0  0  0  0  0  0  0  0
   41.0958   23.1132   37.6294 H   0  0  0  0  0  0  0  0  0  0  0  0
   40.2520   21.6096   37.4295 H   0  0  0  0  0  0  0  0  0  0  0  0
   40.1001   22.7898   35.1940 H   0  0  0  0  0  0  0  0  0  0  0  0
   36.0506   21.3095   36.8727 H   0  0  0  0  0  0  0  0  0  0  0  0
   34.7194   19.9533   35.2346 H   0  0  0  0  0  0  0  0  0  0  0  0
   37.2675   21.3513   32.1018 H   0  0  0  0  0  0  0  0  0  0  0  0
   39.1651   25.3023   36.2330 H   0  0  0  0  0  0  0  0  0  0  0  0
   41.9112   26.7502   34.3161 H   0  0  0  0  0  0  0  0  0  0  0  0
   40.4595   27.0886   35.2963 H   0  0  0  0  0  0  0  0  0  0  0  0
  1  2  1  0
  2  3  1  0
  4  3  1  0
  5  1  1  0
  5  4  1  0
  6  7  2  0
  6  1  1  0
  8  7  1  0
  9  8  2  0
 10  9  1  0
 10 11  2  0
 11  6  1  0
 12  5  1  0
 13 12  1  0
 14 13  2  0
 15 13  1  0
 16 14  1  0
  2 17  1  0
  2 18  1  0
  3 19  1  0
  3 20  1  0
  4 21  1  0
  4 22  1  0
  5 23  1  6
  7 24  1  0
  8 25  1  0
 10 26  1  0
 12 27  1  0
 15 28  1  0
 15 29  1  0
M  ISO  8  17  13  18  13  19  13  20  13  21  13  22  13  23  13  24  14
M  ISO  2  25  14  26  14
M  END
>  <minimizedAffinity>  (1) 
-4.06718779

>  <minimizedRMSD>  (1) 
0.87680757

$$$$
