
     RDKit          3D

 34 35  0  0  1  0  0  0  0  0999 V2000
   38.5730   23.6920   36.1160 N   0  0  0  0  0  0  0  0  0  0  0  0
   37.8880   24.5910   37.0660 C   0  0  0  0  0  0  0  0  0  0  0  0
   38.2980   23.9970   38.4090 C   0  0  0  0  0  0  0  0  0  0  0  0
   39.4090   23.0180   38.0920 C   0  0  0  0  0  0  0  0  0  0  0  0
   39.8280   23.6080   36.7340 C   0  0  1  0  0  0  0  0  0  0  0  0
   38.0100   23.1300   34.9380 C   0  0  0  0  0  0  0  0  0  0  0  0
   37.4950   21.8400   34.8540 C   0  0  0  0  0  0  0  0  0  0  0  0
   36.9800   21.3870   33.6510 C   0  0  0  0  0  0  0  0  0  0  0  0
   37.0040   22.2540   32.5870 N   0  0  0  0  0  0  0  0  0  0  0  0
   37.5060   23.4940   32.6910 C   0  0  0  0  0  0  0  0  0  0  0  0
   37.9960   23.9100   33.8520 N   0  0  0  0  0  0  0  0  0  0  0  0
   40.9460   22.8470   36.2080 C   0  0  0  0  0  0  0  0  0  0  0  0
   42.3160   23.4560   36.3490 C   0  0  0  0  0  0  0  0  0  0  0  0
   40.8120   22.3770   34.7800 C   0  0  0  0  0  0  0  0  0  0  0  0
   40.9790   21.5500   37.0310 C   0  0  0  0  0  0  0  0  0  0  0  0
   38.2411   25.6276   36.9620 H   0  0  0  0  0  0  0  0  0  0  0  0
   36.7995   24.6490   36.9184 H   0  0  0  0  0  0  0  0  0  0  0  0
   38.6609   24.7859   39.0843 H   0  0  0  0  0  0  0  0  0  0  0  0
   37.4530   23.5076   38.9155 H   0  0  0  0  0  0  0  0  0  0  0  0
   40.2220   23.0556   38.8320 H   0  0  0  0  0  0  0  0  0  0  0  0
   39.1312   21.9537   38.0925 H   0  0  0  0  0  0  0  0  0  0  0  0
   40.2931   24.6005   36.6415 H   0  0  0  0  0  0  0  0  0  0  0  0
   37.4970   21.1845   35.7373 H   0  0  0  0  0  0  0  0  0  0  0  0
   36.5678   20.3720   33.5519 H   0  0  0  0  0  0  0  0  0  0  0  0
   37.5114   24.1628   31.8177 H   0  0  0  0  0  0  0  0  0  0  0  0
   42.5608   23.5648   37.4159 H   0  0  0  0  0  0  0  0  0  0  0  0
   43.0588   22.8033   35.8671 H   0  0  0  0  0  0  0  0  0  0  0  0
   42.3291   24.4447   35.8671 H   0  0  0  0  0  0  0  0  0  0  0  0
   40.5104   21.3192   34.7689 H   0  0  0  0  0  0  0  0  0  0  0  0
   40.0502   22.9809   34.2652 H   0  0  0  0  0  0  0  0  0  0  0  0
   41.7777   22.4884   34.2652 H   0  0  0  0  0  0  0  0  0  0  0  0
   40.9727   21.7958   38.1032 H   0  0  0  0  0  0  0  0  0  0  0  0
   40.0961   20.9400   36.7895 H   0  0  0  0  0  0  0  0  0  0  0  0
   41.8918   20.9856   36.7895 H   0  0  0  0  0  0  0  0  0  0  0  0
  1  5  1  0
  1  2  1  0
  2  3  1  0
  4  3  1  0
  5  4  1  0
  6  1  1  0
  7  6  2  0
  8  7  1  0
  9 10  1  0
  9  8  2  0
 10 11  2  0
 11  6  1  0
 12 13  1  0
 12  5  1  0
 12 15  1  0
 14 12  1  0
  2 16  1  0
  2 17  1  0
  3 18  1  0
  3 19  1  0
  4 20  1  0
  4 21  1  0
  5 22  1  1
  7 23  1  0
  8 24  1  0
 10 25  1  0
 13 26  1  0
 13 27  1  0
 13 28  1  0
 14 29  1  0
 14 30  1  0
 14 31  1  0
 15 32  1  0
 15 33  1  0
 15 34  1  0
M  ISO  8  16  13  17  13  18  13  19  13  20  13  21  13  22  13  23  14
M  ISO  8  24  14  25  14  26   8  27   8  28   8  29   8  30   8  31   8
M  ISO  3  32   8  33   8  34   8
M  END
>  <minimizedAffinity>  (1) 
-3.96424532

>  <minimizedRMSD>  (1) 
0.750239849

$$$$
