
     RDKit          3D

 35 37  0  0  1  0  0  0  0  0999 V2000
   38.4140   23.7570   36.0960 N   0  0  0  0  0  0  0  0  0  0  0  0
   37.7210   24.6780   36.9720 C   0  0  0  0  0  0  0  0  0  0  0  0
   38.0530   24.1180   38.3640 C   0  0  0  0  0  0  0  0  0  0  0  0
   39.1700   23.1010   38.1240 C   0  0  0  0  0  0  0  0  0  0  0  0
   39.6640   23.6120   36.7920 C   0  0  1  0  0  0  0  0  0  0  0  0
   37.9670   23.1660   34.8800 C   0  0  0  0  0  0  0  0  0  0  0  0
   38.0920   23.8140   33.6380 C   0  0  0  0  0  0  0  0  0  0  0  0
   37.6310   23.1660   32.5010 C   0  0  0  0  0  0  0  0  0  0  0  0
   37.0700   21.9110   32.6610 N   0  0  0  0  0  0  0  0  0  0  0  0
   36.9680   21.3280   33.8640 C   0  0  0  0  0  0  0  0  0  0  0  0
   37.4120   21.9460   34.9640 N   0  0  0  0  0  0  0  0  0  0  0  0
   40.6000   22.7650   36.1250 N   0  0  0  0  0  0  0  0  0  0  0  0
   41.0270   21.6040   36.8230 C   0  0  0  0  0  0  0  0  0  0  0  0
   42.5550   21.6150   36.8080 C   0  0  0  0  0  0  0  0  0  0  0  0
   43.0000   21.5140   35.5080 O   0  0  0  0  0  0  0  0  0  0  0  0
   42.5370   22.5490   34.6980 C   0  0  0  0  0  0  0  0  0  0  0  0
   41.6180   23.4900   35.4410 C   0  0  0  0  0  0  0  0  0  0  0  0
   38.1018   25.7032   36.8538 H   0  0  0  0  0  0  0  0  0  0  0  0
   36.6417   24.7491   36.7716 H   0  0  0  0  0  0  0  0  0  0  0  0
   38.3980   24.9211   39.0319 H   0  0  0  0  0  0  0  0  0  0  0  0
   37.1757   23.6627   38.8468 H   0  0  0  0  0  0  0  0  0  0  0  0
   39.9479   23.1504   38.9001 H   0  0  0  0  0  0  0  0  0  0  0  0
   38.8635   22.0447   38.1439 H   0  0  0  0  0  0  0  0  0  0  0  0
   40.2627   24.5317   36.8683 H   0  0  0  0  0  0  0  0  0  0  0  0
   38.5458   24.8137   33.5694 H   0  0  0  0  0  0  0  0  0  0  0  0
   37.7086   23.6330   31.5081 H   0  0  0  0  0  0  0  0  0  0  0  0
   36.5138   20.3296   33.9474 H   0  0  0  0  0  0  0  0  0  0  0  0
   40.6585   21.6285   37.8592 H   0  0  0  0  0  0  0  0  0  0  0  0
   40.6348   20.6924   36.3485 H   0  0  0  0  0  0  0  0  0  0  0  0
   42.9197   22.5544   37.2489 H   0  0  0  0  0  0  0  0  0  0  0  0
   42.9346   20.7648   37.3937 H   0  0  0  0  0  0  0  0  0  0  0  0
   41.9884   22.1155   33.8488 H   0  0  0  0  0  0  0  0  0  0  0  0
   43.4091   23.1274   34.3590 H   0  0  0  0  0  0  0  0  0  0  0  0
   42.2048   24.0653   36.1722 H   0  0  0  0  0  0  0  0  0  0  0  0
   41.1431   24.1666   34.7153 H   0  0  0  0  0  0  0  0  0  0  0  0
  1  5  1  0
  1  2  1  0
  2  3  1  0
  4  3  1  0
  5  4  1  0
  6 11  1  0
  6  1  1  0
  7  6  2  0
  8  9  2  0
  8  7  1  0
  9 10  1  0
 10 11  2  0
 12  5  1  0
 12 13  1  0
 14 13  1  0
 15 14  1  0
 16 17  1  0
 16 15  1  0
 17 12  1  0
  2 18  1  0
  2 19  1  0
  3 20  1  0
  3 21  1  0
  4 22  1  0
  4 23  1  0
  5 24  1  1
  7 25  1  0
  8 26  1  0
 10 27  1  0
 13 28  1  0
 13 29  1  0
 14 30  1  0
 14 31  1  0
 16 32  1  0
 16 33  1  0
 17 34  1  0
 17 35  1  0
M  ISO  8  18  13  19  13  20  13  21  13  22  13  23  13  24  13  25  14
M  ISO  8  26  14  27  14  28  13  29  13  30  13  31  13  32  13  33  13
M  ISO  2  34  13  35  13
M  END
>  <minimizedAffinity>  (1) 
-3.93620515

>  <minimizedRMSD>  (1) 
2.01117277

$$$$
