
     RDKit          3D

 28 30  0  0  1  0  0  0  0  0999 V2000
   38.4540   23.7980   36.1300 N   0  0  0  0  0  0  0  0  0  0  0  0
   37.6390   24.6990   36.9530 C   0  0  0  0  0  0  0  0  0  0  0  0
   37.9150   24.1670   38.3590 C   0  0  0  0  0  0  0  0  0  0  0  0
   39.0720   23.1910   38.2020 C   0  0  0  0  0  0  0  0  0  0  0  0
   39.6680   23.7130   36.9030 C   0  0  1  0  0  0  0  0  0  0  0  0
   38.0990   23.1890   34.8960 C   0  0  0  0  0  0  0  0  0  0  0  0
   37.5770   21.9020   34.8050 C   0  0  0  0  0  0  0  0  0  0  0  0
   37.2580   21.3940   33.5480 C   0  0  0  0  0  0  0  0  0  0  0  0
   37.4770   22.1980   32.4650 N   0  0  0  0  0  0  0  0  0  0  0  0
   37.9880   23.4500   32.5780 C   0  0  0  0  0  0  0  0  0  0  0  0
   38.2930   23.9340   33.7800 N   0  0  0  0  0  0  0  0  0  0  0  0
   40.6540   22.8190   36.3620 N   0  0  0  0  0  0  0  0  0  0  0  0
   41.0100   21.6950   37.0100 C   0  0  0  0  0  0  0  0  0  0  0  0
   41.9430   21.0600   36.2780 N   0  0  0  0  0  0  0  0  0  0  0  0
   42.1720   21.7880   35.1710 C   0  0  0  0  0  0  0  0  0  0  0  0
   41.3650   22.8870   35.2260 N   0  0  0  0  0  0  0  0  0  0  0  0
   37.9660   25.7440   36.8481 H   0  0  0  0  0  0  0  0  0  0  0  0
   36.5732   24.7114   36.6810 H   0  0  0  0  0  0  0  0  0  0  0  0
   38.1943   24.9896   39.0338 H   0  0  0  0  0  0  0  0  0  0  0  0
   37.0283   23.6835   38.7948 H   0  0  0  0  0  0  0  0  0  0  0  0
   39.7841   23.2613   39.0374 H   0  0  0  0  0  0  0  0  0  0  0  0
   38.7893   22.1280   38.1930 H   0  0  0  0  0  0  0  0  0  0  0  0
   40.2358   24.6531   36.9642 H   0  0  0  0  0  0  0  0  0  0  0  0
   37.4192   21.2967   35.7098 H   0  0  0  0  0  0  0  0  0  0  0  0
   36.8444   20.3814   33.4312 H   0  0  0  0  0  0  0  0  0  0  0  0
   38.1497   24.0631   31.6791 H   0  0  0  0  0  0  0  0  0  0  0  0
   40.6066   21.3533   37.9746 H   0  0  0  0  0  0  0  0  0  0  0  0
   42.8812   21.5422   34.3669 H   0  0  0  0  0  0  0  0  0  0  0  0
  1  5  1  0
  1  2  1  0
  2  3  1  0
  4  3  1  0
  5  4  1  0
  6  1  1  0
  7  6  2  0
  8  7  1  0
  9 10  1  0
  9  8  2  0
 10 11  2  0
 11  6  1  0
 12  5  1  0
 12 13  1  0
 14 13  2  0
 15 16  2  0
 15 14  1  0
 16 12  1  0
  2 17  1  0
  2 18  1  0
  3 19  1  0
  3 20  1  0
  4 21  1  0
  4 22  1  0
  5 23  1  1
  7 24  1  0
  8 25  1  0
 10 26  1  0
 13 27  1  0
 15 28  1  0
M  ISO  8  17  13  18  13  19  13  20  13  21  13  22  13  23  13  24  14
M  ISO  4  25  14  26  14  27  14  28  14
M  END
>  <minimizedAffinity>  (1) 
-3.73690414

>  <minimizedRMSD>  (1) 
1.18449771

$$$$
