
     RDKit          3D

 25 26  0  0  1  0  0  0  0  0999 V2000
   38.5160   23.7910   36.1150 N   0  0  0  0  0  0  0  0  0  0  0  0
   37.7080   24.6610   36.9440 C   0  0  0  0  0  0  0  0  0  0  0  0
   38.0010   24.1030   38.3460 C   0  0  0  0  0  0  0  0  0  0  0  0
   39.1780   23.1810   38.1760 C   0  0  0  0  0  0  0  0  0  0  0  0
   39.7490   23.7100   36.8540 C   0  0  1  0  0  0  0  0  0  0  0  0
   38.1560   23.1750   34.8730 C   0  0  0  0  0  0  0  0  0  0  0  0
   37.5400   21.9240   34.7870 C   0  0  0  0  0  0  0  0  0  0  0  0
   37.2260   21.4020   33.5390 C   0  0  0  0  0  0  0  0  0  0  0  0
   37.5460   22.1610   32.4380 N   0  0  0  0  0  0  0  0  0  0  0  0
   38.1380   23.3600   32.5490 C   0  0  0  0  0  0  0  0  0  0  0  0
   38.4390   23.8580   33.7520 N   0  0  0  0  0  0  0  0  0  0  0  0
   40.6910   22.6450   36.3900 C   0  0  0  0  0  0  0  0  0  0  0  0
   41.8410   22.7930   37.1790 F   0  0  0  0  0  0  0  0  0  0  0  0
   41.0780   22.7530   35.0940 F   0  0  0  0  0  0  0  0  0  0  0  0
   40.1940   21.3830   36.7020 F   0  0  0  0  0  0  0  0  0  0  0  0
   38.0252   25.7105   36.8544 H   0  0  0  0  0  0  0  0  0  0  0  0
   36.6406   24.6710   36.6783 H   0  0  0  0  0  0  0  0  0  0  0  0
   38.2497   24.9194   39.0401 H   0  0  0  0  0  0  0  0  0  0  0  0
   37.1300   23.5784   38.7658 H   0  0  0  0  0  0  0  0  0  0  0  0
   39.8984   23.2837   39.0009 H   0  0  0  0  0  0  0  0  0  0  0  0
   38.9284   22.1097   38.1748 H   0  0  0  0  0  0  0  0  0  0  0  0
   40.3135   24.6534   36.8180 H   0  0  0  0  0  0  0  0  0  0  0  0
   37.3057   21.3572   35.7002 H   0  0  0  0  0  0  0  0  0  0  0  0
   36.7406   20.4204   33.4354 H   0  0  0  0  0  0  0  0  0  0  0  0
   38.3772   23.9370   31.6435 H   0  0  0  0  0  0  0  0  0  0  0  0
  1  5  1  0
  1  2  1  0
  2  3  1  0
  4  3  1  0
  5  4  1  0
  6  1  1  0
  7  6  2  0
  8  7  1  0
  9 10  1  0
  9  8  2  0
 10 11  2  0
 11  6  1  0
 12 15  1  0
 12  5  1  0
 12 13  1  0
 14 12  1  0
  2 16  1  0
  2 17  1  0
  3 18  1  0
  3 19  1  0
  4 20  1  0
  4 21  1  0
  5 22  1  1
  7 23  1  0
  8 24  1  0
 10 25  1  0
M  ISO  8  16  13  17  13  18  13  19  13  20  13  21  13  22  13  23  14
M  ISO  2  24  14  25  14
M  END
>  <minimizedAffinity>  (1) 
-3.70223927

>  <minimizedRMSD>  (1) 
1.08949876

$$$$
