
     RDKit          3D

 31 33  0  0  1  0  0  0  0  0999 V2000
   38.4220   23.6580   36.1670 N   0  0  0  0  0  0  0  0  0  0  0  0
   37.5870   24.0080   37.3020 C   0  0  0  0  0  0  0  0  0  0  0  0
   38.3450   23.3200   38.4520 C   0  0  0  0  0  0  0  0  0  0  0  0
   39.6860   22.9350   37.8870 C   0  0  0  0  0  0  0  0  0  0  0  0
   39.7700   23.8680   36.6860 C   0  0  1  0  0  0  0  0  0  0  0  0
   38.0280   23.2180   34.8600 C   0  0  0  0  0  0  0  0  0  0  0  0
   37.7520   21.8810   34.5810 C   0  0  0  0  0  0  0  0  0  0  0  0
   37.3770   21.5530   33.2760 C   0  0  0  0  0  0  0  0  0  0  0  0
   37.3000   22.5600   32.3490 N   0  0  0  0  0  0  0  0  0  0  0  0
   37.5750   23.8390   32.6640 C   0  0  0  0  0  0  0  0  0  0  0  0
   37.9420   24.1920   33.9150 N   0  0  0  0  0  0  0  0  0  0  0  0
   40.7460   23.2870   35.7430 C   0  0  0  0  0  0  0  0  0  0  0  0
   41.3550   23.9720   34.7110 C   0  0  0  0  0  0  0  0  0  0  0  0
   42.2660   23.3960   33.8460 C   0  0  0  0  0  0  0  0  0  0  0  0
   42.6050   22.0490   34.0030 C   0  0  0  0  0  0  0  0  0  0  0  0
   41.9680   21.3950   35.0560 C   0  0  0  0  0  0  0  0  0  0  0  0
   41.0810   21.9910   35.8820 N   0  0  0  0  0  0  0  0  0  0  0  0
   37.5380   25.0974   37.4460 H   0  0  0  0  0  0  0  0  0  0  0  0
   36.5364   23.6973   37.2033 H   0  0  0  0  0  0  0  0  0  0  0  0
   38.4701   24.0131   39.2970 H   0  0  0  0  0  0  0  0  0  0  0  0
   37.7982   22.4435   38.8300 H   0  0  0  0  0  0  0  0  0  0  0  0
   40.4973   23.1256   38.6049 H   0  0  0  0  0  0  0  0  0  0  0  0
   39.7866   21.8675   37.6415 H   0  0  0  0  0  0  0  0  0  0  0  0
   40.0585   24.9129   36.8730 H   0  0  0  0  0  0  0  0  0  0  0  0
   37.8269   21.1099   35.3619 H   0  0  0  0  0  0  0  0  0  0  0  0
   37.1493   20.5130   32.9992 H   0  0  0  0  0  0  0  0  0  0  0  0
   37.4993   24.6133   31.8864 H   0  0  0  0  0  0  0  0  0  0  0  0
   41.1017   25.0330   34.5695 H   0  0  0  0  0  0  0  0  0  0  0  0
   42.7204   23.9923   33.0410 H   0  0  0  0  0  0  0  0  0  0  0  0
   43.3234   21.5414   33.3425 H   0  0  0  0  0  0  0  0  0  0  0  0
   42.2008   20.3331   35.2239 H   0  0  0  0  0  0  0  0  0  0  0  0
  1  5  1  0
  1  2  1  0
  2  3  1  0
  4  3  1  0
  5  4  1  0
  6  1  1  0
  7  6  2  0
  8  7  1  0
  9 10  1  0
  9  8  2  0
 10 11  2  0
 11  6  1  0
 12 17  1  0
 12  5  1  0
 13 12  2  0
 14 15  2  0
 14 13  1  0
 15 16  1  0
 16 17  2  0
  2 18  1  0
  2 19  1  0
  3 20  1  0
  3 21  1  0
  4 22  1  0
  4 23  1  0
  5 24  1  1
  7 25  1  0
  8 26  1  0
 10 27  1  0
 13 28  1  0
 14 29  1  0
 15 30  1  0
 16 31  1  0
M  ISO  8  18  13  19  13  20  13  21  13  22  13  23  13  24  13  25  14
M  ISO  6  26  14  27  14  28  14  29  14  30  14  31  14
M  END
>  <minimizedAffinity>  (1) 
-3.67713642

>  <minimizedRMSD>  (1) 
1.08039343

$$$$
