
     RDKit          3D

 12 12  0  0  0  0  0  0  0  0999 V2000
   39.2540   23.1000   36.0440 C   0  0  0  0  0  0  0  0  0  0  0  0
   39.7100   22.7840   37.3440 C   0  0  0  0  0  0  0  0  0  0  0  0
   38.9870   23.2860   38.4300 C   0  0  0  0  0  0  0  0  0  0  0  0
   37.8860   24.0500   38.1850 N   0  0  0  0  0  0  0  0  0  0  0  0
   37.4850   24.3270   36.9260 C   0  0  0  0  0  0  0  0  0  0  0  0
   38.1680   23.8520   35.8550 N   0  0  0  0  0  0  0  0  0  0  0  0
   40.9110   21.9510   37.5700 C   0  0  0  0  0  0  0  0  0  0  0  0
   41.4300   21.3750   36.5780 O   0  0  0  0  0  0  0  0  0  0  0  0
   39.8048   22.7188   35.1715 H   0  0  0  0  0  0  0  0  0  0  0  0
   39.3008   23.0685   39.4616 H   0  0  0  0  0  0  0  0  0  0  0  0
   36.5907   24.9474   36.7665 H   0  0  0  0  0  0  0  0  0  0  0  0
   41.3390   21.8378   38.5770 H   0  0  0  0  0  0  0  0  0  0  0  0
  1  2  2  0
  2  7  1  0
  2  3  1  0
  4  3  2  0
  5  4  1  0
  6  1  1  0
  6  5  2  0
  8  7  2  0
  1  9  1  0
  3 10  1  0
  5 11  1  0
  7 12  1  0
M  ISO  4   9  14  10  14  11  14  12   6
M  END
>  <minimizedAffinity>  (1) 
-2.70958352

>  <minimizedRMSD>  (1) 
2.65807605

$$$$
