
     RDKit          3D

 32 33  0  0  1  0  0  0  0  0999 V2000
   38.1160   23.2440   36.5200 N   0  0  0  0  0  0  0  0  0  0  0  0
   37.6410   24.5210   37.0570 C   0  0  0  0  0  0  0  0  0  0  0  0
   38.0810   24.4060   38.5180 C   0  0  0  0  0  0  0  0  0  0  0  0
   39.0260   23.2050   38.5620 C   0  0  0  0  0  0  0  0  0  0  0  0
   39.4200   23.1140   37.1090 C   0  0  1  0  0  0  0  0  0  0  0  0
   37.4170   22.3680   35.6260 C   0  0  0  0  0  0  0  0  0  0  0  0
   36.4180   21.4890   36.0650 C   0  0  0  0  0  0  0  0  0  0  0  0
   35.7890   20.6700   35.1240 C   0  0  0  0  0  0  0  0  0  0  0  0
   36.1970   20.7820   33.8080 N   0  0  0  0  0  0  0  0  0  0  0  0
   37.1510   21.6330   33.4390 C   0  0  0  0  0  0  0  0  0  0  0  0
   37.7690   22.4280   34.3230 N   0  0  0  0  0  0  0  0  0  0  0  0
   40.0970   21.8190   36.7610 C   0  0  0  0  0  0  0  0  0  0  0  0
   41.5190   22.0350   36.5800 N   0  0  0  0  0  0  0  0  0  0  0  0
   42.4580   21.0610   37.0190 C   0  0  0  0  0  0  0  0  0  0  0  0
   42.1660   20.3200   38.0350 N   0  0  0  0  0  0  0  0  0  0  0  0
   43.7020   20.8780   36.3810 N   0  0  0  0  0  0  0  0  0  0  0  0
   42.8200   19.5920   38.3950 H   0  0  0  0  0  0  0  0  0  0  0  0
   38.1225   25.3738   36.5562 H   0  0  0  0  0  0  0  0  0  0  0  0
   36.5638   24.6973   36.9207 H   0  0  0  0  0  0  0  0  0  0  0  0
   38.6044   25.3198   38.8357 H   0  0  0  0  0  0  0  0  0  0  0  0
   37.2238   24.2781   39.1954 H   0  0  0  0  0  0  0  0  0  0  0  0
   39.8958   23.3958   39.2077 H   0  0  0  0  0  0  0  0  0  0  0  0
   38.5829   22.2872   38.9758 H   0  0  0  0  0  0  0  0  0  0  0  0
   40.1647   23.8516   36.7753 H   0  0  0  0  0  0  0  0  0  0  0  0
   36.1352   21.4448   37.1271 H   0  0  0  0  0  0  0  0  0  0  0  0
   34.9994   19.9632   35.4190 H   0  0  0  0  0  0  0  0  0  0  0  0
   37.4403   21.6853   32.3790 H   0  0  0  0  0  0  0  0  0  0  0  0
   39.9392   21.0956   37.5745 H   0  0  0  0  0  0  0  0  0  0  0  0
   39.6695   21.4284   35.8257 H   0  0  0  0  0  0  0  0  0  0  0  0
   41.8517   22.8999   36.1303 H   0  0  0  0  0  0  0  0  0  0  0  0
   44.3576   20.1626   36.7264 H   0  0  0  0  0  0  0  0  0  0  0  0
   43.9551   21.4597   35.5695 H   0  0  0  0  0  0  0  0  0  0  0  0
  1  2  1  0
  1  5  1  0
  2  3  1  0
  3  4  1  0
  5  4  1  0
  6  7  2  0
  6  1  1  0
  8  7  1  0
  9  8  2  0
 10  9  1  0
 10 11  2  0
 11  6  1  0
 12  5  1  0
 13 12  1  0
 13 14  1  0
 14 15  2  0
 15 17  1  0
 16 14  1  0
  2 18  1  0
  2 19  1  0
  3 20  1  0
  3 21  1  0
  4 22  1  0
  4 23  1  0
  5 24  1  6
  7 25  1  0
  8 26  1  0
 10 27  1  0
 12 28  1  0
 12 29  1  0
 13 30  1  0
 16 31  1  0
 16 32  1  0
M  ISO  8  18  13  19  13  20  13  21  13  22  13  23  13  24  13  25  14
M  ISO  4  26  14  27  14  28   8  29   8
M  END
>  <minimizedAffinity>  (1) 
-4.41965389

>  <minimizedRMSD>  (1) 
1.4224596

$$$$
