
     RDKit          3D

 38 40  0  0  1  0  0  0  0  0999 V2000
   38.4690   23.6100   36.3020 N   0  0  0  0  0  0  0  0  0  0  0  0
   37.9050   24.7890   36.9600 C   0  0  0  0  0  0  0  0  0  0  0  0
   37.9730   24.3770   38.4240 C   0  0  0  0  0  0  0  0  0  0  0  0
   38.8480   23.1240   38.4510 C   0  0  0  0  0  0  0  0  0  0  0  0
   39.6000   23.2850   37.1460 C   0  0  1  0  0  0  0  0  0  0  0  0
   37.9920   22.9700   35.1110 C   0  0  0  0  0  0  0  0  0  0  0  0
   37.2120   21.8180   35.1390 C   0  0  0  0  0  0  0  0  0  0  0  0
   36.8040   21.2810   33.9100 C   0  0  0  0  0  0  0  0  0  0  0  0
   37.1960   21.9180   32.7610 N   0  0  0  0  0  0  0  0  0  0  0  0
   37.9440   23.0190   32.7780 C   0  0  0  0  0  0  0  0  0  0  0  0
   38.3560   23.5660   33.9370 N   0  0  0  0  0  0  0  0  0  0  0  0
   40.3200   22.0700   36.7010 C   0  0  0  0  0  0  0  0  0  0  0  0
   41.6970   21.9840   37.0230 N   0  0  0  0  0  0  0  0  0  0  0  0
   42.3180   20.7330   37.0670 C   0  0  0  0  0  0  0  0  0  0  0  0
   43.6590   20.5680   36.4330 C   0  0  0  0  0  0  0  0  0  0  0  0
   44.1980   21.7170   35.6750 C   0  0  0  0  0  0  0  0  0  0  0  0
   43.1710   22.7660   35.3340 C   0  0  0  0  0  0  0  0  0  0  0  0
   42.4820   23.1130   36.6350 C   0  0  0  0  0  0  0  0  0  0  0  0
   38.5108   25.6864   36.7660 H   0  0  0  0  0  0  0  0  0  0  0  0
   36.8956   25.0571   36.6146 H   0  0  0  0  0  0  0  0  0  0  0  0
   38.4263   25.1765   39.0284 H   0  0  0  0  0  0  0  0  0  0  0  0
   36.9738   24.1881   38.8434 H   0  0  0  0  0  0  0  0  0  0  0  0
   39.5291   23.1227   39.3148 H   0  0  0  0  0  0  0  0  0  0  0  0
   38.2931   22.1791   38.5470 H   0  0  0  0  0  0  0  0  0  0  0  0
   40.4224   24.0151   37.1687 H   0  0  0  0  0  0  0  0  0  0  0  0
   36.9260   21.3460   36.0906 H   0  0  0  0  0  0  0  0  0  0  0  0
   36.1855   20.3723   33.8686 H   0  0  0  0  0  0  0  0  0  0  0  0
   38.2310   23.4909   31.8267 H   0  0  0  0  0  0  0  0  0  0  0  0
   40.2312   22.0140   35.6060 H   0  0  0  0  0  0  0  0  0  0  0  0
   39.8466   21.2412   37.2477 H   0  0  0  0  0  0  0  0  0  0  0  0
   41.8259   19.8826   37.5615 H   0  0  0  0  0  0  0  0  0  0  0  0
   44.2239   19.6287   36.5261 H   0  0  0  0  0  0  0  0  0  0  0  0
   44.9870   22.1894   36.2786 H   0  0  0  0  0  0  0  0  0  0  0  0
   44.5737   21.3191   34.7208 H   0  0  0  0  0  0  0  0  0  0  0  0
   43.6597   23.6561   34.9110 H   0  0  0  0  0  0  0  0  0  0  0  0
   42.4547   22.3998   34.5838 H   0  0  0  0  0  0  0  0  0  0  0  0
   43.2317   23.3325   37.4095 H   0  0  0  0  0  0  0  0  0  0  0  0
   41.8454   24.0013   36.5099 H   0  0  0  0  0  0  0  0  0  0  0  0
  1  2  1  0
  1  5  1  0
  2  3  1  0
  3  4  1  0
  5  4  1  0
  6  7  2  0
  6  1  1  0
  8  7  1  0
  9 10  1  0
  9  8  2  0
 10 11  2  0
 11  6  1  0
 12 13  1  0
 12  5  1  0
 13 14  1  0
 15 14  2  0
 16 15  1  0
 17 16  1  0
 17 18  1  0
 18 13  1  0
  2 19  1  0
  2 20  1  0
  3 21  1  0
  3 22  1  0
  4 23  1  0
  4 24  1  0
  5 25  1  1
  7 26  1  0
  8 27  1  0
 10 28  1  0
 12 29  1  0
 12 30  1  0
 14 31  1  0
 15 32  1  0
 16 33  1  0
 16 34  1  0
 17 35  1  0
 17 36  1  0
 18 37  1  0
 18 38  1  0
M  ISO  8  19  13  20  13  21  13  22  13  23  13  24  13  25  13  26  14
M  ISO  8  27  14  28  14  29   8  30   8  31  13  32  13  33  13  34  13
M  ISO  4  35  13  36  13  37  13  38  13
M  END
>  <minimizedAffinity>  (1) 
-4.26403189

>  <minimizedRMSD>  (1) 
1.51837909

$$$$
