
     RDKit          3D

 39 41  0  0  1  0  0  0  0  0999 V2000
   38.5230   23.7050   36.2460 N   0  0  0  0  0  0  0  0  0  0  0  0
   37.8630   24.8100   36.9500 C   0  0  0  0  0  0  0  0  0  0  0  0
   37.9350   24.3300   38.4100 C   0  0  0  0  0  0  0  0  0  0  0  0
   38.8680   23.1290   38.3910 C   0  0  0  0  0  0  0  0  0  0  0  0
   39.6400   23.3990   37.1200 C   0  0  1  0  0  0  0  0  0  0  0  0
   38.1290   23.1030   35.0150 C   0  0  0  0  0  0  0  0  0  0  0  0
   37.3770   21.9110   34.9750 C   0  0  0  0  0  0  0  0  0  0  0  0
   37.0240   21.3800   33.7400 C   0  0  0  0  0  0  0  0  0  0  0  0
   37.4410   22.0700   32.6170 N   0  0  0  0  0  0  0  0  0  0  0  0
   38.1480   23.1920   32.7040 C   0  0  0  0  0  0  0  0  0  0  0  0
   38.5110   23.7390   33.8840 N   0  0  0  0  0  0  0  0  0  0  0  0
   40.4460   22.2380   36.6500 C   0  0  0  0  0  0  0  0  0  0  0  0
   41.7830   22.1920   37.1170 N   0  0  0  0  0  0  0  0  0  0  0  0
   42.2180   20.8360   37.3380 C   0  0  0  0  0  0  0  0  0  0  0  0
   43.1310   20.2680   36.3110 C   0  0  0  0  0  0  0  0  0  0  0  0
   44.1290   21.1950   35.8360 N   0  0  0  0  0  0  0  0  0  0  0  0
   43.4830   22.3920   35.3300 C   0  0  0  0  0  0  0  0  0  0  0  0
   42.7460   23.0200   36.4930 C   0  0  0  0  0  0  0  0  0  0  0  0
   38.4060   25.7564   36.8109 H   0  0  0  0  0  0  0  0  0  0  0  0
   36.8428   25.0210   36.5970 H   0  0  0  0  0  0  0  0  0  0  0  0
   38.3398   25.1224   39.0568 H   0  0  0  0  0  0  0  0  0  0  0  0
   36.9420   24.0722   38.8068 H   0  0  0  0  0  0  0  0  0  0  0  0
   39.5277   23.1134   39.2711 H   0  0  0  0  0  0  0  0  0  0  0  0
   38.3600   22.1538   38.4200 H   0  0  0  0  0  0  0  0  0  0  0  0
   40.4117   24.1788   37.2003 H   0  0  0  0  0  0  0  0  0  0  0  0
   37.0746   21.4094   35.9061 H   0  0  0  0  0  0  0  0  0  0  0  0
   36.4389   20.4520   33.6597 H   0  0  0  0  0  0  0  0  0  0  0  0
   38.4505   23.6968   31.7747 H   0  0  0  0  0  0  0  0  0  0  0  0
   40.4723   22.2670   35.5507 H   0  0  0  0  0  0  0  0  0  0  0  0
   39.9532   21.3439   37.0595 H   0  0  0  0  0  0  0  0  0  0  0  0
   42.7390   20.8034   38.3062 H   0  0  0  0  0  0  0  0  0  0  0  0
   41.3063   20.2219   37.2960 H   0  0  0  0  0  0  0  0  0  0  0  0
   43.6457   19.3996   36.7480 H   0  0  0  0  0  0  0  0  0  0  0  0
   42.5081   19.9996   35.4450 H   0  0  0  0  0  0  0  0  0  0  0  0
   44.7586   21.4473   36.6112 H   0  0  0  0  0  0  0  0  0  0  0  0
   44.2363   23.0911   34.9378 H   0  0  0  0  0  0  0  0  0  0  0  0
   42.7905   22.1488   34.5107 H   0  0  0  0  0  0  0  0  0  0  0  0
   43.4894   23.3073   37.2511 H   0  0  0  0  0  0  0  0  0  0  0  0
   42.1896   23.8723   36.0758 H   0  0  0  0  0  0  0  0  0  0  0  0
  1  2  1  0
  1  5  1  0
  2  3  1  0
  4  3  1  0
  5  4  1  0
  6  1  1  0
  7  6  2  0
  8  7  1  0
  9 10  1  0
  9  8  2  0
 10 11  2  0
 11  6  1  0
 12 13  1  0
 12  5  1  0
 13 14  1  0
 15 14  1  0
 16 15  1  0
 17 16  1  0
 17 18  1  0
 18 13  1  0
  2 19  1  0
  2 20  1  0
  3 21  1  0
  3 22  1  0
  4 23  1  0
  4 24  1  0
  5 25  1  1
  7 26  1  0
  8 27  1  0
 10 28  1  0
 12 29  1  0
 12 30  1  0
 14 31  1  0
 14 32  1  0
 15 33  1  0
 15 34  1  0
 16 35  1  0
 17 36  1  0
 17 37  1  0
 18 38  1  0
 18 39  1  0
M  ISO  8  19  13  20  13  21  13  22  13  23  13  24  13  25  13  26  14
M  ISO  8  27  14  28  14  29   8  30   8  31  13  32  13  33  13  34  13
M  ISO  5  35   5  36  13  37  13  38  13  39  13
M  END
>  <minimizedAffinity>  (1) 
-4.07535934

>  <minimizedRMSD>  (1) 
1.18199635

$$$$
