
     RDKit          3D

 32 34  0  0  1  0  0  0  0  0999 V2000
   38.4120   23.6170   36.1020 N   0  0  0  0  0  0  0  0  0  0  0  0
   37.5970   24.1410   37.1900 C   0  0  0  0  0  0  0  0  0  0  0  0
   38.2220   23.4560   38.4030 C   0  0  0  0  0  0  0  0  0  0  0  0
   39.5360   22.8740   37.8990 C   0  0  0  0  0  0  0  0  0  0  0  0
   39.7450   23.7080   36.6540 C   0  0  1  0  0  0  0  0  0  0  0  0
   37.9770   23.1380   34.8170 C   0  0  0  0  0  0  0  0  0  0  0  0
   37.5600   21.8230   34.6070 C   0  0  0  0  0  0  0  0  0  0  0  0
   37.1590   21.4660   33.3290 C   0  0  0  0  0  0  0  0  0  0  0  0
   37.1920   22.4110   32.3440 N   0  0  0  0  0  0  0  0  0  0  0  0
   37.6020   23.6750   32.5820 C   0  0  0  0  0  0  0  0  0  0  0  0
   37.9920   24.0420   33.8100 N   0  0  0  0  0  0  0  0  0  0  0  0
   40.7770   23.1660   35.7240 C   0  0  0  0  0  0  0  0  0  0  0  0
   42.0800   23.7420   35.8420 N   0  0  0  0  0  0  0  0  0  0  0  0
   42.6480   24.8390   35.3920 N   0  0  0  0  0  0  0  0  0  0  0  0
   43.9250   24.9550   35.7730 C   0  0  0  0  0  0  0  0  0  0  0  0
   44.2250   23.8280   36.5450 C   0  0  0  0  0  0  0  0  0  0  0  0
   43.0530   23.1260   36.5480 C   0  0  0  0  0  0  0  0  0  0  0  0
   37.6791   25.2356   37.2612 H   0  0  0  0  0  0  0  0  0  0  0  0
   36.5202   23.9482   37.0740 H   0  0  0  0  0  0  0  0  0  0  0  0
   38.4057   24.1852   39.2058 H   0  0  0  0  0  0  0  0  0  0  0  0
   37.5633   22.6816   38.8230 H   0  0  0  0  0  0  0  0  0  0  0  0
   40.3493   23.0175   38.6256 H   0  0  0  0  0  0  0  0  0  0  0  0
   39.5210   21.7877   37.7268 H   0  0  0  0  0  0  0  0  0  0  0  0
   40.1269   24.7220   36.8434 H   0  0  0  0  0  0  0  0  0  0  0  0
   37.5498   21.0928   35.4296 H   0  0  0  0  0  0  0  0  0  0  0  0
   36.8209   20.4418   33.1127 H   0  0  0  0  0  0  0  0  0  0  0  0
   37.6159   24.4084   31.7623 H   0  0  0  0  0  0  0  0  0  0  0  0
   40.4257   23.3323   34.6950 H   0  0  0  0  0  0  0  0  0  0  0  0
   40.8926   22.1047   35.9892 H   0  0  0  0  0  0  0  0  0  0  0  0
   44.6092   25.7801   35.5260 H   0  0  0  0  0  0  0  0  0  0  0  0
   45.1763   23.5690   37.0327 H   0  0  0  0  0  0  0  0  0  0  0  0
   42.9168   22.1660   37.0675 H   0  0  0  0  0  0  0  0  0  0  0  0
  1  5  1  0
  1  2  1  0
  2  3  1  0
  4  3  1  0
  5  4  1  0
  6  1  1  0
  7  6  2  0
  8  7  1  0
  9 10  1  0
  9  8  2  0
 10 11  2  0
 11  6  1  0
 12 13  1  0
 12  5  1  0
 13 17  1  0
 14 15  2  0
 14 13  1  0
 15 16  1  0
 16 17  2  0
  2 18  1  0
  2 19  1  0
  3 20  1  0
  3 21  1  0
  4 22  1  0
  4 23  1  0
  5 24  1  1
  7 25  1  0
  8 26  1  0
 10 27  1  0
 12 28  1  0
 12 29  1  0
 15 30  1  0
 16 31  1  0
 17 32  1  0
M  ISO  8  18  13  19  13  20  13  21  13  22  13  23  13  24  13  25  14
M  ISO  7  26  14  27  14  28   8  29   8  30  14  31  14  32  14
M  END
>  <minimizedAffinity>  (1) 
-4.07411432

>  <minimizedRMSD>  (1) 
0.904785931

$$$$
