
     RDKit          3D

 49 53  0  0  1  0  0  0  0  0999 V2000
   40.4450   24.0560   35.3820 C   0  0  0  0  0  0  0  0  0  0  0  0
   41.8240   24.3290   35.6290 C   0  0  0  0  0  0  0  0  0  0  0  0
   42.7830   23.6430   36.2680 N   0  0  0  0  0  0  0  0  0  0  0  0
   44.0860   23.9700   36.2130 C   0  0  0  0  0  0  0  0  0  0  0  0
   44.5090   25.0090   35.5000 N   0  0  0  0  0  0  0  0  0  0  0  0
   43.5720   25.7280   34.8310 C   0  0  0  0  0  0  0  0  0  0  0  0
   43.9770   26.7570   34.0400 C   0  0  0  0  0  0  0  0  0  0  0  0
   43.0330   27.4960   33.3030 C   0  0  0  0  0  0  0  0  0  0  0  0
   41.6750   27.1790   33.4030 C   0  0  0  0  0  0  0  0  0  0  0  0
   41.3390   26.1290   34.2300 C   0  0  0  0  0  0  0  0  0  0  0  0
   42.2270   25.3640   34.9290 C   0  0  0  0  0  0  0  0  0  0  0  0
   40.0730   26.7340   34.5460 C   0  0  0  0  0  0  0  0  0  0  0  0
   39.3080   27.0580   35.6010 C   0  0  0  0  0  0  0  0  0  0  0  0
   38.0000   27.4710   35.6140 C   0  0  0  0  0  0  0  0  0  0  0  0
   37.2880   27.6000   34.4510 C   0  0  0  0  0  0  0  0  0  0  0  0
   37.9060   27.3060   33.2610 C   0  0  0  0  0  0  0  0  0  0  0  0
   39.2120   26.9070   33.3840 C   0  0  0  0  0  0  0  0  0  0  0  0
   38.2320   23.5800   35.8810 N   0  0  0  0  0  0  0  0  0  0  0  0
   37.4140   23.8290   37.0320 C   0  0  0  0  0  0  0  0  0  0  0  0
   38.2810   23.2400   38.1560 C   0  0  0  0  0  0  0  0  0  0  0  0
   39.6450   22.9130   37.4870 C   0  0  0  0  0  0  0  0  0  0  0  0
   39.5120   24.0060   36.4210 C   0  0  1  0  0  0  0  0  0  0  0  0
   37.8840   23.0360   34.5940 C   0  0  0  0  0  0  0  0  0  0  0  0
   37.7520   21.7020   34.3480 C   0  0  0  0  0  0  0  0  0  0  0  0
   37.3770   21.3060   33.0770 C   0  0  0  0  0  0  0  0  0  0  0  0
   37.1530   22.2730   32.1180 N   0  0  0  0  0  0  0  0  0  0  0  0
   37.2890   23.5490   32.3780 C   0  0  0  0  0  0  0  0  0  0  0  0
   37.6500   23.8620   33.6080 N   0  0  0  0  0  0  0  0  0  0  0  0
   40.0945   24.8338   34.6877 H   0  0  0  0  0  0  0  0  0  0  0  0
   40.4695   23.0119   35.0366 H   0  0  0  0  0  0  0  0  0  0  0  0
   44.8171   23.3652   36.7696 H   0  0  0  0  0  0  0  0  0  0  0  0
   45.0450   27.0125   33.9760 H   0  0  0  0  0  0  0  0  0  0  0  0
   43.3620   28.3190   32.6515 H   0  0  0  0  0  0  0  0  0  0  0  0
   40.9102   27.7415   32.8474 H   0  0  0  0  0  0  0  0  0  0  0  0
   39.7945   26.9822   36.5847 H   0  0  0  0  0  0  0  0  0  0  0  0
   37.5151   27.7023   36.5739 H   0  0  0  0  0  0  0  0  0  0  0  0
   36.2399   27.9332   34.4702 H   0  0  0  0  0  0  0  0  0  0  0  0
   37.3959   27.3840   32.2896 H   0  0  0  0  0  0  0  0  0  0  0  0
   39.7007   26.6741   32.4264 H   0  0  0  0  0  0  0  0  0  0  0  0
   37.2431   24.9057   37.1784 H   0  0  0  0  0  0  0  0  0  0  0  0
   36.4055   23.3944   36.9684 H   0  0  0  0  0  0  0  0  0  0  0  0
   38.4139   23.9729   38.9654 H   0  0  0  0  0  0  0  0  0  0  0  0
   37.8200   22.3495   38.6081 H   0  0  0  0  0  0  0  0  0  0  0  0
   40.5032   23.0656   38.1579 H   0  0  0  0  0  0  0  0  0  0  0  0
   39.8241   21.8807   37.1519 H   0  0  0  0  0  0  0  0  0  0  0  0
   39.6426   25.0085   36.8544 H   0  0  0  0  0  0  0  0  0  0  0  0
   37.9386   20.9605   35.1388 H   0  0  0  0  0  0  0  0  0  0  0  0
   37.2594   20.2395   32.8348 H   0  0  0  0  0  0  0  0  0  0  0  0
   37.1119   24.3186   31.6123 H   0  0  0  0  0  0  0  0  0  0  0  0
  1  2  1  0
  1 22  1  0
  2  3  2  0
  4  3  1  0
  5  4  2  0
  6 11  2  0
  6  5  1  0
  7  6  1  0
  8  9  1  0
  8  7  2  0
  9 10  2  0
 10 12  1  0
 10 11  1  0
 11  2  1  0
 12 13  2  0
 13 14  1  0
 15 14  2  0
 16 17  2  0
 16 15  1  0
 17 12  1  0
 18 22  1  0
 18 19  1  0
 19 20  1  0
 21 20  1  0
 22 21  1  0
 23 18  1  0
 24 23  2  0
 25 24  1  0
 26 27  1  0
 26 25  2  0
 27 28  2  0
 28 23  1  0
  1 29  1  0
  1 30  1  0
  4 31  1  0
  7 32  1  0
  8 33  1  0
  9 34  1  0
 13 35  1  0
 14 36  1  0
 15 37  1  0
 16 38  1  0
 17 39  1  0
 19 40  1  0
 19 41  1  0
 20 42  1  0
 20 43  1  0
 21 44  1  0
 21 45  1  0
 22 46  1  1
 24 47  1  0
 25 48  1  0
 27 49  1  0
M  ISO  8  29   8  30   8  31  14  32  14  33  14  34  14  35  14  36  14
M  ISO  8  37  14  38  14  39  14  40  13  41  13  42  13  43  13  44  13
M  ISO  5  45  13  46  13  47  14  48  14  49  14
M  END
>  <minimizedAffinity>  (1) 
-6.42672777

>  <minimizedRMSD>  (1) 
0.555981696

$$$$
