
     RDKit          3D

 47 51  0  0  1  0  0  0  0  0999 V2000
   40.9280   23.2740   35.5620 C   0  0  0  0  0  0  0  0  0  0  0  0
   42.2620   23.7790   35.6890 C   0  0  0  0  0  0  0  0  0  0  0  0
   43.1600   23.4550   36.6370 N   0  0  0  0  0  0  0  0  0  0  0  0
   44.3340   24.1750   36.8440 C   0  0  0  0  0  0  0  0  0  0  0  0
   44.6770   25.2510   36.1340 N   0  0  0  0  0  0  0  0  0  0  0  0
   43.8170   25.6190   35.1680 C   0  0  0  0  0  0  0  0  0  0  0  0
   44.1680   26.7090   34.3820 C   0  0  0  0  0  0  0  0  0  0  0  0
   43.3470   27.0820   33.3270 C   0  0  0  0  0  0  0  0  0  0  0  0
   42.1960   26.3250   33.0840 C   0  0  0  0  0  0  0  0  0  0  0  0
   41.8960   25.2420   33.8950 C   0  0  0  0  0  0  0  0  0  0  0  0
   42.6520   24.8430   34.9940 C   0  0  0  0  0  0  0  0  0  0  0  0
   41.3530   24.0360   33.0900 C   0  0  0  0  0  0  0  0  0  0  0  0
   40.8760   24.3130   31.7860 C   0  0  0  0  0  0  0  0  0  0  0  0
   40.4090   23.5620   30.7320 C   0  0  0  0  0  0  0  0  0  0  0  0
   40.3930   22.2540   30.9800 N   0  0  0  0  0  0  0  0  0  0  0  0
   40.8180   21.8550   32.1810 C   0  0  0  0  0  0  0  0  0  0  0  0
   41.1980   22.7470   32.9760 N   0  0  0  0  0  0  0  0  0  0  0  0
   38.5400   23.6540   36.1280 N   0  0  0  0  0  0  0  0  0  0  0  0
   37.7600   24.0520   37.2860 C   0  0  0  0  0  0  0  0  0  0  0  0
   38.4680   23.3340   38.4130 C   0  0  0  0  0  0  0  0  0  0  0  0
   39.7640   22.8480   37.8060 C   0  0  0  0  0  0  0  0  0  0  0  0
   39.8950   23.7840   36.6120 C   0  0  1  0  0  0  0  0  0  0  0  0
   38.0360   23.2500   34.8560 C   0  0  0  0  0  0  0  0  0  0  0  0
   37.7390   21.9170   34.5240 C   0  0  0  0  0  0  0  0  0  0  0  0
   37.2670   21.6500   33.2490 C   0  0  0  0  0  0  0  0  0  0  0  0
   37.1250   22.7440   32.3920 N   0  0  0  0  0  0  0  0  0  0  0  0
   37.4130   23.9680   32.7470 C   0  0  0  0  0  0  0  0  0  0  0  0
   37.8820   24.3050   33.9830 N   0  0  0  0  0  0  0  0  0  0  0  0
   40.5575   23.5524   34.5644 H   0  0  0  0  0  0  0  0  0  0  0  0
   41.0070   22.1898   35.7301 H   0  0  0  0  0  0  0  0  0  0  0  0
   45.0168   23.8374   37.6376 H   0  0  0  0  0  0  0  0  0  0  0  0
   45.0890   27.2719   34.5939 H   0  0  0  0  0  0  0  0  0  0  0  0
   43.5948   27.9500   32.6985 H   0  0  0  0  0  0  0  0  0  0  0  0
   41.5295   26.5892   32.2498 H   0  0  0  0  0  0  0  0  0  0  0  0
   40.8797   25.3897   31.5610 H   0  0  0  0  0  0  0  0  0  0  0  0
   40.0809   23.9995   29.7776 H   0  0  0  0  0  0  0  0  0  0  0  0
   40.8341   20.7913   32.4606 H   0  0  0  0  0  0  0  0  0  0  0  0
   37.7870   25.1423   37.4290 H   0  0  0  0  0  0  0  0  0  0  0  0
   36.6921   23.8008   37.2055 H   0  0  0  0  0  0  0  0  0  0  0  0
   38.6652   24.0225   39.2479 H   0  0  0  0  0  0  0  0  0  0  0  0
   37.8664   22.5096   38.8234 H   0  0  0  0  0  0  0  0  0  0  0  0
   40.6058   22.9641   38.5045 H   0  0  0  0  0  0  0  0  0  0  0  0
   39.7704   21.7790   37.5468 H   0  0  0  0  0  0  0  0  0  0  0  0
   40.2510   24.8010   36.8333 H   0  0  0  0  0  0  0  0  0  0  0  0
   37.8775   21.1079   35.2563 H   0  0  0  0  0  0  0  0  0  0  0  0
   37.0167   20.6281   32.9278 H   0  0  0  0  0  0  0  0  0  0  0  0
   37.2694   24.7708   32.0088 H   0  0  0  0  0  0  0  0  0  0  0  0
  1  2  1  0
  1 22  1  0
  2  3  2  0
  3  4  1  0
  5  4  2  0
  6  5  1  0
  7  6  2  0
  8  7  1  0
  9  8  2  0
  9 10  1  0
 10 11  2  0
 11  6  1  0
 11  2  1  0
 12 10  1  0
 13 12  2  0
 14 15  2  0
 14 13  1  0
 15 16  1  0
 16 17  2  0
 17 12  1  0
 18 22  1  0
 18 19  1  0
 19 20  1  0
 21 20  1  0
 22 21  1  0
 23 18  1  0
 24 23  2  0
 25 24  1  0
 26 27  1  0
 26 25  2  0
 27 28  2  0
 28 23  1  0
  1 29  1  0
  1 30  1  0
  4 31  1  0
  7 32  1  0
  8 33  1  0
  9 34  1  0
 13 35  1  0
 14 36  1  0
 16 37  1  0
 19 38  1  0
 19 39  1  0
 20 40  1  0
 20 41  1  0
 21 42  1  0
 21 43  1  0
 22 44  1  1
 24 45  1  0
 25 46  1  0
 27 47  1  0
M  ISO  8  29   8  30   8  31  14  32  14  33  14  34  14  35  14  36  14
M  ISO  8  37  14  38  13  39  13  40  13  41  13  42  13  43  13  44  13
M  ISO  3  45  14  46  14  47  14
M  END
>  <minimizedAffinity>  (1) 
-4.79803514

>  <minimizedRMSD>  (1) 
0.322493136

$$$$
