
     RDKit          3D

 48 52  0  0  1  0  0  0  0  0999 V2000
   40.9330   23.2730   35.5780 C   0  0  0  0  0  0  0  0  0  0  0  0
   42.2640   23.7800   35.7020 C   0  0  0  0  0  0  0  0  0  0  0  0
   43.1650   23.4540   36.6440 N   0  0  0  0  0  0  0  0  0  0  0  0
   44.3450   24.1770   36.8420 C   0  0  0  0  0  0  0  0  0  0  0  0
   44.6820   25.2530   36.1320 N   0  0  0  0  0  0  0  0  0  0  0  0
   43.8170   25.6270   35.1690 C   0  0  0  0  0  0  0  0  0  0  0  0
   44.1700   26.7030   34.3770 C   0  0  0  0  0  0  0  0  0  0  0  0
   43.3520   27.0640   33.3150 C   0  0  0  0  0  0  0  0  0  0  0  0
   42.2020   26.3050   33.0750 C   0  0  0  0  0  0  0  0  0  0  0  0
   41.9000   25.2310   33.8990 C   0  0  0  0  0  0  0  0  0  0  0  0
   42.6520   24.8430   35.0080 C   0  0  0  0  0  0  0  0  0  0  0  0
   41.3620   24.0210   33.0950 C   0  0  0  0  0  0  0  0  0  0  0  0
   40.8600   24.2910   31.8040 C   0  0  0  0  0  0  0  0  0  0  0  0
   40.4000   23.5540   30.7490 C   0  0  0  0  0  0  0  0  0  0  0  0
   40.4220   22.2140   30.9810 C   0  0  0  0  0  0  0  0  0  0  0  0
   40.8870   21.8280   32.2040 C   0  0  0  0  0  0  0  0  0  0  0  0
   41.2570   22.7230   33.0120 N   0  0  0  0  0  0  0  0  0  0  0  0
   38.5440   23.6630   36.1380 N   0  0  0  0  0  0  0  0  0  0  0  0
   37.7660   24.0610   37.2970 C   0  0  0  0  0  0  0  0  0  0  0  0
   38.4650   23.3250   38.4190 C   0  0  0  0  0  0  0  0  0  0  0  0
   39.7600   22.8440   37.8150 C   0  0  0  0  0  0  0  0  0  0  0  0
   39.8990   23.7850   36.6270 C   0  0  1  0  0  0  0  0  0  0  0  0
   38.0420   23.2670   34.8620 C   0  0  0  0  0  0  0  0  0  0  0  0
   37.7600   21.9320   34.5170 C   0  0  0  0  0  0  0  0  0  0  0  0
   37.2900   21.6720   33.2400 C   0  0  0  0  0  0  0  0  0  0  0  0
   37.1320   22.7710   32.3940 N   0  0  0  0  0  0  0  0  0  0  0  0
   37.4050   23.9960   32.7600 C   0  0  0  0  0  0  0  0  0  0  0  0
   37.8730   24.3260   33.9980 N   0  0  0  0  0  0  0  0  0  0  0  0
   40.5615   23.5471   34.5796 H   0  0  0  0  0  0  0  0  0  0  0  0
   41.0142   22.1896   35.7503 H   0  0  0  0  0  0  0  0  0  0  0  0
   45.0348   23.8382   37.6290 H   0  0  0  0  0  0  0  0  0  0  0  0
   45.0903   27.2681   34.5860 H   0  0  0  0  0  0  0  0  0  0  0  0
   43.6020   27.9254   32.6782 H   0  0  0  0  0  0  0  0  0  0  0  0
   41.5388   26.5592   32.2350 H   0  0  0  0  0  0  0  0  0  0  0  0
   40.8317   25.3702   31.5930 H   0  0  0  0  0  0  0  0  0  0  0  0
   40.0475   23.9996   29.8071 H   0  0  0  0  0  0  0  0  0  0  0  0
   40.0854   21.4859   30.2283 H   0  0  0  0  0  0  0  0  0  0  0  0
   40.9379   20.7640   32.4783 H   0  0  0  0  0  0  0  0  0  0  0  0
   37.8051   25.1498   37.4489 H   0  0  0  0  0  0  0  0  0  0  0  0
   36.6952   23.8236   37.2128 H   0  0  0  0  0  0  0  0  0  0  0  0
   38.6592   24.0014   39.2644 H   0  0  0  0  0  0  0  0  0  0  0  0
   37.8581   22.4971   38.8144 H   0  0  0  0  0  0  0  0  0  0  0  0
   40.5987   22.9555   38.5180 H   0  0  0  0  0  0  0  0  0  0  0  0
   39.7653   21.7767   37.5488 H   0  0  0  0  0  0  0  0  0  0  0  0
   40.2587   24.7995   36.8536 H   0  0  0  0  0  0  0  0  0  0  0  0
   37.9087   21.1176   35.2413 H   0  0  0  0  0  0  0  0  0  0  0  0
   37.0530   20.6501   32.9091 H   0  0  0  0  0  0  0  0  0  0  0  0
   37.2489   24.8042   32.0303 H   0  0  0  0  0  0  0  0  0  0  0  0
  1  2  1  0
  1 22  1  0
  2  3  2  0
  3  4  1  0
  5  4  2  0
  6  5  1  0
  7  6  2  0
  8  7  1  0
  9  8  2  0
  9 10  1  0
 10 11  2  0
 11  6  1  0
 11  2  1  0
 12 10  1  0
 13 12  2  0
 14 15  2  0
 14 13  1  0
 15 16  1  0
 16 17  2  0
 17 12  1  0
 18 22  1  0
 18 19  1  0
 19 20  1  0
 21 20  1  0
 22 21  1  0
 23 18  1  0
 24 23  2  0
 25 24  1  0
 26 27  1  0
 26 25  2  0
 27 28  2  0
 28 23  1  0
  1 29  1  0
  1 30  1  0
  4 31  1  0
  7 32  1  0
  8 33  1  0
  9 34  1  0
 13 35  1  0
 14 36  1  0
 15 37  1  0
 16 38  1  0
 19 39  1  0
 19 40  1  0
 20 41  1  0
 20 42  1  0
 21 43  1  0
 21 44  1  0
 22 45  1  1
 24 46  1  0
 25 47  1  0
 27 48  1  0
M  ISO  8  29   8  30   8  31  14  32  14  33  14  34  14  35  14  36  14
M  ISO  8  37  14  38  14  39  13  40  13  41  13  42  13  43  13  44  13
M  ISO  4  45  13  46  14  47  14  48  14
M  END
>  <minimizedAffinity>  (1) 
-4.7853775

>  <minimizedRMSD>  (1) 
0.593682349

$$$$
