
     RDKit          3D

 42 45  0  0  1  0  0  0  0  0999 V2000
   38.5430   23.6500   36.1310 N   0  0  0  0  0  0  0  0  0  0  0  0
   37.7590   24.0350   37.2960 C   0  0  0  0  0  0  0  0  0  0  0  0
   38.4780   23.3360   38.4250 C   0  0  0  0  0  0  0  0  0  0  0  0
   39.7640   22.8300   37.8050 C   0  0  0  0  0  0  0  0  0  0  0  0
   39.8990   23.7670   36.6130 C   0  0  1  0  0  0  0  0  0  0  0  0
   38.0320   23.2640   34.8630 C   0  0  0  0  0  0  0  0  0  0  0  0
   37.7330   21.9250   34.5230 C   0  0  0  0  0  0  0  0  0  0  0  0
   37.2650   21.6590   33.2420 C   0  0  0  0  0  0  0  0  0  0  0  0
   37.1280   22.7580   32.3910 N   0  0  0  0  0  0  0  0  0  0  0  0
   37.4150   23.9830   32.7580 C   0  0  0  0  0  0  0  0  0  0  0  0
   37.8810   24.3160   34.0000 N   0  0  0  0  0  0  0  0  0  0  0  0
   40.9280   23.2790   35.5640 C   0  0  0  0  0  0  0  0  0  0  0  0
   42.2600   23.7940   35.7020 C   0  0  0  0  0  0  0  0  0  0  0  0
   43.1580   23.4730   36.6440 N   0  0  0  0  0  0  0  0  0  0  0  0
   44.3350   24.1880   36.8460 C   0  0  0  0  0  0  0  0  0  0  0  0
   44.6810   25.2600   36.1320 N   0  0  0  0  0  0  0  0  0  0  0  0
   43.8170   25.6340   35.1600 C   0  0  0  0  0  0  0  0  0  0  0  0
   44.1780   26.7030   34.3610 C   0  0  0  0  0  0  0  0  0  0  0  0
   43.3700   27.0610   33.2960 C   0  0  0  0  0  0  0  0  0  0  0  0
   42.2230   26.3080   33.0630 C   0  0  0  0  0  0  0  0  0  0  0  0
   41.9080   25.2490   33.8850 C   0  0  0  0  0  0  0  0  0  0  0  0
   42.6490   24.8570   34.9970 C   0  0  0  0  0  0  0  0  0  0  0  0
   41.2650   24.1560   33.0420 C   0  0  0  0  0  0  0  0  0  0  0  0
   40.9190   22.9330   32.8060 O   0  0  0  0  0  0  0  0  0  0  0  0
   40.7250   24.4960   31.8000 O   0  0  0  0  0  0  0  0  0  0  0  0
   37.7662   25.1260   37.4362 H   0  0  0  0  0  0  0  0  0  0  0  0
   36.6968   23.7599   37.2180 H   0  0  0  0  0  0  0  0  0  0  0  0
   38.6920   24.0393   39.2433 H   0  0  0  0  0  0  0  0  0  0  0  0
   37.8781   22.5239   38.8617 H   0  0  0  0  0  0  0  0  0  0  0  0
   40.6133   22.9311   38.4967 H   0  0  0  0  0  0  0  0  0  0  0  0
   39.7520   21.7616   37.5433 H   0  0  0  0  0  0  0  0  0  0  0  0
   40.2626   24.7797   36.8415 H   0  0  0  0  0  0  0  0  0  0  0  0
   37.8674   21.1141   35.2540 H   0  0  0  0  0  0  0  0  0  0  0  0
   37.0160   20.6384   32.9159 H   0  0  0  0  0  0  0  0  0  0  0  0
   37.2728   24.7903   32.0245 H   0  0  0  0  0  0  0  0  0  0  0  0
   40.5571   23.5675   34.5694 H   0  0  0  0  0  0  0  0  0  0  0  0
   41.0131   22.1928   35.7154 H   0  0  0  0  0  0  0  0  0  0  0  0
   45.0182   23.8499   37.6391 H   0  0  0  0  0  0  0  0  0  0  0  0
   45.1004   27.2647   34.5702 H   0  0  0  0  0  0  0  0  0  0  0  0
   43.6268   27.9155   32.6526 H   0  0  0  0  0  0  0  0  0  0  0  0
   41.5650   26.5599   32.2183 H   0  0  0  0  0  0  0  0  0  0  0  0
   40.3025   23.8001   31.2367 H   0  0  0  0  0  0  0  0  0  0  0  0
  1  5  1  0
  1  2  1  0
  2  3  1  0
  4  3  1  0
  5  4  1  0
  6  1  1  0
  7  6  2  0
  8  7  1  0
  9 10  1  0
  9  8  2  0
 10 11  2  0
 11  6  1  0
 12 13  1  0
 12  5  1  0
 13 14  2  0
 14 15  1  0
 16 15  2  0
 17 16  1  0
 18 17  2  0
 19 18  1  0
 20 19  2  0
 20 21  1  0
 21 22  2  0
 22 17  1  0
 22 13  1  0
 23 21  1  0
 24 23  2  0
 25 23  1  0
  2 26  1  0
  2 27  1  0
  3 28  1  0
  3 29  1  0
  4 30  1  0
  4 31  1  0
  5 32  1  1
  7 33  1  0
  8 34  1  0
 10 35  1  0
 12 36  1  0
 12 37  1  0
 15 38  1  0
 18 39  1  0
 19 40  1  0
 20 41  1  0
 25 42  1  0
M  ISO  8  26  13  27  13  28  13  29  13  30  13  31  13  32  13  33  14
M  ISO  8  34  14  35  14  36   8  37   8  38  14  39  14  40  14  41  14
M  ISO  1  42   3
M  END
>  <minimizedAffinity>  (1) 
-4.69310522

>  <minimizedRMSD>  (1) 
0.315049112

$$$$
