
     RDKit          3D

 47 52  0  0  1  0  0  0  0  0999 V2000
   40.9560   23.2620   35.6230 C   0  0  0  0  0  0  0  0  0  0  0  0
   42.2830   23.8020   35.7410 C   0  0  0  0  0  0  0  0  0  0  0  0
   43.1740   23.5420   36.7090 N   0  0  0  0  0  0  0  0  0  0  0  0
   44.3370   24.2990   36.8810 C   0  0  0  0  0  0  0  0  0  0  0  0
   44.6700   25.3490   36.1150 N   0  0  0  0  0  0  0  0  0  0  0  0
   43.8120   25.6520   35.1250 C   0  0  0  0  0  0  0  0  0  0  0  0
   44.1600   26.6720   34.2670 C   0  0  0  0  0  0  0  0  0  0  0  0
   43.3640   26.9440   33.1620 C   0  0  0  0  0  0  0  0  0  0  0  0
   42.2400   26.1440   32.9650 C   0  0  0  0  0  0  0  0  0  0  0  0
   41.9210   25.1250   33.8450 C   0  0  0  0  0  0  0  0  0  0  0  0
   42.6650   24.8420   34.9910 C   0  0  0  0  0  0  0  0  0  0  0  0
   41.1890   24.0120   33.1310 N   0  0  0  0  0  0  0  0  0  0  0  0
   42.1410   23.8470   32.0260 C   0  0  0  0  0  0  0  0  0  0  0  0
   41.9590   22.9280   31.0290 N   0  0  0  0  0  0  0  0  0  0  0  0
   40.8020   22.3960   31.4440 C   0  0  0  0  0  0  0  0  0  0  0  0
   40.7490   23.1100   32.4000 N   0  0  0  0  0  0  0  0  0  0  0  0
   38.5730   23.6890   36.1720 N   0  0  0  0  0  0  0  0  0  0  0  0
   37.7850   24.0580   37.3370 C   0  0  0  0  0  0  0  0  0  0  0  0
   38.4670   23.3200   38.4540 C   0  0  0  0  0  0  0  0  0  0  0  0
   39.7450   22.7790   37.8290 C   0  0  0  0  0  0  0  0  0  0  0  0
   39.9300   23.7450   36.6690 C   0  0  1  0  0  0  0  0  0  0  0  0
   38.0700   23.3600   34.8830 C   0  0  0  0  0  0  0  0  0  0  0  0
   37.7920   22.0360   34.4810 C   0  0  0  0  0  0  0  0  0  0  0  0
   37.3190   21.8480   33.1840 C   0  0  0  0  0  0  0  0  0  0  0  0
   37.1610   22.9920   32.3930 N   0  0  0  0  0  0  0  0  0  0  0  0
   37.4350   24.2070   32.8260 C   0  0  0  0  0  0  0  0  0  0  0  0
   37.9060   24.4790   34.0860 N   0  0  0  0  0  0  0  0  0  0  0  0
   40.5719   23.5293   34.6275 H   0  0  0  0  0  0  0  0  0  0  0  0
   41.0618   22.1801   35.7913 H   0  0  0  0  0  0  0  0  0  0  0  0
   45.0212   24.0162   37.6946 H   0  0  0  0  0  0  0  0  0  0  0  0
   45.0646   27.2685   34.4563 H   0  0  0  0  0  0  0  0  0  0  0  0
   43.6115   27.7607   32.4679 H   0  0  0  0  0  0  0  0  0  0  0  0
   41.5942   26.3261   32.0934 H   0  0  0  0  0  0  0  0  0  0  0  0
   41.5875   24.5942   31.4383 H   0  0  0  0  0  0  0  0  0  0  0  0
   41.8698   23.3734   30.1046 H   0  0  0  0  0  0  0  0  0  0  0  0
   39.9722   22.5472   30.7379 H   0  0  0  0  0  0  0  0  0  0  0  0
   40.7394   21.3075   31.5895 H   0  0  0  0  0  0  0  0  0  0  0  0
   37.8137   25.1446   37.5057 H   0  0  0  0  0  0  0  0  0  0  0  0
   36.7192   23.8047   37.2373 H   0  0  0  0  0  0  0  0  0  0  0  0
   38.6992   24.0016   39.2856 H   0  0  0  0  0  0  0  0  0  0  0  0
   37.8368   22.5224   38.8744 H   0  0  0  0  0  0  0  0  0  0  0  0
   40.5898   22.8250   38.5320 H   0  0  0  0  0  0  0  0  0  0  0  0
   39.6938   21.7203   37.5347 H   0  0  0  0  0  0  0  0  0  0  0  0
   40.3270   24.7373   36.9293 H   0  0  0  0  0  0  0  0  0  0  0  0
   37.9426   21.1869   35.1639 H   0  0  0  0  0  0  0  0  0  0  0  0
   37.0804   20.8456   32.7989 H   0  0  0  0  0  0  0  0  0  0  0  0
   37.2770   25.0507   32.1380 H   0  0  0  0  0  0  0  0  0  0  0  0
  1  2  1  0
  1 21  1  0
  2  3  2  0
  3  4  1  0
  5  4  2  0
  6  5  1  0
  7  6  2  0
  8  7  1  0
  9  8  2  0
  9 10  1  0
 10 11  2  0
 11  6  1  0
 11  2  1  0
 12 10  1  0
 13 14  1  0
 13 16  1  0
 13 12  1  0
 14 15  1  0
 16 15  1  0
 16 12  1  0
 17 21  1  0
 17 18  1  0
 18 19  1  0
 20 19  1  0
 21 20  1  0
 22 17  1  0
 23 22  2  0
 24 23  1  0
 25 26  1  0
 25 24  2  0
 26 27  2  0
 27 22  1  0
  1 28  1  0
  1 29  1  0
  4 30  1  0
  7 31  1  0
  8 32  1  0
  9 33  1  0
 13 34  1  0
 14 35  1  0
 15 36  1  0
 15 37  1  0
 18 38  1  0
 18 39  1  0
 19 40  1  0
 19 41  1  0
 20 42  1  0
 20 43  1  0
 21 44  1  1
 23 45  1  0
 24 46  1  0
 26 47  1  0
M  ISO  8  28   8  29   8  30  14  31  14  32  14  33  14  34  13  35   5
M  ISO  8  36  13  37  13  38  13  39  13  40  13  41  13  42  13  43  13
M  ISO  4  44  13  45  14  46  14  47  14
M  END
>  <minimizedAffinity>  (1) 
-4.6721406

>  <minimizedRMSD>  (1) 
0.482982874

$$$$
