
     RDKit          3D

 52 56  0  0  1  0  0  0  0  0999 V2000
   40.9940   23.2850   35.5710 C   0  0  0  0  0  0  0  0  0  0  0  0
   42.3280   23.8150   35.7390 C   0  0  0  0  0  0  0  0  0  0  0  0
   43.1860   23.5750   36.7370 N   0  0  0  0  0  0  0  0  0  0  0  0
   44.3460   24.3220   36.9490 C   0  0  0  0  0  0  0  0  0  0  0  0
   44.7080   25.3540   36.1860 N   0  0  0  0  0  0  0  0  0  0  0  0
   43.8870   25.6480   35.1600 C   0  0  0  0  0  0  0  0  0  0  0  0
   44.2620   26.6860   34.3230 C   0  0  0  0  0  0  0  0  0  0  0  0
   43.4840   26.9580   33.2200 C   0  0  0  0  0  0  0  0  0  0  0  0
   42.3700   26.1850   32.9650 C   0  0  0  0  0  0  0  0  0  0  0  0
   42.0340   25.1560   33.8240 C   0  0  0  0  0  0  0  0  0  0  0  0
   42.7420   24.8450   34.9870 C   0  0  0  0  0  0  0  0  0  0  0  0
   41.4390   23.9180   33.1730 C   0  0  0  0  0  0  0  0  0  0  0  0
   40.7150   24.4580   31.9070 C   0  0  0  0  0  0  0  0  0  0  0  0
   40.6050   23.2800   30.9970 C   0  0  0  0  0  0  0  0  0  0  0  0
   42.0980   23.0400   30.9240 C   0  0  0  0  0  0  0  0  0  0  0  0
   42.5530   23.2310   32.3060 C   0  0  0  0  0  0  0  0  0  0  0  0
   38.6020   23.6800   36.1510 N   0  0  0  0  0  0  0  0  0  0  0  0
   37.8140   24.0390   37.3160 C   0  0  0  0  0  0  0  0  0  0  0  0
   38.5040   23.2780   38.4210 C   0  0  0  0  0  0  0  0  0  0  0  0
   39.7910   22.8020   37.8040 C   0  0  0  0  0  0  0  0  0  0  0  0
   39.9560   23.7380   36.6190 C   0  0  1  0  0  0  0  0  0  0  0  0
   38.0840   23.3630   34.8780 C   0  0  0  0  0  0  0  0  0  0  0  0
   37.8790   22.0480   34.4130 C   0  0  0  0  0  0  0  0  0  0  0  0
   37.4180   21.8720   33.1130 C   0  0  0  0  0  0  0  0  0  0  0  0
   37.1950   23.0200   32.3650 N   0  0  0  0  0  0  0  0  0  0  0  0
   37.4000   24.2560   32.8430 C   0  0  0  0  0  0  0  0  0  0  0  0
   37.8480   24.4850   34.1090 N   0  0  0  0  0  0  0  0  0  0  0  0
   40.6302   23.5938   34.5799 H   0  0  0  0  0  0  0  0  0  0  0  0
   41.0870   22.1958   35.6932 H   0  0  0  0  0  0  0  0  0  0  0  0
   44.9968   24.0443   37.7912 H   0  0  0  0  0  0  0  0  0  0  0  0
   45.1627   27.2807   34.5351 H   0  0  0  0  0  0  0  0  0  0  0  0
   43.7489   27.7863   32.5464 H   0  0  0  0  0  0  0  0  0  0  0  0
   41.7501   26.3875   32.0791 H   0  0  0  0  0  0  0  0  0  0  0  0
   40.9191   23.3256   33.9404 H   0  0  0  0  0  0  0  0  0  0  0  0
   39.7172   24.8419   32.1657 H   0  0  0  0  0  0  0  0  0  0  0  0
   41.2607   25.2919   31.4414 H   0  0  0  0  0  0  0  0  0  0  0  0
   40.0555   22.4394   31.4458 H   0  0  0  0  0  0  0  0  0  0  0  0
   40.0584   23.4102   30.0513 H   0  0  0  0  0  0  0  0  0  0  0  0
   42.3139   22.0183   30.5783 H   0  0  0  0  0  0  0  0  0  0  0  0
   42.6020   23.7124   30.2142 H   0  0  0  0  0  0  0  0  0  0  0  0
   42.7969   22.2516   32.7434 H   0  0  0  0  0  0  0  0  0  0  0  0
   43.4412   23.8799   32.2969 H   0  0  0  0  0  0  0  0  0  0  0  0
   37.8460   25.1231   37.4994 H   0  0  0  0  0  0  0  0  0  0  0  0
   36.7458   23.7963   37.2158 H   0  0  0  0  0  0  0  0  0  0  0  0
   38.7044   23.9357   39.2797 H   0  0  0  0  0  0  0  0  0  0  0  0
   37.8913   22.4482   38.8031 H   0  0  0  0  0  0  0  0  0  0  0  0
   40.6299   22.9016   38.5085 H   0  0  0  0  0  0  0  0  0  0  0  0
   39.7746   21.7387   37.5228 H   0  0  0  0  0  0  0  0  0  0  0  0
   40.3551   24.7353   36.8557 H   0  0  0  0  0  0  0  0  0  0  0  0
   38.0787   21.1828   35.0623 H   0  0  0  0  0  0  0  0  0  0  0  0
   37.2384   20.8698   32.6967 H   0  0  0  0  0  0  0  0  0  0  0  0
   37.1990   25.1170   32.1886 H   0  0  0  0  0  0  0  0  0  0  0  0
  1  2  1  0
  1 21  1  0
  2  3  2  0
  3  4  1  0
  5  4  2  0
  6  5  1  0
  7  6  2  0
  8  7  1  0
  9  8  2  0
  9 10  1  0
 10 11  2  0
 11  6  1  0
 11  2  1  0
 12 10  1  0
 13 12  1  0
 14 13  1  0
 15 14  1  0
 15 16  1  0
 16 12  1  0
 17 21  1  0
 17 18  1  0
 18 19  1  0
 20 19  1  0
 21 20  1  0
 22 17  1  0
 23 22  2  0
 24 23  1  0
 25 26  1  0
 25 24  2  0
 26 27  2  0
 27 22  1  0
  1 28  1  0
  1 29  1  0
  4 30  1  0
  7 31  1  0
  8 32  1  0
  9 33  1  0
 12 34  1  0
 13 35  1  0
 13 36  1  0
 14 37  1  0
 14 38  1  0
 15 39  1  0
 15 40  1  0
 16 41  1  0
 16 42  1  0
 18 43  1  0
 18 44  1  0
 19 45  1  0
 19 46  1  0
 20 47  1  0
 20 48  1  0
 21 49  1  1
 23 50  1  0
 24 51  1  0
 26 52  1  0
M  ISO  8  28   8  29   8  30  14  31  14  32  14  33  14  34  13  35  13
M  ISO  8  36  13  37  13  38  13  39  13  40  13  41  13  42  13  43  13
M  ISO  8  44  13  45  13  46  13  47  13  48  13  49  13  50  14  51  14
M  ISO  1  52  14
M  END
>  <minimizedAffinity>  (1) 
-4.65554476

>  <minimizedRMSD>  (1) 
0.44966957

$$$$
