
     RDKit          3D

 32 33  0  0  0  0  0  0  0  0999 V2000
   38.5560   23.2500   36.6070 C   0  0  0  0  0  0  0  0  0  0  0  0
   38.3460   26.8640   36.1220 C   0  0  0  0  0  0  0  0  0  0  0  0
   38.6470   27.0330   34.7480 C   0  0  0  0  0  0  0  0  0  0  0  0
   38.9240   25.8750   33.9910 C   0  0  0  0  0  0  0  0  0  0  0  0
   38.8860   24.6640   34.6220 N   0  0  0  0  0  0  0  0  0  0  0  0
   38.5960   24.5500   35.9310 C   0  0  0  0  0  0  0  0  0  0  0  0
   38.3250   25.6460   36.6850 N   0  0  0  0  0  0  0  0  0  0  0  0
   38.8180   22.1140   35.6090 C   0  0  0  0  0  0  0  0  0  0  0  0
   37.1780   23.0180   37.2160 C   0  0  0  0  0  0  0  0  0  0  0  0
   39.6090   23.0900   37.6850 C   0  0  0  0  0  0  0  0  0  0  0  0
   40.9200   22.6700   37.1700 C   0  0  0  0  0  0  0  0  0  0  0  0
   41.7550   23.4490   36.3970 C   0  0  0  0  0  0  0  0  0  0  0  0
   42.9520   22.8890   36.0010 C   0  0  0  0  0  0  0  0  0  0  0  0
   43.3610   21.6030   36.3290 C   0  0  0  0  0  0  0  0  0  0  0  0
   42.5180   20.8200   37.1070 C   0  0  0  0  0  0  0  0  0  0  0  0
   41.3280   21.3800   37.5000 C   0  0  0  0  0  0  0  0  0  0  0  0
   38.1254   27.7476   36.7389 H   0  0  0  0  0  0  0  0  0  0  0  0
   38.6642   28.0318   34.2875 H   0  0  0  0  0  0  0  0  0  0  0  0
   39.1644   25.9455   32.9199 H   0  0  0  0  0  0  0  0  0  0  0  0
   39.0322   21.1854   36.1584 H   0  0  0  0  0  0  0  0  0  0  0  0
   37.9296   21.9693   34.9766 H   0  0  0  0  0  0  0  0  0  0  0  0
   39.6800   22.3730   34.9766 H   0  0  0  0  0  0  0  0  0  0  0  0
   37.2551   23.0310   38.3132 H   0  0  0  0  0  0  0  0  0  0  0  0
   36.4931   23.8135   36.8871 H   0  0  0  0  0  0  0  0  0  0  0  0
   36.7913   22.0421   36.8871 H   0  0  0  0  0  0  0  0  0  0  0  0
   39.7302   24.0552   38.1986 H   0  0  0  0  0  0  0  0  0  0  0  0
   39.2593   22.2966   38.3619 H   0  0  0  0  0  0  0  0  0  0  0  0
   41.4783   24.4737   36.1083 H   0  0  0  0  0  0  0  0  0  0  0  0
   43.6269   23.5014   35.3849 H   0  0  0  0  0  0  0  0  0  0  0  0
   44.3293   21.2139   35.9810 H   0  0  0  0  0  0  0  0  0  0  0  0
   42.7923   19.7947   37.3959 H   0  0  0  0  0  0  0  0  0  0  0  0
   40.6518   20.7694   38.1164 H   0  0  0  0  0  0  0  0  0  0  0  0
  1  9  1  0
  1 10  1  0
  2  7  2  0
  3  2  1  0
  4  5  1  0
  4  3  2  0
  5  6  2  0
  6  1  1  0
  6  7  1  0
  8  1  1  0
 11 16  1  0
 11 10  1  0
 12 11  2  0
 13 14  2  0
 13 12  1  0
 14 15  1  0
 15 16  2  0
  2 17  1  0
  3 18  1  0
  4 19  1  0
  8 20  1  0
  8 21  1  0
  8 22  1  0
  9 23  1  0
  9 24  1  0
  9 25  1  0
 10 26  1  0
 10 27  1  0
 12 28  1  0
 13 29  1  0
 14 30  1  0
 15 31  1  0
 16 32  1  0
M  ISO  8  17  14  18  14  19  14  20   8  21   8  22   8  23   8  24   8
M  ISO  8  25   8  26   8  27   8  28  14  29  14  30  14  31  14  32  14
M  END
>  <minimizedAffinity>  (1) 
-4.42569065

>  <minimizedRMSD>  (1) 
5.86474276

$$$$
