
     RDKit          3D

 24 24  0  0  0  0  0  0  0  0999 V2000
   38.7280   26.1190   35.2450 C   0  0  0  0  0  0  0  0  0  0  0  0
   39.4580   23.0250   37.0400 C   0  0  0  0  0  0  0  0  0  0  0  0
   38.7220   23.1550   38.2360 C   0  0  0  0  0  0  0  0  0  0  0  0
   37.9620   24.3430   38.4150 C   0  0  0  0  0  0  0  0  0  0  0  0
   37.9990   25.2660   37.4230 N   0  0  0  0  0  0  0  0  0  0  0  0
   38.7270   25.0960   36.2810 C   0  0  0  0  0  0  0  0  0  0  0  0
   39.4450   23.9810   36.1050 N   0  0  0  0  0  0  0  0  0  0  0  0
   38.0750   27.4150   35.7140 C   0  0  0  0  0  0  0  0  0  0  0  0
   37.9720   25.6280   34.0220 C   0  0  0  0  0  0  0  0  0  0  0  0
   40.1420   26.5160   34.8170 C   0  0  0  0  0  0  0  0  0  0  0  0
   40.7180   25.5450   33.9330 N   0  0  0  0  0  0  0  0  0  0  0  0
   40.0560   22.1171   36.8725 H   0  0  0  0  0  0  0  0  0  0  0  0
   38.7355   22.3660   39.0023 H   0  0  0  0  0  0  0  0  0  0  0  0
   37.3660   24.5071   39.3248 H   0  0  0  0  0  0  0  0  0  0  0  0
   38.0615   27.4418   36.8136 H   0  0  0  0  0  0  0  0  0  0  0  0
   38.6483   28.2731   35.3333 H   0  0  0  0  0  0  0  0  0  0  0  0
   37.0442   27.4649   35.3333 H   0  0  0  0  0  0  0  0  0  0  0  0
   37.0894   25.0548   34.3422 H   0  0  0  0  0  0  0  0  0  0  0  0
   37.6504   26.4901   33.4192 H   0  0  0  0  0  0  0  0  0  0  0  0
   38.6288   24.9836   33.4192 H   0  0  0  0  0  0  0  0  0  0  0  0
   40.0997   27.4870   34.3019 H   0  0  0  0  0  0  0  0  0  0  0  0
   40.7701   26.5764   35.7181 H   0  0  0  0  0  0  0  0  0  0  0  0
   41.1614   24.7976   34.4859 H   0  0  0  0  0  0  0  0  0  0  0  0
   39.9799   25.1409   33.3390 H   0  0  0  0  0  0  0  0  0  0  0  0
  1  8  1  0
  1  6  1  0
  2  3  2  0
  3  4  1  0
  5  4  2  0
  6  5  1  0
  7  6  2  0
  7  2  1  0
  9  1  1  0
 10  1  1  0
 11 10  1  0
  2 12  1  0
  3 13  1  0
  4 14  1  0
  8 15  1  0
  8 16  1  0
  8 17  1  0
  9 18  1  0
  9 19  1  0
  9 20  1  0
 10 21  1  0
 10 22  1  0
 11 23  1  0
 11 24  1  0
M  ISO  8  12  14  13  14  14  14  15   8  16   8  17   8  18   8  19   8
M  ISO  5  20   8  21   8  22   8  23   5  24   5
M  END
>  <minimizedAffinity>  (1) 
-3.23402047

>  <minimizedRMSD>  (1) 
0.114293627

$$$$
