
     RDKit          3D

 34 35  0  0  0  0  0  0  0  0999 V2000
   38.5240   26.2650   35.1080 C   0  0  0  0  0  0  0  0  0  0  0  0
   37.8400   22.8980   36.3650 C   0  0  0  0  0  0  0  0  0  0  0  0
   37.7580   23.0700   37.7550 C   0  0  0  0  0  0  0  0  0  0  0  0
   37.9450   24.3790   38.2550 C   0  0  0  0  0  0  0  0  0  0  0  0
   38.1870   25.3690   37.3640 N   0  0  0  0  0  0  0  0  0  0  0  0
   38.2570   25.1550   36.0260 C   0  0  0  0  0  0  0  0  0  0  0  0
   38.0820   23.9190   35.5380 N   0  0  0  0  0  0  0  0  0  0  0  0
   37.9840   27.5840   35.6240 C   0  0  0  0  0  0  0  0  0  0  0  0
   37.8980   25.9740   33.7590 C   0  0  0  0  0  0  0  0  0  0  0  0
   40.0330   26.4890   34.9200 C   0  0  0  0  0  0  0  0  0  0  0  0
   40.7040   25.2830   34.5390 N   0  0  0  0  0  0  0  0  0  0  0  0
   41.8010   24.6640   35.2370 C   0  0  0  0  0  0  0  0  0  0  0  0
   41.6520   23.4360   35.8760 C   0  0  0  0  0  0  0  0  0  0  0  0
   42.7050   22.8630   36.5340 C   0  0  0  0  0  0  0  0  0  0  0  0
   43.8980   23.5510   36.5330 C   0  0  0  0  0  0  0  0  0  0  0  0
   44.1050   24.7680   35.9190 C   0  0  0  0  0  0  0  0  0  0  0  0
   43.0240   25.3400   35.2520 C   0  0  0  0  0  0  0  0  0  0  0  0
   37.7008   21.8917   35.9432 H   0  0  0  0  0  0  0  0  0  0  0  0
   37.5568   22.2226   38.4269 H   0  0  0  0  0  0  0  0  0  0  0  0
   37.8954   24.5866   39.3341 H   0  0  0  0  0  0  0  0  0  0  0  0
   37.9871   27.5763   36.7240 H   0  0  0  0  0  0  0  0  0  0  0  0
   38.6177   28.4067   35.2612 H   0  0  0  0  0  0  0  0  0  0  0  0
   36.9553   27.7261   35.2612 H   0  0  0  0  0  0  0  0  0  0  0  0
   36.9093   25.5144   33.9050 H   0  0  0  0  0  0  0  0  0  0  0  0
   37.7865   26.9126   33.1964 H   0  0  0  0  0  0  0  0  0  0  0  0
   38.5437   25.2837   33.1964 H   0  0  0  0  0  0  0  0  0  0  0  0
   40.1862   27.2451   34.1359 H   0  0  0  0  0  0  0  0  0  0  0  0
   40.4518   26.8259   35.8797 H   0  0  0  0  0  0  0  0  0  0  0  0
   40.3706   24.8137   33.6849 H   0  0  0  0  0  0  0  0  0  0  0  0
   40.6795   22.9226   35.8514 H   0  0  0  0  0  0  0  0  0  0  0  0
   42.6034   21.8931   37.0428 H   0  0  0  0  0  0  0  0  0  0  0  0
   44.7488   23.0959   37.0612 H   0  0  0  0  0  0  0  0  0  0  0  0
   45.0845   25.2673   35.9544 H   0  0  0  0  0  0  0  0  0  0  0  0
   43.1315   26.3099   34.7444 H   0  0  0  0  0  0  0  0  0  0  0  0
  1  8  1  0
  1  6  1  0
  2  3  2  0
  3  4  1  0
  5  4  2  0
  6  5  1  0
  7  6  2  0
  7  2  1  0
  9  1  1  0
 10  1  1  0
 11 10  1  0
 11 12  1  0
 12 17  1  0
 12 13  2  0
 13 14  1  0
 15 14  2  0
 16 15  1  0
 17 16  2  0
  2 18  1  0
  3 19  1  0
  4 20  1  0
  8 21  1  0
  8 22  1  0
  8 23  1  0
  9 24  1  0
  9 25  1  0
  9 26  1  0
 10 27  1  0
 10 28  1  0
 11 29  1  0
 13 30  1  0
 14 31  1  0
 15 32  1  0
 16 33  1  0
 17 34  1  0
M  ISO  8  18  14  19  14  20  14  21   8  22   8  23   8  24   8  25   8
M  ISO  8  26   8  27   8  28   8  30  14  31  14  32  14  33  14  34  14
M  END
>  <minimizedAffinity>  (1) 
-4.30501127

>  <minimizedRMSD>  (1) 
2.41013002

$$$$
