
     RDKit          3D

 33 34  0  0  0  0  0  0  0  0999 V2000
   38.5350   26.2160   35.1210 C   0  0  0  0  0  0  0  0  0  0  0  0
   37.8400   22.8720   36.4090 C   0  0  0  0  0  0  0  0  0  0  0  0
   37.7440   23.0620   37.7950 C   0  0  0  0  0  0  0  0  0  0  0  0
   37.9230   24.3850   38.3030 C   0  0  0  0  0  0  0  0  0  0  0  0
   38.1740   25.3490   37.3940 N   0  0  0  0  0  0  0  0  0  0  0  0
   38.2610   25.1320   36.0580 C   0  0  0  0  0  0  0  0  0  0  0  0
   38.0910   23.8840   35.5790 N   0  0  0  0  0  0  0  0  0  0  0  0
   38.0390   27.5580   35.6710 C   0  0  0  0  0  0  0  0  0  0  0  0
   37.8330   25.9590   33.8090 C   0  0  0  0  0  0  0  0  0  0  0  0
   40.0160   26.4210   34.8650 C   0  0  0  0  0  0  0  0  0  0  0  0
   40.6460   25.2150   34.3910 N   0  0  0  0  0  0  0  0  0  0  0  0
   41.7510   24.7160   35.1390 C   0  0  0  0  0  0  0  0  0  0  0  0
   41.7310   23.5110   35.8120 C   0  0  0  0  0  0  0  0  0  0  0  0
   42.7940   23.0170   36.5390 C   0  0  0  0  0  0  0  0  0  0  0  0
   43.9570   23.7520   36.6130 C   0  0  0  0  0  0  0  0  0  0  0  0
   43.9690   24.9360   35.9480 C   0  0  0  0  0  0  0  0  0  0  0  0
   42.9190   25.3850   35.2520 N   0  0  0  0  0  0  0  0  0  0  0  0
   37.7046   21.8614   35.9961 H   0  0  0  0  0  0  0  0  0  0  0  0
   37.5373   22.2185   38.4701 H   0  0  0  0  0  0  0  0  0  0  0  0
   37.8595   24.6058   39.3787 H   0  0  0  0  0  0  0  0  0  0  0  0
   38.0494   27.5300   36.7706 H   0  0  0  0  0  0  0  0  0  0  0  0
   38.6983   28.3649   35.3186 H   0  0  0  0  0  0  0  0  0  0  0  0
   37.0134   27.7422   35.3186 H   0  0  0  0  0  0  0  0  0  0  0  0
   36.8164   25.5868   34.0039 H   0  0  0  0  0  0  0  0  0  0  0  0
   37.7769   26.8949   33.2337 H   0  0  0  0  0  0  0  0  0  0  0  0
   38.3944   25.2081   33.2337 H   0  0  0  0  0  0  0  0  0  0  0  0
   40.1414   27.2098   34.1087 H   0  0  0  0  0  0  0  0  0  0  0  0
   40.4922   26.7067   35.8146 H   0  0  0  0  0  0  0  0  0  0  0  0
   40.3107   24.7328   33.5449 H   0  0  0  0  0  0  0  0  0  0  0  0
   40.8119   22.9084   35.7658 H   0  0  0  0  0  0  0  0  0  0  0  0
   42.7142   22.0480   37.0534 H   0  0  0  0  0  0  0  0  0  0  0  0
   44.8301   23.3983   37.1810 H   0  0  0  0  0  0  0  0  0  0  0  0
   44.8802   25.5513   35.9833 H   0  0  0  0  0  0  0  0  0  0  0  0
  1  8  1  0
  1  6  1  0
  2  3  2  0
  3  4  1  0
  5  4  2  0
  6  5  1  0
  7  6  2  0
  7  2  1  0
  9  1  1  0
 10  1  1  0
 11 10  1  0
 11 12  1  0
 12 17  1  0
 12 13  2  0
 13 14  1  0
 14 15  2  0
 16 15  1  0
 17 16  2  0
  2 18  1  0
  3 19  1  0
  4 20  1  0
  8 21  1  0
  8 22  1  0
  8 23  1  0
  9 24  1  0
  9 25  1  0
  9 26  1  0
 10 27  1  0
 10 28  1  0
 11 29  1  0
 13 30  1  0
 14 31  1  0
 15 32  1  0
 16 33  1  0
M  ISO  8  18  14  19  14  20  14  21   8  22   8  23   8  24   8  25   8
M  ISO  7  26   8  27   8  28   8  30  14  31  14  32  14  33  14
M  END
>  <minimizedAffinity>  (1) 
-4.25821447

>  <minimizedRMSD>  (1) 
2.32748199

$$$$
