
     RDKit          3D

 32 33  0  0  0  0  0  0  0  0999 V2000
   38.5530   26.2090   35.1270 C   0  0  0  0  0  0  0  0  0  0  0  0
   37.8370   22.8620   36.3820 C   0  0  0  0  0  0  0  0  0  0  0  0
   37.7400   23.0620   37.7850 C   0  0  0  0  0  0  0  0  0  0  0  0
   37.9250   24.3690   38.2870 C   0  0  0  0  0  0  0  0  0  0  0  0
   38.1860   25.3590   37.3910 N   0  0  0  0  0  0  0  0  0  0  0  0
   38.2720   25.1230   36.0530 C   0  0  0  0  0  0  0  0  0  0  0  0
   38.0970   23.8950   35.5770 N   0  0  0  0  0  0  0  0  0  0  0  0
   38.0450   27.5590   35.6480 C   0  0  0  0  0  0  0  0  0  0  0  0
   37.8770   25.9440   33.7880 C   0  0  0  0  0  0  0  0  0  0  0  0
   40.0350   26.4230   34.8850 C   0  0  0  0  0  0  0  0  0  0  0  0
   40.6890   25.2220   34.4420 N   0  0  0  0  0  0  0  0  0  0  0  0
   41.7910   24.6820   35.1980 C   0  0  0  0  0  0  0  0  0  0  0  0
   41.7010   23.4480   35.8280 C   0  0  0  0  0  0  0  0  0  0  0  0
   42.8030   22.9820   36.5440 C   0  0  0  0  0  0  0  0  0  0  0  0
   43.9300   23.7230   36.6190 N   0  0  0  0  0  0  0  0  0  0  0  0
   44.0090   24.9250   36.0010 C   0  0  0  0  0  0  0  0  0  0  0  0
   42.9380   25.3920   35.2970 N   0  0  0  0  0  0  0  0  0  0  0  0
   37.6979   21.8562   35.9588 H   0  0  0  0  0  0  0  0  0  0  0  0
   37.5266   22.2217   38.4620 H   0  0  0  0  0  0  0  0  0  0  0  0
   37.8603   24.5792   39.3648 H   0  0  0  0  0  0  0  0  0  0  0  0
   38.0476   27.5520   36.7480 H   0  0  0  0  0  0  0  0  0  0  0  0
   38.7021   28.3630   35.2849 H   0  0  0  0  0  0  0  0  0  0  0  0
   37.0209   27.7303   35.2849 H   0  0  0  0  0  0  0  0  0  0  0  0
   36.8655   25.5475   33.9600 H   0  0  0  0  0  0  0  0  0  0  0  0
   37.8109   26.8828   33.2185 H   0  0  0  0  0  0  0  0  0  0  0  0
   38.4665   25.2104   33.2185 H   0  0  0  0  0  0  0  0  0  0  0  0
   40.1604   27.1996   34.1161 H   0  0  0  0  0  0  0  0  0  0  0  0
   40.4936   26.7271   35.8375 H   0  0  0  0  0  0  0  0  0  0  0  0
   40.3704   24.7477   33.5850 H   0  0  0  0  0  0  0  0  0  0  0  0
   40.7797   22.8505   35.7636 H   0  0  0  0  0  0  0  0  0  0  0  0
   42.7544   22.0065   37.0501 H   0  0  0  0  0  0  0  0  0  0  0  0
   44.9311   25.5213   36.0662 H   0  0  0  0  0  0  0  0  0  0  0  0
  1  8  1  0
  1  6  1  0
  2  3  2  0
  3  4  1  0
  5  4  2  0
  6  5  1  0
  7  6  2  0
  7  2  1  0
  9  1  1  0
 10  1  1  0
 11 10  1  0
 11 12  1  0
 12 17  1  0
 12 13  2  0
 13 14  1  0
 14 15  2  0
 16 15  1  0
 17 16  2  0
  2 18  1  0
  3 19  1  0
  4 20  1  0
  8 21  1  0
  8 22  1  0
  8 23  1  0
  9 24  1  0
  9 25  1  0
  9 26  1  0
 10 27  1  0
 10 28  1  0
 11 29  1  0
 13 30  1  0
 14 31  1  0
 16 32  1  0
M  ISO  8  18  14  19  14  20  14  21   8  22   8  23   8  24   8  25   8
M  ISO  6  26   8  27   8  28   8  30  14  31  14  32  14
M  END
>  <minimizedAffinity>  (1) 
-4.02630186

>  <minimizedRMSD>  (1) 
2.32959843

$$$$
