
     RDKit          3D

 30 31  0  0  0  0  0  0  0  0999 V2000
   38.7390   26.1370   35.1590 C   0  0  0  0  0  0  0  0  0  0  0  0
   39.5030   23.0460   36.9660 C   0  0  0  0  0  0  0  0  0  0  0  0
   38.7470   23.1650   38.1450 C   0  0  0  0  0  0  0  0  0  0  0  0
   37.9640   24.3280   38.3170 C   0  0  0  0  0  0  0  0  0  0  0  0
   38.0010   25.2450   37.3260 N   0  0  0  0  0  0  0  0  0  0  0  0
   38.7430   25.1010   36.1970 C   0  0  0  0  0  0  0  0  0  0  0  0
   39.4930   23.9950   36.0250 N   0  0  0  0  0  0  0  0  0  0  0  0
   37.8750   27.3250   35.5490 C   0  0  0  0  0  0  0  0  0  0  0  0
   38.2280   25.5560   33.8570 C   0  0  0  0  0  0  0  0  0  0  0  0
   40.1380   26.7150   34.9210 C   0  0  0  0  0  0  0  0  0  0  0  0
   40.9890   25.7900   34.2320 N   0  0  0  0  0  0  0  0  0  0  0  0
   42.4040   25.9580   34.4750 C   0  0  0  0  0  0  0  0  0  0  0  0
   43.2350   26.8770   33.8150 C   0  0  0  0  0  0  0  0  0  0  0  0
   44.8230   26.5410   34.5990 S   0  0  0  0  0  0  0  0  0  0  0  0
   44.0790   25.1730   35.7240 C   0  0  0  0  0  0  0  0  0  0  0  0
   42.8400   25.1180   35.4200 N   0  0  0  0  0  0  0  0  0  0  0  0
   40.1194   22.1477   36.8138 H   0  0  0  0  0  0  0  0  0  0  0  0
   38.7646   22.3758   38.9111 H   0  0  0  0  0  0  0  0  0  0  0  0
   37.3514   24.4801   39.2179 H   0  0  0  0  0  0  0  0  0  0  0  0
   37.8231   27.3964   36.6455 H   0  0  0  0  0  0  0  0  0  0  0  0
   38.3147   28.2475   35.1419 H   0  0  0  0  0  0  0  0  0  0  0  0
   36.8619   27.1910   35.1419 H   0  0  0  0  0  0  0  0  0  0  0  0
   37.5155   24.7459   34.0716 H   0  0  0  0  0  0  0  0  0  0  0  0
   37.7243   26.3432   33.2769 H   0  0  0  0  0  0  0  0  0  0  0  0
   39.0731   25.1569   33.2769 H   0  0  0  0  0  0  0  0  0  0  0  0
   40.0465   27.6307   34.3183 H   0  0  0  0  0  0  0  0  0  0  0  0
   40.5897   26.9284   35.9010 H   0  0  0  0  0  0  0  0  0  0  0  0
   40.6189   25.0583   33.6086 H   0  0  0  0  0  0  0  0  0  0  0  0
   42.9845   27.6061   33.0304 H   0  0  0  0  0  0  0  0  0  0  0  0
   44.6087   24.5652   36.4723 H   0  0  0  0  0  0  0  0  0  0  0  0
  1  8  1  0
  1  6  1  0
  2  3  2  0
  3  4  1  0
  5  4  2  0
  6  5  1  0
  7  6  2  0
  7  2  1  0
  9  1  1  0
 10  1  1  0
 11 12  1  0
 11 10  1  0
 12 16  1  0
 13 12  2  0
 13 14  1  0
 14 15  1  0
 16 15  2  0
  2 17  1  0
  3 18  1  0
  4 19  1  0
  8 20  1  0
  8 21  1  0
  8 22  1  0
  9 23  1  0
  9 24  1  0
  9 25  1  0
 10 26  1  0
 10 27  1  0
 11 28  1  0
 13 29  1  0
 15 30  1  0
M  ISO  8  17  14  18  14  19  14  20   8  21   8  22   8  23   8  24   8
M  ISO  5  25   8  26   8  27   8  29  14  30  14
M  END
>  <minimizedAffinity>  (1) 
-3.77201724

>  <minimizedRMSD>  (1) 
1.02768099

$$$$
