
     RDKit          3D

 37 38  0  0  0  0  0  0  0  0999 V2000
   38.6870   26.1270   35.2360 C   0  0  0  0  0  0  0  0  0  0  0  0
   39.4610   23.0330   37.0300 C   0  0  0  0  0  0  0  0  0  0  0  0
   38.7400   23.1580   38.2280 C   0  0  0  0  0  0  0  0  0  0  0  0
   37.9740   24.3320   38.4190 C   0  0  0  0  0  0  0  0  0  0  0  0
   37.9850   25.2620   37.4300 N   0  0  0  0  0  0  0  0  0  0  0  0
   38.7060   25.0970   36.2720 C   0  0  0  0  0  0  0  0  0  0  0  0
   39.4350   23.9880   36.0830 N   0  0  0  0  0  0  0  0  0  0  0  0
   38.0810   27.4280   35.7490 C   0  0  0  0  0  0  0  0  0  0  0  0
   37.8970   25.6480   34.0430 C   0  0  0  0  0  0  0  0  0  0  0  0
   40.1060   26.4980   34.7820 C   0  0  0  0  0  0  0  0  0  0  0  0
   40.5320   25.6790   33.6740 N   0  0  0  0  0  0  0  0  0  0  0  0
   41.9610   25.6810   33.5890 C   0  0  0  0  0  0  0  0  0  0  0  0
   42.6410   25.0510   34.7870 C   0  0  0  0  0  0  0  0  0  0  0  0
   43.9630   25.7760   34.9320 C   0  0  0  0  0  0  0  0  0  0  0  0
   43.8960   26.9960   34.0520 C   0  0  0  0  0  0  0  0  0  0  0  0
   42.4880   27.0990   33.5350 C   0  0  0  0  0  0  0  0  0  0  0  0
   40.0641   22.1288   36.8609 H   0  0  0  0  0  0  0  0  0  0  0  0
   38.7697   22.3686   38.9935 H   0  0  0  0  0  0  0  0  0  0  0  0
   37.3892   24.4861   39.3379 H   0  0  0  0  0  0  0  0  0  0  0  0
   38.0826   27.4246   36.8490 H   0  0  0  0  0  0  0  0  0  0  0  0
   38.6757   28.2784   35.3841 H   0  0  0  0  0  0  0  0  0  0  0  0
   37.0474   27.5200   35.3841 H   0  0  0  0  0  0  0  0  0  0  0  0
   37.0039   25.1065   34.3881 H   0  0  0  0  0  0  0  0  0  0  0  0
   37.5899   26.5122   33.4356 H   0  0  0  0  0  0  0  0  0  0  0  0
   38.5213   24.9762   33.4356 H   0  0  0  0  0  0  0  0  0  0  0  0
   40.1190   27.5537   34.4732 H   0  0  0  0  0  0  0  0  0  0  0  0
   40.7949   26.3303   35.6230 H   0  0  0  0  0  0  0  0  0  0  0  0
   40.1994   24.7143   33.8144 H   0  0  0  0  0  0  0  0  0  0  0  0
   42.1852   25.1020   32.6810 H   0  0  0  0  0  0  0  0  0  0  0  0
   42.0284   25.1848   35.6908 H   0  0  0  0  0  0  0  0  0  0  0  0
   42.7827   23.9685   34.6523 H   0  0  0  0  0  0  0  0  0  0  0  0
   44.1173   26.0741   35.9796 H   0  0  0  0  0  0  0  0  0  0  0  0
   44.8008   25.1264   34.6386 H   0  0  0  0  0  0  0  0  0  0  0  0
   44.1497   27.8942   34.6342 H   0  0  0  0  0  0  0  0  0  0  0  0
   44.6109   26.9151   33.2199 H   0  0  0  0  0  0  0  0  0  0  0  0
   42.4795   27.4781   32.5024 H   0  0  0  0  0  0  0  0  0  0  0  0
   41.8752   27.7963   34.1252 H   0  0  0  0  0  0  0  0  0  0  0  0
  1  8  1  0
  1  6  1  0
  2  3  2  0
  3  4  1  0
  5  4  2  0
  6  5  1  0
  7  6  2  0
  7  2  1  0
  9  1  1  0
 10  1  1  0
 11 10  1  0
 12 11  1  0
 12 13  1  0
 13 14  1  0
 15 14  1  0
 16 12  1  0
 16 15  1  0
  2 17  1  0
  3 18  1  0
  4 19  1  0
  8 20  1  0
  8 21  1  0
  8 22  1  0
  9 23  1  0
  9 24  1  0
  9 25  1  0
 10 26  1  0
 10 27  1  0
 11 28  1  0
 12 29  1  0
 13 30  1  0
 13 31  1  0
 14 32  1  0
 14 33  1  0
 15 34  1  0
 15 35  1  0
 16 36  1  0
 16 37  1  0
M  ISO  8  17  14  18  14  19  14  20   8  21   8  22   8  23   8  24   8
M  ISO  8  25   8  26   8  27   8  28   5  29  13  30  13  31  13  32  13
M  ISO  5  33  13  34  13  35  13  36  13  37  13
M  END
>  <minimizedAffinity>  (1) 
-3.75562453

>  <minimizedRMSD>  (1) 
0.331727833

$$$$
