
     RDKit          3D

 36 36  0  0  0  0  0  0  0  0999 V2000
   38.5180   25.7920   35.0340 C   0  0  0  0  0  0  0  0  0  0  0  0
   39.5040   22.9370   37.0850 C   0  0  0  0  0  0  0  0  0  0  0  0
   38.8180   23.1710   38.3060 C   0  0  0  0  0  0  0  0  0  0  0  0
   38.0050   24.3450   38.4040 C   0  0  0  0  0  0  0  0  0  0  0  0
   37.9490   25.1450   37.3250 N   0  0  0  0  0  0  0  0  0  0  0  0
   38.6210   24.8890   36.1670 C   0  0  0  0  0  0  0  0  0  0  0  0
   39.3870   23.7880   36.0680 N   0  0  0  0  0  0  0  0  0  0  0  0
   37.3110   26.7140   35.1290 C   0  0  0  0  0  0  0  0  0  0  0  0
   38.3480   24.9770   33.7500 C   0  0  0  0  0  0  0  0  0  0  0  0
   39.7260   26.6930   34.8660 C   0  0  0  0  0  0  0  0  0  0  0  0
   40.9470   25.9730   34.9090 N   0  0  0  0  0  0  0  0  0  0  0  0
   41.8770   26.1840   33.8630 C   0  0  0  0  0  0  0  0  0  0  0  0
   41.4690   27.4770   33.1530 C   0  0  0  0  0  0  0  0  0  0  0  0
   41.8800   25.1110   32.8060 C   0  0  0  0  0  0  0  0  0  0  0  0
   43.3020   26.3900   34.3350 C   0  0  0  0  0  0  0  0  0  0  0  0
   40.1379   22.0444   36.9785 H   0  0  0  0  0  0  0  0  0  0  0  0
   38.9085   22.4718   39.1503 H   0  0  0  0  0  0  0  0  0  0  0  0
   37.4496   24.5826   39.3233 H   0  0  0  0  0  0  0  0  0  0  0  0
   37.0716   26.8968   36.1870 H   0  0  0  0  0  0  0  0  0  0  0  0
   37.5397   27.6695   34.6344 H   0  0  0  0  0  0  0  0  0  0  0  0
   36.4493   26.2421   34.6344 H   0  0  0  0  0  0  0  0  0  0  0  0
   38.1296   23.9299   34.0066 H   0  0  0  0  0  0  0  0  0  0  0  0
   37.5169   25.3910   33.1602 H   0  0  0  0  0  0  0  0  0  0  0  0
   39.2753   25.0242   33.1602 H   0  0  0  0  0  0  0  0  0  0  0  0
   39.7264   27.4380   35.6753 H   0  0  0  0  0  0  0  0  0  0  0  0
   39.6531   27.1714   33.8782 H   0  0  0  0  0  0  0  0  0  0  0  0
   41.4172   26.2188   35.7918 H   0  0  0  0  0  0  0  0  0  0  0  0
   41.2265   28.2456   33.9016 H   0  0  0  0  0  0  0  0  0  0  0  0
   42.3002   27.8276   32.5235 H   0  0  0  0  0  0  0  0  0  0  0  0
   40.5871   27.2871   32.5235 H   0  0  0  0  0  0  0  0  0  0  0  0
   41.8828   24.1220   33.2875 H   0  0  0  0  0  0  0  0  0  0  0  0
   40.9816   25.2112   32.1793 H   0  0  0  0  0  0  0  0  0  0  0  0
   42.7779   25.2162   32.1793 H   0  0  0  0  0  0  0  0  0  0  0  0
   43.3271   26.3936   35.4347 H   0  0  0  0  0  0  0  0  0  0  0  0
   43.9352   25.5741   33.9565 H   0  0  0  0  0  0  0  0  0  0  0  0
   43.6782   27.3519   33.9565 H   0  0  0  0  0  0  0  0  0  0  0  0
  1  8  1  0
  1  6  1  0
  2  3  2  0
  3  4  1  0
  5  4  2  0
  6  5  1  0
  7  6  2  0
  7  2  1  0
  9  1  1  0
 10 11  1  0
 10  1  1  0
 12 15  1  0
 12 11  1  0
 13 12  1  0
 14 12  1  0
  2 16  1  0
  3 17  1  0
  4 18  1  0
  8 19  1  0
  8 20  1  0
  8 21  1  0
  9 22  1  0
  9 23  1  0
  9 24  1  0
 10 25  1  0
 10 26  1  0
 11 27  1  0
 13 28  1  0
 13 29  1  0
 13 30  1  0
 14 31  1  0
 14 32  1  0
 14 33  1  0
 15 34  1  0
 15 35  1  0
 15 36  1  0
M  ISO  8  16  14  17  14  18  14  19   8  20   8  21   8  22   8  23   8
M  ISO  8  24   8  25   8  26   8  27   5  28   8  29   8  30   8  31   8
M  ISO  5  32   8  33   8  34   8  35   8  36   8
M  END
>  <minimizedAffinity>  (1) 
-3.5663569

>  <minimizedRMSD>  (1) 
0.613887131

$$$$
