
     RDKit          3D

 31 32  0  0  0  0  0  0  0  0999 V2000
   38.5410   25.8660   35.0180 C   0  0  0  0  0  0  0  0  0  0  0  0
   39.7140   23.0190   36.9810 C   0  0  0  0  0  0  0  0  0  0  0  0
   38.9810   23.1140   38.1720 C   0  0  0  0  0  0  0  0  0  0  0  0
   38.0660   24.1820   38.2950 C   0  0  0  0  0  0  0  0  0  0  0  0
   37.9470   25.0540   37.2580 N   0  0  0  0  0  0  0  0  0  0  0  0
   38.6820   24.9240   36.1140 C   0  0  0  0  0  0  0  0  0  0  0  0
   39.5460   23.9160   35.9990 N   0  0  0  0  0  0  0  0  0  0  0  0
   37.1850   26.5760   35.0510 C   0  0  0  0  0  0  0  0  0  0  0  0
   38.6680   25.1670   33.6890 C   0  0  0  0  0  0  0  0  0  0  0  0
   39.5860   26.9960   35.0930 C   0  0  0  0  0  0  0  0  0  0  0  0
   40.9020   26.4830   34.9490 N   0  0  0  0  0  0  0  0  0  0  0  0
   41.7120   27.0390   33.9250 C   0  0  0  0  0  0  0  0  0  0  0  0
   42.3400   25.9660   32.9990 C   0  0  0  0  0  0  0  0  0  0  0  0
   43.1970   26.6350   34.0190 C   0  0  0  0  0  0  0  0  0  0  0  0
   40.4354   22.1989   36.8506 H   0  0  0  0  0  0  0  0  0  0  0  0
   39.1141   22.3821   38.9823 H   0  0  0  0  0  0  0  0  0  0  0  0
   37.4640   24.3059   39.2073 H   0  0  0  0  0  0  0  0  0  0  0  0
   36.8800   26.7357   36.0958 H   0  0  0  0  0  0  0  0  0  0  0  0
   37.2670   27.5469   34.5405 H   0  0  0  0  0  0  0  0  0  0  0  0
   36.4337   25.9556   34.5405 H   0  0  0  0  0  0  0  0  0  0  0  0
   38.8624   24.0970   33.8546 H   0  0  0  0  0  0  0  0  0  0  0  0
   37.7335   25.2863   33.1212 H   0  0  0  0  0  0  0  0  0  0  0  0
   39.5008   25.6074   33.1212 H   0  0  0  0  0  0  0  0  0  0  0  0
   39.3919   27.7194   34.2874 H   0  0  0  0  0  0  0  0  0  0  0  0
   39.5055   27.4828   36.0761 H   0  0  0  0  0  0  0  0  0  0  0  0
   41.3906   26.6307   35.8436 H   0  0  0  0  0  0  0  0  0  0  0  0
   41.1552   27.9788   33.7957 H   0  0  0  0  0  0  0  0  0  0  0  0
   42.0662   24.9078   33.1229 H   0  0  0  0  0  0  0  0  0  0  0  0
   42.4018   25.8262   31.9097 H   0  0  0  0  0  0  0  0  0  0  0  0
   43.9764   27.3419   33.6984 H   0  0  0  0  0  0  0  0  0  0  0  0
   43.8470   26.2777   34.8313 H   0  0  0  0  0  0  0  0  0  0  0  0
  1  8  1  0
  1 10  1  0
  1  6  1  0
  2  3  2  0
  3  4  1  0
  5  4  2  0
  6  5  1  0
  7  6  2  0
  7  2  1  0
  9  1  1  0
 11 10  1  0
 12 14  1  0
 12 11  1  0
 13 12  1  0
 13 14  1  0
  2 15  1  0
  3 16  1  0
  4 17  1  0
  8 18  1  0
  8 19  1  0
  8 20  1  0
  9 21  1  0
  9 22  1  0
  9 23  1  0
 10 24  1  0
 10 25  1  0
 11 26  1  0
 12 27  1  0
 13 28  1  0
 13 29  1  0
 14 30  1  0
 14 31  1  0
M  ISO  8  15  14  16  14  17  14  18   8  19   8  20   8  21   8  22   8
M  ISO  8  23   8  24   8  25   8  26   5  27  13  28  13  29  13  30  13
M  ISO  1  31  13
M  END
>  <minimizedAffinity>  (1) 
-3.52756047

>  <minimizedRMSD>  (1) 
1.04305935

$$$$
