
     RDKit          3D

 30 30  0  0  0  0  0  0  0  0999 V2000
   38.7200   26.1500   35.2300 C   0  0  0  0  0  0  0  0  0  0  0  0
   39.4980   23.0540   37.0000 C   0  0  0  0  0  0  0  0  0  0  0  0
   38.7540   23.1530   38.1890 C   0  0  0  0  0  0  0  0  0  0  0  0
   37.9750   24.3170   38.3670 C   0  0  0  0  0  0  0  0  0  0  0  0
   37.9940   25.2520   37.3920 N   0  0  0  0  0  0  0  0  0  0  0  0
   38.7370   25.1080   36.2520 C   0  0  0  0  0  0  0  0  0  0  0  0
   39.4860   24.0070   36.0600 N   0  0  0  0  0  0  0  0  0  0  0  0
   38.0340   27.4220   35.6980 C   0  0  0  0  0  0  0  0  0  0  0  0
   37.9790   25.6490   34.0040 C   0  0  0  0  0  0  0  0  0  0  0  0
   40.1240   26.5790   34.8080 C   0  0  0  0  0  0  0  0  0  0  0  0
   40.6550   25.7200   33.7760 N   0  0  0  0  0  0  0  0  0  0  0  0
   42.3910   25.8110   33.9580 S   0  0  0  0  0  0  0  0  0  0  0  0
   43.2150   24.8070   32.7820 C   0  0  0  0  0  0  0  0  0  0  0  0
   42.6610   25.3500   35.3630 O   0  0  0  0  0  0  0  0  0  0  0  0
   42.7570   27.2520   33.8590 O   0  0  0  0  0  0  0  0  0  0  0  0
   40.1144   22.1579   36.8357 H   0  0  0  0  0  0  0  0  0  0  0  0
   38.7779   22.3574   38.9482 H   0  0  0  0  0  0  0  0  0  0  0  0
   37.3694   24.4587   39.2743 H   0  0  0  0  0  0  0  0  0  0  0  0
   38.0201   27.4478   36.7976 H   0  0  0  0  0  0  0  0  0  0  0  0
   38.5831   28.2960   35.3176 H   0  0  0  0  0  0  0  0  0  0  0  0
   37.0021   27.4433   35.3176 H   0  0  0  0  0  0  0  0  0  0  0  0
   37.1059   25.0587   34.3190 H   0  0  0  0  0  0  0  0  0  0  0  0
   37.6439   26.5066   33.4022 H   0  0  0  0  0  0  0  0  0  0  0  0
   38.6501   25.0185   33.4022 H   0  0  0  0  0  0  0  0  0  0  0  0
   40.0829   27.6104   34.4277 H   0  0  0  0  0  0  0  0  0  0  0  0
   40.7832   26.5098   35.6859 H   0  0  0  0  0  0  0  0  0  0  0  0
   40.3708   26.0554   32.8445 H   0  0  0  0  0  0  0  0  0  0  0  0
   43.8290   24.0588   33.3047 H   0  0  0  0  0  0  0  0  0  0  0  0
   42.4724   24.2961   32.1515 H   0  0  0  0  0  0  0  0  0  0  0  0
   43.8609   25.4357   32.1515 H   0  0  0  0  0  0  0  0  0  0  0  0
  1  8  1  0
  1  6  1  0
  2  3  2  0
  3  4  1  0
  5  4  2  0
  6  5  1  0
  7  6  2  0
  7  2  1  0
  9  1  1  0
 10  1  1  0
 11 12  1  0
 11 10  1  0
 12 14  2  0
 13 12  1  0
 15 12  2  0
  2 16  1  0
  3 17  1  0
  4 18  1  0
  8 19  1  0
  8 20  1  0
  8 21  1  0
  9 22  1  0
  9 23  1  0
  9 24  1  0
 10 25  1  0
 10 26  1  0
 11 27  1  0
 13 28  1  0
 13 29  1  0
 13 30  1  0
M  ISO  8  16  14  17  14  18  14  19   8  20   8  21   8  22   8  23   8
M  ISO  7  24   8  25   8  26   8  27   5  28   8  29   8  30   8
M  END
>  <minimizedAffinity>  (1) 
-3.49083495

>  <minimizedRMSD>  (1) 
0.445473164

$$$$
