
     RDKit          3D

 26 26  0  0  0  0  0  0  0  0999 V2000
   38.7670   26.1480   35.2150 C   0  0  0  0  0  0  0  0  0  0  0  0
   39.4010   23.0240   37.0080 C   0  0  0  0  0  0  0  0  0  0  0  0
   38.6770   23.1730   38.2040 C   0  0  0  0  0  0  0  0  0  0  0  0
   37.9610   24.3770   38.3880 C   0  0  0  0  0  0  0  0  0  0  0  0
   38.0190   25.2980   37.4060 N   0  0  0  0  0  0  0  0  0  0  0  0
   38.7350   25.1160   36.2560 C   0  0  0  0  0  0  0  0  0  0  0  0
   39.4190   23.9810   36.0650 N   0  0  0  0  0  0  0  0  0  0  0  0
   37.9710   27.3850   35.6430 C   0  0  0  0  0  0  0  0  0  0  0  0
   38.1670   25.6060   33.9390 C   0  0  0  0  0  0  0  0  0  0  0  0
   40.1730   26.6540   34.9450 C   0  0  0  0  0  0  0  0  0  0  0  0
   40.9430   25.6880   34.1990 N   0  0  0  0  0  0  0  0  0  0  0  0
   42.2900   25.6330   34.6610 C   0  0  0  0  0  0  0  0  0  0  0  0
   42.7640   24.8960   35.5640 O   0  0  0  0  0  0  0  0  0  0  0  0
   39.9691   22.0972   36.8394 H   0  0  0  0  0  0  0  0  0  0  0  0
   38.6683   22.3817   38.9680 H   0  0  0  0  0  0  0  0  0  0  0  0
   37.3759   24.5565   39.3020 H   0  0  0  0  0  0  0  0  0  0  0  0
   37.9373   27.4374   36.7412 H   0  0  0  0  0  0  0  0  0  0  0  0
   38.4574   28.2889   35.2475 H   0  0  0  0  0  0  0  0  0  0  0  0
   36.9468   27.3169   35.2475 H   0  0  0  0  0  0  0  0  0  0  0  0
   37.3713   24.8872   34.1844 H   0  0  0  0  0  0  0  0  0  0  0  0
   37.7443   26.4345   33.3517 H   0  0  0  0  0  0  0  0  0  0  0  0
   38.9484   25.1016   33.3517 H   0  0  0  0  0  0  0  0  0  0  0  0
   40.1130   27.5880   34.3670 H   0  0  0  0  0  0  0  0  0  0  0  0
   40.6719   26.8254   35.9102 H   0  0  0  0  0  0  0  0  0  0  0  0
   40.5675   25.1126   33.4317 H   0  0  0  0  0  0  0  0  0  0  0  0
   42.9993   26.3156   34.1701 H   0  0  0  0  0  0  0  0  0  0  0  0
  1  8  1  0
  1  6  1  0
  2  3  2  0
  3  4  1  0
  5  4  2  0
  6  5  1  0
  7  6  2  0
  7  2  1  0
  9  1  1  0
 10  1  1  0
 11 12  1  0
 11 10  1  0
 12 13  2  0
  2 14  1  0
  3 15  1  0
  4 16  1  0
  8 17  1  0
  8 18  1  0
  8 19  1  0
  9 20  1  0
  9 21  1  0
  9 22  1  0
 10 23  1  0
 10 24  1  0
 11 25  1  0
 12 26  1  0
M  ISO  8  14  14  15  14  16  14  17   8  18   8  19   8  20   8  21   8
M  ISO  4  22   8  23   8  24   8  26   6
M  END
>  <minimizedAffinity>  (1) 
-3.43720698

>  <minimizedRMSD>  (1) 
0.576113999

$$$$
