
     RDKit          3D

 44 46  0  0  0  0  0  0  0  0999 V2000
   40.1370   26.6700   34.9280 C   0  0  0  0  0  0  0  0  0  0  0  0
   40.9170   25.4860   34.5870 N   0  0  0  0  0  0  0  0  0  0  0  0
   42.3140   25.4910   34.8250 C   0  0  0  0  0  0  0  0  0  0  0  0
   43.1830   26.4750   34.3310 C   0  0  0  0  0  0  0  0  0  0  0  0
   44.5480   26.5330   34.5590 C   0  0  0  0  0  0  0  0  0  0  0  0
   45.0410   25.5060   35.3550 C   0  0  0  0  0  0  0  0  0  0  0  0
   44.1860   24.5110   35.8590 C   0  0  0  0  0  0  0  0  0  0  0  0
   42.8070   24.4820   35.5970 C   0  0  0  0  0  0  0  0  0  0  0  0
   42.4620   23.2180   36.1710 C   0  0  0  0  0  0  0  0  0  0  0  0
   43.4480   22.2590   35.9030 C   0  0  0  0  0  0  0  0  0  0  0  0
   43.3680   20.9800   36.4660 C   0  0  0  0  0  0  0  0  0  0  0  0
   42.2990   20.6430   37.3040 C   0  0  0  0  0  0  0  0  0  0  0  0
   41.3540   21.6200   37.5360 C   0  0  0  0  0  0  0  0  0  0  0  0
   41.4020   22.9080   36.9910 C   0  0  0  0  0  0  0  0  0  0  0  0
   38.6580   26.3690   34.9820 C   0  0  0  0  0  0  0  0  0  0  0  0
   37.9000   22.9610   35.9850 C   0  0  0  0  0  0  0  0  0  0  0  0
   37.7590   23.0020   37.3480 C   0  0  0  0  0  0  0  0  0  0  0  0
   37.9230   24.2480   37.9590 C   0  0  0  0  0  0  0  0  0  0  0  0
   38.2100   25.3140   37.1710 N   0  0  0  0  0  0  0  0  0  0  0  0
   38.3430   25.2180   35.8170 C   0  0  0  0  0  0  0  0  0  0  0  0
   38.1820   24.0280   35.2590 N   0  0  0  0  0  0  0  0  0  0  0  0
   37.9800   27.6340   35.5200 C   0  0  0  0  0  0  0  0  0  0  0  0
   38.1690   26.1700   33.5740 C   0  0  0  0  0  0  0  0  0  0  0  0
   40.3154   27.4452   34.1682 H   0  0  0  0  0  0  0  0  0  0  0  0
   40.4533   27.0135   35.9240 H   0  0  0  0  0  0  0  0  0  0  0  0
   40.4593   24.6583   34.1792 H   0  0  0  0  0  0  0  0  0  0  0  0
   42.7428   27.2685   33.7093 H   0  0  0  0  0  0  0  0  0  0  0  0
   45.1883   27.3257   34.1447 H   0  0  0  0  0  0  0  0  0  0  0  0
   46.1142   25.4715   35.5936 H   0  0  0  0  0  0  0  0  0  0  0  0
   44.6172   23.7182   36.4879 H   0  0  0  0  0  0  0  0  0  0  0  0
   44.2918   22.5134   35.2448 H   0  0  0  0  0  0  0  0  0  0  0  0
   44.1489   20.2364   36.2488 H   0  0  0  0  0  0  0  0  0  0  0  0
   42.2164   19.6440   37.7570 H   0  0  0  0  0  0  0  0  0  0  0  0
   40.5072   21.3707   38.1923 H   0  0  0  0  0  0  0  0  0  0  0  0
   40.6182   23.6478   37.2110 H   0  0  0  0  0  0  0  0  0  0  0  0
   37.7726   21.9960   35.4727 H   0  0  0  0  0  0  0  0  0  0  0  0
   37.5282   22.0987   37.9318 H   0  0  0  0  0  0  0  0  0  0  0  0
   37.8222   24.3611   39.0485 H   0  0  0  0  0  0  0  0  0  0  0  0
   37.9898   27.6158   36.6198 H   0  0  0  0  0  0  0  0  0  0  0  0
   38.5234   28.5213   35.1631 H   0  0  0  0  0  0  0  0  0  0  0  0
   36.9402   27.6728   35.1631 H   0  0  0  0  0  0  0  0  0  0  0  0
   37.1503   25.7554   33.5948 H   0  0  0  0  0  0  0  0  0  0  0  0
   38.1609   27.1364   33.0486 H   0  0  0  0  0  0  0  0  0  0  0  0
   38.8380   25.4726   33.0486 H   0  0  0  0  0  0  0  0  0  0  0  0
  1 15  1  0
  2  3  1  0
  2  1  1  0
  3  8  2  0
  4  5  2  0
  4  3  1  0
  5  6  1  0
  6  7  2  0
  8  7  1  0
  8  9  1  0
  9 14  1  0
 10  9  2  0
 10 11  1  0
 11 12  2  0
 12 13  1  0
 14 13  2  0
 15 22  1  0
 15 20  1  0
 16 17  2  0
 17 18  1  0
 19 18  2  0
 20 19  1  0
 21 20  2  0
 21 16  1  0
 23 15  1  0
  1 24  1  0
  1 25  1  0
  2 26  1  0
  4 27  1  0
  5 28  1  0
  6 29  1  0
  7 30  1  0
 10 31  1  0
 11 32  1  0
 12 33  1  0
 13 34  1  0
 14 35  1  0
 16 36  1  0
 17 37  1  0
 18 38  1  0
 22 39  1  0
 22 40  1  0
 22 41  1  0
 23 42  1  0
 23 43  1  0
 23 44  1  0
M  ISO  8  24   8  25   8  27  14  28  14  29  14  30  14  31  14  32  14
M  ISO  8  33  14  34  14  35  14  36  14  37  14  38  14  39   8  40   8
M  ISO  4  41   8  42   8  43   8  44   8
M  END
>  <minimizedAffinity>  (1) 
-5.2939992

>  <minimizedRMSD>  (1) 
1.71128917

$$$$
