
     RDKit          3D

 50 52  0  0  0  0  0  0  0  0999 V2000
   40.2280   26.7300   34.9640 C   0  0  0  0  0  0  0  0  0  0  0  0
   41.0070   25.6720   34.3380 N   0  0  0  0  0  0  0  0  0  0  0  0
   42.3850   25.5530   34.6710 C   0  0  0  0  0  0  0  0  0  0  0  0
   43.3530   26.5360   34.3820 C   0  0  0  0  0  0  0  0  0  0  0  0
   44.6990   26.4730   34.7140 C   0  0  0  0  0  0  0  0  0  0  0  0
   45.0340   25.3030   35.3940 C   0  0  0  0  0  0  0  0  0  0  0  0
   44.0940   24.3000   35.6950 C   0  0  0  0  0  0  0  0  0  0  0  0
   42.7470   24.4000   35.3350 C   0  0  0  0  0  0  0  0  0  0  0  0
   42.2680   23.0590   35.7060 C   0  0  0  0  0  0  0  0  0  0  0  0
   41.5030   23.0600   36.9780 C   0  0  0  0  0  0  0  0  0  0  0  0
   41.0210   21.7080   37.4270 C   0  0  0  0  0  0  0  0  0  0  0  0
   42.2290   20.7930   37.5750 C   0  0  0  0  0  0  0  0  0  0  0  0
   42.9910   20.7890   36.2440 C   0  0  0  0  0  0  0  0  0  0  0  0
   43.5440   22.1850   36.0940 C   0  0  0  0  0  0  0  0  0  0  0  0
   38.7450   26.4640   34.9020 C   0  0  0  0  0  0  0  0  0  0  0  0
   38.0710   22.8910   35.1960 C   0  0  0  0  0  0  0  0  0  0  0  0
   37.7320   22.7090   36.5140 C   0  0  0  0  0  0  0  0  0  0  0  0
   37.7210   23.8270   37.3380 C   0  0  0  0  0  0  0  0  0  0  0  0
   38.0480   25.0130   36.7800 N   0  0  0  0  0  0  0  0  0  0  0  0
   38.3850   25.1630   35.4720 C   0  0  0  0  0  0  0  0  0  0  0  0
   38.3820   24.0800   34.7250 N   0  0  0  0  0  0  0  0  0  0  0  0
   38.0530   27.5950   35.6450 C   0  0  0  0  0  0  0  0  0  0  0  0
   38.3140   26.5290   33.4520 C   0  0  0  0  0  0  0  0  0  0  0  0
   40.5284   26.8132   36.0189 H   0  0  0  0  0  0  0  0  0  0  0  0
   40.4253   27.6623   34.4146 H   0  0  0  0  0  0  0  0  0  0  0  0
   40.5699   25.0231   33.6681 H   0  0  0  0  0  0  0  0  0  0  0  0
   43.0110   27.4332   33.8454 H   0  0  0  0  0  0  0  0  0  0  0  0
   45.4243   27.2622   34.4669 H   0  0  0  0  0  0  0  0  0  0  0  0
   46.0779   25.1576   35.7088 H   0  0  0  0  0  0  0  0  0  0  0  0
   44.4322   23.4029   36.2343 H   0  0  0  0  0  0  0  0  0  0  0  0
   41.6612   22.6973   34.8628 H   0  0  0  0  0  0  0  0  0  0  0  0
   42.1508   23.4711   37.7662 H   0  0  0  0  0  0  0  0  0  0  0  0
   40.6021   23.6644   36.7962 H   0  0  0  0  0  0  0  0  0  0  0  0
   40.5037   21.7999   38.3934 H   0  0  0  0  0  0  0  0  0  0  0  0
   40.3195   21.2921   36.6888 H   0  0  0  0  0  0  0  0  0  0  0  0
   42.8826   21.1656   38.3775 H   0  0  0  0  0  0  0  0  0  0  0  0
   41.9051   19.7735   37.8312 H   0  0  0  0  0  0  0  0  0  0  0  0
   43.8076   20.0525   36.2704 H   0  0  0  0  0  0  0  0  0  0  0  0
   42.3399   20.5144   35.4010 H   0  0  0  0  0  0  0  0  0  0  0  0
   44.3020   22.2229   35.2977 H   0  0  0  0  0  0  0  0  0  0  0  0
   44.0453   22.5445   37.0048 H   0  0  0  0  0  0  0  0  0  0  0  0
   38.0829   22.0241   34.5189 H   0  0  0  0  0  0  0  0  0  0  0  0
   37.4779   21.7123   36.9038 H   0  0  0  0  0  0  0  0  0  0  0  0
   37.4565   23.7498   38.4029 H   0  0  0  0  0  0  0  0  0  0  0  0
   38.1507   27.4354   36.7290 H   0  0  0  0  0  0  0  0  0  0  0  0
   38.5199   28.5528   35.3719 H   0  0  0  0  0  0  0  0  0  0  0  0
   36.9876   27.6153   35.3719 H   0  0  0  0  0  0  0  0  0  0  0  0
   37.2275   26.6929   33.3994 H   0  0  0  0  0  0  0  0  0  0  0  0
   38.8346   27.3588   32.9516 H   0  0  0  0  0  0  0  0  0  0  0  0
   38.5667   25.5826   32.9516 H   0  0  0  0  0  0  0  0  0  0  0  0
  2  3  1  0
  2  1  1  0
  3  8  1  0
  4  3  2  0
  4  5  1  0
  5  6  2  0
  6  7  1  0
  8  7  2  0
  8  9  1  0
  9 14  1  0
  9 10  1  0
 10 11  1  0
 11 12  1  0
 13 12  1  0
 14 13  1  0
 15  1  1  0
 15 20  1  0
 15 22  1  0
 16 17  2  0
 17 18  1  0
 19 18  2  0
 20 19  1  0
 21 16  1  0
 21 20  2  0
 23 15  1  0
  1 24  1  0
  1 25  1  0
  2 26  1  0
  4 27  1  0
  5 28  1  0
  6 29  1  0
  7 30  1  0
  9 31  1  0
 10 32  1  0
 10 33  1  0
 11 34  1  0
 11 35  1  0
 12 36  1  0
 12 37  1  0
 13 38  1  0
 13 39  1  0
 14 40  1  0
 14 41  1  0
 16 42  1  0
 17 43  1  0
 18 44  1  0
 22 45  1  0
 22 46  1  0
 22 47  1  0
 23 48  1  0
 23 49  1  0
 23 50  1  0
M  ISO  8  24   8  25   8  27  14  28  14  29  14  30  14  31  13  32  13
M  ISO  8  33  13  34  13  35  13  36  13  37  13  38  13  39  13  40  13
M  ISO  8  41  13  42  14  43  14  44  14  45   8  46   8  47   8  48   8
M  ISO  2  49   8  50   8
M  END
>  <minimizedAffinity>  (1) 
-5.15124655

>  <minimizedRMSD>  (1) 
1.61551929

$$$$
