
     RDKit          3D

 41 43  0  0  0  0  0  0  0  0999 V2000
   40.4520   26.5060   35.0340 C   0  0  0  0  0  0  0  0  0  0  0  0
   41.1790   25.2750   34.7470 N   0  0  0  0  0  0  0  0  0  0  0  0
   42.5440   25.1820   35.1010 C   0  0  0  0  0  0  0  0  0  0  0  0
   43.5390   26.0090   34.5230 C   0  0  0  0  0  0  0  0  0  0  0  0
   44.8900   26.0100   34.8350 C   0  0  0  0  0  0  0  0  0  0  0  0
   45.2460   25.0950   35.8230 C   0  0  0  0  0  0  0  0  0  0  0  0
   44.2720   24.2550   36.4170 C   0  0  0  0  0  0  0  0  0  0  0  0
   42.9220   24.2940   36.0490 C   0  0  0  0  0  0  0  0  0  0  0  0
   42.3650   23.0840   36.5690 C   0  0  0  0  0  0  0  0  0  0  0  0
   41.1910   22.7440   37.1830 C   0  0  0  0  0  0  0  0  0  0  0  0
   41.1440   21.4420   37.5440 N   0  0  0  0  0  0  0  0  0  0  0  0
   42.3390   20.9070   37.1490 C   0  0  0  0  0  0  0  0  0  0  0  0
   43.0470   21.9170   36.5680 N   0  0  0  0  0  0  0  0  0  0  0  0
   38.9570   26.3250   34.8770 C   0  0  0  0  0  0  0  0  0  0  0  0
   38.1370   22.7900   35.0090 C   0  0  0  0  0  0  0  0  0  0  0  0
   37.6640   22.5840   36.2800 C   0  0  0  0  0  0  0  0  0  0  0  0
   37.6100   23.6860   37.1340 C   0  0  0  0  0  0  0  0  0  0  0  0
   38.0340   24.8710   36.6400 N   0  0  0  0  0  0  0  0  0  0  0  0
   38.5010   25.0440   35.3800 C   0  0  0  0  0  0  0  0  0  0  0  0
   38.5330   23.9820   34.6080 N   0  0  0  0  0  0  0  0  0  0  0  0
   38.3380   27.4810   35.6860 C   0  0  0  0  0  0  0  0  0  0  0  0
   38.5800   26.5220   33.4440 C   0  0  0  0  0  0  0  0  0  0  0  0
   40.6669   26.8137   36.0680 H   0  0  0  0  0  0  0  0  0  0  0  0
   40.7810   27.2727   34.3172 H   0  0  0  0  0  0  0  0  0  0  0  0
   40.7034   24.4828   34.2918 H   0  0  0  0  0  0  0  0  0  0  0  0
   43.2072   26.7195   33.7515 H   0  0  0  0  0  0  0  0  0  0  0  0
   45.6167   26.6749   34.3453 H   0  0  0  0  0  0  0  0  0  0  0  0
   46.2952   25.0238   36.1457 H   0  0  0  0  0  0  0  0  0  0  0  0
   44.5883   23.5459   37.1962 H   0  0  0  0  0  0  0  0  0  0  0  0
   40.3714   23.4550   37.3640 H   0  0  0  0  0  0  0  0  0  0  0  0
   42.6656   19.8642   37.2755 H   0  0  0  0  0  0  0  0  0  0  0  0
   43.9919   21.8039   36.1740 H   0  0  0  0  0  0  0  0  0  0  0  0
   38.1870   21.9426   34.3094 H   0  0  0  0  0  0  0  0  0  0  0  0
   37.3394   21.5873   36.6135 H   0  0  0  0  0  0  0  0  0  0  0  0
   37.2383   23.5946   38.1653 H   0  0  0  0  0  0  0  0  0  0  0  0
   38.4477   27.2760   36.7612 H   0  0  0  0  0  0  0  0  0  0  0  0
   38.8539   28.4201   35.4372 H   0  0  0  0  0  0  0  0  0  0  0  0
   37.2704   27.5722   35.4372 H   0  0  0  0  0  0  0  0  0  0  0  0
   37.6064   27.0308   33.3876 H   0  0  0  0  0  0  0  0  0  0  0  0
   39.3441   27.1361   32.9449 H   0  0  0  0  0  0  0  0  0  0  0  0
   38.5121   25.5441   32.9449 H   0  0  0  0  0  0  0  0  0  0  0  0
  2  1  1  0
  2  3  1  0
  3  8  2  0
  4  5  2  0
  4  3  1  0
  5  6  1  0
  6  7  2  0
  8  7  1  0
  8  9  1  0
  9 10  2  0
 10 11  1  0
 12 11  2  0
 13  9  1  0
 13 12  1  0
 14  1  1  0
 14 19  1  0
 14 21  1  0
 15 16  2  0
 16 17  1  0
 18 17  2  0
 19 18  1  0
 20 15  1  0
 20 19  2  0
 22 14  1  0
  1 23  1  0
  1 24  1  0
  2 25  1  0
  4 26  1  0
  5 27  1  0
  6 28  1  0
  7 29  1  0
 10 30  1  0
 12 31  1  0
 13 32  1  0
 15 33  1  0
 16 34  1  0
 17 35  1  0
 21 36  1  0
 21 37  1  0
 21 38  1  0
 22 39  1  0
 22 40  1  0
 22 41  1  0
M  ISO  8  23   8  24   8  26  14  27  14  28  14  29  14  30  14  31  14
M  ISO  8  32   9  33  14  34  14  35  14  36   8  37   8  38   8  39   8
M  ISO  2  40   8  41   8
M  END
>  <minimizedAffinity>  (1) 
-4.9006319

>  <minimizedRMSD>  (1) 
1.71843719

$$$$
