
     RDKit          3D

 47 49  0  0  0  0  0  0  0  0999 V2000
   40.1260   26.8460   34.8600 C   0  0  0  0  0  0  0  0  0  0  0  0
   40.9470   25.8420   34.1940 N   0  0  0  0  0  0  0  0  0  0  0  0
   42.2570   25.5870   34.6710 C   0  0  0  0  0  0  0  0  0  0  0  0
   43.3640   26.4060   34.3680 C   0  0  0  0  0  0  0  0  0  0  0  0
   44.6500   26.1970   34.8290 C   0  0  0  0  0  0  0  0  0  0  0  0
   44.7980   25.0820   35.6510 C   0  0  0  0  0  0  0  0  0  0  0  0
   43.6950   24.2480   35.9630 C   0  0  0  0  0  0  0  0  0  0  0  0
   42.4090   24.4950   35.4660 C   0  0  0  0  0  0  0  0  0  0  0  0
   41.7880   23.3400   35.9120 N   0  0  0  0  0  0  0  0  0  0  0  0
   41.6290   22.3020   34.9120 C   0  0  0  0  0  0  0  0  0  0  0  0
   42.6020   21.1910   35.3540 C   0  0  0  0  0  0  0  0  0  0  0  0
   42.2470   20.7490   36.6090 O   0  0  0  0  0  0  0  0  0  0  0  0
   41.1840   21.3880   37.1960 C   0  0  0  0  0  0  0  0  0  0  0  0
   41.3970   22.8990   37.2120 C   0  0  0  0  0  0  0  0  0  0  0  0
   38.6590   26.5070   34.7890 C   0  0  0  0  0  0  0  0  0  0  0  0
   38.0670   22.9370   35.1250 C   0  0  0  0  0  0  0  0  0  0  0  0
   37.7770   22.7570   36.4550 C   0  0  0  0  0  0  0  0  0  0  0  0
   37.7740   23.8750   37.2820 C   0  0  0  0  0  0  0  0  0  0  0  0
   38.0610   25.0610   36.7030 N   0  0  0  0  0  0  0  0  0  0  0  0
   38.3510   25.2120   35.3760 C   0  0  0  0  0  0  0  0  0  0  0  0
   38.3440   24.1260   34.6150 N   0  0  0  0  0  0  0  0  0  0  0  0
   37.9150   27.6270   35.5170 C   0  0  0  0  0  0  0  0  0  0  0  0
   38.2310   26.5640   33.3460 C   0  0  0  0  0  0  0  0  0  0  0  0
   40.4264   26.9078   35.9164 H   0  0  0  0  0  0  0  0  0  0  0  0
   40.2797   27.8074   34.3481 H   0  0  0  0  0  0  0  0  0  0  0  0
   40.5784   25.3229   33.3844 H   0  0  0  0  0  0  0  0  0  0  0  0
   43.1913   27.2754   33.7166 H   0  0  0  0  0  0  0  0  0  0  0  0
   45.4895   26.8581   34.5678 H   0  0  0  0  0  0  0  0  0  0  0  0
   45.7888   24.8444   36.0655 H   0  0  0  0  0  0  0  0  0  0  0  0
   43.8543   23.3781   36.6171 H   0  0  0  0  0  0  0  0  0  0  0  0
   41.8963   22.6790   33.9138 H   0  0  0  0  0  0  0  0  0  0  0  0
   40.5909   21.9455   34.8393 H   0  0  0  0  0  0  0  0  0  0  0  0
   42.5524   20.3541   34.6418 H   0  0  0  0  0  0  0  0  0  0  0  0
   43.6278   21.5875   35.3790 H   0  0  0  0  0  0  0  0  0  0  0  0
   40.2692   21.1594   36.6296 H   0  0  0  0  0  0  0  0  0  0  0  0
   41.0921   21.0354   38.2339 H   0  0  0  0  0  0  0  0  0  0  0  0
   42.1856   23.1501   37.9366 H   0  0  0  0  0  0  0  0  0  0  0  0
   40.4600   23.3975   37.5010 H   0  0  0  0  0  0  0  0  0  0  0  0
   38.0691   22.0611   34.4596 H   0  0  0  0  0  0  0  0  0  0  0  0
   37.5534   21.7570   36.8549 H   0  0  0  0  0  0  0  0  0  0  0  0
   37.5488   23.7972   38.3559 H   0  0  0  0  0  0  0  0  0  0  0  0
   38.0098   27.4843   36.6036 H   0  0  0  0  0  0  0  0  0  0  0  0
   38.3481   28.5982   35.2356 H   0  0  0  0  0  0  0  0  0  0  0  0
   36.8519   27.6043   35.2356 H   0  0  0  0  0  0  0  0  0  0  0  0
   37.1419   26.7090   33.2920 H   0  0  0  0  0  0  0  0  0  0  0  0
   38.7378   27.4026   32.8461 H   0  0  0  0  0  0  0  0  0  0  0  0
   38.5007   25.6220   32.8461 H   0  0  0  0  0  0  0  0  0  0  0  0
  2  3  1  0
  2  1  1  0
  3  8  1  0
  4  3  2  0
  4  5  1  0
  5  6  2  0
  6  7  1  0
  8  9  1  0
  8  7  2  0
  9 14  1  0
 10 11  1  0
 10  9  1  0
 11 12  1  0
 12 13  1  0
 13 14  1  0
 15  1  1  0
 15 20  1  0
 15 22  1  0
 16 17  2  0
 17 18  1  0
 19 18  2  0
 20 19  1  0
 21 16  1  0
 21 20  2  0
 23 15  1  0
  1 24  1  0
  1 25  1  0
  2 26  1  0
  4 27  1  0
  5 28  1  0
  6 29  1  0
  7 30  1  0
 10 31  1  0
 10 32  1  0
 11 33  1  0
 11 34  1  0
 13 35  1  0
 13 36  1  0
 14 37  1  0
 14 38  1  0
 16 39  1  0
 17 40  1  0
 18 41  1  0
 22 42  1  0
 22 43  1  0
 22 44  1  0
 23 45  1  0
 23 46  1  0
 23 47  1  0
M  ISO  8  24   8  25   8  27  14  28  14  29  14  30  14  31  13  32  13
M  ISO  8  33  13  34  13  35  13  36  13  37  13  38  13  39  14  40  14
M  ISO  7  41  14  42   8  43   8  44   8  45   8  46   8  47   8
M  END
>  <minimizedAffinity>  (1) 
-4.53820848

>  <minimizedRMSD>  (1) 
1.33071077

$$$$
