
     RDKit          3D

 44 46  0  0  0  0  0  0  0  0999 V2000
   39.4870   26.8860   34.0710 C   0  0  0  0  0  0  0  0  0  0  0  0
   40.5290   26.1710   34.7900 N   0  0  0  0  0  0  0  0  0  0  0  0
   41.8590   26.1870   34.2900 C   0  0  0  0  0  0  0  0  0  0  0  0
   42.3990   27.2830   33.6050 C   0  0  0  0  0  0  0  0  0  0  0  0
   43.6900   27.3550   33.1060 C   0  0  0  0  0  0  0  0  0  0  0  0
   44.4560   26.2240   33.3370 C   0  0  0  0  0  0  0  0  0  0  0  0
   43.9380   25.1120   34.0200 C   0  0  0  0  0  0  0  0  0  0  0  0
   42.6150   25.0720   34.5110 C   0  0  0  0  0  0  0  0  0  0  0  0
   42.5310   23.7480   34.9390 N   0  0  0  0  0  0  0  0  0  0  0  0
   43.3920   23.5130   35.9750 C   0  0  0  0  0  0  0  0  0  0  0  0
   43.3980   22.2820   36.6430 C   0  0  0  0  0  0  0  0  0  0  0  0
   42.5110   21.2820   36.2430 C   0  0  0  0  0  0  0  0  0  0  0  0
   42.4180   20.1420   36.7580 O   0  0  0  0  0  0  0  0  0  0  0  0
   41.7130   21.6100   35.2180 N   0  0  0  0  0  0  0  0  0  0  0  0
   41.6780   22.7980   34.5420 C   0  0  0  0  0  0  0  0  0  0  0  0
   40.9090   23.0450   33.5860 O   0  0  0  0  0  0  0  0  0  0  0  0
   38.1160   26.5900   34.6390 C   0  0  0  0  0  0  0  0  0  0  0  0
   38.0490   23.0850   35.5980 C   0  0  0  0  0  0  0  0  0  0  0  0
   38.0680   23.0920   36.9740 C   0  0  0  0  0  0  0  0  0  0  0  0
   38.1010   24.3360   37.6090 C   0  0  0  0  0  0  0  0  0  0  0  0
   38.1140   25.4400   36.8240 N   0  0  0  0  0  0  0  0  0  0  0  0
   38.0990   25.3870   35.4680 C   0  0  0  0  0  0  0  0  0  0  0  0
   38.0670   24.1990   34.8880 N   0  0  0  0  0  0  0  0  0  0  0  0
   37.7190   27.8180   35.4620 C   0  0  0  0  0  0  0  0  0  0  0  0
   37.1380   26.4910   33.5020 C   0  0  0  0  0  0  0  0  0  0  0  0
   39.5091   26.5817   33.0142 H   0  0  0  0  0  0  0  0  0  0  0  0
   39.6764   27.9648   34.1727 H   0  0  0  0  0  0  0  0  0  0  0  0
   40.3051   25.6574   35.6542 H   0  0  0  0  0  0  0  0  0  0  0  0
   41.7470   28.1554   33.4510 H   0  0  0  0  0  0  0  0  0  0  0  0
   44.0742   28.2362   32.5714 H   0  0  0  0  0  0  0  0  0  0  0  0
   45.4949   26.1965   32.9767 H   0  0  0  0  0  0  0  0  0  0  0  0
   44.5878   24.2387   34.1786 H   0  0  0  0  0  0  0  0  0  0  0  0
   44.0905   24.3028   36.2885 H   0  0  0  0  0  0  0  0  0  0  0  0
   44.0954   22.1052   37.4751 H   0  0  0  0  0  0  0  0  0  0  0  0
   41.0514   20.8857   34.9039 H   0  0  0  0  0  0  0  0  0  0  0  0
   38.0178   22.1196   35.0717 H   0  0  0  0  0  0  0  0  0  0  0  0
   38.0576   22.1555   37.5509 H   0  0  0  0  0  0  0  0  0  0  0  0
   38.1159   24.4161   38.7060 H   0  0  0  0  0  0  0  0  0  0  0  0
   37.7954   27.5816   36.5336 H   0  0  0  0  0  0  0  0  0  0  0  0
   38.3927   28.6537   35.2219 H   0  0  0  0  0  0  0  0  0  0  0  0
   36.6835   28.1012   35.2219 H   0  0  0  0  0  0  0  0  0  0  0  0
   36.1189   26.3878   33.9029 H   0  0  0  0  0  0  0  0  0  0  0  0
   37.1992   27.3999   32.8855 H   0  0  0  0  0  0  0  0  0  0  0  0
   37.3801   25.6128   32.8855 H   0  0  0  0  0  0  0  0  0  0  0  0
  1 17  1  0
  1  2  1  0
  3  8  1  0
  3  2  1  0
  4  3  2  0
  5  6  2  0
  5  4  1  0
  6  7  1  0
  7  8  2  0
  8  9  1  0
  9 10  1  0
 10 11  2  0
 12 11  1  0
 12 13  2  0
 14 12  1  0
 15  9  1  0
 15 14  1  0
 16 15  2  0
 17 24  1  0
 17 22  1  0
 18 19  2  0
 19 20  1  0
 21 20  2  0
 22 21  1  0
 23 22  2  0
 23 18  1  0
 25 17  1  0
  1 26  1  0
  1 27  1  0
  2 28  1  0
  4 29  1  0
  5 30  1  0
  6 31  1  0
  7 32  1  0
 10 33  1  0
 11 34  1  0
 14 35  1  0
 18 36  1  0
 19 37  1  0
 20 38  1  0
 24 39  1  0
 24 40  1  0
 24 41  1  0
 25 42  1  0
 25 43  1  0
 25 44  1  0
M  ISO  8  26   8  27   8  29  14  30  14  31  14  32  14  33  14  34  14
M  ISO  8  35   9  36  14  37  14  38  14  39   8  40   8  41   8  42   8
M  ISO  2  43   8  44   8
M  END
>  <minimizedAffinity>  (1) 
-4.44267273

>  <minimizedRMSD>  (1) 
2.35111594

$$$$
