
     RDKit          3D

 35 36  0  0  0  0  0  0  0  0999 V2000
   38.5400   26.0550   35.0680 C   0  0  0  0  0  0  0  0  0  0  0  0
   37.5700   22.8210   36.4090 C   0  0  0  0  0  0  0  0  0  0  0  0
   37.6340   22.9680   37.7740 C   0  0  0  0  0  0  0  0  0  0  0  0
   38.0170   24.2170   38.2690 C   0  0  0  0  0  0  0  0  0  0  0  0
   38.2980   25.1870   37.3620 N   0  0  0  0  0  0  0  0  0  0  0  0
   38.2250   24.9990   36.0110 C   0  0  0  0  0  0  0  0  0  0  0  0
   37.8600   23.8130   35.5620 N   0  0  0  0  0  0  0  0  0  0  0  0
   38.4400   27.4390   35.7330 C   0  0  0  0  0  0  0  0  0  0  0  0
   37.5980   26.0350   33.8950 C   0  0  0  0  0  0  0  0  0  0  0  0
   39.9550   25.9640   34.5260 C   0  0  0  0  0  0  0  0  0  0  0  0
   40.5200   24.6390   34.7240 N   0  0  0  0  0  0  0  0  0  0  0  0
   41.8240   24.5270   35.2750 C   0  0  0  0  0  0  0  0  0  0  0  0
   42.8660   25.4380   35.0390 C   0  0  0  0  0  0  0  0  0  0  0  0
   44.1270   25.3640   35.5770 C   0  0  0  0  0  0  0  0  0  0  0  0
   44.3370   24.2790   36.4210 C   0  0  0  0  0  0  0  0  0  0  0  0
   43.3230   23.3410   36.6860 C   0  0  0  0  0  0  0  0  0  0  0  0
   42.0480   23.4570   36.1070 C   0  0  0  0  0  0  0  0  0  0  0  0
   41.2800   21.9540   36.6050 S   0  0  0  0  0  0  0  0  0  0  0  0
   37.2677   21.8469   35.9969 H   0  0  0  0  0  0  0  0  0  0  0  0
   37.3930   22.1347   38.4504 H   0  0  0  0  0  0  0  0  0  0  0  0
   38.0880   24.4067   39.3502 H   0  0  0  0  0  0  0  0  0  0  0  0
   38.4485   27.3218   36.8267 H   0  0  0  0  0  0  0  0  0  0  0  0
   39.2958   28.0570   35.4238 H   0  0  0  0  0  0  0  0  0  0  0  0
   37.5042   27.9276   35.4238 H   0  0  0  0  0  0  0  0  0  0  0  0
   36.5601   26.0130   34.2586 H   0  0  0  0  0  0  0  0  0  0  0  0
   37.7535   26.9366   33.2844 H   0  0  0  0  0  0  0  0  0  0  0  0
   37.7917   25.1408   33.2844 H   0  0  0  0  0  0  0  0  0  0  0  0
   40.5843   26.7017   35.0454 H   0  0  0  0  0  0  0  0  0  0  0  0
   39.9230   26.1663   33.4452 H   0  0  0  0  0  0  0  0  0  0  0  0
   39.9842   23.7970   34.4693 H   0  0  0  0  0  0  0  0  0  0  0  0
   42.6542   26.2822   34.3663 H   0  0  0  0  0  0  0  0  0  0  0  0
   44.9098   26.1050   35.3576 H   0  0  0  0  0  0  0  0  0  0  0  0
   45.3219   24.1510   36.8938 H   0  0  0  0  0  0  0  0  0  0  0  0
   43.5327   22.4983   37.3612 H   0  0  0  0  0  0  0  0  0  0  0  0
   41.2470   21.8895   37.9731 H   0  0  0  0  0  0  0  0  0  0  0  0
  1  8  1  0
  1  6  1  0
  2  3  2  0
  3  4  1  0
  5  4  2  0
  6  5  1  0
  7  6  2  0
  7  2  1  0
  9  1  1  0
 10 11  1  0
 10  1  1  0
 11 12  1  0
 12 17  1  0
 13 12  2  0
 13 14  1  0
 14 15  2  0
 15 16  1  0
 17 18  1  0
 17 16  2  0
  2 19  1  0
  3 20  1  0
  4 21  1  0
  8 22  1  0
  8 23  1  0
  8 24  1  0
  9 25  1  0
  9 26  1  0
  9 27  1  0
 10 28  1  0
 10 29  1  0
 11 30  1  0
 13 31  1  0
 14 32  1  0
 15 33  1  0
 16 34  1  0
 18 35  1  0
M  ISO  8  19  14  20  14  21  14  22   8  23   8  24   8  25   8  26   8
M  ISO  8  27   8  28   8  29   8  31  14  32  14  33  14  34  14  35  11
M  END
>  <minimizedAffinity>  (1) 
-4.34143829

>  <minimizedRMSD>  (1) 
0.464932024

$$$$
