
     RDKit          3D

 53 56  0  0  1  0  0  0  0  0999 V2000
   39.0890   26.1110   34.7010 C   0  0  1  0  0  0  0  0  0  0  0  0
   37.9790   22.7280   35.5090 C   0  0  0  0  0  0  0  0  0  0  0  0
   37.5750   22.7930   36.8180 C   0  0  0  0  0  0  0  0  0  0  0  0
   37.6720   24.0170   37.4640 C   0  0  0  0  0  0  0  0  0  0  0  0
   38.1570   25.0470   36.7470 N   0  0  0  0  0  0  0  0  0  0  0  0
   38.5540   24.9810   35.4540 C   0  0  0  0  0  0  0  0  0  0  0  0
   38.4380   23.8010   34.9050 N   0  0  0  0  0  0  0  0  0  0  0  0
   38.3590   27.3970   35.1340 C   0  0  0  0  0  0  0  0  0  0  0  0
   40.5420   26.3540   35.0000 C   0  0  0  0  0  0  0  0  0  0  0  0
   41.3710   25.2050   34.6160 N   0  0  0  0  0  0  0  0  0  0  0  0
   42.6700   25.0970   35.1310 C   0  0  0  0  0  0  0  0  0  0  0  0
   43.7660   25.8790   34.7600 C   0  0  0  0  0  0  0  0  0  0  0  0
   45.0510   25.8440   35.2750 C   0  0  0  0  0  0  0  0  0  0  0  0
   45.2320   24.9040   36.2860 C   0  0  0  0  0  0  0  0  0  0  0  0
   44.1530   24.0940   36.6910 C   0  0  0  0  0  0  0  0  0  0  0  0
   42.8710   24.1880   36.1090 C   0  0  0  0  0  0  0  0  0  0  0  0
   42.1410   23.1090   36.7230 C   0  0  0  0  0  0  0  0  0  0  0  0
   41.0690   22.6710   37.3390 N   0  0  0  0  0  0  0  0  0  0  0  0
   41.1270   21.3970   37.6230 O   0  0  0  0  0  0  0  0  0  0  0  0
   42.2720   20.9200   37.1960 C   0  0  0  0  0  0  0  0  0  0  0  0
   42.9100   21.9570   36.6380 N   0  0  0  0  0  0  0  0  0  0  0  0
   38.8590   25.9050   33.2490 C   0  0  0  0  0  0  0  0  0  0  0  0
   37.8830   26.5800   32.5640 N   0  0  0  0  0  0  0  0  0  0  0  0
   38.2450   27.6560   31.7510 C   0  0  0  0  0  0  0  0  0  0  0  0
   37.6780   27.4650   30.3210 C   0  0  0  0  0  0  0  0  0  0  0  0
   36.2710   27.3240   30.3280 N   0  0  0  0  0  0  0  0  0  0  0  0
   35.7070   26.6580   31.4550 C   0  0  0  0  0  0  0  0  0  0  0  0
   36.7650   25.8220   32.1600 C   0  0  0  0  0  0  0  0  0  0  0  0
   37.9186   21.7749   34.9631 H   0  0  0  0  0  0  0  0  0  0  0  0
   37.1872   21.9047   37.3381 H   0  0  0  0  0  0  0  0  0  0  0  0
   37.3666   24.1396   38.5136 H   0  0  0  0  0  0  0  0  0  0  0  0
   38.3292   27.4496   36.2323 H   0  0  0  0  0  0  0  0  0  0  0  0
   38.8944   28.2731   34.7394 H   0  0  0  0  0  0  0  0  0  0  0  0
   37.3323   27.3864   34.7394 H   0  0  0  0  0  0  0  0  0  0  0  0
   40.8784   27.2398   34.4413 H   0  0  0  0  0  0  0  0  0  0  0  0
   40.6495   26.5096   36.0836 H   0  0  0  0  0  0  0  0  0  0  0  0
   41.0026   24.4870   33.9760 H   0  0  0  0  0  0  0  0  0  0  0  0
   43.5865   26.6129   33.9605 H   0  0  0  0  0  0  0  0  0  0  0  0
   45.8575   26.5008   34.9170 H   0  0  0  0  0  0  0  0  0  0  0  0
   46.2150   24.7941   36.7673 H   0  0  0  0  0  0  0  0  0  0  0  0
   44.3163   23.3589   37.4929 H   0  0  0  0  0  0  0  0  0  0  0  0
   42.6329   19.8842   37.2790 H   0  0  0  0  0  0  0  0  0  0  0  0
   39.8088   26.1473   32.7498 H   0  0  0  0  0  0  0  0  0  0  0  0
   38.4872   24.8702   33.2194 H   0  0  0  0  0  0  0  0  0  0  0  0
   37.8429   28.5859   32.1795 H   0  0  0  0  0  0  0  0  0  0  0  0
   39.3423   27.7097   31.6964 H   0  0  0  0  0  0  0  0  0  0  0  0
   38.1241   26.5619   29.8789 H   0  0  0  0  0  0  0  0  0  0  0  0
   37.9289   28.3593   29.7317 H   0  0  0  0  0  0  0  0  0  0  0  0
   35.8611   28.2679   30.2842 H   0  0  0  0  0  0  0  0  0  0  0  0
   35.3090   27.4060   32.1565 H   0  0  0  0  0  0  0  0  0  0  0  0
   34.8990   25.9956   31.1110 H   0  0  0  0  0  0  0  0  0  0  0  0
   36.3126   25.3615   33.0507 H   0  0  0  0  0  0  0  0  0  0  0  0
   37.1197   25.0659   31.4441 H   0  0  0  0  0  0  0  0  0  0  0  0
  1 22  1  6
  1  9  1  0
  1  8  1  0
  1  6  1  0
  2  3  2  0
  3  4  1  0
  5  4  2  0
  6  5  1  0
  7  6  2  0
  7  2  1  0
 10  9  1  0
 10 11  1  0
 11 16  1  0
 12 11  2  0
 12 13  1  0
 13 14  2  0
 14 15  1  0
 16 15  2  0
 16 17  1  0
 17 18  2  0
 18 19  1  0
 20 19  1  0
 21 17  1  0
 21 20  2  0
 23 22  1  0
 24 23  1  0
 25 26  1  0
 25 24  1  0
 26 27  1  0
 27 28  1  0
 28 23  1  0
  2 29  1  0
  3 30  1  0
  4 31  1  0
  8 32  1  0
  8 33  1  0
  8 34  1  0
  9 35  1  0
  9 36  1  0
 10 37  1  0
 12 38  1  0
 13 39  1  0
 14 40  1  0
 15 41  1  0
 20 42  1  0
 22 43  1  0
 22 44  1  0
 24 45  1  0
 24 46  1  0
 25 47  1  0
 25 48  1  0
 26 49  1  0
 27 50  1  0
 27 51  1  0
 28 52  1  0
 28 53  1  0
M  ISO  8  29  14  30  14  31  14  32   8  33   8  34   8  35   8  36   8
M  ISO  8  38  14  39  14  40  14  41  14  42  14  43   8  44   8  45  13
M  ISO  8  46  13  47  13  48  13  49   5  50  13  51  13  52  13  53  13
M  END
>  <minimizedAffinity>  (1) 
-5.73549414

>  <minimizedRMSD>  (1) 
0.909004688

$$$$
