
     RDKit          3D

 52 55  0  0  1  0  0  0  0  0999 V2000
   39.0740   26.2840   34.7750 C   0  0  1  0  0  0  0  0  0  0  0  0
   38.2550   22.7510   34.6990 C   0  0  0  0  0  0  0  0  0  0  0  0
   37.8630   22.4420   35.9700 C   0  0  0  0  0  0  0  0  0  0  0  0
   37.8690   23.4620   36.9080 C   0  0  0  0  0  0  0  0  0  0  0  0
   38.2660   24.6820   36.4770 N   0  0  0  0  0  0  0  0  0  0  0  0
   38.6540   24.9810   35.2150 C   0  0  0  0  0  0  0  0  0  0  0  0
   38.6230   23.9780   34.3930 N   0  0  0  0  0  0  0  0  0  0  0  0
   38.6180   27.3550   35.8080 C   0  0  0  0  0  0  0  0  0  0  0  0
   40.5970   26.4380   34.7520 C   0  0  0  0  0  0  0  0  0  0  0  0
   41.2620   25.1270   34.7670 N   0  0  0  0  0  0  0  0  0  0  0  0
   42.5970   25.0360   35.2150 C   0  0  0  0  0  0  0  0  0  0  0  0
   43.6560   25.8480   34.8140 C   0  0  0  0  0  0  0  0  0  0  0  0
   44.9680   25.8280   35.2670 C   0  0  0  0  0  0  0  0  0  0  0  0
   45.2060   24.8730   36.2330 C   0  0  0  0  0  0  0  0  0  0  0  0
   44.1710   24.0260   36.6730 C   0  0  0  0  0  0  0  0  0  0  0  0
   42.8590   24.1030   36.1600 C   0  0  0  0  0  0  0  0  0  0  0  0
   42.1840   22.9980   36.7770 C   0  0  0  0  0  0  0  0  0  0  0  0
   41.1510   22.5200   37.4240 N   0  0  0  0  0  0  0  0  0  0  0  0
   41.2610   21.2450   37.6770 O   0  0  0  0  0  0  0  0  0  0  0  0
   42.3970   20.8080   37.1980 C   0  0  0  0  0  0  0  0  0  0  0  0
   42.9810   21.8690   36.6400 N   0  0  0  0  0  0  0  0  0  0  0  0
   38.5600   26.6230   33.4340 C   0  0  0  0  0  0  0  0  0  0  0  0
   37.1240   26.9000   33.2330 C   0  0  0  0  0  0  0  0  0  0  0  0
   36.8440   28.2540   32.7070 C   0  0  0  0  0  0  0  0  0  0  0  0
   35.7410   28.0360   31.6320 C   0  0  0  0  0  0  0  0  0  0  0  0
   36.2330   26.7120   31.0230 C   0  0  0  0  0  0  0  0  0  0  0  0
   36.5300   25.9350   32.2470 C   0  0  0  0  0  0  0  0  0  0  0  0
   38.2635   21.9694   33.9250 H   0  0  0  0  0  0  0  0  0  0  0  0
   37.5539   21.4212   36.2393 H   0  0  0  0  0  0  0  0  0  0  0  0
   37.5661   23.2887   37.9512 H   0  0  0  0  0  0  0  0  0  0  0  0
   38.7802   26.9740   36.8271 H   0  0  0  0  0  0  0  0  0  0  0  0
   39.2021   28.2758   35.6635 H   0  0  0  0  0  0  0  0  0  0  0  0
   37.5494   27.5722   35.6635 H   0  0  0  0  0  0  0  0  0  0  0  0
   40.9135   27.0114   35.6358 H   0  0  0  0  0  0  0  0  0  0  0  0
   40.8811   26.9632   33.8282 H   0  0  0  0  0  0  0  0  0  0  0  0
   40.7591   24.2844   34.4540 H   0  0  0  0  0  0  0  0  0  0  0  0
   43.4236   26.5975   34.0432 H   0  0  0  0  0  0  0  0  0  0  0  0
   45.7449   26.5099   34.8908 H   0  0  0  0  0  0  0  0  0  0  0  0
   46.2132   24.7721   36.6635 H   0  0  0  0  0  0  0  0  0  0  0  0
   44.3937   23.2758   37.4460 H   0  0  0  0  0  0  0  0  0  0  0  0
   42.7883   19.7811   37.2455 H   0  0  0  0  0  0  0  0  0  0  0  0
   39.1038   27.5208   33.1051 H   0  0  0  0  0  0  0  0  0  0  0  0
   38.7160   25.6942   32.8657 H   0  0  0  0  0  0  0  0  0  0  0  0
   36.6802   26.8025   34.2348 H   0  0  0  0  0  0  0  0  0  0  0  0
   36.4806   28.9145   33.5081 H   0  0  0  0  0  0  0  0  0  0  0  0
   37.7422   28.7347   32.2921 H   0  0  0  0  0  0  0  0  0  0  0  0
   34.7432   27.9335   32.0836 H   0  0  0  0  0  0  0  0  0  0  0  0
   35.6173   28.8618   30.9159 H   0  0  0  0  0  0  0  0  0  0  0  0
   35.4512   26.2300   30.4177 H   0  0  0  0  0  0  0  0  0  0  0  0
   37.0836   26.8170   30.3335 H   0  0  0  0  0  0  0  0  0  0  0  0
   35.6058   25.4980   32.6530 H   0  0  0  0  0  0  0  0  0  0  0  0
   37.2232   25.1079   32.0339 H   0  0  0  0  0  0  0  0  0  0  0  0
  1 22  1  6
  1  6  1  0
  1  8  1  0
  2  3  2  0
  3  4  1  0
  5  4  2  0
  6  5  1  0
  7  2  1  0
  7  6  2  0
  9 10  1  0
  9  1  1  0
 10 11  1  0
 11 16  1  0
 12 11  2  0
 12 13  1  0
 13 14  2  0
 14 15  1  0
 16 15  2  0
 16 17  1  0
 17 18  2  0
 18 19  1  0
 20 19  1  0
 21 17  1  0
 21 20  2  0
 23 22  1  0
 24 23  1  0
 25 24  1  0
 26 25  1  0
 26 27  1  0
 27 23  1  0
  2 28  1  0
  3 29  1  0
  4 30  1  0
  8 31  1  0
  8 32  1  0
  8 33  1  0
  9 34  1  0
  9 35  1  0
 10 36  1  0
 12 37  1  0
 13 38  1  0
 14 39  1  0
 15 40  1  0
 20 41  1  0
 22 42  1  0
 22 43  1  0
 23 44  1  0
 24 45  1  0
 24 46  1  0
 25 47  1  0
 25 48  1  0
 26 49  1  0
 26 50  1  0
 27 51  1  0
 27 52  1  0
M  ISO  8  28  14  29  14  30  14  31   8  32   8  33   8  34   8  35   8
M  ISO  8  37  14  38  14  39  14  40  14  41  14  42   8  43   8  44  13
M  ISO  8  45  13  46  13  47  13  48  13  49  13  50  13  51  13  52  13
M  END
>  <minimizedAffinity>  (1) 
-5.65073299

>  <minimizedRMSD>  (1) 
1.0702529

$$$$
