
     RDKit          3D

 49 52  0  0  1  0  0  0  0  0999 V2000
   38.6660   26.3260   34.9440 C   0  0  1  0  0  0  0  0  0  0  0  0
   37.8660   22.8390   35.4700 C   0  0  0  0  0  0  0  0  0  0  0  0
   37.6540   22.7250   36.8290 C   0  0  0  0  0  0  0  0  0  0  0  0
   37.7820   23.8790   37.6210 C   0  0  0  0  0  0  0  0  0  0  0  0
   38.1070   25.0200   36.9690 N   0  0  0  0  0  0  0  0  0  0  0  0
   38.3120   25.1260   35.6470 C   0  0  0  0  0  0  0  0  0  0  0  0
   38.1740   24.0190   34.9890 N   0  0  0  0  0  0  0  0  0  0  0  0
   38.4090   27.5540   35.8920 C   0  0  0  0  0  0  0  0  0  0  0  0
   40.1600   26.4280   34.6450 C   0  0  0  0  0  0  0  0  0  0  0  0
   40.8030   25.1210   34.8560 N   0  0  0  0  0  0  0  0  0  0  0  0
   42.1840   25.0760   35.1090 C   0  0  0  0  0  0  0  0  0  0  0  0
   43.1560   25.9170   34.5710 C   0  0  0  0  0  0  0  0  0  0  0  0
   44.5180   25.9380   34.8420 C   0  0  0  0  0  0  0  0  0  0  0  0
   44.9160   24.9940   35.7650 C   0  0  0  0  0  0  0  0  0  0  0  0
   43.9790   24.1150   36.3410 C   0  0  0  0  0  0  0  0  0  0  0  0
   42.6030   24.1530   36.0080 C   0  0  0  0  0  0  0  0  0  0  0  0
   42.0530   23.0250   36.7050 C   0  0  0  0  0  0  0  0  0  0  0  0
   41.0990   22.4930   37.4280 N   0  0  0  0  0  0  0  0  0  0  0  0
   41.3240   21.2390   37.7160 O   0  0  0  0  0  0  0  0  0  0  0  0
   42.4570   20.8750   37.1870 C   0  0  0  0  0  0  0  0  0  0  0  0
   42.9260   21.9550   36.5590 N   0  0  0  0  0  0  0  0  0  0  0  0
   37.9050   26.5680   33.7240 C   0  0  0  0  0  0  0  0  0  0  0  0
   37.9720   25.6990   32.5680 C   0  0  0  0  0  0  0  0  0  0  0  0
   38.9880   25.2950   31.7310 C   0  0  0  0  0  0  0  0  0  0  0  0
   38.8820   24.4530   30.6740 C   0  0  0  0  0  0  0  0  0  0  0  0
   37.6700   23.9210   30.3610 C   0  0  0  0  0  0  0  0  0  0  0  0
   36.5720   24.2510   31.1280 C   0  0  0  0  0  0  0  0  0  0  0  0
   36.7440   25.1140   32.1900 C   0  0  0  0  0  0  0  0  0  0  0  0
   37.7790   21.9641   34.8089 H   0  0  0  0  0  0  0  0  0  0  0  0
   37.3918   21.7567   37.2803 H   0  0  0  0  0  0  0  0  0  0  0  0
   37.6268   23.8563   38.7098 H   0  0  0  0  0  0  0  0  0  0  0  0
   38.4771   27.2284   36.9405 H   0  0  0  0  0  0  0  0  0  0  0  0
   39.1641   28.3303   35.6993 H   0  0  0  0  0  0  0  0  0  0  0  0
   37.4059   27.9623   35.6993 H   0  0  0  0  0  0  0  0  0  0  0  0
   40.6162   27.1715   35.3151 H   0  0  0  0  0  0  0  0  0  0  0  0
   40.2999   26.7359   33.5983 H   0  0  0  0  0  0  0  0  0  0  0  0
   40.2493   24.2533   34.8187 H   0  0  0  0  0  0  0  0  0  0  0  0
   42.7998   26.6574   33.8396 H   0  0  0  0  0  0  0  0  0  0  0  0
   45.2148   26.6426   34.3645 H   0  0  0  0  0  0  0  0  0  0  0  0
   45.9753   24.9271   36.0539 H   0  0  0  0  0  0  0  0  0  0  0  0
   44.3276   23.3734   37.0748 H   0  0  0  0  0  0  0  0  0  0  0  0
   42.9293   19.8833   37.2457 H   0  0  0  0  0  0  0  0  0  0  0  0
   36.8474   26.5901   34.0258 H   0  0  0  0  0  0  0  0  0  0  0  0
   38.3859   27.4805   33.3418 H   0  0  0  0  0  0  0  0  0  0  0  0
   39.9898   25.6974   31.9420 H   0  0  0  0  0  0  0  0  0  0  0  0
   39.7692   24.2020   30.0741 H   0  0  0  0  0  0  0  0  0  0  0  0
   37.5666   23.2359   29.5066 H   0  0  0  0  0  0  0  0  0  0  0  0
   35.5803   23.8347   30.8975 H   0  0  0  0  0  0  0  0  0  0  0  0
   35.8561   25.3658   32.7885 H   0  0  0  0  0  0  0  0  0  0  0  0
  1 22  1  6
  1  6  1  0
  1  8  1  0
  2  3  2  0
  3  4  1  0
  5  4  2  0
  6  5  1  0
  7  2  1  0
  7  6  2  0
  9 10  1  0
  9  1  1  0
 10 11  1  0
 11 16  2  0
 12 13  2  0
 12 11  1  0
 13 14  1  0
 14 15  2  0
 16 15  1  0
 16 17  1  0
 17 18  2  0
 18 19  1  0
 20 19  1  0
 21 17  1  0
 21 20  2  0
 23 22  1  0
 24 23  2  0
 25 24  1  0
 26 25  2  0
 26 27  1  0
 27 28  2  0
 28 23  1  0
  2 29  1  0
  3 30  1  0
  4 31  1  0
  8 32  1  0
  8 33  1  0
  8 34  1  0
  9 35  1  0
  9 36  1  0
 10 37  1  0
 12 38  1  0
 13 39  1  0
 14 40  1  0
 15 41  1  0
 20 42  1  0
 22 43  1  0
 22 44  1  0
 24 45  1  0
 25 46  1  0
 26 47  1  0
 27 48  1  0
 28 49  1  0
M  ISO  8  29  14  30  14  31  14  32   8  33   8  34   8  35   8  36   8
M  ISO  8  38  14  39  14  40  14  41  14  42  14  43   8  44   8  45  14
M  ISO  4  46  14  47  14  48  14  49  14
M  END
>  <minimizedAffinity>  (1) 
-5.52106237

>  <minimizedRMSD>  (1) 
0.787644327

$$$$
