
     RDKit          3D

 48 51  0  0  1  0  0  0  0  0999 V2000
   38.4320   26.1880   35.0470 C   0  0  1  0  0  0  0  0  0  0  0  0
   37.6710   22.8790   36.3270 C   0  0  0  0  0  0  0  0  0  0  0  0
   37.6990   23.0080   37.6900 C   0  0  0  0  0  0  0  0  0  0  0  0
   37.9860   24.2770   38.2270 C   0  0  0  0  0  0  0  0  0  0  0  0
   38.2110   25.2710   37.3370 N   0  0  0  0  0  0  0  0  0  0  0  0
   38.1800   25.1240   35.9920 C   0  0  0  0  0  0  0  0  0  0  0  0
   37.9060   23.9120   35.5500 N   0  0  0  0  0  0  0  0  0  0  0  0
   38.3600   27.5560   35.7900 C   0  0  0  0  0  0  0  0  0  0  0  0
   39.8250   26.1530   34.4530 C   0  0  0  0  0  0  0  0  0  0  0  0
   40.5340   24.9410   34.8860 N   0  0  0  0  0  0  0  0  0  0  0  0
   41.9210   24.9880   35.0900 C   0  0  0  0  0  0  0  0  0  0  0  0
   42.8110   25.8870   34.5070 C   0  0  0  0  0  0  0  0  0  0  0  0
   44.1740   26.0030   34.7190 C   0  0  0  0  0  0  0  0  0  0  0  0
   44.6730   25.0950   35.6330 C   0  0  0  0  0  0  0  0  0  0  0  0
   43.8210   24.1630   36.2520 C   0  0  0  0  0  0  0  0  0  0  0  0
   42.4360   24.1050   35.9770 C   0  0  0  0  0  0  0  0  0  0  0  0
   41.9890   22.9490   36.6990 C   0  0  0  0  0  0  0  0  0  0  0  0
   41.1110   22.3710   37.4790 N   0  0  0  0  0  0  0  0  0  0  0  0
   41.4080   21.1290   37.7530 O   0  0  0  0  0  0  0  0  0  0  0  0
   42.5300   20.8220   37.1460 C   0  0  0  0  0  0  0  0  0  0  0  0
   42.9040   21.9250   36.4930 N   0  0  0  0  0  0  0  0  0  0  0  0
   37.4410   26.2390   33.9640 C   0  0  0  0  0  0  0  0  0  0  0  0
   37.6170   25.4150   32.7820 C   0  0  0  0  0  0  0  0  0  0  0  0
   36.4510   25.0630   32.0830 C   0  0  0  0  0  0  0  0  0  0  0  0
   36.4770   24.2580   30.9630 C   0  0  0  0  0  0  0  0  0  0  0  0
   37.6630   23.7650   30.4840 C   0  0  0  0  0  0  0  0  0  0  0  0
   38.8000   24.1210   31.1820 C   0  0  0  0  0  0  0  0  0  0  0  0
   38.7480   24.9020   32.2660 N   0  0  0  0  0  0  0  0  0  0  0  0
   37.4493   21.8997   35.8777 H   0  0  0  0  0  0  0  0  0  0  0  0
   37.5032   22.1463   38.3451 H   0  0  0  0  0  0  0  0  0  0  0  0
   38.0253   24.4514   39.3124 H   0  0  0  0  0  0  0  0  0  0  0  0
   38.3690   27.3841   36.8764 H   0  0  0  0  0  0  0  0  0  0  0  0
   39.2270   28.1720   35.5090 H   0  0  0  0  0  0  0  0  0  0  0  0
   37.4332   28.0775   35.5090 H   0  0  0  0  0  0  0  0  0  0  0  0
   40.3843   27.0394   34.7870 H   0  0  0  0  0  0  0  0  0  0  0  0
   39.7460   26.1485   33.3558 H   0  0  0  0  0  0  0  0  0  0  0  0
   40.0165   24.0636   35.0386 H   0  0  0  0  0  0  0  0  0  0  0  0
   42.3753   26.5948   33.7865 H   0  0  0  0  0  0  0  0  0  0  0  0
   44.8010   26.7482   34.2077 H   0  0  0  0  0  0  0  0  0  0  0  0
   45.7452   25.1011   35.8785 H   0  0  0  0  0  0  0  0  0  0  0  0
   44.2479   23.4537   36.9763 H   0  0  0  0  0  0  0  0  0  0  0  0
   43.0544   19.8553   37.1701 H   0  0  0  0  0  0  0  0  0  0  0  0
   36.4731   25.9592   34.4054 H   0  0  0  0  0  0  0  0  0  0  0  0
   37.5415   27.2635   33.5763 H   0  0  0  0  0  0  0  0  0  0  0  0
   35.4827   25.4426   32.4412 H   0  0  0  0  0  0  0  0  0  0  0  0
   35.5367   24.0093   30.4492 H   0  0  0  0  0  0  0  0  0  0  0  0
   37.7065   23.1215   29.5930 H   0  0  0  0  0  0  0  0  0  0  0  0
   39.7767   23.7514   30.8363 H   0  0  0  0  0  0  0  0  0  0  0  0
  1 22  1  6
  1  8  1  0
  1  6  1  0
  2  3  2  0
  3  4  1  0
  5  4  2  0
  6  5  1  0
  7  6  2  0
  7  2  1  0
  9 10  1  0
  9  1  1  0
 10 11  1  0
 11 16  2  0
 12 13  2  0
 12 11  1  0
 13 14  1  0
 14 15  2  0
 16 15  1  0
 16 17  1  0
 17 18  2  0
 18 19  1  0
 20 19  1  0
 21 17  1  0
 21 20  2  0
 23 22  1  0
 24 23  2  0
 25 24  1  0
 26 25  2  0
 26 27  1  0
 27 28  2  0
 28 23  1  0
  2 29  1  0
  3 30  1  0
  4 31  1  0
  8 32  1  0
  8 33  1  0
  8 34  1  0
  9 35  1  0
  9 36  1  0
 10 37  1  0
 12 38  1  0
 13 39  1  0
 14 40  1  0
 15 41  1  0
 20 42  1  0
 22 43  1  0
 22 44  1  0
 24 45  1  0
 25 46  1  0
 26 47  1  0
 27 48  1  0
M  ISO  8  29  14  30  14  31  14  32   8  33   8  34   8  35   8  36   8
M  ISO  8  38  14  39  14  40  14  41  14  42  14  43   8  44   8  45  14
M  ISO  3  46  14  47  14  48  14
M  END
>  <minimizedAffinity>  (1) 
-5.50020456

>  <minimizedRMSD>  (1) 
0.887108386

$$$$
