
     RDKit          3D

 46 49  0  0  1  0  0  0  0  0999 V2000
   38.7950   26.1630   34.7060 C   0  0  1  0  0  0  0  0  0  0  0  0
   37.9170   22.6750   35.1130 C   0  0  0  0  0  0  0  0  0  0  0  0
   37.6100   22.5400   36.4480 C   0  0  0  0  0  0  0  0  0  0  0  0
   37.6960   23.6780   37.2610 C   0  0  0  0  0  0  0  0  0  0  0  0
   38.0780   24.8220   36.6500 N   0  0  0  0  0  0  0  0  0  0  0  0
   38.3760   24.9450   35.3450 C   0  0  0  0  0  0  0  0  0  0  0  0
   38.2750   23.8530   34.6550 N   0  0  0  0  0  0  0  0  0  0  0  0
   38.7660   27.3240   35.7530 C   0  0  0  0  0  0  0  0  0  0  0  0
   40.2480   26.1450   34.2380 C   0  0  0  0  0  0  0  0  0  0  0  0
   40.9090   24.9070   34.6790 N   0  0  0  0  0  0  0  0  0  0  0  0
   42.2470   24.9580   35.1020 C   0  0  0  0  0  0  0  0  0  0  0  0
   43.2250   25.8440   34.6480 C   0  0  0  0  0  0  0  0  0  0  0  0
   44.5400   25.9630   35.0760 C   0  0  0  0  0  0  0  0  0  0  0  0
   44.8820   25.0760   36.0790 C   0  0  0  0  0  0  0  0  0  0  0  0
   43.9340   24.1610   36.5710 C   0  0  0  0  0  0  0  0  0  0  0  0
   42.6130   24.0950   36.0800 C   0  0  0  0  0  0  0  0  0  0  0  0
   42.0520   22.9550   36.7490 C   0  0  0  0  0  0  0  0  0  0  0  0
   41.0790   22.4100   37.4350 N   0  0  0  0  0  0  0  0  0  0  0  0
   41.3130   21.1560   37.7200 O   0  0  0  0  0  0  0  0  0  0  0  0
   42.4650   20.8080   37.2320 C   0  0  0  0  0  0  0  0  0  0  0  0
   42.9420   21.8970   36.6280 N   0  0  0  0  0  0  0  0  0  0  0  0
   37.9400   26.5640   33.5850 C   0  0  0  0  0  0  0  0  0  0  0  0
   37.5830   25.6460   32.5400 C   0  0  0  0  0  0  0  0  0  0  0  0
   36.4880   24.9850   32.0880 C   0  0  0  0  0  0  0  0  0  0  0  0
   36.5400   24.1850   31.0180 C   0  0  0  0  0  0  0  0  0  0  0  0
   37.8050   24.0540   30.3630 C   0  0  0  0  0  0  0  0  0  0  0  0
   38.8990   25.1290   31.3560 S   0  0  0  0  0  0  0  0  0  0  0  0
   37.8633   21.8078   34.4385 H   0  0  0  0  0  0  0  0  0  0  0  0
   37.3063   21.5681   36.8641 H   0  0  0  0  0  0  0  0  0  0  0  0
   37.4656   23.6426   38.3360 H   0  0  0  0  0  0  0  0  0  0  0  0
   38.7765   26.9020   36.7688 H   0  0  0  0  0  0  0  0  0  0  0  0
   39.6484   27.9658   35.6134 H   0  0  0  0  0  0  0  0  0  0  0  0
   37.8527   27.9209   35.6134 H   0  0  0  0  0  0  0  0  0  0  0  0
   40.7773   27.0106   34.6630 H   0  0  0  0  0  0  0  0  0  0  0  0
   40.2716   26.1924   33.1393 H   0  0  0  0  0  0  0  0  0  0  0  0
   40.3965   24.0135   34.6775 H   0  0  0  0  0  0  0  0  0  0  0  0
   42.9146   26.5351   33.8505 H   0  0  0  0  0  0  0  0  0  0  0  0
   45.2447   26.6956   34.6557 H   0  0  0  0  0  0  0  0  0  0  0  0
   45.9005   25.0857   36.4945 H   0  0  0  0  0  0  0  0  0  0  0  0
   44.2347   23.4687   37.3712 H   0  0  0  0  0  0  0  0  0  0  0  0
   42.9465   19.8215   37.3022 H   0  0  0  0  0  0  0  0  0  0  0  0
   36.9946   26.9122   34.0266 H   0  0  0  0  0  0  0  0  0  0  0  0
   38.5762   27.2869   33.0533 H   0  0  0  0  0  0  0  0  0  0  0  0
   35.5313   25.1106   32.6162 H   0  0  0  0  0  0  0  0  0  0  0  0
   35.6488   23.6508   30.6570 H   0  0  0  0  0  0  0  0  0  0  0  0
   38.0576   23.4526   29.4773 H   0  0  0  0  0  0  0  0  0  0  0  0
  1 22  1  6
  1  6  1  0
  1  8  1  0
  2  3  2  0
  3  4  1  0
  5  4  2  0
  6  5  1  0
  7  2  1  0
  7  6  2  0
  9 10  1  0
  9  1  1  0
 10 11  1  0
 11 16  2  0
 12 13  2  0
 12 11  1  0
 13 14  1  0
 14 15  2  0
 16 15  1  0
 16 17  1  0
 17 18  2  0
 18 19  1  0
 20 19  1  0
 21 17  1  0
 21 20  2  0
 23 22  1  0
 24 23  2  0
 25 24  1  0
 26 25  2  0
 26 27  1  0
 27 23  1  0
  2 28  1  0
  3 29  1  0
  4 30  1  0
  8 31  1  0
  8 32  1  0
  8 33  1  0
  9 34  1  0
  9 35  1  0
 10 36  1  0
 12 37  1  0
 13 38  1  0
 14 39  1  0
 15 40  1  0
 20 41  1  0
 22 42  1  0
 22 43  1  0
 24 44  1  0
 25 45  1  0
 26 46  1  0
M  ISO  8  28  14  29  14  30  14  31   8  32   8  33   8  34   8  35   8
M  ISO  8  37  14  38  14  39  14  40  14  41  14  42   8  43   8  44  14
M  ISO  2  45  14  46  14
M  END
>  <minimizedAffinity>  (1) 
-5.384233

>  <minimizedRMSD>  (1) 
1.10577762

$$$$
