
     RDKit          3D

 46 49  0  0  1  0  0  0  0  0999 V2000
   40.4370   26.4860   34.7960 C   0  0  0  0  0  0  0  0  0  0  0  0
   41.0860   25.1720   34.8080 N   0  0  0  0  0  0  0  0  0  0  0  0
   42.4360   25.0760   35.1790 C   0  0  0  0  0  0  0  0  0  0  0  0
   43.4700   25.8890   34.7130 C   0  0  0  0  0  0  0  0  0  0  0  0
   44.8140   25.8570   35.0920 C   0  0  0  0  0  0  0  0  0  0  0  0
   45.1100   24.8970   36.0390 C   0  0  0  0  0  0  0  0  0  0  0  0
   44.0990   24.0570   36.5330 C   0  0  0  0  0  0  0  0  0  0  0  0
   42.7580   24.1400   36.1020 C   0  0  0  0  0  0  0  0  0  0  0  0
   42.1210   23.0280   36.7470 C   0  0  0  0  0  0  0  0  0  0  0  0
   41.1070   22.5340   37.4140 N   0  0  0  0  0  0  0  0  0  0  0  0
   41.2550   21.2670   37.6840 O   0  0  0  0  0  0  0  0  0  0  0  0
   42.3930   20.8500   37.2000 C   0  0  0  0  0  0  0  0  0  0  0  0
   42.9420   21.9170   36.6180 N   0  0  0  0  0  0  0  0  0  0  0  0
   38.9200   26.3520   34.8930 C   0  0  1  0  0  0  0  0  0  0  0  0
   38.0320   22.8470   34.7450 C   0  0  0  0  0  0  0  0  0  0  0  0
   37.7280   22.5000   36.0280 C   0  0  0  0  0  0  0  0  0  0  0  0
   37.8210   23.4800   37.0030 C   0  0  0  0  0  0  0  0  0  0  0  0
   38.2080   24.7100   36.5890 N   0  0  0  0  0  0  0  0  0  0  0  0
   38.5060   25.0480   35.3250 C   0  0  0  0  0  0  0  0  0  0  0  0
   38.3960   24.0790   34.4730 N   0  0  0  0  0  0  0  0  0  0  0  0
   38.5280   27.3990   35.9800 C   0  0  0  0  0  0  0  0  0  0  0  0
   38.3250   26.7780   33.6260 C   0  0  0  0  0  0  0  0  0  0  0  0
   39.1520   27.1710   32.4730 C   0  0  0  0  0  0  0  0  0  0  0  0
   38.9460   26.2010   31.2630 C   0  0  0  0  0  0  0  0  0  0  0  0
   38.6000   27.6360   31.1810 C   0  0  0  0  0  0  0  0  0  0  0  0
   40.8009   27.0739   35.6515 H   0  0  0  0  0  0  0  0  0  0  0  0
   40.6829   26.9878   33.8485 H   0  0  0  0  0  0  0  0  0  0  0  0
   40.5568   24.3278   34.5469 H   0  0  0  0  0  0  0  0  0  0  0  0
   43.1948   26.6422   33.9601 H   0  0  0  0  0  0  0  0  0  0  0  0
   45.5702   26.5370   34.6727 H   0  0  0  0  0  0  0  0  0  0  0  0
   46.1408   24.7898   36.4076 H   0  0  0  0  0  0  0  0  0  0  0  0
   44.3637   23.3022   37.2881 H   0  0  0  0  0  0  0  0  0  0  0  0
   42.8107   19.8341   37.2595 H   0  0  0  0  0  0  0  0  0  0  0  0
   37.9726   22.0983   33.9413 H   0  0  0  0  0  0  0  0  0  0  0  0
   37.4189   21.4751   36.2809 H   0  0  0  0  0  0  0  0  0  0  0  0
   37.5924   23.2699   38.0583 H   0  0  0  0  0  0  0  0  0  0  0  0
   38.6893   26.9681   36.9792 H   0  0  0  0  0  0  0  0  0  0  0  0
   39.1502   28.2987   35.8638 H   0  0  0  0  0  0  0  0  0  0  0  0
   37.4680   27.6688   35.8638 H   0  0  0  0  0  0  0  0  0  0  0  0
   37.6957   25.9430   33.2843 H   0  0  0  0  0  0  0  0  0  0  0  0
   37.8444   27.7281   33.9023 H   0  0  0  0  0  0  0  0  0  0  0  0
   39.9409   27.5948   33.1118 H   0  0  0  0  0  0  0  0  0  0  0  0
   39.8136   25.8069   30.7135 H   0  0  0  0  0  0  0  0  0  0  0  0
   38.4171   25.2513   31.0947 H   0  0  0  0  0  0  0  0  0  0  0  0
   39.2033   28.3004   30.5450 H   0  0  0  0  0  0  0  0  0  0  0  0
   37.6830   28.1763   30.9030 H   0  0  0  0  0  0  0  0  0  0  0  0
  1  2  1  0
 14  1  1  6
  2  3  1  0
  3  8  2  0
  4  5  2  0
  4  3  1  0
  5  6  1  0
  6  7  2  0
  8  7  1  0
  8  9  1  0
  9 10  2  0
 10 11  1  0
 12 11  1  0
 13  9  1  0
 13 12  2  0
 14 22  1  0
 14 19  1  0
 14 21  1  0
 15 16  2  0
 16 17  1  0
 18 17  2  0
 19 18  1  0
 20 15  1  0
 20 19  2  0
 23 22  1  0
 24 23  1  0
 25 24  1  0
 25 23  1  0
  1 26  1  0
  1 27  1  0
  2 28  1  0
  4 29  1  0
  5 30  1  0
  6 31  1  0
  7 32  1  0
 12 33  1  0
 15 34  1  0
 16 35  1  0
 17 36  1  0
 21 37  1  0
 21 38  1  0
 21 39  1  0
 22 40  1  0
 22 41  1  0
 23 42  1  0
 24 43  1  0
 24 44  1  0
 25 45  1  0
 25 46  1  0
M  ISO  8  26   8  27   8  29  14  30  14  31  14  32  14  33  14  34  14
M  ISO  8  35  14  36  14  37   8  38   8  39   8  40   8  41   8  42  13
M  ISO  4  43  13  44  13  45  13  46  13
M  END
>  <minimizedAffinity>  (1) 
-5.14983892

>  <minimizedRMSD>  (1) 
1.31324255

$$$$
