
     RDKit          3D

 26 27  0  0  0  0  0  0  0  0999 V2000
   38.7060   24.7260   34.4090 C   0  0  0  0  0  0  0  0  0  0  0  0
   38.4890   25.8980   34.0620 O   0  0  0  0  0  0  0  0  0  0  0  0
   37.9060   24.0050   38.0130 C   0  0  0  0  0  0  0  0  0  0  0  0
   37.7730   24.5530   36.7410 C   0  0  0  0  0  0  0  0  0  0  0  0
   38.7120   24.2360   35.7760 C   0  0  0  0  0  0  0  0  0  0  0  0
   39.7380   23.3940   36.1170 N   0  0  0  0  0  0  0  0  0  0  0  0
   39.8490   22.8710   37.3590 C   0  0  0  0  0  0  0  0  0  0  0  0
   38.9380   23.1710   38.3140 N   0  0  0  0  0  0  0  0  0  0  0  0
   38.9620   23.8510   33.3460 O   0  0  0  0  0  0  0  0  0  0  0  0
   36.4090   20.7070   32.3170 C   0  0  0  0  0  0  0  0  0  0  0  0
   36.0200   22.0220   32.2410 C   0  0  0  0  0  0  0  0  0  0  0  0
   36.8920   23.0510   32.5910 C   0  0  0  0  0  0  0  0  0  0  0  0
   38.1810   22.7710   33.0260 C   0  0  0  0  0  0  0  0  0  0  0  0
   38.5960   21.4430   33.1110 C   0  0  0  0  0  0  0  0  0  0  0  0
   37.6880   20.4630   32.7510 C   0  0  0  0  0  0  0  0  0  0  0  0
   35.2920   19.4600   31.8720 S   0  0  0  0  0  0  0  0  0  0  0  0
   33.9040   20.0480   31.8990 O   0  0  0  0  0  0  0  0  0  0  0  0
   35.3120   18.3570   32.8910 O   0  0  0  0  0  0  0  0  0  0  0  0
   37.1647   24.2500   38.7879 H   0  0  0  0  0  0  0  0  0  0  0  0
   36.9356   25.2267   36.5068 H   0  0  0  0  0  0  0  0  0  0  0  0
   40.6856   22.1969   37.5949 H   0  0  0  0  0  0  0  0  0  0  0  0
   35.0038   22.2668   31.8984 H   0  0  0  0  0  0  0  0  0  0  0  0
   36.5559   24.0961   32.5221 H   0  0  0  0  0  0  0  0  0  0  0  0
   39.6091   21.1834   33.4521 H   0  0  0  0  0  0  0  0  0  0  0  0
   38.0142   19.4146   32.8173 H   0  0  0  0  0  0  0  0  0  0  0  0
   35.6320   18.9737   30.6372 H   0  0  0  0  0  0  0  0  0  0  0  0
  1  5  1  0
  2  1  2  0
  3  8  2  0
  4  3  1  0
  5  6  1  0
  5  4  2  0
  6  7  2  0
  7  8  1  0
  9  1  1  0
 10 15  2  0
 11 10  1  0
 11 12  2  0
 12 13  1  0
 13 14  2  0
 13  9  1  0
 15 14  1  0
 16 17  2  0
 16 10  1  0
 16 18  2  0
  3 19  1  0
  4 20  1  0
  7 21  1  0
 11 22  1  0
 12 23  1  0
 14 24  1  0
 15 25  1  0
 16 26  1  0
M  ISO  8  19  14  20  14  21  14  22  14  23  14  24  14  25  14  26  11
M  END
>  <minimizedAffinity>  (1) 
-4.07866716

>  <minimizedRMSD>  (1) 
7.43723631

$$$$
