
     RDKit          3D

 17 17  0  0  0  0  0  0  0  0999 V2000
   40.8450   21.9020   37.3930 C   0  0  0  0  0  0  0  0  0  0  0  0
   39.8750   22.8630   37.6540 C   0  0  0  0  0  0  0  0  0  0  0  0
   39.3700   23.6190   36.6090 C   0  0  0  0  0  0  0  0  0  0  0  0
   39.8530   23.3800   35.3500 N   0  0  0  0  0  0  0  0  0  0  0  0
   40.7990   22.4390   35.1220 C   0  0  0  0  0  0  0  0  0  0  0  0
   41.2980   21.6980   36.1270 N   0  0  0  0  0  0  0  0  0  0  0  0
   38.3510   24.6590   36.7350 C   0  0  0  0  0  0  0  0  0  0  0  0
   37.8500   25.0300   37.8070 O   0  0  0  0  0  0  0  0  0  0  0  0
   37.8790   25.3080   35.5860 O   0  0  0  0  0  0  0  0  0  0  0  0
   37.7250   26.6890   35.5160 C   0  0  0  0  0  0  0  0  0  0  0  0
   38.7310   27.4480   36.2150 N   0  0  0  0  0  0  0  0  0  0  0  0
   36.7540   27.1710   34.8700 O   0  0  0  0  0  0  0  0  0  0  0  0
   41.2506   21.3000   38.2195 H   0  0  0  0  0  0  0  0  0  0  0  0
   39.5121   23.0215   38.6803 H   0  0  0  0  0  0  0  0  0  0  0  0
   41.1656   22.2778   34.0975 H   0  0  0  0  0  0  0  0  0  0  0  0
   38.6926   28.4773   36.2144 H   0  0  0  0  0  0  0  0  0  0  0  0
   39.4885   26.9612   36.7152 H   0  0  0  0  0  0  0  0  0  0  0  0
  1  2  2  0
  3  7  1  0
  3  2  1  0
  4  3  2  0
  5  4  1  0
  5  6  2  0
  6  1  1  0
  7  8  2  0
  9  7  1  0
 10  9  1  0
 10 11  1  0
 12 10  2  0
  1 13  1  0
  2 14  1  0
  5 15  1  0
 11 16  1  0
 11 17  1  0
M  ISO  3  13  14  14  14  15  14
M  END
>  <minimizedAffinity>  (1) 
-3.45340896

>  <minimizedRMSD>  (1) 
3.6140914

$$$$
