
     RDKit          3D

 16 16  0  0  0  0  0  0  0  0999 V2000
   38.0930   24.1840   36.0180 C   0  0  0  0  0  0  0  0  0  0  0  0
   39.3910   23.6780   35.9140 C   0  0  0  0  0  0  0  0  0  0  0  0
   39.9760   23.1000   37.0480 C   0  0  0  0  0  0  0  0  0  0  0  0
   39.2370   23.0660   38.1880 N   0  0  0  0  0  0  0  0  0  0  0  0
   37.9890   23.5590   38.2640 C   0  0  0  0  0  0  0  0  0  0  0  0
   37.4100   24.1240   37.1700 N   0  0  0  0  0  0  0  0  0  0  0  0
   41.3200   22.5310   37.0900 C   0  0  0  0  0  0  0  0  0  0  0  0
   42.3400   23.1280   36.6540 O   0  0  0  0  0  0  0  0  0  0  0  0
   41.5370   21.2770   37.6230 O   0  0  0  0  0  0  0  0  0  0  0  0
   42.6220   20.4680   37.2080 C   0  0  0  0  0  0  0  0  0  0  0  0
   37.6213   24.6414   35.1358 H   0  0  0  0  0  0  0  0  0  0  0  0
   39.9413   23.7322   34.9631 H   0  0  0  0  0  0  0  0  0  0  0  0
   37.4346   23.5056   39.2125 H   0  0  0  0  0  0  0  0  0  0  0  0
   43.1468   20.0767   38.0920 H   0  0  0  0  0  0  0  0  0  0  0  0
   42.2443   19.6293   36.6047 H   0  0  0  0  0  0  0  0  0  0  0  0
   43.3180   21.0693   36.6047 H   0  0  0  0  0  0  0  0  0  0  0  0
  1  6  2  0
  2  1  1  0
  2  3  2  0
  3  7  1  0
  3  4  1  0
  4  5  2  0
  6  5  1  0
  7  9  1  0
  8  7  2  0
 10  9  1  0
  1 11  1  0
  2 12  1  0
  5 13  1  0
 10 14  1  0
 10 15  1  0
 10 16  1  0
M  ISO  6  11  14  12  14  13  14  14   8  15   8  16   8
M  END
>  <minimizedAffinity>  (1) 
-3.01754928

>  <minimizedRMSD>  (1) 
4.11760807

$$$$
