
     RDKit          3D

 23 24  0  0  0  0  0  0  0  0999 V2000
   38.0800   26.4840   35.7510 C   0  0  0  0  0  0  0  0  0  0  0  0
   38.6940   27.5560   35.9920 O   0  0  0  0  0  0  0  0  0  0  0  0
   38.4540   23.3480   37.8300 C   0  0  0  0  0  0  0  0  0  0  0  0
   37.9830   24.5990   37.4390 C   0  0  0  0  0  0  0  0  0  0  0  0
   38.4810   25.1840   36.2770 C   0  0  0  0  0  0  0  0  0  0  0  0
   39.4220   24.4900   35.5690 N   0  0  0  0  0  0  0  0  0  0  0  0
   39.8660   23.2780   35.9640 C   0  0  0  0  0  0  0  0  0  0  0  0
   39.3870   22.7000   37.0930 N   0  0  0  0  0  0  0  0  0  0  0  0
   36.9680   26.5980   34.9390 O   0  0  0  0  0  0  0  0  0  0  0  0
   36.9660   27.3620   33.7750 C   0  0  0  0  0  0  0  0  0  0  0  0
   37.7780   27.0640   32.7000 C   0  0  0  0  0  0  0  0  0  0  0  0
   37.7190   27.8760   31.5700 C   0  0  0  0  0  0  0  0  0  0  0  0
   36.8670   28.9690   31.5080 C   0  0  0  0  0  0  0  0  0  0  0  0
   36.0580   29.2600   32.5890 C   0  0  0  0  0  0  0  0  0  0  0  0
   36.1080   28.4650   33.7090 C   0  0  0  0  0  0  0  0  0  0  0  0
   38.0641   22.8816   38.7468 H   0  0  0  0  0  0  0  0  0  0  0  0
   37.2249   25.1202   38.0421 H   0  0  0  0  0  0  0  0  0  0  0  0
   40.6243   22.7539   35.3637 H   0  0  0  0  0  0  0  0  0  0  0  0
   38.4593   26.2011   32.7348 H   0  0  0  0  0  0  0  0  0  0  0  0
   38.3621   27.6456   30.7078 H   0  0  0  0  0  0  0  0  0  0  0  0
   36.8360   29.5981   30.6062 H   0  0  0  0  0  0  0  0  0  0  0  0
   35.3773   30.1234   32.5537 H   0  0  0  0  0  0  0  0  0  0  0  0
   35.4624   28.7000   34.5681 H   0  0  0  0  0  0  0  0  0  0  0  0
  1  2  2  0
  1  5  1  0
  4  3  2  0
  5  4  1  0
  6  7  1  0
  6  5  2  0
  7  8  2  0
  8  3  1  0
  9  1  1  0
 10  9  1  0
 11 10  2  0
 12 11  1  0
 13 12  2  0
 13 14  1  0
 14 15  2  0
 15 10  1  0
  3 16  1  0
  4 17  1  0
  7 18  1  0
 11 19  1  0
 12 20  1  0
 13 21  1  0
 14 22  1  0
 15 23  1  0
M  ISO  8  16  14  17  14  18  14  19  14  20  14  21  14  22  14  23  14
M  END
>  <minimizedAffinity>  (1) 
-4.22925282

>  <minimizedRMSD>  (1) 
6.69057035

$$$$
