
     RDKit          3D

 37 40  0  0  0  0  0  0  0  0999 V2000
   36.5030   28.2770   32.8530 C   0  0  0  0  0  0  0  0  0  0  0  0
   37.5210   27.9350   31.9850 C   0  0  0  0  0  0  0  0  0  0  0  0
   37.6960   28.6880   30.8310 C   0  0  0  0  0  0  0  0  0  0  0  0
   36.8710   29.7640   30.5430 C   0  0  0  0  0  0  0  0  0  0  0  0
   35.8630   30.0990   31.4060 C   0  0  0  0  0  0  0  0  0  0  0  0
   35.6660   29.3700   32.5590 C   0  0  0  0  0  0  0  0  0  0  0  0
   34.6010   29.6810   33.5080 C   0  0  0  0  0  0  0  0  0  0  0  0
   33.4270   29.0930   33.1810 N   0  0  0  0  0  0  0  0  0  0  0  0
   32.3120   29.2450   33.9150 C   0  0  0  0  0  0  0  0  0  0  0  0
   32.3580   30.0150   35.0270 N   0  0  0  0  0  0  0  0  0  0  0  0
   33.5000   30.6230   35.4010 C   0  0  0  0  0  0  0  0  0  0  0  0
   33.5910   31.4160   36.5330 C   0  0  0  0  0  0  0  0  0  0  0  0
   34.8060   31.9970   36.8400 C   0  0  0  0  0  0  0  0  0  0  0  0
   35.9340   31.8100   36.0480 C   0  0  0  0  0  0  0  0  0  0  0  0
   35.8740   31.0190   34.9020 C   0  0  0  0  0  0  0  0  0  0  0  0
   34.6370   30.4650   34.6460 C   0  0  0  0  0  0  0  0  0  0  0  0
   36.2640   27.5710   34.0290 O   0  0  0  0  0  0  0  0  0  0  0  0
   37.2570   27.2390   34.9200 C   0  0  0  0  0  0  0  0  0  0  0  0
   37.7690   28.2000   35.5270 O   0  0  0  0  0  0  0  0  0  0  0  0
   38.2650   23.8960   36.3830 C   0  0  0  0  0  0  0  0  0  0  0  0
   37.9070   25.2340   36.3330 C   0  0  0  0  0  0  0  0  0  0  0  0
   37.6400   25.8460   35.1010 C   0  0  0  0  0  0  0  0  0  0  0  0
   37.7510   25.0700   33.9840 N   0  0  0  0  0  0  0  0  0  0  0  0
   38.1030   23.7660   34.0410 C   0  0  0  0  0  0  0  0  0  0  0  0
   38.3610   23.1750   35.2470 N   0  0  0  0  0  0  0  0  0  0  0  0
   38.1809   27.0824   32.2033 H   0  0  0  0  0  0  0  0  0  0  0  0
   38.5043   28.4255   30.1327 H   0  0  0  0  0  0  0  0  0  0  0  0
   37.0261   30.3471   29.6232 H   0  0  0  0  0  0  0  0  0  0  0  0
   35.2079   30.9529   31.1787 H   0  0  0  0  0  0  0  0  0  0  0  0
   31.3756   28.7509   33.6166 H   0  0  0  0  0  0  0  0  0  0  0  0
   32.7129   31.5799   37.1749 H   0  0  0  0  0  0  0  0  0  0  0  0
   34.8839   32.6269   37.7384 H   0  0  0  0  0  0  0  0  0  0  0  0
   36.8826   32.2910   36.3288 H   0  0  0  0  0  0  0  0  0  0  0  0
   36.7453   30.8497   34.2523 H   0  0  0  0  0  0  0  0  0  0  0  0
   38.4717   23.4201   37.3530 H   0  0  0  0  0  0  0  0  0  0  0  0
   37.8323   25.8170   37.2628 H   0  0  0  0  0  0  0  0  0  0  0  0
   38.1821   23.1785   33.1144 H   0  0  0  0  0  0  0  0  0  0  0  0
  1 17  1  0
  2  1  2  0
  3  2  1  0
  4  3  2  0
  4  5  1  0
  5  6  2  0
  6  1  1  0
  6  7  1  0
  7 16  1  0
  8  7  2  0
  8  9  1  0
  9 10  2  0
 10 11  1  0
 11 12  2  0
 12 13  1  0
 14 13  2  0
 15 14  1  0
 16 15  2  0
 16 11  1  0
 17 18  1  0
 18 22  1  0
 18 19  2  0
 21 20  2  0
 22 21  1  0
 23 24  1  0
 23 22  2  0
 24 25  2  0
 25 20  1  0
  2 26  1  0
  3 27  1  0
  4 28  1  0
  5 29  1  0
  9 30  1  0
 12 31  1  0
 13 32  1  0
 14 33  1  0
 15 34  1  0
 20 35  1  0
 21 36  1  0
 24 37  1  0
M  ISO  8  26  14  27  14  28  14  29  14  30  14  31  14  32  14  33  14
M  ISO  4  34  14  35  14  36  14  37  14
M  END
>  <minimizedAffinity>  (1) 
-5.97978973

>  <minimizedRMSD>  (1) 
1.75797629

$$$$
