
     RDKit          3D

 36 38  0  0  0  0  0  0  0  0999 V2000
   36.8070   27.7300   33.5480 C   0  0  0  0  0  0  0  0  0  0  0  0
   37.4580   27.0410   32.5590 C   0  0  0  0  0  0  0  0  0  0  0  0
   37.4750   27.5780   31.2780 C   0  0  0  0  0  0  0  0  0  0  0  0
   36.8590   28.7750   30.9720 C   0  0  0  0  0  0  0  0  0  0  0  0
   36.2060   29.4600   31.9800 C   0  0  0  0  0  0  0  0  0  0  0  0
   36.1810   28.9380   33.2620 C   0  0  0  0  0  0  0  0  0  0  0  0
   33.9430   31.0660   36.1090 C   0  0  0  0  0  0  0  0  0  0  0  0
   33.3220   30.1560   35.2600 C   0  0  0  0  0  0  0  0  0  0  0  0
   34.0960   29.4940   34.3560 C   0  0  0  0  0  0  0  0  0  0  0  0
   35.4700   29.7190   34.2810 C   0  0  0  0  0  0  0  0  0  0  0  0
   36.0650   30.6230   35.1290 C   0  0  0  0  0  0  0  0  0  0  0  0
   35.3000   31.3080   36.0560 C   0  0  0  0  0  0  0  0  0  0  0  0
   32.9960   31.9420   37.2880 S   0  0  0  0  0  0  0  0  0  0  0  0
   31.5690   32.1030   36.8250 O   0  0  0  0  0  0  0  0  0  0  0  0
   33.5690   33.2860   37.6180 O   0  0  0  0  0  0  0  0  0  0  0  0
   36.7470   27.2560   34.8620 O   0  0  0  0  0  0  0  0  0  0  0  0
   37.8540   26.7680   35.5250 C   0  0  0  0  0  0  0  0  0  0  0  0
   38.7530   27.6040   35.7870 O   0  0  0  0  0  0  0  0  0  0  0  0
   37.9690   23.4620   37.3540 C   0  0  0  0  0  0  0  0  0  0  0  0
   37.8840   24.8350   37.1630 C   0  0  0  0  0  0  0  0  0  0  0  0
   37.9310   25.3530   35.8800 C   0  0  0  0  0  0  0  0  0  0  0  0
   38.0600   24.4650   34.8360 N   0  0  0  0  0  0  0  0  0  0  0  0
   38.1410   23.1250   35.0520 C   0  0  0  0  0  0  0  0  0  0  0  0
   38.0950   22.6210   36.3000 N   0  0  0  0  0  0  0  0  0  0  0  0
   37.9560   26.0841   32.7744 H   0  0  0  0  0  0  0  0  0  0  0  0
   37.9974   27.0305   30.4797 H   0  0  0  0  0  0  0  0  0  0  0  0
   36.8871   29.1753   29.9478 H   0  0  0  0  0  0  0  0  0  0  0  0
   35.7079   30.4167   31.7640 H   0  0  0  0  0  0  0  0  0  0  0  0
   32.2383   29.9764   35.3170 H   0  0  0  0  0  0  0  0  0  0  0  0
   33.6291   28.7691   33.6730 H   0  0  0  0  0  0  0  0  0  0  0  0
   37.1488   30.8015   35.0704 H   0  0  0  0  0  0  0  0  0  0  0  0
   35.7659   32.0333   36.7392 H   0  0  0  0  0  0  0  0  0  0  0  0
   33.0280   31.1872   38.4308 H   0  0  0  0  0  0  0  0  0  0  0  0
   37.9335   23.0524   38.3743 H   0  0  0  0  0  0  0  0  0  0  0  0
   37.7798   25.5077   38.0271 H   0  0  0  0  0  0  0  0  0  0  0  0
   38.2456   22.4430   34.1953 H   0  0  0  0  0  0  0  0  0  0  0  0
  1 16  1  0
  2  1  2  0
  3  2  1  0
  4  3  2  0
  4  5  1  0
  5  6  2  0
  6  1  1  0
  6 10  1  0
  7 13  1  0
  8  7  2  0
  9  8  1  0
 10  9  2  0
 10 11  1  0
 11 12  2  0
 12  7  1  0
 13 15  2  0
 14 13  2  0
 16 17  1  0
 17 18  2  0
 17 21  1  0
 20 19  2  0
 21 20  1  0
 22 23  1  0
 22 21  2  0
 23 24  2  0
 24 19  1  0
  2 25  1  0
  3 26  1  0
  4 27  1  0
  5 28  1  0
  8 29  1  0
  9 30  1  0
 11 31  1  0
 12 32  1  0
 13 33  1  0
 19 34  1  0
 20 35  1  0
 23 36  1  0
M  ISO  8  25  14  26  14  27  14  28  14  29  14  30  14  31  14  32  14
M  ISO  4  33  11  34  14  35  14  36  14
M  END
>  <minimizedAffinity>  (1) 
-5.83204412

>  <minimizedRMSD>  (1) 
1.78005993

$$$$
