
     RDKit          3D

 39 41  0  0  0  0  0  0  0  0999 V2000
   36.7250   27.8020   33.7040 C   0  0  0  0  0  0  0  0  0  0  0  0
   37.3750   27.2620   32.6230 C   0  0  0  0  0  0  0  0  0  0  0  0
   37.3370   27.9290   31.4030 C   0  0  0  0  0  0  0  0  0  0  0  0
   36.6600   29.1210   31.2550 C   0  0  0  0  0  0  0  0  0  0  0  0
   36.0120   29.6550   32.3430 C   0  0  0  0  0  0  0  0  0  0  0  0
   36.0440   29.0050   33.5540 C   0  0  0  0  0  0  0  0  0  0  0  0
   35.3240   29.6280   34.7030 C   0  0  0  0  0  0  0  0  0  0  0  0
   33.8320   29.5280   34.5800 C   0  0  0  0  0  0  0  0  0  0  0  0
   33.1290   30.8480   34.5190 C   0  0  0  0  0  0  0  0  0  0  0  0
   33.6200   31.8880   35.4830 C   0  0  0  0  0  0  0  0  0  0  0  0
   34.9200   31.4860   36.1690 C   0  0  0  0  0  0  0  0  0  0  0  0
   35.8190   31.0230   35.0140 C   0  0  0  0  0  0  0  0  0  0  0  0
   36.7210   27.1870   34.9620 O   0  0  0  0  0  0  0  0  0  0  0  0
   37.8820   26.6750   35.5280 C   0  0  0  0  0  0  0  0  0  0  0  0
   38.8000   27.5060   35.7690 O   0  0  0  0  0  0  0  0  0  0  0  0
   38.1040   23.3110   37.2200 C   0  0  0  0  0  0  0  0  0  0  0  0
   37.9920   24.6840   37.0870 C   0  0  0  0  0  0  0  0  0  0  0  0
   37.9940   25.2430   35.8140 C   0  0  0  0  0  0  0  0  0  0  0  0
   38.1050   24.4040   34.7550 N   0  0  0  0  0  0  0  0  0  0  0  0
   38.2120   23.0720   34.8970 C   0  0  0  0  0  0  0  0  0  0  0  0
   38.2150   22.5040   36.1260 N   0  0  0  0  0  0  0  0  0  0  0  0
   37.9204   26.3117   32.7202 H   0  0  0  0  0  0  0  0  0  0  0  0
   37.8587   27.4958   30.5369 H   0  0  0  0  0  0  0  0  0  0  0  0
   36.6389   29.6356   30.2830 H   0  0  0  0  0  0  0  0  0  0  0  0
   35.4663   30.6050   32.2446 H   0  0  0  0  0  0  0  0  0  0  0  0
   35.5771   29.0273   35.5891 H   0  0  0  0  0  0  0  0  0  0  0  0
   33.5987   28.9707   33.6608 H   0  0  0  0  0  0  0  0  0  0  0  0
   33.4742   29.0224   35.4890 H   0  0  0  0  0  0  0  0  0  0  0  0
   33.2466   31.2476   33.5009 H   0  0  0  0  0  0  0  0  0  0  0  0
   32.0845   30.6465   34.7992 H   0  0  0  0  0  0  0  0  0  0  0  0
   33.7874   32.8262   34.9336 H   0  0  0  0  0  0  0  0  0  0  0  0
   32.8543   32.0054   36.2640 H   0  0  0  0  0  0  0  0  0  0  0  0
   35.3671   32.3433   36.6935 H   0  0  0  0  0  0  0  0  0  0  0  0
   34.7740   30.7068   36.9316 H   0  0  0  0  0  0  0  0  0  0  0  0
   36.8744   31.0037   35.3233 H   0  0  0  0  0  0  0  0  0  0  0  0
   35.7700   31.6939   34.1437 H   0  0  0  0  0  0  0  0  0  0  0  0
   38.1035   22.8631   38.2247 H   0  0  0  0  0  0  0  0  0  0  0  0
   37.9026   25.3246   37.9768 H   0  0  0  0  0  0  0  0  0  0  0  0
   38.2982   22.4355   34.0040 H   0  0  0  0  0  0  0  0  0  0  0  0
  1 13  1  0
  2  1  2  0
  3  2  1  0
  4  3  2  0
  4  5  1  0
  5  6  2  0
  6  1  1  0
  6  7  1  0
  7 12  1  0
  8  7  1  0
  9  8  1  0
  9 10  1  0
 10 11  1  0
 12 11  1  0
 13 14  1  0
 14 15  2  0
 14 18  1  0
 17 16  2  0
 18 17  1  0
 19 20  1  0
 19 18  2  0
 20 21  2  0
 21 16  1  0
  2 22  1  0
  3 23  1  0
  4 24  1  0
  5 25  1  0
  7 26  1  0
  8 27  1  0
  8 28  1  0
  9 29  1  0
  9 30  1  0
 10 31  1  0
 10 32  1  0
 11 33  1  0
 11 34  1  0
 12 35  1  0
 12 36  1  0
 16 37  1  0
 17 38  1  0
 20 39  1  0
M  ISO  8  22  14  23  14  24  14  25  14  26  13  27  13  28  13  29  13
M  ISO  8  30  13  31  13  32  13  33  13  34  13  35  13  36  13  37  14
M  ISO  2  38  14  39  14
M  END
>  <minimizedAffinity>  (1) 
-5.46363449

>  <minimizedRMSD>  (1) 
1.00411034

$$$$
