
     RDKit          3D

 33 35  0  0  0  0  0  0  0  0999 V2000
   36.7420   27.8250   33.4900 C   0  0  0  0  0  0  0  0  0  0  0  0
   37.4350   27.1240   32.5360 C   0  0  0  0  0  0  0  0  0  0  0  0
   37.4670   27.6120   31.2270 C   0  0  0  0  0  0  0  0  0  0  0  0
   36.8160   28.7800   30.8750 C   0  0  0  0  0  0  0  0  0  0  0  0
   36.1230   29.4760   31.8360 C   0  0  0  0  0  0  0  0  0  0  0  0
   36.0760   29.0140   33.1410 C   0  0  0  0  0  0  0  0  0  0  0  0
   35.3520   29.7230   34.1920 C   0  0  0  0  0  0  0  0  0  0  0  0
   36.0400   30.6280   35.0070 C   0  0  0  0  0  0  0  0  0  0  0  0
   35.3920   31.3260   36.0210 C   0  0  0  0  0  0  0  0  0  0  0  0
   34.0620   31.1430   36.2450 C   0  0  0  0  0  0  0  0  0  0  0  0
   33.3870   30.2400   35.4290 C   0  0  0  0  0  0  0  0  0  0  0  0
   34.0020   29.5260   34.4080 C   0  0  0  0  0  0  0  0  0  0  0  0
   36.6760   27.3870   34.8050 O   0  0  0  0  0  0  0  0  0  0  0  0
   37.7620   26.9130   35.4920 C   0  0  0  0  0  0  0  0  0  0  0  0
   38.6390   27.7640   35.7970 O   0  0  0  0  0  0  0  0  0  0  0  0
   37.8740   23.5830   37.2940 C   0  0  0  0  0  0  0  0  0  0  0  0
   37.7710   24.9630   37.1130 C   0  0  0  0  0  0  0  0  0  0  0  0
   37.8530   25.4960   35.8300 C   0  0  0  0  0  0  0  0  0  0  0  0
   38.0350   24.6200   34.7840 N   0  0  0  0  0  0  0  0  0  0  0  0
   38.1320   23.2920   34.9790 C   0  0  0  0  0  0  0  0  0  0  0  0
   38.0530   22.7660   36.2160 N   0  0  0  0  0  0  0  0  0  0  0  0
   37.9575   26.1920   32.7974 H   0  0  0  0  0  0  0  0  0  0  0  0
   38.0228   27.0542   30.4590 H   0  0  0  0  0  0  0  0  0  0  0  0
   36.8524   29.1474   29.8388 H   0  0  0  0  0  0  0  0  0  0  0  0
   35.6019   30.4066   31.5671 H   0  0  0  0  0  0  0  0  0  0  0  0
   37.1154   30.7911   34.8428 H   0  0  0  0  0  0  0  0  0  0  0  0
   35.9589   32.0312   36.6466 H   0  0  0  0  0  0  0  0  0  0  0  0
   33.5388   31.6898   37.0433 H   0  0  0  0  0  0  0  0  0  0  0  0
   32.3119   30.0836   35.6011 H   0  0  0  0  0  0  0  0  0  0  0  0
   33.4284   28.8218   33.7875 H   0  0  0  0  0  0  0  0  0  0  0  0
   37.8109   23.1543   38.3051 H   0  0  0  0  0  0  0  0  0  0  0  0
   37.6259   25.6254   37.9791 H   0  0  0  0  0  0  0  0  0  0  0  0
   38.2779   22.6266   34.1153 H   0  0  0  0  0  0  0  0  0  0  0  0
  1 13  1  0
  2  1  2  0
  3  2  1  0
  4  3  2  0
  4  5  1  0
  5  6  2  0
  6  1  1  0
  6  7  1  0
  7 12  1  0
  7  8  2  0
  8  9  1  0
  9 10  2  0
 11 10  1  0
 12 11  2  0
 13 14  1  0
 14 15  2  0
 14 18  1  0
 17 16  2  0
 18 17  1  0
 19 20  1  0
 19 18  2  0
 20 21  2  0
 21 16  1  0
  2 22  1  0
  3 23  1  0
  4 24  1  0
  5 25  1  0
  8 26  1  0
  9 27  1  0
 10 28  1  0
 11 29  1  0
 12 30  1  0
 16 31  1  0
 17 32  1  0
 20 33  1  0
M  ISO  8  22  14  23  14  24  14  25  14  26  14  27  14  28  14  29  14
M  ISO  4  30  14  31  14  32  14  33  14
M  END
>  <minimizedAffinity>  (1) 
-5.31295538

>  <minimizedRMSD>  (1) 
1.32722855

$$$$
