
     RDKit          3D

 36 38  0  0  0  0  0  0  0  0999 V2000
   36.7440   27.7950   33.6810 C   0  0  0  0  0  0  0  0  0  0  0  0
   37.4530   27.3000   32.6170 C   0  0  0  0  0  0  0  0  0  0  0  0
   37.4220   28.0120   31.4180 C   0  0  0  0  0  0  0  0  0  0  0  0
   36.7060   29.1820   31.2860 C   0  0  0  0  0  0  0  0  0  0  0  0
   36.0040   29.6590   32.3640 C   0  0  0  0  0  0  0  0  0  0  0  0
   36.0040   28.9880   33.5740 C   0  0  0  0  0  0  0  0  0  0  0  0
   35.2650   29.4760   34.7340 C   0  0  0  0  0  0  0  0  0  0  0  0
   35.9780   30.6590   35.3450 C   0  0  0  0  0  0  0  0  0  0  0  0
   34.9630   31.7230   35.6130 C   0  0  0  0  0  0  0  0  0  0  0  0
   33.6340   31.0650   35.4080 C   0  0  0  0  0  0  0  0  0  0  0  0
   33.8490   29.8600   34.5140 C   0  0  0  0  0  0  0  0  0  0  0  0
   36.7290   27.1330   34.9160 O   0  0  0  0  0  0  0  0  0  0  0  0
   37.8740   26.6410   35.5120 C   0  0  0  0  0  0  0  0  0  0  0  0
   38.7650   27.4970   35.7810 O   0  0  0  0  0  0  0  0  0  0  0  0
   38.1480   23.2830   37.2040 C   0  0  0  0  0  0  0  0  0  0  0  0
   38.0080   24.6550   37.0730 C   0  0  0  0  0  0  0  0  0  0  0  0
   38.0100   25.2220   35.7960 C   0  0  0  0  0  0  0  0  0  0  0  0
   38.1520   24.3880   34.7370 N   0  0  0  0  0  0  0  0  0  0  0  0
   38.2870   23.0510   34.8790 C   0  0  0  0  0  0  0  0  0  0  0  0
   38.2850   22.4940   36.1210 N   0  0  0  0  0  0  0  0  0  0  0  0
   38.0300   26.3677   32.7064 H   0  0  0  0  0  0  0  0  0  0  0  0
   37.9847   27.6290   30.5539 H   0  0  0  0  0  0  0  0  0  0  0  0
   36.6974   29.7258   30.3299 H   0  0  0  0  0  0  0  0  0  0  0  0
   35.4305   30.5923   32.2644 H   0  0  0  0  0  0  0  0  0  0  0  0
   35.2354   28.6010   35.3999 H   0  0  0  0  0  0  0  0  0  0  0  0
   36.4608   30.3582   36.2865 H   0  0  0  0  0  0  0  0  0  0  0  0
   36.7522   31.0339   34.6594 H   0  0  0  0  0  0  0  0  0  0  0  0
   35.0549   32.0914   36.6454 H   0  0  0  0  0  0  0  0  0  0  0  0
   35.0960   32.5914   34.9511 H   0  0  0  0  0  0  0  0  0  0  0  0
   33.2215   30.7444   36.3760 H   0  0  0  0  0  0  0  0  0  0  0  0
   32.9243   31.7664   34.9449 H   0  0  0  0  0  0  0  0  0  0  0  0
   33.6778   30.1235   33.4598 H   0  0  0  0  0  0  0  0  0  0  0  0
   33.1542   29.0396   34.7469 H   0  0  0  0  0  0  0  0  0  0  0  0
   38.1473   22.8314   38.2070 H   0  0  0  0  0  0  0  0  0  0  0  0
   37.8966   25.2906   37.9639 H   0  0  0  0  0  0  0  0  0  0  0  0
   38.3986   22.4124   33.9904 H   0  0  0  0  0  0  0  0  0  0  0  0
  1 12  1  0
  2  1  2  0
  3  2  1  0
  4  3  2  0
  4  5  1  0
  5  6  2  0
  6  1  1  0
  6  7  1  0
  7  8  1  0
  8  9  1  0
 10  9  1  0
 11  7  1  0
 11 10  1  0
 12 13  1  0
 13 14  2  0
 13 17  1  0
 16 15  2  0
 17 16  1  0
 18 19  1  0
 18 17  2  0
 19 20  2  0
 20 15  1  0
  2 21  1  0
  3 22  1  0
  4 23  1  0
  5 24  1  0
  7 25  1  0
  8 26  1  0
  8 27  1  0
  9 28  1  0
  9 29  1  0
 10 30  1  0
 10 31  1  0
 11 32  1  0
 11 33  1  0
 15 34  1  0
 16 35  1  0
 19 36  1  0
M  ISO  8  21  14  22  14  23  14  24  14  25  13  26  13  27  13  28  13
M  ISO  8  29  13  30  13  31  13  32  13  33  13  34  14  35  14  36  14
M  END
>  <minimizedAffinity>  (1) 
-5.26730871

>  <minimizedRMSD>  (1) 
1.57360101

$$$$
