
     RDKit          3D

 37 39  0  0  0  0  0  0  0  0999 V2000
   36.7520   27.8030   33.5780 C   0  0  0  0  0  0  0  0  0  0  0  0
   37.4070   27.1700   32.5410 C   0  0  0  0  0  0  0  0  0  0  0  0
   37.4090   27.7820   31.2850 C   0  0  0  0  0  0  0  0  0  0  0  0
   36.7750   28.9860   31.0760 C   0  0  0  0  0  0  0  0  0  0  0  0
   36.1240   29.6050   32.1210 C   0  0  0  0  0  0  0  0  0  0  0  0
   36.1060   29.0290   33.3600 C   0  0  0  0  0  0  0  0  0  0  0  0
   35.4330   29.6690   34.4410 N   0  0  0  0  0  0  0  0  0  0  0  0
   33.9950   29.4480   34.6520 C   0  0  0  0  0  0  0  0  0  0  0  0
   33.3370   30.7470   34.2060 C   0  0  0  0  0  0  0  0  0  0  0  0
   33.9410   31.8510   34.8890 N   0  0  0  0  0  0  0  0  0  0  0  0
   34.8600   31.4710   35.9420 C   0  0  0  0  0  0  0  0  0  0  0  0
   35.9570   30.5710   35.4480 C   0  0  0  0  0  0  0  0  0  0  0  0
   36.7020   27.2590   34.8660 O   0  0  0  0  0  0  0  0  0  0  0  0
   37.8290   26.7600   35.4890 C   0  0  0  0  0  0  0  0  0  0  0  0
   38.7320   27.5900   35.7580 O   0  0  0  0  0  0  0  0  0  0  0  0
   38.0050   23.4140   37.2560 C   0  0  0  0  0  0  0  0  0  0  0  0
   37.9030   24.7810   37.0780 C   0  0  0  0  0  0  0  0  0  0  0  0
   37.9280   25.3360   35.8020 C   0  0  0  0  0  0  0  0  0  0  0  0
   38.0560   24.4700   34.7430 N   0  0  0  0  0  0  0  0  0  0  0  0
   38.1530   23.1350   34.9290 C   0  0  0  0  0  0  0  0  0  0  0  0
   38.1290   22.5990   36.1690 N   0  0  0  0  0  0  0  0  0  0  0  0
   37.9150   26.2073   32.6995 H   0  0  0  0  0  0  0  0  0  0  0  0
   37.9270   27.2925   30.4472 H   0  0  0  0  0  0  0  0  0  0  0  0
   36.7880   29.4517   30.0795 H   0  0  0  0  0  0  0  0  0  0  0  0
   35.6166   30.5671   31.9570 H   0  0  0  0  0  0  0  0  0  0  0  0
   33.6386   28.6035   34.0439 H   0  0  0  0  0  0  0  0  0  0  0  0
   33.7603   29.1991   35.6974 H   0  0  0  0  0  0  0  0  0  0  0  0
   33.4698   30.8709   33.1211 H   0  0  0  0  0  0  0  0  0  0  0  0
   32.2637   30.7132   34.4443 H   0  0  0  0  0  0  0  0  0  0  0  0
   34.4573   32.4141   34.1981 H   0  0  0  0  0  0  0  0  0  0  0  0
   35.3123   32.3816   36.3617 H   0  0  0  0  0  0  0  0  0  0  0  0
   34.2889   30.9175   36.7019 H   0  0  0  0  0  0  0  0  0  0  0  0
   36.3573   29.9866   36.2896 H   0  0  0  0  0  0  0  0  0  0  0  0
   36.7589   31.1820   35.0079 H   0  0  0  0  0  0  0  0  0  0  0  0
   37.9863   22.9855   38.2689 H   0  0  0  0  0  0  0  0  0  0  0  0
   37.8009   25.4375   37.9547 H   0  0  0  0  0  0  0  0  0  0  0  0
   38.2532   22.4734   34.0559 H   0  0  0  0  0  0  0  0  0  0  0  0
  1 13  1  0
  2  1  2  0
  3  2  1  0
  4  3  2  0
  4  5  1  0
  5  6  2  0
  6  1  1  0
  6  7  1  0
  7  8  1  0
  7 12  1  0
  9  8  1  0
  9 10  1  0
 10 11  1  0
 12 11  1  0
 13 14  1  0
 14 15  2  0
 14 18  1  0
 17 16  2  0
 18 17  1  0
 19 20  1  0
 19 18  2  0
 20 21  2  0
 21 16  1  0
  2 22  1  0
  3 23  1  0
  4 24  1  0
  5 25  1  0
  8 26  1  0
  8 27  1  0
  9 28  1  0
  9 29  1  0
 10 30  1  0
 11 31  1  0
 11 32  1  0
 12 33  1  0
 12 34  1  0
 16 35  1  0
 17 36  1  0
 20 37  1  0
M  ISO  8  22  14  23  14  24  14  25  14  26  13  27  13  28  13  29  13
M  ISO  8  30   5  31  13  32  13  33  13  34  13  35  14  36  14  37  14
M  END
>  <minimizedAffinity>  (1) 
-4.91960669

>  <minimizedRMSD>  (1) 
1.03871381

$$$$
