
     RDKit          3D

 36 38  0  0  0  0  0  0  0  0999 V2000
   36.7370   27.7910   33.5290 C   0  0  0  0  0  0  0  0  0  0  0  0
   37.4320   27.1610   32.5270 C   0  0  0  0  0  0  0  0  0  0  0  0
   37.4420   27.7100   31.2460 C   0  0  0  0  0  0  0  0  0  0  0  0
   36.7600   28.8810   30.9740 C   0  0  0  0  0  0  0  0  0  0  0  0
   36.0670   29.5110   31.9740 C   0  0  0  0  0  0  0  0  0  0  0  0
   36.0480   28.9810   33.2400 C   0  0  0  0  0  0  0  0  0  0  0  0
   35.3190   29.6600   34.2490 N   0  0  0  0  0  0  0  0  0  0  0  0
   35.9340   30.5240   35.2390 C   0  0  0  0  0  0  0  0  0  0  0  0
   34.8620   31.4960   35.6930 C   0  0  0  0  0  0  0  0  0  0  0  0
   33.7500   30.7780   36.1310 O   0  0  0  0  0  0  0  0  0  0  0  0
   33.0570   30.2090   35.0650 C   0  0  0  0  0  0  0  0  0  0  0  0
   33.8980   29.3780   34.1570 C   0  0  0  0  0  0  0  0  0  0  0  0
   36.6840   27.2990   34.8320 O   0  0  0  0  0  0  0  0  0  0  0  0
   37.7880   26.8080   35.4830 C   0  0  0  0  0  0  0  0  0  0  0  0
   38.6790   27.6640   35.7640 O   0  0  0  0  0  0  0  0  0  0  0  0
   38.0050   23.5030   37.2890 C   0  0  0  0  0  0  0  0  0  0  0  0
   37.8890   24.8840   37.1130 C   0  0  0  0  0  0  0  0  0  0  0  0
   37.9010   25.4000   35.8140 C   0  0  0  0  0  0  0  0  0  0  0  0
   38.0270   24.5280   34.7810 N   0  0  0  0  0  0  0  0  0  0  0  0
   38.1380   23.1940   34.9700 C   0  0  0  0  0  0  0  0  0  0  0  0
   38.1280   22.6760   36.2310 N   0  0  0  0  0  0  0  0  0  0  0  0
   37.9777   26.2286   32.7337 H   0  0  0  0  0  0  0  0  0  0  0  0
   37.9989   27.2057   30.4425 H   0  0  0  0  0  0  0  0  0  0  0  0
   36.7735   29.3052   29.9592 H   0  0  0  0  0  0  0  0  0  0  0  0
   35.5244   30.4440   31.7617 H   0  0  0  0  0  0  0  0  0  0  0  0
   36.2922   29.9288   36.0919 H   0  0  0  0  0  0  0  0  0  0  0  0
   36.7991   31.0567   34.8174 H   0  0  0  0  0  0  0  0  0  0  0  0
   35.2496   32.1132   36.5169 H   0  0  0  0  0  0  0  0  0  0  0  0
   34.5750   32.1484   34.8552 H   0  0  0  0  0  0  0  0  0  0  0  0
   32.2593   29.5717   35.4742 H   0  0  0  0  0  0  0  0  0  0  0  0
   32.6717   31.0431   34.4601 H   0  0  0  0  0  0  0  0  0  0  0  0
   33.5749   29.5612   33.1216 H   0  0  0  0  0  0  0  0  0  0  0  0
   33.7599   28.3307   34.4636 H   0  0  0  0  0  0  0  0  0  0  0  0
   37.9959   23.0839   38.3060 H   0  0  0  0  0  0  0  0  0  0  0  0
   37.7901   25.5529   37.9806 H   0  0  0  0  0  0  0  0  0  0  0  0
   38.2367   22.5241   34.1031 H   0  0  0  0  0  0  0  0  0  0  0  0
  1 13  1  0
  2  1  2  0
  3  2  1  0
  4  3  2  0
  4  5  1  0
  5  6  2  0
  6  1  1  0
  6  7  1  0
  7  8  1  0
  8  9  1  0
  9 10  1  0
 11 10  1  0
 12  7  1  0
 12 11  1  0
 13 14  1  0
 14 15  2  0
 14 18  1  0
 17 16  2  0
 18 17  1  0
 19 20  1  0
 19 18  2  0
 20 21  2  0
 21 16  1  0
  2 22  1  0
  3 23  1  0
  4 24  1  0
  5 25  1  0
  8 26  1  0
  8 27  1  0
  9 28  1  0
  9 29  1  0
 11 30  1  0
 11 31  1  0
 12 32  1  0
 12 33  1  0
 16 34  1  0
 17 35  1  0
 20 36  1  0
M  ISO  8  22  14  23  14  24  14  25  14  26  13  27  13  28  13  29  13
M  ISO  7  30  13  31  13  32  13  33  13  34  14  35  14  36  14
M  END
>  <minimizedAffinity>  (1) 
-4.882164

>  <minimizedRMSD>  (1) 
1.3266058

$$$$
