
     RDKit          3D

 32 33  0  0  0  0  0  0  0  0999 V2000
   36.8730   27.7110   33.6400 C   0  0  0  0  0  0  0  0  0  0  0  0
   37.7160   27.2210   32.6530 C   0  0  0  0  0  0  0  0  0  0  0  0
   37.7300   27.8820   31.4230 C   0  0  0  0  0  0  0  0  0  0  0  0
   36.9350   28.9830   31.1880 C   0  0  0  0  0  0  0  0  0  0  0  0
   36.1040   29.4600   32.1690 C   0  0  0  0  0  0  0  0  0  0  0  0
   36.0720   28.8290   33.3870 C   0  0  0  0  0  0  0  0  0  0  0  0
   35.1490   29.3870   34.4270 C   0  0  0  0  0  0  0  0  0  0  0  0
   35.6580   30.6540   35.0420 C   0  0  0  0  0  0  0  0  0  0  0  0
   33.7800   29.5970   33.8180 C   0  0  0  0  0  0  0  0  0  0  0  0
   36.7840   27.1210   34.9060 O   0  0  0  0  0  0  0  0  0  0  0  0
   37.8950   26.6270   35.5560 C   0  0  0  0  0  0  0  0  0  0  0  0
   38.7790   27.4720   35.8760 O   0  0  0  0  0  0  0  0  0  0  0  0
   38.1440   23.2500   37.2470 C   0  0  0  0  0  0  0  0  0  0  0  0
   38.0210   24.6310   37.1080 C   0  0  0  0  0  0  0  0  0  0  0  0
   38.0170   25.1970   35.8460 C   0  0  0  0  0  0  0  0  0  0  0  0
   38.1370   24.3580   34.7740 N   0  0  0  0  0  0  0  0  0  0  0  0
   38.2550   23.0200   34.9170 C   0  0  0  0  0  0  0  0  0  0  0  0
   38.2590   22.4600   36.1510 N   0  0  0  0  0  0  0  0  0  0  0  0
   38.3518   26.3416   32.8333 H   0  0  0  0  0  0  0  0  0  0  0  0
   38.3906   27.5156   30.6234 H   0  0  0  0  0  0  0  0  0  0  0  0
   36.9673   29.4819   30.2082 H   0  0  0  0  0  0  0  0  0  0  0  0
   35.4699   30.3390   31.9815 H   0  0  0  0  0  0  0  0  0  0  0  0
   35.0880   28.6555   35.2463 H   0  0  0  0  0  0  0  0  0  0  0  0
   35.6239   30.5690   36.1382 H   0  0  0  0  0  0  0  0  0  0  0  0
   36.6954   30.8270   34.7198 H   0  0  0  0  0  0  0  0  0  0  0  0
   35.0286   31.4966   34.7198 H   0  0  0  0  0  0  0  0  0  0  0  0
   33.0356   29.7112   34.6198 H   0  0  0  0  0  0  0  0  0  0  0  0
   33.7907   30.5040   33.1957 H   0  0  0  0  0  0  0  0  0  0  0  0
   33.5184   28.7285   33.1957 H   0  0  0  0  0  0  0  0  0  0  0  0
   38.1478   22.7988   38.2502 H   0  0  0  0  0  0  0  0  0  0  0  0
   37.9274   25.2690   37.9991 H   0  0  0  0  0  0  0  0  0  0  0  0
   38.3484   22.3811   34.0264 H   0  0  0  0  0  0  0  0  0  0  0  0
  1 10  1  0
  2  1  2  0
  3  2  1  0
  4  3  2  0
  4  5  1  0
  5  6  2  0
  6  1  1  0
  6  7  1  0
  7  8  1  0
  9  7  1  0
 10 11  1  0
 11 15  1  0
 11 12  2  0
 14 13  2  0
 15 14  1  0
 16 17  1  0
 16 15  2  0
 17 18  2  0
 18 13  1  0
  2 19  1  0
  3 20  1  0
  4 21  1  0
  5 22  1  0
  7 23  1  0
  8 24  1  0
  8 25  1  0
  8 26  1  0
  9 27  1  0
  9 28  1  0
  9 29  1  0
 13 30  1  0
 14 31  1  0
 17 32  1  0
M  ISO  8  19  14  20  14  21  14  22  14  23   8  24   8  25   8  26   8
M  ISO  6  27   8  28   8  29   8  30  14  31  14  32  14
M  END
>  <minimizedAffinity>  (1) 
-4.87360477

>  <minimizedRMSD>  (1) 
1.1641041

$$$$
