
     RDKit          3D

 31 33  0  0  0  0  0  0  0  0999 V2000
   36.8340   27.7910   33.3760 C   0  0  0  0  0  0  0  0  0  0  0  0
   37.6310   27.1310   32.4680 C   0  0  0  0  0  0  0  0  0  0  0  0
   37.7520   27.6330   31.1780 C   0  0  0  0  0  0  0  0  0  0  0  0
   37.0830   28.7820   30.8010 C   0  0  0  0  0  0  0  0  0  0  0  0
   36.2920   29.4290   31.7150 C   0  0  0  0  0  0  0  0  0  0  0  0
   36.1600   28.9520   32.9900 C   0  0  0  0  0  0  0  0  0  0  0  0
   35.3330   29.5970   34.0070 C   0  0  0  0  0  0  0  0  0  0  0  0
   35.7740   30.5690   34.8560 C   0  0  0  0  0  0  0  0  0  0  0  0
   34.9870   31.1730   35.8140 C   0  0  0  0  0  0  0  0  0  0  0  0
   33.7110   30.8010   35.9380 N   0  0  0  0  0  0  0  0  0  0  0  0
   33.2470   29.8450   35.1160 C   0  0  0  0  0  0  0  0  0  0  0  0
   34.0240   29.2720   34.1960 N   0  0  0  0  0  0  0  0  0  0  0  0
   36.6930   27.3140   34.6760 O   0  0  0  0  0  0  0  0  0  0  0  0
   37.7540   26.8870   35.4470 C   0  0  0  0  0  0  0  0  0  0  0  0
   38.5690   27.7790   35.7890 O   0  0  0  0  0  0  0  0  0  0  0  0
   38.0100   23.6250   37.3320 C   0  0  0  0  0  0  0  0  0  0  0  0
   37.8830   24.9980   37.1170 C   0  0  0  0  0  0  0  0  0  0  0  0
   37.8780   25.4850   35.8140 C   0  0  0  0  0  0  0  0  0  0  0  0
   37.9990   24.5810   34.7850 N   0  0  0  0  0  0  0  0  0  0  0  0
   38.1200   23.2540   35.0150 C   0  0  0  0  0  0  0  0  0  0  0  0
   38.1250   22.7740   36.2730 N   0  0  0  0  0  0  0  0  0  0  0  0
   38.1665   26.2158   32.7607 H   0  0  0  0  0  0  0  0  0  0  0  0
   38.3876   27.1098   30.4484 H   0  0  0  0  0  0  0  0  0  0  0  0
   37.1841   29.1735   29.7780 H   0  0  0  0  0  0  0  0  0  0  0  0
   35.7568   30.3433   31.4191 H   0  0  0  0  0  0  0  0  0  0  0  0
   36.8224   30.8912   34.7714 H   0  0  0  0  0  0  0  0  0  0  0  0
   35.4057   31.9520   36.4681 H   0  0  0  0  0  0  0  0  0  0  0  0
   32.1979   29.5263   35.2042 H   0  0  0  0  0  0  0  0  0  0  0  0
   38.0173   23.2285   38.3580 H   0  0  0  0  0  0  0  0  0  0  0  0
   37.7879   25.6877   37.9687 H   0  0  0  0  0  0  0  0  0  0  0  0
   38.2152   22.5603   34.1666 H   0  0  0  0  0  0  0  0  0  0  0  0
  1 13  1  0
  2  1  2  0
  3  2  1  0
  4  3  2  0
  4  5  1  0
  5  6  2  0
  6  1  1  0
  6  7  1  0
  7 12  1  0
  7  8  2  0
  8  9  1  0
  9 10  2  0
 11 10  1  0
 12 11  2  0
 13 14  1  0
 14 15  2  0
 14 18  1  0
 17 16  2  0
 18 17  1  0
 19 20  1  0
 19 18  2  0
 20 21  2  0
 21 16  1  0
  2 22  1  0
  3 23  1  0
  4 24  1  0
  5 25  1  0
  8 26  1  0
  9 27  1  0
 11 28  1  0
 16 29  1  0
 17 30  1  0
 20 31  1  0
M  ISO  8  22  14  23  14  24  14  25  14  26  14  27  14  28  14  29  14
M  ISO  2  30  14  31  14
M  END
>  <minimizedAffinity>  (1) 
-4.99998903

>  <minimizedRMSD>  (1) 
1.30790699

$$$$
