
     RDKit          3D

 46 49  0  0  0  0  0  0  0  0999 V2000
   36.7500   28.0020   33.3830 C   0  0  0  0  0  0  0  0  0  0  0  0
   37.5300   27.3830   32.4460 C   0  0  0  0  0  0  0  0  0  0  0  0
   37.6040   27.9060   31.1570 C   0  0  0  0  0  0  0  0  0  0  0  0
   36.8940   29.0430   30.8210 C   0  0  0  0  0  0  0  0  0  0  0  0
   36.1150   29.6530   31.7710 C   0  0  0  0  0  0  0  0  0  0  0  0
   36.0360   29.1490   33.0360 C   0  0  0  0  0  0  0  0  0  0  0  0
   35.2240   29.7520   34.0970 C   0  0  0  0  0  0  0  0  0  0  0  0
   35.6820   30.7090   34.9690 C   0  0  0  0  0  0  0  0  0  0  0  0
   34.9170   31.2740   35.9660 C   0  0  0  0  0  0  0  0  0  0  0  0
   33.6570   30.8910   36.1160 N   0  0  0  0  0  0  0  0  0  0  0  0
   33.1760   29.9560   35.2790 C   0  0  0  0  0  0  0  0  0  0  0  0
   33.9310   29.4160   34.3170 N   0  0  0  0  0  0  0  0  0  0  0  0
   36.6710   27.4910   34.6620 O   0  0  0  0  0  0  0  0  0  0  0  0
   37.7420   26.9270   35.3420 C   0  0  0  0  0  0  0  0  0  0  0  0
   38.5930   27.7470   35.7970 O   0  0  0  0  0  0  0  0  0  0  0  0
   38.1420   23.4230   36.6730 C   0  0  0  0  0  0  0  0  0  0  0  0
   38.0760   24.8190   36.6800 C   0  0  0  0  0  0  0  0  0  0  0  0
   37.8380   25.4900   35.4970 C   0  0  0  0  0  0  0  0  0  0  0  0
   37.6740   24.7360   34.3590 N   0  0  0  0  0  0  0  0  0  0  0  0
   37.7390   23.3910   34.3650 C   0  0  0  0  0  0  0  0  0  0  0  0
   37.9700   22.7300   35.5040 N   0  0  0  0  0  0  0  0  0  0  0  0
   37.5620   22.6610   33.1570 N   0  0  0  0  0  0  0  0  0  0  0  0
   37.3090   23.3270   31.8960 C   0  0  0  0  0  0  0  0  0  0  0  0
   35.8750   22.9870   31.5520 C   0  0  0  0  0  0  0  0  0  0  0  0
   35.7230   21.5230   31.3750 C   0  0  0  0  0  0  0  0  0  0  0  0
   36.8040   20.6620   31.9420 C   0  0  0  0  0  0  0  0  0  0  0  0
   37.6110   21.2420   33.0480 C   0  0  0  0  0  0  0  0  0  0  0  0
   38.0959   26.4770   32.7086 H   0  0  0  0  0  0  0  0  0  0  0  0
   38.2317   27.4107   30.4016 H   0  0  0  0  0  0  0  0  0  0  0  0
   36.9529   29.4545   29.8026 H   0  0  0  0  0  0  0  0  0  0  0  0
   35.5478   30.5586   31.5098 H   0  0  0  0  0  0  0  0  0  0  0  0
   36.7242   31.0453   34.8651 H   0  0  0  0  0  0  0  0  0  0  0  0
   35.3482   32.0362   36.6316 H   0  0  0  0  0  0  0  0  0  0  0  0
   32.1324   29.6260   35.3885 H   0  0  0  0  0  0  0  0  0  0  0  0
   38.3328   22.8787   37.6097 H   0  0  0  0  0  0  0  0  0  0  0  0
   38.2122   25.3772   37.6180 H   0  0  0  0  0  0  0  0  0  0  0  0
   37.4333   24.4148   32.0019 H   0  0  0  0  0  0  0  0  0  0  0  0
   38.0090   23.0041   31.1113 H   0  0  0  0  0  0  0  0  0  0  0  0
   35.2165   23.3247   32.3658 H   0  0  0  0  0  0  0  0  0  0  0  0
   35.6022   23.4917   30.6135 H   0  0  0  0  0  0  0  0  0  0  0  0
   34.7767   21.2264   31.8510 H   0  0  0  0  0  0  0  0  0  0  0  0
   35.7627   21.3580   30.2882 H   0  0  0  0  0  0  0  0  0  0  0  0
   36.3334   19.7424   32.3200 H   0  0  0  0  0  0  0  0  0  0  0  0
   37.5143   20.5098   31.1160 H   0  0  0  0  0  0  0  0  0  0  0  0
   37.2469   20.8156   33.9943 H   0  0  0  0  0  0  0  0  0  0  0  0
   38.6583   20.9897   32.8254 H   0  0  0  0  0  0  0  0  0  0  0  0
  1 13  1  0
  2  1  2  0
  3  2  1  0
  4  3  2  0
  4  5  1  0
  5  6  2  0
  6  1  1  0
  6  7  1  0
  7 12  1  0
  7  8  2  0
  8  9  1  0
  9 10  2  0
 11 10  1  0
 12 11  2  0
 13 14  1  0
 14 18  1  0
 14 15  2  0
 16 17  2  0
 18 17  1  0
 19 20  1  0
 19 18  2  0
 20 21  2  0
 21 16  1  0
 22 20  1  0
 23 22  1  0
 24 23  1  0
 25 24  1  0
 25 26  1  0
 26 27  1  0
 27 22  1  0
  2 28  1  0
  3 29  1  0
  4 30  1  0
  5 31  1  0
  8 32  1  0
  9 33  1  0
 11 34  1  0
 16 35  1  0
 17 36  1  0
 23 37  1  0
 23 38  1  0
 24 39  1  0
 24 40  1  0
 25 41  1  0
 25 42  1  0
 26 43  1  0
 26 44  1  0
 27 45  1  0
 27 46  1  0
M  ISO  8  28  14  29  14  30  14  31  14  32  14  33  14  34  14  35  14
M  ISO  8  36  14  37  13  38  13  39  13  40  13  41  13  42  13  43  13
M  ISO  3  44  13  45  13  46  13
M  END
>  <minimizedAffinity>  (1) 
-6.23355103

>  <minimizedRMSD>  (1) 
0.695495725

$$$$
