
     RDKit          3D

 47 50  0  0  0  0  0  0  0  0999 V2000
   36.7770   27.9770   33.4060 C   0  0  0  0  0  0  0  0  0  0  0  0
   37.5600   27.3540   32.4770 C   0  0  0  0  0  0  0  0  0  0  0  0
   37.6430   27.8600   31.1820 C   0  0  0  0  0  0  0  0  0  0  0  0
   36.9270   29.0010   30.8390 C   0  0  0  0  0  0  0  0  0  0  0  0
   36.1450   29.6160   31.7830 C   0  0  0  0  0  0  0  0  0  0  0  0
   36.0600   29.1210   33.0560 C   0  0  0  0  0  0  0  0  0  0  0  0
   35.2470   29.7300   34.1040 C   0  0  0  0  0  0  0  0  0  0  0  0
   35.7000   30.6910   34.9750 C   0  0  0  0  0  0  0  0  0  0  0  0
   34.9280   31.2620   35.9620 C   0  0  0  0  0  0  0  0  0  0  0  0
   33.6680   30.8800   36.1020 N   0  0  0  0  0  0  0  0  0  0  0  0
   33.1960   29.9390   35.2640 C   0  0  0  0  0  0  0  0  0  0  0  0
   33.9540   29.3900   34.3070 N   0  0  0  0  0  0  0  0  0  0  0  0
   36.6950   27.4730   34.6890 O   0  0  0  0  0  0  0  0  0  0  0  0
   37.7400   26.9210   35.3870 C   0  0  0  0  0  0  0  0  0  0  0  0
   38.5750   27.7540   35.8350 O   0  0  0  0  0  0  0  0  0  0  0  0
   38.1550   23.4530   36.7970 C   0  0  0  0  0  0  0  0  0  0  0  0
   38.0850   24.8370   36.7730 C   0  0  0  0  0  0  0  0  0  0  0  0
   37.8420   25.4880   35.5740 C   0  0  0  0  0  0  0  0  0  0  0  0
   37.6820   24.7120   34.4580 N   0  0  0  0  0  0  0  0  0  0  0  0
   37.7520   23.3610   34.4910 C   0  0  0  0  0  0  0  0  0  0  0  0
   37.9870   22.7260   35.6430 N   0  0  0  0  0  0  0  0  0  0  0  0
   37.5720   22.5580   33.2530 C   0  0  0  0  0  0  0  0  0  0  0  0
   36.9170   23.3020   32.1340 C   0  0  0  0  0  0  0  0  0  0  0  0
   36.3330   22.2760   31.1760 C   0  0  0  0  0  0  0  0  0  0  0  0
   37.1360   20.9980   31.1600 C   0  0  0  0  0  0  0  0  0  0  0  0
   36.9040   20.2960   32.4890 C   0  0  0  0  0  0  0  0  0  0  0  0
   36.7080   21.3330   33.5710 C   0  0  0  0  0  0  0  0  0  0  0  0
   38.1258   26.4515   32.7516 H   0  0  0  0  0  0  0  0  0  0  0  0
   38.2732   27.3582   30.4330 H   0  0  0  0  0  0  0  0  0  0  0  0
   36.9871   29.4074   29.8186 H   0  0  0  0  0  0  0  0  0  0  0  0
   35.5784   30.5194   31.5132 H   0  0  0  0  0  0  0  0  0  0  0  0
   36.7436   31.0249   34.8780 H   0  0  0  0  0  0  0  0  0  0  0  0
   35.3537   32.0276   36.6273 H   0  0  0  0  0  0  0  0  0  0  0  0
   32.1517   29.6097   35.3689 H   0  0  0  0  0  0  0  0  0  0  0  0
   38.3465   22.9326   37.7470 H   0  0  0  0  0  0  0  0  0  0  0  0
   38.2214   25.4146   37.6992 H   0  0  0  0  0  0  0  0  0  0  0  0
   38.5834   22.2842   32.9180 H   0  0  0  0  0  0  0  0  0  0  0  0
   36.1160   23.9440   32.5293 H   0  0  0  0  0  0  0  0  0  0  0  0
   37.6479   23.9404   31.6161 H   0  0  0  0  0  0  0  0  0  0  0  0
   35.3035   22.0450   31.4870 H   0  0  0  0  0  0  0  0  0  0  0  0
   36.3552   22.7047   30.1632 H   0  0  0  0  0  0  0  0  0  0  0  0
   36.8022   20.3550   30.3323 H   0  0  0  0  0  0  0  0  0  0  0  0
   38.2051   21.2138   31.0172 H   0  0  0  0  0  0  0  0  0  0  0  0
   36.0071   19.6631   32.4191 H   0  0  0  0  0  0  0  0  0  0  0  0
   37.7737   19.6680   32.7321 H   0  0  0  0  0  0  0  0  0  0  0  0
   37.0076   20.9130   34.5425 H   0  0  0  0  0  0  0  0  0  0  0  0
   35.6490   21.6274   33.6151 H   0  0  0  0  0  0  0  0  0  0  0  0
  1 13  1  0
  2  1  2  0
  3  2  1  0
  4  3  2  0
  4  5  1  0
  5  6  2  0
  6  1  1  0
  6  7  1  0
  7 12  1  0
  7  8  2  0
  8  9  1  0
  9 10  2  0
 11 10  1  0
 12 11  2  0
 13 14  1  0
 14 18  1  0
 14 15  2  0
 17 16  2  0
 18 17  1  0
 19 20  1  0
 19 18  2  0
 20 21  2  0
 21 16  1  0
 22 27  1  0
 22 20  1  0
 23 22  1  0
 24 23  1  0
 25 24  1  0
 25 26  1  0
 26 27  1  0
  2 28  1  0
  3 29  1  0
  4 30  1  0
  5 31  1  0
  8 32  1  0
  9 33  1  0
 11 34  1  0
 16 35  1  0
 17 36  1  0
 22 37  1  0
 23 38  1  0
 23 39  1  0
 24 40  1  0
 24 41  1  0
 25 42  1  0
 25 43  1  0
 26 44  1  0
 26 45  1  0
 27 46  1  0
 27 47  1  0
M  ISO  8  28  14  29  14  30  14  31  14  32  14  33  14  34  14  35  14
M  ISO  8  36  14  37  13  38  13  39  13  40  13  41  13  42  13  43  13
M  ISO  4  44  13  45  13  46  13  47  13
M  END
>  <minimizedAffinity>  (1) 
-5.90287495

>  <minimizedRMSD>  (1) 
0.852153003

$$$$
