
     RDKit          3D

 43 46  0  0  0  0  0  0  0  0999 V2000
   36.7430   27.9950   33.3970 C   0  0  0  0  0  0  0  0  0  0  0  0
   37.5240   27.3760   32.4630 C   0  0  0  0  0  0  0  0  0  0  0  0
   37.6060   27.9000   31.1740 C   0  0  0  0  0  0  0  0  0  0  0  0
   36.8980   29.0440   30.8410 C   0  0  0  0  0  0  0  0  0  0  0  0
   36.1140   29.6590   31.7960 C   0  0  0  0  0  0  0  0  0  0  0  0
   36.0310   29.1500   33.0560 C   0  0  0  0  0  0  0  0  0  0  0  0
   35.2220   29.7500   34.1110 C   0  0  0  0  0  0  0  0  0  0  0  0
   35.6750   30.7090   34.9840 C   0  0  0  0  0  0  0  0  0  0  0  0
   34.8850   31.2610   35.9760 C   0  0  0  0  0  0  0  0  0  0  0  0
   33.6270   30.8710   36.1200 N   0  0  0  0  0  0  0  0  0  0  0  0
   33.1560   29.9330   35.2780 C   0  0  0  0  0  0  0  0  0  0  0  0
   33.9180   29.3970   34.3180 N   0  0  0  0  0  0  0  0  0  0  0  0
   36.6580   27.4810   34.6760 O   0  0  0  0  0  0  0  0  0  0  0  0
   37.7260   26.9390   35.3710 C   0  0  0  0  0  0  0  0  0  0  0  0
   38.5550   27.7760   35.8290 O   0  0  0  0  0  0  0  0  0  0  0  0
   38.0900   23.4480   36.7400 C   0  0  0  0  0  0  0  0  0  0  0  0
   37.9810   24.8410   36.7410 C   0  0  0  0  0  0  0  0  0  0  0  0
   37.8490   25.5080   35.5370 C   0  0  0  0  0  0  0  0  0  0  0  0
   37.8340   24.7540   34.4000 N   0  0  0  0  0  0  0  0  0  0  0  0
   37.9410   23.4040   34.4040 C   0  0  0  0  0  0  0  0  0  0  0  0
   38.0690   22.7590   35.5700 N   0  0  0  0  0  0  0  0  0  0  0  0
   37.9210   22.6650   33.1870 N   0  0  0  0  0  0  0  0  0  0  0  0
   37.4910   23.1580   31.8900 C   0  0  0  0  0  0  0  0  0  0  0  0
   36.6260   21.9910   31.4430 C   0  0  0  0  0  0  0  0  0  0  0  0
   37.1270   20.7780   32.2000 C   0  0  0  0  0  0  0  0  0  0  0  0
   38.3200   21.2800   33.0010 C   0  0  0  0  0  0  0  0  0  0  0  0
   38.0858   26.4679   32.7269 H   0  0  0  0  0  0  0  0  0  0  0  0
   38.2342   27.4044   30.4192 H   0  0  0  0  0  0  0  0  0  0  0  0
   36.9604   29.4584   29.8240 H   0  0  0  0  0  0  0  0  0  0  0  0
   35.5515   30.5681   31.5369 H   0  0  0  0  0  0  0  0  0  0  0  0
   36.7152   31.0542   34.8896 H   0  0  0  0  0  0  0  0  0  0  0  0
   35.3023   32.0260   36.6473 H   0  0  0  0  0  0  0  0  0  0  0  0
   32.1137   29.5971   35.3821 H   0  0  0  0  0  0  0  0  0  0  0  0
   38.1934   22.9066   37.6920 H   0  0  0  0  0  0  0  0  0  0  0  0
   38.0000   25.4002   37.6881 H   0  0  0  0  0  0  0  0  0  0  0  0
   36.9098   24.0878   31.9780 H   0  0  0  0  0  0  0  0  0  0  0  0
   38.3055   23.4242   31.2002 H   0  0  0  0  0  0  0  0  0  0  0  0
   35.5708   22.1834   31.6868 H   0  0  0  0  0  0  0  0  0  0  0  0
   36.6897   21.8388   30.3554 H   0  0  0  0  0  0  0  0  0  0  0  0
   36.3459   20.3909   32.8709 H   0  0  0  0  0  0  0  0  0  0  0  0
   37.3994   19.9529   31.5255 H   0  0  0  0  0  0  0  0  0  0  0  0
   38.4222   20.7505   33.9597 H   0  0  0  0  0  0  0  0  0  0  0  0
   39.2992   21.1361   32.5209 H   0  0  0  0  0  0  0  0  0  0  0  0
  1 13  1  0
  2  1  2  0
  3  2  1  0
  4  3  2  0
  4  5  1  0
  5  6  2  0
  6  1  1  0
  6  7  1  0
  7 12  1  0
  7  8  2  0
  8  9  1  0
  9 10  2  0
 11 10  1  0
 12 11  2  0
 13 14  1  0
 14 18  1  0
 14 15  2  0
 16 17  2  0
 18 17  1  0
 19 20  1  0
 19 18  2  0
 20 21  2  0
 21 16  1  0
 22 20  1  0
 23 22  1  0
 24 23  1  0
 24 25  1  0
 25 26  1  0
 26 22  1  0
  2 27  1  0
  3 28  1  0
  4 29  1  0
  5 30  1  0
  8 31  1  0
  9 32  1  0
 11 33  1  0
 16 34  1  0
 17 35  1  0
 23 36  1  0
 23 37  1  0
 24 38  1  0
 24 39  1  0
 25 40  1  0
 25 41  1  0
 26 42  1  0
 26 43  1  0
M  ISO  8  27  14  28  14  29  14  30  14  31  14  32  14  33  14  34  14
M  ISO  8  35  14  36  13  37  13  38  13  39  13  40  13  41  13  42  13
M  ISO  1  43  13
M  END
>  <minimizedAffinity>  (1) 
-5.88180447

>  <minimizedRMSD>  (1) 
0.544965327

$$$$
