
     RDKit          3D

 38 41  0  0  0  0  0  0  0  0999 V2000
   36.8890   27.6630   33.3900 C   0  0  0  0  0  0  0  0  0  0  0  0
   37.6840   26.9720   32.5190 C   0  0  0  0  0  0  0  0  0  0  0  0
   37.7950   27.3910   31.1960 C   0  0  0  0  0  0  0  0  0  0  0  0
   37.1020   28.5060   30.7590 C   0  0  0  0  0  0  0  0  0  0  0  0
   36.3040   29.1930   31.6490 C   0  0  0  0  0  0  0  0  0  0  0  0
   36.1960   28.7830   32.9460 C   0  0  0  0  0  0  0  0  0  0  0  0
   35.3650   29.4740   33.9390 C   0  0  0  0  0  0  0  0  0  0  0  0
   35.8260   30.4720   34.7630 C   0  0  0  0  0  0  0  0  0  0  0  0
   35.0470   31.1220   35.6960 C   0  0  0  0  0  0  0  0  0  0  0  0
   33.7700   30.7790   35.8240 N   0  0  0  0  0  0  0  0  0  0  0  0
   33.2960   29.8080   35.0320 C   0  0  0  0  0  0  0  0  0  0  0  0
   34.0590   29.1810   34.1290 N   0  0  0  0  0  0  0  0  0  0  0  0
   36.7770   27.2510   34.7030 O   0  0  0  0  0  0  0  0  0  0  0  0
   37.8120   26.7920   35.4710 C   0  0  0  0  0  0  0  0  0  0  0  0
   38.6820   27.6610   35.7690 O   0  0  0  0  0  0  0  0  0  0  0  0
   37.9500   23.5950   37.4650 C   0  0  0  0  0  0  0  0  0  0  0  0
   37.8680   24.9620   37.2110 C   0  0  0  0  0  0  0  0  0  0  0  0
   37.8870   25.4090   35.8990 C   0  0  0  0  0  0  0  0  0  0  0  0
   37.9880   24.4720   34.9050 N   0  0  0  0  0  0  0  0  0  0  0  0
   38.0660   23.1430   35.1600 C   0  0  0  0  0  0  0  0  0  0  0  0
   38.0480   22.7030   36.4280 N   0  0  0  0  0  0  0  0  0  0  0  0
   38.1680   22.2370   34.0640 N   0  0  0  0  0  0  0  0  0  0  0  0
   37.0540   21.5770   33.6890 C   0  0  0  0  0  0  0  0  0  0  0  0
   37.4490   20.7800   32.6150 C   0  0  0  0  0  0  0  0  0  0  0  0
   38.7600   20.9640   32.3600 N   0  0  0  0  0  0  0  0  0  0  0  0
   39.1950   21.8660   33.2600 C   0  0  0  0  0  0  0  0  0  0  0  0
   38.2360   26.0850   32.8633 H   0  0  0  0  0  0  0  0  0  0  0  0
   38.4354   26.8341   30.4962 H   0  0  0  0  0  0  0  0  0  0  0  0
   37.1867   28.8402   29.7144 H   0  0  0  0  0  0  0  0  0  0  0  0
   35.7490   30.0802   31.3102 H   0  0  0  0  0  0  0  0  0  0  0  0
   36.8809   30.7705   34.6727 H   0  0  0  0  0  0  0  0  0  0  0  0
   35.4771   31.9143   36.3263 H   0  0  0  0  0  0  0  0  0  0  0  0
   32.2400   29.5152   35.1276 H   0  0  0  0  0  0  0  0  0  0  0  0
   37.9361   23.2292   38.5023 H   0  0  0  0  0  0  0  0  0  0  0  0
   37.7891   25.6786   38.0419 H   0  0  0  0  0  0  0  0  0  0  0  0
   36.0507   21.6511   34.1338 H   0  0  0  0  0  0  0  0  0  0  0  0
   36.7876   20.1005   32.0574 H   0  0  0  0  0  0  0  0  0  0  0  0
   40.2255   22.2440   33.3320 H   0  0  0  0  0  0  0  0  0  0  0  0
  1 13  1  0
  2  1  2  0
  3  2  1  0
  4  3  2  0
  4  5  1  0
  5  6  2  0
  6  1  1  0
  6  7  1  0
  7 12  1  0
  7  8  2  0
  8  9  1  0
  9 10  2  0
 11 10  1  0
 12 11  2  0
 13 14  1  0
 14 15  2  0
 14 18  1  0
 17 16  2  0
 18 17  1  0
 19 20  1  0
 19 18  2  0
 20 21  2  0
 21 16  1  0
 22 20  1  0
 23 22  1  0
 24 23  2  0
 25 24  1  0
 25 26  2  0
 26 22  1  0
  2 27  1  0
  3 28  1  0
  4 29  1  0
  5 30  1  0
  8 31  1  0
  9 32  1  0
 11 33  1  0
 16 34  1  0
 17 35  1  0
 23 36  1  0
 24 37  1  0
 26 38  1  0
M  ISO  8  27  14  28  14  29  14  30  14  31  14  32  14  33  14  34  14
M  ISO  4  35  14  36  14  37  14  38  14
M  END
>  <minimizedAffinity>  (1) 
-5.80922651

>  <minimizedRMSD>  (1) 
0.195338324

$$$$
