
     RDKit          3D

 38 41  0  0  0  0  0  0  0  0999 V2000
   36.8420   27.6830   33.4050 C   0  0  0  0  0  0  0  0  0  0  0  0
   37.6260   26.9930   32.5230 C   0  0  0  0  0  0  0  0  0  0  0  0
   37.7300   27.4260   31.2010 C   0  0  0  0  0  0  0  0  0  0  0  0
   37.0400   28.5540   30.7830 C   0  0  0  0  0  0  0  0  0  0  0  0
   36.2570   29.2380   31.6820 C   0  0  0  0  0  0  0  0  0  0  0  0
   36.1500   28.8210   32.9750 C   0  0  0  0  0  0  0  0  0  0  0  0
   35.3360   29.5010   33.9760 C   0  0  0  0  0  0  0  0  0  0  0  0
   35.8000   30.4970   34.8030 C   0  0  0  0  0  0  0  0  0  0  0  0
   35.0210   31.1340   35.7460 C   0  0  0  0  0  0  0  0  0  0  0  0
   33.7500   30.7870   35.8860 N   0  0  0  0  0  0  0  0  0  0  0  0
   33.2680   29.8180   35.0910 C   0  0  0  0  0  0  0  0  0  0  0  0
   34.0270   29.2010   34.1760 N   0  0  0  0  0  0  0  0  0  0  0  0
   36.7380   27.2570   34.7140 O   0  0  0  0  0  0  0  0  0  0  0  0
   37.7940   26.8290   35.4800 C   0  0  0  0  0  0  0  0  0  0  0  0
   38.6520   27.7120   35.7670 O   0  0  0  0  0  0  0  0  0  0  0  0
   37.9880   23.6330   37.4820 C   0  0  0  0  0  0  0  0  0  0  0  0
   37.8900   25.0070   37.2260 C   0  0  0  0  0  0  0  0  0  0  0  0
   37.8880   25.4490   35.9150 C   0  0  0  0  0  0  0  0  0  0  0  0
   37.9860   24.4980   34.9230 N   0  0  0  0  0  0  0  0  0  0  0  0
   38.0800   23.1780   35.1850 C   0  0  0  0  0  0  0  0  0  0  0  0
   38.0810   22.7550   36.4560 N   0  0  0  0  0  0  0  0  0  0  0  0
   38.1810   22.2130   34.0930 C   0  0  0  0  0  0  0  0  0  0  0  0
   39.2020   21.6540   33.3380 C   0  0  0  0  0  0  0  0  0  0  0  0
   38.5700   20.7910   32.4560 C   0  0  0  0  0  0  0  0  0  0  0  0
   37.2140   20.8670   32.7130 C   0  0  0  0  0  0  0  0  0  0  0  0
   37.0210   21.7200   33.6900 O   0  0  0  0  0  0  0  0  0  0  0  0
   38.1735   26.0985   32.8549 H   0  0  0  0  0  0  0  0  0  0  0  0
   38.3600   26.8721   30.4894 H   0  0  0  0  0  0  0  0  0  0  0  0
   37.1186   28.8983   29.7412 H   0  0  0  0  0  0  0  0  0  0  0  0
   35.7095   30.1338   31.3535 H   0  0  0  0  0  0  0  0  0  0  0  0
   36.8522   30.8029   34.7069 H   0  0  0  0  0  0  0  0  0  0  0  0
   35.4519   31.9248   36.3776 H   0  0  0  0  0  0  0  0  0  0  0  0
   32.2140   29.5209   35.1948 H   0  0  0  0  0  0  0  0  0  0  0  0
   37.9894   23.2669   38.5193 H   0  0  0  0  0  0  0  0  0  0  0  0
   37.8156   25.7247   38.0563 H   0  0  0  0  0  0  0  0  0  0  0  0
   40.2807   21.8527   33.4213 H   0  0  0  0  0  0  0  0  0  0  0  0
   39.0564   20.1636   31.6946 H   0  0  0  0  0  0  0  0  0  0  0  0
   36.4282   20.3058   32.1861 H   0  0  0  0  0  0  0  0  0  0  0  0
  1 13  1  0
  2  1  2  0
  3  2  1  0
  4  3  2  0
  4  5  1  0
  5  6  2  0
  6  1  1  0
  6  7  1  0
  7 12  1  0
  7  8  2  0
  8  9  1  0
  9 10  2  0
 11 10  1  0
 12 11  2  0
 13 14  1  0
 14 15  2  0
 14 18  1  0
 17 16  2  0
 18 17  1  0
 19 20  1  0
 19 18  2  0
 20 21  2  0
 21 16  1  0
 22 20  1  0
 23 22  2  0
 24 25  2  0
 24 23  1  0
 25 26  1  0
 26 22  1  0
  2 27  1  0
  3 28  1  0
  4 29  1  0
  5 30  1  0
  8 31  1  0
  9 32  1  0
 11 33  1  0
 16 34  1  0
 17 35  1  0
 23 36  1  0
 24 37  1  0
 25 38  1  0
M  ISO  8  27  14  28  14  29  14  30  14  31  14  32  14  33  14  34  14
M  ISO  4  35  14  36  14  37  14  38  14
M  END
>  <minimizedAffinity>  (1) 
-5.59274673

>  <minimizedRMSD>  (1) 
0.317197859

$$$$
