
     RDKit          3D

 38 41  0  0  0  0  0  0  0  0999 V2000
   36.8690   27.6570   33.3830 C   0  0  0  0  0  0  0  0  0  0  0  0
   37.6540   26.9640   32.5080 C   0  0  0  0  0  0  0  0  0  0  0  0
   37.7660   27.3970   31.1900 C   0  0  0  0  0  0  0  0  0  0  0  0
   37.0850   28.5270   30.7640 C   0  0  0  0  0  0  0  0  0  0  0  0
   36.2990   29.2120   31.6590 C   0  0  0  0  0  0  0  0  0  0  0  0
   36.1830   28.7930   32.9550 C   0  0  0  0  0  0  0  0  0  0  0  0
   35.3640   29.4810   33.9470 C   0  0  0  0  0  0  0  0  0  0  0  0
   35.8240   30.4760   34.7770 C   0  0  0  0  0  0  0  0  0  0  0  0
   35.0350   31.1160   35.7090 C   0  0  0  0  0  0  0  0  0  0  0  0
   33.7620   30.7740   35.8350 N   0  0  0  0  0  0  0  0  0  0  0  0
   33.2800   29.8110   35.0460 C   0  0  0  0  0  0  0  0  0  0  0  0
   34.0520   29.1930   34.1390 N   0  0  0  0  0  0  0  0  0  0  0  0
   36.7490   27.2380   34.6930 O   0  0  0  0  0  0  0  0  0  0  0  0
   37.8110   26.8080   35.4700 C   0  0  0  0  0  0  0  0  0  0  0  0
   38.6770   27.6860   35.7510 O   0  0  0  0  0  0  0  0  0  0  0  0
   37.9920   23.6310   37.4870 C   0  0  0  0  0  0  0  0  0  0  0  0
   37.9130   24.9960   37.2270 C   0  0  0  0  0  0  0  0  0  0  0  0
   37.8900   25.4300   35.9130 C   0  0  0  0  0  0  0  0  0  0  0  0
   37.9450   24.4800   34.9350 N   0  0  0  0  0  0  0  0  0  0  0  0
   38.0220   23.1520   35.1930 C   0  0  0  0  0  0  0  0  0  0  0  0
   38.0440   22.7350   36.4640 N   0  0  0  0  0  0  0  0  0  0  0  0
   38.0770   22.1960   34.0910 C   0  0  0  0  0  0  0  0  0  0  0  0
   36.9890   21.5900   33.4970 C   0  0  0  0  0  0  0  0  0  0  0  0
   37.4750   20.7850   32.5310 N   0  0  0  0  0  0  0  0  0  0  0  0
   38.8310   20.8650   32.4970 C   0  0  0  0  0  0  0  0  0  0  0  0
   39.1740   21.7360   33.4640 N   0  0  0  0  0  0  0  0  0  0  0  0
   38.1958   26.0672   32.8428 H   0  0  0  0  0  0  0  0  0  0  0  0
   38.3980   26.8399   30.4828 H   0  0  0  0  0  0  0  0  0  0  0  0
   37.1728   28.8708   29.7228 H   0  0  0  0  0  0  0  0  0  0  0  0
   35.7559   30.1095   31.3282 H   0  0  0  0  0  0  0  0  0  0  0  0
   36.8785   30.7777   34.6929 H   0  0  0  0  0  0  0  0  0  0  0  0
   35.4607   31.9065   36.3445 H   0  0  0  0  0  0  0  0  0  0  0  0
   32.2244   29.5170   35.1417 H   0  0  0  0  0  0  0  0  0  0  0  0
   38.0126   23.2737   38.5272 H   0  0  0  0  0  0  0  0  0  0  0  0
   37.8695   25.7197   38.0542 H   0  0  0  0  0  0  0  0  0  0  0  0
   35.9310   21.7354   33.7604 H   0  0  0  0  0  0  0  0  0  0  0  0
   39.5096   20.3278   31.8181 H   0  0  0  0  0  0  0  0  0  0  0  0
   40.1401   22.0113   33.6916 H   0  0  0  0  0  0  0  0  0  0  0  0
  1 13  1  0
  2  1  2  0
  3  2  1  0
  4  3  2  0
  4  5  1  0
  5  6  2  0
  6  1  1  0
  6  7  1  0
  7 12  1  0
  7  8  2  0
  8  9  1  0
  9 10  2  0
 11 10  1  0
 12 11  2  0
 13 14  1  0
 14 15  2  0
 14 18  1  0
 17 16  2  0
 18 17  1  0
 19 20  1  0
 19 18  2  0
 20 21  2  0
 21 16  1  0
 22 20  1  0
 23 22  2  0
 24 23  1  0
 25 24  2  0
 25 26  1  0
 26 22  1  0
  2 27  1  0
  3 28  1  0
  4 29  1  0
  5 30  1  0
  8 31  1  0
  9 32  1  0
 11 33  1  0
 16 34  1  0
 17 35  1  0
 23 36  1  0
 25 37  1  0
 26 38  1  0
M  ISO  8  27  14  28  14  29  14  30  14  31  14  32  14  33  14  34  14
M  ISO  4  35  14  36  14  37  14  38   9
M  END
>  <minimizedAffinity>  (1) 
-5.56943989

>  <minimizedRMSD>  (1) 
0.419664472

$$$$
