
     RDKit          3D

 40 42  0  0  0  0  0  0  0  0999 V2000
   36.8380   27.8340   33.4320 C   0  0  0  0  0  0  0  0  0  0  0  0
   37.6360   27.1760   32.5390 C   0  0  0  0  0  0  0  0  0  0  0  0
   37.7580   27.6490   31.2320 C   0  0  0  0  0  0  0  0  0  0  0  0
   37.0690   28.7840   30.8420 C   0  0  0  0  0  0  0  0  0  0  0  0
   36.2690   29.4370   31.7480 C   0  0  0  0  0  0  0  0  0  0  0  0
   36.1480   28.9770   33.0280 C   0  0  0  0  0  0  0  0  0  0  0  0
   35.3150   29.6240   34.0420 C   0  0  0  0  0  0  0  0  0  0  0  0
   35.7560   30.6130   34.8860 C   0  0  0  0  0  0  0  0  0  0  0  0
   34.9780   31.2260   35.8420 C   0  0  0  0  0  0  0  0  0  0  0  0
   33.7140   30.8520   35.9730 N   0  0  0  0  0  0  0  0  0  0  0  0
   33.2500   29.8870   35.1630 C   0  0  0  0  0  0  0  0  0  0  0  0
   34.0170   29.2960   34.2350 N   0  0  0  0  0  0  0  0  0  0  0  0
   36.7170   27.3650   34.7270 O   0  0  0  0  0  0  0  0  0  0  0  0
   37.7650   26.9090   35.4960 C   0  0  0  0  0  0  0  0  0  0  0  0
   38.5790   27.7880   35.8620 O   0  0  0  0  0  0  0  0  0  0  0  0
   38.0440   23.6000   37.2990 C   0  0  0  0  0  0  0  0  0  0  0  0
   37.9350   24.9830   37.1190 C   0  0  0  0  0  0  0  0  0  0  0  0
   37.8780   25.5020   35.8350 C   0  0  0  0  0  0  0  0  0  0  0  0
   37.9310   24.6230   34.7950 N   0  0  0  0  0  0  0  0  0  0  0  0
   38.0360   23.2820   34.9730 C   0  0  0  0  0  0  0  0  0  0  0  0
   38.0920   22.7800   36.2170 N   0  0  0  0  0  0  0  0  0  0  0  0
   38.0840   22.4460   33.7460 C   0  0  0  0  0  0  0  0  0  0  0  0
   36.9990   21.4190   33.7360 C   0  0  0  0  0  0  0  0  0  0  0  0
   39.4660   21.8040   33.7200 C   0  0  0  0  0  0  0  0  0  0  0  0
   38.1822   26.2734   32.8505 H   0  0  0  0  0  0  0  0  0  0  0  0
   38.4009   27.1205   30.5127 H   0  0  0  0  0  0  0  0  0  0  0  0
   37.1613   29.1610   29.8128 H   0  0  0  0  0  0  0  0  0  0  0  0
   35.7206   30.3392   31.4393 H   0  0  0  0  0  0  0  0  0  0  0  0
   36.8027   30.9378   34.7918 H   0  0  0  0  0  0  0  0  0  0  0  0
   35.3985   32.0126   36.4858 H   0  0  0  0  0  0  0  0  0  0  0  0
   32.2018   29.5693   35.2643 H   0  0  0  0  0  0  0  0  0  0  0  0
   38.0907   23.1778   38.3137 H   0  0  0  0  0  0  0  0  0  0  0  0
   37.8948   25.6536   37.9900 H   0  0  0  0  0  0  0  0  0  0  0  0
   37.9179   23.0577   32.8470 H   0  0  0  0  0  0  0  0  0  0  0  0
   36.7277   21.1622   34.7706 H   0  0  0  0  0  0  0  0  0  0  0  0
   36.1178   21.8216   33.2150 H   0  0  0  0  0  0  0  0  0  0  0  0
   37.3526   20.5171   33.2150 H   0  0  0  0  0  0  0  0  0  0  0  0
   39.8145   21.6421   34.7507 H   0  0  0  0  0  0  0  0  0  0  0  0
   39.4121   20.8387   33.1953 H   0  0  0  0  0  0  0  0  0  0  0  0
   40.1689   22.4678   33.1953 H   0  0  0  0  0  0  0  0  0  0  0  0
  1 13  1  0
  2  1  2  0
  3  2  1  0
  4  3  2  0
  4  5  1  0
  5  6  2  0
  6  1  1  0
  6  7  1  0
  7 12  1  0
  7  8  2  0
  8  9  1  0
  9 10  2  0
 11 10  1  0
 12 11  2  0
 13 14  1  0
 14 18  1  0
 14 15  2  0
 17 16  2  0
 18 17  1  0
 19 20  1  0
 19 18  2  0
 20 21  2  0
 21 16  1  0
 22 20  1  0
 23 22  1  0
 24 22  1  0
  2 25  1  0
  3 26  1  0
  4 27  1  0
  5 28  1  0
  8 29  1  0
  9 30  1  0
 11 31  1  0
 16 32  1  0
 17 33  1  0
 22 34  1  0
 23 35  1  0
 23 36  1  0
 23 37  1  0
 24 38  1  0
 24 39  1  0
 24 40  1  0
M  ISO  8  25  14  26  14  27  14  28  14  29  14  30  14  31  14  32  14
M  ISO  8  33  14  34   8  35   8  36   8  37   8  38   8  39   8  40   8
M  END
>  <minimizedAffinity>  (1) 
-5.28971386

>  <minimizedRMSD>  (1) 
0.234406441

$$$$
