
     RDKit          3D

 34 36  0  0  0  0  0  0  0  0999 V2000
   36.8450   27.7790   33.3740 C   0  0  0  0  0  0  0  0  0  0  0  0
   37.6420   27.1230   32.4760 C   0  0  0  0  0  0  0  0  0  0  0  0
   37.7690   27.6070   31.1820 C   0  0  0  0  0  0  0  0  0  0  0  0
   37.0960   28.7480   30.7990 C   0  0  0  0  0  0  0  0  0  0  0  0
   36.3030   29.4000   31.7010 C   0  0  0  0  0  0  0  0  0  0  0  0
   36.1680   28.9320   32.9820 C   0  0  0  0  0  0  0  0  0  0  0  0
   35.3370   29.5770   33.9960 C   0  0  0  0  0  0  0  0  0  0  0  0
   35.7800   30.5550   34.8430 C   0  0  0  0  0  0  0  0  0  0  0  0
   34.9900   31.1620   35.7980 C   0  0  0  0  0  0  0  0  0  0  0  0
   33.7150   30.7880   35.9200 N   0  0  0  0  0  0  0  0  0  0  0  0
   33.2570   29.8340   35.1050 C   0  0  0  0  0  0  0  0  0  0  0  0
   34.0380   29.2610   34.1880 N   0  0  0  0  0  0  0  0  0  0  0  0
   36.7140   27.2990   34.6680 O   0  0  0  0  0  0  0  0  0  0  0  0
   37.7530   26.8660   35.4470 C   0  0  0  0  0  0  0  0  0  0  0  0
   38.5730   27.7660   35.7860 O   0  0  0  0  0  0  0  0  0  0  0  0
   38.0210   23.6260   37.3470 C   0  0  0  0  0  0  0  0  0  0  0  0
   37.8980   24.9890   37.1240 C   0  0  0  0  0  0  0  0  0  0  0  0
   37.8750   25.4760   35.8330 C   0  0  0  0  0  0  0  0  0  0  0  0
   37.9770   24.5660   34.8170 N   0  0  0  0  0  0  0  0  0  0  0  0
   38.0960   23.2340   35.0380 C   0  0  0  0  0  0  0  0  0  0  0  0
   38.1180   22.7670   36.2970 N   0  0  0  0  0  0  0  0  0  0  0  0
   38.2050   22.2720   33.9080 C   0  0  0  0  0  0  0  0  0  0  0  0
   38.1811   26.2135   32.7794 H   0  0  0  0  0  0  0  0  0  0  0  0
   38.4085   27.0790   30.4594 H   0  0  0  0  0  0  0  0  0  0  0  0
   37.1969   29.1313   29.7729 H   0  0  0  0  0  0  0  0  0  0  0  0
   35.7670   30.3107   31.3954 H   0  0  0  0  0  0  0  0  0  0  0  0
   36.8284   30.8770   34.7581 H   0  0  0  0  0  0  0  0  0  0  0  0
   35.4060   31.9440   36.4502 H   0  0  0  0  0  0  0  0  0  0  0  0
   32.2086   29.5126   35.1923 H   0  0  0  0  0  0  0  0  0  0  0  0
   38.0402   23.2383   38.3762 H   0  0  0  0  0  0  0  0  0  0  0  0
   37.8188   25.6813   37.9752 H   0  0  0  0  0  0  0  0  0  0  0  0
   38.3205   21.2524   34.3043 H   0  0  0  0  0  0  0  0  0  0  0  0
   37.2951   22.3251   33.2922 H   0  0  0  0  0  0  0  0  0  0  0  0
   39.0800   22.5273   33.2922 H   0  0  0  0  0  0  0  0  0  0  0  0
  1 13  1  0
  2  1  2  0
  3  2  1  0
  4  3  2  0
  4  5  1  0
  5  6  2  0
  6  1  1  0
  6  7  1  0
  7 12  1  0
  7  8  2  0
  8  9  1  0
  9 10  2  0
 11 10  1  0
 12 11  2  0
 13 14  1  0
 14 15  2  0
 14 18  1  0
 17 16  2  0
 18 17  1  0
 19 20  1  0
 19 18  2  0
 20 21  2  0
 21 16  1  0
 22 20  1  0
  2 23  1  0
  3 24  1  0
  4 25  1  0
  5 26  1  0
  8 27  1  0
  9 28  1  0
 11 29  1  0
 16 30  1  0
 17 31  1  0
 22 32  1  0
 22 33  1  0
 22 34  1  0
M  ISO  8  23  14  24  14  25  14  26  14  27  14  28  14  29  14  30  14
M  ISO  4  31  14  32   8  33   8  34   8
M  END
>  <minimizedAffinity>  (1) 
-5.16582727

>  <minimizedRMSD>  (1) 
0.0263619311

$$$$
