
     RDKit          3D

 33 35  0  0  0  0  0  0  0  0999 V2000
   36.8410   27.7760   33.3740 C   0  0  0  0  0  0  0  0  0  0  0  0
   37.6350   27.1170   32.4790 C   0  0  0  0  0  0  0  0  0  0  0  0
   37.7660   27.6040   31.1790 C   0  0  0  0  0  0  0  0  0  0  0  0
   37.0920   28.7560   30.7980 C   0  0  0  0  0  0  0  0  0  0  0  0
   36.2950   29.4080   31.7140 C   0  0  0  0  0  0  0  0  0  0  0  0
   36.1650   28.9310   32.9880 C   0  0  0  0  0  0  0  0  0  0  0  0
   35.3380   29.5780   34.0010 C   0  0  0  0  0  0  0  0  0  0  0  0
   35.7850   30.5580   34.8530 C   0  0  0  0  0  0  0  0  0  0  0  0
   34.9890   31.1600   35.8060 C   0  0  0  0  0  0  0  0  0  0  0  0
   33.7220   30.7930   35.9300 N   0  0  0  0  0  0  0  0  0  0  0  0
   33.2570   29.8360   35.1100 C   0  0  0  0  0  0  0  0  0  0  0  0
   34.0260   29.2530   34.1880 N   0  0  0  0  0  0  0  0  0  0  0  0
   36.7080   27.2960   34.6630 O   0  0  0  0  0  0  0  0  0  0  0  0
   37.7590   26.8750   35.4480 C   0  0  0  0  0  0  0  0  0  0  0  0
   38.5780   27.7700   35.7870 O   0  0  0  0  0  0  0  0  0  0  0  0
   38.0100   23.6300   37.3490 C   0  0  0  0  0  0  0  0  0  0  0  0
   37.8920   24.9940   37.1300 C   0  0  0  0  0  0  0  0  0  0  0  0
   37.8760   25.4790   35.8370 C   0  0  0  0  0  0  0  0  0  0  0  0
   37.9790   24.5690   34.8280 N   0  0  0  0  0  0  0  0  0  0  0  0
   38.0940   23.2370   35.0410 C   0  0  0  0  0  0  0  0  0  0  0  0
   38.1110   22.7610   36.2910 N   0  0  0  0  0  0  0  0  0  0  0  0
   38.2000   22.3170   33.9590 N   0  0  0  0  0  0  0  0  0  0  0  0
   38.1695   26.2049   32.7829 H   0  0  0  0  0  0  0  0  0  0  0  0
   38.4036   27.0751   30.4553 H   0  0  0  0  0  0  0  0  0  0  0  0
   37.1931   29.1451   29.7741 H   0  0  0  0  0  0  0  0  0  0  0  0
   35.7584   30.3211   31.4168 H   0  0  0  0  0  0  0  0  0  0  0  0
   36.8336   30.8803   34.7714 H   0  0  0  0  0  0  0  0  0  0  0  0
   35.4045   31.9410   36.4597 H   0  0  0  0  0  0  0  0  0  0  0  0
   32.2067   29.5222   35.2015 H   0  0  0  0  0  0  0  0  0  0  0  0
   38.0228   23.2413   38.3780 H   0  0  0  0  0  0  0  0  0  0  0  0
   37.8116   25.6860   37.9813 H   0  0  0  0  0  0  0  0  0  0  0  0
   38.2865   21.3081   34.1475 H   0  0  0  0  0  0  0  0  0  0  0  0
   38.1901   22.6606   32.9880 H   0  0  0  0  0  0  0  0  0  0  0  0
  1 13  1  0
  2  1  2  0
  3  2  1  0
  4  3  2  0
  4  5  1  0
  5  6  2  0
  6  1  1  0
  6  7  1  0
  7 12  1  0
  7  8  2  0
  8  9  1  0
  9 10  2  0
 11 10  1  0
 12 11  2  0
 13 14  1  0
 14 15  2  0
 14 18  1  0
 17 16  2  0
 18 17  1  0
 19 20  1  0
 19 18  2  0
 20 21  2  0
 21 16  1  0
 22 20  1  0
  2 23  1  0
  3 24  1  0
  4 25  1  0
  5 26  1  0
  8 27  1  0
  9 28  1  0
 11 29  1  0
 16 30  1  0
 17 31  1  0
 22 32  1  0
 22 33  1  0
M  ISO  8  23  14  24  14  25  14  26  14  27  14  28  14  29  14  30  14
M  ISO  1  31  14
M  END
>  <minimizedAffinity>  (1) 
-5.1425724

>  <minimizedRMSD>  (1) 
0.0260615498

$$$$
