
     RDKit          3D

 46 49  0  0  1  0  0  0  0  0999 V2000
   36.7320   27.2970   34.6660 O   0  0  0  0  0  0  0  0  0  0  0  0
   36.8520   27.7690   33.3840 C   0  0  0  0  0  0  0  0  0  0  0  0
   37.6440   27.1050   32.4940 C   0  0  0  0  0  0  0  0  0  0  0  0
   37.7710   27.5800   31.1870 C   0  0  0  0  0  0  0  0  0  0  0  0
   37.0920   28.7260   30.7980 C   0  0  0  0  0  0  0  0  0  0  0  0
   36.2980   29.3830   31.7070 C   0  0  0  0  0  0  0  0  0  0  0  0
   36.1680   28.9240   32.9900 C   0  0  0  0  0  0  0  0  0  0  0  0
   35.3460   29.5710   33.9950 C   0  0  0  0  0  0  0  0  0  0  0  0
   35.7860   30.5520   34.8470 C   0  0  0  0  0  0  0  0  0  0  0  0
   34.9880   31.1510   35.7920 C   0  0  0  0  0  0  0  0  0  0  0  0
   33.7160   30.7890   35.9170 N   0  0  0  0  0  0  0  0  0  0  0  0
   33.2510   29.8270   35.0930 C   0  0  0  0  0  0  0  0  0  0  0  0
   34.0370   29.2440   34.1710 N   0  0  0  0  0  0  0  0  0  0  0  0
   37.7700   26.8540   35.4530 C   0  0  0  0  0  0  0  0  0  0  0  0
   38.6000   27.7400   35.8090 O   0  0  0  0  0  0  0  0  0  0  0  0
   38.0520   23.5870   37.3130 C   0  0  0  0  0  0  0  0  0  0  0  0
   37.9450   24.9550   37.1180 C   0  0  0  0  0  0  0  0  0  0  0  0
   37.8830   25.4600   35.8330 C   0  0  0  0  0  0  0  0  0  0  0  0
   37.9340   24.5530   34.8090 N   0  0  0  0  0  0  0  0  0  0  0  0
   38.0390   23.2190   34.9980 C   0  0  0  0  0  0  0  0  0  0  0  0
   38.0980   22.7370   36.2420 N   0  0  0  0  0  0  0  0  0  0  0  0
   38.0870   22.3090   33.8680 C   0  0  0  0  0  0  0  0  0  0  0  0
   39.1280   21.6300   33.6230 O   0  0  0  0  0  0  0  0  0  0  0  0
   36.9900   22.1540   33.0190 O   0  0  0  0  0  0  0  0  0  0  0  0
   37.0090   19.9740   32.2960 N   0  0  0  0  0  0  0  0  0  0  0  0
   35.6650   19.6770   32.6840 C   0  0  0  0  0  0  0  0  0  0  0  0
   34.7920   20.8490   32.2490 C   0  0  0  0  0  0  0  0  0  0  0  0
   35.6840   21.4750   31.1760 C   0  0  0  0  0  0  0  0  0  0  0  0
   37.0330   21.3680   31.8590 C   0  0  1  0  0  0  0  0  0  0  0  0
   38.1816   26.1972   32.8051 H   0  0  0  0  0  0  0  0  0  0  0  0
   38.4085   27.0464   30.4667 H   0  0  0  0  0  0  0  0  0  0  0  0
   37.1886   29.1055   29.7701 H   0  0  0  0  0  0  0  0  0  0  0  0
   35.7590   30.2911   31.3991 H   0  0  0  0  0  0  0  0  0  0  0  0
   36.8341   30.8767   34.7696 H   0  0  0  0  0  0  0  0  0  0  0  0
   35.4034   31.9317   36.4462 H   0  0  0  0  0  0  0  0  0  0  0  0
   32.2007   29.5113   35.1778 H   0  0  0  0  0  0  0  0  0  0  0  0
   38.1002   23.1824   38.3347 H   0  0  0  0  0  0  0  0  0  0  0  0
   37.9096   25.6354   37.9816 H   0  0  0  0  0  0  0  0  0  0  0  0
   37.6445   19.8437   33.0960 H   0  0  0  0  0  0  0  0  0  0  0  0
   35.3271   18.7537   32.1906 H   0  0  0  0  0  0  0  0  0  0  0  0
   35.5999   19.5287   33.7720 H   0  0  0  0  0  0  0  0  0  0  0  0
   33.8327   20.5085   31.8322 H   0  0  0  0  0  0  0  0  0  0  0  0
   34.5023   21.5320   33.0611 H   0  0  0  0  0  0  0  0  0  0  0  0
   35.4094   22.5213   30.9765 H   0  0  0  0  0  0  0  0  0  0  0  0
   35.6259   20.9953   30.1878 H   0  0  0  0  0  0  0  0  0  0  0  0
   37.8922   21.6640   31.2392 H   0  0  0  0  0  0  0  0  0  0  0  0
  1 14  1  0
  2  1  1  0
  3  2  2  0
  4  3  1  0
  5  4  2  0
  5  6  1  0
  6  7  2  0
  7  2  1  0
  7  8  1  0
  8 13  1  0
  8  9  2  0
  9 10  1  0
 10 11  2  0
 12 11  1  0
 13 12  2  0
 14 15  2  0
 14 18  1  0
 17 16  2  0
 18 17  1  0
 19 20  1  0
 19 18  2  0
 20 21  2  0
 21 16  1  0
 22 20  1  0
 23 22  2  0
 24 22  1  0
 25 26  1  0
 27 26  1  0
 28 29  1  0
 28 27  1  0
 29 25  1  0
 29 24  1  0
  3 30  1  0
  4 31  1  0
  5 32  1  0
  6 33  1  0
  9 34  1  0
 10 35  1  0
 12 36  1  0
 16 37  1  0
 17 38  1  0
 25 39  1  0
 26 40  1  0
 26 41  1  0
 27 42  1  0
 27 43  1  0
 28 44  1  0
 28 45  1  0
 29 46  1  6
M  ISO  8  30  14  31  14  32  14  33  14  34  14  35  14  36  14  37  14
M  ISO  8  38  14  39   5  40  13  41  13  42  13  43  13  44  13  45  13
M  ISO  1  46  13
M  END
>  <minimizedAffinity>  (1) 
-5.94293642

>  <minimizedRMSD>  (1) 
1.12454152

$$$$
