
     RDKit          3D

 49 52  0  0  0  0  0  0  0  0999 V2000
   36.7350   27.1860   34.7680 O   0  0  0  0  0  0  0  0  0  0  0  0
   36.7930   27.5640   33.4430 C   0  0  0  0  0  0  0  0  0  0  0  0
   37.4610   26.7880   32.5530 C   0  0  0  0  0  0  0  0  0  0  0  0
   37.5160   27.1730   31.2120 C   0  0  0  0  0  0  0  0  0  0  0  0
   36.9000   28.3310   30.7870 C   0  0  0  0  0  0  0  0  0  0  0  0
   36.2270   29.1030   31.7120 C   0  0  0  0  0  0  0  0  0  0  0  0
   36.1640   28.7370   33.0340 C   0  0  0  0  0  0  0  0  0  0  0  0
   35.4720   29.5080   34.0490 C   0  0  0  0  0  0  0  0  0  0  0  0
   36.0790   30.4320   34.8630 C   0  0  0  0  0  0  0  0  0  0  0  0
   35.3890   31.1520   35.8250 C   0  0  0  0  0  0  0  0  0  0  0  0
   34.0960   30.9690   35.9910 N   0  0  0  0  0  0  0  0  0  0  0  0
   33.4690   30.0690   35.2080 C   0  0  0  0  0  0  0  0  0  0  0  0
   34.1200   29.3580   34.2690 N   0  0  0  0  0  0  0  0  0  0  0  0
   37.8180   26.7680   35.5150 C   0  0  0  0  0  0  0  0  0  0  0  0
   38.6900   27.6450   35.7510 O   0  0  0  0  0  0  0  0  0  0  0  0
   37.9160   23.6140   37.5940 C   0  0  0  0  0  0  0  0  0  0  0  0
   37.8090   24.9720   37.2910 C   0  0  0  0  0  0  0  0  0  0  0  0
   37.9080   25.3940   35.9810 C   0  0  0  0  0  0  0  0  0  0  0  0
   38.1080   24.4430   35.0420 N   0  0  0  0  0  0  0  0  0  0  0  0
   38.2140   23.1150   35.3190 C   0  0  0  0  0  0  0  0  0  0  0  0
   38.1170   22.7140   36.5900 N   0  0  0  0  0  0  0  0  0  0  0  0
   38.4310   22.1330   34.2570 C   0  0  0  0  0  0  0  0  0  0  0  0
   39.6050   21.7960   33.9380 O   0  0  0  0  0  0  0  0  0  0  0  0
   37.3620   21.5630   33.5940 O   0  0  0  0  0  0  0  0  0  0  0  0
   34.7190   20.8740   32.0030 N   0  0  0  0  0  0  0  0  0  0  0  0
   35.4180   20.0960   32.9520 C   0  0  0  0  0  0  0  0  0  0  0  0
   36.7430   19.6990   32.3360 C   0  0  0  0  0  0  0  0  0  0  0  0
   37.5340   21.0160   32.2960 C   0  0  0  0  0  0  0  0  0  0  0  0
   36.8810   21.8270   31.2260 C   0  0  0  0  0  0  0  0  0  0  0  0
   35.4050   21.8540   31.2710 C   0  0  0  0  0  0  0  0  0  0  0  0
   37.9552   25.8631   32.8851 H   0  0  0  0  0  0  0  0  0  0  0  0
   38.0562   26.5461   30.4873 H   0  0  0  0  0  0  0  0  0  0  0  0
   36.9442   28.6338   29.7304 H   0  0  0  0  0  0  0  0  0  0  0  0
   35.7318   30.0289   31.3841 H   0  0  0  0  0  0  0  0  0  0  0  0
   37.1585   30.6082   34.7466 H   0  0  0  0  0  0  0  0  0  0  0  0
   35.9241   31.8797   36.4528 H   0  0  0  0  0  0  0  0  0  0  0  0
   32.3887   29.9102   35.3409 H   0  0  0  0  0  0  0  0  0  0  0  0
   37.8386   23.2719   38.6366 H   0  0  0  0  0  0  0  0  0  0  0  0
   37.6460   25.7047   38.0951 H   0  0  0  0  0  0  0  0  0  0  0  0
   34.3135   20.2190   31.3193 H   0  0  0  0  0  0  0  0  0  0  0  0
   35.5908   20.6848   33.8649 H   0  0  0  0  0  0  0  0  0  0  0  0
   34.8356   19.2027   33.2218 H   0  0  0  0  0  0  0  0  0  0  0  0
   37.2567   18.9514   32.9582 H   0  0  0  0  0  0  0  0  0  0  0  0
   36.6311   19.2381   31.3435 H   0  0  0  0  0  0  0  0  0  0  0  0
   38.6085   20.9442   32.0717 H   0  0  0  0  0  0  0  0  0  0  0  0
   37.1845   21.4140   30.2527 H   0  0  0  0  0  0  0  0  0  0  0  0
   37.2107   22.8644   31.3846 H   0  0  0  0  0  0  0  0  0  0  0  0
   35.1153   22.8285   31.6910 H   0  0  0  0  0  0  0  0  0  0  0  0
   35.1108   21.6528   30.2304 H   0  0  0  0  0  0  0  0  0  0  0  0
  1 14  1  0
  2  1  1  0
  3  2  2  0
  4  3  1  0
  5  4  2  0
  5  6  1  0
  6  7  2  0
  7  2  1  0
  7  8  1  0
  8 13  1  0
  8  9  2  0
  9 10  1  0
 10 11  2  0
 12 11  1  0
 13 12  2  0
 14 15  2  0
 14 18  1  0
 17 16  2  0
 18 17  1  0
 19 20  1  0
 19 18  2  0
 20 21  2  0
 21 16  1  0
 22 20  1  0
 23 22  2  0
 24 22  1  0
 25 26  1  0
 27 26  1  0
 28 27  1  0
 28 24  1  0
 29 30  1  0
 29 28  1  0
 30 25  1  0
  3 31  1  0
  4 32  1  0
  5 33  1  0
  6 34  1  0
  9 35  1  0
 10 36  1  0
 12 37  1  0
 16 38  1  0
 17 39  1  0
 25 40  1  0
 26 41  1  0
 26 42  1  0
 27 43  1  0
 27 44  1  0
 28 45  1  0
 29 46  1  0
 29 47  1  0
 30 48  1  0
 30 49  1  0
M  ISO  8  31  14  32  14  33  14  34  14  35  14  36  14  37  14  38  14
M  ISO  8  39  14  40   5  41  13  42  13  43  13  44  13  45  13  46  13
M  ISO  3  47  13  48  13  49  13
M  END
>  <minimizedAffinity>  (1) 
-5.93035936

>  <minimizedRMSD>  (1) 
0.549359918

$$$$
