
     RDKit          3D

 40 42  0  0  0  0  0  0  0  0999 V2000
   36.8380   27.7830   33.3880 C   0  0  0  0  0  0  0  0  0  0  0  0
   37.6190   27.1170   32.5030 C   0  0  0  0  0  0  0  0  0  0  0  0
   37.7510   27.5800   31.1870 C   0  0  0  0  0  0  0  0  0  0  0  0
   37.0720   28.7290   30.7970 C   0  0  0  0  0  0  0  0  0  0  0  0
   36.2760   29.3980   31.7170 C   0  0  0  0  0  0  0  0  0  0  0  0
   36.1590   28.9340   32.9950 C   0  0  0  0  0  0  0  0  0  0  0  0
   35.3400   29.5880   34.0080 C   0  0  0  0  0  0  0  0  0  0  0  0
   35.7970   30.5700   34.8610 C   0  0  0  0  0  0  0  0  0  0  0  0
   34.9930   31.1730   35.8130 C   0  0  0  0  0  0  0  0  0  0  0  0
   33.7260   30.8110   35.9340 N   0  0  0  0  0  0  0  0  0  0  0  0
   33.2640   29.8640   35.1190 C   0  0  0  0  0  0  0  0  0  0  0  0
   34.0260   29.2700   34.1910 N   0  0  0  0  0  0  0  0  0  0  0  0
   36.7240   27.3110   34.6710 O   0  0  0  0  0  0  0  0  0  0  0  0
   37.7650   26.8840   35.4600 C   0  0  0  0  0  0  0  0  0  0  0  0
   38.5860   27.7730   35.8030 O   0  0  0  0  0  0  0  0  0  0  0  0
   38.0420   23.6240   37.3610 C   0  0  0  0  0  0  0  0  0  0  0  0
   37.9330   24.9980   37.1430 C   0  0  0  0  0  0  0  0  0  0  0  0
   37.8770   25.4980   35.8470 C   0  0  0  0  0  0  0  0  0  0  0  0
   37.9320   24.5800   34.8510 N   0  0  0  0  0  0  0  0  0  0  0  0
   38.0380   23.2370   35.0500 C   0  0  0  0  0  0  0  0  0  0  0  0
   38.0910   22.7730   36.3000 N   0  0  0  0  0  0  0  0  0  0  0  0
   38.0910   22.3160   33.9320 C   0  0  0  0  0  0  0  0  0  0  0  0
   39.1230   21.6400   33.6940 O   0  0  0  0  0  0  0  0  0  0  0  0
   37.0000   22.1450   33.0760 O   0  0  0  0  0  0  0  0  0  0  0  0
   36.3980   20.8760   32.9200 C   0  0  0  0  0  0  0  0  0  0  0  0
   35.6110   20.5860   34.1780 C   0  0  0  0  0  0  0  0  0  0  0  0
   38.1520   26.2083   32.8194 H   0  0  0  0  0  0  0  0  0  0  0  0
   38.3857   27.0396   30.4693 H   0  0  0  0  0  0  0  0  0  0  0  0
   37.1648   29.1051   29.7675 H   0  0  0  0  0  0  0  0  0  0  0  0
   35.7365   30.3074   31.4140 H   0  0  0  0  0  0  0  0  0  0  0  0
   36.8469   30.8884   34.7816 H   0  0  0  0  0  0  0  0  0  0  0  0
   35.4073   31.9529   36.4688 H   0  0  0  0  0  0  0  0  0  0  0  0
   32.2119   29.5566   35.2120 H   0  0  0  0  0  0  0  0  0  0  0  0
   38.0882   23.2300   38.3870 H   0  0  0  0  0  0  0  0  0  0  0  0
   37.8913   25.6875   37.9991 H   0  0  0  0  0  0  0  0  0  0  0  0
   35.7249   20.8845   32.0500 H   0  0  0  0  0  0  0  0  0  0  0  0
   37.1631   20.1029   32.7559 H   0  0  0  0  0  0  0  0  0  0  0  0
   36.2298   20.8140   35.0584 H   0  0  0  0  0  0  0  0  0  0  0  0
   34.7048   21.2092   34.1954 H   0  0  0  0  0  0  0  0  0  0  0  0
   35.3259   19.5237   34.1954 H   0  0  0  0  0  0  0  0  0  0  0  0
  1 13  1  0
  2  1  2  0
  3  2  1  0
  4  3  2  0
  4  5  1  0
  5  6  2  0
  6  1  1  0
  6  7  1  0
  7 12  1  0
  7  8  2  0
  8  9  1  0
  9 10  2  0
 11 10  1  0
 12 11  2  0
 13 14  1  0
 14 15  2  0
 14 18  1  0
 17 16  2  0
 18 17  1  0
 19 20  1  0
 19 18  2  0
 20 21  2  0
 21 16  1  0
 22 20  1  0
 23 22  2  0
 24 22  1  0
 25 24  1  0
 25 26  1  0
  2 27  1  0
  3 28  1  0
  4 29  1  0
  5 30  1  0
  8 31  1  0
  9 32  1  0
 11 33  1  0
 16 34  1  0
 17 35  1  0
 25 36  1  0
 25 37  1  0
 26 38  1  0
 26 39  1  0
 26 40  1  0
M  ISO  8  27  14  28  14  29  14  30  14  31  14  32  14  33  14  34  14
M  ISO  6  35  14  36   8  37   8  38   8  39   8  40   8
M  END
>  <minimizedAffinity>  (1) 
-5.36813879

>  <minimizedRMSD>  (1) 
0.445307255

$$$$
