
     RDKit          3D

 11 11  0  0  0  0  0  0  0  0999 V2000
   37.1860   21.6390   34.6670 C   0  0  0  0  0  0  0  0  0  0  0  0
   35.9620   20.9340   34.8130 C   0  0  0  0  0  0  0  0  0  0  0  0
   35.4900   20.2440   33.6980 C   0  0  0  0  0  0  0  0  0  0  0  0
   36.2100   20.2780   32.5460 N   0  0  0  0  0  0  0  0  0  0  0  0
   37.3760   20.9650   32.4490 C   0  0  0  0  0  0  0  0  0  0  0  0
   37.8520   21.6370   33.5070 N   0  0  0  0  0  0  0  0  0  0  0  0
   37.9420   22.5790   35.9910 S   0  0  0  0  0  0  0  0  0  0  0  0
   35.4104   20.9326   35.7647 H   0  0  0  0  0  0  0  0  0  0  0  0
   34.5473   19.6795   33.7497 H   0  0  0  0  0  0  0  0  0  0  0  0
   37.9321   20.9706   31.5000 H   0  0  0  0  0  0  0  0  0  0  0  0
   37.5364   22.0746   37.1985 H   0  0  0  0  0  0  0  0  0  0  0  0
  1  2  2  0
  1  7  1  0
  3  2  1  0
  4  3  2  0
  5  4  1  0
  5  6  2  0
  6  1  1  0
  2  8  1  0
  3  9  1  0
  5 10  1  0
  7 11  1  0
M  ISO  4   8  14   9  14  10  14  11  11
M  END
>  <minimizedAffinity>  (1) 
-1.94389892

>  <minimizedRMSD>  (1) 
4.58214474

$$$$
