
     RDKit          3D

 21 22  0  0  0  0  0  0  0  0999 V2000
   37.8130   23.9990   33.0310 C   0  0  0  0  0  0  0  0  0  0  0  0
   37.1750   22.8030   32.6310 C   0  0  0  0  0  0  0  0  0  0  0  0
   36.0400   22.8990   31.8430 C   0  0  0  0  0  0  0  0  0  0  0  0
   35.5850   24.1350   31.4850 N   0  0  0  0  0  0  0  0  0  0  0  0
   36.2290   25.2700   31.8900 C   0  0  0  0  0  0  0  0  0  0  0  0
   37.3240   25.1960   32.6500 N   0  0  0  0  0  0  0  0  0  0  0  0
   39.2760   24.0550   34.0400 S   0  0  0  0  0  0  0  0  0  0  0  0
   38.9420   23.9100   35.7710 C   0  0  0  0  0  0  0  0  0  0  0  0
   37.9470   24.5050   36.5120 C   0  0  0  0  0  0  0  0  0  0  0  0
   37.8360   24.2740   37.8670 C   0  0  0  0  0  0  0  0  0  0  0  0
   38.7200   23.4340   38.5470 C   0  0  0  0  0  0  0  0  0  0  0  0
   39.7230   22.8370   37.7980 C   0  0  0  0  0  0  0  0  0  0  0  0
   39.8360   23.0660   36.4330 C   0  0  0  0  0  0  0  0  0  0  0  0
   37.5691   21.8227   32.9371 H   0  0  0  0  0  0  0  0  0  0  0  0
   35.5131   21.9925   31.5106 H   0  0  0  0  0  0  0  0  0  0  0  0
   35.8416   26.2539   31.5870 H   0  0  0  0  0  0  0  0  0  0  0  0
   37.2293   25.1750   36.0161 H   0  0  0  0  0  0  0  0  0  0  0  0
   37.0278   24.7657   38.4283 H   0  0  0  0  0  0  0  0  0  0  0  0
   38.6252   23.2539   39.6280 H   0  0  0  0  0  0  0  0  0  0  0  0
   40.4426   22.1695   38.2946 H   0  0  0  0  0  0  0  0  0  0  0  0
   40.6408   22.5758   35.8655 H   0  0  0  0  0  0  0  0  0  0  0  0
  1  7  1  0
  2  1  2  0
  3  2  1  0
  4  3  2  0
  4  5  1  0
  5  6  2  0
  6  1  1  0
  7  8  1  0
  8 13  1  0
  8  9  2  0
  9 10  1  0
 10 11  2  0
 12 11  1  0
 13 12  2  0
  2 14  1  0
  3 15  1  0
  5 16  1  0
  9 17  1  0
 10 18  1  0
 11 19  1  0
 12 20  1  0
 13 21  1  0
M  ISO  8  14  14  15  14  16  14  17  14  18  14  19  14  20  14  21  14
M  END
>  <minimizedAffinity>  (1) 
-4.06807137

>  <minimizedRMSD>  (1) 
3.52531505

$$$$
