
     RDKit          3D

 19 20  0  0  0  0  0  0  0  0999 V2000
   37.3010   22.3690   33.4700 C   0  0  0  0  0  0  0  0  0  0  0  0
   36.7130   21.2420   34.1170 C   0  0  0  0  0  0  0  0  0  0  0  0
   35.5610   20.7010   33.5370 C   0  0  0  0  0  0  0  0  0  0  0  0
   35.0740   21.2680   32.4070 N   0  0  0  0  0  0  0  0  0  0  0  0
   35.6750   22.3450   31.8310 C   0  0  0  0  0  0  0  0  0  0  0  0
   36.7740   22.8810   32.3620 N   0  0  0  0  0  0  0  0  0  0  0  0
   38.7780   23.1790   34.0860 S   0  0  0  0  0  0  0  0  0  0  0  0
   38.8370   23.2170   35.8630 C   0  0  0  0  0  0  0  0  0  0  0  0
   39.9680   22.7120   36.4750 C   0  0  0  0  0  0  0  0  0  0  0  0
   39.9820   22.7560   37.8580 C   0  0  0  0  0  0  0  0  0  0  0  0
   38.9330   23.2680   38.5230 N   0  0  0  0  0  0  0  0  0  0  0  0
   37.8420   23.7550   37.9460 C   0  0  0  0  0  0  0  0  0  0  0  0
   37.8060   23.7230   36.6000 N   0  0  0  0  0  0  0  0  0  0  0  0
   37.1473   20.8162   35.0336 H   0  0  0  0  0  0  0  0  0  0  0  0
   35.0603   19.8323   33.9894 H   0  0  0  0  0  0  0  0  0  0  0  0
   35.2480   22.7790   30.9149 H   0  0  0  0  0  0  0  0  0  0  0  0
   40.8079   22.2992   35.8969 H   0  0  0  0  0  0  0  0  0  0  0  0
   40.8511   22.3722   38.4123 H   0  0  0  0  0  0  0  0  0  0  0  0
   37.0092   24.1641   38.5369 H   0  0  0  0  0  0  0  0  0  0  0  0
  1  7  1  0
  1  2  2  0
  3  2  1  0
  4  3  2  0
  5  6  2  0
  5  4  1  0
  6  1  1  0
  7  8  1  0
  8  9  2  0
  8 13  1  0
  9 10  1  0
 10 11  2  0
 12 11  1  0
 13 12  2  0
  2 14  1  0
  3 15  1  0
  5 16  1  0
  9 17  1  0
 10 18  1  0
 12 19  1  0
M  ISO  6  14  14  15  14  16  14  17  14  18  14  19  14
M  END
>  <minimizedAffinity>  (1) 
-3.71783996

>  <minimizedRMSD>  (1) 
2.57247639

$$$$
