
     RDKit          3D

 18 19  0  0  0  0  0  0  0  0999 V2000
   38.9100   22.4790   35.7850 C   0  0  0  0  0  0  0  0  0  0  0  0
   40.0240   22.4370   36.6630 C   0  0  0  0  0  0  0  0  0  0  0  0
   39.8180   22.8560   37.9720 C   0  0  0  0  0  0  0  0  0  0  0  0
   38.5950   23.2800   38.3630 N   0  0  0  0  0  0  0  0  0  0  0  0
   37.5490   23.3050   37.4880 C   0  0  0  0  0  0  0  0  0  0  0  0
   37.7150   22.9060   36.2110 N   0  0  0  0  0  0  0  0  0  0  0  0
   38.9870   21.9820   34.0760 S   0  0  0  0  0  0  0  0  0  0  0  0
   37.4290   21.9490   33.2640 C   0  0  0  0  0  0  0  0  0  0  0  0
   36.9080   22.7750   32.2570 C   0  0  0  0  0  0  0  0  0  0  0  0
   35.6450   22.5130   31.8070 C   0  0  0  0  0  0  0  0  0  0  0  0
   34.9780   21.4950   32.3440 C   0  0  0  0  0  0  0  0  0  0  0  0
   36.0210   20.7500   33.5610 S   0  0  0  0  0  0  0  0  0  0  0  0
   41.0095   22.0874   36.3218 H   0  0  0  0  0  0  0  0  0  0  0  0
   40.6507   22.8427   38.6907 H   0  0  0  0  0  0  0  0  0  0  0  0
   36.5622   23.6535   37.8269 H   0  0  0  0  0  0  0  0  0  0  0  0
   37.4972   23.6066   31.8432 H   0  0  0  0  0  0  0  0  0  0  0  0
   35.1898   23.1300   31.0183 H   0  0  0  0  0  0  0  0  0  0  0  0
   33.9599   21.1744   32.0783 H   0  0  0  0  0  0  0  0  0  0  0  0
  1  6  1  0
  1  2  2  0
  2  3  1  0
  3  4  2  0
  5  4  1  0
  6  5  2  0
  7  1  1  0
  8 12  1  0
  8  7  1  0
  9  8  2  0
 10  9  1  0
 10 11  2  0
 11 12  1  0
  2 13  1  0
  3 14  1  0
  5 15  1  0
  9 16  1  0
 10 17  1  0
 11 18  1  0
M  ISO  6  13  14  14  14  15  14  16  14  17  14  18  14
M  END
>  <minimizedAffinity>  (1) 
-3.57157993

>  <minimizedRMSD>  (1) 
5.04485798

$$$$
