
     RDKit          3D

 16 17  0  0  0  0  0  0  0  0999 V2000
   37.6150   22.0430   35.5590 C   0  0  0  0  0  0  0  0  0  0  0  0
   36.5190   21.4530   36.2460 C   0  0  0  0  0  0  0  0  0  0  0  0
   35.5720   20.8080   35.4700 C   0  0  0  0  0  0  0  0  0  0  0  0
   35.7270   20.7690   34.1260 N   0  0  0  0  0  0  0  0  0  0  0  0
   36.7860   21.3440   33.5090 C   0  0  0  0  0  0  0  0  0  0  0  0
   37.7130   21.9700   34.2330 N   0  0  0  0  0  0  0  0  0  0  0  0
   38.9290   22.9120   36.3970 S   0  0  0  0  0  0  0  0  0  0  0  0
   39.0090   24.6350   35.9610 C   0  0  0  0  0  0  0  0  0  0  0  0
   38.1520   25.4100   36.6870 N   0  0  0  0  0  0  0  0  0  0  0  0
   38.2700   26.6670   36.3060 O   0  0  0  0  0  0  0  0  0  0  0  0
   39.1640   26.7490   35.3660 C   0  0  0  0  0  0  0  0  0  0  0  0
   39.6380   25.5010   35.1330 N   0  0  0  0  0  0  0  0  0  0  0  0
   36.4282   21.5066   37.3409 H   0  0  0  0  0  0  0  0  0  0  0  0
   34.7003   20.3308   35.9417 H   0  0  0  0  0  0  0  0  0  0  0  0
   36.8808   21.2946   32.4142 H   0  0  0  0  0  0  0  0  0  0  0  0
   39.4798   27.6683   34.8510 H   0  0  0  0  0  0  0  0  0  0  0  0
  1  2  2  0
  1  7  1  0
  3  2  1  0
  4  3  2  0
  5  4  1  0
  5  6  2  0
  6  1  1  0
  8  7  1  0
  8  9  2  0
 10  9  1  0
 11 10  1  0
 12 11  2  0
 12  8  1  0
  2 13  1  0
  3 14  1  0
  5 15  1  0
 11 16  1  0
M  ISO  4  13  14  14  14  15  14  16  14
M  END
>  <minimizedAffinity>  (1) 
-3.23185968

>  <minimizedRMSD>  (1) 
1.96108317

$$$$
