
     RDKit          3D

 18 19  0  0  0  0  0  0  0  0999 V2000
   37.5430   22.1200   35.5700 C   0  0  0  0  0  0  0  0  0  0  0  0
   36.5590   21.5640   36.4140 C   0  0  0  0  0  0  0  0  0  0  0  0
   35.5760   20.8070   35.7940 C   0  0  0  0  0  0  0  0  0  0  0  0
   35.5910   20.6320   34.4380 N   0  0  0  0  0  0  0  0  0  0  0  0
   36.5680   21.1940   33.6690 C   0  0  0  0  0  0  0  0  0  0  0  0
   37.5290   21.9300   34.2520 N   0  0  0  0  0  0  0  0  0  0  0  0
   38.8940   23.1270   36.1810 S   0  0  0  0  0  0  0  0  0  0  0  0
   40.4300   22.1450   36.2360 C   0  0  0  0  0  0  0  0  0  0  0  0
   41.0460   21.8040   37.5270 C   0  0  0  0  0  0  0  0  0  0  0  0
   41.6270   22.9270   36.6560 C   0  0  0  0  0  0  0  0  0  0  0  0
   36.5706   21.7219   37.5025 H   0  0  0  0  0  0  0  0  0  0  0  0
   34.7800   20.3449   36.3964 H   0  0  0  0  0  0  0  0  0  0  0  0
   36.5688   21.0455   32.5791 H   0  0  0  0  0  0  0  0  0  0  0  0
   40.1423   21.5157   35.3809 H   0  0  0  0  0  0  0  0  0  0  0  0
   40.5280   22.0465   38.4666 H   0  0  0  0  0  0  0  0  0  0  0  0
   41.4426   20.8860   37.9853 H   0  0  0  0  0  0  0  0  0  0  0  0
   42.5891   22.7887   36.1410 H   0  0  0  0  0  0  0  0  0  0  0  0
   41.8636   23.9920   36.7968 H   0  0  0  0  0  0  0  0  0  0  0  0
  1  7  1  0
  1  2  2  0
  3  2  1  0
  4  3  2  0
  5  6  2  0
  5  4  1  0
  6  1  1  0
  7  8  1  0
  8 10  1  0
  8  9  1  0
 10  9  1  0
  2 11  1  0
  3 12  1  0
  5 13  1  0
  8 14  1  0
  9 15  1  0
  9 16  1  0
 10 17  1  0
 10 18  1  0
M  ISO  8  11  14  12  14  13  14  14  13  15  13  16  13  17  13  18  13
M  END
>  <minimizedAffinity>  (1) 
-2.91786885

>  <minimizedRMSD>  (1) 
1.82943511

$$$$
