
     RDKit          3D

 34 36  0  0  0  0  0  0  0  0999 V2000
   39.4120   25.3920   34.5490 N   0  0  0  0  0  0  0  0  0  0  0  0
   40.5830   26.0630   34.5510 C   0  0  0  0  0  0  0  0  0  0  0  0
   40.9170   26.8020   33.4180 C   0  0  0  0  0  0  0  0  0  0  0  0
   40.0500   26.8260   32.3410 C   0  0  0  0  0  0  0  0  0  0  0  0
   40.2840   27.4690   31.2900 O   0  0  0  0  0  0  0  0  0  0  0  0
   38.8800   26.1420   32.3720 N   0  0  0  0  0  0  0  0  0  0  0  0
   38.5910   25.4380   33.4820 C   0  0  0  0  0  0  0  0  0  0  0  0
   37.5100   24.8040   33.5170 O   0  0  0  0  0  0  0  0  0  0  0  0
   38.2260   25.1920   36.6370 C   0  0  0  0  0  0  0  0  0  0  0  0
   39.1490   24.6650   35.7260 C   0  0  0  0  0  0  0  0  0  0  0  0
   39.7480   23.4540   36.0420 C   0  0  0  0  0  0  0  0  0  0  0  0
   39.4040   22.8410   37.2230 N   0  0  0  0  0  0  0  0  0  0  0  0
   38.5280   23.3660   38.0600 C   0  0  0  0  0  0  0  0  0  0  0  0
   37.9420   24.5370   37.7670 N   0  0  0  0  0  0  0  0  0  0  0  0
   38.3220   22.5740   39.2090 N   0  0  0  0  0  0  0  0  0  0  0  0
   42.1770   27.5880   33.3220 C   0  0  0  0  0  0  0  0  0  0  0  0
   43.4000   26.7750   33.4510 C   0  0  0  0  0  0  0  0  0  0  0  0
   43.7670   25.6220   32.7930 C   0  0  0  0  0  0  0  0  0  0  0  0
   44.9400   24.9710   33.0190 C   0  0  0  0  0  0  0  0  0  0  0  0
   45.8500   25.4630   33.9570 C   0  0  0  0  0  0  0  0  0  0  0  0
   45.4330   26.6230   34.5880 C   0  0  0  0  0  0  0  0  0  0  0  0
   44.2840   27.2630   34.3700 N   0  0  0  0  0  0  0  0  0  0  0  0
   41.2542   26.0275   35.4218 H   0  0  0  0  0  0  0  0  0  0  0  0
   38.2325   26.1605   31.5712 H   0  0  0  0  0  0  0  0  0  0  0  0
   37.7316   26.1507   36.4217 H   0  0  0  0  0  0  0  0  0  0  0  0
   40.4815   22.9950   35.3628 H   0  0  0  0  0  0  0  0  0  0  0  0
   37.6593   22.8821   39.9348 H   0  0  0  0  0  0  0  0  0  0  0  0
   38.8343   21.6876   39.3221 H   0  0  0  0  0  0  0  0  0  0  0  0
   42.1974   28.0914   32.3442 H   0  0  0  0  0  0  0  0  0  0  0  0
   42.1753   28.2975   34.1626 H   0  0  0  0  0  0  0  0  0  0  0  0
   43.0755   25.2058   32.0457 H   0  0  0  0  0  0  0  0  0  0  0  0
   45.1727   24.0526   32.4601 H   0  0  0  0  0  0  0  0  0  0  0  0
   46.8107   24.9736   34.1749 H   0  0  0  0  0  0  0  0  0  0  0  0
   46.1118   27.0559   35.3376 H   0  0  0  0  0  0  0  0  0  0  0  0
  1  2  1  0
  1 10  1  0
  3  2  2  0
  4  6  1  0
  4  3  1  0
  5  4  2  0
  6  7  1  0
  7  8  2  0
  7  1  1  0
  9 14  2  0
 10 11  2  0
 10  9  1  0
 11 12  1  0
 12 13  2  0
 13 15  1  0
 14 13  1  0
 16  3  1  0
 16 17  1  0
 17 22  2  0
 18 19  2  0
 18 17  1  0
 19 20  1  0
 20 21  2  0
 22 21  1  0
  2 23  1  0
  6 24  1  0
  9 25  1  0
 11 26  1  0
 15 27  1  0
 15 28  1  0
 16 29  1  0
 16 30  1  0
 18 31  1  0
 19 32  1  0
 20 33  1  0
 21 34  1  0
M  ISO  8  23  14  24   9  25  14  26  14  29   8  30   8  31  14  32  14
M  ISO  2  33  14  34  14
M  END
>  <minimizedAffinity>  (1) 
-4.5955205

>  <minimizedRMSD>  (1) 
1.53670859

$$$$
