
     RDKit          3D

 34 36  0  0  0  0  0  0  0  0999 V2000
   43.5490   25.9020   34.7650 C   0  0  0  0  0  0  0  0  0  0  0  0
   42.9060   24.7310   35.1760 C   0  0  0  0  0  0  0  0  0  0  0  0
   41.5510   24.5740   34.9960 C   0  0  0  0  0  0  0  0  0  0  0  0
   40.8010   25.5650   34.4080 C   0  0  0  0  0  0  0  0  0  0  0  0
   41.3940   26.7240   33.9940 C   0  0  0  0  0  0  0  0  0  0  0  0
   42.7560   26.8760   34.1770 C   0  0  0  0  0  0  0  0  0  0  0  0
   45.2710   26.0850   34.9630 S   0  0  0  0  0  0  0  0  0  0  0  0
   45.9650   25.2820   33.9320 O   0  0  0  0  0  0  0  0  0  0  0  0
   45.5980   27.5610   34.8000 O   0  0  0  0  0  0  0  0  0  0  0  0
   45.6910   25.7040   36.6090 C   0  0  0  0  0  0  0  0  0  0  0  0
   46.8610   25.0100   36.8780 C   0  0  0  0  0  0  0  0  0  0  0  0
   47.2520   24.6760   38.1650 C   0  0  0  0  0  0  0  0  0  0  0  0
   46.4420   25.0480   39.2340 C   0  0  0  0  0  0  0  0  0  0  0  0
   45.2950   25.7300   38.9590 C   0  0  0  0  0  0  0  0  0  0  0  0
   44.8960   26.0670   37.6760 C   0  0  0  0  0  0  0  0  0  0  0  0
   39.0350   25.4930   34.1140 S   0  0  0  0  0  0  0  0  0  0  0  0
   38.3530   24.4310   35.3750 C   0  0  0  0  0  0  0  0  0  0  0  0
   38.1190   24.8740   36.7100 C   0  0  0  0  0  0  0  0  0  0  0  0
   37.5860   23.9470   37.5870 C   0  0  0  0  0  0  0  0  0  0  0  0
   37.3120   22.6940   37.1610 N   0  0  0  0  0  0  0  0  0  0  0  0
   37.5480   22.3110   35.8850 C   0  0  0  0  0  0  0  0  0  0  0  0
   38.0650   23.1860   35.0100 N   0  0  0  0  0  0  0  0  0  0  0  0
   43.4892   23.9267   35.6482 H   0  0  0  0  0  0  0  0  0  0  0  0
   41.0624   23.6454   35.3262 H   0  0  0  0  0  0  0  0  0  0  0  0
   40.7992   27.5211   33.5240 H   0  0  0  0  0  0  0  0  0  0  0  0
   43.2311   27.8098   33.8417 H   0  0  0  0  0  0  0  0  0  0  0  0
   47.5042   24.7128   36.0366 H   0  0  0  0  0  0  0  0  0  0  0  0
   48.1882   24.1253   38.3390 H   0  0  0  0  0  0  0  0  0  0  0  0
   46.7193   24.7991   40.2690 H   0  0  0  0  0  0  0  0  0  0  0  0
   44.6520   26.0287   39.8000 H   0  0  0  0  0  0  0  0  0  0  0  0
   43.9577   26.6167   37.5104 H   0  0  0  0  0  0  0  0  0  0  0  0
   38.3508   25.9017   37.0265 H   0  0  0  0  0  0  0  0  0  0  0  0
   37.3851   24.2294   38.6310 H   0  0  0  0  0  0  0  0  0  0  0  0
   37.3163   21.2841   35.5660 H   0  0  0  0  0  0  0  0  0  0  0  0
  1  7  1  0
  1  2  2  0
  3  2  1  0
  4  3  2  0
  5  6  2  0
  5  4  1  0
  6  1  1  0
  7 10  1  0
  8  7  2  0
  9  7  2  0
 10 11  2  0
 10 15  1  0
 11 12  1  0
 12 13  2  0
 14 13  1  0
 15 14  2  0
 16  4  1  0
 16 17  1  0
 17 18  2  0
 18 19  1  0
 20 19  2  0
 21 20  1  0
 22 17  1  0
 22 21  2  0
  2 23  1  0
  3 24  1  0
  5 25  1  0
  6 26  1  0
 11 27  1  0
 12 28  1  0
 13 29  1  0
 14 30  1  0
 15 31  1  0
 18 32  1  0
 19 33  1  0
 21 34  1  0
M  ISO  8  23  14  24  14  25  14  26  14  27  14  28  14  29  14  30  14
M  ISO  4  31  14  32  14  33  14  34  14
M  END
>  <minimizedAffinity>  (1) 
-5.26667213

>  <minimizedRMSD>  (1) 
3.28297758

$$$$
