
     RDKit          3D

 34 36  0  0  0  0  0  0  0  0999 V2000
   42.8210   24.2470   35.3410 C   0  0  0  0  0  0  0  0  0  0  0  0
   42.2390   23.1960   36.0270 C   0  0  0  0  0  0  0  0  0  0  0  0
   40.8830   23.1010   36.1930 C   0  0  0  0  0  0  0  0  0  0  0  0
   40.0650   24.0900   35.6560 C   0  0  0  0  0  0  0  0  0  0  0  0
   40.6000   25.1450   34.9710 C   0  0  0  0  0  0  0  0  0  0  0  0
   41.9730   25.2100   34.8220 C   0  0  0  0  0  0  0  0  0  0  0  0
   44.5490   24.3150   35.1430 S   0  0  0  0  0  0  0  0  0  0  0  0
   45.0390   23.0180   34.6340 O   0  0  0  0  0  0  0  0  0  0  0  0
   44.8510   25.4360   34.1610 O   0  0  0  0  0  0  0  0  0  0  0  0
   45.2500   24.7390   36.7130 C   0  0  0  0  0  0  0  0  0  0  0  0
   44.4800   25.5640   37.5420 C   0  0  0  0  0  0  0  0  0  0  0  0
   44.9820   25.9240   38.7770 C   0  0  0  0  0  0  0  0  0  0  0  0
   46.2340   25.4840   39.2080 C   0  0  0  0  0  0  0  0  0  0  0  0
   46.9550   24.6730   38.3520 C   0  0  0  0  0  0  0  0  0  0  0  0
   46.4980   24.2840   37.1080 C   0  0  0  0  0  0  0  0  0  0  0  0
   38.2830   24.1120   35.7850 S   0  0  0  0  0  0  0  0  0  0  0  0
   37.7160   25.4150   34.7050 C   0  0  0  0  0  0  0  0  0  0  0  0
   37.5910   25.2520   33.2800 C   0  0  0  0  0  0  0  0  0  0  0  0
   37.1440   26.3370   32.5610 C   0  0  0  0  0  0  0  0  0  0  0  0
   36.8460   27.4840   33.2030 N   0  0  0  0  0  0  0  0  0  0  0  0
   36.9720   27.6110   34.5410 C   0  0  0  0  0  0  0  0  0  0  0  0
   37.4060   26.5770   35.2850 N   0  0  0  0  0  0  0  0  0  0  0  0
   42.8847   22.4133   36.4518 H   0  0  0  0  0  0  0  0  0  0  0  0
   40.4466   22.2544   36.7433 H   0  0  0  0  0  0  0  0  0  0  0  0
   39.9517   25.9260   34.5471 H   0  0  0  0  0  0  0  0  0  0  0  0
   42.4070   26.0575   34.2712 H   0  0  0  0  0  0  0  0  0  0  0  0
   43.4917   25.9194   37.2149 H   0  0  0  0  0  0  0  0  0  0  0  0
   44.3826   26.5709   39.4345 H   0  0  0  0  0  0  0  0  0  0  0  0
   46.6323   25.7718   40.1922 H   0  0  0  0  0  0  0  0  0  0  0  0
   47.9440   24.3190   38.6784 H   0  0  0  0  0  0  0  0  0  0  0  0
   47.1022   23.6370   36.4550 H   0  0  0  0  0  0  0  0  0  0  0  0
   37.8420   24.3012   32.7872 H   0  0  0  0  0  0  0  0  0  0  0  0
   37.0306   26.2685   31.4690 H   0  0  0  0  0  0  0  0  0  0  0  0
   36.7185   28.5652   35.0260 H   0  0  0  0  0  0  0  0  0  0  0  0
  1  2  2  0
  2  3  1  0
  4 16  1  0
  4  3  2  0
  5  4  1  0
  6  5  2  0
  6  1  1  0
  7  1  1  0
  7 10  1  0
  8  7  2  0
  9  7  2  0
 10 15  1  0
 10 11  2  0
 11 12  1  0
 12 13  2  0
 14 13  1  0
 15 14  2  0
 17 22  1  0
 17 16  1  0
 18 17  2  0
 19 20  2  0
 19 18  1  0
 20 21  1  0
 21 22  2  0
  2 23  1  0
  3 24  1  0
  5 25  1  0
  6 26  1  0
 11 27  1  0
 12 28  1  0
 13 29  1  0
 14 30  1  0
 15 31  1  0
 18 32  1  0
 19 33  1  0
 21 34  1  0
M  ISO  8  23  14  24  14  25  14  26  14  27  14  28  14  29  14  30  14
M  ISO  4  31  14  32  14  33  14  34  14
M  END
>  <minimizedAffinity>  (1) 
-5.21430302

>  <minimizedRMSD>  (1) 
2.54480696

$$$$
