
     RDKit          3D

 39 41  0  0  0  0  0  0  0  0999 V2000
   42.8440   24.1270   35.6600 C   0  0  0  0  0  0  0  0  0  0  0  0
   42.2520   23.1110   36.4140 C   0  0  0  0  0  0  0  0  0  0  0  0
   40.8890   22.9580   36.4480 C   0  0  0  0  0  0  0  0  0  0  0  0
   40.0720   23.8180   35.7300 C   0  0  0  0  0  0  0  0  0  0  0  0
   40.6170   24.8210   34.9840 C   0  0  0  0  0  0  0  0  0  0  0  0
   41.9940   24.9670   34.9570 C   0  0  0  0  0  0  0  0  0  0  0  0
   44.5710   24.2780   35.5950 S   0  0  0  0  0  0  0  0  0  0  0  0
   45.1560   23.0570   34.9900 O   0  0  0  0  0  0  0  0  0  0  0  0
   44.8980   25.4970   34.7420 O   0  0  0  0  0  0  0  0  0  0  0  0
   46.5860   24.9350   39.3710 N   0  0  0  0  0  0  0  0  0  0  0  0
   45.7030   26.0430   39.0270 C   0  0  0  0  0  0  0  0  0  0  0  0
   44.6530   25.6030   37.9980 C   0  0  0  0  0  0  0  0  0  0  0  0
   45.2980   24.5210   37.1970 C   0  0  0  0  0  0  0  0  0  0  0  0
   46.7400   24.9020   36.9990 C   0  0  0  0  0  0  0  0  0  0  0  0
   47.4500   24.5280   38.3050 C   0  0  0  0  0  0  0  0  0  0  0  0
   38.2860   23.7420   35.6820 S   0  0  0  0  0  0  0  0  0  0  0  0
   37.8480   23.0970   34.0890 C   0  0  0  0  0  0  0  0  0  0  0  0
   37.8040   21.6980   33.8110 C   0  0  0  0  0  0  0  0  0  0  0  0
   37.4480   21.3180   32.5300 C   0  0  0  0  0  0  0  0  0  0  0  0
   37.1600   22.2600   31.6100 N   0  0  0  0  0  0  0  0  0  0  0  0
   37.2100   23.5810   31.9050 C   0  0  0  0  0  0  0  0  0  0  0  0
   37.5510   23.9740   33.1310 N   0  0  0  0  0  0  0  0  0  0  0  0
   42.8886   22.4228   36.9895 H   0  0  0  0  0  0  0  0  0  0  0  0
   40.4428   22.1504   37.0469 H   0  0  0  0  0  0  0  0  0  0  0  0
   39.9722   25.5043   34.4119 H   0  0  0  0  0  0  0  0  0  0  0  0
   42.4291   25.7790   34.3559 H   0  0  0  0  0  0  0  0  0  0  0  0
   47.1697   25.2217   40.1698 H   0  0  0  0  0  0  0  0  0  0  0  0
   45.1924   26.3931   39.9363 H   0  0  0  0  0  0  0  0  0  0  0  0
   46.3064   26.8529   38.5912 H   0  0  0  0  0  0  0  0  0  0  0  0
   43.7554   25.2205   38.5060 H   0  0  0  0  0  0  0  0  0  0  0  0
   44.3325   26.4415   37.3623 H   0  0  0  0  0  0  0  0  0  0  0  0
   45.1673   23.5807   37.7526 H   0  0  0  0  0  0  0  0  0  0  0  0
   47.1716   24.3448   36.1545 H   0  0  0  0  0  0  0  0  0  0  0  0
   46.8497   25.9721   36.7689 H   0  0  0  0  0  0  0  0  0  0  0  0
   47.6195   23.4420   38.3474 H   0  0  0  0  0  0  0  0  0  0  0  0
   48.4306   25.0210   38.3788 H   0  0  0  0  0  0  0  0  0  0  0  0
   38.0434   20.9527   34.5838 H   0  0  0  0  0  0  0  0  0  0  0  0
   37.4001   20.2520   32.2631 H   0  0  0  0  0  0  0  0  0  0  0  0
   36.9695   24.3275   31.1337 H   0  0  0  0  0  0  0  0  0  0  0  0
  1  2  2  0
  2  3  1  0
  4  3  2  0
  5  4  1  0
  6  5  2  0
  6  1  1  0
  7  1  1  0
  7 13  1  0
  8  7  2  0
  9  7  2  0
 11 10  1  0
 12 11  1  0
 13 12  1  0
 14 13  1  0
 14 15  1  0
 15 10  1  0
 16  4  1  0
 17 16  1  0
 18 17  2  0
 19 18  1  0
 20 21  1  0
 20 19  2  0
 21 22  2  0
 22 17  1  0
  2 23  1  0
  3 24  1  0
  5 25  1  0
  6 26  1  0
 10 27  1  0
 11 28  1  0
 11 29  1  0
 12 30  1  0
 12 31  1  0
 13 32  1  0
 14 33  1  0
 14 34  1  0
 15 35  1  0
 15 36  1  0
 18 37  1  0
 19 38  1  0
 21 39  1  0
M  ISO  8  23  14  24  14  25  14  26  14  27   5  28  13  29  13  30  13
M  ISO  8  31  13  32  13  33  13  34  13  35  13  36  13  37  14  38  14
M  ISO  1  39  14
M  END
>  <minimizedAffinity>  (1) 
-4.61132002

>  <minimizedRMSD>  (1) 
0.903242946

$$$$
