
     RDKit          3D

 31 33  0  0  0  0  0  0  0  0999 V2000
   42.8350   24.1160   35.7840 C   0  0  0  0  0  0  0  0  0  0  0  0
   42.2280   23.1110   36.5390 C   0  0  0  0  0  0  0  0  0  0  0  0
   40.8630   22.9590   36.5430 C   0  0  0  0  0  0  0  0  0  0  0  0
   40.0610   23.7980   35.8000 C   0  0  0  0  0  0  0  0  0  0  0  0
   40.6220   24.7960   35.0460 C   0  0  0  0  0  0  0  0  0  0  0  0
   41.9950   24.9400   35.0500 C   0  0  0  0  0  0  0  0  0  0  0  0
   44.5720   24.2810   35.7600 S   0  0  0  0  0  0  0  0  0  0  0  0
   45.1740   23.0040   35.3040 O   0  0  0  0  0  0  0  0  0  0  0  0
   44.9110   25.4030   34.7870 O   0  0  0  0  0  0  0  0  0  0  0  0
   45.2060   24.8480   37.2970 C   0  0  0  0  0  0  0  0  0  0  0  0
   46.4470   24.5850   37.8100 C   0  0  0  0  0  0  0  0  0  0  0  0
   46.4830   25.2460   39.0410 C   0  0  0  0  0  0  0  0  0  0  0  0
   45.2890   25.8740   39.2250 N   0  0  0  0  0  0  0  0  0  0  0  0
   44.5350   25.6110   38.1460 N   0  0  0  0  0  0  0  0  0  0  0  0
   38.2770   23.7200   35.7100 S   0  0  0  0  0  0  0  0  0  0  0  0
   37.8740   23.0990   34.0850 C   0  0  0  0  0  0  0  0  0  0  0  0
   37.8100   21.7080   33.7830 C   0  0  0  0  0  0  0  0  0  0  0  0
   37.4870   21.3700   32.4850 C   0  0  0  0  0  0  0  0  0  0  0  0
   37.2490   22.3370   31.5720 N   0  0  0  0  0  0  0  0  0  0  0  0
   37.3200   23.6510   31.8980 C   0  0  0  0  0  0  0  0  0  0  0  0
   37.6310   24.0100   33.1500 N   0  0  0  0  0  0  0  0  0  0  0  0
   42.8513   22.4316   37.1389 H   0  0  0  0  0  0  0  0  0  0  0  0
   40.4056   22.1600   37.1450 H   0  0  0  0  0  0  0  0  0  0  0  0
   39.9898   25.4696   34.4488 H   0  0  0  0  0  0  0  0  0  0  0  0
   42.4419   25.7427   34.4451 H   0  0  0  0  0  0  0  0  0  0  0  0
   47.2452   23.9825   37.3518 H   0  0  0  0  0  0  0  0  0  0  0  0
   47.3311   25.2570   39.7415 H   0  0  0  0  0  0  0  0  0  0  0  0
   45.0158   26.4435   40.0386 H   0  0  0  0  0  0  0  0  0  0  0  0
   38.0083   20.9417   34.5468 H   0  0  0  0  0  0  0  0  0  0  0  0
   37.4231   20.3114   32.1929 H   0  0  0  0  0  0  0  0  0  0  0  0
   37.1228   24.4198   31.1364 H   0  0  0  0  0  0  0  0  0  0  0  0
  1  2  2  0
  2  3  1  0
  4  3  2  0
  5  6  2  0
  5  4  1  0
  6  1  1  0
  7  1  1  0
  7 10  1  0
  8  7  2  0
  9  7  2  0
 10 11  1  0
 10 14  2  0
 11 12  2  0
 12 13  1  0
 14 13  1  0
 15  4  1  0
 16 15  1  0
 17 16  2  0
 18 17  1  0
 19 20  1  0
 19 18  2  0
 20 21  2  0
 21 16  1  0
  2 22  1  0
  3 23  1  0
  5 24  1  0
  6 25  1  0
 11 26  1  0
 12 27  1  0
 13 28  1  0
 17 29  1  0
 18 30  1  0
 20 31  1  0
M  ISO  8  22  14  23  14  24  14  25  14  26  14  27  14  28   9  29  14
M  ISO  2  30  14  31  14
M  END
>  <minimizedAffinity>  (1) 
-4.53017616

>  <minimizedRMSD>  (1) 
0.864719748

$$$$
