
     RDKit          3D

 32 34  0  0  0  0  0  0  0  0999 V2000
   42.9070   23.5050   35.7400 C   0  0  0  0  0  0  0  0  0  0  0  0
   42.2280   22.6080   36.5680 C   0  0  0  0  0  0  0  0  0  0  0  0
   40.8570   22.5900   36.6230 C   0  0  0  0  0  0  0  0  0  0  0  0
   40.1190   23.4710   35.8470 C   0  0  0  0  0  0  0  0  0  0  0  0
   40.7460   24.3600   35.0280 C   0  0  0  0  0  0  0  0  0  0  0  0
   42.1280   24.3670   34.9830 C   0  0  0  0  0  0  0  0  0  0  0  0
   44.6460   23.4960   35.6570 S   0  0  0  0  0  0  0  0  0  0  0  0
   45.1240   22.0970   35.5930 O   0  0  0  0  0  0  0  0  0  0  0  0
   45.0530   24.2610   34.4060 O   0  0  0  0  0  0  0  0  0  0  0  0
   45.2500   24.4120   37.0280 C   0  0  0  0  0  0  0  0  0  0  0  0
   44.4690   25.3590   37.6810 C   0  0  0  0  0  0  0  0  0  0  0  0
   44.9030   26.1000   38.7610 C   0  0  0  0  0  0  0  0  0  0  0  0
   46.1540   25.8770   39.1890 N   0  0  0  0  0  0  0  0  0  0  0  0
   46.9390   24.9530   38.5640 C   0  0  0  0  0  0  0  0  0  0  0  0
   46.4860   24.2340   37.4990 N   0  0  0  0  0  0  0  0  0  0  0  0
   38.3300   23.5640   35.8170 S   0  0  0  0  0  0  0  0  0  0  0  0
   37.8220   23.0120   34.2030 C   0  0  0  0  0  0  0  0  0  0  0  0
   37.6310   21.6440   33.8770 C   0  0  0  0  0  0  0  0  0  0  0  0
   37.2360   21.3560   32.5860 C   0  0  0  0  0  0  0  0  0  0  0  0
   37.0510   22.3570   31.7010 N   0  0  0  0  0  0  0  0  0  0  0  0
   37.2410   23.6530   32.0380 C   0  0  0  0  0  0  0  0  0  0  0  0
   37.6240   23.9680   33.2860 N   0  0  0  0  0  0  0  0  0  0  0  0
   42.8027   21.9034   37.1871 H   0  0  0  0  0  0  0  0  0  0  0  0
   40.3429   21.8760   37.2833 H   0  0  0  0  0  0  0  0  0  0  0  0
   40.1629   25.0608   34.4125 H   0  0  0  0  0  0  0  0  0  0  0  0
   42.6303   25.0861   34.3192 H   0  0  0  0  0  0  0  0  0  0  0  0
   43.4453   25.5273   37.3153 H   0  0  0  0  0  0  0  0  0  0  0  0
   44.2520   26.8404   39.2489 H   0  0  0  0  0  0  0  0  0  0  0  0
   47.9629   24.7842   38.9288 H   0  0  0  0  0  0  0  0  0  0  0  0
   37.7906   20.8486   34.6199 H   0  0  0  0  0  0  0  0  0  0  0  0
   37.0724   20.3123   32.2796 H   0  0  0  0  0  0  0  0  0  0  0  0
   37.0824   24.4462   31.2925 H   0  0  0  0  0  0  0  0  0  0  0  0
  1  2  2  0
  2  3  1  0
  4  3  2  0
  5  4  1  0
  6  5  2  0
  6  1  1  0
  7  1  1  0
  7 10  1  0
  8  7  2  0
  9  7  2  0
 10 15  1  0
 10 11  2  0
 11 12  1  0
 12 13  2  0
 14 13  1  0
 15 14  2  0
 16  4  1  0
 17 16  1  0
 18 17  2  0
 19 18  1  0
 20 21  1  0
 20 19  2  0
 21 22  2  0
 22 17  1  0
  2 23  1  0
  3 24  1  0
  5 25  1  0
  6 26  1  0
 11 27  1  0
 12 28  1  0
 14 29  1  0
 18 30  1  0
 19 31  1  0
 21 32  1  0
M  ISO  8  23  14  24  14  25  14  26  14  27  14  28  14  29  14  30  14
M  ISO  2  31  14  32  14
M  END
>  <minimizedAffinity>  (1) 
-4.49361801

>  <minimizedRMSD>  (1) 
0.987775445

$$$$
