
     RDKit          3D

 31 33  0  0  0  0  0  0  0  0999 V2000
   42.7630   23.4730   35.7920 C   0  0  0  0  0  0  0  0  0  0  0  0
   42.0600   22.5990   36.6230 C   0  0  0  0  0  0  0  0  0  0  0  0
   40.6880   22.5630   36.6240 C   0  0  0  0  0  0  0  0  0  0  0  0
   39.9720   23.4040   35.7870 C   0  0  0  0  0  0  0  0  0  0  0  0
   40.6260   24.2660   34.9640 C   0  0  0  0  0  0  0  0  0  0  0  0
   42.0130   24.2970   34.9700 C   0  0  0  0  0  0  0  0  0  0  0  0
   44.5040   23.4630   35.7980 S   0  0  0  0  0  0  0  0  0  0  0  0
   44.9900   22.0720   35.9150 O   0  0  0  0  0  0  0  0  0  0  0  0
   44.9530   24.0890   34.4890 O   0  0  0  0  0  0  0  0  0  0  0  0
   45.1370   24.4610   37.0580 C   0  0  0  0  0  0  0  0  0  0  0  0
   44.5400   25.4060   37.9510 C   0  0  0  0  0  0  0  0  0  0  0  0
   45.3780   26.0230   38.8400 C   0  0  0  0  0  0  0  0  0  0  0  0
   46.7370   25.7610   38.8890 C   0  0  0  0  0  0  0  0  0  0  0  0
   46.9130   24.4550   37.4930 S   0  0  0  0  0  0  0  0  0  0  0  0
   38.1880   23.4830   35.6800 S   0  0  0  0  0  0  0  0  0  0  0  0
   37.7630   22.9970   34.0260 C   0  0  0  0  0  0  0  0  0  0  0  0
   37.6870   21.6290   33.6150 C   0  0  0  0  0  0  0  0  0  0  0  0
   37.3460   21.3880   32.2990 C   0  0  0  0  0  0  0  0  0  0  0  0
   37.1020   22.4210   31.4680 N   0  0  0  0  0  0  0  0  0  0  0  0
   37.1820   23.7090   31.8910 C   0  0  0  0  0  0  0  0  0  0  0  0
   37.5090   23.9900   33.1540 N   0  0  0  0  0  0  0  0  0  0  0  0
   42.6171   21.9253   37.2907 H   0  0  0  0  0  0  0  0  0  0  0  0
   40.1566   21.8665   37.2893 H   0  0  0  0  0  0  0  0  0  0  0  0
   40.0597   24.9339   34.2983 H   0  0  0  0  0  0  0  0  0  0  0  0
   42.5332   24.9981   34.3008 H   0  0  0  0  0  0  0  0  0  0  0  0
   43.4624   25.6255   37.9245 H   0  0  0  0  0  0  0  0  0  0  0  0
   44.9555   26.7558   39.5432 H   0  0  0  0  0  0  0  0  0  0  0  0
   47.5072   26.1862   39.5492 H   0  0  0  0  0  0  0  0  0  0  0  0
   37.8910   20.8061   34.3158 H   0  0  0  0  0  0  0  0  0  0  0  0
   37.2735   20.3546   31.9292 H   0  0  0  0  0  0  0  0  0  0  0  0
   36.9754   24.5280   31.1863 H   0  0  0  0  0  0  0  0  0  0  0  0
  1  7  1  0
  1  2  2  0
  2  3  1  0
  4  3  2  0
  5  6  2  0
  5  4  1  0
  6  1  1  0
  7  8  2  0
  7 10  1  0
  9  7  2  0
 10 14  1  0
 10 11  2  0
 11 12  1  0
 12 13  2  0
 14 13  1  0
 15  4  1  0
 16 15  1  0
 17 16  2  0
 18 17  1  0
 19 20  1  0
 19 18  2  0
 20 21  2  0
 21 16  1  0
  2 22  1  0
  3 23  1  0
  5 24  1  0
  6 25  1  0
 11 26  1  0
 12 27  1  0
 13 28  1  0
 17 29  1  0
 18 30  1  0
 20 31  1  0
M  ISO  8  22  14  23  14  24  14  25  14  26  14  27  14  28  14  29  14
M  ISO  2  30  14  31  14
M  END
>  <minimizedAffinity>  (1) 
-4.18549919

>  <minimizedRMSD>  (1) 
0.960534215

$$$$
