
     RDKit          3D

 31 33  0  0  0  0  0  0  0  0999 V2000
   43.0320   24.3210   35.8540 C   0  0  0  0  0  0  0  0  0  0  0  0
   42.6010   23.2300   36.6120 C   0  0  0  0  0  0  0  0  0  0  0  0
   41.2800   22.8440   36.5890 C   0  0  0  0  0  0  0  0  0  0  0  0
   40.3570   23.5280   35.8170 C   0  0  0  0  0  0  0  0  0  0  0  0
   40.7490   24.5990   35.0660 C   0  0  0  0  0  0  0  0  0  0  0  0
   42.0750   24.9750   35.0970 C   0  0  0  0  0  0  0  0  0  0  0  0
   44.7030   24.7910   35.8590 S   0  0  0  0  0  0  0  0  0  0  0  0
   45.4650   23.9310   34.9310 O   0  0  0  0  0  0  0  0  0  0  0  0
   44.7810   26.2490   35.4370 O   0  0  0  0  0  0  0  0  0  0  0  0
   45.2660   24.7700   37.5410 C   0  0  0  0  0  0  0  0  0  0  0  0
   46.3020   25.7020   38.0090 C   0  0  0  0  0  0  0  0  0  0  0  0
   44.8450   25.8790   38.4010 C   0  0  0  0  0  0  0  0  0  0  0  0
   38.6190   23.1280   35.7030 S   0  0  0  0  0  0  0  0  0  0  0  0
   38.2770   22.8610   33.9710 C   0  0  0  0  0  0  0  0  0  0  0  0
   38.6680   21.6680   33.2850 C   0  0  0  0  0  0  0  0  0  0  0  0
   38.3400   21.5910   31.9470 C   0  0  0  0  0  0  0  0  0  0  0  0
   37.6860   22.6070   31.3450 N   0  0  0  0  0  0  0  0  0  0  0  0
   37.3320   23.7270   32.0350 C   0  0  0  0  0  0  0  0  0  0  0  0
   37.6330   23.8370   33.3330 N   0  0  0  0  0  0  0  0  0  0  0  0
   43.3217   22.6758   37.2312 H   0  0  0  0  0  0  0  0  0  0  0  0
   40.9543   21.9826   37.1906 H   0  0  0  0  0  0  0  0  0  0  0  0
   40.0228   25.1496   34.4499 H   0  0  0  0  0  0  0  0  0  0  0  0
   42.3881   25.8374   34.4902 H   0  0  0  0  0  0  0  0  0  0  0  0
   45.1878   23.6733   37.5745 H   0  0  0  0  0  0  0  0  0  0  0  0
   47.0411   25.3783   38.7566 H   0  0  0  0  0  0  0  0  0  0  0  0
   47.0685   26.3293   37.5304 H   0  0  0  0  0  0  0  0  0  0  0  0
   44.2573   26.7099   37.9836 H   0  0  0  0  0  0  0  0  0  0  0  0
   44.2939   25.9704   39.3486 H   0  0  0  0  0  0  0  0  0  0  0  0
   39.2023   20.8545   33.7975 H   0  0  0  0  0  0  0  0  0  0  0  0
   38.6129   20.6967   31.3676 H   0  0  0  0  0  0  0  0  0  0  0  0
   36.7980   24.5416   31.5238 H   0  0  0  0  0  0  0  0  0  0  0  0
  1  7  1  0
  1  2  2  0
  3  2  1  0
  4  3  2  0
  5  6  2  0
  5  4  1  0
  6  1  1  0
  7 10  1  0
  8  7  2  0
  9  7  2  0
 10 11  1  0
 10 12  1  0
 11 12  1  0
 13  4  1  0
 14 13  1  0
 15 14  2  0
 16 15  1  0
 17 16  2  0
 17 18  1  0
 18 19  2  0
 19 14  1  0
  2 20  1  0
  3 21  1  0
  5 22  1  0
  6 23  1  0
 10 24  1  0
 11 25  1  0
 11 26  1  0
 12 27  1  0
 12 28  1  0
 15 29  1  0
 16 30  1  0
 18 31  1  0
M  ISO  8  20  14  21  14  22  14  23  14  24  13  25  13  26  13  27  13
M  ISO  4  28  13  29  14  30  14  31  14
M  END
>  <minimizedAffinity>  (1) 
-4.04277039

>  <minimizedRMSD>  (1) 
0.934934258

$$$$
