
     RDKit          3D

 41 44  0  0  0  0  0  0  0  0999 V2000
   43.6540   25.8290   34.8780 C   0  0  0  0  0  0  0  0  0  0  0  0
   42.9320   24.7060   35.2480 C   0  0  0  0  0  0  0  0  0  0  0  0
   41.5850   24.6210   35.0030 C   0  0  0  0  0  0  0  0  0  0  0  0
   40.9130   25.6550   34.3790 C   0  0  0  0  0  0  0  0  0  0  0  0
   41.5940   26.7690   34.0040 C   0  0  0  0  0  0  0  0  0  0  0  0
   42.9530   26.8570   34.2510 C   0  0  0  0  0  0  0  0  0  0  0  0
   45.3590   25.9300   35.1910 S   0  0  0  0  0  0  0  0  0  0  0  0
   46.0690   24.9370   34.3370 O   0  0  0  0  0  0  0  0  0  0  0  0
   45.8190   27.3400   34.8500 O   0  0  0  0  0  0  0  0  0  0  0  0
   46.7890   24.9070   38.6760 N   0  0  0  0  0  0  0  0  0  0  0  0
   46.8600   24.9570   37.3550 N   0  0  0  0  0  0  0  0  0  0  0  0
   45.7730   25.5890   36.8690 C   0  0  0  0  0  0  0  0  0  0  0  0
   45.0270   25.9230   37.9830 C   0  0  0  0  0  0  0  0  0  0  0  0
   45.6510   25.5030   39.1150 C   0  0  0  0  0  0  0  0  0  0  0  0
   39.1680   25.6780   33.9990 S   0  0  0  0  0  0  0  0  0  0  0  0
   38.4670   24.1970   34.6980 C   0  0  0  0  0  0  0  0  0  0  0  0
   38.5060   23.9360   36.0940 C   0  0  0  0  0  0  0  0  0  0  0  0
   37.9310   22.7560   36.5220 C   0  0  0  0  0  0  0  0  0  0  0  0
   37.3650   21.9100   35.6240 N   0  0  0  0  0  0  0  0  0  0  0  0
   37.3540   22.2050   34.3080 C   0  0  0  0  0  0  0  0  0  0  0  0
   37.8980   23.3350   33.8460 N   0  0  0  0  0  0  0  0  0  0  0  0
   36.7380   21.2790   33.3500 C   0  0  0  0  0  0  0  0  0  0  0  0
   37.2030   21.2640   32.0310 C   0  0  0  0  0  0  0  0  0  0  0  0
   36.6590   20.4110   31.0820 C   0  0  0  0  0  0  0  0  0  0  0  0
   35.6400   19.5570   31.4360 C   0  0  0  0  0  0  0  0  0  0  0  0
   35.1740   19.5640   32.7360 C   0  0  0  0  0  0  0  0  0  0  0  0
   35.7150   20.4190   33.7000 C   0  0  0  0  0  0  0  0  0  0  0  0
   43.4463   23.8705   35.7454 H   0  0  0  0  0  0  0  0  0  0  0  0
   41.0332   23.7192   35.3068 H   0  0  0  0  0  0  0  0  0  0  0  0
   41.0679   27.5971   33.5065 H   0  0  0  0  0  0  0  0  0  0  0  0
   43.4947   27.7637   33.9438 H   0  0  0  0  0  0  0  0  0  0  0  0
   47.4984   24.4759   39.2858 H   0  0  0  0  0  0  0  0  0  0  0  0
   44.0639   26.4539   37.9573 H   0  0  0  0  0  0  0  0  0  0  0  0
   45.3102   25.6199   40.1543 H   0  0  0  0  0  0  0  0  0  0  0  0
   38.9717   24.6398   36.7995 H   0  0  0  0  0  0  0  0  0  0  0  0
   37.9316   22.5011   37.5921 H   0  0  0  0  0  0  0  0  0  0  0  0
   38.0177   21.9433   31.7399 H   0  0  0  0  0  0  0  0  0  0  0  0
   37.0408   20.4173   30.0504 H   0  0  0  0  0  0  0  0  0  0  0  0
   35.2013   18.8761   30.6917 H   0  0  0  0  0  0  0  0  0  0  0  0
   34.3590   18.8815   33.0189 H   0  0  0  0  0  0  0  0  0  0  0  0
   35.3291   20.4073   34.7300 H   0  0  0  0  0  0  0  0  0  0  0  0
  1  7  1  0
  1  2  2  0
  3  2  1  0
  4  3  2  0
  5  6  2  0
  5  4  1  0
  6  1  1  0
  7 12  1  0
  8  7  2  0
  9  7  2  0
 10 14  1  0
 11 10  1  0
 12 11  2  0
 12 13  1  0
 13 14  2  0
 15  4  1  0
 15 16  1  0
 16 17  2  0
 17 18  1  0
 19 18  2  0
 20 19  1  0
 21 20  2  0
 21 16  1  0
 22 27  1  0
 22 20  1  0
 23 22  2  0
 24 25  2  0
 24 23  1  0
 25 26  1  0
 26 27  2  0
  2 28  1  0
  3 29  1  0
  5 30  1  0
  6 31  1  0
 10 32  1  0
 13 33  1  0
 14 34  1  0
 17 35  1  0
 18 36  1  0
 23 37  1  0
 24 38  1  0
 25 39  1  0
 26 40  1  0
 27 41  1  0
M  ISO  8  28  14  29  14  30  14  31  14  32   9  33  14  34  14  35  14
M  ISO  6  36  14  37  14  38  14  39  14  40  14  41  14
M  END
>  <minimizedAffinity>  (1) 
-5.84041595

>  <minimizedRMSD>  (1) 
1.52600455

$$$$
