
     RDKit          3D

 38 41  0  0  0  0  0  0  0  0999 V2000
   43.6310   25.6390   34.9370 C   0  0  0  0  0  0  0  0  0  0  0  0
   42.8700   24.5430   35.3140 C   0  0  0  0  0  0  0  0  0  0  0  0
   41.5110   24.5040   35.0860 C   0  0  0  0  0  0  0  0  0  0  0  0
   40.8770   25.5840   34.4640 C   0  0  0  0  0  0  0  0  0  0  0  0
   41.6020   26.6800   34.0800 C   0  0  0  0  0  0  0  0  0  0  0  0
   42.9630   26.6890   34.3220 C   0  0  0  0  0  0  0  0  0  0  0  0
   45.3450   25.6730   35.2320 S   0  0  0  0  0  0  0  0  0  0  0  0
   45.9840   24.5790   34.4500 O   0  0  0  0  0  0  0  0  0  0  0  0
   45.8810   27.0180   34.7700 O   0  0  0  0  0  0  0  0  0  0  0  0
   46.7590   24.8890   38.7820 N   0  0  0  0  0  0  0  0  0  0  0  0
   46.8130   24.8410   37.4690 N   0  0  0  0  0  0  0  0  0  0  0  0
   45.7500   25.4570   36.9330 C   0  0  0  0  0  0  0  0  0  0  0  0
   45.0120   25.9010   38.0210 C   0  0  0  0  0  0  0  0  0  0  0  0
   45.6300   25.5540   39.1800 C   0  0  0  0  0  0  0  0  0  0  0  0
   39.1340   25.6830   34.1010 S   0  0  0  0  0  0  0  0  0  0  0  0
   38.3830   24.2230   34.7710 C   0  0  0  0  0  0  0  0  0  0  0  0
   38.2890   23.9830   36.1690 C   0  0  0  0  0  0  0  0  0  0  0  0
   37.6840   22.8150   36.5860 C   0  0  0  0  0  0  0  0  0  0  0  0
   37.2110   21.9550   35.6520 N   0  0  0  0  0  0  0  0  0  0  0  0
   37.3170   22.2130   34.3390 C   0  0  0  0  0  0  0  0  0  0  0  0
   37.8970   23.3370   33.9200 N   0  0  0  0  0  0  0  0  0  0  0  0
   36.7690   21.2070   33.4940 N   0  0  0  0  0  0  0  0  0  0  0  0
   36.9480   20.8690   32.2140 N   0  0  0  0  0  0  0  0  0  0  0  0
   36.1600   19.8150   31.9180 C   0  0  0  0  0  0  0  0  0  0  0  0
   35.4580   19.4780   33.0590 C   0  0  0  0  0  0  0  0  0  0  0  0
   35.8570   20.3730   34.0520 C   0  0  0  0  0  0  0  0  0  0  0  0
   43.3598   23.6887   35.8042 H   0  0  0  0  0  0  0  0  0  0  0  0
   40.9261   23.6244   35.3930 H   0  0  0  0  0  0  0  0  0  0  0  0
   41.1124   27.5344   33.5898 H   0  0  0  0  0  0  0  0  0  0  0  0
   43.5443   27.5701   34.0125 H   0  0  0  0  0  0  0  0  0  0  0  0
   47.4622   24.4858   39.4174 H   0  0  0  0  0  0  0  0  0  0  0  0
   44.0635   26.4541   37.9546 H   0  0  0  0  0  0  0  0  0  0  0  0
   45.2978   25.7609   40.2080 H   0  0  0  0  0  0  0  0  0  0  0  0
   38.6864   24.7063   36.8962 H   0  0  0  0  0  0  0  0  0  0  0  0
   37.5875   22.5862   37.6576 H   0  0  0  0  0  0  0  0  0  0  0  0
   36.0890   19.3131   30.9417 H   0  0  0  0  0  0  0  0  0  0  0  0
   34.7269   18.6629   33.1641 H   0  0  0  0  0  0  0  0  0  0  0  0
   35.4991   20.3975   35.0919 H   0  0  0  0  0  0  0  0  0  0  0  0
  1  7  1  0
  1  2  2  0
  3  2  1  0
  4  3  2  0
  5  6  2  0
  5  4  1  0
  6  1  1  0
  7 12  1  0
  8  7  2  0
  9  7  2  0
 10 14  1  0
 11 10  1  0
 12 11  2  0
 12 13  1  0
 13 14  2  0
 15  4  1  0
 15 16  1  0
 16 17  2  0
 17 18  1  0
 19 18  2  0
 20 19  1  0
 21 20  2  0
 21 16  1  0
 22 26  1  0
 22 20  1  0
 23 22  1  0
 24 23  2  0
 24 25  1  0
 25 26  2  0
  2 27  1  0
  3 28  1  0
  5 29  1  0
  6 30  1  0
 10 31  1  0
 13 32  1  0
 14 33  1  0
 17 34  1  0
 18 35  1  0
 24 36  1  0
 25 37  1  0
 26 38  1  0
M  ISO  8  27  14  28  14  29  14  30  14  31   9  32  14  33  14  34  14
M  ISO  4  35  14  36  14  37  14  38  14
M  END
>  <minimizedAffinity>  (1) 
-5.51290274

>  <minimizedRMSD>  (1) 
1.3509028

$$$$
