
     RDKit          3D

 37 40  0  0  0  0  0  0  0  0999 V2000
   43.5540   25.6350   34.9660 C   0  0  0  0  0  0  0  0  0  0  0  0
   42.8040   24.5200   35.3480 C   0  0  0  0  0  0  0  0  0  0  0  0
   41.4540   24.5000   35.1430 C   0  0  0  0  0  0  0  0  0  0  0  0
   40.7940   25.5720   34.5560 C   0  0  0  0  0  0  0  0  0  0  0  0
   41.5020   26.6800   34.1700 C   0  0  0  0  0  0  0  0  0  0  0  0
   42.8770   26.6850   34.3860 C   0  0  0  0  0  0  0  0  0  0  0  0
   45.2770   25.6720   35.2220 S   0  0  0  0  0  0  0  0  0  0  0  0
   45.9010   24.5700   34.4380 O   0  0  0  0  0  0  0  0  0  0  0  0
   45.8010   27.0120   34.7550 O   0  0  0  0  0  0  0  0  0  0  0  0
   46.7780   24.8860   38.7370 N   0  0  0  0  0  0  0  0  0  0  0  0
   46.8040   24.8410   37.4170 N   0  0  0  0  0  0  0  0  0  0  0  0
   45.7130   25.4580   36.9110 C   0  0  0  0  0  0  0  0  0  0  0  0
   45.0040   25.8900   38.0140 C   0  0  0  0  0  0  0  0  0  0  0  0
   45.6540   25.5410   39.1620 C   0  0  0  0  0  0  0  0  0  0  0  0
   39.0480   25.6720   34.2340 S   0  0  0  0  0  0  0  0  0  0  0  0
   38.3250   24.1630   34.8190 C   0  0  0  0  0  0  0  0  0  0  0  0
   38.1420   23.9000   36.2120 C   0  0  0  0  0  0  0  0  0  0  0  0
   37.5710   22.6980   36.5560 C   0  0  0  0  0  0  0  0  0  0  0  0
   37.2130   21.8320   35.5970 N   0  0  0  0  0  0  0  0  0  0  0  0
   37.4000   22.1130   34.2840 C   0  0  0  0  0  0  0  0  0  0  0  0
   37.9500   23.2660   33.9300 N   0  0  0  0  0  0  0  0  0  0  0  0
   36.9620   21.0720   33.3250 C   0  0  0  0  0  0  0  0  0  0  0  0
   35.6790   20.7030   33.5970 C   0  0  0  0  0  0  0  0  0  0  0  0
   35.2750   19.4090   32.3270 S   0  0  0  0  0  0  0  0  0  0  0  0
   37.0420   19.6280   31.6200 C   0  0  0  0  0  0  0  0  0  0  0  0
   37.4590   20.4170   32.3000 N   0  0  0  0  0  0  0  0  0  0  0  0
   43.3015   23.6570   35.8145 H   0  0  0  0  0  0  0  0  0  0  0  0
   40.8765   23.6154   35.4495 H   0  0  0  0  0  0  0  0  0  0  0  0
   40.9987   27.5397   33.7034 H   0  0  0  0  0  0  0  0  0  0  0  0
   43.4514   27.5712   34.0783 H   0  0  0  0  0  0  0  0  0  0  0  0
   47.4981   24.4866   39.3557 H   0  0  0  0  0  0  0  0  0  0  0  0
   44.0508   26.4376   37.9733 H   0  0  0  0  0  0  0  0  0  0  0  0
   45.3437   25.7415   40.1981 H   0  0  0  0  0  0  0  0  0  0  0  0
   38.4456   24.6296   36.9772 H   0  0  0  0  0  0  0  0  0  0  0  0
   37.4083   22.4473   37.6146 H   0  0  0  0  0  0  0  0  0  0  0  0
   35.0255   21.0872   34.3941 H   0  0  0  0  0  0  0  0  0  0  0  0
   37.5207   19.1160   30.7723 H   0  0  0  0  0  0  0  0  0  0  0  0
  1  7  1  0
  1  2  2  0
  3  2  1  0
  4  3  2  0
  5  6  2  0
  5  4  1  0
  6  1  1  0
  7 12  1  0
  8  7  2  0
  9  7  2  0
 10 14  1  0
 11 10  1  0
 12 11  2  0
 12 13  1  0
 13 14  2  0
 15  4  1  0
 15 16  1  0
 16 17  2  0
 17 18  1  0
 19 18  2  0
 20 19  1  0
 21 20  2  0
 21 16  1  0
 22 23  2  0
 22 20  1  0
 24 23  1  0
 25 26  2  0
 25 24  1  0
 26 22  1  0
  2 27  1  0
  3 28  1  0
  5 29  1  0
  6 30  1  0
 10 31  1  0
 13 32  1  0
 14 33  1  0
 17 34  1  0
 18 35  1  0
 23 36  1  0
 25 37  1  0
M  ISO  8  27  14  28  14  29  14  30  14  31   9  32  14  33  14  34  14
M  ISO  3  35  14  36  14  37  14
M  END
>  <minimizedAffinity>  (1) 
-5.28138351

>  <minimizedRMSD>  (1) 
1.4657861

$$$$
