
     RDKit          3D

 36 39  0  0  0  0  0  0  0  0999 V2000
   43.6950   25.8240   34.8880 C   0  0  0  0  0  0  0  0  0  0  0  0
   42.9760   24.6990   35.2610 C   0  0  0  0  0  0  0  0  0  0  0  0
   41.6280   24.6050   35.0200 C   0  0  0  0  0  0  0  0  0  0  0  0
   40.9480   25.6460   34.3910 C   0  0  0  0  0  0  0  0  0  0  0  0
   41.6270   26.7610   34.0130 C   0  0  0  0  0  0  0  0  0  0  0  0
   42.9850   26.8440   34.2610 C   0  0  0  0  0  0  0  0  0  0  0  0
   45.4030   25.9400   35.1940 S   0  0  0  0  0  0  0  0  0  0  0  0
   46.1080   24.9560   34.3270 O   0  0  0  0  0  0  0  0  0  0  0  0
   45.8490   27.3560   34.8740 O   0  0  0  0  0  0  0  0  0  0  0  0
   46.8420   24.8730   38.6670 N   0  0  0  0  0  0  0  0  0  0  0  0
   46.9000   24.9370   37.3550 N   0  0  0  0  0  0  0  0  0  0  0  0
   45.8150   25.5850   36.8670 C   0  0  0  0  0  0  0  0  0  0  0  0
   45.0720   25.9200   37.9980 C   0  0  0  0  0  0  0  0  0  0  0  0
   45.7030   25.4820   39.1160 C   0  0  0  0  0  0  0  0  0  0  0  0
   39.2070   25.6720   34.0110 S   0  0  0  0  0  0  0  0  0  0  0  0
   38.4720   24.2910   34.8650 C   0  0  0  0  0  0  0  0  0  0  0  0
   38.4650   24.2200   36.2960 C   0  0  0  0  0  0  0  0  0  0  0  0
   37.8680   23.1020   36.8450 C   0  0  0  0  0  0  0  0  0  0  0  0
   37.3360   22.1560   36.0400 N   0  0  0  0  0  0  0  0  0  0  0  0
   37.3650   22.2670   34.7020 C   0  0  0  0  0  0  0  0  0  0  0  0
   37.9320   23.3280   34.1440 N   0  0  0  0  0  0  0  0  0  0  0  0
   36.7820   21.2310   33.8620 C   0  0  0  0  0  0  0  0  0  0  0  0
   37.2560   20.7410   32.6840 N   0  0  0  0  0  0  0  0  0  0  0  0
   36.4610   19.8290   32.2390 O   0  0  0  0  0  0  0  0  0  0  0  0
   35.4650   19.6830   33.0730 C   0  0  0  0  0  0  0  0  0  0  0  0
   35.6440   20.5480   34.0930 N   0  0  0  0  0  0  0  0  0  0  0  0
   43.4950   23.8668   35.7590 H   0  0  0  0  0  0  0  0  0  0  0  0
   41.0805   23.7012   35.3257 H   0  0  0  0  0  0  0  0  0  0  0  0
   41.1017   27.5891   33.5148 H   0  0  0  0  0  0  0  0  0  0  0  0
   43.5248   27.7509   33.9509 H   0  0  0  0  0  0  0  0  0  0  0  0
   47.5507   24.4292   39.2684 H   0  0  0  0  0  0  0  0  0  0  0  0
   44.1140   26.4605   37.9856 H   0  0  0  0  0  0  0  0  0  0  0  0
   45.3703   25.5928   40.1586 H   0  0  0  0  0  0  0  0  0  0  0  0
   38.9089   25.0093   36.9205 H   0  0  0  0  0  0  0  0  0  0  0  0
   37.8256   22.9817   37.9376 H   0  0  0  0  0  0  0  0  0  0  0  0
   34.6276   18.9783   32.9626 H   0  0  0  0  0  0  0  0  0  0  0  0
  1  7  1  0
  1  2  2  0
  3  2  1  0
  4  3  2  0
  5  6  2  0
  5  4  1  0
  6  1  1  0
  7 12  1  0
  8  7  2  0
  9  7  2  0
 10 14  1  0
 11 10  1  0
 12 11  2  0
 12 13  1  0
 13 14  2  0
 15  4  1  0
 15 16  1  0
 16 17  2  0
 17 18  1  0
 19 18  2  0
 20 19  1  0
 21 20  2  0
 21 16  1  0
 22 26  1  0
 22 20  1  0
 23 22  2  0
 24 23  1  0
 24 25  1  0
 25 26  2  0
  2 27  1  0
  3 28  1  0
  5 29  1  0
  6 30  1  0
 10 31  1  0
 13 32  1  0
 14 33  1  0
 17 34  1  0
 18 35  1  0
 25 36  1  0
M  ISO  8  27  14  28  14  29  14  30  14  31   9  32  14  33  14  34  14
M  ISO  2  35  14  36  14
M  END
>  <minimizedAffinity>  (1) 
-5.27709675

>  <minimizedRMSD>  (1) 
1.06951082

$$$$
