
     RDKit          3D

 32 34  0  0  1  0  0  0  0  0999 V2000
   38.7900   25.6490   34.9790 C   0  0  2  0  0  0  0  0  0  0  0  0
   39.6110   22.9210   37.2860 C   0  0  0  0  0  0  0  0  0  0  0  0
   38.7890   23.1830   38.4270 C   0  0  0  0  0  0  0  0  0  0  0  0
   37.9490   24.3180   38.3830 C   0  0  0  0  0  0  0  0  0  0  0  0
   37.9880   25.0830   37.2430 N   0  0  0  0  0  0  0  0  0  0  0  0
   38.7820   24.7940   36.1930 C   0  0  0  0  0  0  0  0  0  0  0  0
   39.5750   23.7290   36.2250 N   0  0  0  0  0  0  0  0  0  0  0  0
   39.3120   27.0140   35.3620 C   0  0  0  0  0  0  0  0  0  0  0  0
   37.4100   25.8370   34.3920 C   0  0  0  0  0  0  0  0  0  0  0  0
   37.4420   26.2310   33.0200 N   0  0  0  0  0  0  0  0  0  0  0  0
   38.0490   25.5200   32.0270 C   0  0  0  0  0  0  0  0  0  0  0  0
   37.9060   26.1520   30.8390 N   0  0  0  0  0  0  0  0  0  0  0  0
   37.2020   27.2920   31.0270 C   0  0  0  0  0  0  0  0  0  0  0  0
   36.7640   28.3080   30.2020 C   0  0  0  0  0  0  0  0  0  0  0  0
   36.0590   29.3330   30.7390 N   0  0  0  0  0  0  0  0  0  0  0  0
   35.8050   29.3340   32.0610 C   0  0  0  0  0  0  0  0  0  0  0  0
   36.2360   28.3390   32.8600 N   0  0  0  0  0  0  0  0  0  0  0  0
   36.9410   27.2930   32.3840 C   0  0  0  0  0  0  0  0  0  0  0  0
   37.0850   28.2160   28.8080 N   0  0  0  0  0  0  0  0  0  0  0  0
   39.4206   25.1514   34.2275 H   0  0  0  0  0  0  0  0  0  0  0  0
   40.2781   22.0464   37.2834 H   0  0  0  0  0  0  0  0  0  0  0  0
   38.8102   22.5240   39.3075 H   0  0  0  0  0  0  0  0  0  0  0  0
   37.2917   24.5780   39.2258 H   0  0  0  0  0  0  0  0  0  0  0  0
   39.3448   27.0997   36.4582 H   0  0  0  0  0  0  0  0  0  0  0  0
   40.3245   27.1473   34.9534 H   0  0  0  0  0  0  0  0  0  0  0  0
   38.6468   27.7889   34.9534 H   0  0  0  0  0  0  0  0  0  0  0  0
   36.8614   24.8870   34.4723 H   0  0  0  0  0  0  0  0  0  0  0  0
   36.9164   26.6418   34.9566 H   0  0  0  0  0  0  0  0  0  0  0  0
   38.5798   24.5674   32.1714 H   0  0  0  0  0  0  0  0  0  0  0  0
   35.2330   30.1656   32.4983 H   0  0  0  0  0  0  0  0  0  0  0  0
   37.6245   27.4125   28.4557 H   0  0  0  0  0  0  0  0  0  0  0  0
   36.7761   28.9534   28.1586 H   0  0  0  0  0  0  0  0  0  0  0  0
  1  8  1  0
  1  6  1  0
  2  3  2  0
  4  3  1  0
  5  4  2  0
  6  7  2  0
  6  5  1  0
  7  2  1  0
  9  1  1  0
 10  9  1  0
 11 10  1  0
 12 13  1  0
 12 11  2  0
 13 18  2  0
 14 15  2  0
 14 13  1  0
 15 16  1  0
 16 17  2  0
 18 17  1  0
 18 10  1  0
 19 14  1  0
  1 20  1  6
  2 21  1  0
  3 22  1  0
  4 23  1  0
  8 24  1  0
  8 25  1  0
  8 26  1  0
  9 27  1  0
  9 28  1  0
 11 29  1  0
 16 30  1  0
 19 31  1  0
 19 32  1  0
M  ISO  8  20   8  21  14  22  14  23  14  24   8  25   8  26   8  27   8
M  ISO  3  28   8  29  14  30  14
M  END
>  <minimizedAffinity>  (1) 
-5.26123095

>  <minimizedRMSD>  (1) 
0.882253408

$$$$
