
     RDKit          3D

 32 34  0  0  0  0  0  0  0  0999 V2000
   39.3230   25.3900   34.5010 N   0  0  0  0  0  0  0  0  0  0  0  0
   40.4680   26.1070   34.4960 C   0  0  0  0  0  0  0  0  0  0  0  0
   40.7780   26.8600   33.3690 C   0  0  0  0  0  0  0  0  0  0  0  0
   39.9110   26.8510   32.2940 C   0  0  0  0  0  0  0  0  0  0  0  0
   40.1090   27.4970   31.2420 O   0  0  0  0  0  0  0  0  0  0  0  0
   38.7770   26.1230   32.3340 N   0  0  0  0  0  0  0  0  0  0  0  0
   38.5050   25.4010   33.4490 C   0  0  0  0  0  0  0  0  0  0  0  0
   37.4580   24.7350   33.4770 O   0  0  0  0  0  0  0  0  0  0  0  0
   38.1960   25.1900   36.6190 C   0  0  0  0  0  0  0  0  0  0  0  0
   39.0920   24.6610   35.6890 C   0  0  0  0  0  0  0  0  0  0  0  0
   39.7010   23.4500   35.9910 C   0  0  0  0  0  0  0  0  0  0  0  0
   39.3980   22.8340   37.1760 N   0  0  0  0  0  0  0  0  0  0  0  0
   38.5290   23.3740   38.0480 C   0  0  0  0  0  0  0  0  0  0  0  0
   37.9350   24.5480   37.7620 N   0  0  0  0  0  0  0  0  0  0  0  0
   38.3640   22.5750   39.2010 N   0  0  0  0  0  0  0  0  0  0  0  0
   42.0170   27.6900   33.2540 C   0  0  0  0  0  0  0  0  0  0  0  0
   43.2360   26.8600   33.3720 C   0  0  0  0  0  0  0  0  0  0  0  0
   44.2620   26.8380   34.2610 C   0  0  0  0  0  0  0  0  0  0  0  0
   45.1750   25.8580   33.9350 C   0  0  0  0  0  0  0  0  0  0  0  0
   44.6720   25.2920   32.8300 N   0  0  0  0  0  0  0  0  0  0  0  0
   43.5250   25.8740   32.4850 N   0  0  0  0  0  0  0  0  0  0  0  0
   41.1413   26.0953   35.3658 H   0  0  0  0  0  0  0  0  0  0  0  0
   38.1296   26.1154   31.5329 H   0  0  0  0  0  0  0  0  0  0  0  0
   37.6979   26.1480   36.4087 H   0  0  0  0  0  0  0  0  0  0  0  0
   40.4150   22.9931   35.2899 H   0  0  0  0  0  0  0  0  0  0  0  0
   37.7236   22.8766   39.9492 H   0  0  0  0  0  0  0  0  0  0  0  0
   38.8841   21.6908   39.2936 H   0  0  0  0  0  0  0  0  0  0  0  0
   42.0206   28.1941   32.2763 H   0  0  0  0  0  0  0  0  0  0  0  0
   42.0183   28.4251   34.0723 H   0  0  0  0  0  0  0  0  0  0  0  0
   44.3526   27.5120   35.1256 H   0  0  0  0  0  0  0  0  0  0  0  0
   46.1051   25.5995   34.4623 H   0  0  0  0  0  0  0  0  0  0  0  0
   45.1117   24.5140   32.3179 H   0  0  0  0  0  0  0  0  0  0  0  0
  1 10  1  0
  2  1  1  0
  3  2  2  0
  4  6  1  0
  4  3  1  0
  5  4  2  0
  6  7  1  0
  7  8  2  0
  7  1  1  0
  9 14  2  0
 10 11  2  0
 10  9  1  0
 11 12  1  0
 12 13  2  0
 13 15  1  0
 14 13  1  0
 16  3  1  0
 16 17  1  0
 17 18  1  0
 19 18  2  0
 20 19  1  0
 21 20  1  0
 21 17  2  0
  2 22  1  0
  6 23  1  0
  9 24  1  0
 11 25  1  0
 15 26  1  0
 15 27  1  0
 16 28  1  0
 16 29  1  0
 18 30  1  0
 19 31  1  0
 20 32  1  0
M  ISO  8  22  14  23   9  24  14  25  14  28   8  29   8  30  14  31  14
M  ISO  1  32   9
M  END
>  <minimizedAffinity>  (1) 
-4.49508953

>  <minimizedRMSD>  (1) 
1.12083793

$$$$
