
     RDKit          3D

 40 42  0  0  0  0  0  0  0  0999 V2000
   43.6200   25.5550   34.8580 C   0  0  0  0  0  0  0  0  0  0  0  0
   43.1260   24.3080   35.2200 C   0  0  0  0  0  0  0  0  0  0  0  0
   41.8450   23.9380   34.9140 C   0  0  0  0  0  0  0  0  0  0  0  0
   41.0100   24.8010   34.2330 C   0  0  0  0  0  0  0  0  0  0  0  0
   41.4630   26.0370   33.8590 C   0  0  0  0  0  0  0  0  0  0  0  0
   42.7530   26.3920   34.1760 C   0  0  0  0  0  0  0  0  0  0  0  0
   45.2500   26.0220   35.2500 S   0  0  0  0  0  0  0  0  0  0  0  0
   46.1810   25.2850   34.3500 O   0  0  0  0  0  0  0  0  0  0  0  0
   45.3770   27.5210   35.0330 O   0  0  0  0  0  0  0  0  0  0  0  0
   46.7360   24.9330   38.6950 N   0  0  0  0  0  0  0  0  0  0  0  0
   46.7770   25.0190   37.3740 N   0  0  0  0  0  0  0  0  0  0  0  0
   45.6800   25.6520   36.9200 C   0  0  0  0  0  0  0  0  0  0  0  0
   44.9430   25.9610   38.0450 C   0  0  0  0  0  0  0  0  0  0  0  0
   45.5970   25.5140   39.1600 C   0  0  0  0  0  0  0  0  0  0  0  0
   39.3210   24.4610   33.7640 S   0  0  0  0  0  0  0  0  0  0  0  0
   38.4780   23.8970   35.2270 C   0  0  0  0  0  0  0  0  0  0  0  0
   38.5450   24.6120   36.4520 C   0  0  0  0  0  0  0  0  0  0  0  0
   37.8560   24.0920   37.5270 C   0  0  0  0  0  0  0  0  0  0  0  0
   37.1590   22.9440   37.3790 N   0  0  0  0  0  0  0  0  0  0  0  0
   37.1220   22.2940   36.1940 C   0  0  0  0  0  0  0  0  0  0  0  0
   37.7770   22.7750   35.1440 N   0  0  0  0  0  0  0  0  0  0  0  0
   36.3400   21.0160   36.0430 C   0  0  0  0  0  0  0  0  0  0  0  0
   35.1340   21.0220   36.9570 C   0  0  0  0  0  0  0  0  0  0  0  0
   35.8160   20.8990   34.6170 C   0  0  0  0  0  0  0  0  0  0  0  0
   43.7763   23.6058   35.7622 H   0  0  0  0  0  0  0  0  0  0  0  0
   41.4775   22.9452   35.2129 H   0  0  0  0  0  0  0  0  0  0  0  0
   40.8076   26.7332   33.3152 H   0  0  0  0  0  0  0  0  0  0  0  0
   43.1128   27.3866   33.8739 H   0  0  0  0  0  0  0  0  0  0  0  0
   47.4583   24.4923   39.2824 H   0  0  0  0  0  0  0  0  0  0  0  0
   43.9768   26.4867   38.0450 H   0  0  0  0  0  0  0  0  0  0  0  0
   45.2721   25.6047   40.2070 H   0  0  0  0  0  0  0  0  0  0  0  0
   39.1235   25.5435   36.5397 H   0  0  0  0  0  0  0  0  0  0  0  0
   37.8736   24.6080   38.4983 H   0  0  0  0  0  0  0  0  0  0  0  0
   37.0098   20.1799   36.2926 H   0  0  0  0  0  0  0  0  0  0  0  0
   35.4682   21.0203   38.0050 H   0  0  0  0  0  0  0  0  0  0  0  0
   34.5330   21.9231   36.7652 H   0  0  0  0  0  0  0  0  0  0  0  0
   34.5241   20.1269   36.7652 H   0  0  0  0  0  0  0  0  0  0  0  0
   34.7427   20.6593   34.6393 H   0  0  0  0  0  0  0  0  0  0  0  0
   35.9678   21.8532   34.0911 H   0  0  0  0  0  0  0  0  0  0  0  0
   36.3593   20.1000   34.0911 H   0  0  0  0  0  0  0  0  0  0  0  0
  1  2  2  0
  1  7  1  0
  3  2  1  0
  4  3  2  0
  5  6  2  0
  5  4  1  0
  6  1  1  0
  7 12  1  0
  8  7  2  0
  9  7  2  0
 10 14  1  0
 11 10  1  0
 12 11  2  0
 12 13  1  0
 13 14  2  0
 15  4  1  0
 15 16  1  0
 16 17  2  0
 17 18  1  0
 19 18  2  0
 20 19  1  0
 21 16  1  0
 21 20  2  0
 22 20  1  0
 22 23  1  0
 24 22  1  0
  2 25  1  0
  3 26  1  0
  5 27  1  0
  6 28  1  0
 10 29  1  0
 13 30  1  0
 14 31  1  0
 17 32  1  0
 18 33  1  0
 22 34  1  0
 23 35  1  0
 23 36  1  0
 23 37  1  0
 24 38  1  0
 24 39  1  0
 24 40  1  0
M  ISO  8  25  14  26  14  27  14  28  14  29   9  30  14  31  14  32  14
M  ISO  8  33  14  34   8  35   8  36   8  37   8  38   8  39   8  40   8
M  END
>  <minimizedAffinity>  (1) 
-5.24933386

>  <minimizedRMSD>  (1) 
0.580533206

$$$$
