
     RDKit          3D

 38 41  0  0  0  0  0  0  0  0999 V2000
   43.5760   25.8290   34.8890 C   0  0  0  0  0  0  0  0  0  0  0  0
   42.8530   24.7000   35.2640 C   0  0  0  0  0  0  0  0  0  0  0  0
   41.4950   24.6220   35.0330 C   0  0  0  0  0  0  0  0  0  0  0  0
   40.8230   25.6730   34.4220 C   0  0  0  0  0  0  0  0  0  0  0  0
   41.5030   26.7930   34.0440 C   0  0  0  0  0  0  0  0  0  0  0  0
   42.8680   26.8450   34.2870 C   0  0  0  0  0  0  0  0  0  0  0  0
   45.2830   25.9220   35.1800 S   0  0  0  0  0  0  0  0  0  0  0  0
   45.9710   24.9160   34.3250 O   0  0  0  0  0  0  0  0  0  0  0  0
   45.7440   27.3240   34.8240 O   0  0  0  0  0  0  0  0  0  0  0  0
   46.7480   24.9140   38.6620 N   0  0  0  0  0  0  0  0  0  0  0  0
   46.8080   24.9510   37.3310 N   0  0  0  0  0  0  0  0  0  0  0  0
   45.7110   25.5910   36.8630 C   0  0  0  0  0  0  0  0  0  0  0  0
   44.9850   25.9390   37.9780 C   0  0  0  0  0  0  0  0  0  0  0  0
   45.6100   25.5280   39.1090 C   0  0  0  0  0  0  0  0  0  0  0  0
   39.0730   25.7120   34.0630 S   0  0  0  0  0  0  0  0  0  0  0  0
   38.3750   24.2200   34.7410 C   0  0  0  0  0  0  0  0  0  0  0  0
   38.2670   23.9970   36.1390 C   0  0  0  0  0  0  0  0  0  0  0  0
   37.7100   22.8060   36.5540 C   0  0  0  0  0  0  0  0  0  0  0  0
   37.2980   21.9140   35.6410 N   0  0  0  0  0  0  0  0  0  0  0  0
   37.4120   22.1490   34.3160 C   0  0  0  0  0  0  0  0  0  0  0  0
   37.9490   23.2980   33.8900 N   0  0  0  0  0  0  0  0  0  0  0  0
   36.9410   21.1310   33.3210 C   0  0  0  0  0  0  0  0  0  0  0  0
   35.6380   21.4970   32.5790 C   0  0  0  0  0  0  0  0  0  0  0  0
   35.6860   20.3860   33.5710 C   0  0  0  0  0  0  0  0  0  0  0  0
   43.3706   23.8600   35.7503 H   0  0  0  0  0  0  0  0  0  0  0  0
   40.9406   23.7212   35.3348 H   0  0  0  0  0  0  0  0  0  0  0  0
   40.9832   27.6327   33.5594 H   0  0  0  0  0  0  0  0  0  0  0  0
   43.4155   27.7489   33.9815 H   0  0  0  0  0  0  0  0  0  0  0  0
   47.4594   24.4831   39.2695 H   0  0  0  0  0  0  0  0  0  0  0  0
   44.0264   26.4781   37.9554 H   0  0  0  0  0  0  0  0  0  0  0  0
   45.2776   25.6586   40.1494 H   0  0  0  0  0  0  0  0  0  0  0  0
   38.6150   24.7470   36.8645 H   0  0  0  0  0  0  0  0  0  0  0  0
   37.6042   22.5887   37.6271 H   0  0  0  0  0  0  0  0  0  0  0  0
   37.9645   20.8242   33.0597 H   0  0  0  0  0  0  0  0  0  0  0  0
   35.1077   22.4307   32.8176 H   0  0  0  0  0  0  0  0  0  0  0  0
   35.3337   21.6003   31.5270 H   0  0  0  0  0  0  0  0  0  0  0  0
   35.5945   19.3457   33.2255 H   0  0  0  0  0  0  0  0  0  0  0  0
   35.1088   20.1472   34.4765 H   0  0  0  0  0  0  0  0  0  0  0  0
  1  7  1  0
  1  2  2  0
  3  2  1  0
  4  3  2  0
  5  6  2  0
  5  4  1  0
  6  1  1  0
  7 12  1  0
  8  7  2  0
  9  7  2  0
 10 14  1  0
 11 10  1  0
 12 11  2  0
 12 13  1  0
 13 14  2  0
 15  4  1  0
 15 16  1  0
 16 17  2  0
 17 18  1  0
 19 18  2  0
 20 19  1  0
 21 20  2  0
 21 16  1  0
 22 24  1  0
 22 20  1  0
 23 22  1  0
 23 24  1  0
  2 25  1  0
  3 26  1  0
  5 27  1  0
  6 28  1  0
 10 29  1  0
 13 30  1  0
 14 31  1  0
 17 32  1  0
 18 33  1  0
 22 34  1  0
 23 35  1  0
 23 36  1  0
 24 37  1  0
 24 38  1  0
M  ISO  8  25  14  26  14  27  14  28  14  29   9  30  14  31  14  32  14
M  ISO  6  33  14  34  13  35  13  36  13  37  13  38  13
M  END
>  <minimizedAffinity>  (1) 
-5.173069

>  <minimizedRMSD>  (1) 
1.00746739

$$$$
