
     RDKit          3D

 32 34  0  0  0  0  0  0  0  0999 V2000
   43.6570   25.6980   34.9760 C   0  0  0  0  0  0  0  0  0  0  0  0
   43.0440   24.5310   35.4050 C   0  0  0  0  0  0  0  0  0  0  0  0
   41.7080   24.3240   35.1680 C   0  0  0  0  0  0  0  0  0  0  0  0
   40.9390   25.2570   34.5040 C   0  0  0  0  0  0  0  0  0  0  0  0
   41.5150   26.4050   34.0740 C   0  0  0  0  0  0  0  0  0  0  0  0
   42.8600   26.6240   34.3070 C   0  0  0  0  0  0  0  0  0  0  0  0
   45.3470   25.9720   35.2690 S   0  0  0  0  0  0  0  0  0  0  0  0
   46.1390   25.1300   34.3310 O   0  0  0  0  0  0  0  0  0  0  0  0
   45.6360   27.4490   35.0100 O   0  0  0  0  0  0  0  0  0  0  0  0
   46.9220   24.8670   38.6650 N   0  0  0  0  0  0  0  0  0  0  0  0
   46.9290   24.9480   37.3400 N   0  0  0  0  0  0  0  0  0  0  0  0
   45.8310   25.5940   36.9150 C   0  0  0  0  0  0  0  0  0  0  0  0
   45.1270   25.9150   38.0710 C   0  0  0  0  0  0  0  0  0  0  0  0
   45.8120   25.4590   39.1650 C   0  0  0  0  0  0  0  0  0  0  0  0
   39.2040   25.1030   34.1390 S   0  0  0  0  0  0  0  0  0  0  0  0
   38.4390   24.3580   35.5590 C   0  0  0  0  0  0  0  0  0  0  0  0
   38.3690   25.0080   36.8230 C   0  0  0  0  0  0  0  0  0  0  0  0
   37.7520   24.3320   37.8490 C   0  0  0  0  0  0  0  0  0  0  0  0
   37.2470   23.1020   37.6230 N   0  0  0  0  0  0  0  0  0  0  0  0
   37.3240   22.5070   36.4230 C   0  0  0  0  0  0  0  0  0  0  0  0
   37.9180   23.1370   35.4020 N   0  0  0  0  0  0  0  0  0  0  0  0
   36.7970   21.2350   36.2060 O   0  0  0  0  0  0  0  0  0  0  0  0
   43.6306   23.7679   35.9375 H   0  0  0  0  0  0  0  0  0  0  0  0
   41.2393   23.3917   35.5159 H   0  0  0  0  0  0  0  0  0  0  0  0
   40.9159   27.1589   33.5423 H   0  0  0  0  0  0  0  0  0  0  0  0
   43.3157   27.5603   33.9524 H   0  0  0  0  0  0  0  0  0  0  0  0
   47.6559   24.4181   39.2314 H   0  0  0  0  0  0  0  0  0  0  0  0
   44.1677   26.4524   38.1014 H   0  0  0  0  0  0  0  0  0  0  0  0
   45.5229   25.5533   40.2221 H   0  0  0  0  0  0  0  0  0  0  0  0
   38.7921   26.0122   36.9733 H   0  0  0  0  0  0  0  0  0  0  0  0
   37.6709   24.7904   38.8456 H   0  0  0  0  0  0  0  0  0  0  0  0
   36.8661   20.8166   35.3114 H   0  0  0  0  0  0  0  0  0  0  0  0
  1  7  1  0
  1  2  2  0
  3  2  1  0
  4  3  2  0
  5  6  2  0
  5  4  1  0
  6  1  1  0
  7 12  1  0
  8  7  2  0
  9  7  2  0
 10 14  1  0
 11 10  1  0
 12 11  2  0
 12 13  1  0
 13 14  2  0
 15  4  1  0
 15 16  1  0
 16 17  2  0
 17 18  1  0
 19 18  2  0
 20 19  1  0
 21 16  1  0
 21 20  2  0
 22 20  1  0
  2 23  1  0
  3 24  1  0
  5 25  1  0
  6 26  1  0
 10 27  1  0
 13 28  1  0
 14 29  1  0
 17 30  1  0
 18 31  1  0
 22 32  1  0
M  ISO  8  23  14  24  14  25  14  26  14  27   9  28  14  29  14  30  14
M  ISO  2  31  14  32   3
M  END
>  <minimizedAffinity>  (1) 
-4.95010471

>  <minimizedRMSD>  (1) 
0.335854232

$$$$
