
     RDKit          3D

 33 36  0  0  0  0  0  0  0  0999 V2000
   39.8960   22.5030   36.8840 C   0  0  0  0  0  0  0  0  0  0  0  0
   39.3870   23.2550   37.9860 C   0  0  0  0  0  0  0  0  0  0  0  0
   37.9960   23.4550   38.0140 C   0  0  0  0  0  0  0  0  0  0  0  0
   37.2370   22.9380   37.0240 N   0  0  0  0  0  0  0  0  0  0  0  0
   37.7640   22.2300   35.9960 C   0  0  0  0  0  0  0  0  0  0  0  0
   39.1000   22.0190   35.9380 N   0  0  0  0  0  0  0  0  0  0  0  0
   36.9880   21.6750   34.9410 N   0  0  0  0  0  0  0  0  0  0  0  0
   37.3620   21.9640   33.6820 C   0  0  0  0  0  0  0  0  0  0  0  0
   36.6120   21.4290   32.6610 C   0  0  0  0  0  0  0  0  0  0  0  0
   35.5120   20.6210   32.8990 C   0  0  0  0  0  0  0  0  0  0  0  0
   34.7830   20.0980   32.0370 O   0  0  0  0  0  0  0  0  0  0  0  0
   35.2440   20.4080   34.2050 N   0  0  0  0  0  0  0  0  0  0  0  0
   35.9410   20.9040   35.2580 C   0  0  0  0  0  0  0  0  0  0  0  0
   35.5860   20.6310   36.4340 O   0  0  0  0  0  0  0  0  0  0  0  0
   41.3010   22.2540   36.7800 N   0  0  0  0  0  0  0  0  0  0  0  0
   41.9450   21.1420   37.2300 C   0  0  0  0  0  0  0  0  0  0  0  0
   43.2610   21.3010   36.9360 N   0  0  0  0  0  0  0  0  0  0  0  0
   43.4020   22.4770   36.3250 C   0  0  0  0  0  0  0  0  0  0  0  0
   44.4660   23.1880   35.7970 C   0  0  0  0  0  0  0  0  0  0  0  0
   44.3090   24.4160   35.2090 N   0  0  0  0  0  0  0  0  0  0  0  0
   43.0630   24.9720   35.1340 C   0  0  0  0  0  0  0  0  0  0  0  0
   42.0010   24.3080   35.6400 N   0  0  0  0  0  0  0  0  0  0  0  0
   42.1800   23.1110   36.2090 C   0  0  0  0  0  0  0  0  0  0  0  0
   45.7740   22.6420   35.8570 N   0  0  0  0  0  0  0  0  0  0  0  0
   40.0469   23.6556   38.7696 H   0  0  0  0  0  0  0  0  0  0  0  0
   37.5316   24.0254   38.8319 H   0  0  0  0  0  0  0  0  0  0  0  0
   38.2335   22.6031   33.4769 H   0  0  0  0  0  0  0  0  0  0  0  0
   36.8947   21.6498   31.6212 H   0  0  0  0  0  0  0  0  0  0  0  0
   34.4327   19.8119   34.4227 H   0  0  0  0  0  0  0  0  0  0  0  0
   41.4865   20.2792   37.7354 H   0  0  0  0  0  0  0  0  0  0  0  0
   42.9253   25.9566   34.6633 H   0  0  0  0  0  0  0  0  0  0  0  0
   46.5695   23.1665   35.4658 H   0  0  0  0  0  0  0  0  0  0  0  0
   45.9282   21.7211   36.2918 H   0  0  0  0  0  0  0  0  0  0  0  0
  1  2  2  0
  2  3  1  0
  4  3  2  0
  5  4  1  0
  6  5  2  0
  6  1  1  0
  7 13  1  0
  7  5  1  0
  8  7  1  0
  9 10  1  0
  9  8  2  0
 10 12  1  0
 11 10  2  0
 12 13  1  0
 13 14  2  0
 15  1  1  0
 15 16  1  0
 17 16  2  0
 18 17  1  0
 19 24  1  0
 19 18  2  0
 20 19  1  0
 21 20  2  0
 21 22  1  0
 22 23  2  0
 23 18  1  0
 23 15  1  0
  2 25  1  0
  3 26  1  0
  8 27  1  0
  9 28  1  0
 12 29  1  0
 16 30  1  0
 21 31  1  0
 24 32  1  0
 24 33  1  0
M  ISO  7  25  14  26  14  27  14  28  14  29   9  30  14  31  14
M  END
>  <minimizedAffinity>  (1) 
-6.15314722

>  <minimizedRMSD>  (1) 
1.473894

$$$$
