
     RDKit          3D

 38 41  0  0  0  0  0  0  0  0999 V2000
   39.3460   23.4430   35.6090 C   0  0  0  0  0  0  0  0  0  0  0  0
   38.7030   23.4440   36.8670 C   0  0  0  0  0  0  0  0  0  0  0  0
   37.5210   22.7050   37.0020 C   0  0  0  0  0  0  0  0  0  0  0  0
   37.0570   22.0320   35.9310 N   0  0  0  0  0  0  0  0  0  0  0  0
   37.6890   22.0440   34.7310 C   0  0  0  0  0  0  0  0  0  0  0  0
   38.8270   22.7530   34.5920 N   0  0  0  0  0  0  0  0  0  0  0  0
   37.1730   21.3210   33.6100 N   0  0  0  0  0  0  0  0  0  0  0  0
   38.0110   21.0770   32.4510 C   0  0  0  0  0  0  0  0  0  0  0  0
   37.2620   21.2000   31.1600 C   0  0  0  0  0  0  0  0  0  0  0  0
   35.9220   21.8710   31.2900 C   0  0  0  0  0  0  0  0  0  0  0  0
   35.0840   21.3780   32.4270 C   0  0  0  0  0  0  0  0  0  0  0  0
   35.8360   20.8160   33.5850 C   0  0  0  0  0  0  0  0  0  0  0  0
   40.5470   24.1670   35.3910 N   0  0  0  0  0  0  0  0  0  0  0  0
   41.7780   23.8110   35.8380 C   0  0  0  0  0  0  0  0  0  0  0  0
   42.6400   24.7750   35.4110 N   0  0  0  0  0  0  0  0  0  0  0  0
   41.9410   25.6860   34.7220 C   0  0  0  0  0  0  0  0  0  0  0  0
   42.2590   26.8520   34.0670 C   0  0  0  0  0  0  0  0  0  0  0  0
   41.3030   27.6060   33.4280 N   0  0  0  0  0  0  0  0  0  0  0  0
   40.0050   27.1860   33.4420 C   0  0  0  0  0  0  0  0  0  0  0  0
   39.6570   26.0480   34.0730 N   0  0  0  0  0  0  0  0  0  0  0  0
   40.6190   25.3250   34.6950 C   0  0  0  0  0  0  0  0  0  0  0  0
   43.6000   27.3120   34.0370 N   0  0  0  0  0  0  0  0  0  0  0  0
   39.1183   24.0083   37.7150 H   0  0  0  0  0  0  0  0  0  0  0  0
   36.9834   22.6747   37.9612 H   0  0  0  0  0  0  0  0  0  0  0  0
   38.8336   21.8073   32.4515 H   0  0  0  0  0  0  0  0  0  0  0  0
   38.3836   20.0444   32.5219 H   0  0  0  0  0  0  0  0  0  0  0  0
   37.1048   20.1898   30.7540 H   0  0  0  0  0  0  0  0  0  0  0  0
   37.8714   21.8331   30.4983 H   0  0  0  0  0  0  0  0  0  0  0  0
   36.0907   22.9488   31.4308 H   0  0  0  0  0  0  0  0  0  0  0  0
   35.3665   21.6366   30.3700 H   0  0  0  0  0  0  0  0  0  0  0  0
   34.4800   22.2214   32.7929 H   0  0  0  0  0  0  0  0  0  0  0  0
   34.4880   20.5464   32.0231 H   0  0  0  0  0  0  0  0  0  0  0  0
   35.3259   21.0973   34.5181 H   0  0  0  0  0  0  0  0  0  0  0  0
   35.8725   19.7211   33.4862 H   0  0  0  0  0  0  0  0  0  0  0  0
   42.0301   22.9185   36.4295 H   0  0  0  0  0  0  0  0  0  0  0  0
   39.2344   27.7831   32.9325 H   0  0  0  0  0  0  0  0  0  0  0  0
   43.8337   28.1862   33.5450 H   0  0  0  0  0  0  0  0  0  0  0  0
   44.3404   26.7719   34.5072 H   0  0  0  0  0  0  0  0  0  0  0  0
  1  2  2  0
  2  3  1  0
  4  3  2  0
  5  4  1  0
  6  5  2  0
  6  1  1  0
  7  5  1  0
  8  7  1  0
  9 10  1  0
  9  8  1  0
 10 11  1  0
 11 12  1  0
 12  7  1  0
 13  1  1  0
 13 14  1  0
 15 14  2  0
 16 15  1  0
 17 16  2  0
 18 19  2  0
 18 17  1  0
 19 20  1  0
 20 21  2  0
 21 16  1  0
 21 13  1  0
 22 17  1  0
  2 23  1  0
  3 24  1  0
  8 25  1  0
  8 26  1  0
  9 27  1  0
  9 28  1  0
 10 29  1  0
 10 30  1  0
 11 31  1  0
 11 32  1  0
 12 33  1  0
 12 34  1  0
 14 35  1  0
 19 36  1  0
 22 37  1  0
 22 38  1  0
M  ISO  8  23  14  24  14  25  13  26  13  27  13  28  13  29  13  30  13
M  ISO  6  31  13  32  13  33  13  34  13  35  14  36  14
M  END
>  <minimizedAffinity>  (1) 
-5.64009714

>  <minimizedRMSD>  (1) 
1.4960593

$$$$
