
     RDKit          3D

 30 32  0  0  0  0  0  0  0  0999 V2000
   39.8100   22.5350   36.9030 C   0  0  0  0  0  0  0  0  0  0  0  0
   39.3140   23.2070   38.0580 C   0  0  0  0  0  0  0  0  0  0  0  0
   37.9220   23.3780   38.1370 C   0  0  0  0  0  0  0  0  0  0  0  0
   37.1490   22.9070   37.1380 N   0  0  0  0  0  0  0  0  0  0  0  0
   37.6610   22.2660   36.0460 C   0  0  0  0  0  0  0  0  0  0  0  0
   38.9980   22.0830   35.9350 N   0  0  0  0  0  0  0  0  0  0  0  0
   36.8160   21.7810   35.0090 N   0  0  0  0  0  0  0  0  0  0  0  0
   35.8030   20.8160   35.2550 C   0  0  0  0  0  0  0  0  0  0  0  0
   35.2300   20.8620   36.4150 N   0  0  0  0  0  0  0  0  0  0  0  0
   35.5070   19.8800   34.1980 N   0  0  0  0  0  0  0  0  0  0  0  0
   34.4870   20.2460   36.7520 H   0  0  0  0  0  0  0  0  0  0  0  0
   41.2130   22.3170   36.7420 N   0  0  0  0  0  0  0  0  0  0  0  0
   41.8990   21.2210   37.1540 C   0  0  0  0  0  0  0  0  0  0  0  0
   43.2030   21.4240   36.8020 N   0  0  0  0  0  0  0  0  0  0  0  0
   43.2940   22.6060   36.1980 C   0  0  0  0  0  0  0  0  0  0  0  0
   44.3080   23.3570   35.6300 C   0  0  0  0  0  0  0  0  0  0  0  0
   44.0980   24.5740   35.0650 N   0  0  0  0  0  0  0  0  0  0  0  0
   42.8440   25.1010   35.0450 C   0  0  0  0  0  0  0  0  0  0  0  0
   41.8110   24.4120   35.5860 N   0  0  0  0  0  0  0  0  0  0  0  0
   42.0490   23.2020   36.1420 C   0  0  0  0  0  0  0  0  0  0  0  0
   45.6410   22.8360   35.6320 N   0  0  0  0  0  0  0  0  0  0  0  0
   39.9870   23.5731   38.8473 H   0  0  0  0  0  0  0  0  0  0  0  0
   37.4698   23.8881   39.0003 H   0  0  0  0  0  0  0  0  0  0  0  0
   36.9425   22.1401   34.0520 H   0  0  0  0  0  0  0  0  0  0  0  0
   34.7797   19.1633   34.3334 H   0  0  0  0  0  0  0  0  0  0  0  0
   36.0229   19.9284   33.3078 H   0  0  0  0  0  0  0  0  0  0  0  0
   41.4860   20.3418   37.6701 H   0  0  0  0  0  0  0  0  0  0  0  0
   42.6690   26.0868   34.5894 H   0  0  0  0  0  0  0  0  0  0  0  0
   46.4078   23.3817   35.2135 H   0  0  0  0  0  0  0  0  0  0  0  0
   45.8335   21.9154   36.0519 H   0  0  0  0  0  0  0  0  0  0  0  0
  1  2  2  0
  2  3  1  0
  4  3  2  0
  5  4  1  0
  6  5  2  0
  6  1  1  0
  7  8  1  0
  7  5  1  0
  8  9  2  0
  9 11  1  0
 10  8  1  0
 12  1  1  0
 12 13  1  0
 14 13  2  0
 15 14  1  0
 16 21  1  0
 16 15  2  0
 17 16  1  0
 18 17  2  0
 18 19  1  0
 19 20  2  0
 20 15  1  0
 20 12  1  0
  2 22  1  0
  3 23  1  0
  7 24  1  0
 10 25  1  0
 10 26  1  0
 13 27  1  0
 18 28  1  0
 21 29  1  0
 21 30  1  0
M  ISO  4  22  14  23  14  27  14  28  14
M  END
>  <minimizedAffinity>  (1) 
-5.52988863

>  <minimizedRMSD>  (1) 
1.45159566

$$$$
