
     RDKit          3D

 37 40  0  0  0  0  0  0  0  0999 V2000
   39.3390   23.4500   35.6550 C   0  0  0  0  0  0  0  0  0  0  0  0
   38.6930   23.4800   36.9070 C   0  0  0  0  0  0  0  0  0  0  0  0
   37.5010   22.7550   37.0470 C   0  0  0  0  0  0  0  0  0  0  0  0
   37.0280   22.0590   35.9720 N   0  0  0  0  0  0  0  0  0  0  0  0
   37.6740   22.0520   34.7890 C   0  0  0  0  0  0  0  0  0  0  0  0
   38.8170   22.7420   34.6360 N   0  0  0  0  0  0  0  0  0  0  0  0
   37.1390   21.3120   33.6990 N   0  0  0  0  0  0  0  0  0  0  0  0
   35.7850   20.8300   33.7110 C   0  0  0  0  0  0  0  0  0  0  0  0
   35.0960   20.9730   32.3790 C   0  0  0  0  0  0  0  0  0  0  0  0
   35.9550   20.6700   31.2650 N   0  0  0  0  0  0  0  0  0  0  0  0
   37.2100   20.0840   31.6560 C   0  0  0  0  0  0  0  0  0  0  0  0
   37.9660   21.0270   32.5410 C   0  0  0  0  0  0  0  0  0  0  0  0
   40.5540   24.1580   35.4280 N   0  0  0  0  0  0  0  0  0  0  0  0
   41.7800   23.7960   35.8530 C   0  0  0  0  0  0  0  0  0  0  0  0
   42.6520   24.7410   35.4240 N   0  0  0  0  0  0  0  0  0  0  0  0
   41.9590   25.6610   34.7500 C   0  0  0  0  0  0  0  0  0  0  0  0
   42.2620   26.8370   34.0850 C   0  0  0  0  0  0  0  0  0  0  0  0
   41.3110   27.5990   33.4630 N   0  0  0  0  0  0  0  0  0  0  0  0
   40.0060   27.1970   33.4900 C   0  0  0  0  0  0  0  0  0  0  0  0
   39.6600   26.0590   34.1240 N   0  0  0  0  0  0  0  0  0  0  0  0
   40.6180   25.3290   34.7270 C   0  0  0  0  0  0  0  0  0  0  0  0
   43.6030   27.2820   34.0380 N   0  0  0  0  0  0  0  0  0  0  0  0
   39.1105   24.0538   37.7475 H   0  0  0  0  0  0  0  0  0  0  0  0
   36.9580   22.7472   38.0036 H   0  0  0  0  0  0  0  0  0  0  0  0
   35.7946   19.7655   33.9879 H   0  0  0  0  0  0  0  0  0  0  0  0
   35.2261   21.4388   34.4369 H   0  0  0  0  0  0  0  0  0  0  0  0
   34.2356   20.2881   32.3543 H   0  0  0  0  0  0  0  0  0  0  0  0
   34.7878   22.0243   32.2798 H   0  0  0  0  0  0  0  0  0  0  0  0
   36.1473   21.5432   30.7536 H   0  0  0  0  0  0  0  0  0  0  0  0
   37.0200   19.1474   32.2007 H   0  0  0  0  0  0  0  0  0  0  0  0
   37.8073   19.8791   30.7553 H   0  0  0  0  0  0  0  0  0  0  0  0
   38.9104   20.5629   32.8614 H   0  0  0  0  0  0  0  0  0  0  0  0
   38.2005   21.9555   31.9998 H   0  0  0  0  0  0  0  0  0  0  0  0
   42.0277   22.8992   36.4398 H   0  0  0  0  0  0  0  0  0  0  0  0
   39.2349   27.8038   32.9928 H   0  0  0  0  0  0  0  0  0  0  0  0
   43.8388   28.1555   33.5458 H   0  0  0  0  0  0  0  0  0  0  0  0
   44.3443   26.7327   34.4959 H   0  0  0  0  0  0  0  0  0  0  0  0
  1  2  2  0
  2  3  1  0
  4  3  2  0
  5  4  1  0
  6  5  2  0
  6  1  1  0
  7  8  1  0
  7  5  1  0
  9  8  1  0
 10 11  1  0
 10  9  1  0
 11 12  1  0
 12  7  1  0
 13  1  1  0
 13 14  1  0
 15 14  2  0
 16 15  1  0
 17 16  2  0
 18 19  2  0
 18 17  1  0
 19 20  1  0
 20 21  2  0
 21 16  1  0
 21 13  1  0
 22 17  1  0
  2 23  1  0
  3 24  1  0
  8 25  1  0
  8 26  1  0
  9 27  1  0
  9 28  1  0
 10 29  1  0
 11 30  1  0
 11 31  1  0
 12 32  1  0
 12 33  1  0
 14 34  1  0
 19 35  1  0
 22 36  1  0
 22 37  1  0
M  ISO  8  23  14  24  14  25  13  26  13  27  13  28  13  29   5  30  13
M  ISO  5  31  13  32  13  33  13  34  14  35  14
M  END
>  <minimizedAffinity>  (1) 
-5.29955053

>  <minimizedRMSD>  (1) 
1.47321272

$$$$
