
     RDKit          3D

 31 34  0  0  0  0  0  0  0  0999 V2000
   39.8970   22.5170   36.7270 C   0  0  0  0  0  0  0  0  0  0  0  0
   39.2870   23.1050   37.8750 C   0  0  0  0  0  0  0  0  0  0  0  0
   37.9000   23.2630   37.8760 C   0  0  0  0  0  0  0  0  0  0  0  0
   37.2050   22.8500   36.7850 N   0  0  0  0  0  0  0  0  0  0  0  0
   37.8150   22.2970   35.7110 C   0  0  0  0  0  0  0  0  0  0  0  0
   39.1640   22.1330   35.6880 N   0  0  0  0  0  0  0  0  0  0  0  0
   41.3050   22.3340   36.6760 N   0  0  0  0  0  0  0  0  0  0  0  0
   41.9880   21.2610   37.1260 C   0  0  0  0  0  0  0  0  0  0  0  0
   43.3080   21.5050   36.8780 N   0  0  0  0  0  0  0  0  0  0  0  0
   43.4120   22.6900   36.2970 C   0  0  0  0  0  0  0  0  0  0  0  0
   44.4500   23.4720   35.8190 C   0  0  0  0  0  0  0  0  0  0  0  0
   44.2480   24.6970   35.2480 N   0  0  0  0  0  0  0  0  0  0  0  0
   42.9860   25.1810   35.1370 C   0  0  0  0  0  0  0  0  0  0  0  0
   41.9340   24.4620   35.5860 N   0  0  0  0  0  0  0  0  0  0  0  0
   42.1640   23.2540   36.1460 C   0  0  0  0  0  0  0  0  0  0  0  0
   45.7820   22.9920   35.9250 N   0  0  0  0  0  0  0  0  0  0  0  0
   37.0770   21.8540   34.5430 C   0  0  0  0  0  0  0  0  0  0  0  0
   36.1110   20.8720   34.6120 C   0  0  0  0  0  0  0  0  0  0  0  0
   35.3800   20.4210   33.5100 C   0  0  0  0  0  0  0  0  0  0  0  0
   35.6190   20.9660   32.3040 N   0  0  0  0  0  0  0  0  0  0  0  0
   36.5610   21.9240   32.2380 C   0  0  0  0  0  0  0  0  0  0  0  0
   37.2840   22.3760   33.3040 N   0  0  0  0  0  0  0  0  0  0  0  0
   39.8929   23.4250   38.7355 H   0  0  0  0  0  0  0  0  0  0  0  0
   37.3836   23.7104   38.7381 H   0  0  0  0  0  0  0  0  0  0  0  0
   41.5636   20.3639   37.6005 H   0  0  0  0  0  0  0  0  0  0  0  0
   42.8177   26.1664   34.6780 H   0  0  0  0  0  0  0  0  0  0  0  0
   46.5645   23.5624   35.5739 H   0  0  0  0  0  0  0  0  0  0  0  0
   45.9658   22.0733   36.3530 H   0  0  0  0  0  0  0  0  0  0  0  0
   35.9040   20.4173   35.5920 H   0  0  0  0  0  0  0  0  0  0  0  0
   34.6214   19.6330   33.6269 H   0  0  0  0  0  0  0  0  0  0  0  0
   36.7630   22.3752   31.2553 H   0  0  0  0  0  0  0  0  0  0  0  0
  1  2  2  0
  2  3  1  0
  4  3  2  0
  5  4  1  0
  6  5  2  0
  6  1  1  0
  7  1  1  0
  7  8  1  0
  9  8  2  0
 10  9  1  0
 11 16  1  0
 11 10  2  0
 12 11  1  0
 13 12  2  0
 13 14  1  0
 14 15  2  0
 15 10  1  0
 15  7  1  0
 17 18  2  0
 17  5  1  0
 19 18  1  0
 20 19  2  0
 21 20  1  0
 21 22  2  0
 22 17  1  0
  2 23  1  0
  3 24  1  0
  8 25  1  0
 13 26  1  0
 16 27  1  0
 16 28  1  0
 18 29  1  0
 19 30  1  0
 21 31  1  0
M  ISO  7  23  14  24  14  25  14  26  14  29  14  30  14  31  14
M  END
>  <minimizedAffinity>  (1) 
-5.05751371

>  <minimizedRMSD>  (1) 
1.44481194

$$$$
