
     RDKit          3D

 26 28  0  0  0  0  0  0  0  0999 V2000
   41.0160   22.5280   36.6220 N   0  0  0  0  0  0  0  0  0  0  0  0
   41.8180   21.5380   37.0590 C   0  0  0  0  0  0  0  0  0  0  0  0
   43.0730   21.8370   36.6400 N   0  0  0  0  0  0  0  0  0  0  0  0
   43.0280   22.9900   35.9590 C   0  0  0  0  0  0  0  0  0  0  0  0
   43.9520   23.7720   35.3140 C   0  0  0  0  0  0  0  0  0  0  0  0
   43.5980   24.9350   34.6870 N   0  0  0  0  0  0  0  0  0  0  0  0
   42.2890   25.3420   34.6940 C   0  0  0  0  0  0  0  0  0  0  0  0
   41.3510   24.6020   35.3160 N   0  0  0  0  0  0  0  0  0  0  0  0
   41.7390   23.4580   35.9270 C   0  0  0  0  0  0  0  0  0  0  0  0
   39.6030   22.6250   36.8340 C   0  0  0  0  0  0  0  0  0  0  0  0
   39.0610   23.3200   37.9290 C   0  0  0  0  0  0  0  0  0  0  0  0
   37.6710   23.3660   38.0590 C   0  0  0  0  0  0  0  0  0  0  0  0
   36.9220   22.7400   37.1310 N   0  0  0  0  0  0  0  0  0  0  0  0
   37.4560   22.0720   36.0790 C   0  0  0  0  0  0  0  0  0  0  0  0
   38.8020   22.0300   35.9540 N   0  0  0  0  0  0  0  0  0  0  0  0
   36.6470   21.3930   35.0700 C   0  0  0  0  0  0  0  0  0  0  0  0
   36.9030   21.4870   33.8420 O   0  0  0  0  0  0  0  0  0  0  0  0
   35.5650   20.6140   35.3810 O   0  0  0  0  0  0  0  0  0  0  0  0
   45.3110   23.3880   35.2840 N   0  0  0  0  0  0  0  0  0  0  0  0
   41.5139   20.6569   37.6431 H   0  0  0  0  0  0  0  0  0  0  0  0
   42.0034   26.2769   34.1895 H   0  0  0  0  0  0  0  0  0  0  0  0
   39.7138   23.8142   38.6636 H   0  0  0  0  0  0  0  0  0  0  0  0
   37.2002   23.8998   38.8977 H   0  0  0  0  0  0  0  0  0  0  0  0
   35.0481   20.1742   34.6602 H   0  0  0  0  0  0  0  0  0  0  0  0
   46.0022   23.9776   34.7987 H   0  0  0  0  0  0  0  0  0  0  0  0
   45.6108   22.5184   35.7474 H   0  0  0  0  0  0  0  0  0  0  0  0
  1 10  1  0
  1  2  1  0
  3  2  2  0
  4  3  1  0
  5  4  2  0
  6  7  2  0
  6  5  1  0
  7  8  1  0
  8  9  2  0
  9  4  1  0
  9  1  1  0
 10 11  2  0
 11 12  1  0
 13 12  2  0
 14 13  1  0
 15 14  2  0
 15 10  1  0
 16 18  1  0
 16 14  1  0
 17 16  2  0
 19  5  1  0
  2 20  1  0
  7 21  1  0
 11 22  1  0
 12 23  1  0
 18 24  1  0
 19 25  1  0
 19 26  1  0
M  ISO  5  20  14  21  14  22  14  23  14  24   3
M  END
>  <minimizedAffinity>  (1) 
-4.46051359

>  <minimizedRMSD>  (1) 
1.12697411

$$$$
