
     RDKit          3D

 30 33  0  0  0  0  0  0  0  0999 V2000
   41.1720   22.9640   36.1840 N   0  0  0  0  0  0  0  0  0  0  0  0
   41.1900   21.6300   36.4320 C   0  0  0  0  0  0  0  0  0  0  0  0
   42.4900   21.2380   36.3580 N   0  0  0  0  0  0  0  0  0  0  0  0
   43.2300   22.3090   36.0720 C   0  0  0  0  0  0  0  0  0  0  0  0
   44.5740   22.5560   35.8710 C   0  0  0  0  0  0  0  0  0  0  0  0
   45.0590   23.7940   35.5840 N   0  0  0  0  0  0  0  0  0  0  0  0
   44.2000   24.8410   35.4850 C   0  0  0  0  0  0  0  0  0  0  0  0
   42.8720   24.6620   35.6700 N   0  0  0  0  0  0  0  0  0  0  0  0
   42.4290   23.4230   35.9540 C   0  0  0  0  0  0  0  0  0  0  0  0
   40.0120   23.7880   36.1620 C   0  0  0  0  0  0  0  0  0  0  0  0
   38.8490   23.4490   36.8760 C   0  0  0  0  0  0  0  0  0  0  0  0
   37.7420   24.3000   36.8150 C   0  0  0  0  0  0  0  0  0  0  0  0
   37.8460   25.4160   36.0650 N   0  0  0  0  0  0  0  0  0  0  0  0
   38.9810   25.7390   35.3730 C   0  0  0  0  0  0  0  0  0  0  0  0
   40.0560   24.9180   35.4280 N   0  0  0  0  0  0  0  0  0  0  0  0
   39.0620   26.9800   34.5530 C   0  0  0  0  0  0  0  0  0  0  0  0
   40.0190   27.1370   33.4560 C   0  0  0  0  0  0  0  0  0  0  0  0
   38.5940   26.7730   33.1120 C   0  0  0  0  0  0  0  0  0  0  0  0
   45.4970   21.4720   35.9720 N   0  0  0  0  0  0  0  0  0  0  0  0
   40.3221   20.9904   36.6503 H   0  0  0  0  0  0  0  0  0  0  0  0
   44.5876   25.8438   35.2523 H   0  0  0  0  0  0  0  0  0  0  0  0
   38.8110   22.5267   37.4743 H   0  0  0  0  0  0  0  0  0  0  0  0
   36.8159   24.0671   37.3610 H   0  0  0  0  0  0  0  0  0  0  0  0
   38.8410   27.6292   35.4131 H   0  0  0  0  0  0  0  0  0  0  0  0
   40.4014   28.1375   33.2056 H   0  0  0  0  0  0  0  0  0  0  0  0
   41.0001   26.6962   33.2253 H   0  0  0  0  0  0  0  0  0  0  0  0
   37.9325   27.5083   32.6306 H   0  0  0  0  0  0  0  0  0  0  0  0
   38.0959   25.9699   32.5490 H   0  0  0  0  0  0  0  0  0  0  0  0
   46.5031   21.6369   35.8254 H   0  0  0  0  0  0  0  0  0  0  0  0
   45.1570   20.5248   36.1915 H   0  0  0  0  0  0  0  0  0  0  0  0
  1  2  1  0
  3  2  2  0
  4  3  1  0
  5 19  1  0
  5  4  2  0
  6  5  1  0
  7  6  2  0
  7  8  1  0
  8  9  2  0
  9  4  1  0
  9  1  1  0
 10  1  1  0
 10 11  2  0
 12 11  1  0
 13 12  2  0
 14 15  2  0
 14 13  1  0
 15 10  1  0
 16 14  1  0
 17 16  1  0
 18 17  1  0
 18 16  1  0
  2 20  1  0
  7 21  1  0
 11 22  1  0
 12 23  1  0
 16 24  1  0
 17 25  1  0
 17 26  1  0
 18 27  1  0
 18 28  1  0
 19 29  1  0
 19 30  1  0
M  ISO  8  20  14  21  14  22  14  23  14  24  13  25  13  26  13  27  13
M  ISO  1  28  13
M  END
>  <minimizedAffinity>  (1) 
-4.06178141

>  <minimizedRMSD>  (1) 
3.61156344

$$$$
