
     RDKit          3D

 40 43  0  0  0  0  0  0  0  0999 V2000
   39.9460   23.5050   35.7340 C   0  0  0  0  0  0  0  0  0  0  0  0
   39.3990   23.3560   37.0300 C   0  0  0  0  0  0  0  0  0  0  0  0
   38.0720   22.9050   37.0900 C   0  0  0  0  0  0  0  0  0  0  0  0
   37.3930   22.6370   35.9410 N   0  0  0  0  0  0  0  0  0  0  0  0
   37.9660   22.7950   34.7140 C   0  0  0  0  0  0  0  0  0  0  0  0
   39.2330   23.2260   34.6120 N   0  0  0  0  0  0  0  0  0  0  0  0
   41.2950   23.9580   35.5490 N   0  0  0  0  0  0  0  0  0  0  0  0
   42.4090   23.2950   35.9860 C   0  0  0  0  0  0  0  0  0  0  0  0
   43.4720   24.0650   35.6100 N   0  0  0  0  0  0  0  0  0  0  0  0
   43.0050   25.1460   34.9720 C   0  0  0  0  0  0  0  0  0  0  0  0
   43.5620   26.2500   34.3740 C   0  0  0  0  0  0  0  0  0  0  0  0
   42.7970   27.2240   33.7760 N   0  0  0  0  0  0  0  0  0  0  0  0
   41.4320   27.1080   33.7670 C   0  0  0  0  0  0  0  0  0  0  0  0
   40.8730   26.0270   34.3510 N   0  0  0  0  0  0  0  0  0  0  0  0
   41.6320   25.0990   34.9220 C   0  0  0  0  0  0  0  0  0  0  0  0
   44.9690   26.4200   34.3560 N   0  0  0  0  0  0  0  0  0  0  0  0
   37.2770   22.5180   33.5530 O   0  0  0  0  0  0  0  0  0  0  0  0
   37.0260   21.1560   33.2330 C   0  0  0  0  0  0  0  0  0  0  0  0
   37.3990   20.8430   31.8100 C   0  0  0  0  0  0  0  0  0  0  0  0
   36.3270   20.1830   31.0150 C   0  0  0  0  0  0  0  0  0  0  0  0
   35.6910   19.0070   31.7210 C   0  0  0  0  0  0  0  0  0  0  0  0
   35.4690   19.2870   33.1900 C   0  0  0  0  0  0  0  0  0  0  0  0
   35.5910   20.7890   33.4750 C   0  0  0  0  0  0  0  0  0  0  0  0
   39.9797   23.5804   37.9369 H   0  0  0  0  0  0  0  0  0  0  0  0
   37.5806   22.7681   38.0646 H   0  0  0  0  0  0  0  0  0  0  0  0
   42.4416   22.3386   36.5285 H   0  0  0  0  0  0  0  0  0  0  0  0
   40.8054   27.8787   33.2943 H   0  0  0  0  0  0  0  0  0  0  0  0
   45.3818   27.2496   33.9063 H   0  0  0  0  0  0  0  0  0  0  0  0
   45.5787   25.7139   34.7926 H   0  0  0  0  0  0  0  0  0  0  0  0
   37.6597   20.5533   33.9003 H   0  0  0  0  0  0  0  0  0  0  0  0
   37.6643   21.7863   31.3102 H   0  0  0  0  0  0  0  0  0  0  0  0
   38.2337   20.1282   31.8584 H   0  0  0  0  0  0  0  0  0  0  0  0
   36.7631   19.8275   30.0697 H   0  0  0  0  0  0  0  0  0  0  0  0
   35.5362   20.9305   30.8541 H   0  0  0  0  0  0  0  0  0  0  0  0
   34.7211   18.7906   31.2493 H   0  0  0  0  0  0  0  0  0  0  0  0
   36.3726   18.1478   31.6359 H   0  0  0  0  0  0  0  0  0  0  0  0
   34.4634   18.9448   33.4758 H   0  0  0  0  0  0  0  0  0  0  0  0
   36.2320   18.7511   33.7736 H   0  0  0  0  0  0  0  0  0  0  0  0
   35.3158   21.0009   34.5187 H   0  0  0  0  0  0  0  0  0  0  0  0
   34.9181   21.3715   32.8286 H   0  0  0  0  0  0  0  0  0  0  0  0
  1  2  2  0
  2  3  1  0
  4  3  2  0
  5  4  1  0
  6  5  2  0
  6  1  1  0
  7  1  1  0
  7  8  1  0
  9  8  2  0
 10  9  1  0
 11 10  2  0
 12 11  1  0
 13 12  2  0
 13 14  1  0
 14 15  2  0
 15 10  1  0
 15  7  1  0
 16 11  1  0
 17  5  1  0
 18 23  1  0
 18 17  1  0
 19 18  1  0
 20 21  1  0
 20 19  1  0
 21 22  1  0
 22 23  1  0
  2 24  1  0
  3 25  1  0
  8 26  1  0
 13 27  1  0
 16 28  1  0
 16 29  1  0
 18 30  1  0
 19 31  1  0
 19 32  1  0
 20 33  1  0
 20 34  1  0
 21 35  1  0
 21 36  1  0
 22 37  1  0
 22 38  1  0
 23 39  1  0
 23 40  1  0
M  ISO  8  24  14  25  14  26  14  27  14  30  13  31  13  32  13  33  13
M  ISO  7  34  13  35  13  36  13  37  13  38  13  39  13  40  13
M  END
>  <minimizedAffinity>  (1) 
-4.92553425

>  <minimizedRMSD>  (1) 
2.49522781

$$$$
