
     RDKit          3D

 30 32  0  0  0  0  0  0  0  0999 V2000
   41.1910   22.3460   36.7580 N   0  0  0  0  0  0  0  0  0  0  0  0
   41.8910   21.2760   37.1930 C   0  0  0  0  0  0  0  0  0  0  0  0
   43.1860   21.5030   36.8790 N   0  0  0  0  0  0  0  0  0  0  0  0
   43.2720   22.6850   36.2660 C   0  0  0  0  0  0  0  0  0  0  0  0
   44.2860   23.4390   35.7290 C   0  0  0  0  0  0  0  0  0  0  0  0
   44.0550   24.6700   35.1400 N   0  0  0  0  0  0  0  0  0  0  0  0
   42.7910   25.1620   35.0840 C   0  0  0  0  0  0  0  0  0  0  0  0
   41.7730   24.4450   35.6040 N   0  0  0  0  0  0  0  0  0  0  0  0
   42.0210   23.2500   36.1720 C   0  0  0  0  0  0  0  0  0  0  0  0
   45.6270   22.9700   35.7610 N   0  0  0  0  0  0  0  0  0  0  0  0
   39.7730   22.5400   36.8770 C   0  0  0  0  0  0  0  0  0  0  0  0
   39.2090   23.2060   37.9660 C   0  0  0  0  0  0  0  0  0  0  0  0
   37.8230   23.3330   37.9740 C   0  0  0  0  0  0  0  0  0  0  0  0
   37.0870   22.8290   36.9670 N   0  0  0  0  0  0  0  0  0  0  0  0
   37.6550   22.1850   35.9140 C   0  0  0  0  0  0  0  0  0  0  0  0
   39.0010   22.0480   35.8850 N   0  0  0  0  0  0  0  0  0  0  0  0
   36.9340   21.6430   34.8430 O   0  0  0  0  0  0  0  0  0  0  0  0
   35.8240   20.8150   34.9990 C   0  0  0  0  0  0  0  0  0  0  0  0
   35.4720   20.2140   33.6670 C   0  0  0  0  0  0  0  0  0  0  0  0
   41.4854   20.3905   37.7043 H   0  0  0  0  0  0  0  0  0  0  0  0
   42.5978   26.1393   34.6175 H   0  0  0  0  0  0  0  0  0  0  0  0
   46.3822   23.5414   35.3561 H   0  0  0  0  0  0  0  0  0  0  0  0
   45.8438   22.0586   36.1891 H   0  0  0  0  0  0  0  0  0  0  0  0
   39.8298   23.6110   38.7787 H   0  0  0  0  0  0  0  0  0  0  0  0
   37.3263   23.8488   38.8090 H   0  0  0  0  0  0  0  0  0  0  0  0
   36.0592   20.0136   35.7148 H   0  0  0  0  0  0  0  0  0  0  0  0
   34.9738   21.4002   35.3795 H   0  0  0  0  0  0  0  0  0  0  0  0
   34.9217   19.2744   33.8226 H   0  0  0  0  0  0  0  0  0  0  0  0
   34.8434   20.9178   33.1018 H   0  0  0  0  0  0  0  0  0  0  0  0
   36.3934   20.0100   33.1018 H   0  0  0  0  0  0  0  0  0  0  0  0
  1 11  1  0
  1  2  1  0
  3  2  2  0
  4  3  1  0
  5 10  1  0
  5  4  2  0
  6  5  1  0
  7  6  2  0
  7  8  1  0
  8  9  2  0
  9  4  1  0
  9  1  1  0
 11 12  2  0
 12 13  1  0
 14 13  2  0
 15 14  1  0
 16 15  2  0
 16 11  1  0
 17 18  1  0
 17 15  1  0
 19 18  1  0
  2 20  1  0
  7 21  1  0
 10 22  1  0
 10 23  1  0
 12 24  1  0
 13 25  1  0
 18 26  1  0
 18 27  1  0
 19 28  1  0
 19 29  1  0
 19 30  1  0
M  ISO  8  20  14  21  14  24  14  25  14  26   8  27   8  28   8  29   8
M  ISO  1  30   8
M  END
>  <minimizedAffinity>  (1) 
-4.48178005

>  <minimizedRMSD>  (1) 
1.32789397

$$$$
