
     RDKit          3D

 31 34  0  0  0  0  0  0  0  0999 V2000
   40.8520   22.6050   36.4580 C   0  0  0  0  0  0  0  0  0  0  0  0
   40.3650   22.6450   37.7860 C   0  0  0  0  0  0  0  0  0  0  0  0
   39.0570   23.1200   37.9620 C   0  0  0  0  0  0  0  0  0  0  0  0
   38.3360   23.5100   36.8910 N   0  0  0  0  0  0  0  0  0  0  0  0
   38.8400   23.4570   35.6250 C   0  0  0  0  0  0  0  0  0  0  0  0
   40.0900   23.0070   35.4140 N   0  0  0  0  0  0  0  0  0  0  0  0
   42.1750   22.1370   36.1660 N   0  0  0  0  0  0  0  0  0  0  0  0
   42.5000   20.8940   35.7290 C   0  0  0  0  0  0  0  0  0  0  0  0
   43.8350   20.8770   35.5810 N   0  0  0  0  0  0  0  0  0  0  0  0
   44.3160   22.0770   35.9190 C   0  0  0  0  0  0  0  0  0  0  0  0
   45.5630   22.6520   35.9730 C   0  0  0  0  0  0  0  0  0  0  0  0
   45.7570   23.9470   36.3720 N   0  0  0  0  0  0  0  0  0  0  0  0
   44.6710   24.7100   36.7340 C   0  0  0  0  0  0  0  0  0  0  0  0
   43.4390   24.1790   36.6930 N   0  0  0  0  0  0  0  0  0  0  0  0
   43.2750   22.9060   36.2980 C   0  0  0  0  0  0  0  0  0  0  0  0
   46.7150   21.9060   35.6100 N   0  0  0  0  0  0  0  0  0  0  0  0
   38.1040   23.8560   34.5180 O   0  0  0  0  0  0  0  0  0  0  0  0
   38.2970   25.1530   34.0610 C   0  0  0  0  0  0  0  0  0  0  0  0
   37.3460   26.1180   34.3770 C   0  0  0  0  0  0  0  0  0  0  0  0
   37.7610   27.3230   33.8120 C   0  0  0  0  0  0  0  0  0  0  0  0
   38.9230   27.0580   33.1860 N   0  0  0  0  0  0  0  0  0  0  0  0
   39.2650   25.7680   33.3210 N   0  0  0  0  0  0  0  0  0  0  0  0
   40.9811   22.3200   38.6373 H   0  0  0  0  0  0  0  0  0  0  0  0
   38.6207   23.1742   38.9703 H   0  0  0  0  0  0  0  0  0  0  0  0
   41.8061   20.0631   35.5341 H   0  0  0  0  0  0  0  0  0  0  0  0
   44.8119   25.7523   37.0561 H   0  0  0  0  0  0  0  0  0  0  0  0
   47.6465   22.3435   35.6529 H   0  0  0  0  0  0  0  0  0  0  0  0
   46.6193   20.9273   35.3037 H   0  0  0  0  0  0  0  0  0  0  0  0
   36.4311   25.9588   34.9666 H   0  0  0  0  0  0  0  0  0  0  0  0
   37.2444   28.2926   33.8666 H   0  0  0  0  0  0  0  0  0  0  0  0
   39.4778   27.7557   32.6700 H   0  0  0  0  0  0  0  0  0  0  0  0
  1  2  2  0
  2  3  1  0
  4  3  2  0
  5  4  1  0
  6  5  2  0
  6  1  1  0
  7 15  1  0
  7  1  1  0
  8  7  1  0
  9  8  2  0
  9 10  1  0
 10 11  2  0
 10 15  1  0
 11 12  1  0
 12 13  2  0
 14 13  1  0
 15 14  2  0
 16 11  1  0
 17  5  1  0
 18 19  1  0
 18 17  1  0
 20 19  2  0
 21 22  1  0
 21 20  1  0
 22 18  2  0
  2 23  1  0
  3 24  1  0
  8 25  1  0
 13 26  1  0
 16 27  1  0
 16 28  1  0
 19 29  1  0
 20 30  1  0
 21 31  1  0
M  ISO  7  23  14  24  14  25  14  26  14  29  14  30  14  31   9
M  END
>  <minimizedAffinity>  (1) 
-4.25545645

>  <minimizedRMSD>  (1) 
4.00959921

$$$$
