
     RDKit          3D

 43 47  0  0  0  0  0  0  0  0999 V2000
   42.6110   23.2590   35.9090 C   0  0  0  0  0  0  0  0  0  0  0  0
   42.5870   22.1510   36.7410 C   0  0  0  0  0  0  0  0  0  0  0  0
   41.3370   21.5870   37.0030 C   0  0  0  0  0  0  0  0  0  0  0  0
   40.2400   22.1280   36.4480 N   0  0  0  0  0  0  0  0  0  0  0  0
   40.2700   23.2190   35.6300 C   0  0  0  0  0  0  0  0  0  0  0  0
   41.4900   23.7670   35.3770 N   0  0  0  0  0  0  0  0  0  0  0  0
   43.8490   23.9190   35.5780 N   0  0  0  0  0  0  0  0  0  0  0  0
   44.4460   23.9430   34.3750 C   0  0  0  0  0  0  0  0  0  0  0  0
   45.5810   24.6720   34.5120 N   0  0  0  0  0  0  0  0  0  0  0  0
   45.6720   25.0790   35.7620 C   0  0  0  0  0  0  0  0  0  0  0  0
   46.5750   25.8290   36.4790 C   0  0  0  0  0  0  0  0  0  0  0  0
   46.3880   26.0930   37.8220 N   0  0  0  0  0  0  0  0  0  0  0  0
   45.2890   25.6070   38.4670 C   0  0  0  0  0  0  0  0  0  0  0  0
   44.3860   24.8670   37.7870 N   0  0  0  0  0  0  0  0  0  0  0  0
   44.5850   24.6180   36.4760 C   0  0  0  0  0  0  0  0  0  0  0  0
   47.7230   26.3560   35.8670 N   0  0  0  0  0  0  0  0  0  0  0  0
   39.1880   23.8080   35.0430 O   0  0  0  0  0  0  0  0  0  0  0  0
   38.7830   25.0780   35.2410 C   0  0  0  0  0  0  0  0  0  0  0  0
   38.6450   25.8770   36.3580 C   0  0  0  0  0  0  0  0  0  0  0  0
   38.2010   27.1740   36.2990 C   0  0  0  0  0  0  0  0  0  0  0  0
   37.8750   27.7070   35.0670 C   0  0  0  0  0  0  0  0  0  0  0  0
   38.0120   26.9170   33.9560 C   0  0  0  0  0  0  0  0  0  0  0  0
   38.4590   25.6190   34.0330 N   0  0  0  0  0  0  0  0  0  0  0  0
   37.6710   27.4680   32.6390 C   0  0  0  0  0  0  0  0  0  0  0  0
   38.3970   27.2580   31.5040 C   0  0  0  0  0  0  0  0  0  0  0  0
   38.0060   27.8190   30.2820 C   0  0  0  0  0  0  0  0  0  0  0  0
   36.8710   28.6010   30.1980 C   0  0  0  0  0  0  0  0  0  0  0  0
   36.1030   28.8420   31.3180 C   0  0  0  0  0  0  0  0  0  0  0  0
   36.5480   28.2570   32.4910 C   0  0  0  0  0  0  0  0  0  0  0  0
   43.5088   21.7357   37.1743 H   0  0  0  0  0  0  0  0  0  0  0  0
   41.2513   20.7075   37.6581 H   0  0  0  0  0  0  0  0  0  0  0  0
   44.0833   23.4628   33.4542 H   0  0  0  0  0  0  0  0  0  0  0  0
   45.1384   25.8166   39.5363 H   0  0  0  0  0  0  0  0  0  0  0  0
   48.3895   26.9156   36.4179 H   0  0  0  0  0  0  0  0  0  0  0  0
   47.8989   26.1831   34.8670 H   0  0  0  0  0  0  0  0  0  0  0  0
   38.9028   25.4547   37.3405 H   0  0  0  0  0  0  0  0  0  0  0  0
   38.1066   27.7770   37.2141 H   0  0  0  0  0  0  0  0  0  0  0  0
   37.5136   28.7423   34.9799 H   0  0  0  0  0  0  0  0  0  0  0  0
   39.3044   26.6379   31.5491 H   0  0  0  0  0  0  0  0  0  0  0  0
   38.6087   27.6350   29.3804 H   0  0  0  0  0  0  0  0  0  0  0  0
   36.5772   29.0349   29.2308 H   0  0  0  0  0  0  0  0  0  0  0  0
   35.1939   29.4603   31.2814 H   0  0  0  0  0  0  0  0  0  0  0  0
   35.9474   28.4388   33.3945 H   0  0  0  0  0  0  0  0  0  0  0  0
  1  2  2  0
  2  3  1  0
  4  3  2  0
  5  4  1  0
  6  5  2  0
  6  1  1  0
  7  1  1  0
  7 15  1  0
  8  9  2  0
  8  7  1  0
  9 10  1  0
 10 15  2  0
 10 11  1  0
 11 12  2  0
 12 13  1  0
 14 13  2  0
 15 14  1  0
 16 11  1  0
 17 18  1  0
 17  5  1  0
 18 19  2  0
 20 19  1  0
 21 20  2  0
 22 23  2  0
 22 21  1  0
 23 18  1  0
 24 22  1  0
 25 24  2  0
 26 25  1  0
 27 26  2  0
 27 28  1  0
 28 29  2  0
 29 24  1  0
  2 30  1  0
  3 31  1  0
  8 32  1  0
 13 33  1  0
 16 34  1  0
 16 35  1  0
 19 36  1  0
 20 37  1  0
 21 38  1  0
 25 39  1  0
 26 40  1  0
 27 41  1  0
 28 42  1  0
 29 43  1  0
M  ISO  8  30  14  31  14  32  14  33  14  36  14  37  14  38  14  39  14
M  ISO  4  40  14  41  14  42  14  43  14
M  END
>  <minimizedAffinity>  (1) 
-5.99273682

>  <minimizedRMSD>  (1) 
1.66934443

$$$$
