
     RDKit          3D

 39 43  0  0  0  0  0  0  0  0999 V2000
   42.3570   23.3370   35.9610 C   0  0  0  0  0  0  0  0  0  0  0  0
   42.5530   22.1720   36.7160 C   0  0  0  0  0  0  0  0  0  0  0  0
   41.4100   21.4870   37.1180 C   0  0  0  0  0  0  0  0  0  0  0  0
   40.2020   21.9570   36.7750 N   0  0  0  0  0  0  0  0  0  0  0  0
   40.0150   23.0940   36.0380 C   0  0  0  0  0  0  0  0  0  0  0  0
   41.1320   23.7670   35.6430 N   0  0  0  0  0  0  0  0  0  0  0  0
   43.4750   24.1170   35.4980 N   0  0  0  0  0  0  0  0  0  0  0  0
   43.7910   24.3590   34.2060 C   0  0  0  0  0  0  0  0  0  0  0  0
   44.9050   25.1340   34.2050 N   0  0  0  0  0  0  0  0  0  0  0  0
   45.2570   25.3570   35.4710 C   0  0  0  0  0  0  0  0  0  0  0  0
   46.2660   26.0520   36.0820 C   0  0  0  0  0  0  0  0  0  0  0  0
   46.3630   26.0990   37.4680 N   0  0  0  0  0  0  0  0  0  0  0  0
   45.4430   25.4470   38.2340 C   0  0  0  0  0  0  0  0  0  0  0  0
   44.4480   24.7610   37.6460 N   0  0  0  0  0  0  0  0  0  0  0  0
   44.3580   24.7170   36.3140 C   0  0  0  0  0  0  0  0  0  0  0  0
   47.2280   26.7380   35.3170 N   0  0  0  0  0  0  0  0  0  0  0  0
   38.8000   23.6120   35.6650 O   0  0  0  0  0  0  0  0  0  0  0  0
   38.4960   24.9310   35.6600 C   0  0  0  0  0  0  0  0  0  0  0  0
   38.5630   25.9560   36.5550 C   0  0  0  0  0  0  0  0  0  0  0  0
   38.1840   27.2370   36.3070 C   0  0  0  0  0  0  0  0  0  0  0  0
   37.6880   27.5440   35.0470 C   0  0  0  0  0  0  0  0  0  0  0  0
   37.6120   26.5080   34.1210 C   0  0  0  0  0  0  0  0  0  0  0  0
   38.0070   25.2390   34.4250 N   0  0  0  0  0  0  0  0  0  0  0  0
   37.0850   26.7970   32.7650 C   0  0  0  0  0  0  0  0  0  0  0  0
   37.5130   27.9310   32.0790 C   0  0  0  0  0  0  0  0  0  0  0  0
   36.5920   27.8670   30.4590 S   0  0  0  0  0  0  0  0  0  0  0  0
   35.7590   26.2560   31.0160 C   0  0  0  0  0  0  0  0  0  0  0  0
   36.2500   26.2070   31.9890 N   0  0  0  0  0  0  0  0  0  0  0  0
   43.5606   21.8168   36.9778 H   0  0  0  0  0  0  0  0  0  0  0  0
   41.4971   20.5661   37.7132 H   0  0  0  0  0  0  0  0  0  0  0  0
   43.2472   23.9958   33.3215 H   0  0  0  0  0  0  0  0  0  0  0  0
   45.5148   25.4823   39.3311 H   0  0  0  0  0  0  0  0  0  0  0  0
   47.9834   27.2581   35.7858 H   0  0  0  0  0  0  0  0  0  0  0  0
   47.1765   26.7199   34.2884 H   0  0  0  0  0  0  0  0  0  0  0  0
   38.9548   25.7286   37.5574 H   0  0  0  0  0  0  0  0  0  0  0  0
   38.2679   28.0108   37.0843 H   0  0  0  0  0  0  0  0  0  0  0  0
   37.3681   28.5649   34.7911 H   0  0  0  0  0  0  0  0  0  0  0  0
   38.2318   28.6922   32.4165 H   0  0  0  0  0  0  0  0  0  0  0  0
   35.0291   25.5958   30.5248 H   0  0  0  0  0  0  0  0  0  0  0  0
  1  2  2  0
  2  3  1  0
  4  3  2  0
  5  4  1  0
  6  1  1  0
  6  5  2  0
  7  1  1  0
  7 15  1  0
  8  7  1  0
  9  8  2  0
  9 10  1  0
 10 11  2  0
 10 15  1  0
 11 12  1  0
 12 13  2  0
 14 13  1  0
 15 14  2  0
 16 11  1  0
 17  5  1  0
 18 17  1  0
 18 19  2  0
 20 19  1  0
 21 20  2  0
 22 23  2  0
 22 21  1  0
 23 18  1  0
 24 22  1  0
 25 24  2  0
 26 27  1  0
 26 25  1  0
 27 28  2  0
 28 24  1  0
  2 29  1  0
  3 30  1  0
  8 31  1  0
 13 32  1  0
 16 33  1  0
 16 34  1  0
 19 35  1  0
 20 36  1  0
 21 37  1  0
 25 38  1  0
 27 39  1  0
M  ISO  8  29  14  30  14  31  14  32  14  35  14  36  14  37  14  38  14
M  ISO  1  39  14
M  END
>  <minimizedAffinity>  (1) 
-5.78875637

>  <minimizedRMSD>  (1) 
1.04823589

$$$$
