
     RDKit          3D

 36 39  0  0  0  0  0  0  0  0999 V2000
   42.0110   23.5610   35.9530 C   0  0  0  0  0  0  0  0  0  0  0  0
   42.2810   22.3750   36.6360 C   0  0  0  0  0  0  0  0  0  0  0  0
   41.1940   21.6620   37.1370 C   0  0  0  0  0  0  0  0  0  0  0  0
   39.9540   22.1410   36.9430 N   0  0  0  0  0  0  0  0  0  0  0  0
   39.6820   23.2980   36.2780 C   0  0  0  0  0  0  0  0  0  0  0  0
   40.7490   23.9910   35.7900 N   0  0  0  0  0  0  0  0  0  0  0  0
   43.0650   24.3650   35.4020 N   0  0  0  0  0  0  0  0  0  0  0  0
   43.1840   24.7290   34.1090 C   0  0  0  0  0  0  0  0  0  0  0  0
   44.3120   25.4760   34.0280 N   0  0  0  0  0  0  0  0  0  0  0  0
   44.8620   25.5640   35.2290 C   0  0  0  0  0  0  0  0  0  0  0  0
   45.9740   26.1650   35.7600 C   0  0  0  0  0  0  0  0  0  0  0  0
   46.2850   26.0680   37.0990 N   0  0  0  0  0  0  0  0  0  0  0  0
   45.4720   25.3550   37.9430 C   0  0  0  0  0  0  0  0  0  0  0  0
   44.3700   24.7520   37.4490 N   0  0  0  0  0  0  0  0  0  0  0  0
   44.0870   24.8620   36.1360 C   0  0  0  0  0  0  0  0  0  0  0  0
   46.8420   26.9080   34.9390 N   0  0  0  0  0  0  0  0  0  0  0  0
   38.4410   23.8170   36.0630 O   0  0  0  0  0  0  0  0  0  0  0  0
   38.1880   25.0860   35.6510 C   0  0  0  0  0  0  0  0  0  0  0  0
   38.3160   26.3260   36.2370 C   0  0  0  0  0  0  0  0  0  0  0  0
   37.9950   27.4970   35.6250 C   0  0  0  0  0  0  0  0  0  0  0  0
   37.5040   27.4410   34.3260 C   0  0  0  0  0  0  0  0  0  0  0  0
   37.3710   26.1940   33.7270 C   0  0  0  0  0  0  0  0  0  0  0  0
   37.7080   25.0440   34.3810 N   0  0  0  0  0  0  0  0  0  0  0  0
   36.8470   26.1660   32.3430 C   0  0  0  0  0  0  0  0  0  0  0  0
   36.1890   25.1690   32.0130 O   0  0  0  0  0  0  0  0  0  0  0  0
   37.1000   27.2160   31.4890 O   0  0  0  0  0  0  0  0  0  0  0  0
   43.3119   22.0167   36.7736 H   0  0  0  0  0  0  0  0  0  0  0  0
   41.3489   20.7201   37.6837 H   0  0  0  0  0  0  0  0  0  0  0  0
   42.5022   24.4713   33.2851 H   0  0  0  0  0  0  0  0  0  0  0  0
   45.7159   25.2754   39.0127 H   0  0  0  0  0  0  0  0  0  0  0  0
   47.6757   27.3570   35.3442 H   0  0  0  0  0  0  0  0  0  0  0  0
   46.6437   27.0029   33.9327 H   0  0  0  0  0  0  0  0  0  0  0  0
   38.7026   26.3718   37.2658 H   0  0  0  0  0  0  0  0  0  0  0  0
   38.1201   28.4596   36.1424 H   0  0  0  0  0  0  0  0  0  0  0  0
   37.2281   28.3590   33.7865 H   0  0  0  0  0  0  0  0  0  0  0  0
   36.7493   27.1968   30.5634 H   0  0  0  0  0  0  0  0  0  0  0  0
  1  2  2  0
  2  3  1  0
  4  3  2  0
  5  4  1  0
  6  1  1  0
  6  5  2  0
  7  1  1  0
  7 15  1  0
  8  7  1  0
  9  8  2  0
  9 10  1  0
 10 11  2  0
 10 15  1  0
 11 12  1  0
 12 13  2  0
 14 13  1  0
 15 14  2  0
 16 11  1  0
 17  5  1  0
 18 17  1  0
 18 19  2  0
 20 19  1  0
 21 20  2  0
 22 21  1  0
 22 23  2  0
 23 18  1  0
 24 22  1  0
 25 24  2  0
 26 24  1  0
  2 27  1  0
  3 28  1  0
  8 29  1  0
 13 30  1  0
 16 31  1  0
 16 32  1  0
 19 33  1  0
 20 34  1  0
 21 35  1  0
 26 36  1  0
M  ISO  8  27  14  28  14  29  14  30  14  33  14  34  14  35  14  36   3
M  END
>  <minimizedAffinity>  (1) 
-5.65559101

>  <minimizedRMSD>  (1) 
0.647616923

$$$$
