
     RDKit          3D

 31 34  0  0  0  0  0  0  0  0999 V2000
   40.4550   22.5610   36.9210 C   0  0  0  0  0  0  0  0  0  0  0  0
   39.6670   23.4500   36.1660 C   0  0  0  0  0  0  0  0  0  0  0  0
   40.3490   24.3640   35.3900 C   0  0  0  0  0  0  0  0  0  0  0  0
   41.6700   24.3030   35.4420 N   0  0  0  0  0  0  0  0  0  0  0  0
   42.4540   23.4940   36.1290 C   0  0  0  0  0  0  0  0  0  0  0  0
   41.7890   22.5910   36.8950 N   0  0  0  0  0  0  0  0  0  0  0  0
   39.6780   25.3260   34.5670 N   0  0  0  0  0  0  0  0  0  0  0  0
   39.0080   24.9220   33.4540 C   0  0  0  0  0  0  0  0  0  0  0  0
   38.4840   26.0490   32.9020 C   0  0  0  0  0  0  0  0  0  0  0  0
   38.8260   27.0950   33.6580 N   0  0  0  0  0  0  0  0  0  0  0  0
   39.5790   26.6500   34.7100 C   0  0  0  0  0  0  0  0  0  0  0  0
   43.8980   23.3980   36.2090 C   0  0  0  0  0  0  0  0  0  0  0  0
   44.5810   22.4830   35.5000 N   0  0  0  0  0  0  0  0  0  0  0  0
   45.9030   22.3250   35.5130 C   0  0  0  0  0  0  0  0  0  0  0  0
   46.6880   23.1210   36.2870 N   0  0  0  0  0  0  0  0  0  0  0  0
   46.0910   24.0840   37.0480 C   0  0  0  0  0  0  0  0  0  0  0  0
   46.8700   24.8890   37.8290 C   0  0  0  0  0  0  0  0  0  0  0  0
   46.3060   25.8740   38.6130 C   0  0  0  0  0  0  0  0  0  0  0  0
   44.9230   25.9940   38.5590 C   0  0  0  0  0  0  0  0  0  0  0  0
   44.1940   25.1500   37.7520 C   0  0  0  0  0  0  0  0  0  0  0  0
   44.7320   24.1750   36.9730 C   0  0  0  0  0  0  0  0  0  0  0  0
   39.9535   21.8150   37.5550 H   0  0  0  0  0  0  0  0  0  0  0  0
   38.5678   23.4176   36.1933 H   0  0  0  0  0  0  0  0  0  0  0  0
   38.9101   23.8932   33.0773 H   0  0  0  0  0  0  0  0  0  0  0  0
   37.8786   26.0917   31.9846 H   0  0  0  0  0  0  0  0  0  0  0  0
   40.0159   27.2611   35.5136 H   0  0  0  0  0  0  0  0  0  0  0  0
   46.3644   21.5432   34.8918 H   0  0  0  0  0  0  0  0  0  0  0  0
   47.9612   24.7502   37.8330 H   0  0  0  0  0  0  0  0  0  0  0  0
   46.9194   26.5303   39.2479 H   0  0  0  0  0  0  0  0  0  0  0  0
   44.4120   26.7611   39.1593 H   0  0  0  0  0  0  0  0  0  0  0  0
   43.1010   25.2732   37.7366 H   0  0  0  0  0  0  0  0  0  0  0  0
  2  1  2  0
  3  4  2  0
  3  2  1  0
  4  5  1  0
  5 12  1  0
  5  6  2  0
  6  1  1  0
  7 11  1  0
  7  3  1  0
  8  7  1  0
  9  8  2  0
  9 10  1  0
 10 11  2  0
 12 21  2  0
 13 14  2  0
 13 12  1  0
 14 15  1  0
 15 16  2  0
 16 17  1  0
 17 18  2  0
 19 18  1  0
 20 19  2  0
 21 16  1  0
 21 20  1  0
  1 22  1  0
  2 23  1  0
  8 24  1  0
  9 25  1  0
 11 26  1  0
 14 27  1  0
 17 28  1  0
 18 29  1  0
 19 30  1  0
 20 31  1  0
M  ISO  8  22  14  23  14  24  14  25  14  26  14  27  14  28  14  29  14
M  ISO  2  30  14  31  14
M  END
>  <minimizedAffinity>  (1) 
-5.20801687

>  <minimizedRMSD>  (1) 
5.68766212

$$$$
