
     RDKit          3D

 28 31  0  0  0  0  0  0  0  0999 V2000
   39.4430   22.8650   37.8150 C   0  0  0  0  0  0  0  0  0  0  0  0
   38.7690   23.8210   37.0480 C   0  0  0  0  0  0  0  0  0  0  0  0
   39.4370   24.3710   35.9610 C   0  0  0  0  0  0  0  0  0  0  0  0
   40.6950   23.9480   35.7110 N   0  0  0  0  0  0  0  0  0  0  0  0
   41.3270   23.0270   36.4590 C   0  0  0  0  0  0  0  0  0  0  0  0
   40.6970   22.4820   37.5180 N   0  0  0  0  0  0  0  0  0  0  0  0
   38.8160   25.3570   35.1240 N   0  0  0  0  0  0  0  0  0  0  0  0
   37.7900   25.0210   34.3110 C   0  0  0  0  0  0  0  0  0  0  0  0
   37.4620   26.1980   33.6780 C   0  0  0  0  0  0  0  0  0  0  0  0
   38.2610   27.1820   34.1030 N   0  0  0  0  0  0  0  0  0  0  0  0
   39.1250   26.6710   35.0190 C   0  0  0  0  0  0  0  0  0  0  0  0
   42.6540   22.6260   36.1410 N   0  0  0  0  0  0  0  0  0  0  0  0
   43.0090   21.5120   35.4740 C   0  0  0  0  0  0  0  0  0  0  0  0
   44.3470   21.4680   35.3620 N   0  0  0  0  0  0  0  0  0  0  0  0
   44.8460   22.5620   35.9630 C   0  0  0  0  0  0  0  0  0  0  0  0
   46.1650   22.9470   36.1010 C   0  0  0  0  0  0  0  0  0  0  0  0
   46.3600   24.1140   36.7640 N   0  0  0  0  0  0  0  0  0  0  0  0
   45.3160   24.8220   37.2420 C   0  0  0  0  0  0  0  0  0  0  0  0
   44.0150   24.4400   37.1040 N   0  0  0  0  0  0  0  0  0  0  0  0
   43.7790   23.2910   36.4540 C   0  0  0  0  0  0  0  0  0  0  0  0
   38.9352   22.4161   38.6814 H   0  0  0  0  0  0  0  0  0  0  0  0
   37.7425   24.1277   37.2976 H   0  0  0  0  0  0  0  0  0  0  0  0
   37.3238   24.0328   34.1843 H   0  0  0  0  0  0  0  0  0  0  0  0
   36.6611   26.3123   32.9327 H   0  0  0  0  0  0  0  0  0  0  0  0
   39.9127   27.2130   35.5628 H   0  0  0  0  0  0  0  0  0  0  0  0
   42.3126   20.7561   35.0820 H   0  0  0  0  0  0  0  0  0  0  0  0
   46.9980   22.3498   35.7017 H   0  0  0  0  0  0  0  0  0  0  0  0
   45.5268   25.7616   37.7737 H   0  0  0  0  0  0  0  0  0  0  0  0
  2  1  2  0
  3  2  1  0
  4  3  2  0
  4  5  1  0
  5  6  2  0
  6  1  1  0
  7  3  1  0
  8  7  1  0
  9 10  1  0
  9  8  2  0
 10 11  2  0
 11  7  1  0
 12 20  1  0
 12  5  1  0
 13 12  1  0
 14 13  2  0
 14 15  1  0
 15 16  2  0
 15 20  1  0
 16 17  1  0
 17 18  2  0
 19 18  1  0
 20 19  2  0
  1 21  1  0
  2 22  1  0
  8 23  1  0
  9 24  1  0
 11 25  1  0
 13 26  1  0
 16 27  1  0
 18 28  1  0
M  ISO  8  21  14  22  14  23  14  24  14  25  14  26  14  27  14  28  14
M  END
>  <minimizedAffinity>  (1) 
-4.74512672

>  <minimizedRMSD>  (1) 
3.47869515

$$$$
