
     RDKit          3D

 27 29  0  0  0  0  0  0  0  0999 V2000
   39.3920   22.9080   37.6990 C   0  0  0  0  0  0  0  0  0  0  0  0
   38.6790   23.7150   36.7970 C   0  0  0  0  0  0  0  0  0  0  0  0
   39.4010   24.2670   35.7320 C   0  0  0  0  0  0  0  0  0  0  0  0
   40.7350   24.0090   35.6120 N   0  0  0  0  0  0  0  0  0  0  0  0
   41.3650   23.2170   36.5230 C   0  0  0  0  0  0  0  0  0  0  0  0
   40.6950   22.6730   37.5560 N   0  0  0  0  0  0  0  0  0  0  0  0
   38.7580   25.1040   34.7600 N   0  0  0  0  0  0  0  0  0  0  0  0
   37.8750   24.5740   33.8760 C   0  0  0  0  0  0  0  0  0  0  0  0
   37.4610   25.6320   33.1110 C   0  0  0  0  0  0  0  0  0  0  0  0
   38.0820   26.7540   33.5320 N   0  0  0  0  0  0  0  0  0  0  0  0
   38.8910   26.4160   34.5620 C   0  0  0  0  0  0  0  0  0  0  0  0
   42.7590   23.0040   36.3150 N   0  0  0  0  0  0  0  0  0  0  0  0
   43.6580   23.9570   36.6570 C   0  0  0  0  0  0  0  0  0  0  0  0
   45.0210   23.8170   36.4840 C   0  0  0  0  0  0  0  0  0  0  0  0
   45.4790   22.6320   35.9290 C   0  0  0  0  0  0  0  0  0  0  0  0
   46.7030   22.4040   35.7290 O   0  0  0  0  0  0  0  0  0  0  0  0
   44.5370   21.7230   35.6100 N   0  0  0  0  0  0  0  0  0  0  0  0
   43.2140   21.8630   35.7800 C   0  0  0  0  0  0  0  0  0  0  0  0
   42.4060   20.9670   35.4550 O   0  0  0  0  0  0  0  0  0  0  0  0
   38.8583   22.4569   38.5485 H   0  0  0  0  0  0  0  0  0  0  0  0
   37.6027   23.9046   36.9217 H   0  0  0  0  0  0  0  0  0  0  0  0
   37.5603   23.5233   33.7922 H   0  0  0  0  0  0  0  0  0  0  0  0
   36.7372   25.5761   32.2846 H   0  0  0  0  0  0  0  0  0  0  0  0
   39.5394   27.0980   35.1316 H   0  0  0  0  0  0  0  0  0  0  0  0
   43.2825   24.8930   37.0962 H   0  0  0  0  0  0  0  0  0  0  0  0
   45.7178   24.6165   36.7759 H   0  0  0  0  0  0  0  0  0  0  0  0
   44.8635   20.8377   35.1969 H   0  0  0  0  0  0  0  0  0  0  0  0
  2  1  2  0
  3  2  1  0
  4  3  2  0
  4  5  1  0
  5  6  2  0
  6  1  1  0
  7  3  1  0
  8  7  1  0
  9 10  1  0
  9  8  2  0
 10 11  2  0
 11  7  1  0
 12  5  1  0
 12 13  1  0
 14 13  2  0
 15 14  1  0
 16 15  2  0
 17 18  1  0
 17 15  1  0
 18 12  1  0
 19 18  2  0
  1 20  1  0
  2 21  1  0
  8 22  1  0
  9 23  1  0
 11 24  1  0
 13 25  1  0
 14 26  1  0
 17 27  1  0
M  ISO  8  20  14  21  14  22  14  23  14  24  14  25  14  26  14  27   9
M  END
>  <minimizedAffinity>  (1) 
-4.37485456

>  <minimizedRMSD>  (1) 
3.55340028

$$$$
