
     RDKit          3D

 25 27  0  0  0  0  0  0  0  0999 V2000
   40.7380   22.0440   37.5230 C   0  0  0  0  0  0  0  0  0  0  0  0
   39.9900   23.2100   37.2710 C   0  0  0  0  0  0  0  0  0  0  0  0
   39.9780   23.6880   35.9510 C   0  0  0  0  0  0  0  0  0  0  0  0
   40.6740   23.0100   35.0110 N   0  0  0  0  0  0  0  0  0  0  0  0
   41.3760   21.9000   35.2920 C   0  0  0  0  0  0  0  0  0  0  0  0
   41.4030   21.4210   36.5540 N   0  0  0  0  0  0  0  0  0  0  0  0
   39.2410   24.8680   35.6150 N   0  0  0  0  0  0  0  0  0  0  0  0
   37.8990   24.8800   35.6160 C   0  0  0  0  0  0  0  0  0  0  0  0
   37.5360   26.1490   35.2540 C   0  0  0  0  0  0  0  0  0  0  0  0
   38.6410   26.8780   35.0420 N   0  0  0  0  0  0  0  0  0  0  0  0
   39.7260   26.0770   35.2690 C   0  0  0  0  0  0  0  0  0  0  0  0
   42.1040   21.2130   34.2480 C   0  0  0  0  0  0  0  0  0  0  0  0
   43.4620   20.9780   34.3750 C   0  0  0  0  0  0  0  0  0  0  0  0
   44.1120   20.3180   33.3490 C   0  0  0  0  0  0  0  0  0  0  0  0
   43.4290   19.9210   32.2630 N   0  0  0  0  0  0  0  0  0  0  0  0
   42.1050   20.1520   32.1430 C   0  0  0  0  0  0  0  0  0  0  0  0
   41.4350   20.8020   33.1400 N   0  0  0  0  0  0  0  0  0  0  0  0
   40.7732   21.6388   38.5451 H   0  0  0  0  0  0  0  0  0  0  0  0
   39.4394   23.7237   38.0729 H   0  0  0  0  0  0  0  0  0  0  0  0
   37.2286   24.0421   35.8580 H   0  0  0  0  0  0  0  0  0  0  0  0
   36.5028   26.5127   35.1531 H   0  0  0  0  0  0  0  0  0  0  0  0
   40.7849   26.3629   35.1857 H   0  0  0  0  0  0  0  0  0  0  0  0
   44.0102   21.3081   35.2697 H   0  0  0  0  0  0  0  0  0  0  0  0
   45.1911   20.1175   33.4222 H   0  0  0  0  0  0  0  0  0  0  0  0
   41.5664   19.8175   31.2441 H   0  0  0  0  0  0  0  0  0  0  0  0
  2  1  2  0
  3  2  1  0
  4  5  1  0
  4  3  2  0
  5  6  2  0
  6  1  1  0
  7  8  1  0
  7  3  1  0
  9  8  2  0
 10  9  1  0
 10 11  2  0
 11  7  1  0
 12 13  2  0
 12  5  1  0
 14 13  1  0
 15 14  2  0
 16 15  1  0
 16 17  2  0
 17 12  1  0
  1 18  1  0
  2 19  1  0
  8 20  1  0
  9 21  1  0
 11 22  1  0
 13 23  1  0
 14 24  1  0
 16 25  1  0
M  ISO  8  18  14  19  14  20  14  21  14  22  14  23  14  24  14  25  14
M  END
>  <minimizedAffinity>  (1) 
-3.05885649

>  <minimizedRMSD>  (1) 
1.13199091

$$$$
