
     RDKit          3D

 30 32  0  0  0  0  0  0  0  0999 V2000
   40.7470   22.0160   37.5390 C   0  0  0  0  0  0  0  0  0  0  0  0
   39.9930   23.1820   37.2800 C   0  0  0  0  0  0  0  0  0  0  0  0
   40.0160   23.6620   35.9600 C   0  0  0  0  0  0  0  0  0  0  0  0
   40.7380   23.0020   35.0310 N   0  0  0  0  0  0  0  0  0  0  0  0
   41.4480   21.8850   35.3200 C   0  0  0  0  0  0  0  0  0  0  0  0
   41.4430   21.4020   36.5850 N   0  0  0  0  0  0  0  0  0  0  0  0
   39.2780   24.8440   35.6020 N   0  0  0  0  0  0  0  0  0  0  0  0
   37.9360   24.8310   35.5690 C   0  0  0  0  0  0  0  0  0  0  0  0
   37.5480   26.0840   35.2010 C   0  0  0  0  0  0  0  0  0  0  0  0
   38.6490   26.8320   35.0170 N   0  0  0  0  0  0  0  0  0  0  0  0
   39.7470   26.0500   35.2710 C   0  0  0  0  0  0  0  0  0  0  0  0
   42.2170   21.2180   34.2400 C   0  0  0  0  0  0  0  0  0  0  0  0
   43.2670   22.0690   33.6090 C   0  0  0  0  0  0  0  0  0  0  0  0
   44.1460   21.0500   32.9150 C   0  0  0  0  0  0  0  0  0  0  0  0
   43.8750   19.7100   33.5970 C   0  0  0  0  0  0  0  0  0  0  0  0
   43.0280   20.0700   34.8180 C   0  0  0  0  0  0  0  0  0  0  0  0
   40.7593   21.6035   38.5586 H   0  0  0  0  0  0  0  0  0  0  0  0
   39.4182   23.6874   38.0701 H   0  0  0  0  0  0  0  0  0  0  0  0
   37.2796   23.9776   35.7945 H   0  0  0  0  0  0  0  0  0  0  0  0
   36.5098   26.4254   35.0758 H   0  0  0  0  0  0  0  0  0  0  0  0
   40.8023   26.3550   35.2136 H   0  0  0  0  0  0  0  0  0  0  0  0
   41.4472   20.9349   33.5070 H   0  0  0  0  0  0  0  0  0  0  0  0
   42.8270   22.7717   32.8861 H   0  0  0  0  0  0  0  0  0  0  0  0
   43.8112   22.6978   34.3290 H   0  0  0  0  0  0  0  0  0  0  0  0
   45.2056   21.3247   33.0238 H   0  0  0  0  0  0  0  0  0  0  0  0
   43.9257   21.0010   31.8384 H   0  0  0  0  0  0  0  0  0  0  0  0
   43.3232   19.0358   32.9254 H   0  0  0  0  0  0  0  0  0  0  0  0
   44.8013   19.1830   33.8695 H   0  0  0  0  0  0  0  0  0  0  0  0
   43.6493   20.3941   35.6659 H   0  0  0  0  0  0  0  0  0  0  0  0
   42.4335   19.2425   35.2326 H   0  0  0  0  0  0  0  0  0  0  0  0
  2  1  2  0
  3  2  1  0
  4  5  1  0
  4  3  2  0
  5  6  2  0
  6  1  1  0
  7  3  1  0
  8  7  1  0
  9  8  2  0
 10  9  1  0
 10 11  2  0
 11  7  1  0
 12 16  1  0
 12  5  1  0
 13 12  1  0
 14 15  1  0
 14 13  1  0
 15 16  1  0
  1 17  1  0
  2 18  1  0
  8 19  1  0
  9 20  1  0
 11 21  1  0
 12 22  1  0
 13 23  1  0
 13 24  1  0
 14 25  1  0
 14 26  1  0
 15 27  1  0
 15 28  1  0
 16 29  1  0
 16 30  1  0
M  ISO  8  17  14  18  14  19  14  20  14  21  14  22  13  23  13  24  13
M  ISO  6  25  13  26  13  27  13  28  13  29  13  30  13
M  END
>  <minimizedAffinity>  (1) 
-3.05677104

>  <minimizedRMSD>  (1) 
1.12834585

$$$$
