
     RDKit          3D

 24 26  0  0  0  0  0  0  0  0999 V2000
   40.7520   21.9450   37.6340 C   0  0  0  0  0  0  0  0  0  0  0  0
   39.9860   23.0510   37.1930 C   0  0  0  0  0  0  0  0  0  0  0  0
   40.1980   23.4600   35.8840 C   0  0  0  0  0  0  0  0  0  0  0  0
   41.1060   22.7980   35.1110 N   0  0  0  0  0  0  0  0  0  0  0  0
   41.8160   21.7450   35.5800 C   0  0  0  0  0  0  0  0  0  0  0  0
   41.6250   21.3290   36.8500 N   0  0  0  0  0  0  0  0  0  0  0  0
   39.4730   24.5760   35.3250 N   0  0  0  0  0  0  0  0  0  0  0  0
   38.1530   24.4560   35.0550 C   0  0  0  0  0  0  0  0  0  0  0  0
   37.7970   25.6840   34.5440 C   0  0  0  0  0  0  0  0  0  0  0  0
   38.8720   26.4920   34.5180 N   0  0  0  0  0  0  0  0  0  0  0  0
   39.9280   25.7970   35.0090 C   0  0  0  0  0  0  0  0  0  0  0  0
   42.7510   21.1340   34.6440 C   0  0  0  0  0  0  0  0  0  0  0  0
   43.6180   21.8840   33.8550 C   0  0  0  0  0  0  0  0  0  0  0  0
   44.3630   21.0300   33.0870 C   0  0  0  0  0  0  0  0  0  0  0  0
   43.9310   19.7920   33.4270 N   0  0  0  0  0  0  0  0  0  0  0  0
   42.9800   19.8340   34.3440 N   0  0  0  0  0  0  0  0  0  0  0  0
   40.6177   21.5840   38.6644 H   0  0  0  0  0  0  0  0  0  0  0  0
   39.2639   23.5573   37.8505 H   0  0  0  0  0  0  0  0  0  0  0  0
   37.5099   23.5769   35.2088 H   0  0  0  0  0  0  0  0  0  0  0  0
   36.7871   25.9620   34.2081 H   0  0  0  0  0  0  0  0  0  0  0  0
   40.9584   26.1640   35.1255 H   0  0  0  0  0  0  0  0  0  0  0  0
   43.6924   22.9815   33.8494 H   0  0  0  0  0  0  0  0  0  0  0  0
   45.1412   21.2916   32.3549 H   0  0  0  0  0  0  0  0  0  0  0  0
   44.2999   18.9211   33.0192 H   0  0  0  0  0  0  0  0  0  0  0  0
  2  1  2  0
  3  2  1  0
  4  5  1  0
  4  3  2  0
  5  6  2  0
  6  1  1  0
  7  3  1  0
  8  7  1  0
  9  8  2  0
 10  9  1  0
 10 11  2  0
 11  7  1  0
 12  5  1  0
 13 12  1  0
 14 15  1  0
 14 13  2  0
 15 16  1  0
 16 12  2  0
  1 17  1  0
  2 18  1  0
  8 19  1  0
  9 20  1  0
 11 21  1  0
 13 22  1  0
 14 23  1  0
 15 24  1  0
M  ISO  8  17  14  18  14  19  14  20  14  21  14  22  14  23  14  24   9
M  END
>  <minimizedAffinity>  (1) 
-2.99391747

>  <minimizedRMSD>  (1) 
1.21551108

$$$$
