
     RDKit          3D

 20 21  0  0  0  0  0  0  0  0999 V2000
   41.8380   21.3830   37.4340 C   0  0  0  0  0  0  0  0  0  0  0  0
   40.9240   22.4580   37.3530 C   0  0  0  0  0  0  0  0  0  0  0  0
   40.5750   22.8740   36.0630 C   0  0  0  0  0  0  0  0  0  0  0  0
   41.1100   22.2510   34.9740 N   0  0  0  0  0  0  0  0  0  0  0  0
   41.9860   21.2220   35.1220 C   0  0  0  0  0  0  0  0  0  0  0  0
   42.3430   20.7960   36.3540 N   0  0  0  0  0  0  0  0  0  0  0  0
   39.6550   23.9560   35.8770 N   0  0  0  0  0  0  0  0  0  0  0  0
   38.3430   23.8060   36.1800 C   0  0  0  0  0  0  0  0  0  0  0  0
   37.7690   25.0240   35.8820 C   0  0  0  0  0  0  0  0  0  0  0  0
   38.7220   25.8680   35.4150 N   0  0  0  0  0  0  0  0  0  0  0  0
   39.8970   25.1930   35.4140 C   0  0  0  0  0  0  0  0  0  0  0  0
   42.5310   20.5860   33.9020 C   0  0  0  0  0  0  0  0  0  0  0  0
   42.1422   21.0192   38.4265 H   0  0  0  0  0  0  0  0  0  0  0  0
   40.5110   22.9397   38.2515 H   0  0  0  0  0  0  0  0  0  0  0  0
   37.8448   22.9091   36.5768 H   0  0  0  0  0  0  0  0  0  0  0  0
   36.7043   25.2721   36.0041 H   0  0  0  0  0  0  0  0  0  0  0  0
   40.8723   25.5870   35.0922 H   0  0  0  0  0  0  0  0  0  0  0  0
   43.2224   19.7792   34.1867 H   0  0  0  0  0  0  0  0  0  0  0  0
   41.7059   20.1686   33.3062 H   0  0  0  0  0  0  0  0  0  0  0  0
   43.0699   21.3374   33.3062 H   0  0  0  0  0  0  0  0  0  0  0  0
  2  1  2  0
  3  2  1  0
  4  5  1  0
  4  3  2  0
  5  6  2  0
  6  1  1  0
  7  3  1  0
  7  8  1  0
  9  8  2  0
 10  9  1  0
 11 10  2  0
 11  7  1  0
 12  5  1  0
  1 13  1  0
  2 14  1  0
  8 15  1  0
  9 16  1  0
 11 17  1  0
 12 18  1  0
 12 19  1  0
 12 20  1  0
M  ISO  8  13  14  14  14  15  14  16  14  17  14  18   8  19   8  20   8
M  END
>  <minimizedAffinity>  (1) 
-2.82342434

>  <minimizedRMSD>  (1) 
0.15301235

$$$$
