
     RDKit          3D

 19 20  0  0  0  0  0  0  0  0999 V2000
   41.8440   21.3800   37.4450 C   0  0  0  0  0  0  0  0  0  0  0  0
   40.9280   22.4510   37.3520 C   0  0  0  0  0  0  0  0  0  0  0  0
   40.5710   22.8690   36.0570 C   0  0  0  0  0  0  0  0  0  0  0  0
   41.1140   22.2360   35.0010 N   0  0  0  0  0  0  0  0  0  0  0  0
   41.9860   21.2170   35.1200 C   0  0  0  0  0  0  0  0  0  0  0  0
   42.3510   20.7890   36.3490 N   0  0  0  0  0  0  0  0  0  0  0  0
   39.6460   23.9500   35.8790 N   0  0  0  0  0  0  0  0  0  0  0  0
   38.3510   23.8050   36.1850 C   0  0  0  0  0  0  0  0  0  0  0  0
   37.7700   25.0020   35.9010 C   0  0  0  0  0  0  0  0  0  0  0  0
   38.7090   25.8500   35.4300 N   0  0  0  0  0  0  0  0  0  0  0  0
   39.9080   25.1900   35.4130 C   0  0  0  0  0  0  0  0  0  0  0  0
   42.4680   20.6560   33.9210 N   0  0  0  0  0  0  0  0  0  0  0  0
   42.1501   21.0206   38.4385 H   0  0  0  0  0  0  0  0  0  0  0  0
   40.5137   22.9349   38.2488 H   0  0  0  0  0  0  0  0  0  0  0  0
   37.8590   22.9054   36.5832 H   0  0  0  0  0  0  0  0  0  0  0  0
   36.7045   25.2409   36.0340 H   0  0  0  0  0  0  0  0  0  0  0  0
   40.8811   25.5866   35.0879 H   0  0  0  0  0  0  0  0  0  0  0  0
   43.1375   19.8738   33.9510 H   0  0  0  0  0  0  0  0  0  0  0  0
   42.1510   21.0280   33.0144 H   0  0  0  0  0  0  0  0  0  0  0  0
  2  1  2  0
  3  2  1  0
  4  5  1  0
  4  3  2  0
  5  6  2  0
  6  1  1  0
  7  3  1  0
  7  8  1  0
  9  8  2  0
 10  9  1  0
 11 10  2  0
 11  7  1  0
 12  5  1  0
  1 13  1  0
  2 14  1  0
  8 15  1  0
  9 16  1  0
 11 17  1  0
 12 18  1  0
 12 19  1  0
M  ISO  5  13  14  14  14  15  14  16  14  17  14
M  END
>  <minimizedAffinity>  (1) 
-2.8161025

>  <minimizedRMSD>  (1) 
0.147094727

$$$$
