
     RDKit          3D

 41 43  0  0  0  0  0  0  0  0999 V2000
   38.5000   24.5770   33.7960 N   0  0  0  0  0  0  0  0  0  0  0  0
   39.2010   25.6900   33.5710 C   0  0  0  0  0  0  0  0  0  0  0  0
   39.2050   26.2390   32.2930 C   0  0  0  0  0  0  0  0  0  0  0  0
   38.4760   25.6060   31.2910 C   0  0  0  0  0  0  0  0  0  0  0  0
   38.4050   26.0070   30.1010 O   0  0  0  0  0  0  0  0  0  0  0  0
   37.7700   24.4690   31.5560 N   0  0  0  0  0  0  0  0  0  0  0  0
   37.8030   23.9850   32.8060 C   0  0  0  0  0  0  0  0  0  0  0  0
   37.1560   22.9390   33.0570 O   0  0  0  0  0  0  0  0  0  0  0  0
   37.8240   24.7900   36.1060 C   0  0  0  0  0  0  0  0  0  0  0  0
   38.5640   24.1030   35.1210 C   0  0  0  0  0  0  0  0  0  0  0  0
   39.3060   23.0070   35.5230 C   0  0  0  0  0  0  0  0  0  0  0  0
   39.2770   22.6540   36.8510 N   0  0  0  0  0  0  0  0  0  0  0  0
   38.5620   23.3290   37.7620 C   0  0  0  0  0  0  0  0  0  0  0  0
   37.8360   24.4010   37.3760 N   0  0  0  0  0  0  0  0  0  0  0  0
   38.6940   22.7640   39.0570 N   0  0  0  0  0  0  0  0  0  0  0  0
   39.9390   27.4710   31.8940 C   0  0  0  0  0  0  0  0  0  0  0  0
   41.2400   27.1540   31.1770 C   0  0  0  0  0  0  0  0  0  0  0  0
   41.7470   28.3040   30.3800 C   0  0  0  0  0  0  0  0  0  0  0  0
   42.8740   29.0600   31.0090 C   0  0  0  0  0  0  0  0  0  0  0  0
   43.8440   28.2460   31.7970 C   0  0  0  0  0  0  0  0  0  0  0  0
   43.1110   27.4260   32.8290 C   0  0  0  0  0  0  0  0  0  0  0  0
   42.2190   26.4840   32.0760 C   0  0  0  0  0  0  0  0  0  0  0  0
   39.7676   26.1665   34.3846 H   0  0  0  0  0  0  0  0  0  0  0  0
   37.2281   23.9968   30.8183 H   0  0  0  0  0  0  0  0  0  0  0  0
   37.2247   25.6658   35.8165 H   0  0  0  0  0  0  0  0  0  0  0  0
   39.9033   22.4332   34.7991 H   0  0  0  0  0  0  0  0  0  0  0  0
   38.1967   23.1840   39.8552 H   0  0  0  0  0  0  0  0  0  0  0  0
   39.2871   21.9339   39.1987 H   0  0  0  0  0  0  0  0  0  0  0  0
   39.2994   28.0633   31.2231 H   0  0  0  0  0  0  0  0  0  0  0  0
   40.1840   28.0306   32.8088 H   0  0  0  0  0  0  0  0  0  0  0  0
   41.0376   26.3960   30.4060 H   0  0  0  0  0  0  0  0  0  0  0  0
   40.9131   29.0036   30.2215 H   0  0  0  0  0  0  0  0  0  0  0  0
   42.1442   27.8799   29.4460 H   0  0  0  0  0  0  0  0  0  0  0  0
   43.4313   29.5644   30.2059 H   0  0  0  0  0  0  0  0  0  0  0  0
   42.4064   29.7467   31.7300 H   0  0  0  0  0  0  0  0  0  0  0  0
   44.3908   27.5740   31.1192 H   0  0  0  0  0  0  0  0  0  0  0  0
   44.5503   28.9186   32.3056 H   0  0  0  0  0  0  0  0  0  0  0  0
   43.8276   26.8606   33.4429 H   0  0  0  0  0  0  0  0  0  0  0  0
   42.5276   28.0692   33.5042 H   0  0  0  0  0  0  0  0  0  0  0  0
   41.6594   25.8814   32.8066 H   0  0  0  0  0  0  0  0  0  0  0  0
   42.8732   25.8772   31.4327 H   0  0  0  0  0  0  0  0  0  0  0  0
  1 10  1  0
  2  1  1  0
  3  2  2  0
  4  6  1  0
  4  3  1  0
  5  4  2  0
  6  7  1  0
  7  8  2  0
  7  1  1  0
  9 14  2  0
 10 11  2  0
 10  9  1  0
 11 12  1  0
 12 13  2  0
 13 15  1  0
 14 13  1  0
 16  3  1  0
 17 16  1  0
 17 22  1  0
 18 19  1  0
 18 17  1  0
 19 20  1  0
 20 21  1  0
 22 21  1  0
  2 23  1  0
  6 24  1  0
  9 25  1  0
 11 26  1  0
 15 27  1  0
 15 28  1  0
 16 29  1  0
 16 30  1  0
 17 31  1  0
 18 32  1  0
 18 33  1  0
 19 34  1  0
 19 35  1  0
 20 36  1  0
 20 37  1  0
 21 38  1  0
 21 39  1  0
 22 40  1  0
 22 41  1  0
M  ISO  8  23  14  24   9  25  14  26  14  29   8  30   8  31  13  32  13
M  ISO  8  33  13  34  13  35  13  36  13  37  13  38  13  39  13  40  13
M  ISO  1  41  13
M  END
>  <minimizedAffinity>  (1) 
-4.50052404

>  <minimizedRMSD>  (1) 
2.0448103

$$$$
