
     RDKit          3D

 40 43  0  0  0  0  0  0  0  0999 V2000
   41.1760   22.3960   36.5500 C   0  0  0  0  0  0  0  0  0  0  0  0
   41.7960   21.2390   37.0000 C   0  0  0  0  0  0  0  0  0  0  0  0
   43.1280   20.9520   36.8080 C   0  0  0  0  0  0  0  0  0  0  0  0
   43.9330   21.8300   36.1390 C   0  0  0  0  0  0  0  0  0  0  0  0
   43.3540   23.0010   35.6710 C   0  0  0  0  0  0  0  0  0  0  0  0
   44.1690   23.8720   34.9990 C   0  0  0  0  0  0  0  0  0  0  0  0
   43.6900   25.0500   34.4980 C   0  0  0  0  0  0  0  0  0  0  0  0
   42.3430   25.2980   34.7140 C   0  0  0  0  0  0  0  0  0  0  0  0
   41.5530   24.4070   35.3910 C   0  0  0  0  0  0  0  0  0  0  0  0
   42.0220   23.2460   35.8850 C   0  0  0  0  0  0  0  0  0  0  0  0
   37.8120   23.3630   37.7960 C   0  0  0  0  0  0  0  0  0  0  0  0
   36.9920   22.7810   36.8060 C   0  0  0  0  0  0  0  0  0  0  0  0
   37.6530   22.1040   35.7960 C   0  0  0  0  0  0  0  0  0  0  0  0
   38.9860   22.0590   35.8440 N   0  0  0  0  0  0  0  0  0  0  0  0
   39.7700   22.6140   36.7870 C   0  0  0  0  0  0  0  0  0  0  0  0
   39.1410   23.2790   37.7820 N   0  0  0  0  0  0  0  0  0  0  0  0
   36.9360   21.4740   34.7320 N   0  0  0  0  0  0  0  0  0  0  0  0
   35.8190   20.7930   34.9520 C   0  0  0  0  0  0  0  0  0  0  0  0
   35.4160   20.3390   33.7250 C   0  0  0  0  0  0  0  0  0  0  0  0
   36.2890   20.7500   32.7880 N   0  0  0  0  0  0  0  0  0  0  0  0
   37.2580   21.4680   33.4020 C   0  0  0  0  0  0  0  0  0  0  0  0
   40.2410   24.8920   35.5360 N   0  0  0  0  0  0  0  0  0  0  0  0
   39.3460   25.1820   34.4310 C   0  0  0  0  0  0  0  0  0  0  0  0
   39.3490   24.3210   33.4140 N   0  0  0  0  0  0  0  0  0  0  0  0
   38.4200   26.2890   34.2610 N   0  0  0  0  0  0  0  0  0  0  0  0
   38.7640   24.4220   32.5860 H   0  0  0  0  0  0  0  0  0  0  0  0
   41.1840   20.5049   37.5446 H   0  0  0  0  0  0  0  0  0  0  0  0
   43.5466   20.0112   37.1950 H   0  0  0  0  0  0  0  0  0  0  0  0
   45.0000   21.6167   35.9774 H   0  0  0  0  0  0  0  0  0  0  0  0
   45.2303   23.6187   34.8595 H   0  0  0  0  0  0  0  0  0  0  0  0
   44.3340   25.7583   33.9563 H   0  0  0  0  0  0  0  0  0  0  0  0
   41.8994   26.2300   34.3337 H   0  0  0  0  0  0  0  0  0  0  0  0
   37.3305   23.9122   38.6185 H   0  0  0  0  0  0  0  0  0  0  0  0
   35.8953   22.8605   36.8352 H   0  0  0  0  0  0  0  0  0  0  0  0
   35.3206   20.6276   35.9186 H   0  0  0  0  0  0  0  0  0  0  0  0
   34.5181   19.7326   33.5350 H   0  0  0  0  0  0  0  0  0  0  0  0
   38.1269   21.9486   32.9287 H   0  0  0  0  0  0  0  0  0  0  0  0
   39.8915   25.0523   36.4915 H   0  0  0  0  0  0  0  0  0  0  0  0
   37.8466   26.3544   33.4079 H   0  0  0  0  0  0  0  0  0  0  0  0
   38.3371   27.0082   34.9936 H   0  0  0  0  0  0  0  0  0  0  0  0
  1 15  1  0
  1  2  2  0
  3  2  1  0
  4  3  2  0
  5 10  2  0
  5  4  1  0
  6  5  1  0
  7  8  1  0
  7  6  2  0
  8  9  2  0
  9 22  1  0
  9 10  1  0
 10  1  1  0
 12 11  2  0
 13 14  2  0
 13 12  1  0
 14 15  1  0
 15 16  2  0
 16 11  1  0
 17 18  1  0
 17 13  1  0
 19 18  2  0
 20 21  2  0
 20 19  1  0
 21 17  1  0
 23 22  1  0
 24 23  2  0
 25 23  1  0
 26 24  1  0
  2 27  1  0
  3 28  1  0
  4 29  1  0
  6 30  1  0
  7 31  1  0
  8 32  1  0
 11 33  1  0
 12 34  1  0
 18 35  1  0
 19 36  1  0
 21 37  1  0
 22 38  1  0
 25 39  1  0
 25 40  1  0
M  ISO  8  27  14  28  14  29  14  30  14  31  14  32  14  33  14  34  14
M  ISO  3  35  14  36  14  37  14
M  END
>  <minimizedAffinity>  (1) 
-5.35356855

>  <minimizedRMSD>  (1) 
4.51707697

$$$$
