
     RDKit          3D

 36 39  0  0  0  0  0  0  0  0999 V2000
   40.2660   23.2640   36.6810 C   0  0  0  0  0  0  0  0  0  0  0  0
   39.7590   22.8640   37.8950 C   0  0  0  0  0  0  0  0  0  0  0  0
   38.5650   23.3370   38.4140 C   0  0  0  0  0  0  0  0  0  0  0  0
   37.8220   24.2500   37.7080 C   0  0  0  0  0  0  0  0  0  0  0  0
   38.3240   24.6560   36.4820 C   0  0  0  0  0  0  0  0  0  0  0  0
   37.5490   25.5260   35.7710 C   0  0  0  0  0  0  0  0  0  0  0  0
   37.9360   25.9430   34.5350 C   0  0  0  0  0  0  0  0  0  0  0  0
   39.1280   25.4370   34.0730 C   0  0  0  0  0  0  0  0  0  0  0  0
   39.9220   24.5550   34.7930 C   0  0  0  0  0  0  0  0  0  0  0  0
   39.5040   24.1630   36.0160 C   0  0  0  0  0  0  0  0  0  0  0  0
   43.0170   21.2170   35.2670 C   0  0  0  0  0  0  0  0  0  0  0  0
   44.1310   21.9770   35.6640 C   0  0  0  0  0  0  0  0  0  0  0  0
   43.8610   23.1290   36.3730 C   0  0  0  0  0  0  0  0  0  0  0  0
   42.5940   23.3650   36.5820 N   0  0  0  0  0  0  0  0  0  0  0  0
   41.5100   22.7290   36.2470 C   0  0  0  0  0  0  0  0  0  0  0  0
   41.7830   21.5800   35.5480 N   0  0  0  0  0  0  0  0  0  0  0  0
   44.8990   24.0180   36.7920 N   0  0  0  0  0  0  0  0  0  0  0  0
   44.6290   25.1150   37.4800 C   0  0  0  0  0  0  0  0  0  0  0  0
   45.8340   25.7170   37.7130 C   0  0  0  0  0  0  0  0  0  0  0  0
   46.8090   24.9810   37.1650 N   0  0  0  0  0  0  0  0  0  0  0  0
   46.2440   23.9040   36.5790 C   0  0  0  0  0  0  0  0  0  0  0  0
   41.1660   24.1920   34.0730 C   0  0  0  0  0  0  0  0  0  0  0  0
   41.1500   24.9040   32.7950 F   0  0  0  0  0  0  0  0  0  0  0  0
   42.2190   25.0270   34.3820 F   0  0  0  0  0  0  0  0  0  0  0  0
   41.2430   23.1130   33.3280 F   0  0  0  0  0  0  0  0  0  0  0  0
   40.3305   22.1314   38.4838 H   0  0  0  0  0  0  0  0  0  0  0  0
   38.2119   22.9806   39.3929 H   0  0  0  0  0  0  0  0  0  0  0  0
   36.8709   24.6417   38.0979 H   0  0  0  0  0  0  0  0  0  0  0  0
   36.6049   25.8926   36.2003 H   0  0  0  0  0  0  0  0  0  0  0  0
   37.3310   26.6435   33.9406 H   0  0  0  0  0  0  0  0  0  0  0  0
   39.4721   25.7489   33.0759 H   0  0  0  0  0  0  0  0  0  0  0  0
   43.1819   20.2875   34.7024 H   0  0  0  0  0  0  0  0  0  0  0  0
   45.1595   21.6704   35.4229 H   0  0  0  0  0  0  0  0  0  0  0  0
   43.6380   25.4701   37.7992 H   0  0  0  0  0  0  0  0  0  0  0  0
   45.9797   26.6579   38.2639 H   0  0  0  0  0  0  0  0  0  0  0  0
   46.7618   23.0975   36.0391 H   0  0  0  0  0  0  0  0  0  0  0  0
  1  2  2  0
  2  3  1  0
  4  3  2  0
  5  4  1  0
  6  5  2  0
  7  6  1  0
  8  7  2  0
  8  9  1  0
  9 10  2  0
 10  5  1  0
 10  1  1  0
 11 16  2  0
 11 12  1  0
 12 13  2  0
 13 14  1  0
 13 17  1  0
 15 14  2  0
 15  1  1  0
 16 15  1  0
 17 18  1  0
 18 19  2  0
 20 19  1  0
 21 17  1  0
 21 20  2  0
 22 24  1  0
 22  9  1  0
 23 22  1  0
 25 22  1  0
  2 26  1  0
  3 27  1  0
  4 28  1  0
  6 29  1  0
  7 30  1  0
  8 31  1  0
 11 32  1  0
 12 33  1  0
 18 34  1  0
 19 35  1  0
 21 36  1  0
M  ISO  8  26  14  27  14  28  14  29  14  30  14  31  14  32  14  33  14
M  ISO  3  34  14  35  14  36  14
M  END
>  <minimizedAffinity>  (1) 
-5.53374147

>  <minimizedRMSD>  (1) 
6.18908596

$$$$
