
     RDKit          3D

 49 54  0  0  0  0  0  0  0  0999 V2000
   43.1540   21.3430   35.2870 C   0  0  0  0  0  0  0  0  0  0  0  0
   44.2310   22.1290   35.7260 C   0  0  0  0  0  0  0  0  0  0  0  0
   43.9260   23.2530   36.4390 C   0  0  0  0  0  0  0  0  0  0  0  0
   42.6470   23.4520   36.6260 N   0  0  0  0  0  0  0  0  0  0  0  0
   41.5820   22.7790   36.2580 C   0  0  0  0  0  0  0  0  0  0  0  0
   41.9010   21.6640   35.5470 N   0  0  0  0  0  0  0  0  0  0  0  0
   40.3180   23.2810   36.6540 C   0  0  0  0  0  0  0  0  0  0  0  0
   39.7950   22.8550   37.8720 C   0  0  0  0  0  0  0  0  0  0  0  0
   38.5770   23.2850   38.3750 C   0  0  0  0  0  0  0  0  0  0  0  0
   37.8240   24.1720   37.6630 C   0  0  0  0  0  0  0  0  0  0  0  0
   38.3350   24.6060   36.4400 C   0  0  0  0  0  0  0  0  0  0  0  0
   37.5560   25.4680   35.7450 C   0  0  0  0  0  0  0  0  0  0  0  0
   37.9640   25.9250   34.5250 C   0  0  0  0  0  0  0  0  0  0  0  0
   39.1720   25.4710   34.0660 C   0  0  0  0  0  0  0  0  0  0  0  0
   39.9650   24.5870   34.7910 C   0  0  0  0  0  0  0  0  0  0  0  0
   39.5370   24.1530   35.9920 C   0  0  0  0  0  0  0  0  0  0  0  0
   41.2420   24.2700   34.0950 C   0  0  0  0  0  0  0  0  0  0  0  0
   41.2580   25.0080   32.8320 F   0  0  0  0  0  0  0  0  0  0  0  0
   42.2640   25.1390   34.4510 F   0  0  0  0  0  0  0  0  0  0  0  0
   41.3700   23.2210   33.3360 F   0  0  0  0  0  0  0  0  0  0  0  0
   44.9210   24.1370   36.9130 N   0  0  0  0  0  0  0  0  0  0  0  0
   44.6030   25.3250   37.4180 C   0  0  0  0  0  0  0  0  0  0  0  0
   45.7740   25.9440   37.7740 C   0  0  0  0  0  0  0  0  0  0  0  0
   46.7920   25.1160   37.4790 N   0  0  0  0  0  0  0  0  0  0  0  0
   46.2640   24.0050   36.9490 C   0  0  0  0  0  0  0  0  0  0  0  0
   47.0680   22.9390   36.5310 N   0  0  0  0  0  0  0  0  0  0  0  0
   46.7950   22.0420   35.5300 C   0  0  0  0  0  0  0  0  0  0  0  0
   47.8550   21.2150   35.4430 N   0  0  0  0  0  0  0  0  0  0  0  0
   48.7650   21.5850   36.3620 C   0  0  0  0  0  0  0  0  0  0  0  0
   50.0100   21.0990   36.7080 C   0  0  0  0  0  0  0  0  0  0  0  0
   50.7860   21.6360   37.6960 N   0  0  0  0  0  0  0  0  0  0  0  0
   50.2750   22.7120   38.3620 C   0  0  0  0  0  0  0  0  0  0  0  0
   49.0500   23.2060   38.0360 N   0  0  0  0  0  0  0  0  0  0  0  0
   48.3000   22.6740   37.0700 C   0  0  0  0  0  0  0  0  0  0  0  0
   50.5470   19.9660   36.0050 N   0  0  0  0  0  0  0  0  0  0  0  0
   43.3612   20.4309   34.7081 H   0  0  0  0  0  0  0  0  0  0  0  0
   45.2726   21.8523   35.5058 H   0  0  0  0  0  0  0  0  0  0  0  0
   40.3800   22.1385   38.4673 H   0  0  0  0  0  0  0  0  0  0  0  0
   38.2186   22.9119   39.3458 H   0  0  0  0  0  0  0  0  0  0  0  0
   36.8539   24.5302   38.0379 H   0  0  0  0  0  0  0  0  0  0  0  0
   36.5944   25.8001   36.1633 H   0  0  0  0  0  0  0  0  0  0  0  0
   37.3513   26.6251   33.9381 H   0  0  0  0  0  0  0  0  0  0  0  0
   39.5293   25.8190   33.0856 H   0  0  0  0  0  0  0  0  0  0  0  0
   43.5886   25.7355   37.5296 H   0  0  0  0  0  0  0  0  0  0  0  0
   45.8648   26.9441   38.2229 H   0  0  0  0  0  0  0  0  0  0  0  0
   45.8837   22.0049   34.9150 H   0  0  0  0  0  0  0  0  0  0  0  0
   50.8574   23.1829   39.1676 H   0  0  0  0  0  0  0  0  0  0  0  0
   51.4750   19.5966   36.2563 H   0  0  0  0  0  0  0  0  0  0  0  0
   50.0037   19.5236   35.2500 H   0  0  0  0  0  0  0  0  0  0  0  0
  1  6  2  0
  1  2  1  0
  2  3  2  0
  3  4  1  0
  3 21  1  0
  5  4  2  0
  5  7  1  0
  6  5  1  0
  7  8  2  0
  8  9  1  0
 10  9  2  0
 11 10  1  0
 12 11  2  0
 13 12  1  0
 14 13  2  0
 14 15  1  0
 15 16  2  0
 16 11  1  0
 16  7  1  0
 17 19  1  0
 17 15  1  0
 18 17  1  0
 20 17  1  0
 21 25  1  0
 21 22  1  0
 22 23  2  0
 24 23  1  0
 25 24  2  0
 26 25  1  0
 26 34  1  0
 27 26  1  0
 28 27  2  0
 28 29  1  0
 29 30  2  0
 29 34  1  0
 30 31  1  0
 31 32  2  0
 33 32  1  0
 34 33  2  0
 35 30  1  0
  1 36  1  0
  2 37  1  0
  8 38  1  0
  9 39  1  0
 10 40  1  0
 12 41  1  0
 13 42  1  0
 14 43  1  0
 22 44  1  0
 23 45  1  0
 27 46  1  0
 32 47  1  0
 35 48  1  0
 35 49  1  0
M  ISO  8  36  14  37  14  38  14  39  14  40  14  41  14  42  14  43  14
M  ISO  4  44  14  45  14  46  14  47  14
M  END
>  <minimizedAffinity>  (1) 
-6.14587212

>  <minimizedRMSD>  (1) 
0.61483866

$$$$
