
     RDKit          3D

 24 25  0  0  1  0  0  0  0  0999 V2000
   38.4090   23.2340   35.9570 N   0  0  0  0  0  0  0  0  0  0  0  0
   37.7600   23.4060   37.2570 C   0  0  0  0  0  0  0  0  0  0  0  0
   38.7990   22.8240   38.2040 C   0  0  1  0  0  0  0  0  0  0  0  0
   40.0570   22.6090   37.3740 C   0  0  0  0  0  0  0  0  0  0  0  0
   39.7860   23.6060   36.2570 C   0  0  0  0  0  0  0  0  0  0  0  0
   37.8420   22.8160   34.7290 C   0  0  0  0  0  0  0  0  0  0  0  0
   37.1590   21.6020   34.5880 C   0  0  0  0  0  0  0  0  0  0  0  0
   36.6270   21.2520   33.3580 C   0  0  0  0  0  0  0  0  0  0  0  0
   36.8020   22.1320   32.3180 N   0  0  0  0  0  0  0  0  0  0  0  0
   37.4700   23.3050   32.4810 C   0  0  0  0  0  0  0  0  0  0  0  0
   37.9880   23.6460   33.6790 N   0  0  0  0  0  0  0  0  0  0  0  0
   39.0660   23.8460   39.2150 N   0  0  0  0  0  0  0  0  0  0  0  0
   37.5716   24.4680   37.4731 H   0  0  0  0  0  0  0  0  0  0  0  0
   36.7732   22.9252   37.3290 H   0  0  0  0  0  0  0  0  0  0  0  0
   38.4739   21.8865   38.6788 H   0  0  0  0  0  0  0  0  0  0  0  0
   40.9687   22.8590   37.9364 H   0  0  0  0  0  0  0  0  0  0  0  0
   40.2346   21.5736   37.0480 H   0  0  0  0  0  0  0  0  0  0  0  0
   40.4527   23.4531   35.3955 H   0  0  0  0  0  0  0  0  0  0  0  0
   39.9477   24.6633   36.5138 H   0  0  0  0  0  0  0  0  0  0  0  0
   37.0453   20.9289   35.4506 H   0  0  0  0  0  0  0  0  0  0  0  0
   36.0848   20.3050   33.2193 H   0  0  0  0  0  0  0  0  0  0  0  0
   37.5896   23.9849   31.6246 H   0  0  0  0  0  0  0  0  0  0  0  0
   38.9590   23.4363   40.1539 H   0  0  0  0  0  0  0  0  0  0  0  0
   40.0272   24.1982   39.1016 H   0  0  0  0  0  0  0  0  0  0  0  0
  1  5  1  0
  1  2  1  0
  2  3  1  0
  3 12  1  0
  4  3  1  0
  5  4  1  0
  6  1  1  0
  7  6  2  0
  8  7  1  0
  9 10  1  0
  9  8  2  0
 10 11  2  0
 11  6  1  0
  2 13  1  0
  2 14  1  0
  3 15  1  1
  4 16  1  0
  4 17  1  0
  5 18  1  0
  5 19  1  0
  7 20  1  0
  8 21  1  0
 10 22  1  0
 12 23  1  0
 12 24  1  0
M  ISO  8  13  13  14  13  15  13  16  13  17  13  18  13  19  13  20  14
M  ISO  4  21  14  22  14  23   5  24   5
M  END
>  <minimizedAffinity>  (1) 
-3.13981819

>  <minimizedRMSD>  (1) 
0.571278691

$$$$
