
     RDKit          3D

 27 28  0  0  1  0  0  0  0  0999 V2000
   37.9530   24.6110   34.7760 N   0  0  0  0  0  0  0  0  0  0  0  0
   37.4060   25.9340   34.4360 C   0  0  0  0  0  0  0  0  0  0  0  0
   38.0670   26.2300   33.1100 C   0  0  1  0  0  0  0  0  0  0  0  0
   38.7540   24.9360   32.6880 C   0  0  0  0  0  0  0  0  0  0  0  0
   37.9290   23.9410   33.4860 C   0  0  0  0  0  0  0  0  0  0  0  0
   38.3860   24.1230   36.0280 C   0  0  0  0  0  0  0  0  0  0  0  0
   39.4830   23.2680   36.1480 C   0  0  0  0  0  0  0  0  0  0  0  0
   39.8650   22.8180   37.4060 C   0  0  0  0  0  0  0  0  0  0  0  0
   39.1190   23.2540   38.4860 N   0  0  0  0  0  0  0  0  0  0  0  0
   38.0580   24.0850   38.3330 C   0  0  0  0  0  0  0  0  0  0  0  0
   37.6980   24.5130   37.1110 N   0  0  0  0  0  0  0  0  0  0  0  0
   37.0050   26.5240   32.1540 N   0  0  0  0  0  0  0  0  0  0  0  0
   37.2110   27.4040   31.0420 C   0  0  0  0  0  0  0  0  0  0  0  0
   38.2170   28.1700   31.0030 O   0  0  0  0  0  0  0  0  0  0  0  0
   36.3510   27.4820   29.9550 O   0  0  0  0  0  0  0  0  0  0  0  0
   36.3112   25.8976   34.3351 H   0  0  0  0  0  0  0  0  0  0  0  0
   37.5992   26.6987   35.2027 H   0  0  0  0  0  0  0  0  0  0  0  0
   38.7775   27.0680   33.1641 H   0  0  0  0  0  0  0  0  0  0  0  0
   38.6714   24.7621   31.6050 H   0  0  0  0  0  0  0  0  0  0  0  0
   39.8377   24.8999   32.8730 H   0  0  0  0  0  0  0  0  0  0  0  0
   36.9070   23.8418   33.0914 H   0  0  0  0  0  0  0  0  0  0  0  0
   38.3018   22.9061   33.4827 H   0  0  0  0  0  0  0  0  0  0  0  0
   40.0407   22.9530   35.2537 H   0  0  0  0  0  0  0  0  0  0  0  0
   40.7241   22.1437   37.5373 H   0  0  0  0  0  0  0  0  0  0  0  0
   37.4881   24.4110   39.2156 H   0  0  0  0  0  0  0  0  0  0  0  0
   36.0812   26.0868   32.2819 H   0  0  0  0  0  0  0  0  0  0  0  0
   36.5449   28.1098   29.2145 H   0  0  0  0  0  0  0  0  0  0  0  0
  1  6  1  0
  2  1  1  0
  3  2  1  0
  4  3  1  0
  4  5  1  0
  5  1  1  0
  6  7  2  0
  6 11  1  0
  7  8  1  0
  8  9  2  0
 10  9  1  0
 11 10  2  0
 12  3  1  0
 13 12  1  0
 14 13  2  0
 15 13  1  0
  2 16  1  0
  2 17  1  0
  3 18  1  1
  4 19  1  0
  4 20  1  0
  5 21  1  0
  5 22  1  0
  7 23  1  0
  8 24  1  0
 10 25  1  0
 12 26  1  0
 15 27  1  0
M  ISO  8  16  13  17  13  18  13  19  13  20  13  21  13  22  13  23  14
M  ISO  3  24  14  25  14  27   3
M  END
>  <minimizedAffinity>  (1) 
-4.17894793

>  <minimizedRMSD>  (1) 
6.77421188

$$$$
