
     RDKit          3D

 33 34  0  0  1  0  0  0  0  0999 V2000
   37.7860   26.8730   33.7660 N   0  0  0  0  0  0  0  0  0  0  0  0
   37.9040   25.4470   34.1170 C   0  0  0  0  0  0  0  0  0  0  0  0
   38.6970   25.5410   35.4120 C   0  0  1  0  0  0  0  0  0  0  0  0
   38.7170   27.0000   35.8190 C   0  0  0  0  0  0  0  0  0  0  0  0
   37.5020   27.4870   35.0670 C   0  0  0  0  0  0  0  0  0  0  0  0
   37.9150   27.4860   32.4950 C   0  0  0  0  0  0  0  0  0  0  0  0
   38.9850   27.2400   31.6430 C   0  0  0  0  0  0  0  0  0  0  0  0
   39.0270   27.8870   30.4160 C   0  0  0  0  0  0  0  0  0  0  0  0
   38.0060   28.7420   30.1020 N   0  0  0  0  0  0  0  0  0  0  0  0
   36.9760   28.9610   30.9530 C   0  0  0  0  0  0  0  0  0  0  0  0
   36.9210   28.3420   32.1470 N   0  0  0  0  0  0  0  0  0  0  0  0
   37.9890   24.7800   36.4250 N   0  0  0  0  0  0  0  0  0  0  0  0
   38.8970   23.7840   36.9560 C   0  0  0  0  0  0  0  0  0  0  0  0
   38.6450   22.5000   36.1570 C   0  0  0  0  0  0  0  0  0  0  0  0
   38.5960   23.4540   38.3990 C   0  0  0  0  0  0  0  0  0  0  0  0
   36.9182   24.9861   34.2777 H   0  0  0  0  0  0  0  0  0  0  0  0
   38.3695   24.8223   33.3405 H   0  0  0  0  0  0  0  0  0  0  0  0
   39.7197   25.1538   35.2934 H   0  0  0  0  0  0  0  0  0  0  0  0
   38.6034   27.1241   36.9061 H   0  0  0  0  0  0  0  0  0  0  0  0
   39.6514   27.5352   35.5944 H   0  0  0  0  0  0  0  0  0  0  0  0
   37.4649   28.5847   35.0072 H   0  0  0  0  0  0  0  0  0  0  0  0
   36.5305   27.2286   35.5135 H   0  0  0  0  0  0  0  0  0  0  0  0
   39.7850   26.5443   31.9362 H   0  0  0  0  0  0  0  0  0  0  0  0
   39.8579   27.7172   29.7155 H   0  0  0  0  0  0  0  0  0  0  0  0
   36.1726   29.6547   30.6645 H   0  0  0  0  0  0  0  0  0  0  0  0
   37.6790   25.4079   37.1803 H   0  0  0  0  0  0  0  0  0  0  0  0
   39.9259   24.1667   36.8858 H   0  0  0  0  0  0  0  0  0  0  0  0
   38.4806   21.6626   36.8510 H   0  0  0  0  0  0  0  0  0  0  0  0
   37.7554   22.6311   35.5234 H   0  0  0  0  0  0  0  0  0  0  0  0
   39.5181   22.2851   35.5234 H   0  0  0  0  0  0  0  0  0  0  0  0
   39.1906   24.1059   39.0559 H   0  0  0  0  0  0  0  0  0  0  0  0
   37.5255   23.6132   38.5959 H   0  0  0  0  0  0  0  0  0  0  0  0
   38.8527   22.4027   38.5959 H   0  0  0  0  0  0  0  0  0  0  0  0
  1  2  1  0
  1  5  1  0
  2  3  1  0
  3  4  1  0
  3 12  1  0
  5  4  1  0
  6  1  1  0
  7  6  2  0
  8  7  1  0
  9  8  2  0
  9 10  1  0
 10 11  2  0
 11  6  1  0
 12 13  1  0
 13 15  1  0
 14 13  1  0
  2 16  1  0
  2 17  1  0
  3 18  1  6
  4 19  1  0
  4 20  1  0
  5 21  1  0
  5 22  1  0
  7 23  1  0
  8 24  1  0
 10 25  1  0
 12 26  1  0
 13 27  1  0
 14 28  1  0
 14 29  1  0
 14 30  1  0
 15 31  1  0
 15 32  1  0
 15 33  1  0
M  ISO  8  16  13  17  13  18  13  19  13  20  13  21  13  22  13  23  14
M  ISO  8  24  14  25  14  26   5  27   8  28   8  29   8  30   8  31   8
M  ISO  2  32   8  33   8
M  END
>  <minimizedAffinity>  (1) 
-3.93500304

>  <minimizedRMSD>  (1) 
5.00695276

$$$$
