
     RDKit          3D

 27 28  0  0  1  0  0  0  0  0999 V2000
   38.5670   22.6610   34.0590 N   0  0  0  0  0  0  0  0  0  0  0  0
   37.7520   23.4500   34.9640 C   0  0  0  0  0  0  0  0  0  0  0  0
   38.2320   22.9710   36.3430 C   0  0  1  0  0  0  0  0  0  0  0  0
   39.4550   22.1390   36.0700 C   0  0  0  0  0  0  0  0  0  0  0  0
   39.8500   22.7360   34.7150 C   0  0  0  0  0  0  0  0  0  0  0  0
   38.1920   22.0050   32.8600 C   0  0  0  0  0  0  0  0  0  0  0  0
   37.3110   20.9130   32.8290 C   0  0  0  0  0  0  0  0  0  0  0  0
   37.0050   20.3450   31.6010 C   0  0  0  0  0  0  0  0  0  0  0  0
   37.5780   20.8790   30.4790 N   0  0  0  0  0  0  0  0  0  0  0  0
   38.4230   21.9310   30.5420 C   0  0  0  0  0  0  0  0  0  0  0  0
   38.7370   22.5000   31.7200 N   0  0  0  0  0  0  0  0  0  0  0  0
   38.5430   24.1690   37.0860 N   0  0  0  0  0  0  0  0  0  0  0  0
   38.2850   24.0170   38.4730 C   0  0  0  0  0  0  0  0  0  0  0  0
   39.4240   23.5430   39.1420 F   0  0  0  0  0  0  0  0  0  0  0  0
   37.8300   25.1000   39.1440 F   0  0  0  0  0  0  0  0  0  0  0  0
   37.3470   22.9800   38.6820 F   0  0  0  0  0  0  0  0  0  0  0  0
   37.9365   24.5261   34.8301 H   0  0  0  0  0  0  0  0  0  0  0  0
   36.6709   23.3225   34.8063 H   0  0  0  0  0  0  0  0  0  0  0  0
   37.5060   22.3745   36.9149 H   0  0  0  0  0  0  0  0  0  0  0  0
   40.2351   22.2896   36.8308 H   0  0  0  0  0  0  0  0  0  0  0  0
   39.2998   21.0501   36.0812 H   0  0  0  0  0  0  0  0  0  0  0  0
   40.6122   22.1304   34.2028 H   0  0  0  0  0  0  0  0  0  0  0  0
   40.3075   23.7357   34.7513 H   0  0  0  0  0  0  0  0  0  0  0  0
   36.8732   20.5167   33.7570 H   0  0  0  0  0  0  0  0  0  0  0  0
   36.3195   19.4876   31.5310 H   0  0  0  0  0  0  0  0  0  0  0  0
   38.8615   22.3289   29.6150 H   0  0  0  0  0  0  0  0  0  0  0  0
   39.5402   24.3914   36.9558 H   0  0  0  0  0  0  0  0  0  0  0  0
  1  5  1  0
  1  2  1  0
  2  3  1  0
  3 12  1  0
  4  3  1  0
  5  4  1  0
  6  1  1  0
  7  6  2  0
  8  7  1  0
  9 10  1  0
  9  8  2  0
 10 11  2  0
 11  6  1  0
 12 13  1  0
 13 16  1  0
 13 14  1  0
 13 15  1  0
  2 17  1  0
  2 18  1  0
  3 19  1  1
  4 20  1  0
  4 21  1  0
  5 22  1  0
  5 23  1  0
  7 24  1  0
  8 25  1  0
 10 26  1  0
 12 27  1  0
M  ISO  8  17  13  18  13  19  13  20  13  21  13  22  13  23  13  24  14
M  ISO  3  25  14  26  14  27   5
M  END
>  <minimizedAffinity>  (1) 
-3.90732074

>  <minimizedRMSD>  (1) 
2.28010917

$$$$
