
     RDKit          3D

 26 27  0  0  1  0  0  0  0  0999 V2000
   38.0210   24.3940   34.0160 N   0  0  0  0  0  0  0  0  0  0  0  0
   37.9990   24.6080   35.4510 C   0  0  0  0  0  0  0  0  0  0  0  0
   38.1300   23.1840   35.9950 C   0  0  1  0  0  0  0  0  0  0  0  0
   38.4960   22.3200   34.8100 C   0  0  0  0  0  0  0  0  0  0  0  0
   39.0740   23.3970   33.8980 C   0  0  0  0  0  0  0  0  0  0  0  0
   37.2390   24.9850   32.9980 C   0  0  0  0  0  0  0  0  0  0  0  0
   36.6090   24.2130   32.0010 C   0  0  0  0  0  0  0  0  0  0  0  0
   35.8580   24.8610   31.0350 C   0  0  0  0  0  0  0  0  0  0  0  0
   35.7650   26.2340   31.0930 N   0  0  0  0  0  0  0  0  0  0  0  0
   36.3880   26.9340   32.0660 C   0  0  0  0  0  0  0  0  0  0  0  0
   37.1200   26.3190   33.0130 N   0  0  0  0  0  0  0  0  0  0  0  0
   39.2260   23.2140   36.9520 N   0  0  0  0  0  0  0  0  0  0  0  0
   38.8640   23.3320   38.3410 C   0  0  0  0  0  0  0  0  0  0  0  0
   37.6760   23.1180   38.6750 O   0  0  0  0  0  0  0  0  0  0  0  0
   38.8423   25.2366   35.7730 H   0  0  0  0  0  0  0  0  0  0  0  0
   37.0995   25.1335   35.8043 H   0  0  0  0  0  0  0  0  0  0  0  0
   37.2181   22.8033   36.4782 H   0  0  0  0  0  0  0  0  0  0  0  0
   39.2434   21.5565   35.0716 H   0  0  0  0  0  0  0  0  0  0  0  0
   37.6717   21.7306   34.3821 H   0  0  0  0  0  0  0  0  0  0  0  0
   39.1896   23.0414   32.8635 H   0  0  0  0  0  0  0  0  0  0  0  0
   40.0834   23.7453   34.1624 H   0  0  0  0  0  0  0  0  0  0  0  0
   36.7119   23.1179   31.9906 H   0  0  0  0  0  0  0  0  0  0  0  0
   35.3488   24.2940   30.2418 H   0  0  0  0  0  0  0  0  0  0  0  0
   36.2950   28.0299   32.0846 H   0  0  0  0  0  0  0  0  0  0  0  0
   40.2094   23.1540   36.6516 H   0  0  0  0  0  0  0  0  0  0  0  0
   39.6172   23.6051   39.0948 H   0  0  0  0  0  0  0  0  0  0  0  0
  1  2  1  0
  2  3  1  0
  3 12  1  0
  4  3  1  0
  5  1  1  0
  5  4  1  0
  6 11  1  0
  6  1  1  0
  7  6  2  0
  8  9  2  0
  8  7  1  0
  9 10  1  0
 10 11  2  0
 12 13  1  0
 13 14  2  0
  2 15  1  0
  2 16  1  0
  3 17  1  1
  4 18  1  0
  4 19  1  0
  5 20  1  0
  5 21  1  0
  7 22  1  0
  8 23  1  0
 10 24  1  0
 12 25  1  0
 13 26  1  0
M  ISO  8  15  13  16  13  17  13  18  13  19  13  20  13  21  13  22  14
M  ISO  3  23  14  24  14  26   6
M  END
>  <minimizedAffinity>  (1) 
-3.68281603

>  <minimizedRMSD>  (1) 
3.05524635

$$$$
