
     RDKit          3D

 55 59  0  0  1  0  0  0  0  0999 V2000
   38.8700   24.5020   34.7200 C   0  0  1  0  0  0  0  0  0  0  0  0
   38.2230   24.7990   36.0380 C   0  0  0  0  0  0  0  0  0  0  0  0
   38.2820   23.6840   37.0360 C   0  0  0  0  0  0  0  0  0  0  0  0
   39.5260   22.8960   37.0490 C   0  0  0  0  0  0  0  0  0  0  0  0
   39.8750   22.4340   35.6450 C   0  0  0  0  0  0  0  0  0  0  0  0
   40.0760   23.6500   34.7870 C   0  0  1  0  0  0  0  0  0  0  0  0
   41.2220   23.8100   33.9490 C   0  0  0  0  0  0  0  0  0  0  0  0
   41.2230   23.5740   32.5990 N   0  0  0  0  0  0  0  0  0  0  0  0
   42.2620   23.7940   31.7830 C   0  0  0  0  0  0  0  0  0  0  0  0
   43.4460   24.2800   32.2010 N   0  0  0  0  0  0  0  0  0  0  0  0
   43.5280   24.5380   33.5250 C   0  0  0  0  0  0  0  0  0  0  0  0
   44.7480   25.0450   33.9260 C   0  0  0  0  0  0  0  0  0  0  0  0
   44.9340   25.3470   35.2580 C   0  0  0  0  0  0  0  0  0  0  0  0
   43.8670   25.1210   36.1380 C   0  0  0  0  0  0  0  0  0  0  0  0
   42.7070   24.6240   35.6600 C   0  0  0  0  0  0  0  0  0  0  0  0
   42.4470   24.3030   34.3480 C   0  0  0  0  0  0  0  0  0  0  0  0
   37.8780   24.1060   33.6450 C   0  0  0  0  0  0  0  0  0  0  0  0
   36.4920   27.3540   32.4290 N   0  0  0  0  0  0  0  0  0  0  0  0
   36.8050   26.3770   33.2680 C   0  0  0  0  0  0  0  0  0  0  0  0
   37.4790   25.2630   32.8180 C   0  0  0  0  0  0  0  0  0  0  0  0
   37.8210   25.2020   31.4610 C   0  0  0  0  0  0  0  0  0  0  0  0
   38.4340   24.2500   30.9230 O   0  0  0  0  0  0  0  0  0  0  0  0
   37.4910   26.2190   30.6160 N   0  0  0  0  0  0  0  0  0  0  0  0
   36.8340   27.2700   31.1250 C   0  0  0  0  0  0  0  0  0  0  0  0
   36.5270   28.2080   30.3510 O   0  0  0  0  0  0  0  0  0  0  0  0
   36.2940   29.0000   34.1850 C   0  0  0  0  0  0  0  0  0  0  0  0
   35.8050   28.4380   33.0010 C   0  0  0  0  0  0  0  0  0  0  0  0
   34.6660   28.9950   32.4850 C   0  0  0  0  0  0  0  0  0  0  0  0
   34.0560   30.0500   33.1150 N   0  0  0  0  0  0  0  0  0  0  0  0
   34.5660   30.5600   34.2570 C   0  0  0  0  0  0  0  0  0  0  0  0
   35.6810   30.0240   34.7750 N   0  0  0  0  0  0  0  0  0  0  0  0
   33.7710   31.6440   34.7220 N   0  0  0  0  0  0  0  0  0  0  0  0
   39.2794   25.4694   34.3935 H   0  0  0  0  0  0  0  0  0  0  0  0
   38.7244   25.6752   36.4748 H   0  0  0  0  0  0  0  0  0  0  0  0
   37.1567   24.9672   35.8267 H   0  0  0  0  0  0  0  0  0  0  0  0
   38.1494   24.1205   38.0369 H   0  0  0  0  0  0  0  0  0  0  0  0
   37.4881   22.9811   36.7434 H   0  0  0  0  0  0  0  0  0  0  0  0
   40.3448   23.5178   37.4399 H   0  0  0  0  0  0  0  0  0  0  0  0
   39.3825   22.0134   37.6896 H   0  0  0  0  0  0  0  0  0  0  0  0
   40.7991   21.8378   35.6682 H   0  0  0  0  0  0  0  0  0  0  0  0
   39.0648   21.8114   35.2376 H   0  0  0  0  0  0  0  0  0  0  0  0
   40.8861   24.3158   35.1192 H   0  0  0  0  0  0  0  0  0  0  0  0
   42.1415   23.5653   30.7138 H   0  0  0  0  0  0  0  0  0  0  0  0
   45.5558   25.2048   33.1967 H   0  0  0  0  0  0  0  0  0  0  0  0
   45.8905   25.7529   35.6191 H   0  0  0  0  0  0  0  0  0  0  0  0
   43.9741   25.3468   37.2092 H   0  0  0  0  0  0  0  0  0  0  0  0
   41.8961   24.4608   36.3851 H   0  0  0  0  0  0  0  0  0  0  0  0
   38.3390   23.3463   32.9967 H   0  0  0  0  0  0  0  0  0  0  0  0
   36.9780   23.7095   34.1377 H   0  0  0  0  0  0  0  0  0  0  0  0
   36.5252   26.4560   34.3289 H   0  0  0  0  0  0  0  0  0  0  0  0
   37.7390   26.1809   29.6170 H   0  0  0  0  0  0  0  0  0  0  0  0
   37.2064   28.5862   34.6392 H   0  0  0  0  0  0  0  0  0  0  0  0
   34.2356   28.5927   31.5561 H   0  0  0  0  0  0  0  0  0  0  0  0
   34.0313   32.1399   35.5864 H   0  0  0  0  0  0  0  0  0  0  0  0
   32.9350   31.9330   34.1943 H   0  0  0  0  0  0  0  0  0  0  0  0
  1  6  1  0
  1  2  1  0
  2  3  1  0
  3  4  1  0
  5  4  1  0
  6  5  1  0
  7 16  1  0
  7  6  1  0
  8  7  2  0
  9 10  2  0
  9  8  1  0
 10 11  1  0
 11 12  1  0
 11 16  2  0
 12 13  2  0
 13 14  1  0
 15 14  2  0
 16 15  1  0
 17  1  1  0
 18 27  1  0
 18 19  1  0
 20 19  2  0
 20 17  1  0
 21 20  1  0
 22 21  2  0
 23 24  1  0
 23 21  1  0
 24 18  1  0
 25 24  2  0
 26 31  2  0
 27 26  1  0
 28 27  2  0
 28 29  1  0
 29 30  2  0
 30 32  1  0
 30 31  1  0
  1 33  1  6
  2 34  1  0
  2 35  1  0
  3 36  1  0
  3 37  1  0
  4 38  1  0
  4 39  1  0
  5 40  1  0
  5 41  1  0
  6 42  1  1
  9 43  1  0
 12 44  1  0
 13 45  1  0
 14 46  1  0
 15 47  1  0
 17 48  1  0
 17 49  1  0
 19 50  1  0
 23 51  1  0
 26 52  1  0
 28 53  1  0
 32 54  1  0
 32 55  1  0
M  ISO  8  33  13  34  13  35  13  36  13  37  13  38  13  39  13  40  13
M  ISO  8  41  13  42  13  43  14  44  14  45  14  46  14  47  14  48   8
M  ISO  5  49   8  50  14  51   9  52  14  53  14
M  END
>  <minimizedAffinity>  (1) 
-5.58509254

>  <minimizedRMSD>  (1) 
5.44167948

$$$$
