
     RDKit          3D

 40 42  0  0  1  0  0  0  0  0999 V2000
   38.1460   24.1810   34.7780 N   0  0  0  0  0  0  0  0  0  0  0  0
   37.8480   25.5200   34.2150 C   0  0  0  0  0  0  0  0  0  0  0  0
   38.5390   25.4140   32.8890 C   0  0  1  0  0  0  0  0  0  0  0  0
   39.0170   23.9770   32.7200 C   0  0  0  0  0  0  0  0  0  0  0  0
   38.0170   23.3070   33.6220 C   0  0  0  0  0  0  0  0  0  0  0  0
   38.4690   23.8750   36.1190 C   0  0  0  0  0  0  0  0  0  0  0  0
   39.5460   23.0540   36.4750 C   0  0  0  0  0  0  0  0  0  0  0  0
   39.7810   22.8130   37.8120 C   0  0  0  0  0  0  0  0  0  0  0  0
   38.9360   23.3980   38.7520 N   0  0  0  0  0  0  0  0  0  0  0  0
   37.9020   24.1870   38.3690 C   0  0  0  0  0  0  0  0  0  0  0  0
   37.6680   24.4270   37.0670 N   0  0  0  0  0  0  0  0  0  0  0  0
   37.6510   25.7880   31.8330 N   0  0  0  0  0  0  0  0  0  0  0  0
   36.7650   26.8040   32.3400 C   0  0  0  0  0  0  0  0  0  0  0  0
   37.0050   28.1030   31.7470 N   0  0  0  0  0  0  0  0  0  0  0  0
   36.6570   28.1450   30.3530 C   0  0  0  0  0  0  0  0  0  0  0  0
   37.0230   29.5290   29.8610 C   0  0  0  0  0  0  0  0  0  0  0  0
   36.0800   30.4150   30.3750 O   0  0  0  0  0  0  0  0  0  0  0  0
   35.3730   29.9070   31.4370 C   0  0  0  0  0  0  0  0  0  0  0  0
   36.2070   29.1010   32.4120 C   0  0  0  0  0  0  0  0  0  0  0  0
   36.7661   25.6806   34.0982 H   0  0  0  0  0  0  0  0  0  0  0  0
   38.1762   26.3647   34.8386 H   0  0  0  0  0  0  0  0  0  0  0  0
   39.3996   26.0979   32.8498 H   0  0  0  0  0  0  0  0  0  0  0  0
   38.9341   23.6315   31.6790 H   0  0  0  0  0  0  0  0  0  0  0  0
   40.0753   23.7927   32.9568 H   0  0  0  0  0  0  0  0  0  0  0  0
   37.0013   23.3256   33.2002 H   0  0  0  0  0  0  0  0  0  0  0  0
   38.1880   22.2371   33.8118 H   0  0  0  0  0  0  0  0  0  0  0  0
   40.1919   22.6101   35.7031 H   0  0  0  0  0  0  0  0  0  0  0  0
   40.6174   22.1728   38.1293 H   0  0  0  0  0  0  0  0  0  0  0  0
   37.2479   24.6353   39.1313 H   0  0  0  0  0  0  0  0  0  0  0  0
   37.1062   24.9692   31.5272 H   0  0  0  0  0  0  0  0  0  0  0  0
   35.7283   26.5055   32.1253 H   0  0  0  0  0  0  0  0  0  0  0  0
   36.9476   26.8940   33.4210 H   0  0  0  0  0  0  0  0  0  0  0  0
   37.2218   27.3822   29.7970 H   0  0  0  0  0  0  0  0  0  0  0  0
   35.5868   27.9394   30.2035 H   0  0  0  0  0  0  0  0  0  0  0  0
   38.0278   29.8011   30.2163 H   0  0  0  0  0  0  0  0  0  0  0  0
   37.0291   29.5620   28.7615 H   0  0  0  0  0  0  0  0  0  0  0  0
   34.9204   30.7476   31.9834 H   0  0  0  0  0  0  0  0  0  0  0  0
   34.6251   29.2182   31.0173 H   0  0  0  0  0  0  0  0  0  0  0  0
   35.5347   28.6006   33.1245 H   0  0  0  0  0  0  0  0  0  0  0  0
   36.8900   29.7932   32.9262 H   0  0  0  0  0  0  0  0  0  0  0  0
  1  6  1  0
  2  1  1  0
  3  2  1  0
  4  3  1  0
  4  5  1  0
  5  1  1  0
  6  7  2  0
  6 11  1  0
  7  8  1  0
  8  9  2  0
 10  9  1  0
 11 10  2  0
 12 13  1  0
 12  3  1  0
 14 13  1  0
 14 19  1  0
 15 14  1  0
 16 15  1  0
 16 17  1  0
 17 18  1  0
 18 19  1  0
  2 20  1  0
  2 21  1  0
  3 22  1  1
  4 23  1  0
  4 24  1  0
  5 25  1  0
  5 26  1  0
  7 27  1  0
  8 28  1  0
 10 29  1  0
 12 30  1  0
 13 31  1  0
 13 32  1  0
 15 33  1  0
 15 34  1  0
 16 35  1  0
 16 36  1  0
 18 37  1  0
 18 38  1  0
 19 39  1  0
 19 40  1  0
M  ISO  8  20  13  21  13  22  13  23  13  24  13  25  13  26  13  27  14
M  ISO  8  28  14  29  14  30   5  31   8  32   8  33  13  34  13  35  13
M  ISO  5  36  13  37  13  38  13  39  13  40  13
M  END
>  <minimizedAffinity>  (1) 
-4.29034042

>  <minimizedRMSD>  (1) 
5.0413909

$$$$
