
     RDKit          3D

 32 34  0  0  1  0  0  0  0  0999 V2000
   38.4660   22.8890   34.5730 N   0  0  0  0  0  0  0  0  0  0  0  0
   37.7240   21.8090   33.8740 C   0  0  0  0  0  0  0  0  0  0  0  0
   37.0330   22.6060   32.8110 C   0  0  1  0  0  0  0  0  0  0  0  0
   37.5740   24.0290   32.8580 C   0  0  0  0  0  0  0  0  0  0  0  0
   38.9120   23.7360   33.4830 C   0  0  0  0  0  0  0  0  0  0  0  0
   38.6680   23.0200   35.9590 C   0  0  0  0  0  0  0  0  0  0  0  0
   39.8560   22.6350   36.5940 C   0  0  0  0  0  0  0  0  0  0  0  0
   39.9810   22.7950   37.9590 C   0  0  0  0  0  0  0  0  0  0  0  0
   38.9130   23.3370   38.6540 N   0  0  0  0  0  0  0  0  0  0  0  0
   37.7560   23.7080   38.0090 C   0  0  0  0  0  0  0  0  0  0  0  0
   37.6530   23.5440   36.6810 N   0  0  0  0  0  0  0  0  0  0  0  0
   37.3180   22.0080   31.5290 N   0  0  0  0  0  0  0  0  0  0  0  0
   36.1560   21.3130   31.0930 C   0  0  0  0  0  0  0  0  0  0  0  0
   36.0130   19.9270   31.6160 C   0  0  0  0  0  0  0  0  0  0  0  0
   36.9330   18.9480   31.7070 N   0  0  0  0  0  0  0  0  0  0  0  0
   36.4230   17.8750   32.2260 O   0  0  0  0  0  0  0  0  0  0  0  0
   35.1800   18.1220   32.4820 C   0  0  0  0  0  0  0  0  0  0  0  0
   34.8810   19.3760   32.1220 N   0  0  0  0  0  0  0  0  0  0  0  0
   38.4048   21.0599   33.4435 H   0  0  0  0  0  0  0  0  0  0  0  0
   37.0540   21.2193   34.5169 H   0  0  0  0  0  0  0  0  0  0  0  0
   35.9446   22.6192   32.9695 H   0  0  0  0  0  0  0  0  0  0  0  0
   37.6722   24.4688   31.8545 H   0  0  0  0  0  0  0  0  0  0  0  0
   36.9481   24.7617   33.3886 H   0  0  0  0  0  0  0  0  0  0  0  0
   39.5828   23.2031   32.7931 H   0  0  0  0  0  0  0  0  0  0  0  0
   39.5028   24.6164   33.7762 H   0  0  0  0  0  0  0  0  0  0  0  0
   40.6836   22.2080   36.0085 H   0  0  0  0  0  0  0  0  0  0  0  0
   40.9035   22.5001   38.4805 H   0  0  0  0  0  0  0  0  0  0  0  0
   36.9189   24.1372   38.5792 H   0  0  0  0  0  0  0  0  0  0  0  0
   37.5609   22.7420   30.8484 H   0  0  0  0  0  0  0  0  0  0  0  0
   35.2750   21.8895   31.4116 H   0  0  0  0  0  0  0  0  0  0  0  0
   36.2483   21.2191   30.0009 H   0  0  0  0  0  0  0  0  0  0  0  0
   34.4731   17.4076   32.9293 H   0  0  0  0  0  0  0  0  0  0  0  0
  1  6  1  0
  2  1  1  0
  3  4  1  0
  3  2  1  0
  4  5  1  0
  5  1  1  0
  6  7  2  0
  6 11  1  0
  7  8  1  0
  8  9  2  0
 10  9  1  0
 11 10  2  0
 12  3  1  0
 13 12  1  0
 13 14  1  0
 14 15  2  0
 14 18  1  0
 15 16  1  0
 16 17  1  0
 18 17  2  0
  2 19  1  0
  2 20  1  0
  3 21  1  1
  4 22  1  0
  4 23  1  0
  5 24  1  0
  5 25  1  0
  7 26  1  0
  8 27  1  0
 10 28  1  0
 12 29  1  0
 13 30  1  0
 13 31  1  0
 17 32  1  0
M  ISO  8  19  13  20  13  21  13  22  13  23  13  24  13  25  13  26  14
M  ISO  6  27  14  28  14  29   5  30   8  31   8  32  14
M  END
>  <minimizedAffinity>  (1) 
-4.22488976

>  <minimizedRMSD>  (1) 
6.8835187

$$$$
