
     RDKit          3D

 39 41  0  0  1  0  0  0  0  0999 V2000
   37.9680   22.2860   34.4600 N   0  0  0  0  0  0  0  0  0  0  0  0
   38.0370   23.7350   34.1460 C   0  0  0  0  0  0  0  0  0  0  0  0
   37.9760   24.3110   35.5250 C   0  0  1  0  0  0  0  0  0  0  0  0
   38.0430   23.1670   36.5230 C   0  0  0  0  0  0  0  0  0  0  0  0
   38.7790   22.1780   35.6580 C   0  0  0  0  0  0  0  0  0  0  0  0
   37.2690   21.2980   33.7320 C   0  0  0  0  0  0  0  0  0  0  0  0
   35.9980   20.8360   34.0910 C   0  0  0  0  0  0  0  0  0  0  0  0
   35.4040   19.8650   33.3070 C   0  0  0  0  0  0  0  0  0  0  0  0
   36.0870   19.3840   32.1990 N   0  0  0  0  0  0  0  0  0  0  0  0
   37.3240   19.8610   31.8840 C   0  0  0  0  0  0  0  0  0  0  0  0
   37.9050   20.8020   32.6380 N   0  0  0  0  0  0  0  0  0  0  0  0
   39.0800   25.2140   35.7020 N   0  0  0  0  0  0  0  0  0  0  0  0
   39.3810   25.7520   34.4060 C   0  0  0  0  0  0  0  0  0  0  0  0
   38.8560   27.0900   34.2110 N   0  0  0  0  0  0  0  0  0  0  0  0
   37.9970   27.4970   35.3010 C   0  0  0  0  0  0  0  0  0  0  0  0
   36.7140   28.0060   34.7510 C   0  0  0  0  0  0  0  0  0  0  0  0
   36.9280   28.1030   33.2770 C   0  0  0  0  0  0  0  0  0  0  0  0
   38.0340   27.1310   33.0120 C   0  0  0  0  0  0  0  0  0  0  0  0
   38.9763   23.9967   33.6369 H   0  0  0  0  0  0  0  0  0  0  0  0
   37.2548   24.0954   33.4617 H   0  0  0  0  0  0  0  0  0  0  0  0
   37.0412   24.8695   35.6807 H   0  0  0  0  0  0  0  0  0  0  0  0
   38.6111   23.4345   37.4261 H   0  0  0  0  0  0  0  0  0  0  0  0
   37.0807   22.8273   36.9336 H   0  0  0  0  0  0  0  0  0  0  0  0
   38.7583   21.1629   36.0812 H   0  0  0  0  0  0  0  0  0  0  0  0
   39.8536   22.3711   35.5237 H   0  0  0  0  0  0  0  0  0  0  0  0
   35.4833   21.2364   34.9769 H   0  0  0  0  0  0  0  0  0  0  0  0
   34.4048   19.4793   33.5576 H   0  0  0  0  0  0  0  0  0  0  0  0
   37.8503   19.4688   31.0013 H   0  0  0  0  0  0  0  0  0  0  0  0
   38.8194   25.9714   36.3495 H   0  0  0  0  0  0  0  0  0  0  0  0
   40.4739   25.7833   34.2848 H   0  0  0  0  0  0  0  0  0  0  0  0
   38.9033   25.0996   33.6603 H   0  0  0  0  0  0  0  0  0  0  0  0
   37.8001   26.6350   35.9553 H   0  0  0  0  0  0  0  0  0  0  0  0
   38.4896   28.2906   35.8820 H   0  0  0  0  0  0  0  0  0  0  0  0
   35.8943   27.3078   34.9762 H   0  0  0  0  0  0  0  0  0  0  0  0
   36.4358   28.9757   35.1896 H   0  0  0  0  0  0  0  0  0  0  0  0
   36.0173   27.8191   32.7293 H   0  0  0  0  0  0  0  0  0  0  0  0
   37.1716   29.1243   32.9489 H   0  0  0  0  0  0  0  0  0  0  0  0
   37.6194   26.1338   32.8032 H   0  0  0  0  0  0  0  0  0  0  0  0
   38.6272   27.4379   32.1380 H   0  0  0  0  0  0  0  0  0  0  0  0
  1  5  1  0
  2  1  1  0
  2  3  1  0
  3 12  1  0
  3  4  1  0
  5  4  1  0
  6  7  2  0
  6  1  1  0
  8  7  1  0
  9  8  2  0
 10  9  1  0
 10 11  2  0
 11  6  1  0
 13 12  1  0
 14 13  1  0
 14 15  1  0
 16 15  1  0
 17 16  1  0
 18 17  1  0
 18 14  1  0
  2 19  1  0
  2 20  1  0
  3 21  1  6
  4 22  1  0
  4 23  1  0
  5 24  1  0
  5 25  1  0
  7 26  1  0
  8 27  1  0
 10 28  1  0
 12 29  1  0
 13 30  1  0
 13 31  1  0
 15 32  1  0
 15 33  1  0
 16 34  1  0
 16 35  1  0
 17 36  1  0
 17 37  1  0
 18 38  1  0
 18 39  1  0
M  ISO  8  19  13  20  13  21  13  22  13  23  13  24  13  25  13  26  14
M  ISO  8  27  14  28  14  29   5  30   8  31   8  32  13  33  13  34  13
M  ISO  5  35  13  36  13  37  13  38  13  39  13
M  END
>  <minimizedAffinity>  (1) 
-3.94739127

>  <minimizedRMSD>  (1) 
2.61452055

$$$$
