
     RDKit          3D

 41 43  0  0  1  0  0  0  0  0999 V2000
   38.4580   23.2640   34.4690 N   0  0  0  0  0  0  0  0  0  0  0  0
   38.2550   24.7420   34.5340 C   0  0  0  0  0  0  0  0  0  0  0  0
   39.4860   25.1330   35.2890 C   0  0  1  0  0  0  0  0  0  0  0  0
   40.3710   23.9020   35.4440 C   0  0  0  0  0  0  0  0  0  0  0  0
   39.8860   23.1380   34.2440 C   0  0  0  0  0  0  0  0  0  0  0  0
   37.4480   22.2830   34.5910 C   0  0  0  0  0  0  0  0  0  0  0  0
   36.9690   21.8180   35.8200 C   0  0  0  0  0  0  0  0  0  0  0  0
   35.9760   20.8530   35.8250 C   0  0  0  0  0  0  0  0  0  0  0  0
   35.5010   20.3880   34.6010 N   0  0  0  0  0  0  0  0  0  0  0  0
   35.9890   20.8630   33.4290 C   0  0  0  0  0  0  0  0  0  0  0  0
   36.9510   21.7980   33.4220 N   0  0  0  0  0  0  0  0  0  0  0  0
   40.1860   26.1730   34.6150 N   0  0  0  0  0  0  0  0  0  0  0  0
   39.2320   27.0110   33.9730 C   0  0  0  0  0  0  0  0  0  0  0  0
   38.9600   26.8760   32.6110 N   0  0  0  0  0  0  0  0  0  0  0  0
   37.7860   27.6410   32.2520 C   0  0  0  0  0  0  0  0  0  0  0  0
   37.1400   26.8630   31.1080 C   0  0  0  0  0  0  0  0  0  0  0  0
   38.1940   26.4470   30.2270 N   0  0  0  0  0  0  0  0  0  0  0  0
   39.3780   27.2840   30.3150 C   0  0  0  0  0  0  0  0  0  0  0  0
   40.0030   27.2330   31.6960 C   0  0  0  0  0  0  0  0  0  0  0  0
   38.2275   25.1959   33.5324 H   0  0  0  0  0  0  0  0  0  0  0  0
   37.3069   25.0626   34.9903 H   0  0  0  0  0  0  0  0  0  0  0  0
   39.2035   25.5159   36.2807 H   0  0  0  0  0  0  0  0  0  0  0  0
   41.4410   24.1477   35.3761 H   0  0  0  0  0  0  0  0  0  0  0  0
   40.3014   23.3777   36.4085 H   0  0  0  0  0  0  0  0  0  0  0  0
   40.2167   22.0890   34.2595 H   0  0  0  0  0  0  0  0  0  0  0  0
   40.2490   23.4987   33.2703 H   0  0  0  0  0  0  0  0  0  0  0  0
   37.3733   22.2113   36.7644 H   0  0  0  0  0  0  0  0  0  0  0  0
   35.5726   20.4636   36.7714 H   0  0  0  0  0  0  0  0  0  0  0  0
   35.5935   20.4791   32.4770 H   0  0  0  0  0  0  0  0  0  0  0  0
   40.7312   26.7228   35.2942 H   0  0  0  0  0  0  0  0  0  0  0  0
   38.2780   26.8596   34.4992 H   0  0  0  0  0  0  0  0  0  0  0  0
   39.7040   28.0030   34.0289 H   0  0  0  0  0  0  0  0  0  0  0  0
   37.0970   27.7151   33.1063 H   0  0  0  0  0  0  0  0  0  0  0  0
   38.0383   28.6710   31.9597 H   0  0  0  0  0  0  0  0  0  0  0  0
   36.6101   25.9836   31.5027 H   0  0  0  0  0  0  0  0  0  0  0  0
   36.4101   27.4893   30.5741 H   0  0  0  0  0  0  0  0  0  0  0  0
   37.8428   26.4776   29.2592 H   0  0  0  0  0  0  0  0  0  0  0  0
   40.1158   26.9356   29.5773 H   0  0  0  0  0  0  0  0  0  0  0  0
   39.0777   28.3230   30.1140 H   0  0  0  0  0  0  0  0  0  0  0  0
   40.8033   26.4788   31.7215 H   0  0  0  0  0  0  0  0  0  0  0  0
   40.4471   28.2031   31.9637 H   0  0  0  0  0  0  0  0  0  0  0  0
  1  2  1  0
  1  6  1  0
  2  3  1  0
  3  4  1  0
  5  1  1  0
  5  4  1  0
  6  7  2  0
  7  8  1  0
  9  8  2  0
 10  9  1  0
 11 10  2  0
 11  6  1  0
 12  3  1  0
 13 12  1  0
 14 13  1  0
 15 14  1  0
 16 15  1  0
 17 18  1  0
 17 16  1  0
 18 19  1  0
 19 14  1  0
  2 20  1  0
  2 21  1  0
  3 22  1  1
  4 23  1  0
  4 24  1  0
  5 25  1  0
  5 26  1  0
  7 27  1  0
  8 28  1  0
 10 29  1  0
 12 30  1  0
 13 31  1  0
 13 32  1  0
 15 33  1  0
 15 34  1  0
 16 35  1  0
 16 36  1  0
 17 37  1  0
 18 38  1  0
 18 39  1  0
 19 40  1  0
 19 41  1  0
M  ISO  8  20  13  21  13  22  13  23  13  24  13  25  13  26  13  27  14
M  ISO  8  28  14  29  14  30   5  31   8  32   8  33  13  34  13  35  13
M  ISO  6  36  13  37   5  38  13  39  13  40  13  41  13
M  END
>  <minimizedAffinity>  (1) 
-3.72704959

>  <minimizedRMSD>  (1) 
1.28041768

$$$$
