
     RDKit          3D

 34 36  0  0  1  0  0  0  0  0999 V2000
   38.0290   22.4150   34.1130 N   0  0  0  0  0  0  0  0  0  0  0  0
   38.0040   23.8490   33.6960 C   0  0  0  0  0  0  0  0  0  0  0  0
   37.9700   24.5210   35.0300 C   0  0  1  0  0  0  0  0  0  0  0  0
   38.1160   23.4470   36.1030 C   0  0  0  0  0  0  0  0  0  0  0  0
   38.8770   22.4200   35.2870 C   0  0  0  0  0  0  0  0  0  0  0  0
   37.3690   21.3390   33.4850 C   0  0  0  0  0  0  0  0  0  0  0  0
   36.0710   20.9190   33.8800 C   0  0  0  0  0  0  0  0  0  0  0  0
   35.4730   19.8630   33.2360 C   0  0  0  0  0  0  0  0  0  0  0  0
   36.1790   19.2440   32.2070 N   0  0  0  0  0  0  0  0  0  0  0  0
   37.4280   19.6730   31.8510 C   0  0  0  0  0  0  0  0  0  0  0  0
   38.0040   20.7090   32.4900 N   0  0  0  0  0  0  0  0  0  0  0  0
   39.0200   25.4740   35.1270 N   0  0  0  0  0  0  0  0  0  0  0  0
   38.9490   26.3790   34.0300 C   0  0  0  0  0  0  0  0  0  0  0  0
   37.7920   27.2140   33.9460 N   0  0  0  0  0  0  0  0  0  0  0  0
   37.0140   27.9500   34.7600 C   0  0  0  0  0  0  0  0  0  0  0  0
   35.9920   28.6090   34.1480 C   0  0  0  0  0  0  0  0  0  0  0  0
   36.0840   28.3010   32.8460 N   0  0  0  0  0  0  0  0  0  0  0  0
   37.1460   27.4830   32.7590 C   0  0  0  0  0  0  0  0  0  0  0  0
   38.9048   24.1220   33.1268 H   0  0  0  0  0  0  0  0  0  0  0  0
   37.1730   24.1170   33.0269 H   0  0  0  0  0  0  0  0  0  0  0  0
   37.0190   25.0573   35.1643 H   0  0  0  0  0  0  0  0  0  0  0  0
   38.6952   23.8012   36.9685 H   0  0  0  0  0  0  0  0  0  0  0  0
   37.1789   23.0964   36.5600 H   0  0  0  0  0  0  0  0  0  0  0  0
   38.9084   21.4376   35.7809 H   0  0  0  0  0  0  0  0  0  0  0  0
   39.9401   22.6402   35.1099 H   0  0  0  0  0  0  0  0  0  0  0  0
   35.5473   21.4365   34.6973 H   0  0  0  0  0  0  0  0  0  0  0  0
   34.4691   19.5174   33.5237 H   0  0  0  0  0  0  0  0  0  0  0  0
   37.9665   19.1675   31.0359 H   0  0  0  0  0  0  0  0  0  0  0  0
   38.9271   25.9973   36.0093 H   0  0  0  0  0  0  0  0  0  0  0  0
   39.8286   27.0371   34.0864 H   0  0  0  0  0  0  0  0  0  0  0  0
   38.9021   25.7387   33.1368 H   0  0  0  0  0  0  0  0  0  0  0  0
   37.1911   28.0148   35.8437 H   0  0  0  0  0  0  0  0  0  0  0  0
   35.2442   29.2604   34.6238 H   0  0  0  0  0  0  0  0  0  0  0  0
   37.4786   27.0554   31.8016 H   0  0  0  0  0  0  0  0  0  0  0  0
  1  5  1  0
  2  1  1  0
  2  3  1  0
  3 12  1  0
  3  4  1  0
  5  4  1  0
  6  7  2  0
  6  1  1  0
  8  7  1  0
  9  8  2  0
 10  9  1  0
 10 11  2  0
 11  6  1  0
 13 12  1  0
 14 13  1  0
 14 15  1  0
 16 15  2  0
 17 16  1  0
 18 17  2  0
 18 14  1  0
  2 19  1  0
  2 20  1  0
  3 21  1  1
  4 22  1  0
  4 23  1  0
  5 24  1  0
  5 25  1  0
  7 26  1  0
  8 27  1  0
 10 28  1  0
 12 29  1  0
 13 30  1  0
 13 31  1  0
 15 32  1  0
 16 33  1  0
 18 34  1  0
M  ISO  8  19  13  20  13  21  13  22  13  23  13  24  13  25  13  26  14
M  ISO  8  27  14  28  14  29   5  30   8  31   8  32  14  33  14  34  14
M  END
>  <minimizedAffinity>  (1) 
-3.66577268

>  <minimizedRMSD>  (1) 
2.9841032

$$$$
