
     RDKit          3D

 33 35  0  0  1  0  0  0  0  0999 V2000
   38.1840   23.9570   34.3680 N   0  0  0  0  0  0  0  0  0  0  0  0
   38.5920   23.3980   33.0680 C   0  0  0  0  0  0  0  0  0  0  0  0
   39.5600   22.3100   33.5150 C   0  0  1  0  0  0  0  0  0  0  0  0
   39.3950   22.1710   35.0020 C   0  0  0  0  0  0  0  0  0  0  0  0
   38.0060   22.7470   35.1430 C   0  0  0  0  0  0  0  0  0  0  0  0
   38.0070   25.3060   34.7200 C   0  0  0  0  0  0  0  0  0  0  0  0
   38.6140   25.8970   35.8330 C   0  0  0  0  0  0  0  0  0  0  0  0
   38.3630   27.2480   36.0770 C   0  0  0  0  0  0  0  0  0  0  0  0
   37.5370   27.9350   35.2220 N   0  0  0  0  0  0  0  0  0  0  0  0
   36.9650   27.3160   34.1460 C   0  0  0  0  0  0  0  0  0  0  0  0
   37.1930   26.0280   33.8970 N   0  0  0  0  0  0  0  0  0  0  0  0
   39.1370   21.0860   32.8410 N   0  0  0  0  0  0  0  0  0  0  0  0
   39.0990   21.3870   31.4410 C   0  0  0  0  0  0  0  0  0  0  0  0
   38.1190   20.4760   30.7280 C   0  0  0  0  0  0  0  0  0  0  0  0
   38.3140   19.8570   29.4720 C   0  0  0  0  0  0  0  0  0  0  0  0
   36.7390   18.9270   29.2690 S   0  0  0  0  0  0  0  0  0  0  0  0
   36.0950   19.5520   30.9390 C   0  0  0  0  0  0  0  0  0  0  0  0
   36.9730   20.2350   31.3370 N   0  0  0  0  0  0  0  0  0  0  0  0
   39.0918   24.1521   32.4422 H   0  0  0  0  0  0  0  0  0  0  0  0
   37.7592   23.0385   32.4458 H   0  0  0  0  0  0  0  0  0  0  0  0
   40.6111   22.5301   33.2768 H   0  0  0  0  0  0  0  0  0  0  0  0
   39.4402   21.1205   35.3252 H   0  0  0  0  0  0  0  0  0  0  0  0
   40.1717   22.6570   35.6107 H   0  0  0  0  0  0  0  0  0  0  0  0
   37.7530   22.9621   36.1917 H   0  0  0  0  0  0  0  0  0  0  0  0
   37.1859   22.0912   34.8153 H   0  0  0  0  0  0  0  0  0  0  0  0
   39.2699   25.3141   36.4964 H   0  0  0  0  0  0  0  0  0  0  0  0
   38.8195   27.7543   36.9403 H   0  0  0  0  0  0  0  0  0  0  0  0
   36.3073   27.8898   33.4765 H   0  0  0  0  0  0  0  0  0  0  0  0
   39.8098   20.3279   33.0241 H   0  0  0  0  0  0  0  0  0  0  0  0
   38.7865   22.4327   31.3040 H   0  0  0  0  0  0  0  0  0  0  0  0
   40.1019   21.2320   31.0166 H   0  0  0  0  0  0  0  0  0  0  0  0
   39.1789   19.9158   28.7948 H   0  0  0  0  0  0  0  0  0  0  0  0
   35.1321   19.3311   31.4227 H   0  0  0  0  0  0  0  0  0  0  0  0
  1  6  1  0
  1  5  1  0
  2  3  1  0
  2  1  1  0
  3  4  1  0
  4  5  1  0
  6  7  2  0
  7  8  1  0
  9  8  2  0
 10  9  1  0
 11 10  2  0
 11  6  1  0
 12  3  1  0
 13 12  1  0
 14 18  1  0
 14 13  1  0
 15 14  2  0
 16 15  1  0
 16 17  1  0
 17 18  2  0
  2 19  1  0
  2 20  1  0
  3 21  1  1
  4 22  1  0
  4 23  1  0
  5 24  1  0
  5 25  1  0
  7 26  1  0
  8 27  1  0
 10 28  1  0
 12 29  1  0
 13 30  1  0
 13 31  1  0
 15 32  1  0
 17 33  1  0
M  ISO  8  19  13  20  13  21  13  22  13  23  13  24  13  25  13  26  14
M  ISO  7  27  14  28  14  29   5  30   8  31   8  32  14  33  14
M  END
>  <minimizedAffinity>  (1) 
-3.45444345

>  <minimizedRMSD>  (1) 
6.8016572

$$$$
