
     RDKit          3D

 41 44  0  0  1  0  0  0  0  0999 V2000
   40.2610   23.8070   34.9010 N   0  0  0  0  0  0  0  0  0  0  0  0
   41.1350   24.9280   34.4690 C   0  0  0  0  0  0  0  0  0  0  0  0
   42.2580   24.1620   33.8360 C   0  0  1  0  0  0  0  0  0  0  0  0
   41.8620   22.6900   33.7890 C   0  0  0  0  0  0  0  0  0  0  0  0
   40.3660   22.8610   33.7930 C   0  0  0  0  0  0  0  0  0  0  0  0
   39.5200   23.7130   36.0940 C   0  0  0  0  0  0  0  0  0  0  0  0
   40.0090   23.0600   37.2330 C   0  0  0  0  0  0  0  0  0  0  0  0
   39.2050   23.0110   38.3650 C   0  0  0  0  0  0  0  0  0  0  0  0
   37.9510   23.6150   38.3100 N   0  0  0  0  0  0  0  0  0  0  0  0
   37.5200   24.2370   37.1840 C   0  0  0  0  0  0  0  0  0  0  0  0
   38.2870   24.2890   36.0880 N   0  0  0  0  0  0  0  0  0  0  0  0
   42.5380   24.6450   32.5250 N   0  0  0  0  0  0  0  0  0  0  0  0
   41.9130   25.9420   32.3770 C   0  0  0  0  0  0  0  0  0  0  0  0
   43.0720   26.8490   31.9840 C   0  0  0  0  0  0  0  0  0  0  0  0
   43.2620   27.3250   30.7020 C   0  0  0  0  0  0  0  0  0  0  0  0
   44.3620   28.0900   30.6960 N   0  0  0  0  0  0  0  0  0  0  0  0
   44.8530   28.0930   31.9500 C   0  0  0  0  0  0  0  0  0  0  0  0
   45.9730   28.7330   32.4560 C   0  0  0  0  0  0  0  0  0  0  0  0
   46.2800   28.5870   33.7980 C   0  0  0  0  0  0  0  0  0  0  0  0
   45.4690   27.8050   34.6210 C   0  0  0  0  0  0  0  0  0  0  0  0
   44.3420   27.1540   34.1310 C   0  0  0  0  0  0  0  0  0  0  0  0
   44.0760   27.3270   32.8000 C   0  0  0  0  0  0  0  0  0  0  0  0
   40.6292   25.5826   33.7440 H   0  0  0  0  0  0  0  0  0  0  0  0
   41.4402   25.6115   35.2750 H   0  0  0  0  0  0  0  0  0  0  0  0
   43.1734   24.2921   34.4320 H   0  0  0  0  0  0  0  0  0  0  0  0
   42.2182   22.1366   34.6704 H   0  0  0  0  0  0  0  0  0  0  0  0
   42.2743   22.1110   32.9495 H   0  0  0  0  0  0  0  0  0  0  0  0
   39.9945   23.2855   32.8486 H   0  0  0  0  0  0  0  0  0  0  0  0
   39.7791   21.9364   33.8962 H   0  0  0  0  0  0  0  0  0  0  0  0
   41.0067   22.5967   37.2311 H   0  0  0  0  0  0  0  0  0  0  0  0
   39.5497   22.5084   39.2807 H   0  0  0  0  0  0  0  0  0  0  0  0
   36.5250   24.7058   37.1714 H   0  0  0  0  0  0  0  0  0  0  0  0
   43.5561   24.7319   32.3957 H   0  0  0  0  0  0  0  0  0  0  0  0
   41.1448   25.9214   31.5899 H   0  0  0  0  0  0  0  0  0  0  0  0
   41.3958   26.2762   33.2885 H   0  0  0  0  0  0  0  0  0  0  0  0
   42.6203   27.1126   29.8342 H   0  0  0  0  0  0  0  0  0  0  0  0
   44.7583   28.5838   29.8836 H   0  0  0  0  0  0  0  0  0  0  0  0
   46.6084   29.3476   31.8014 H   0  0  0  0  0  0  0  0  0  0  0  0
   47.1651   29.0886   34.2163 H   0  0  0  0  0  0  0  0  0  0  0  0
   45.7277   27.7007   35.6850 H   0  0  0  0  0  0  0  0  0  0  0  0
   43.7011   26.5354   34.7765 H   0  0  0  0  0  0  0  0  0  0  0  0
  1  6  1  0
  2  1  1  0
  3  2  1  0
  4  5  1  0
  4  3  1  0
  5  1  1  0
  6  7  2  0
  7  8  1  0
  9  8  2  0
 10  9  1  0
 11  6  1  0
 11 10  2  0
 12  3  1  0
 13 12  1  0
 14 13  1  0
 14 22  1  0
 15 14  2  0
 16 15  1  0
 16 17  1  0
 17 18  2  0
 17 22  1  0
 18 19  1  0
 19 20  2  0
 21 20  1  0
 22 21  2  0
  2 23  1  0
  2 24  1  0
  3 25  1  1
  4 26  1  0
  4 27  1  0
  5 28  1  0
  5 29  1  0
  7 30  1  0
  8 31  1  0
 10 32  1  0
 12 33  1  0
 13 34  1  0
 13 35  1  0
 15 36  1  0
 16 37  1  0
 18 38  1  0
 19 39  1  0
 20 40  1  0
 21 41  1  0
M  ISO  8  23  13  24  13  25  13  26  13  27  13  28  13  29  13  30  14
M  ISO  8  31  14  32  14  33   5  34   8  35   8  36  14  37   9  38  14
M  ISO  3  39  14  40  14  41  14
M  END
>  <minimizedAffinity>  (1) 
-3.40251231

>  <minimizedRMSD>  (1) 
3.27346253

$$$$
