
     RDKit          3D

 28 29  0  0  1  0  0  0  0  0999 V2000
   37.9750   22.4870   34.6060 N   0  0  0  0  0  0  0  0  0  0  0  0
   38.3470   23.8570   34.1740 C   0  0  0  0  0  0  0  0  0  0  0  0
   38.1090   24.6120   35.4420 C   0  0  1  0  0  0  0  0  0  0  0  0
   37.8230   23.6050   36.5510 C   0  0  0  0  0  0  0  0  0  0  0  0
   38.5210   22.4140   35.9620 C   0  0  0  0  0  0  0  0  0  0  0  0
   37.2660   21.5170   33.8580 C   0  0  0  0  0  0  0  0  0  0  0  0
   36.0510   20.9740   34.2900 C   0  0  0  0  0  0  0  0  0  0  0  0
   35.4350   20.0300   33.4800 C   0  0  0  0  0  0  0  0  0  0  0  0
   36.0520   19.6750   32.2900 N   0  0  0  0  0  0  0  0  0  0  0  0
   37.2300   20.2270   31.9110 C   0  0  0  0  0  0  0  0  0  0  0  0
   37.8350   21.1380   32.6830 N   0  0  0  0  0  0  0  0  0  0  0  0
   39.2400   25.4070   35.7770 N   0  0  0  0  0  0  0  0  0  0  0  0
   39.1530   26.6600   35.0850 C   0  0  0  0  0  0  0  0  0  0  0  0
   37.5200   27.4250   35.0870 S   0  0  0  0  0  0  0  0  0  0  0  0
   39.3995   23.9125   33.8589 H   0  0  0  0  0  0  0  0  0  0  0  0
   37.7889   24.2323   33.3035 H   0  0  0  0  0  0  0  0  0  0  0  0
   37.2521   25.2898   35.3141 H   0  0  0  0  0  0  0  0  0  0  0  0
   38.2646   23.9104   37.5111 H   0  0  0  0  0  0  0  0  0  0  0  0
   36.7614   23.4596   36.7996 H   0  0  0  0  0  0  0  0  0  0  0  0
   38.2437   21.4786   36.4701 H   0  0  0  0  0  0  0  0  0  0  0  0
   39.6186   22.4210   36.0346 H   0  0  0  0  0  0  0  0  0  0  0  0
   35.5977   21.2857   35.2426 H   0  0  0  0  0  0  0  0  0  0  0  0
   34.4787   19.5737   33.7755 H   0  0  0  0  0  0  0  0  0  0  0  0
   37.6933   19.9238   30.9605 H   0  0  0  0  0  0  0  0  0  0  0  0
   39.2554   25.5743   36.7932 H   0  0  0  0  0  0  0  0  0  0  0  0
   39.4493   26.4926   34.0390 H   0  0  0  0  0  0  0  0  0  0  0  0
   39.8160   27.3532   35.6233 H   0  0  0  0  0  0  0  0  0  0  0  0
   37.1078   27.6181   36.3792 H   0  0  0  0  0  0  0  0  0  0  0  0
  1  5  1  0
  2  1  1  0
  2  3  1  0
  3 12  1  0
  3  4  1  0
  5  4  1  0
  6  7  2  0
  6  1  1  0
  8  7  1  0
  9  8  2  0
 10  9  1  0
 10 11  2  0
 11  6  1  0
 13 14  1  0
 13 12  1  0
  2 15  1  0
  2 16  1  0
  3 17  1  6
  4 18  1  0
  4 19  1  0
  5 20  1  0
  5 21  1  0
  7 22  1  0
  8 23  1  0
 10 24  1  0
 12 25  1  0
 13 26  1  0
 13 27  1  0
 14 28  1  0
M  ISO  8  15  13  16  13  17  13  18  13  19  13  20  13  21  13  22  14
M  ISO  6  23  14  24  14  25   5  26   8  27   8  28  11
M  END
>  <minimizedAffinity>  (1) 
-3.27319908

>  <minimizedRMSD>  (1) 
2.08427072

$$$$
