
     RDKit          3D

 24 26  0  0  0  0  0  0  0  0999 V2000
   38.1160   22.9290   36.1650 C   0  0  0  0  0  0  0  0  0  0  0  0
   38.1620   24.0280   37.0350 C   0  0  0  0  0  0  0  0  0  0  0  0
   38.1550   25.3020   36.4600 C   0  0  0  0  0  0  0  0  0  0  0  0
   38.1040   25.4160   35.1050 N   0  0  0  0  0  0  0  0  0  0  0  0
   38.0610   24.3250   34.3000 C   0  0  0  0  0  0  0  0  0  0  0  0
   38.0670   23.1050   34.8400 N   0  0  0  0  0  0  0  0  0  0  0  0
   38.0060   24.4240   32.8810 N   0  0  0  0  0  0  0  0  0  0  0  0
   37.3620   23.6380   31.9780 C   0  0  0  0  0  0  0  0  0  0  0  0
   37.6180   24.1490   30.7570 N   0  0  0  0  0  0  0  0  0  0  0  0
   38.4050   25.2380   30.8510 C   0  0  0  0  0  0  0  0  0  0  0  0
   38.9290   26.0920   29.8830 C   0  0  0  0  0  0  0  0  0  0  0  0
   39.6910   27.1010   30.3400 N   0  0  0  0  0  0  0  0  0  0  0  0
   39.9140   27.2480   31.6420 C   0  0  0  0  0  0  0  0  0  0  0  0
   39.4190   26.4350   32.6100 N   0  0  0  0  0  0  0  0  0  0  0  0
   38.6440   25.4030   32.2040 C   0  0  0  0  0  0  0  0  0  0  0  0
   38.2150   23.7990   38.4970 C   0  0  0  0  0  0  0  0  0  0  0  0
   39.4850   23.3570   38.8160 F   0  0  0  0  0  0  0  0  0  0  0  0
   37.3020   22.8210   38.8830 F   0  0  0  0  0  0  0  0  0  0  0  0
   37.8930   24.9800   39.1390 F   0  0  0  0  0  0  0  0  0  0  0  0
   38.1203   21.9093   36.5775 H   0  0  0  0  0  0  0  0  0  0  0  0
   38.1902   26.2001   37.0941 H   0  0  0  0  0  0  0  0  0  0  0  0
   36.7483   22.7528   32.2012 H   0  0  0  0  0  0  0  0  0  0  0  0
   38.7314   25.9495   28.8103 H   0  0  0  0  0  0  0  0  0  0  0  0
   40.5463   28.0906   31.9586 H   0  0  0  0  0  0  0  0  0  0  0  0
  1  2  2  0
  2 16  1  0
  3  2  1  0
  4  3  2  0
  5  6  2  0
  5  4  1  0
  6  1  1  0
  7  5  1  0
  8  7  1  0
  9 10  1  0
  9  8  2  0
 10 15  2  0
 11 12  2  0
 11 10  1  0
 12 13  1  0
 13 14  2  0
 15 14  1  0
 15  7  1  0
 16 17  1  0
 16 18  1  0
 16 19  1  0
  1 20  1  0
  3 21  1  0
  8 22  1  0
 11 23  1  0
 13 24  1  0
M  ISO  5  20  14  21  14  22  14  23  14  24  14
M  END
>  <minimizedAffinity>  (1) 
-5.27853727

>  <minimizedRMSD>  (1) 
2.60819316

$$$$
