
     RDKit          3D

 28 30  0  0  0  0  0  0  0  0999 V2000
   37.0150   27.0220   34.5260 C   0  0  0  0  0  0  0  0  0  0  0  0
   36.9570   26.5580   33.1850 C   0  0  0  0  0  0  0  0  0  0  0  0
   37.4340   25.2790   32.9740 C   0  0  0  0  0  0  0  0  0  0  0  0
   37.9180   24.5350   33.9960 N   0  0  0  0  0  0  0  0  0  0  0  0
   37.9570   25.0130   35.2570 C   0  0  0  0  0  0  0  0  0  0  0  0
   37.5010   26.2480   35.4860 N   0  0  0  0  0  0  0  0  0  0  0  0
   38.4520   24.2860   36.3680 N   0  0  0  0  0  0  0  0  0  0  0  0
   38.0780   24.2620   37.6640 C   0  0  0  0  0  0  0  0  0  0  0  0
   38.8820   23.3970   38.3060 N   0  0  0  0  0  0  0  0  0  0  0  0
   39.7720   22.8540   37.4610 C   0  0  0  0  0  0  0  0  0  0  0  0
   40.7950   21.9180   37.6500 C   0  0  0  0  0  0  0  0  0  0  0  0
   41.5040   21.5970   36.5610 N   0  0  0  0  0  0  0  0  0  0  0  0
   41.2370   22.1470   35.3700 C   0  0  0  0  0  0  0  0  0  0  0  0
   40.2500   23.0560   35.1610 N   0  0  0  0  0  0  0  0  0  0  0  0
   39.4990   23.4200   36.2280 C   0  0  0  0  0  0  0  0  0  0  0  0
   36.4410   27.3970   32.1710 N   0  0  0  0  0  0  0  0  0  0  0  0
   37.1950   28.4020   31.4880 C   0  0  0  0  0  0  0  0  0  0  0  0
   38.4060   28.0310   31.1580 N   0  0  0  0  0  0  0  0  0  0  0  0
   36.5910   29.6640   31.2340 N   0  0  0  0  0  0  0  0  0  0  0  0
   38.9530   28.7650   30.6600 H   0  0  0  0  0  0  0  0  0  0  0  0
   36.6537   28.0319   34.7699 H   0  0  0  0  0  0  0  0  0  0  0  0
   37.4203   24.8578   31.9579 H   0  0  0  0  0  0  0  0  0  0  0  0
   37.2616   24.8456   38.1145 H   0  0  0  0  0  0  0  0  0  0  0  0
   41.0038   21.4730   38.6340 H   0  0  0  0  0  0  0  0  0  0  0  0
   41.8532   21.8449   34.5103 H   0  0  0  0  0  0  0  0  0  0  0  0
   35.4532   27.2760   31.9056 H   0  0  0  0  0  0  0  0  0  0  0  0
   37.1202   30.3988   30.7432 H   0  0  0  0  0  0  0  0  0  0  0  0
   35.6242   29.8433   31.5408 H   0  0  0  0  0  0  0  0  0  0  0  0
  1  6  2  0
  2  1  1  0
  3  2  2  0
  3  4  1  0
  4  5  2  0
  5  6  1  0
  5  7  1  0
  7  8  1  0
  8  9  2  0
 10 11  2  0
 10  9  1  0
 12 11  1  0
 13 12  2  0
 14 13  1  0
 14 15  2  0
 15  7  1  0
 15 10  1  0
 16  2  1  0
 17 16  1  0
 18 17  2  0
 19 17  1  0
 20 18  1  0
  1 21  1  0
  3 22  1  0
  8 23  1  0
 11 24  1  0
 13 25  1  0
 16 26  1  0
 19 27  1  0
 19 28  1  0
M  ISO  5  21  14  22  14  23  14  24  14  25  14
M  END
>  <minimizedAffinity>  (1) 
-5.03201962

>  <minimizedRMSD>  (1) 
7.04362059

$$$$
