
     RDKit          3D

 30 31  0  0  1  0  0  0  0  0999 V2000
   38.5580   25.8440   35.0760 C   0  0  2  0  0  0  0  0  0  0  0  0
   39.6880   22.9740   37.0440 C   0  0  0  0  0  0  0  0  0  0  0  0
   38.9290   23.0760   38.2500 C   0  0  0  0  0  0  0  0  0  0  0  0
   38.0230   24.1540   38.3690 C   0  0  0  0  0  0  0  0  0  0  0  0
   37.9490   25.0190   37.3050 N   0  0  0  0  0  0  0  0  0  0  0  0
   38.6870   24.8800   36.1880 C   0  0  0  0  0  0  0  0  0  0  0  0
   39.5420   23.8700   36.0660 N   0  0  0  0  0  0  0  0  0  0  0  0
   39.2910   27.1160   35.4340 C   0  0  0  0  0  0  0  0  0  0  0  0
   37.1230   26.2200   34.7770 C   0  0  0  0  0  0  0  0  0  0  0  0
   36.9840   26.7630   33.4350 N   0  0  0  0  0  0  0  0  0  0  0  0
   36.8780   28.0780   33.1820 C   0  0  0  0  0  0  0  0  0  0  0  0
   36.7500   28.4650   31.8590 C   0  0  0  0  0  0  0  0  0  0  0  0
   36.7330   27.5150   30.8340 C   0  0  0  0  0  0  0  0  0  0  0  0
   36.6050   27.8630   29.4780 N   0  0  0  0  0  0  0  0  0  0  0  0
   36.8430   26.2000   31.1410 N   0  0  0  0  0  0  0  0  0  0  0  0
   36.9680   25.8340   32.4490 C   0  0  0  0  0  0  0  0  0  0  0  0
   37.0650   24.5880   32.6560 O   0  0  0  0  0  0  0  0  0  0  0  0
   38.9799   25.3526   34.1869 H   0  0  0  0  0  0  0  0  0  0  0  0
   40.4019   22.1463   36.9200 H   0  0  0  0  0  0  0  0  0  0  0  0
   39.0459   22.3399   39.0590 H   0  0  0  0  0  0  0  0  0  0  0  0
   37.4072   24.2934   39.2698 H   0  0  0  0  0  0  0  0  0  0  0  0
   39.3462   27.2118   36.5284 H   0  0  0  0  0  0  0  0  0  0  0  0
   40.3084   27.0827   35.0171 H   0  0  0  0  0  0  0  0  0  0  0  0
   38.7520   27.9795   35.0171 H   0  0  0  0  0  0  0  0  0  0  0  0
   36.4921   25.3234   34.8672 H   0  0  0  0  0  0  0  0  0  0  0  0
   36.8109   26.9916   35.4961 H   0  0  0  0  0  0  0  0  0  0  0  0
   36.8924   28.8189   33.9949 H   0  0  0  0  0  0  0  0  0  0  0  0
   36.6606   29.5331   31.6115 H   0  0  0  0  0  0  0  0  0  0  0  0
   36.5190   28.8528   29.2062 H   0  0  0  0  0  0  0  0  0  0  0  0
   36.5972   27.1282   28.7563 H   0  0  0  0  0  0  0  0  0  0  0  0
  1  8  1  0
  1  6  1  0
  2  3  2  0
  3  4  1  0
  5  4  2  0
  6  5  1  0
  7  6  2  0
  7  2  1  0
  9  1  1  0
 10  9  1  0
 11 10  1  0
 12 11  2  0
 13 15  2  0
 13 12  1  0
 14 13  1  0
 15 16  1  0
 16 17  2  0
 16 10  1  0
  1 18  1  6
  2 19  1  0
  3 20  1  0
  4 21  1  0
  8 22  1  0
  8 23  1  0
  8 24  1  0
  9 25  1  0
  9 26  1  0
 11 27  1  0
 12 28  1  0
 14 29  1  0
 14 30  1  0
M  ISO  8  18   8  19  14  20  14  21  14  22   8  23   8  24   8  25   8
M  ISO  3  26   8  27  14  28  14
M  END
>  <minimizedAffinity>  (1) 
-4.86197567

>  <minimizedRMSD>  (1) 
0.86670804

$$$$
