
     RDKit          3D

 49 52  0  0  1  0  0  0  0  0999 V2000
   40.7760   27.0850   31.6590 C   0  0  0  0  0  0  0  0  0  0  0  0
   42.1910   26.5950   31.9680 C   0  0  1  0  0  0  0  0  0  0  0  0
   42.7870   25.9030   30.7850 C   0  0  0  0  0  0  0  0  0  0  0  0
   43.7690   26.6960   30.0020 C   0  0  0  0  0  0  0  0  0  0  0  0
   44.6200   27.6390   30.7920 C   0  0  0  0  0  0  0  0  0  0  0  0
   43.7560   28.5260   31.6460 C   0  0  0  0  0  0  0  0  0  0  0  0
   43.0070   27.6550   32.6020 C   0  0  2  0  0  0  0  0  0  0  0  0
   43.9220   27.1240   33.6710 C   0  0  0  0  0  0  0  0  0  0  0  0
   43.6040   25.9810   34.3780 C   0  0  0  0  0  0  0  0  0  0  0  0
   44.3520   25.4050   35.3670 C   0  0  0  0  0  0  0  0  0  0  0  0
   45.5210   26.0440   35.6640 N   0  0  0  0  0  0  0  0  0  0  0  0
   45.8610   27.1660   34.9900 C   0  0  0  0  0  0  0  0  0  0  0  0
   45.0920   27.6990   34.0220 N   0  0  0  0  0  0  0  0  0  0  0  0
   38.6790   24.6390   33.5730 N   0  0  0  0  0  0  0  0  0  0  0  0
   39.6490   25.5380   33.3370 C   0  0  0  0  0  0  0  0  0  0  0  0
   39.7570   26.0850   32.0610 C   0  0  0  0  0  0  0  0  0  0  0  0
   38.8470   25.6700   31.0820 C   0  0  0  0  0  0  0  0  0  0  0  0
   38.8560   26.1010   29.8970 O   0  0  0  0  0  0  0  0  0  0  0  0
   37.8840   24.7600   31.3620 N   0  0  0  0  0  0  0  0  0  0  0  0
   37.8250   24.2660   32.6080 C   0  0  0  0  0  0  0  0  0  0  0  0
   36.9330   23.4210   32.8750 O   0  0  0  0  0  0  0  0  0  0  0  0
   37.9750   24.8770   35.8770 C   0  0  0  0  0  0  0  0  0  0  0  0
   38.6590   24.1500   34.8940 C   0  0  0  0  0  0  0  0  0  0  0  0
   39.2850   22.9710   35.2900 C   0  0  0  0  0  0  0  0  0  0  0  0
   39.1990   22.5900   36.6090 N   0  0  0  0  0  0  0  0  0  0  0  0
   38.5350   23.3140   37.5220 C   0  0  0  0  0  0  0  0  0  0  0  0
   37.9330   24.4480   37.1350 N   0  0  0  0  0  0  0  0  0  0  0  0
   38.5970   22.7080   38.7990 N   0  0  0  0  0  0  0  0  0  0  0  0
   40.5940   28.0214   32.2067 H   0  0  0  0  0  0  0  0  0  0  0  0
   40.6945   27.2452   30.5738 H   0  0  0  0  0  0  0  0  0  0  0  0
   42.1575   25.8120   32.7399 H   0  0  0  0  0  0  0  0  0  0  0  0
   43.2950   24.9960   31.1446 H   0  0  0  0  0  0  0  0  0  0  0  0
   41.9491   25.7036   30.1008 H   0  0  0  0  0  0  0  0  0  0  0  0
   44.4365   25.9912   29.4847 H   0  0  0  0  0  0  0  0  0  0  0  0
   43.1733   27.3259   29.3249 H   0  0  0  0  0  0  0  0  0  0  0  0
   45.2988   27.0623   31.4375 H   0  0  0  0  0  0  0  0  0  0  0  0
   45.2022   28.2641   30.0990 H   0  0  0  0  0  0  0  0  0  0  0  0
   44.3848   29.2369   32.2021 H   0  0  0  0  0  0  0  0  0  0  0  0
   43.0558   29.0974   31.0190 H   0  0  0  0  0  0  0  0  0  0  0  0
   42.2599   28.3057   33.0799 H   0  0  0  0  0  0  0  0  0  0  0  0
   42.6563   25.4856   34.1202 H   0  0  0  0  0  0  0  0  0  0  0  0
   44.0336   24.4897   35.8875 H   0  0  0  0  0  0  0  0  0  0  0  0
   46.8077   27.6652   35.2439 H   0  0  0  0  0  0  0  0  0  0  0  0
   40.3441   25.8361   34.1358 H   0  0  0  0  0  0  0  0  0  0  0  0
   37.2161   24.4559   30.6393 H   0  0  0  0  0  0  0  0  0  0  0  0
   37.4667   25.8138   35.6050 H   0  0  0  0  0  0  0  0  0  0  0  0
   39.8369   22.3569   34.5631 H   0  0  0  0  0  0  0  0  0  0  0  0
   38.1307   23.1520   39.6029 H   0  0  0  0  0  0  0  0  0  0  0  0
   39.1084   21.8228   38.9247 H   0  0  0  0  0  0  0  0  0  0  0  0
  1  2  1  0
  1 16  1  0
  2  7  1  0
  3  2  1  0
  4  3  1  0
  4  5  1  0
  5  6  1  0
  6  7  1  0
  7  8  1  0
  8 13  1  0
  8  9  2  0
  9 10  1  0
 10 11  2  0
 12 11  1  0
 13 12  2  0
 14 23  1  0
 15 14  1  0
 16 15  2  0
 17 19  1  0
 17 16  1  0
 18 17  2  0
 19 20  1  0
 20 21  2  0
 20 14  1  0
 22 27  2  0
 23 24  2  0
 23 22  1  0
 24 25  1  0
 25 26  2  0
 26 28  1  0
 27 26  1  0
  1 29  1  0
  1 30  1  0
  2 31  1  1
  3 32  1  0
  3 33  1  0
  4 34  1  0
  4 35  1  0
  5 36  1  0
  5 37  1  0
  6 38  1  0
  6 39  1  0
  7 40  1  1
  9 41  1  0
 10 42  1  0
 12 43  1  0
 15 44  1  0
 19 45  1  0
 22 46  1  0
 24 47  1  0
 28 48  1  0
 28 49  1  0
M  ISO  8  29   8  30   8  31  13  32  13  33  13  34  13  35  13  36  13
M  ISO  8  37  13  38  13  39  13  40  13  41  14  42  14  43  14  44  14
M  ISO  3  45   9  46  14  47  14
M  END
>  <minimizedAffinity>  (1) 
-4.88766813

>  <minimizedRMSD>  (1) 
2.5581224

$$$$
