
     RDKit          3D

 28 31  0  0  0  0  0  0  0  0999 V2000
   39.5390   24.3670   34.2940 C   0  0  0  0  0  0  0  0  0  0  0  0
   39.3270   24.3180   35.6760 C   0  0  0  0  0  0  0  0  0  0  0  0
   38.2480   25.0660   36.1700 C   0  0  0  0  0  0  0  0  0  0  0  0
   37.4690   25.7890   35.3160 N   0  0  0  0  0  0  0  0  0  0  0  0
   37.7280   25.7930   33.9840 C   0  0  0  0  0  0  0  0  0  0  0  0
   38.7590   25.0850   33.4830 N   0  0  0  0  0  0  0  0  0  0  0  0
   36.9390   26.5350   33.0610 N   0  0  0  0  0  0  0  0  0  0  0  0
   36.5880   26.2460   31.7810 C   0  0  0  0  0  0  0  0  0  0  0  0
   35.8320   27.2580   31.3260 N   0  0  0  0  0  0  0  0  0  0  0  0
   35.6830   28.2050   32.2830 C   0  0  0  0  0  0  0  0  0  0  0  0
   35.0030   29.4140   32.2880 C   0  0  0  0  0  0  0  0  0  0  0  0
   35.0690   30.1160   33.4400 N   0  0  0  0  0  0  0  0  0  0  0  0
   35.7490   29.6550   34.4850 C   0  0  0  0  0  0  0  0  0  0  0  0
   36.4210   28.4720   34.4930 N   0  0  0  0  0  0  0  0  0  0  0  0
   36.3880   27.7270   33.3650 C   0  0  0  0  0  0  0  0  0  0  0  0
   40.1600   23.5380   36.6310 C   0  0  0  0  0  0  0  0  0  0  0  0
   40.0740   22.0600   36.6650 C   0  0  0  0  0  0  0  0  0  0  0  0
   39.5160   22.9240   37.8270 C   0  0  0  0  0  0  0  0  0  0  0  0
   40.3744   23.7961   33.8624 H   0  0  0  0  0  0  0  0  0  0  0  0
   38.0300   25.0692   37.2482 H   0  0  0  0  0  0  0  0  0  0  0  0
   36.8721   25.3446   31.2182 H   0  0  0  0  0  0  0  0  0  0  0  0
   34.4466   29.7772   31.4114 H   0  0  0  0  0  0  0  0  0  0  0  0
   35.7697   30.2671   35.3987 H   0  0  0  0  0  0  0  0  0  0  0  0
   40.9933   24.2411   36.4853 H   0  0  0  0  0  0  0  0  0  0  0  0
   39.3860   21.5302   35.9897 H   0  0  0  0  0  0  0  0  0  0  0  0
   40.7908   21.2301   36.5784 H   0  0  0  0  0  0  0  0  0  0  0  0
   40.0262   22.9397   38.8014 H   0  0  0  0  0  0  0  0  0  0  0  0
   38.5481   23.0247   38.3399 H   0  0  0  0  0  0  0  0  0  0  0  0
  1  2  2  0
  2  3  1  0
  2 16  1  0
  4  3  2  0
  5  4  1  0
  6  5  2  0
  6  1  1  0
  7 15  1  0
  7  5  1  0
  8  7  1  0
  9  8  2  0
  9 10  1  0
 10 11  2  0
 10 15  1  0
 11 12  1  0
 12 13  2  0
 13 14  1  0
 15 14  2  0
 16 17  1  0
 16 18  1  0
 17 18  1  0
  1 19  1  0
  3 20  1  0
  8 21  1  0
 11 22  1  0
 13 23  1  0
 16 24  1  0
 17 25  1  0
 17 26  1  0
 18 27  1  0
 18 28  1  0
M  ISO  8  19  14  20  14  21  14  22  14  23  14  24  13  25  13  26  13
M  ISO  2  27  13  28  13
M  END
>  <minimizedAffinity>  (1) 
-4.55162525

>  <minimizedRMSD>  (1) 
3.17917323

$$$$
