
     RDKit          3D

 26 29  0  0  0  0  0  0  0  0999 V2000
   40.0630   25.5800   33.9640 C   0  0  0  0  0  0  0  0  0  0  0  0
   39.3140   24.9210   34.9460 C   0  0  0  0  0  0  0  0  0  0  0  0
   37.9350   25.1800   34.9920 C   0  0  0  0  0  0  0  0  0  0  0  0
   37.4020   26.0470   34.0910 N   0  0  0  0  0  0  0  0  0  0  0  0
   38.1620   26.6630   33.1570 C   0  0  0  0  0  0  0  0  0  0  0  0
   39.4740   26.4130   33.1170 N   0  0  0  0  0  0  0  0  0  0  0  0
   37.6320   27.5730   32.2030 N   0  0  0  0  0  0  0  0  0  0  0  0
   37.9660   27.8140   30.9240 C   0  0  0  0  0  0  0  0  0  0  0  0
   37.1680   28.7700   30.4430 N   0  0  0  0  0  0  0  0  0  0  0  0
   36.2970   29.1730   31.3990 C   0  0  0  0  0  0  0  0  0  0  0  0
   35.2830   30.1290   31.3870 C   0  0  0  0  0  0  0  0  0  0  0  0
   34.6030   30.2660   32.5410 N   0  0  0  0  0  0  0  0  0  0  0  0
   34.9000   29.5280   33.6060 C   0  0  0  0  0  0  0  0  0  0  0  0
   35.8760   28.5960   33.6430 N   0  0  0  0  0  0  0  0  0  0  0  0
   36.6080   28.4040   32.5030 C   0  0  0  0  0  0  0  0  0  0  0  0
   39.8000   23.9870   35.9410 C   0  0  0  0  0  0  0  0  0  0  0  0
   41.0790   23.5820   35.9040 N   0  0  0  0  0  0  0  0  0  0  0  0
   41.3090   22.7550   36.8730 O   0  0  0  0  0  0  0  0  0  0  0  0
   40.2150   22.5880   37.5680 C   0  0  0  0  0  0  0  0  0  0  0  0
   39.2440   23.3600   36.9960 N   0  0  0  0  0  0  0  0  0  0  0  0
   41.1469   25.4057   33.8946 H   0  0  0  0  0  0  0  0  0  0  0  0
   37.2977   24.6905   35.7432 H   0  0  0  0  0  0  0  0  0  0  0  0
   38.7660   27.3066   30.3649 H   0  0  0  0  0  0  0  0  0  0  0  0
   35.0537   30.7308   30.4952 H   0  0  0  0  0  0  0  0  0  0  0  0
   34.3097   29.6877   34.5204 H   0  0  0  0  0  0  0  0  0  0  0  0
   40.0975   21.9437   38.4518 H   0  0  0  0  0  0  0  0  0  0  0  0
  1  2  2  0
  2  3  1  0
  2 16  1  0
  4  3  2  0
  5  4  1  0
  6  5  2  0
  6  1  1  0
  7 15  1  0
  7  5  1  0
  8  7  1  0
  9  8  2  0
  9 10  1  0
 10 15  2  0
 11 10  1  0
 11 12  2  0
 12 13  1  0
 13 14  2  0
 15 14  1  0
 16 20  1  0
 17 16  2  0
 17 18  1  0
 18 19  1  0
 20 19  2  0
  1 21  1  0
  3 22  1  0
  8 23  1  0
 11 24  1  0
 13 25  1  0
 19 26  1  0
M  ISO  6  21  14  22  14  23  14  24  14  25  14  26  14
M  END
>  <minimizedAffinity>  (1) 
-4.59478092

>  <minimizedRMSD>  (1) 
4.21424055

$$$$
