
     RDKit          3D

 33 36  0  0  0  0  0  0  0  0999 V2000
   37.4700   24.0830   30.9010 C   0  0  0  0  0  0  0  0  0  0  0  0
   36.2500   23.4300   31.1190 C   0  0  0  0  0  0  0  0  0  0  0  0
   35.1090   24.2320   31.2250 C   0  0  0  0  0  0  0  0  0  0  0  0
   35.2360   25.5810   31.1170 N   0  0  0  0  0  0  0  0  0  0  0  0
   36.4220   26.1720   30.9080 C   0  0  0  0  0  0  0  0  0  0  0  0
   37.5230   25.4040   30.8050 N   0  0  0  0  0  0  0  0  0  0  0  0
   36.6100   27.5750   30.7880 N   0  0  0  0  0  0  0  0  0  0  0  0
   37.4440   28.3110   30.0540 C   0  0  0  0  0  0  0  0  0  0  0  0
   37.2170   29.6060   30.3080 N   0  0  0  0  0  0  0  0  0  0  0  0
   36.2220   29.7340   31.2220 C   0  0  0  0  0  0  0  0  0  0  0  0
   35.6300   30.8560   31.8020 C   0  0  0  0  0  0  0  0  0  0  0  0
   34.6500   30.6020   32.6870 N   0  0  0  0  0  0  0  0  0  0  0  0
   34.2920   29.3590   32.9690 C   0  0  0  0  0  0  0  0  0  0  0  0
   34.8400   28.2560   32.4280 N   0  0  0  0  0  0  0  0  0  0  0  0
   35.8510   28.4440   31.5110 C   0  0  0  0  0  0  0  0  0  0  0  0
   36.0600   22.0090   31.2440 C   0  0  0  0  0  0  0  0  0  0  0  0
   36.9100   21.1420   30.6910 N   0  0  0  0  0  0  0  0  0  0  0  0
   36.5250   19.9330   30.9460 O   0  0  0  0  0  0  0  0  0  0  0  0
   35.4270   19.9580   31.6650 C   0  0  0  0  0  0  0  0  0  0  0  0
   35.1150   21.2570   31.8640 N   0  0  0  0  0  0  0  0  0  0  0  0
   34.7230   18.8120   32.1290 N   0  0  0  0  0  0  0  0  0  0  0  0
   35.3470   17.5340   32.1130 C   0  0  0  0  0  0  0  0  0  0  0  0
   36.5820   17.4250   32.3740 N   0  0  0  0  0  0  0  0  0  0  0  0
   34.5500   16.3760   31.7970 N   0  0  0  0  0  0  0  0  0  0  0  0
   37.1930   18.2080   32.6050 H   0  0  0  0  0  0  0  0  0  0  0  0
   38.3939   23.4932   30.8085 H   0  0  0  0  0  0  0  0  0  0  0  0
   34.1218   23.7770   31.3936 H   0  0  0  0  0  0  0  0  0  0  0  0
   38.1962   27.9187   29.3537 H   0  0  0  0  0  0  0  0  0  0  0  0
   35.9439   31.8802   31.5521 H   0  0  0  0  0  0  0  0  0  0  0  0
   33.4843   29.2173   33.7021 H   0  0  0  0  0  0  0  0  0  0  0  0
   33.7585   18.9082   32.4775 H   0  0  0  0  0  0  0  0  0  0  0  0
   34.9832   15.4417   31.7802 H   0  0  0  0  0  0  0  0  0  0  0  0
   33.5471   16.4825   31.5879 H   0  0  0  0  0  0  0  0  0  0  0  0
  1  2  2  0
  2  3  1  0
  2 16  1  0
  4  3  2  0
  5  4  1  0
  6  1  1  0
  6  5  2  0
  7  5  1  0
  7 15  1  0
  8  9  2  0
  8  7  1  0
  9 10  1  0
 10 15  2  0
 10 11  1  0
 11 12  2  0
 12 13  1  0
 14 13  2  0
 15 14  1  0
 16 20  1  0
 17 18  1  0
 17 16  2  0
 18 19  1  0
 19 20  2  0
 19 21  1  0
 22 21  1  0
 22 23  2  0
 23 25  1  0
 24 22  1  0
  1 26  1  0
  3 27  1  0
  8 28  1  0
 11 29  1  0
 13 30  1  0
 21 31  1  0
 24 32  1  0
 24 33  1  0
M  ISO  5  26  14  27  14  28  14  29  14  30  14
M  END
>  <minimizedAffinity>  (1) 
-6.13231468

>  <minimizedRMSD>  (1) 
5.74240828

$$$$
