
     RDKit          3D

 29 32  0  0  0  0  0  0  0  0999 V2000
   39.1770   25.9160   32.7940 C   0  0  0  0  0  0  0  0  0  0  0  0
   38.1410   25.7920   33.7410 C   0  0  0  0  0  0  0  0  0  0  0  0
   36.9980   26.5670   33.5510 C   0  0  0  0  0  0  0  0  0  0  0  0
   36.9330   27.3940   32.4740 N   0  0  0  0  0  0  0  0  0  0  0  0
   37.9360   27.4890   31.5890 C   0  0  0  0  0  0  0  0  0  0  0  0
   39.0400   26.7480   31.7650 N   0  0  0  0  0  0  0  0  0  0  0  0
   37.9010   28.3440   30.4540 N   0  0  0  0  0  0  0  0  0  0  0  0
   38.3940   28.2070   29.2140 C   0  0  0  0  0  0  0  0  0  0  0  0
   38.0970   29.2930   28.5060 N   0  0  0  0  0  0  0  0  0  0  0  0
   37.3970   30.1730   29.2680 C   0  0  0  0  0  0  0  0  0  0  0  0
   36.8670   31.4270   28.9910 C   0  0  0  0  0  0  0  0  0  0  0  0
   36.2190   32.0280   30.0090 N   0  0  0  0  0  0  0  0  0  0  0  0
   36.1100   31.4310   31.1900 C   0  0  0  0  0  0  0  0  0  0  0  0
   36.6140   30.2160   31.4870 N   0  0  0  0  0  0  0  0  0  0  0  0
   37.2860   29.5510   30.4950 C   0  0  0  0  0  0  0  0  0  0  0  0
   38.1550   24.9310   34.9010 C   0  0  0  0  0  0  0  0  0  0  0  0
   38.1140   23.6010   34.7680 N   0  0  0  0  0  0  0  0  0  0  0  0
   38.1370   23.0540   35.9520 O   0  0  0  0  0  0  0  0  0  0  0  0
   38.1920   23.9780   36.8610 C   0  0  0  0  0  0  0  0  0  0  0  0
   38.2050   25.1810   36.2340 N   0  0  0  0  0  0  0  0  0  0  0  0
   38.2340   23.8110   38.3090 C   0  0  0  0  0  0  0  0  0  0  0  0
   38.0180   24.7890   39.0690 O   0  0  0  0  0  0  0  0  0  0  0  0
   38.5070   22.6010   38.8930 O   0  0  0  0  0  0  0  0  0  0  0  0
   40.0983   25.3254   32.9055 H   0  0  0  0  0  0  0  0  0  0  0  0
   36.1608   26.5102   34.2622 H   0  0  0  0  0  0  0  0  0  0  0  0
   38.9540   27.3362   28.8424 H   0  0  0  0  0  0  0  0  0  0  0  0
   36.9697   31.8998   28.0031 H   0  0  0  0  0  0  0  0  0  0  0  0
   35.5691   31.9666   31.9841 H   0  0  0  0  0  0  0  0  0  0  0  0
   38.5280   22.5210   39.8795 H   0  0  0  0  0  0  0  0  0  0  0  0
  1  2  2  0
  2 16  1  0
  3  2  1  0
  4  3  2  0
  5  6  2  0
  5  4  1  0
  6  1  1  0
  7 15  1  0
  7  5  1  0
  8  7  1  0
  9  8  2  0
  9 10  1  0
 10 15  2  0
 11 10  1  0
 11 12  2  0
 12 13  1  0
 13 14  2  0
 15 14  1  0
 16 20  1  0
 17 16  2  0
 17 18  1  0
 18 19  1  0
 19 21  1  0
 20 19  2  0
 21 23  1  0
 21 22  2  0
  1 24  1  0
  3 25  1  0
  8 26  1  0
 11 27  1  0
 13 28  1  0
 23 29  1  0
M  ISO  6  24  14  25  14  26  14  27  14  28  14  29   3
M  END
>  <minimizedAffinity>  (1) 
-5.55006504

>  <minimizedRMSD>  (1) 
2.5826447

$$$$
