
     RDKit          3D

 27 30  0  0  0  0  0  0  0  0999 V2000
   39.9810   25.8530   33.6350 C   0  0  0  0  0  0  0  0  0  0  0  0
   39.3820   25.1320   34.6660 C   0  0  0  0  0  0  0  0  0  0  0  0
   37.9990   25.3300   34.8770 C   0  0  0  0  0  0  0  0  0  0  0  0
   37.3440   26.2050   34.0670 N   0  0  0  0  0  0  0  0  0  0  0  0
   37.9640   26.8790   33.0830 C   0  0  0  0  0  0  0  0  0  0  0  0
   39.2700   26.6830   32.8950 N   0  0  0  0  0  0  0  0  0  0  0  0
   37.3110   27.8000   32.2190 N   0  0  0  0  0  0  0  0  0  0  0  0
   37.5020   28.1100   30.9330 C   0  0  0  0  0  0  0  0  0  0  0  0
   36.6190   29.0490   30.5810 N   0  0  0  0  0  0  0  0  0  0  0  0
   35.8280   29.3740   31.6420 C   0  0  0  0  0  0  0  0  0  0  0  0
   34.7820   30.2820   31.7710 C   0  0  0  0  0  0  0  0  0  0  0  0
   34.2180   30.3390   32.9890 N   0  0  0  0  0  0  0  0  0  0  0  0
   34.6530   29.5690   33.9810 C   0  0  0  0  0  0  0  0  0  0  0  0
   35.6620   28.6840   33.8800 N   0  0  0  0  0  0  0  0  0  0  0  0
   36.2880   28.5710   32.6580 C   0  0  0  0  0  0  0  0  0  0  0  0
   40.0010   24.1890   35.5670 C   0  0  0  0  0  0  0  0  0  0  0  0
   41.3200   23.9970   35.5300 N   0  0  0  0  0  0  0  0  0  0  0  0
   41.6900   23.1250   36.4000 O   0  0  0  0  0  0  0  0  0  0  0  0
   40.6300   22.7040   37.0500 C   0  0  0  0  0  0  0  0  0  0  0  0
   39.5440   23.3690   36.5350 N   0  0  0  0  0  0  0  0  0  0  0  0
   40.2550   21.8150   38.0760 O   0  0  0  0  0  0  0  0  0  0  0  0
   41.0558   25.7294   33.4361 H   0  0  0  0  0  0  0  0  0  0  0  0
   37.4664   24.7913   35.6746 H   0  0  0  0  0  0  0  0  0  0  0  0
   38.2613   27.6652   30.2729 H   0  0  0  0  0  0  0  0  0  0  0  0
   34.4406   30.9093   30.9344 H   0  0  0  0  0  0  0  0  0  0  0  0
   34.1518   29.6617   34.9558 H   0  0  0  0  0  0  0  0  0  0  0  0
   39.3038   21.7352   38.3387 H   0  0  0  0  0  0  0  0  0  0  0  0
  1  2  2  0
  2  3  1  0
  2 16  1  0
  4  3  2  0
  5  4  1  0
  6  5  2  0
  6  1  1  0
  7 15  1  0
  7  5  1  0
  8  7  1  0
  9  8  2  0
  9 10  1  0
 10 11  2  0
 10 15  1  0
 11 12  1  0
 12 13  2  0
 14 13  1  0
 15 14  2  0
 16 20  1  0
 17 16  2  0
 17 18  1  0
 18 19  1  0
 19 21  1  0
 20 19  2  0
  1 22  1  0
  3 23  1  0
  8 24  1  0
 11 25  1  0
 13 26  1  0
 21 27  1  0
M  ISO  6  22  14  23  14  24  14  25  14  26  14  27   3
M  END
>  <minimizedAffinity>  (1) 
-5.23305607

>  <minimizedRMSD>  (1) 
0.51616466

$$$$
