
     RDKit          3D

 29 32  0  0  0  0  0  0  0  0999 V2000
   39.8110   26.3490   33.3010 C   0  0  0  0  0  0  0  0  0  0  0  0
   39.2790   25.5550   34.3150 C   0  0  0  0  0  0  0  0  0  0  0  0
   37.8970   25.6860   34.5790 C   0  0  0  0  0  0  0  0  0  0  0  0
   37.1770   26.5690   33.8360 N   0  0  0  0  0  0  0  0  0  0  0  0
   37.7490   27.3210   32.8580 C   0  0  0  0  0  0  0  0  0  0  0  0
   39.0500   27.1900   32.6160 N   0  0  0  0  0  0  0  0  0  0  0  0
   36.9890   28.2380   32.0890 N   0  0  0  0  0  0  0  0  0  0  0  0
   37.1020   28.5830   30.7860 C   0  0  0  0  0  0  0  0  0  0  0  0
   36.1700   29.4880   30.5000 N   0  0  0  0  0  0  0  0  0  0  0  0
   35.4300   29.7540   31.6030 C   0  0  0  0  0  0  0  0  0  0  0  0
   34.3520   30.6090   31.8340 C   0  0  0  0  0  0  0  0  0  0  0  0
   33.8550   30.6170   33.0770 N   0  0  0  0  0  0  0  0  0  0  0  0
   34.3740   29.8470   34.0240 C   0  0  0  0  0  0  0  0  0  0  0  0
   35.4170   29.0050   33.8430 N   0  0  0  0  0  0  0  0  0  0  0  0
   35.9690   28.9500   32.5980 C   0  0  0  0  0  0  0  0  0  0  0  0
   39.9590   24.5950   35.1510 C   0  0  0  0  0  0  0  0  0  0  0  0
   41.3040   24.5230   35.1080 N   0  0  0  0  0  0  0  0  0  0  0  0
   41.7350   23.6160   35.9150 O   0  0  0  0  0  0  0  0  0  0  0  0
   40.7150   23.0600   36.5170 C   0  0  0  0  0  0  0  0  0  0  0  0
   39.5900   23.6660   36.0470 N   0  0  0  0  0  0  0  0  0  0  0  0
   40.7850   21.9830   37.5130 C   0  0  0  0  0  0  0  0  0  0  0  0
   40.8829   26.2762   33.0648 H   0  0  0  0  0  0  0  0  0  0  0  0
   37.4150   25.0882   35.3666 H   0  0  0  0  0  0  0  0  0  0  0  0
   37.8428   28.1812   30.0791 H   0  0  0  0  0  0  0  0  0  0  0  0
   33.9332   31.2422   31.0380 H   0  0  0  0  0  0  0  0  0  0  0  0
   33.9248   29.8966   35.0269 H   0  0  0  0  0  0  0  0  0  0  0  0
   40.7569   22.4160   38.5238 H   0  0  0  0  0  0  0  0  0  0  0  0
   39.9290   21.3049   37.3806 H   0  0  0  0  0  0  0  0  0  0  0  0
   41.7215   21.4214   37.3806 H   0  0  0  0  0  0  0  0  0  0  0  0
  1  2  2  0
  2  3  1  0
  2 16  1  0
  4  3  2  0
  5  4  1  0
  6  5  2  0
  6  1  1  0
  7 15  1  0
  7  5  1  0
  8  7  1  0
  9  8  2  0
  9 10  1  0
 10 11  2  0
 10 15  1  0
 11 12  1  0
 12 13  2  0
 14 13  1  0
 15 14  2  0
 16 20  1  0
 17 16  2  0
 17 18  1  0
 18 19  1  0
 19 21  1  0
 20 19  2  0
  1 22  1  0
  3 23  1  0
  8 24  1  0
 11 25  1  0
 13 26  1  0
 21 27  1  0
 21 28  1  0
 21 29  1  0
M  ISO  8  22  14  23  14  24  14  25  14  26  14  27   8  28   8  29   8
M  END
>  <minimizedAffinity>  (1) 
-4.88410139

>  <minimizedRMSD>  (1) 
1.03573835

$$$$
