
     RDKit          3D

 30 33  0  0  0  0  0  0  0  0999 V2000
   38.3390   26.8980   33.2870 C   0  0  0  0  0  0  0  0  0  0  0  0
   38.8880   26.6660   34.5540 C   0  0  0  0  0  0  0  0  0  0  0  0
   38.2930   27.3210   35.6440 C   0  0  0  0  0  0  0  0  0  0  0  0
   37.2250   28.1380   35.4230 N   0  0  0  0  0  0  0  0  0  0  0  0
   36.7270   28.3300   34.1610 C   0  0  0  0  0  0  0  0  0  0  0  0
   37.3010   27.7060   33.1580 N   0  0  0  0  0  0  0  0  0  0  0  0
   35.6210   29.1770   33.9310 N   0  0  0  0  0  0  0  0  0  0  0  0
   34.6230   29.0600   33.0050 C   0  0  0  0  0  0  0  0  0  0  0  0
   33.7900   30.1030   33.1650 N   0  0  0  0  0  0  0  0  0  0  0  0
   34.2180   30.8960   34.1710 C   0  0  0  0  0  0  0  0  0  0  0  0
   33.7300   32.0670   34.7210 C   0  0  0  0  0  0  0  0  0  0  0  0
   34.4330   32.5970   35.7410 N   0  0  0  0  0  0  0  0  0  0  0  0
   35.5360   32.0130   36.1830 C   0  0  0  0  0  0  0  0  0  0  0  0
   36.0410   30.8710   35.6690 N   0  0  0  0  0  0  0  0  0  0  0  0
   35.3810   30.2800   34.6350 C   0  0  0  0  0  0  0  0  0  0  0  0
   40.0120   25.8200   34.8780 C   0  0  0  0  0  0  0  0  0  0  0  0
   41.2540   26.2570   34.6840 N   0  0  0  0  0  0  0  0  0  0  0  0
   42.1130   25.3550   35.0320 O   0  0  0  0  0  0  0  0  0  0  0  0
   41.4680   24.3020   35.4650 C   0  0  0  0  0  0  0  0  0  0  0  0
   40.1170   24.5620   35.3820 N   0  0  0  0  0  0  0  0  0  0  0  0
   42.2000   22.8040   36.0550 S   0  0  0  0  0  0  0  0  0  0  0  0
   41.0960   22.0240   37.2620 C   0  0  0  0  0  0  0  0  0  0  0  0
   40.6230   22.9430   38.1750 F   0  0  0  0  0  0  0  0  0  0  0  0
   39.9980   21.4720   36.5990 F   0  0  0  0  0  0  0  0  0  0  0  0
   41.7590   21.0210   37.9580 F   0  0  0  0  0  0  0  0  0  0  0  0
   38.7705   26.4090   32.4012 H   0  0  0  0  0  0  0  0  0  0  0  0
   38.6835   27.1767   36.6622 H   0  0  0  0  0  0  0  0  0  0  0  0
   34.5196   28.2560   32.2614 H   0  0  0  0  0  0  0  0  0  0  0  0
   32.8126   32.5427   34.3442 H   0  0  0  0  0  0  0  0  0  0  0  0
   36.0728   32.4861   37.0184 H   0  0  0  0  0  0  0  0  0  0  0  0
  1  2  2  0
  2 16  1  0
  2  3  1  0
  4  3  2  0
  5  4  1  0
  6  1  1  0
  6  5  2  0
  7  5  1  0
  7 15  1  0
  8  9  2  0
  8  7  1  0
  9 10  1  0
 10 15  2  0
 10 11  1  0
 11 12  2  0
 12 13  1  0
 14 13  2  0
 15 14  1  0
 16 20  1  0
 17 16  2  0
 17 18  1  0
 18 19  1  0
 19 21  1  0
 20 19  2  0
 21 22  1  0
 22 25  1  0
 22 23  1  0
 24 22  1  0
  1 26  1  0
  3 27  1  0
  8 28  1  0
 11 29  1  0
 13 30  1  0
M  ISO  5  26  14  27  14  28  14  29  14  30  14
M  END
>  <minimizedAffinity>  (1) 
-5.68110371

>  <minimizedRMSD>  (1) 
2.09781861

$$$$
