
     RDKit          3D

 34 38  0  0  0  0  0  0  0  0999 V2000
   39.5790   26.5480   33.1750 C   0  0  0  0  0  0  0  0  0  0  0  0
   39.0820   25.7640   34.2390 C   0  0  0  0  0  0  0  0  0  0  0  0
   37.7400   25.9270   34.6040 C   0  0  0  0  0  0  0  0  0  0  0  0
   36.9770   26.8260   33.9250 N   0  0  0  0  0  0  0  0  0  0  0  0
   37.5040   27.5650   32.8980 C   0  0  0  0  0  0  0  0  0  0  0  0
   38.7690   27.3970   32.5690 N   0  0  0  0  0  0  0  0  0  0  0  0
   36.7060   28.4980   32.1950 N   0  0  0  0  0  0  0  0  0  0  0  0
   36.7110   28.8270   30.8760 C   0  0  0  0  0  0  0  0  0  0  0  0
   35.7760   29.7650   30.6700 N   0  0  0  0  0  0  0  0  0  0  0  0
   35.1520   30.0640   31.8220 C   0  0  0  0  0  0  0  0  0  0  0  0
   34.1290   30.9500   32.1460 C   0  0  0  0  0  0  0  0  0  0  0  0
   33.7520   30.9800   33.4390 N   0  0  0  0  0  0  0  0  0  0  0  0
   34.3350   30.2020   34.3370 C   0  0  0  0  0  0  0  0  0  0  0  0
   35.3280   29.3300   34.0600 N   0  0  0  0  0  0  0  0  0  0  0  0
   35.7590   29.2500   32.7660 C   0  0  0  0  0  0  0  0  0  0  0  0
   39.8340   24.7970   34.9960 C   0  0  0  0  0  0  0  0  0  0  0  0
   41.1380   24.6090   34.7770 N   0  0  0  0  0  0  0  0  0  0  0  0
   41.5820   23.6950   35.5760 O   0  0  0  0  0  0  0  0  0  0  0  0
   40.6340   23.2550   36.3330 C   0  0  0  0  0  0  0  0  0  0  0  0
   39.5070   23.9320   35.9930 N   0  0  0  0  0  0  0  0  0  0  0  0
   40.8170   22.0070   37.5610 S   0  0  0  0  0  0  0  0  0  0  0  0
   42.2270   20.9860   37.1600 C   0  0  0  0  0  0  0  0  0  0  0  0
   43.1820   21.3760   36.2700 C   0  0  0  0  0  0  0  0  0  0  0  0
   44.1050   20.4090   36.1770 N   0  0  0  0  0  0  0  0  0  0  0  0
   43.7570   19.3970   36.9970 C   0  0  0  0  0  0  0  0  0  0  0  0
   42.6070   19.7690   37.5880 N   0  0  0  0  0  0  0  0  0  0  0  0
   40.6271   26.4529   32.8550 H   0  0  0  0  0  0  0  0  0  0  0  0
   37.3093   25.3375   35.4268 H   0  0  0  0  0  0  0  0  0  0  0  0
   37.3705   28.3965   30.1081 H   0  0  0  0  0  0  0  0  0  0  0  0
   33.6543   31.5906   31.3881 H   0  0  0  0  0  0  0  0  0  0  0  0
   33.9874   30.2703   35.3784 H   0  0  0  0  0  0  0  0  0  0  0  0
   43.1935   22.3278   35.7187 H   0  0  0  0  0  0  0  0  0  0  0  0
   44.3040   18.4553   37.1519 H   0  0  0  0  0  0  0  0  0  0  0  0
   42.0893   19.2005   38.2733 H   0  0  0  0  0  0  0  0  0  0  0  0
  1  2  2  0
  2  3  1  0
  2 16  1  0
  4  3  2  0
  5  4  1  0
  6  5  2  0
  6  1  1  0
  7 15  1  0
  7  5  1  0
  8  7  1  0
  9  8  2  0
  9 10  1  0
 10 11  2  0
 10 15  1  0
 11 12  1  0
 12 13  2  0
 14 13  1  0
 15 14  2  0
 16 20  1  0
 17 16  2  0
 17 18  1  0
 18 19  1  0
 19 21  1  0
 20 19  2  0
 22 21  1  0
 22 26  1  0
 23 22  2  0
 24 23  1  0
 24 25  2  0
 25 26  1  0
  1 27  1  0
  3 28  1  0
  8 29  1  0
 11 30  1  0
 13 31  1  0
 23 32  1  0
 25 33  1  0
 26 34  1  0
M  ISO  8  27  14  28  14  29  14  30  14  31  14  32  14  33  14  34   9
M  END
>  <minimizedAffinity>  (1) 
-5.39821005

>  <minimizedRMSD>  (1) 
0.73642838

$$$$
