
     RDKit          3D

 35 39  0  0  0  0  0  0  0  0999 V2000
   39.5500   26.6240   33.2060 C   0  0  0  0  0  0  0  0  0  0  0  0
   39.1280   25.7950   34.2620 C   0  0  0  0  0  0  0  0  0  0  0  0
   37.7870   25.8840   34.6650 C   0  0  0  0  0  0  0  0  0  0  0  0
   36.9670   26.7600   34.0200 N   0  0  0  0  0  0  0  0  0  0  0  0
   37.4170   27.5400   33.0080 C   0  0  0  0  0  0  0  0  0  0  0  0
   38.6790   27.4490   32.6360 N   0  0  0  0  0  0  0  0  0  0  0  0
   36.5650   28.4520   32.3370 N   0  0  0  0  0  0  0  0  0  0  0  0
   36.5340   28.8200   31.0250 C   0  0  0  0  0  0  0  0  0  0  0  0
   35.5460   29.7180   30.8630 N   0  0  0  0  0  0  0  0  0  0  0  0
   34.9270   29.9460   32.0450 C   0  0  0  0  0  0  0  0  0  0  0  0
   33.8710   30.7660   32.4030 C   0  0  0  0  0  0  0  0  0  0  0  0
   33.5100   30.7430   33.6950 N   0  0  0  0  0  0  0  0  0  0  0  0
   34.1420   29.9670   34.5730 C   0  0  0  0  0  0  0  0  0  0  0  0
   35.1750   29.1570   34.2520 N   0  0  0  0  0  0  0  0  0  0  0  0
   35.5900   29.1370   32.9470 C   0  0  0  0  0  0  0  0  0  0  0  0
   39.9350   24.8420   34.9940 C   0  0  0  0  0  0  0  0  0  0  0  0
   41.2540   24.9330   34.9690 N   0  0  0  0  0  0  0  0  0  0  0  0
   41.7820   23.9950   35.6810 O   0  0  0  0  0  0  0  0  0  0  0  0
   40.8350   23.2570   36.1970 C   0  0  0  0  0  0  0  0  0  0  0  0
   39.6500   23.7730   35.7770 N   0  0  0  0  0  0  0  0  0  0  0  0
   41.0420   21.8450   37.2490 S   0  0  0  0  0  0  0  0  0  0  0  0
   42.6010   21.0560   36.8690 C   0  0  0  0  0  0  0  0  0  0  0  0
   42.9670   19.7570   37.1540 C   0  0  0  0  0  0  0  0  0  0  0  0
   44.2160   19.2970   36.7920 C   0  0  0  0  0  0  0  0  0  0  0  0
   45.1090   20.0990   36.1530 N   0  0  0  0  0  0  0  0  0  0  0  0
   44.7390   21.3680   35.8800 C   0  0  0  0  0  0  0  0  0  0  0  0
   43.5160   21.8400   36.2280 N   0  0  0  0  0  0  0  0  0  0  0  0
   40.5921   26.5890   32.8557 H   0  0  0  0  0  0  0  0  0  0  0  0
   37.4053   25.2588   35.4856 H   0  0  0  0  0  0  0  0  0  0  0  0
   37.2020   28.4468   30.2348 H   0  0  0  0  0  0  0  0  0  0  0  0
   33.3557   31.4020   31.6682 H   0  0  0  0  0  0  0  0  0  0  0  0
   33.8040   29.9863   35.6196 H   0  0  0  0  0  0  0  0  0  0  0  0
   42.2628   19.0878   37.6700 H   0  0  0  0  0  0  0  0  0  0  0  0
   44.4957   18.2590   37.0253 H   0  0  0  0  0  0  0  0  0  0  0  0
   45.4454   22.0346   35.3635 H   0  0  0  0  0  0  0  0  0  0  0  0
  1  2  2  0
  2  3  1  0
  2 16  1  0
  4  3  2  0
  5  4  1  0
  6  5  2  0
  6  1  1  0
  7 15  1  0
  7  5  1  0
  8  7  1  0
  9  8  2  0
  9 10  1  0
 10 11  2  0
 10 15  1  0
 11 12  1  0
 12 13  2  0
 14 13  1  0
 15 14  2  0
 16 20  1  0
 17 16  2  0
 17 18  1  0
 18 19  1  0
 19 21  1  0
 20 19  2  0
 22 23  2  0
 22 21  1  0
 24 23  1  0
 25 24  2  0
 26 25  1  0
 26 27  2  0
 27 22  1  0
  1 28  1  0
  3 29  1  0
  8 30  1  0
 11 31  1  0
 13 32  1  0
 23 33  1  0
 24 34  1  0
 26 35  1  0
M  ISO  8  28  14  29  14  30  14  31  14  32  14  33  14  34  14  35  14
M  END
>  <minimizedAffinity>  (1) 
-5.25759792

>  <minimizedRMSD>  (1) 
0.770023763

$$$$
