
     RDKit          3D

 34 38  0  0  0  0  0  0  0  0999 V2000
   39.4970   26.6560   33.1880 C   0  0  0  0  0  0  0  0  0  0  0  0
   39.0780   25.8320   34.2360 C   0  0  0  0  0  0  0  0  0  0  0  0
   37.7340   25.9200   34.6550 C   0  0  0  0  0  0  0  0  0  0  0  0
   36.9160   26.8040   34.0140 N   0  0  0  0  0  0  0  0  0  0  0  0
   37.3610   27.5880   33.0010 C   0  0  0  0  0  0  0  0  0  0  0  0
   38.6230   27.4780   32.6360 N   0  0  0  0  0  0  0  0  0  0  0  0
   36.5230   28.5070   32.3300 N   0  0  0  0  0  0  0  0  0  0  0  0
   36.5010   28.8870   31.0290 C   0  0  0  0  0  0  0  0  0  0  0  0
   35.5180   29.7920   30.8760 N   0  0  0  0  0  0  0  0  0  0  0  0
   34.8910   30.0140   32.0590 C   0  0  0  0  0  0  0  0  0  0  0  0
   33.8330   30.8420   32.4250 C   0  0  0  0  0  0  0  0  0  0  0  0
   33.4770   30.8010   33.7060 N   0  0  0  0  0  0  0  0  0  0  0  0
   34.1020   30.0120   34.5780 C   0  0  0  0  0  0  0  0  0  0  0  0
   35.1290   29.1990   34.2570 N   0  0  0  0  0  0  0  0  0  0  0  0
   35.5490   29.1910   32.9530 C   0  0  0  0  0  0  0  0  0  0  0  0
   39.8650   24.8670   34.9750 C   0  0  0  0  0  0  0  0  0  0  0  0
   41.1910   24.9160   34.9160 N   0  0  0  0  0  0  0  0  0  0  0  0
   41.7180   23.9840   35.6340 O   0  0  0  0  0  0  0  0  0  0  0  0
   40.7680   23.2890   36.1900 C   0  0  0  0  0  0  0  0  0  0  0  0
   39.5800   23.8250   35.7910 N   0  0  0  0  0  0  0  0  0  0  0  0
   41.0000   21.9050   37.2650 S   0  0  0  0  0  0  0  0  0  0  0  0
   42.2510   20.8600   36.5270 C   0  0  0  0  0  0  0  0  0  0  0  0
   42.9030   19.9830   37.3970 C   0  0  0  0  0  0  0  0  0  0  0  0
   43.8220   19.2690   36.6460 C   0  0  0  0  0  0  0  0  0  0  0  0
   43.6730   19.7560   35.3660 C   0  0  0  0  0  0  0  0  0  0  0  0
   42.7570   20.6700   35.3400 O   0  0  0  0  0  0  0  0  0  0  0  0
   40.5362   26.6206   32.8292 H   0  0  0  0  0  0  0  0  0  0  0  0
   37.3558   25.2931   35.4760 H   0  0  0  0  0  0  0  0  0  0  0  0
   37.1701   28.5195   30.2370 H   0  0  0  0  0  0  0  0  0  0  0  0
   33.3223   31.4910   31.6984 H   0  0  0  0  0  0  0  0  0  0  0  0
   33.7599   30.0242   35.6234 H   0  0  0  0  0  0  0  0  0  0  0  0
   42.7207   19.8789   38.4768 H   0  0  0  0  0  0  0  0  0  0  0  0
   44.5150   18.4886   36.9935 H   0  0  0  0  0  0  0  0  0  0  0  0
   44.2492   19.4171   34.4924 H   0  0  0  0  0  0  0  0  0  0  0  0
  1  2  2  0
  2  3  1  0
  2 16  1  0
  4  3  2  0
  5  4  1  0
  6  5  2  0
  6  1  1  0
  7 15  1  0
  7  5  1  0
  8  7  1  0
  9  8  2  0
  9 10  1  0
 10 11  2  0
 10 15  1  0
 11 12  1  0
 12 13  2  0
 14 13  1  0
 15 14  2  0
 16 20  1  0
 17 16  2  0
 17 18  1  0
 18 19  1  0
 19 21  1  0
 20 19  2  0
 22 21  1  0
 22 23  2  0
 24 23  1  0
 25 24  2  0
 26 25  1  0
 26 22  1  0
  1 27  1  0
  3 28  1  0
  8 29  1  0
 11 30  1  0
 13 31  1  0
 23 32  1  0
 24 33  1  0
 25 34  1  0
M  ISO  8  27  14  28  14  29  14  30  14  31  14  32  14  33  14  34  14
M  END
>  <minimizedAffinity>  (1) 
-5.03069353

>  <minimizedRMSD>  (1) 
0.989082992

$$$$
