
     RDKit          3D

 33 36  0  0  0  0  0  0  0  0999 V2000
   37.3190   22.0490   34.8390 C   0  0  0  0  0  0  0  0  0  0  0  0
   36.3760   21.0280   34.9400 C   0  0  0  0  0  0  0  0  0  0  0  0
   35.6300   20.5600   33.8780 C   0  0  0  0  0  0  0  0  0  0  0  0
   35.8430   21.1510   32.6420 C   0  0  0  0  0  0  0  0  0  0  0  0
   36.7640   22.1560   32.5140 C   0  0  0  0  0  0  0  0  0  0  0  0
   37.4850   22.5890   33.6090 C   0  0  0  0  0  0  0  0  0  0  0  0
   37.4590   23.1420   37.1260 C   0  0  0  0  0  0  0  0  0  0  0  0
   38.0230   22.4280   36.0500 C   0  0  0  0  0  0  0  0  0  0  0  0
   39.3710   22.0700   36.1880 C   0  0  0  0  0  0  0  0  0  0  0  0
   40.0680   22.4100   37.3180 N   0  0  0  0  0  0  0  0  0  0  0  0
   39.4550   23.0980   38.3100 C   0  0  0  0  0  0  0  0  0  0  0  0
   38.1600   23.4650   38.2210 N   0  0  0  0  0  0  0  0  0  0  0  0
   38.4400   23.6310   33.4730 N   0  0  0  0  0  0  0  0  0  0  0  0
   39.5980   23.3830   32.8370 C   0  0  0  0  0  0  0  0  0  0  0  0
   40.3400   24.4920   32.8240 N   0  0  0  0  0  0  0  0  0  0  0  0
   39.6830   25.4710   33.4460 C   0  0  0  0  0  0  0  0  0  0  0  0
   39.8870   26.8040   33.7620 C   0  0  0  0  0  0  0  0  0  0  0  0
   38.9360   27.5000   34.4370 N   0  0  0  0  0  0  0  0  0  0  0  0
   37.7810   26.9020   34.8080 C   0  0  0  0  0  0  0  0  0  0  0  0
   37.5600   25.6000   34.5100 N   0  0  0  0  0  0  0  0  0  0  0  0
   38.5010   24.9210   33.8450 C   0  0  0  0  0  0  0  0  0  0  0  0
   41.1180   27.3950   33.3530 N   0  0  0  0  0  0  0  0  0  0  0  0
   36.2168   20.5673   35.9261 H   0  0  0  0  0  0  0  0  0  0  0  0
   34.8960   19.7508   34.0066 H   0  0  0  0  0  0  0  0  0  0  0  0
   35.2723   20.8126   31.7646 H   0  0  0  0  0  0  0  0  0  0  0  0
   36.9307   22.6219   31.5316 H   0  0  0  0  0  0  0  0  0  0  0  0
   36.4035   23.4456   37.0645 H   0  0  0  0  0  0  0  0  0  0  0  0
   39.8731   21.5122   35.3837 H   0  0  0  0  0  0  0  0  0  0  0  0
   40.0272   23.3643   39.2109 H   0  0  0  0  0  0  0  0  0  0  0  0
   39.8883   22.4177   32.3966 H   0  0  0  0  0  0  0  0  0  0  0  0
   37.0180   27.4760   35.3542 H   0  0  0  0  0  0  0  0  0  0  0  0
   41.3109   28.3838   33.5674 H   0  0  0  0  0  0  0  0  0  0  0  0
   41.8146   26.8332   32.8431 H   0  0  0  0  0  0  0  0  0  0  0  0
  1  2  2  0
  1  8  1  0
  3  2  1  0
  4  3  2  0
  5  4  1  0
  5  6  2  0
  6  1  1  0
  7 12  2  0
  8  9  2  0
  8  7  1  0
  9 10  1  0
 10 11  2  0
 12 11  1  0
 13  6  1  0
 13 21  1  0
 14 13  1  0
 15 14  2  0
 15 16  1  0
 16 17  2  0
 16 21  1  0
 17 18  1  0
 18 19  2  0
 20 19  1  0
 21 20  2  0
 22 17  1  0
  2 23  1  0
  3 24  1  0
  4 25  1  0
  5 26  1  0
  7 27  1  0
  9 28  1  0
 11 29  1  0
 14 30  1  0
 19 31  1  0
 22 32  1  0
 22 33  1  0
M  ISO  8  23  14  24  14  25  14  26  14  27  14  28  14  29  14  30  14
M  ISO  1  31  14
M  END
>  <minimizedAffinity>  (1) 
-5.06779575

>  <minimizedRMSD>  (1) 
1.26056099

$$$$
