
     RDKit          3D

 34 37  0  0  0  0  0  0  0  0999 V2000
   37.2540   22.0120   34.6860 C   0  0  0  0  0  0  0  0  0  0  0  0
   36.3510   20.9600   34.7850 C   0  0  0  0  0  0  0  0  0  0  0  0
   35.5730   20.5430   33.7240 C   0  0  0  0  0  0  0  0  0  0  0  0
   35.6940   21.1900   32.5260 C   0  0  0  0  0  0  0  0  0  0  0  0
   36.5720   22.2240   32.4050 C   0  0  0  0  0  0  0  0  0  0  0  0
   37.3530   22.6410   33.4710 C   0  0  0  0  0  0  0  0  0  0  0  0
   38.2970   23.7470   33.3540 C   0  0  0  0  0  0  0  0  0  0  0  0
   39.4880   23.6420   32.6300 C   0  0  0  0  0  0  0  0  0  0  0  0
   40.1690   24.7950   32.6810 N   0  0  0  0  0  0  0  0  0  0  0  0
   39.4700   25.6580   33.4140 C   0  0  0  0  0  0  0  0  0  0  0  0
   39.6520   26.9610   33.8080 C   0  0  0  0  0  0  0  0  0  0  0  0
   38.7220   27.6280   34.5970 C   0  0  0  0  0  0  0  0  0  0  0  0
   37.5850   26.9660   34.9960 C   0  0  0  0  0  0  0  0  0  0  0  0
   37.3510   25.6510   34.6260 C   0  0  0  0  0  0  0  0  0  0  0  0
   38.3050   25.0440   33.8460 C   0  0  0  0  0  0  0  0  0  0  0  0
   37.5320   23.0180   37.0040 C   0  0  0  0  0  0  0  0  0  0  0  0
   38.0190   22.3540   35.8820 C   0  0  0  0  0  0  0  0  0  0  0  0
   39.3910   21.9750   35.9050 C   0  0  0  0  0  0  0  0  0  0  0  0
   40.1500   22.2750   37.0070 N   0  0  0  0  0  0  0  0  0  0  0  0
   39.6130   22.9170   38.0530 C   0  0  0  0  0  0  0  0  0  0  0  0
   38.3020   23.2940   38.0620 N   0  0  0  0  0  0  0  0  0  0  0  0
   36.2524   20.4384   35.7484 H   0  0  0  0  0  0  0  0  0  0  0  0
   34.8689   19.7059   33.8402 H   0  0  0  0  0  0  0  0  0  0  0  0
   35.0856   20.8773   31.6645 H   0  0  0  0  0  0  0  0  0  0  0  0
   36.6634   22.7404   31.4381 H   0  0  0  0  0  0  0  0  0  0  0  0
   39.8194   22.7404   32.0941 H   0  0  0  0  0  0  0  0  0  0  0  0
   41.0765   24.9810   32.2307 H   0  0  0  0  0  0  0  0  0  0  0  0
   40.5608   27.4927   33.4897 H   0  0  0  0  0  0  0  0  0  0  0  0
   38.8935   28.6720   34.8982 H   0  0  0  0  0  0  0  0  0  0  0  0
   36.8469   27.4901   35.6209 H   0  0  0  0  0  0  0  0  0  0  0  0
   36.4426   25.1176   34.9426 H   0  0  0  0  0  0  0  0  0  0  0  0
   36.4764   23.3267   37.0212 H   0  0  0  0  0  0  0  0  0  0  0  0
   39.8371   21.4477   35.0489 H   0  0  0  0  0  0  0  0  0  0  0  0
   40.2438   23.1454   38.9248 H   0  0  0  0  0  0  0  0  0  0  0  0
  1  2  2  0
  1 17  1  0
  3  2  1  0
  4  3  2  0
  5  4  1  0
  5  6  2  0
  6  1  1  0
  7  6  1  0
  7 15  1  0
  8  9  1  0
  8  7  2  0
  9 10  1  0
 10 11  1  0
 10 15  2  0
 11 12  2  0
 12 13  1  0
 14 13  2  0
 15 14  1  0
 16 21  2  0
 17 18  2  0
 17 16  1  0
 18 19  1  0
 19 20  2  0
 20 21  1  0
  2 22  1  0
  3 23  1  0
  4 24  1  0
  5 25  1  0
  8 26  1  0
  9 27  1  0
 11 28  1  0
 12 29  1  0
 13 30  1  0
 14 31  1  0
 16 32  1  0
 18 33  1  0
 20 34  1  0
M  ISO  8  22  14  23  14  24  14  25  14  26  14  27   9  28  14  29  14
M  ISO  5  30  14  31  14  32  14  33  14  34  14
M  END
>  <minimizedAffinity>  (1) 
-4.98736858

>  <minimizedRMSD>  (1) 
1.17359746

$$$$
