
     RDKit          3D

 36 38  0  0  0  0  0  0  0  0999 V2000
   37.8890   22.9790   34.4760 C   0  0  0  0  0  0  0  0  0  0  0  0
   37.5470   21.6870   34.0630 C   0  0  0  0  0  0  0  0  0  0  0  0
   37.2180   21.3630   32.7570 C   0  0  0  0  0  0  0  0  0  0  0  0
   37.2310   22.3710   31.8320 C   0  0  0  0  0  0  0  0  0  0  0  0
   37.5590   23.6350   32.2040 C   0  0  0  0  0  0  0  0  0  0  0  0
   37.8840   23.9300   33.5150 C   0  0  0  0  0  0  0  0  0  0  0  0
   37.4060   23.7480   36.8450 C   0  0  0  0  0  0  0  0  0  0  0  0
   38.2120   23.1640   35.8730 C   0  0  0  0  0  0  0  0  0  0  0  0
   39.4810   22.7070   36.3190 C   0  0  0  0  0  0  0  0  0  0  0  0
   39.8460   22.8520   37.6310 N   0  0  0  0  0  0  0  0  0  0  0  0
   38.9950   23.4340   38.5080 C   0  0  0  0  0  0  0  0  0  0  0  0
   37.7780   23.8810   38.1170 N   0  0  0  0  0  0  0  0  0  0  0  0
   38.2390   25.3220   33.9040 C   0  0  0  0  0  0  0  0  0  0  0  0
   39.5980   25.2880   34.5180 C   0  0  0  0  0  0  0  0  0  0  0  0
   40.0920   26.6420   34.9530 C   0  0  0  0  0  0  0  0  0  0  0  0
   39.0680   27.1730   35.9360 C   0  0  0  0  0  0  0  0  0  0  0  0
   37.7740   27.3380   35.1680 C   0  0  0  0  0  0  0  0  0  0  0  0
   37.2070   25.9980   34.7530 C   0  0  0  0  0  0  0  0  0  0  0  0
   37.5389   20.8851   34.8159 H   0  0  0  0  0  0  0  0  0  0  0  0
   36.9559   20.3329   32.4739 H   0  0  0  0  0  0  0  0  0  0  0  0
   36.9750   22.1568   30.7839 H   0  0  0  0  0  0  0  0  0  0  0  0
   37.5662   24.4366   31.4507 H   0  0  0  0  0  0  0  0  0  0  0  0
   36.4133   24.1179   36.5487 H   0  0  0  0  0  0  0  0  0  0  0  0
   40.1738   22.2344   35.6071 H   0  0  0  0  0  0  0  0  0  0  0  0
   39.2981   23.5461   39.5595 H   0  0  0  0  0  0  0  0  0  0  0  0
   38.2597   25.9566   33.0058 H   0  0  0  0  0  0  0  0  0  0  0  0
   39.5665   24.6291   35.3983 H   0  0  0  0  0  0  0  0  0  0  0  0
   40.2928   24.9209   33.7483 H   0  0  0  0  0  0  0  0  0  0  0  0
   41.0747   26.5509   35.4388 H   0  0  0  0  0  0  0  0  0  0  0  0
   40.2103   27.3192   34.0942 H   0  0  0  0  0  0  0  0  0  0  0  0
   38.9303   26.4602   36.7624 H   0  0  0  0  0  0  0  0  0  0  0  0
   39.3951   28.1289   36.3710 H   0  0  0  0  0  0  0  0  0  0  0  0
   37.0420   27.8549   35.8059 H   0  0  0  0  0  0  0  0  0  0  0  0
   37.9810   27.9239   34.2603 H   0  0  0  0  0  0  0  0  0  0  0  0
   36.2814   26.1430   34.1766 H   0  0  0  0  0  0  0  0  0  0  0  0
   36.9667   25.3865   35.6352 H   0  0  0  0  0  0  0  0  0  0  0  0
  1  8  1  0
  2  1  2  0
  3  2  1  0
  4  5  1  0
  4  3  2  0
  5  6  2  0
  6 13  1  0
  6  1  1  0
  7 12  2  0
  8  9  2  0
  8  7  1  0
  9 10  1  0
 10 11  2  0
 12 11  1  0
 13 14  1  0
 13 18  1  0
 14 15  1  0
 15 16  1  0
 17 16  1  0
 18 17  1  0
  2 19  1  0
  3 20  1  0
  4 21  1  0
  5 22  1  0
  7 23  1  0
  9 24  1  0
 11 25  1  0
 13 26  1  0
 14 27  1  0
 14 28  1  0
 15 29  1  0
 15 30  1  0
 16 31  1  0
 16 32  1  0
 17 33  1  0
 17 34  1  0
 18 35  1  0
 18 36  1  0
M  ISO  8  19  14  20  14  21  14  22  14  23  14  24  14  25  14  26  13
M  ISO  8  27  13  28  13  29  13  30  13  31  13  32  13  33  13  34  13
M  ISO  2  35  13  36  13
M  END
>  <minimizedAffinity>  (1) 
-4.91115999

>  <minimizedRMSD>  (1) 
1.64686918

$$$$
