
     RDKit          3D

 23 24  0  0  0  0  0  0  0  0999 V2000
   38.3280   24.8090   34.6210 C   0  0  0  0  0  0  0  0  0  0  0  0
   37.8280   24.0700   33.5440 C   0  0  0  0  0  0  0  0  0  0  0  0
   37.1050   24.6360   32.5110 C   0  0  0  0  0  0  0  0  0  0  0  0
   36.8700   25.9880   32.5480 C   0  0  0  0  0  0  0  0  0  0  0  0
   37.3460   26.7250   33.5830 C   0  0  0  0  0  0  0  0  0  0  0  0
   38.0650   26.1340   34.6030 C   0  0  0  0  0  0  0  0  0  0  0  0
   38.5510   23.5440   36.8090 C   0  0  0  0  0  0  0  0  0  0  0  0
   39.0700   24.0790   35.6330 C   0  0  0  0  0  0  0  0  0  0  0  0
   40.4560   23.8850   35.4160 C   0  0  0  0  0  0  0  0  0  0  0  0
   41.2100   23.2050   36.3340 N   0  0  0  0  0  0  0  0  0  0  0  0
   40.6230   22.7150   37.4540 C   0  0  0  0  0  0  0  0  0  0  0  0
   39.2890   22.8830   37.6960 N   0  0  0  0  0  0  0  0  0  0  0  0
   38.5940   26.9320   35.7460 C   0  0  0  0  0  0  0  0  0  0  0  0
   38.0770   28.2140   35.7420 F   0  0  0  0  0  0  0  0  0  0  0  0
   38.2090   26.3570   36.9200 F   0  0  0  0  0  0  0  0  0  0  0  0
   39.9630   27.0700   35.6810 F   0  0  0  0  0  0  0  0  0  0  0  0
   38.0192   22.9871   33.5179 H   0  0  0  0  0  0  0  0  0  0  0  0
   36.7280   24.0197   31.6815 H   0  0  0  0  0  0  0  0  0  0  0  0
   36.2984   26.4717   31.7422 H   0  0  0  0  0  0  0  0  0  0  0  0
   37.1565   27.8082   33.6099 H   0  0  0  0  0  0  0  0  0  0  0  0
   37.4782   23.6745   37.0144 H   0  0  0  0  0  0  0  0  0  0  0  0
   40.9287   24.2825   34.5057 H   0  0  0  0  0  0  0  0  0  0  0  0
   41.2362   22.1687   38.1858 H   0  0  0  0  0  0  0  0  0  0  0  0
  1  8  1  0
  2  1  2  0
  3  4  2  0
  3  2  1  0
  4  5  1  0
  5  6  2  0
  6  1  1  0
  6 13  1  0
  7 12  2  0
  8  7  1  0
  9  8  2  0
  9 10  1  0
 10 11  2  0
 11 12  1  0
 13 15  1  0
 14 13  1  0
 16 13  1  0
  2 17  1  0
  3 18  1  0
  4 19  1  0
  5 20  1  0
  7 21  1  0
  9 22  1  0
 11 23  1  0
M  ISO  7  17  14  18  14  19  14  20  14  21  14  22  14  23  14
M  END
>  <minimizedAffinity>  (1) 
-4.6718297

>  <minimizedRMSD>  (1) 
2.68952608

$$$$
