
     RDKit          3D

 30 32  0  0  0  0  0  0  0  0999 V2000
   37.0390   21.9780   33.1700 C   0  0  0  0  0  0  0  0  0  0  0  0
   36.3160   20.9750   33.8010 C   0  0  0  0  0  0  0  0  0  0  0  0
   35.2680   20.3010   33.2180 C   0  0  0  0  0  0  0  0  0  0  0  0
   34.9200   20.6460   31.9270 C   0  0  0  0  0  0  0  0  0  0  0  0
   35.6140   21.6340   31.2690 C   0  0  0  0  0  0  0  0  0  0  0  0
   36.6540   22.2770   31.9010 C   0  0  0  0  0  0  0  0  0  0  0  0
   38.0250   23.8190   34.6210 C   0  0  0  0  0  0  0  0  0  0  0  0
   38.1230   22.6000   33.9200 C   0  0  0  0  0  0  0  0  0  0  0  0
   39.3610   21.9380   33.9460 C   0  0  0  0  0  0  0  0  0  0  0  0
   40.3990   22.5010   34.6450 N   0  0  0  0  0  0  0  0  0  0  0  0
   40.2460   23.6720   35.2980 C   0  0  0  0  0  0  0  0  0  0  0  0
   39.0610   24.3310   35.2880 N   0  0  0  0  0  0  0  0  0  0  0  0
   37.3830   23.3050   31.2290 N   0  0  0  0  0  0  0  0  0  0  0  0
   38.4860   22.9000   30.5800 C   0  0  0  0  0  0  0  0  0  0  0  0
   39.2640   23.8100   29.8990 C   0  0  0  0  0  0  0  0  0  0  0  0
   38.9280   25.1540   29.8690 C   0  0  0  0  0  0  0  0  0  0  0  0
   39.6230   26.0050   29.2530 O   0  0  0  0  0  0  0  0  0  0  0  0
   37.8130   25.5060   30.5370 N   0  0  0  0  0  0  0  0  0  0  0  0
   37.0510   24.6180   31.2030 C   0  0  0  0  0  0  0  0  0  0  0  0
   36.0010   24.9190   31.8370 O   0  0  0  0  0  0  0  0  0  0  0  0
   36.5980   20.7028   34.8288 H   0  0  0  0  0  0  0  0  0  0  0  0
   34.7255   19.5137   33.7619 H   0  0  0  0  0  0  0  0  0  0  0  0
   34.0878   20.1306   31.4251 H   0  0  0  0  0  0  0  0  0  0  0  0
   35.3388   21.9098   30.2403 H   0  0  0  0  0  0  0  0  0  0  0  0
   37.0688   24.3627   34.6181 H   0  0  0  0  0  0  0  0  0  0  0  0
   39.4965   20.9842   33.4150 H   0  0  0  0  0  0  0  0  0  0  0  0
   41.0974   24.0994   35.8480 H   0  0  0  0  0  0  0  0  0  0  0  0
   38.7696   21.8373   30.5921 H   0  0  0  0  0  0  0  0  0  0  0  0
   40.1653   23.4648   29.3712 H   0  0  0  0  0  0  0  0  0  0  0  0
   37.5311   26.4967   30.5385 H   0  0  0  0  0  0  0  0  0  0  0  0
  1  2  2  0
  1  8  1  0
  3  2  1  0
  4  3  2  0
  5  6  2  0
  5  4  1  0
  6  1  1  0
  7 12  2  0
  8  9  2  0
  8  7  1  0
  9 10  1  0
 10 11  2  0
 12 11  1  0
 13  6  1  0
 14 13  1  0
 15 14  2  0
 16 15  1  0
 16 18  1  0
 17 16  2  0
 18 19  1  0
 19 13  1  0
 19 20  2  0
  2 21  1  0
  3 22  1  0
  4 23  1  0
  5 24  1  0
  7 25  1  0
  9 26  1  0
 11 27  1  0
 14 28  1  0
 15 29  1  0
 18 30  1  0
M  ISO  8  21  14  22  14  23  14  24  14  25  14  26  14  27  14  28  14
M  ISO  2  29  14  30   9
M  END
>  <minimizedAffinity>  (1) 
-4.57528973

>  <minimizedRMSD>  (1) 
3.11722946

$$$$
