
     RDKit          3D

 27 29  0  0  0  0  0  0  0  0999 V2000
   38.0130   23.0740   34.7580 C   0  0  0  0  0  0  0  0  0  0  0  0
   37.7830   21.8410   34.1640 C   0  0  0  0  0  0  0  0  0  0  0  0
   37.4710   21.6650   32.8310 C   0  0  0  0  0  0  0  0  0  0  0  0
   37.3870   22.7830   32.0480 C   0  0  0  0  0  0  0  0  0  0  0  0
   37.6050   24.0190   32.5830 C   0  0  0  0  0  0  0  0  0  0  0  0
   37.9130   24.1420   33.9230 C   0  0  0  0  0  0  0  0  0  0  0  0
   37.4290   23.4170   37.1940 C   0  0  0  0  0  0  0  0  0  0  0  0
   38.3310   23.1070   36.1790 C   0  0  0  0  0  0  0  0  0  0  0  0
   39.6470   22.8050   36.5590 C   0  0  0  0  0  0  0  0  0  0  0  0
   39.9840   22.8270   37.8890 N   0  0  0  0  0  0  0  0  0  0  0  0
   39.0650   23.1350   38.8280 C   0  0  0  0  0  0  0  0  0  0  0  0
   37.7750   23.4330   38.4860 N   0  0  0  0  0  0  0  0  0  0  0  0
   38.1490   25.4640   34.4970 C   0  0  0  0  0  0  0  0  0  0  0  0
   37.3140   26.4720   34.9780 C   0  0  0  0  0  0  0  0  0  0  0  0
   38.1180   27.5220   35.4080 C   0  0  0  0  0  0  0  0  0  0  0  0
   39.4080   27.1030   35.1680 C   0  0  0  0  0  0  0  0  0  0  0  0
   39.3870   25.9010   34.6380 O   0  0  0  0  0  0  0  0  0  0  0  0
   37.8541   20.9445   34.7975 H   0  0  0  0  0  0  0  0  0  0  0  0
   37.2963   20.6623   32.4138 H   0  0  0  0  0  0  0  0  0  0  0  0
   37.1421   22.6852   30.9801 H   0  0  0  0  0  0  0  0  0  0  0  0
   37.5355   24.9148   31.9485 H   0  0  0  0  0  0  0  0  0  0  0  0
   36.3907   23.6583   36.9223 H   0  0  0  0  0  0  0  0  0  0  0  0
   40.4010   22.5531   35.7987 H   0  0  0  0  0  0  0  0  0  0  0  0
   39.3590   23.1465   39.8879 H   0  0  0  0  0  0  0  0  0  0  0  0
   36.2149   26.4419   35.0113 H   0  0  0  0  0  0  0  0  0  0  0  0
   37.7944   28.4784   35.8445 H   0  0  0  0  0  0  0  0  0  0  0  0
   40.3156   27.6849   35.3864 H   0  0  0  0  0  0  0  0  0  0  0  0
  1  8  1  0
  2  1  2  0
  3  2  1  0
  4  5  1  0
  4  3  2  0
  5  6  2  0
  6 13  1  0
  6  1  1  0
  7 12  2  0
  8  9  2  0
  8  7  1  0
  9 10  1  0
 10 11  2  0
 12 11  1  0
 13 17  1  0
 13 14  2  0
 14 15  1  0
 16 15  2  0
 17 16  1  0
  2 18  1  0
  3 19  1  0
  4 20  1  0
  5 21  1  0
  7 22  1  0
  9 23  1  0
 11 24  1  0
 14 25  1  0
 15 26  1  0
 16 27  1  0
M  ISO  8  18  14  19  14  20  14  21  14  22  14  23  14  24  14  25  14
M  ISO  2  26  14  27  14
M  END
>  <minimizedAffinity>  (1) 
-4.57205391

>  <minimizedRMSD>  (1) 
1.45320749

$$$$
