
     RDKit          3D

 32 34  0  0  0  0  0  0  0  0999 V2000
   37.8520   23.5470   34.0370 C   0  0  0  0  0  0  0  0  0  0  0  0
   37.5280   22.3890   33.3430 C   0  0  0  0  0  0  0  0  0  0  0  0
   37.0270   22.3680   32.0570 C   0  0  0  0  0  0  0  0  0  0  0  0
   36.8440   23.5950   31.4350 C   0  0  0  0  0  0  0  0  0  0  0  0
   37.1500   24.7480   32.0810 C   0  0  0  0  0  0  0  0  0  0  0  0
   37.6460   24.7040   33.3630 C   0  0  0  0  0  0  0  0  0  0  0  0
   37.6200   23.4510   36.5660 C   0  0  0  0  0  0  0  0  0  0  0  0
   38.3690   23.4020   35.3850 C   0  0  0  0  0  0  0  0  0  0  0  0
   39.7680   23.1890   35.5200 C   0  0  0  0  0  0  0  0  0  0  0  0
   40.2960   23.0460   36.7800 N   0  0  0  0  0  0  0  0  0  0  0  0
   39.5070   23.1050   37.8790 C   0  0  0  0  0  0  0  0  0  0  0  0
   38.1640   23.3080   37.7750 N   0  0  0  0  0  0  0  0  0  0  0  0
   37.9700   25.9220   34.0520 N   0  0  0  0  0  0  0  0  0  0  0  0
   37.3160   26.7320   35.0740 C   0  0  0  0  0  0  0  0  0  0  0  0
   38.4690   27.0170   36.0130 C   0  0  0  0  0  0  0  0  0  0  0  0
   39.7420   26.8060   35.2040 C   0  0  0  0  0  0  0  0  0  0  0  0
   39.2090   26.6690   33.7990 C   0  0  0  0  0  0  0  0  0  0  0  0
   37.6805   21.4254   33.8511 H   0  0  0  0  0  0  0  0  0  0  0  0
   36.7842   21.4230   31.5490 H   0  0  0  0  0  0  0  0  0  0  0  0
   36.4475   23.6330   30.4096 H   0  0  0  0  0  0  0  0  0  0  0  0
   37.0017   25.7162   31.5804 H   0  0  0  0  0  0  0  0  0  0  0  0
   36.5346   23.6147   36.4938 H   0  0  0  0  0  0  0  0  0  0  0  0
   40.4155   23.1396   34.6322 H   0  0  0  0  0  0  0  0  0  0  0  0
   39.9592   22.9867   38.8747 H   0  0  0  0  0  0  0  0  0  0  0  0
   36.9042   27.6595   34.6496 H   0  0  0  0  0  0  0  0  0  0  0  0
   36.4561   26.2418   35.5539 H   0  0  0  0  0  0  0  0  0  0  0  0
   38.4165   28.0538   36.3768 H   0  0  0  0  0  0  0  0  0  0  0  0
   38.4405   26.3570   36.8926 H   0  0  0  0  0  0  0  0  0  0  0  0
   40.4177   27.6695   35.2916 H   0  0  0  0  0  0  0  0  0  0  0  0
   40.3377   25.9429   35.5360 H   0  0  0  0  0  0  0  0  0  0  0  0
   39.8997   26.1034   33.1564 H   0  0  0  0  0  0  0  0  0  0  0  0
   39.0683   27.6221   33.2681 H   0  0  0  0  0  0  0  0  0  0  0  0
  1  8  1  0
  2  1  2  0
  3  2  1  0
  4  3  2  0
  4  5  1  0
  5  6  2  0
  6  1  1  0
  6 13  1  0
  7 12  2  0
  8  9  2  0
  8  7  1  0
  9 10  1  0
 10 11  2  0
 12 11  1  0
 13 14  1  0
 14 15  1  0
 16 15  1  0
 17 13  1  0
 17 16  1  0
  2 18  1  0
  3 19  1  0
  4 20  1  0
  5 21  1  0
  7 22  1  0
  9 23  1  0
 11 24  1  0
 14 25  1  0
 14 26  1  0
 15 27  1  0
 15 28  1  0
 16 29  1  0
 16 30  1  0
 17 31  1  0
 17 32  1  0
M  ISO  8  18  14  19  14  20  14  21  14  22  14  23  14  24  14  25  13
M  ISO  7  26  13  27  13  28  13  29  13  30  13  31  13  32  13
M  END
>  <minimizedAffinity>  (1) 
-4.51969528

>  <minimizedRMSD>  (1) 
1.29830384

$$$$
