
     RDKit          3D

 43 46  0  0  0  0  0  0  0  0999 V2000
   37.9350   25.1970   33.9280 C   0  0  0  0  0  0  0  0  0  0  0  0
   37.1240   26.2040   33.4090 C   0  0  0  0  0  0  0  0  0  0  0  0
   36.9280   27.4110   34.1070 C   0  0  0  0  0  0  0  0  0  0  0  0
   37.6010   27.4800   35.3090 C   0  0  0  0  0  0  0  0  0  0  0  0
   38.4190   26.5030   35.8640 C   0  0  0  0  0  0  0  0  0  0  0  0
   38.5680   25.3410   35.1240 C   0  0  0  0  0  0  0  0  0  0  0  0
   38.8560   24.0650   31.9840 C   0  0  0  0  0  0  0  0  0  0  0  0
   38.9210   22.9430   31.1880 C   0  0  0  0  0  0  0  0  0  0  0  0
   38.1790   21.7980   31.4290 C   0  0  0  0  0  0  0  0  0  0  0  0
   37.3440   21.7910   32.5130 C   0  0  0  0  0  0  0  0  0  0  0  0
   37.2750   22.8910   33.3020 C   0  0  0  0  0  0  0  0  0  0  0  0
   38.0090   24.0280   33.0660 C   0  0  0  0  0  0  0  0  0  0  0  0
   40.9230   25.5420   32.2100 C   0  0  0  0  0  0  0  0  0  0  0  0
   39.7040   25.2040   31.6110 C   0  0  0  0  0  0  0  0  0  0  0  0
   39.2610   26.0340   30.5660 C   0  0  0  0  0  0  0  0  0  0  0  0
   40.0110   27.1050   30.1850 N   0  0  0  0  0  0  0  0  0  0  0  0
   41.1740   27.3780   30.8000 C   0  0  0  0  0  0  0  0  0  0  0  0
   41.6310   26.6130   31.7970 N   0  0  0  0  0  0  0  0  0  0  0  0
   39.4130   24.3670   35.7130 N   0  0  0  0  0  0  0  0  0  0  0  0
   40.7200   24.0920   35.5640 C   0  0  0  0  0  0  0  0  0  0  0  0
   41.3250   23.0790   36.2700 C   0  0  0  0  0  0  0  0  0  0  0  0
   42.7750   22.8700   36.0170 C   0  0  0  0  0  0  0  0  0  0  0  0
   40.6310   22.2930   37.1670 C   0  0  0  0  0  0  0  0  0  0  0  0
   41.2620   21.3890   37.7700 O   0  0  0  0  0  0  0  0  0  0  0  0
   39.3140   22.5840   37.3060 N   0  0  0  0  0  0  0  0  0  0  0  0
   38.7380   23.5780   36.6060 C   0  0  0  0  0  0  0  0  0  0  0  0
   37.4930   23.7050   36.8690 O   0  0  0  0  0  0  0  0  0  0  0  0
   36.6289   26.0537   32.4383 H   0  0  0  0  0  0  0  0  0  0  0  0
   36.2946   28.2263   33.7275 H   0  0  0  0  0  0  0  0  0  0  0  0
   37.4772   28.4060   35.8896 H   0  0  0  0  0  0  0  0  0  0  0  0
   38.9188   26.6439   36.8337 H   0  0  0  0  0  0  0  0  0  0  0  0
   39.5948   22.9565   30.3186 H   0  0  0  0  0  0  0  0  0  0  0  0
   38.2587   20.9215   30.7692 H   0  0  0  0  0  0  0  0  0  0  0  0
   36.7360   20.9032   32.7414 H   0  0  0  0  0  0  0  0  0  0  0  0
   36.6006   22.8724   34.1708 H   0  0  0  0  0  0  0  0  0  0  0  0
   41.3106   24.9229   33.0325 H   0  0  0  0  0  0  0  0  0  0  0  0
   38.3100   25.8185   30.0569 H   0  0  0  0  0  0  0  0  0  0  0  0
   41.7626   28.2492   30.4765 H   0  0  0  0  0  0  0  0  0  0  0  0
   41.3190   24.6905   34.8618 H   0  0  0  0  0  0  0  0  0  0  0  0
   43.3073   22.7933   36.9766 H   0  0  0  0  0  0  0  0  0  0  0  0
   42.9171   21.9421   35.4436 H   0  0  0  0  0  0  0  0  0  0  0  0
   43.1734   23.7200   35.4436 H   0  0  0  0  0  0  0  0  0  0  0  0
   38.7424   22.0322   37.9615 H   0  0  0  0  0  0  0  0  0  0  0  0
  1  6  1  0
  2  1  2  0
  2  3  1  0
  3  4  2  0
  4  5  1  0
  6 19  1  0
  6  5  2  0
  7 12  2  0
  8  9  2  0
  8  7  1  0
  9 10  1  0
 10 11  2  0
 12 11  1  0
 12  1  1  0
 14  7  1  0
 14 13  2  0
 15 14  1  0
 16 15  2  0
 16 17  1  0
 17 18  2  0
 18 13  1  0
 19 26  1  0
 20 19  1  0
 20 21  2  0
 21 23  1  0
 22 21  1  0
 23 25  1  0
 23 24  2  0
 26 27  2  0
 26 25  1  0
  2 28  1  0
  3 29  1  0
  4 30  1  0
  5 31  1  0
  8 32  1  0
  9 33  1  0
 10 34  1  0
 11 35  1  0
 13 36  1  0
 15 37  1  0
 17 38  1  0
 20 39  1  0
 22 40  1  0
 22 41  1  0
 22 42  1  0
 25 43  1  0
M  ISO  8  28  14  29  14  30  14  31  14  32  14  33  14  34  14  35  14
M  ISO  8  36  14  37  14  38  14  39  14  40   8  41   8  42   8  43   9
M  END
>  <minimizedAffinity>  (1) 
-5.83601761

>  <minimizedRMSD>  (1) 
4.49640274

$$$$
