
     RDKit          3D

 37 40  0  0  0  0  0  0  0  0999 V2000
   38.0380   22.8360   34.7470 C   0  0  0  0  0  0  0  0  0  0  0  0
   37.7070   21.5850   34.2610 C   0  0  0  0  0  0  0  0  0  0  0  0
   37.3930   21.3280   32.9460 C   0  0  0  0  0  0  0  0  0  0  0  0
   37.4130   22.3870   32.0690 C   0  0  0  0  0  0  0  0  0  0  0  0
   37.7320   23.6240   32.5090 C   0  0  0  0  0  0  0  0  0  0  0  0
   38.0440   23.8640   33.8360 C   0  0  0  0  0  0  0  0  0  0  0  0
   38.3810   25.1950   34.3130 C   0  0  0  0  0  0  0  0  0  0  0  0
   37.2700   25.9560   34.6580 C   0  0  0  0  0  0  0  0  0  0  0  0
   37.3830   27.2630   35.1390 C   0  0  0  0  0  0  0  0  0  0  0  0
   38.6890   27.7050   35.2320 C   0  0  0  0  0  0  0  0  0  0  0  0
   39.8250   26.9970   34.9060 C   0  0  0  0  0  0  0  0  0  0  0  0
   39.6330   25.7220   34.4400 C   0  0  0  0  0  0  0  0  0  0  0  0
   40.7960   24.9320   34.0670 C   0  0  0  0  0  0  0  0  0  0  0  0
   41.8530   24.8680   34.9820 C   0  0  0  0  0  0  0  0  0  0  0  0
   42.8270   24.0590   34.3870 C   0  0  0  0  0  0  0  0  0  0  0  0
   42.3160   23.6760   33.1520 C   0  0  0  0  0  0  0  0  0  0  0  0
   41.1520   24.2090   33.0310 O   0  0  0  0  0  0  0  0  0  0  0  0
   37.4310   23.3760   37.1500 C   0  0  0  0  0  0  0  0  0  0  0  0
   38.3380   22.9560   36.1590 C   0  0  0  0  0  0  0  0  0  0  0  0
   39.6310   22.6340   36.6000 C   0  0  0  0  0  0  0  0  0  0  0  0
   39.9420   22.7390   37.9250 N   0  0  0  0  0  0  0  0  0  0  0  0
   39.0290   23.1470   38.8230 C   0  0  0  0  0  0  0  0  0  0  0  0
   37.7800   23.4660   38.4490 N   0  0  0  0  0  0  0  0  0  0  0  0
   37.6938   20.7431   34.9689 H   0  0  0  0  0  0  0  0  0  0  0  0
   37.1356   20.3131   32.6089 H   0  0  0  0  0  0  0  0  0  0  0  0
   37.1691   22.2269   31.0084 H   0  0  0  0  0  0  0  0  0  0  0  0
   37.7441   24.4608   31.7952 H   0  0  0  0  0  0  0  0  0  0  0  0
   36.2684   25.5145   34.5487 H   0  0  0  0  0  0  0  0  0  0  0  0
   36.5161   27.8805   35.4168 H   0  0  0  0  0  0  0  0  0  0  0  0
   38.8370   28.7291   35.6053 H   0  0  0  0  0  0  0  0  0  0  0  0
   40.8302   27.4306   35.0136 H   0  0  0  0  0  0  0  0  0  0  0  0
   41.9069   25.3542   35.9672 H   0  0  0  0  0  0  0  0  0  0  0  0
   43.8029   23.7812   34.8117 H   0  0  0  0  0  0  0  0  0  0  0  0
   42.8166   23.0336   32.4126 H   0  0  0  0  0  0  0  0  0  0  0  0
   36.4045   23.6392   36.8551 H   0  0  0  0  0  0  0  0  0  0  0  0
   40.3916   22.2980   35.8799 H   0  0  0  0  0  0  0  0  0  0  0  0
   39.3105   23.2208   39.8838 H   0  0  0  0  0  0  0  0  0  0  0  0
  1 19  1  0
  2  1  2  0
  3  2  1  0
  4  5  1  0
  4  3  2  0
  5  6  2  0
  6  7  1  0
  6  1  1  0
  7 12  1  0
  7  8  2  0
  8  9  1  0
  9 10  2  0
 11 10  1  0
 12 11  2  0
 13 12  1  0
 13 14  2  0
 15 14  1  0
 16 15  2  0
 17 16  1  0
 17 13  1  0
 18 23  2  0
 19 20  2  0
 19 18  1  0
 20 21  1  0
 21 22  2  0
 23 22  1  0
  2 24  1  0
  3 25  1  0
  4 26  1  0
  5 27  1  0
  8 28  1  0
  9 29  1  0
 10 30  1  0
 11 31  1  0
 14 32  1  0
 15 33  1  0
 16 34  1  0
 18 35  1  0
 20 36  1  0
 22 37  1  0
M  ISO  8  24  14  25  14  26  14  27  14  28  14  29  14  30  14  31  14
M  ISO  6  32  14  33  14  34  14  35  14  36  14  37  14
M  END
>  <minimizedAffinity>  (1) 
-5.05095434

>  <minimizedRMSD>  (1) 
0.951029599

$$$$
