
     RDKit          3D

 37 40  0  0  0  0  0  0  0  0999 V2000
   38.0270   22.8420   34.7340 C   0  0  0  0  0  0  0  0  0  0  0  0
   37.7050   21.5880   34.2500 C   0  0  0  0  0  0  0  0  0  0  0  0
   37.3930   21.3390   32.9290 C   0  0  0  0  0  0  0  0  0  0  0  0
   37.4080   22.4040   32.0490 C   0  0  0  0  0  0  0  0  0  0  0  0
   37.7240   23.6440   32.5110 C   0  0  0  0  0  0  0  0  0  0  0  0
   38.0320   23.8770   33.8300 C   0  0  0  0  0  0  0  0  0  0  0  0
   38.3630   25.2090   34.3150 C   0  0  0  0  0  0  0  0  0  0  0  0
   37.2600   25.9690   34.6710 C   0  0  0  0  0  0  0  0  0  0  0  0
   37.4000   27.2710   35.1590 C   0  0  0  0  0  0  0  0  0  0  0  0
   38.6920   27.7100   35.2470 C   0  0  0  0  0  0  0  0  0  0  0  0
   39.8220   27.0050   34.9090 C   0  0  0  0  0  0  0  0  0  0  0  0
   39.6220   25.7280   34.4350 C   0  0  0  0  0  0  0  0  0  0  0  0
   40.7850   24.9490   34.0530 C   0  0  0  0  0  0  0  0  0  0  0  0
   41.8540   24.8700   34.9400 C   0  0  0  0  0  0  0  0  0  0  0  0
   42.8330   24.1030   34.4140 N   0  0  0  0  0  0  0  0  0  0  0  0
   42.4060   23.6900   33.2010 C   0  0  0  0  0  0  0  0  0  0  0  0
   41.1830   24.2000   32.9940 N   0  0  0  0  0  0  0  0  0  0  0  0
   37.4230   23.3660   37.1520 C   0  0  0  0  0  0  0  0  0  0  0  0
   38.3280   22.9580   36.1570 C   0  0  0  0  0  0  0  0  0  0  0  0
   39.6290   22.6400   36.5880 C   0  0  0  0  0  0  0  0  0  0  0  0
   39.9530   22.7350   37.9060 N   0  0  0  0  0  0  0  0  0  0  0  0
   39.0430   23.1320   38.8140 C   0  0  0  0  0  0  0  0  0  0  0  0
   37.7920   23.4460   38.4490 N   0  0  0  0  0  0  0  0  0  0  0  0
   37.6970   20.7438   34.9551 H   0  0  0  0  0  0  0  0  0  0  0  0
   37.1403   20.3244   32.5874 H   0  0  0  0  0  0  0  0  0  0  0  0
   37.1671   22.2510   30.9867 H   0  0  0  0  0  0  0  0  0  0  0  0
   37.7333   24.4880   31.8056 H   0  0  0  0  0  0  0  0  0  0  0  0
   36.2532   25.5383   34.5672 H   0  0  0  0  0  0  0  0  0  0  0  0
   36.5401   27.8926   35.4490 H   0  0  0  0  0  0  0  0  0  0  0  0
   38.8420   28.7313   35.6270 H   0  0  0  0  0  0  0  0  0  0  0  0
   40.8288   27.4363   35.0113 H   0  0  0  0  0  0  0  0  0  0  0  0
   41.8955   25.3598   35.9240 H   0  0  0  0  0  0  0  0  0  0  0  0
   42.9641   23.0473   32.5043 H   0  0  0  0  0  0  0  0  0  0  0  0
   40.6212   24.0440   32.1449 H   0  0  0  0  0  0  0  0  0  0  0  0
   36.3924   23.6257   36.8685 H   0  0  0  0  0  0  0  0  0  0  0  0
   40.3851   22.3142   35.8585 H   0  0  0  0  0  0  0  0  0  0  0  0
   39.3304   23.2000   39.8736 H   0  0  0  0  0  0  0  0  0  0  0  0
  1 19  1  0
  2  1  2  0
  3  2  1  0
  4  5  1  0
  4  3  2  0
  5  6  2  0
  6  7  1  0
  6  1  1  0
  7 12  1  0
  7  8  2  0
  8  9  1  0
  9 10  2  0
 11 10  1  0
 12 11  2  0
 13 12  1  0
 13 14  2  0
 15 14  1  0
 16 15  2  0
 17 16  1  0
 17 13  1  0
 18 23  2  0
 19 20  2  0
 19 18  1  0
 20 21  1  0
 21 22  2  0
 23 22  1  0
  2 24  1  0
  3 25  1  0
  4 26  1  0
  5 27  1  0
  8 28  1  0
  9 29  1  0
 10 30  1  0
 11 31  1  0
 14 32  1  0
 16 33  1  0
 17 34  1  0
 18 35  1  0
 20 36  1  0
 22 37  1  0
M  ISO  8  24  14  25  14  26  14  27  14  28  14  29  14  30  14  31  14
M  ISO  6  32  14  33  14  34   9  35  14  36  14  37  14
M  END
>  <minimizedAffinity>  (1) 
-4.98265314

>  <minimizedRMSD>  (1) 
1.16534901

$$$$
