
     RDKit          3D

 37 40  0  0  0  0  0  0  0  0999 V2000
   37.9600   22.8170   34.7840 C   0  0  0  0  0  0  0  0  0  0  0  0
   37.5880   21.5740   34.3170 C   0  0  0  0  0  0  0  0  0  0  0  0
   37.2510   21.3140   33.0040 C   0  0  0  0  0  0  0  0  0  0  0  0
   37.2880   22.3600   32.1120 C   0  0  0  0  0  0  0  0  0  0  0  0
   37.6500   23.6000   32.5420 C   0  0  0  0  0  0  0  0  0  0  0  0
   37.9850   23.8380   33.8640 C   0  0  0  0  0  0  0  0  0  0  0  0
   38.3670   25.1670   34.3180 C   0  0  0  0  0  0  0  0  0  0  0  0
   37.2630   25.9470   34.6930 C   0  0  0  0  0  0  0  0  0  0  0  0
   37.4510   27.2630   35.1580 C   0  0  0  0  0  0  0  0  0  0  0  0
   38.7530   27.6800   35.2040 C   0  0  0  0  0  0  0  0  0  0  0  0
   39.8710   26.9400   34.8420 C   0  0  0  0  0  0  0  0  0  0  0  0
   39.6330   25.6680   34.3970 C   0  0  0  0  0  0  0  0  0  0  0  0
   40.7540   24.8610   33.9970 C   0  0  0  0  0  0  0  0  0  0  0  0
   41.0210   24.1340   32.8850 C   0  0  0  0  0  0  0  0  0  0  0  0
   42.1880   23.4520   32.7720 C   0  0  0  0  0  0  0  0  0  0  0  0
   43.0910   23.5530   33.8750 C   0  0  0  0  0  0  0  0  0  0  0  0
   42.1560   24.6740   35.0610 S   0  0  0  0  0  0  0  0  0  0  0  0
   37.4200   23.3760   37.1970 C   0  0  0  0  0  0  0  0  0  0  0  0
   38.2830   22.9480   36.1910 C   0  0  0  0  0  0  0  0  0  0  0  0
   39.5850   22.6190   36.6010 C   0  0  0  0  0  0  0  0  0  0  0  0
   39.9450   22.7250   37.9110 N   0  0  0  0  0  0  0  0  0  0  0  0
   39.0630   23.1440   38.8320 C   0  0  0  0  0  0  0  0  0  0  0  0
   37.8110   23.4680   38.4880 N   0  0  0  0  0  0  0  0  0  0  0  0
   37.5580   20.7400   35.0336 H   0  0  0  0  0  0  0  0  0  0  0  0
   36.9622   20.3028   32.6815 H   0  0  0  0  0  0  0  0  0  0  0  0
   37.0264   22.1956   31.0563 H   0  0  0  0  0  0  0  0  0  0  0  0
   37.6769   24.4317   31.8226 H   0  0  0  0  0  0  0  0  0  0  0  0
   36.2476   25.5296   34.6237 H   0  0  0  0  0  0  0  0  0  0  0  0
   36.6131   27.9077   35.4617 H   0  0  0  0  0  0  0  0  0  0  0  0
   38.9324   28.7039   35.5637 H   0  0  0  0  0  0  0  0  0  0  0  0
   40.8886   27.3523   34.9091 H   0  0  0  0  0  0  0  0  0  0  0  0
   40.2857   24.0967   32.0677 H   0  0  0  0  0  0  0  0  0  0  0  0
   42.4263   22.8539   31.8801 H   0  0  0  0  0  0  0  0  0  0  0  0
   44.0820   23.0919   33.9990 H   0  0  0  0  0  0  0  0  0  0  0  0
   36.3874   23.6478   36.9327 H   0  0  0  0  0  0  0  0  0  0  0  0
   40.3199   22.2731   35.8592 H   0  0  0  0  0  0  0  0  0  0  0  0
   39.3737   23.2221   39.8843 H   0  0  0  0  0  0  0  0  0  0  0  0
  1 19  1  0
  2  1  2  0
  3  2  1  0
  4  5  1  0
  4  3  2  0
  5  6  2  0
  6  7  1  0
  6  1  1  0
  7 12  1  0
  7  8  2  0
  8  9  1  0
  9 10  2  0
 11 10  1  0
 12 11  2  0
 13 12  1  0
 13 17  1  0
 14 13  2  0
 15 14  1  0
 15 16  2  0
 16 17  1  0
 18 23  2  0
 19 20  2  0
 19 18  1  0
 20 21  1  0
 21 22  2  0
 23 22  1  0
  2 24  1  0
  3 25  1  0
  4 26  1  0
  5 27  1  0
  8 28  1  0
  9 29  1  0
 10 30  1  0
 11 31  1  0
 14 32  1  0
 15 33  1  0
 16 34  1  0
 18 35  1  0
 20 36  1  0
 22 37  1  0
M  ISO  8  24  14  25  14  26  14  27  14  28  14  29  14  30  14  31  14
M  ISO  6  32  14  33  14  34  14  35  14  36  14  37  14
M  END
>  <minimizedAffinity>  (1) 
-4.95735693

>  <minimizedRMSD>  (1) 
1.00356185

$$$$
