
     RDKit          3D

 37 40  0  0  0  0  0  0  0  0999 V2000
   37.9630   22.7990   34.7820 C   0  0  0  0  0  0  0  0  0  0  0  0
   37.5840   21.5550   34.3250 C   0  0  0  0  0  0  0  0  0  0  0  0
   37.2480   21.2830   33.0160 C   0  0  0  0  0  0  0  0  0  0  0  0
   37.2950   22.3230   32.1140 C   0  0  0  0  0  0  0  0  0  0  0  0
   37.6620   23.5580   32.5240 C   0  0  0  0  0  0  0  0  0  0  0  0
   37.9950   23.8030   33.8460 C   0  0  0  0  0  0  0  0  0  0  0  0
   38.3930   25.1450   34.2930 C   0  0  0  0  0  0  0  0  0  0  0  0
   37.3020   25.9100   34.7280 C   0  0  0  0  0  0  0  0  0  0  0  0
   37.4950   27.2160   35.1900 C   0  0  0  0  0  0  0  0  0  0  0  0
   38.7880   27.6510   35.1780 C   0  0  0  0  0  0  0  0  0  0  0  0
   39.8780   26.9310   34.7600 C   0  0  0  0  0  0  0  0  0  0  0  0
   39.6720   25.6380   34.3040 C   0  0  0  0  0  0  0  0  0  0  0  0
   40.7060   24.7730   33.8400 N   0  0  0  0  0  0  0  0  0  0  0  0
   41.5760   24.2050   34.6900 N   0  0  0  0  0  0  0  0  0  0  0  0
   42.4540   23.4400   34.0600 C   0  0  0  0  0  0  0  0  0  0  0  0
   42.1550   23.4980   32.7090 C   0  0  0  0  0  0  0  0  0  0  0  0
   41.0720   24.3300   32.6100 C   0  0  0  0  0  0  0  0  0  0  0  0
   37.4110   23.3680   37.1830 C   0  0  0  0  0  0  0  0  0  0  0  0
   38.2900   22.9380   36.1950 C   0  0  0  0  0  0  0  0  0  0  0  0
   39.5980   22.6110   36.6030 C   0  0  0  0  0  0  0  0  0  0  0  0
   39.9290   22.7330   37.9240 N   0  0  0  0  0  0  0  0  0  0  0  0
   39.0450   23.1510   38.8290 C   0  0  0  0  0  0  0  0  0  0  0  0
   37.7900   23.4700   38.4730 N   0  0  0  0  0  0  0  0  0  0  0  0
   37.5474   20.7282   35.0496 H   0  0  0  0  0  0  0  0  0  0  0  0
   36.9527   20.2708   32.7027 H   0  0  0  0  0  0  0  0  0  0  0  0
   37.0339   22.1487   31.0598 H   0  0  0  0  0  0  0  0  0  0  0  0
   37.6967   24.3817   31.7958 H   0  0  0  0  0  0  0  0  0  0  0  0
   36.2893   25.4812   34.7059 H   0  0  0  0  0  0  0  0  0  0  0  0
   36.6639   27.8470   35.5380 H   0  0  0  0  0  0  0  0  0  0  0  0
   38.9736   28.6741   35.5369 H   0  0  0  0  0  0  0  0  0  0  0  0
   40.8875   27.3673   34.7858 H   0  0  0  0  0  0  0  0  0  0  0  0
   43.2694   22.8652   34.5235 H   0  0  0  0  0  0  0  0  0  0  0  0
   42.6773   22.9841   31.8886 H   0  0  0  0  0  0  0  0  0  0  0  0
   40.5706   24.6006   31.6691 H   0  0  0  0  0  0  0  0  0  0  0  0
   36.3799   23.6317   36.9050 H   0  0  0  0  0  0  0  0  0  0  0  0
   40.3413   22.2631   35.8705 H   0  0  0  0  0  0  0  0  0  0  0  0
   39.3475   23.2361   39.8831 H   0  0  0  0  0  0  0  0  0  0  0  0
  1 19  1  0
  2  1  2  0
  3  2  1  0
  4  5  1  0
  4  3  2  0
  5  6  2  0
  6  7  1  0
  6  1  1  0
  7 12  1  0
  7  8  2  0
  8  9  1  0
 10  9  2  0
 11 10  1  0
 12 11  2  0
 13 12  1  0
 13 14  1  0
 15 14  2  0
 16 15  1  0
 17 16  2  0
 17 13  1  0
 18 23  2  0
 19 20  2  0
 19 18  1  0
 20 21  1  0
 21 22  2  0
 23 22  1  0
  2 24  1  0
  3 25  1  0
  4 26  1  0
  5 27  1  0
  8 28  1  0
  9 29  1  0
 10 30  1  0
 11 31  1  0
 15 32  1  0
 16 33  1  0
 17 34  1  0
 18 35  1  0
 20 36  1  0
 22 37  1  0
M  ISO  8  24  14  25  14  26  14  27  14  28  14  29  14  30  14  31  14
M  ISO  6  32  14  33  14  34  14  35  14  36  14  37  14
M  END
>  <minimizedAffinity>  (1) 
-4.90136957

>  <minimizedRMSD>  (1) 
0.878208637

$$$$
