
     RDKit          3D

 42 45  0  0  0  0  0  0  0  0999 V2000
   37.9190   22.7900   34.7800 C   0  0  0  0  0  0  0  0  0  0  0  0
   37.4820   21.5580   34.3420 C   0  0  0  0  0  0  0  0  0  0  0  0
   37.1270   21.3000   33.0340 C   0  0  0  0  0  0  0  0  0  0  0  0
   37.2150   22.3250   32.1270 C   0  0  0  0  0  0  0  0  0  0  0  0
   37.6440   23.5500   32.5360 C   0  0  0  0  0  0  0  0  0  0  0  0
   37.9960   23.7950   33.8450 C   0  0  0  0  0  0  0  0  0  0  0  0
   38.4440   25.1070   34.2830 C   0  0  0  0  0  0  0  0  0  0  0  0
   37.4050   25.9030   34.7860 C   0  0  0  0  0  0  0  0  0  0  0  0
   37.6470   27.2000   35.2570 C   0  0  0  0  0  0  0  0  0  0  0  0
   38.9700   27.5880   35.1740 C   0  0  0  0  0  0  0  0  0  0  0  0
   40.0270   26.8400   34.6870 C   0  0  0  0  0  0  0  0  0  0  0  0
   39.7270   25.5710   34.2360 C   0  0  0  0  0  0  0  0  0  0  0  0
   40.7940   24.7840   33.7030 N   0  0  0  0  0  0  0  0  0  0  0  0
   41.1620   24.7870   32.2800 C   0  0  0  0  0  0  0  0  0  0  0  0
   42.6750   24.8800   32.2600 C   0  0  0  0  0  0  0  0  0  0  0  0
   43.0860   24.3270   33.6140 C   0  0  0  0  0  0  0  0  0  0  0  0
   41.7770   23.8560   34.2310 C   0  0  0  0  0  0  0  0  0  0  0  0
   37.3980   23.3060   37.2110 C   0  0  0  0  0  0  0  0  0  0  0  0
   38.2570   22.9170   36.1910 C   0  0  0  0  0  0  0  0  0  0  0  0
   39.5770   22.6280   36.5840 C   0  0  0  0  0  0  0  0  0  0  0  0
   39.9380   22.7380   37.8920 N   0  0  0  0  0  0  0  0  0  0  0  0
   39.0590   23.1180   38.8250 C   0  0  0  0  0  0  0  0  0  0  0  0
   37.7930   23.4030   38.4980 N   0  0  0  0  0  0  0  0  0  0  0  0
   37.4128   20.7388   35.0728 H   0  0  0  0  0  0  0  0  0  0  0  0
   36.7833   20.3011   32.7274 H   0  0  0  0  0  0  0  0  0  0  0  0
   36.9404   22.1579   31.0750 H   0  0  0  0  0  0  0  0  0  0  0  0
   37.7115   24.3663   31.8017 H   0  0  0  0  0  0  0  0  0  0  0  0
   36.3811   25.5017   34.8112 H   0  0  0  0  0  0  0  0  0  0  0  0
   36.8551   27.8505   35.6567 H   0  0  0  0  0  0  0  0  0  0  0  0
   39.2087   28.5998   35.5335 H   0  0  0  0  0  0  0  0  0  0  0  0
   41.0528   27.2362   34.6607 H   0  0  0  0  0  0  0  0  0  0  0  0
   40.8262   23.8596   31.7929 H   0  0  0  0  0  0  0  0  0  0  0  0
   40.6921   25.6196   31.7359 H   0  0  0  0  0  0  0  0  0  0  0  0
   43.0948   24.2731   31.4443 H   0  0  0  0  0  0  0  0  0  0  0  0
   43.0376   25.9044   32.0893 H   0  0  0  0  0  0  0  0  0  0  0  0
   43.7876   23.4879   33.4972 H   0  0  0  0  0  0  0  0  0  0  0  0
   43.6041   25.0716   34.2363 H   0  0  0  0  0  0  0  0  0  0  0  0
   41.8186   23.9113   35.3288 H   0  0  0  0  0  0  0  0  0  0  0  0
   41.5456   22.8078   33.9910 H   0  0  0  0  0  0  0  0  0  0  0  0
   36.3540   23.5446   36.9598 H   0  0  0  0  0  0  0  0  0  0  0  0
   40.3174   22.3131   35.8340 H   0  0  0  0  0  0  0  0  0  0  0  0
   39.3803   23.1973   39.8740 H   0  0  0  0  0  0  0  0  0  0  0  0
  1 19  1  0
  2  1  2  0
  3  2  1  0
  4  5  1  0
  4  3  2  0
  5  6  2  0
  6  7  1  0
  6  1  1  0
  7  8  2  0
  8  9  1  0
 10  9  2  0
 11 10  1  0
 12  7  1  0
 12 11  2  0
 13 17  1  0
 13 12  1  0
 14 13  1  0
 15 14  1  0
 15 16  1  0
 16 17  1  0
 18 23  2  0
 19 20  2  0
 19 18  1  0
 20 21  1  0
 21 22  2  0
 23 22  1  0
  2 24  1  0
  3 25  1  0
  4 26  1  0
  5 27  1  0
  8 28  1  0
  9 29  1  0
 10 30  1  0
 11 31  1  0
 14 32  1  0
 14 33  1  0
 15 34  1  0
 15 35  1  0
 16 36  1  0
 16 37  1  0
 17 38  1  0
 17 39  1  0
 18 40  1  0
 20 41  1  0
 22 42  1  0
M  ISO  8  24  14  25  14  26  14  27  14  28  14  29  14  30  14  31  14
M  ISO  8  32  13  33  13  34  13  35  13  36  13  37  13  38  13  39  13
M  ISO  3  40  14  41  14  42  14
M  END
>  <minimizedAffinity>  (1) 
-4.89310217

>  <minimizedRMSD>  (1) 
0.733819008

$$$$
