
     RDKit          3D

 33 35  0  0  0  0  0  0  0  0999 V2000
   37.8200   22.7210   34.7990 C   0  0  0  0  0  0  0  0  0  0  0  0
   37.1440   21.5570   34.4940 C   0  0  0  0  0  0  0  0  0  0  0  0
   36.7000   21.2350   33.2340 C   0  0  0  0  0  0  0  0  0  0  0  0
   36.9460   22.1300   32.2180 C   0  0  0  0  0  0  0  0  0  0  0  0
   37.6140   23.2890   32.5000 C   0  0  0  0  0  0  0  0  0  0  0  0
   38.0480   23.5820   33.7790 C   0  0  0  0  0  0  0  0  0  0  0  0
   38.7590   24.8200   34.0660 C   0  0  0  0  0  0  0  0  0  0  0  0
   37.9190   25.8510   34.4910 C   0  0  0  0  0  0  0  0  0  0  0  0
   38.4230   27.1170   34.8130 C   0  0  0  0  0  0  0  0  0  0  0  0
   39.7920   27.2290   34.6700 C   0  0  0  0  0  0  0  0  0  0  0  0
   40.6590   26.2490   34.2560 C   0  0  0  0  0  0  0  0  0  0  0  0
   40.1040   25.0330   33.9570 C   0  0  0  0  0  0  0  0  0  0  0  0
   40.9280   23.9130   33.5070 C   0  0  0  0  0  0  0  0  0  0  0  0
   37.4250   23.4900   37.1920 C   0  0  0  0  0  0  0  0  0  0  0  0
   38.2290   22.9200   36.1920 C   0  0  0  0  0  0  0  0  0  0  0  0
   39.5310   22.5080   36.5580 C   0  0  0  0  0  0  0  0  0  0  0  0
   39.9270   22.6900   37.8630 N   0  0  0  0  0  0  0  0  0  0  0  0
   39.1230   23.2360   38.7700 C   0  0  0  0  0  0  0  0  0  0  0  0
   37.8840   23.6350   38.4520 N   0  0  0  0  0  0  0  0  0  0  0  0
   36.9489   20.8440   35.3086 H   0  0  0  0  0  0  0  0  0  0  0  0
   36.1654   20.2926   33.0437 H   0  0  0  0  0  0  0  0  0  0  0  0
   36.6097   21.9158   31.1928 H   0  0  0  0  0  0  0  0  0  0  0  0
   37.8108   24.0058   31.6892 H   0  0  0  0  0  0  0  0  0  0  0  0
   36.8381   25.6647   34.5747 H   0  0  0  0  0  0  0  0  0  0  0  0
   37.7856   27.9479   35.1497 H   0  0  0  0  0  0  0  0  0  0  0  0
   40.2340   28.2064   34.9135 H   0  0  0  0  0  0  0  0  0  0  0  0
   41.7405   26.4302   34.1691 H   0  0  0  0  0  0  0  0  0  0  0  0
   41.3240   23.3748   34.3808 H   0  0  0  0  0  0  0  0  0  0  0  0
   40.3167   23.2284   32.9007 H   0  0  0  0  0  0  0  0  0  0  0  0
   41.7636   24.2929   32.9007 H   0  0  0  0  0  0  0  0  0  0  0  0
   36.4063   23.8231   36.9444 H   0  0  0  0  0  0  0  0  0  0  0  0
   40.2087   22.0544   35.8198 H   0  0  0  0  0  0  0  0  0  0  0  0
   39.4820   23.3628   39.8020 H   0  0  0  0  0  0  0  0  0  0  0  0
  1 15  1  0
  2  1  2  0
  3  2  1  0
  4  5  1  0
  4  3  2  0
  5  6  2  0
  6  7  1  0
  6  1  1  0
  7  8  2  0
  8  9  1  0
 10  9  2  0
 11 10  1  0
 12  7  1  0
 12 11  2  0
 13 12  1  0
 14 19  2  0
 15 16  2  0
 15 14  1  0
 16 17  1  0
 17 18  2  0
 19 18  1  0
  2 20  1  0
  3 21  1  0
  4 22  1  0
  5 23  1  0
  8 24  1  0
  9 25  1  0
 10 26  1  0
 11 27  1  0
 13 28  1  0
 13 29  1  0
 13 30  1  0
 14 31  1  0
 16 32  1  0
 18 33  1  0
M  ISO  8  20  14  21  14  22  14  23  14  24  14  25  14  26  14  27  14
M  ISO  6  28   8  29   8  30   8  31  14  32  14  33  14
M  END
>  <minimizedAffinity>  (1) 
-4.81212378

>  <minimizedRMSD>  (1) 
0.0527719706

$$$$
