
     RDKit          3D

 20 20  0  0  0  0  0  0  0  0999 V2000
   38.3150   24.1380   35.4710 C   0  0  0  0  0  0  0  0  0  0  0  0
   39.5260   23.0150   37.3010 C   0  0  0  0  0  0  0  0  0  0  0  0
   39.3900   23.2510   35.9200 C   0  0  0  0  0  0  0  0  0  0  0  0
   40.2810   22.6310   35.0390 C   0  0  0  0  0  0  0  0  0  0  0  0
   41.2490   21.8200   35.5560 N   0  0  0  0  0  0  0  0  0  0  0  0
   41.3400   21.6230   36.8930 C   0  0  0  0  0  0  0  0  0  0  0  0
   40.5000   22.2020   37.7730 N   0  0  0  0  0  0  0  0  0  0  0  0
   38.2790   25.3080   36.3270 N   0  0  0  0  0  0  0  0  0  0  0  0
   38.8530   26.5080   35.7980 C   0  0  0  0  0  0  0  0  0  0  0  0
   39.7960   26.5090   34.9200 N   0  0  0  0  0  0  0  0  0  0  0  0
   38.4390   27.8270   36.1900 N   0  0  0  0  0  0  0  0  0  0  0  0
   40.1710   25.6010   34.5690 H   0  0  0  0  0  0  0  0  0  0  0  0
   38.5018   24.4470   34.4319 H   0  0  0  0  0  0  0  0  0  0  0  0
   37.3515   23.6098   35.5233 H   0  0  0  0  0  0  0  0  0  0  0  0
   38.8322   23.4972   38.0054 H   0  0  0  0  0  0  0  0  0  0  0  0
   40.2035   22.7932   33.9538 H   0  0  0  0  0  0  0  0  0  0  0  0
   42.1323   20.9631   37.2761 H   0  0  0  0  0  0  0  0  0  0  0  0
   37.8615   25.2772   37.2681 H   0  0  0  0  0  0  0  0  0  0  0  0
   38.8906   28.6536   35.7733 H   0  0  0  0  0  0  0  0  0  0  0  0
   37.6907   27.9458   36.8877 H   0  0  0  0  0  0  0  0  0  0  0  0
  1  3  1  0
  1  8  1  0
  2  7  2  0
  3  2  1  0
  4  5  1  0
  4  3  2  0
  5  6  2  0
  6  7  1  0
  9 11  1  0
  9  8  1  0
 10  9  2  0
 12 10  1  0
  1 13  1  0
  1 14  1  0
  2 15  1  0
  4 16  1  0
  6 17  1  0
  8 18  1  0
 11 19  1  0
 11 20  1  0
M  ISO  5  13   8  14   8  15  14  16  14  17  14
M  END
>  <minimizedAffinity>  (1) 
-3.3964839

>  <minimizedRMSD>  (1) 
2.52123523

$$$$
