
     RDKit          3D

 23 23  0  0  0  0  0  0  0  0999 V2000
   39.4460   23.0470   37.6230 C   0  0  0  0  0  0  0  0  0  0  0  0
   39.1090   23.6650   36.4110 C   0  0  0  0  0  0  0  0  0  0  0  0
   39.8570   23.3880   35.2730 C   0  0  0  0  0  0  0  0  0  0  0  0
   40.9140   22.5020   35.3910 N   0  0  0  0  0  0  0  0  0  0  0  0
   41.2020   21.9300   36.5770 C   0  0  0  0  0  0  0  0  0  0  0  0
   40.4970   22.1720   37.7150 N   0  0  0  0  0  0  0  0  0  0  0  0
   37.9790   24.5800   36.3990 C   0  0  0  0  0  0  0  0  0  0  0  0
   37.8410   25.1870   35.1850 O   0  0  0  0  0  0  0  0  0  0  0  0
   37.4990   26.5380   35.3440 C   0  0  0  0  0  0  0  0  0  0  0  0
   38.7320   27.2630   35.8050 C   0  0  0  0  0  0  0  0  0  0  0  0
   37.0640   27.1640   34.0350 C   0  0  0  0  0  0  0  0  0  0  0  0
   38.8527   23.2696   38.5221 H   0  0  0  0  0  0  0  0  0  0  0  0
   39.6165   23.8583   34.3081 H   0  0  0  0  0  0  0  0  0  0  0  0
   42.0505   21.2318   36.6273 H   0  0  0  0  0  0  0  0  0  0  0  0
   37.0609   24.0174   36.6239 H   0  0  0  0  0  0  0  0  0  0  0  0
   38.1564   25.3580   37.1561 H   0  0  0  0  0  0  0  0  0  0  0  0
   36.6681   26.6102   36.0612 H   0  0  0  0  0  0  0  0  0  0  0  0
   38.7586   27.2786   36.9046 H   0  0  0  0  0  0  0  0  0  0  0  0
   39.6252   26.7463   35.4239 H   0  0  0  0  0  0  0  0  0  0  0  0
   38.7147   28.2947   35.4239 H   0  0  0  0  0  0  0  0  0  0  0  0
   36.4473   28.0515   34.2401 H   0  0  0  0  0  0  0  0  0  0  0  0
   37.9520   27.4601   33.4572 H   0  0  0  0  0  0  0  0  0  0  0  0
   36.4769   26.4350   33.4572 H   0  0  0  0  0  0  0  0  0  0  0  0
  1  6  2  0
  2  1  1  0
  3  4  1  0
  3  2  2  0
  4  5  2  0
  5  6  1  0
  7  2  1  0
  8  9  1  0
  8  7  1  0
  9 10  1  0
 11  9  1  0
  1 12  1  0
  3 13  1  0
  5 14  1  0
  7 15  1  0
  7 16  1  0
  9 17  1  0
 10 18  1  0
 10 19  1  0
 10 20  1  0
 11 21  1  0
 11 22  1  0
 11 23  1  0
M  ISO  8  12  14  13  14  14  14  15   8  16   8  17   8  18   8  19   8
M  ISO  4  20   8  21   8  22   8  23   8
M  END
>  <minimizedAffinity>  (1) 
-3.20707345

>  <minimizedRMSD>  (1) 
3.76206875

$$$$
