
     RDKit          3D

 22 23  0  0  0  0  0  0  0  0999 V2000
   38.8430   27.1740   34.9630 C   0  0  0  0  0  0  0  0  0  0  0  0
   39.8210   24.9420   35.3500 C   0  0  0  0  0  0  0  0  0  0  0  0
   39.9970   26.2670   34.9230 C   0  0  0  0  0  0  0  0  0  0  0  0
   41.2520   26.6760   34.4760 C   0  0  0  0  0  0  0  0  0  0  0  0
   42.2700   25.7370   34.4810 N   0  0  0  0  0  0  0  0  0  0  0  0
   42.0500   24.4880   34.8980 C   0  0  0  0  0  0  0  0  0  0  0  0
   40.8470   24.0370   35.3420 N   0  0  0  0  0  0  0  0  0  0  0  0
   37.6990   26.5240   34.6310 O   0  0  0  0  0  0  0  0  0  0  0  0
   37.0560   26.3790   33.4340 C   0  0  0  0  0  0  0  0  0  0  0  0
   36.5310   27.5590   32.9020 C   0  0  0  0  0  0  0  0  0  0  0  0
   35.8520   27.5270   31.6800 C   0  0  0  0  0  0  0  0  0  0  0  0
   35.6980   26.3730   31.0110 N   0  0  0  0  0  0  0  0  0  0  0  0
   36.2110   25.2440   31.5430 C   0  0  0  0  0  0  0  0  0  0  0  0
   36.8750   25.2420   32.7250 N   0  0  0  0  0  0  0  0  0  0  0  0
   38.7421   27.5824   35.9794 H   0  0  0  0  0  0  0  0  0  0  0  0
   39.0089   27.9827   34.2360 H   0  0  0  0  0  0  0  0  0  0  0  0
   38.8291   24.6216   35.7014 H   0  0  0  0  0  0  0  0  0  0  0  0
   41.4275   27.7060   34.1321 H   0  0  0  0  0  0  0  0  0  0  0  0
   42.8929   23.7814   34.8813 H   0  0  0  0  0  0  0  0  0  0  0  0
   36.6512   28.5097   33.4422 H   0  0  0  0  0  0  0  0  0  0  0  0
   35.4396   28.4573   31.2622 H   0  0  0  0  0  0  0  0  0  0  0  0
   36.0865   24.2952   31.0005 H   0  0  0  0  0  0  0  0  0  0  0  0
  3  1  1  0
  3  2  2  0
  4  5  2  0
  4  3  1  0
  5  6  1  0
  6  7  2  0
  7  2  1  0
  8  1  1  0
  9  8  1  0
 10  9  2  0
 11 10  1  0
 12 13  1  0
 12 11  2  0
 13 14  2  0
 14  9  1  0
  1 15  1  0
  1 16  1  0
  2 17  1  0
  4 18  1  0
  6 19  1  0
 10 20  1  0
 11 21  1  0
 13 22  1  0
M  ISO  8  15   8  16   8  17  14  18  14  19  14  20  14  21  14  22  14
M  END
>  <minimizedAffinity>  (1) 
-3.17072439

>  <minimizedRMSD>  (1) 
6.92452765

$$$$
