
     RDKit          3D

 50 53  0  0  1  0  0  0  0  0999 V2000
   39.9200   27.4860   31.9030 C   0  0  0  0  0  0  0  0  0  0  0  0
   41.2160   27.1630   31.1790 C   0  0  1  0  0  0  0  0  0  0  0  0
   41.7330   28.3040   30.3800 C   0  0  0  0  0  0  0  0  0  0  0  0
   42.8530   29.0580   30.9980 C   0  0  0  0  0  0  0  0  0  0  0  0
   43.8170   28.2780   31.8180 C   0  0  0  0  0  0  0  0  0  0  0  0
   43.0940   27.4300   32.8200 C   0  0  0  0  0  0  0  0  0  0  0  0
   42.1990   26.4980   32.0790 C   0  0  2  0  0  0  0  0  0  0  0  0
   42.9180   25.4150   31.3520 C   0  0  0  0  0  0  0  0  0  0  0  0
   42.3480   24.8560   30.2020 C   0  0  0  0  0  0  0  0  0  0  0  0
   42.9250   23.8520   29.4530 C   0  0  0  0  0  0  0  0  0  0  0  0
   44.1450   23.3540   29.8510 C   0  0  0  0  0  0  0  0  0  0  0  0
   44.6920   23.9100   30.9790 C   0  0  0  0  0  0  0  0  0  0  0  0
   44.1080   24.8870   31.6900 N   0  0  0  0  0  0  0  0  0  0  0  0
   38.4810   24.5890   33.7930 N   0  0  0  0  0  0  0  0  0  0  0  0
   39.1830   25.7150   33.5750 C   0  0  0  0  0  0  0  0  0  0  0  0
   39.1850   26.2450   32.2940 C   0  0  0  0  0  0  0  0  0  0  0  0
   38.4650   25.6010   31.2890 C   0  0  0  0  0  0  0  0  0  0  0  0
   38.4000   25.9960   30.1010 O   0  0  0  0  0  0  0  0  0  0  0  0
   37.7680   24.4640   31.5560 N   0  0  0  0  0  0  0  0  0  0  0  0
   37.7950   23.9860   32.8080 C   0  0  0  0  0  0  0  0  0  0  0  0
   37.1550   22.9400   33.0570 O   0  0  0  0  0  0  0  0  0  0  0  0
   37.8110   24.8030   36.1050 C   0  0  0  0  0  0  0  0  0  0  0  0
   38.5420   24.1260   35.1220 C   0  0  0  0  0  0  0  0  0  0  0  0
   39.2930   23.0230   35.5220 C   0  0  0  0  0  0  0  0  0  0  0  0
   39.2750   22.6620   36.8510 N   0  0  0  0  0  0  0  0  0  0  0  0
   38.5600   23.3380   37.7670 C   0  0  0  0  0  0  0  0  0  0  0  0
   37.8390   24.4000   37.3790 N   0  0  0  0  0  0  0  0  0  0  0  0
   38.7120   22.7700   39.0490 N   0  0  0  0  0  0  0  0  0  0  0  0
   39.2801   28.0859   31.2392 H   0  0  0  0  0  0  0  0  0  0  0  0
   40.1668   28.0430   32.8189 H   0  0  0  0  0  0  0  0  0  0  0  0
   40.9968   26.4071   30.4105 H   0  0  0  0  0  0  0  0  0  0  0  0
   40.9024   29.0057   30.2134 H   0  0  0  0  0  0  0  0  0  0  0  0
   42.1355   27.8680   29.4538 H   0  0  0  0  0  0  0  0  0  0  0  0
   43.4192   29.5373   30.1858 H   0  0  0  0  0  0  0  0  0  0  0  0
   42.3754   29.7550   31.7023 H   0  0  0  0  0  0  0  0  0  0  0  0
   44.4112   27.6294   31.1575 H   0  0  0  0  0  0  0  0  0  0  0  0
   44.4732   28.9787   32.3550 H   0  0  0  0  0  0  0  0  0  0  0  0
   43.8195   26.8559   33.4150 H   0  0  0  0  0  0  0  0  0  0  0  0
   42.5052   28.0630   33.5002 H   0  0  0  0  0  0  0  0  0  0  0  0
   41.6221   26.0281   32.8892 H   0  0  0  0  0  0  0  0  0  0  0  0
   41.3728   25.2443   29.8732 H   0  0  0  0  0  0  0  0  0  0  0  0
   42.4217   23.4581   28.5578 H   0  0  0  0  0  0  0  0  0  0  0  0
   44.6538   22.5532   29.2943 H   0  0  0  0  0  0  0  0  0  0  0  0
   45.6670   23.5329   31.3212 H   0  0  0  0  0  0  0  0  0  0  0  0
   39.7396   26.2015   34.3896 H   0  0  0  0  0  0  0  0  0  0  0  0
   37.2346   23.9839   30.8172 H   0  0  0  0  0  0  0  0  0  0  0  0
   37.2057   25.6779   35.8254 H   0  0  0  0  0  0  0  0  0  0  0  0
   39.8872   22.4530   34.7926 H   0  0  0  0  0  0  0  0  0  0  0  0
   38.2221   23.1817   39.8561 H   0  0  0  0  0  0  0  0  0  0  0  0
   39.3130   21.9435   39.1782 H   0  0  0  0  0  0  0  0  0  0  0  0
  1 16  1  0
  2  1  1  0
  2  7  1  0
  3  4  1  0
  3  2  1  0
  4  5  1  0
  5  6  1  0
  7  6  1  0
  8 13  1  0
  8  7  1  0
  9  8  2  0
 10 11  2  0
 10  9  1  0
 11 12  1  0
 12 13  2  0
 14 23  1  0
 15 14  1  0
 16 15  2  0
 17 19  1  0
 17 16  1  0
 18 17  2  0
 19 20  1  0
 20 21  2  0
 20 14  1  0
 22 27  2  0
 23 24  2  0
 23 22  1  0
 24 25  1  0
 25 26  2  0
 26 28  1  0
 27 26  1  0
  1 29  1  0
  1 30  1  0
  2 31  1  6
  3 32  1  0
  3 33  1  0
  4 34  1  0
  4 35  1  0
  5 36  1  0
  5 37  1  0
  6 38  1  0
  6 39  1  0
  7 40  1  1
  9 41  1  0
 10 42  1  0
 11 43  1  0
 12 44  1  0
 15 45  1  0
 19 46  1  0
 22 47  1  0
 24 48  1  0
 28 49  1  0
 28 50  1  0
M  ISO  8  29   8  30   8  31  13  32  13  33  13  34  13  35  13  36  13
M  ISO  8  37  13  38  13  39  13  40  13  41  14  42  14  43  14  44  14
M  ISO  4  45  14  46   9  47  14  48  14
M  END
>  <minimizedAffinity>  (1) 
-4.45073605

>  <minimizedRMSD>  (1) 
0.145887718

$$$$
