
     RDKit          3D

 40 43  0  0  1  0  0  0  0  0999 V2000
   40.6730   24.2440   35.4820 N   0  0  0  0  0  0  0  0  0  0  0  0
   41.5300   23.1420   35.8590 C   0  0  0  0  0  0  0  0  0  0  0  0
   40.6140   22.0530   36.3950 C   0  0  0  0  0  0  0  0  0  0  0  0
   39.5140   22.9460   37.0090 C   0  0  0  0  0  0  0  0  0  0  0  0
   39.3400   23.8990   35.8340 C   0  0  2  0  0  0  0  0  0  0  0  0
   38.6500   23.0610   34.7770 C   0  0  0  0  0  0  0  0  0  0  0  0
   39.0760   23.0800   33.4490 C   0  0  0  0  0  0  0  0  0  0  0  0
   38.3390   22.2650   32.6770 N   0  0  0  0  0  0  0  0  0  0  0  0
   37.4250   21.7070   33.4930 C   0  0  0  0  0  0  0  0  0  0  0  0
   36.3940   20.7980   33.3160 C   0  0  0  0  0  0  0  0  0  0  0  0
   35.5990   20.4040   34.3800 C   0  0  0  0  0  0  0  0  0  0  0  0
   35.8150   20.9110   35.6610 C   0  0  0  0  0  0  0  0  0  0  0  0
   36.8420   21.8280   35.8790 C   0  0  0  0  0  0  0  0  0  0  0  0
   37.5930   22.1750   34.7780 C   0  0  0  0  0  0  0  0  0  0  0  0
   38.5550   24.9910   36.0100 O   0  0  0  0  0  0  0  0  0  0  0  0
   39.2290   26.0410   35.4170 C   0  0  0  0  0  0  0  0  0  0  0  0
   38.6730   26.8330   33.1630 C   0  0  0  0  0  0  0  0  0  0  0  0
   38.3090   26.7590   34.5240 C   0  0  0  0  0  0  0  0  0  0  0  0
   37.1680   27.3810   34.9250 C   0  0  0  0  0  0  0  0  0  0  0  0
   36.4110   28.0600   33.9960 N   0  0  0  0  0  0  0  0  0  0  0  0
   36.7910   28.1060   32.7140 C   0  0  0  0  0  0  0  0  0  0  0  0
   37.9160   27.5080   32.2440 N   0  0  0  0  0  0  0  0  0  0  0  0
   40.7365   24.4056   34.4667 H   0  0  0  0  0  0  0  0  0  0  0  0
   42.0861   22.7752   34.9837 H   0  0  0  0  0  0  0  0  0  0  0  0
   42.2689   23.4501   36.6134 H   0  0  0  0  0  0  0  0  0  0  0  0
   40.2235   21.4101   35.5924 H   0  0  0  0  0  0  0  0  0  0  0  0
   41.0831   21.3367   37.0856 H   0  0  0  0  0  0  0  0  0  0  0  0
   38.5948   22.3835   37.2298 H   0  0  0  0  0  0  0  0  0  0  0  0
   39.7516   23.4099   37.9777 H   0  0  0  0  0  0  0  0  0  0  0  0
   39.9141   23.6888   33.0789 H   0  0  0  0  0  0  0  0  0  0  0  0
   38.4503   22.1003   31.6664 H   0  0  0  0  0  0  0  0  0  0  0  0
   36.2039   20.3829   32.3152 H   0  0  0  0  0  0  0  0  0  0  0  0
   34.7866   19.6816   34.2121 H   0  0  0  0  0  0  0  0  0  0  0  0
   35.1769   20.5883   36.4969 H   0  0  0  0  0  0  0  0  0  0  0  0
   37.0414   22.2508   36.8747 H   0  0  0  0  0  0  0  0  0  0  0  0
   39.5991   26.7267   36.1934 H   0  0  0  0  0  0  0  0  0  0  0  0
   40.0815   25.6551   34.8388 H   0  0  0  0  0  0  0  0  0  0  0  0
   39.5942   26.3325   32.8300 H   0  0  0  0  0  0  0  0  0  0  0  0
   36.8535   27.3423   35.9784 H   0  0  0  0  0  0  0  0  0  0  0  0
   36.1585   28.6576   32.0029 H   0  0  0  0  0  0  0  0  0  0  0  0
  1  5  1  0
  1  2  1  0
  2  3  1  0
  3  4  1  0
  5 15  1  1
  5  4  1  0
  6 14  1  0
  6  5  1  0
  7  6  2  0
  8  7  1  0
  8  9  1  0
  9 14  2  0
 10  9  1  0
 10 11  2  0
 11 12  1  0
 12 13  2  0
 14 13  1  0
 16 15  1  0
 17 18  2  0
 18 19  1  0
 18 16  1  0
 20 19  2  0
 21 20  1  0
 22 21  2  0
 22 17  1  0
  1 23  1  0
  2 24  1  0
  2 25  1  0
  3 26  1  0
  3 27  1  0
  4 28  1  0
  4 29  1  0
  7 30  1  0
  8 31  1  0
 10 32  1  0
 11 33  1  0
 12 34  1  0
 13 35  1  0
 16 36  1  0
 16 37  1  0
 17 38  1  0
 19 39  1  0
 21 40  1  0
M  ISO  8  23   5  24  13  25  13  26  13  27  13  28  13  29  13  30  14
M  ISO  8  31   9  32  14  33  14  34  14  35  14  36   8  37   8  38  14
M  ISO  2  39  14  40  14
M  END
>  <minimizedAffinity>  (1) 
-4.95924902

>  <minimizedRMSD>  (1) 
2.01382685

$$$$
