
     RDKit          3D

 39 41  0  0  1  0  0  0  0  0999 V2000
   40.0400   23.8520   35.4400 N   0  0  0  0  0  0  0  0  0  0  0  0
   41.0170   22.9040   35.8760 C   0  0  0  0  0  0  0  0  0  0  0  0
   40.2820   22.0130   36.8720 C   0  0  0  0  0  0  0  0  0  0  0  0
   39.3720   23.1040   37.4910 C   0  0  0  0  0  0  0  0  0  0  0  0
   38.8630   23.7050   36.1840 C   0  0  2  0  0  0  0  0  0  0  0  0
   37.8820   22.7130   35.6850 N   0  0  0  0  0  0  0  0  0  0  0  0
   38.0830   22.4380   34.3740 C   0  0  0  0  0  0  0  0  0  0  0  0
   37.2360   21.5210   33.7590 C   0  0  0  0  0  0  0  0  0  0  0  0
   37.4320   21.1930   32.3060 C   0  0  0  0  0  0  0  0  0  0  0  0
   36.2230   20.9160   34.4880 C   0  0  0  0  0  0  0  0  0  0  0  0
   35.4400   20.0820   33.9590 O   0  0  0  0  0  0  0  0  0  0  0  0
   36.1000   21.2520   35.7830 N   0  0  0  0  0  0  0  0  0  0  0  0
   36.9000   22.1290   36.3960 C   0  0  0  0  0  0  0  0  0  0  0  0
   36.8250   22.4680   37.5820 O   0  0  0  0  0  0  0  0  0  0  0  0
   38.1450   24.8530   36.2790 O   0  0  0  0  0  0  0  0  0  0  0  0
   38.8370   25.8070   35.5670 C   0  0  0  0  0  0  0  0  0  0  0  0
   37.6970   25.9900   33.4050 C   0  0  0  0  0  0  0  0  0  0  0  0
   37.9000   26.5280   34.6960 C   0  0  0  0  0  0  0  0  0  0  0  0
   37.2600   27.6800   35.0240 C   0  0  0  0  0  0  0  0  0  0  0  0
   36.4390   28.2780   34.0890 N   0  0  0  0  0  0  0  0  0  0  0  0
   36.2730   27.7360   32.8790 C   0  0  0  0  0  0  0  0  0  0  0  0
   36.8810   26.5880   32.4830 N   0  0  0  0  0  0  0  0  0  0  0  0
   40.4083   24.8051   35.5695 H   0  0  0  0  0  0  0  0  0  0  0  0
   41.3873   22.3114   35.0265 H   0  0  0  0  0  0  0  0  0  0  0  0
   41.8949   23.3911   36.3254 H   0  0  0  0  0  0  0  0  0  0  0  0
   39.7047   21.2188   36.3760 H   0  0  0  0  0  0  0  0  0  0  0  0
   40.9111   21.4477   37.5754 H   0  0  0  0  0  0  0  0  0  0  0  0
   38.5610   22.6771   38.0993 H   0  0  0  0  0  0  0  0  0  0  0  0
   39.8545   23.8007   38.1923 H   0  0  0  0  0  0  0  0  0  0  0  0
   38.8928   22.9257   33.8115 H   0  0  0  0  0  0  0  0  0  0  0  0
   37.9943   20.2520   32.2152 H   0  0  0  0  0  0  0  0  0  0  0  0
   36.4516   21.0827   31.8195 H   0  0  0  0  0  0  0  0  0  0  0  0
   37.9936   22.0041   31.8195 H   0  0  0  0  0  0  0  0  0  0  0  0
   35.3491   20.8100   36.3323 H   0  0  0  0  0  0  0  0  0  0  0  0
   39.3118   26.5141   36.2631 H   0  0  0  0  0  0  0  0  0  0  0  0
   39.6141   25.3236   34.9567 H   0  0  0  0  0  0  0  0  0  0  0  0
   38.2130   25.0578   33.1315 H   0  0  0  0  0  0  0  0  0  0  0  0
   37.3937   28.1295   36.0190 H   0  0  0  0  0  0  0  0  0  0  0  0
   35.6089   28.2466   32.1661 H   0  0  0  0  0  0  0  0  0  0  0  0
  1  2  1  0
  1  5  1  0
  2  3  1  0
  3  4  1  0
  5 15  1  1
  5  4  1  0
  6  5  1  0
  6 13  1  0
  7  6  1  0
  8  7  2  0
  8 10  1  0
  9  8  1  0
 10 12  1  0
 11 10  2  0
 12 13  1  0
 13 14  2  0
 16 15  1  0
 17 18  2  0
 18 19  1  0
 18 16  1  0
 20 19  2  0
 21 20  1  0
 22 21  2  0
 22 17  1  0
  1 23  1  0
  2 24  1  0
  2 25  1  0
  3 26  1  0
  3 27  1  0
  4 28  1  0
  4 29  1  0
  7 30  1  0
  9 31  1  0
  9 32  1  0
  9 33  1  0
 12 34  1  0
 16 35  1  0
 16 36  1  0
 17 37  1  0
 19 38  1  0
 21 39  1  0
M  ISO  8  23   5  24  13  25  13  26  13  27  13  28  13  29  13  30  14
M  ISO  8  31   8  32   8  33   8  34   9  35   8  36   8  37  14  38  14
M  ISO  1  39  14
M  END
>  <minimizedAffinity>  (1) 
-4.68104506

>  <minimizedRMSD>  (1) 
1.30127084

$$$$
