
     RDKit          3D

 39 41  0  0  1  0  0  0  0  0999 V2000
   39.7550   23.6340   35.6280 N   0  0  0  0  0  0  0  0  0  0  0  0
   40.8420   22.9920   36.3390 C   0  0  0  0  0  0  0  0  0  0  0  0
   40.2480   22.3320   37.5600 C   0  0  0  0  0  0  0  0  0  0  0  0
   39.0410   23.2460   37.8000 C   0  0  0  0  0  0  0  0  0  0  0  0
   38.5670   23.4080   36.3620 C   0  0  2  0  0  0  0  0  0  0  0  0
   37.8760   22.0800   35.9830 C   0  0  0  0  0  0  0  0  0  0  0  0
   36.5680   21.9550   36.7320 C   0  0  0  0  0  0  0  0  0  0  0  0
   35.7410   21.0090   35.8900 C   0  0  0  0  0  0  0  0  0  0  0  0
   36.4730   20.8950   34.5470 C   0  0  0  0  0  0  0  0  0  0  0  0
   37.4130   22.1080   34.5480 C   0  0  0  0  0  0  0  0  0  0  0  0
   37.6180   24.3470   36.1090 O   0  0  0  0  0  0  0  0  0  0  0  0
   38.3020   25.5250   35.8780 C   0  0  0  0  0  0  0  0  0  0  0  0
   37.4680   25.6440   33.5700 C   0  0  0  0  0  0  0  0  0  0  0  0
   37.6120   26.2810   34.8220 C   0  0  0  0  0  0  0  0  0  0  0  0
   37.1510   27.5520   34.9630 C   0  0  0  0  0  0  0  0  0  0  0  0
   36.5600   28.1700   33.8790 N   0  0  0  0  0  0  0  0  0  0  0  0
   36.4420   27.5310   32.7110 C   0  0  0  0  0  0  0  0  0  0  0  0
   36.8780   26.2750   32.5100 N   0  0  0  0  0  0  0  0  0  0  0  0
   39.9339   24.6456   35.5533 H   0  0  0  0  0  0  0  0  0  0  0  0
   41.3186   22.2369   35.6966 H   0  0  0  0  0  0  0  0  0  0  0  0
   41.6088   23.7266   36.6261 H   0  0  0  0  0  0  0  0  0  0  0  0
   39.9405   21.2960   37.3545 H   0  0  0  0  0  0  0  0  0  0  0  0
   40.9341   22.2386   38.4147 H   0  0  0  0  0  0  0  0  0  0  0  0
   38.2801   22.7652   38.4323 H   0  0  0  0  0  0  0  0  0  0  0  0
   39.2591   24.1837   38.3321 H   0  0  0  0  0  0  0  0  0  0  0  0
   38.6026   21.2817   36.1945 H   0  0  0  0  0  0  0  0  0  0  0  0
   36.7331   21.5387   37.7367 H   0  0  0  0  0  0  0  0  0  0  0  0
   36.0741   22.9270   36.8781 H   0  0  0  0  0  0  0  0  0  0  0  0
   35.6743   20.0237   36.3746 H   0  0  0  0  0  0  0  0  0  0  0  0
   34.7125   21.3769   35.7602 H   0  0  0  0  0  0  0  0  0  0  0  0
   35.7645   20.9472   33.7072 H   0  0  0  0  0  0  0  0  0  0  0  0
   37.0058   19.9399   34.4289 H   0  0  0  0  0  0  0  0  0  0  0  0
   38.2500   21.9763   33.8465 H   0  0  0  0  0  0  0  0  0  0  0  0
   36.9495   23.0533   34.2293 H   0  0  0  0  0  0  0  0  0  0  0  0
   38.3295   26.1225   36.8012 H   0  0  0  0  0  0  0  0  0  0  0  0
   39.3315   25.3008   35.5619 H   0  0  0  0  0  0  0  0  0  0  0  0
   37.8391   24.6161   33.4445 H   0  0  0  0  0  0  0  0  0  0  0  0
   37.2471   28.0789   35.9238 H   0  0  0  0  0  0  0  0  0  0  0  0
   35.9644   28.0589   31.8724 H   0  0  0  0  0  0  0  0  0  0  0  0
  1  2  1  0
  1  5  1  0
  2  3  1  0
  3  4  1  0
  5 11  1  1
  5  4  1  0
  6  5  1  0
  6  7  1  0
  8  7  1  0
  9 10  1  0
  9  8  1  0
 10  6  1  0
 12 11  1  0
 13 14  2  0
 14 15  1  0
 14 12  1  0
 16 15  2  0
 17 16  1  0
 18 17  2  0
 18 13  1  0
  1 19  1  0
  2 20  1  0
  2 21  1  0
  3 22  1  0
  3 23  1  0
  4 24  1  0
  4 25  1  0
  6 26  1  0
  7 27  1  0
  7 28  1  0
  8 29  1  0
  8 30  1  0
  9 31  1  0
  9 32  1  0
 10 33  1  0
 10 34  1  0
 12 35  1  0
 12 36  1  0
 13 37  1  0
 15 38  1  0
 17 39  1  0
M  ISO  8  19   5  20  13  21  13  22  13  23  13  24  13  25  13  26  13
M  ISO  8  27  13  28  13  29  13  30  13  31  13  32  13  33  13  34  13
M  ISO  5  35   8  36   8  37  14  38  14  39  14
M  END
>  <minimizedAffinity>  (1) 
-4.30659485

>  <minimizedRMSD>  (1) 
0.604371309

$$$$
