
     RDKit          3D

 33 35  0  0  1  0  0  0  0  0999 V2000
   39.7390   23.9370   35.8580 N   0  0  0  0  0  0  0  0  0  0  0  0
   40.6930   23.0170   36.4320 C   0  0  0  0  0  0  0  0  0  0  0  0
   39.9970   22.2880   37.5530 C   0  0  0  0  0  0  0  0  0  0  0  0
   38.9660   23.3480   37.9610 C   0  0  0  0  0  0  0  0  0  0  0  0
   38.5190   23.8050   36.5760 C   0  0  2  0  0  0  0  0  0  0  0  0
   37.6480   22.6930   36.0130 C   0  0  0  0  0  0  0  0  0  0  0  0
   37.6630   22.1280   34.7550 C   0  0  0  0  0  0  0  0  0  0  0  0
   36.6950   21.1470   34.6840 C   0  0  0  0  0  0  0  0  0  0  0  0
   36.1240   21.1660   35.9380 C   0  0  0  0  0  0  0  0  0  0  0  0
   36.7040   22.0770   36.6830 O   0  0  0  0  0  0  0  0  0  0  0  0
   37.7520   24.9160   36.4980 O   0  0  0  0  0  0  0  0  0  0  0  0
   38.5050   25.8650   35.8330 C   0  0  0  0  0  0  0  0  0  0  0  0
   37.5000   25.7600   33.5920 C   0  0  0  0  0  0  0  0  0  0  0  0
   37.6850   26.4910   34.7860 C   0  0  0  0  0  0  0  0  0  0  0  0
   37.1400   27.7360   34.8770 C   0  0  0  0  0  0  0  0  0  0  0  0
   36.4300   28.2350   33.8060 N   0  0  0  0  0  0  0  0  0  0  0  0
   36.2770   27.5120   32.6920 C   0  0  0  0  0  0  0  0  0  0  0  0
   36.7910   26.2800   32.5440 N   0  0  0  0  0  0  0  0  0  0  0  0
   40.0904   24.9018   35.9394 H   0  0  0  0  0  0  0  0  0  0  0  0
   41.0298   22.2998   35.6690 H   0  0  0  0  0  0  0  0  0  0  0  0
   41.5752   23.5560   36.8076 H   0  0  0  0  0  0  0  0  0  0  0  0
   39.5150   21.3638   37.2016 H   0  0  0  0  0  0  0  0  0  0  0  0
   40.6572   21.9476   38.3643 H   0  0  0  0  0  0  0  0  0  0  0  0
   38.1364   22.9137   38.5381 H   0  0  0  0  0  0  0  0  0  0  0  0
   39.3458   24.1440   38.6183 H   0  0  0  0  0  0  0  0  0  0  0  0
   38.3402   22.4143   33.9368 H   0  0  0  0  0  0  0  0  0  0  0  0
   36.4399   20.5030   33.8295 H   0  0  0  0  0  0  0  0  0  0  0  0
   35.3021   20.5129   36.2664 H   0  0  0  0  0  0  0  0  0  0  0  0
   38.8400   26.6332   36.5455 H   0  0  0  0  0  0  0  0  0  0  0  0
   39.3821   25.3842   35.3752 H   0  0  0  0  0  0  0  0  0  0  0  0
   37.9343   24.7533   33.5029 H   0  0  0  0  0  0  0  0  0  0  0  0
   37.2646   28.3344   35.7916 H   0  0  0  0  0  0  0  0  0  0  0  0
   35.7043   27.9457   31.8590 H   0  0  0  0  0  0  0  0  0  0  0  0
  1  2  1  0
  1  5  1  0
  2  3  1  0
  3  4  1  0
  5 11  1  1
  5  4  1  0
  6  5  1  0
  6 10  1  0
  7  6  2  0
  8  7  1  0
  8  9  2  0
  9 10  1  0
 12 11  1  0
 13 14  2  0
 14 15  1  0
 14 12  1  0
 16 15  2  0
 17 16  1  0
 18 17  2  0
 18 13  1  0
  1 19  1  0
  2 20  1  0
  2 21  1  0
  3 22  1  0
  3 23  1  0
  4 24  1  0
  4 25  1  0
  7 26  1  0
  8 27  1  0
  9 28  1  0
 12 29  1  0
 12 30  1  0
 13 31  1  0
 15 32  1  0
 17 33  1  0
M  ISO  8  19   5  20  13  21  13  22  13  23  13  24  13  25  13  26  14
M  ISO  7  27  14  28  14  29   8  30   8  31  14  32  14  33  14
M  END
>  <minimizedAffinity>  (1) 
-4.23581457

>  <minimizedRMSD>  (1) 
0.961180806

$$$$
