
     RDKit          3D

 41 43  0  0  1  0  0  0  0  0999 V2000
   39.8250   23.8670   35.2710 N   0  0  0  0  0  0  0  0  0  0  0  0
   40.9080   23.1900   35.9490 C   0  0  0  0  0  0  0  0  0  0  0  0
   40.2510   22.2020   36.9020 C   0  0  0  0  0  0  0  0  0  0  0  0
   39.0270   23.0630   37.2920 C   0  0  0  0  0  0  0  0  0  0  0  0
   38.6060   23.4690   35.8920 C   0  0  2  0  0  0  0  0  0  0  0  0
   38.0180   22.2230   35.3520 N   0  0  0  0  0  0  0  0  0  0  0  0
   36.9900   21.7380   36.2030 C   0  0  0  0  0  0  0  0  0  0  0  0
   35.7700   21.2280   35.5350 C   0  0  0  0  0  0  0  0  0  0  0  0
   35.9530   20.5990   34.1910 C   0  0  0  0  0  0  0  0  0  0  0  0
   37.1920   21.0350   33.4760 C   0  0  0  0  0  0  0  0  0  0  0  0
   37.5000   22.4360   34.0230 C   0  0  0  0  0  0  0  0  0  0  0  0
   37.6380   24.4130   35.7840 O   0  0  0  0  0  0  0  0  0  0  0  0
   38.2880   25.6240   35.6720 C   0  0  0  0  0  0  0  0  0  0  0  0
   37.3460   25.9650   33.4330 C   0  0  0  0  0  0  0  0  0  0  0  0
   37.5430   26.4770   34.7370 C   0  0  0  0  0  0  0  0  0  0  0  0
   37.0730   27.7210   35.0220 C   0  0  0  0  0  0  0  0  0  0  0  0
   36.4250   28.4340   34.0340 N   0  0  0  0  0  0  0  0  0  0  0  0
   36.2600   27.9120   32.8130 C   0  0  0  0  0  0  0  0  0  0  0  0
   36.7020   26.6810   32.4610 N   0  0  0  0  0  0  0  0  0  0  0  0
   39.8142   23.6016   34.2758 H   0  0  0  0  0  0  0  0  0  0  0  0
   41.5409   22.6583   35.2232 H   0  0  0  0  0  0  0  0  0  0  0  0
   41.5547   23.8997   36.4858 H   0  0  0  0  0  0  0  0  0  0  0  0
   39.9604   21.2679   36.3990 H   0  0  0  0  0  0  0  0  0  0  0  0
   40.8755   21.8449   37.7341 H   0  0  0  0  0  0  0  0  0  0  0  0
   38.2518   22.4772   37.8076 H   0  0  0  0  0  0  0  0  0  0  0  0
   39.2177   23.8846   37.9981 H   0  0  0  0  0  0  0  0  0  0  0  0
   37.4110   20.9179   36.8031 H   0  0  0  0  0  0  0  0  0  0  0  0
   36.6607   22.6081   36.7899 H   0  0  0  0  0  0  0  0  0  0  0  0
   35.3180   20.4745   36.1968 H   0  0  0  0  0  0  0  0  0  0  0  0
   35.1461   22.1160   35.3558 H   0  0  0  0  0  0  0  0  0  0  0  0
   35.9965   19.5079   34.3234 H   0  0  0  0  0  0  0  0  0  0  0  0
   35.1011   20.9186   33.5728 H   0  0  0  0  0  0  0  0  0  0  0  0
   37.0175   21.0744   32.3906 H   0  0  0  0  0  0  0  0  0  0  0  0
   38.0271   20.3376   33.6377 H   0  0  0  0  0  0  0  0  0  0  0  0
   38.2494   22.9386   33.3939 H   0  0  0  0  0  0  0  0  0  0  0  0
   36.6067   23.0778   34.0302 H   0  0  0  0  0  0  0  0  0  0  0  0
   38.3362   26.1101   36.6576 H   0  0  0  0  0  0  0  0  0  0  0  0
   39.3108   25.4658   35.2994 H   0  0  0  0  0  0  0  0  0  0  0  0
   37.7224   24.9597   33.1929 H   0  0  0  0  0  0  0  0  0  0  0  0
   37.2074   28.1523   36.0249 H   0  0  0  0  0  0  0  0  0  0  0  0
   35.7378   28.5144   32.0551 H   0  0  0  0  0  0  0  0  0  0  0  0
  1  5  1  0
  1  2  1  0
  2  3  1  0
  3  4  1  0
  5 12  1  1
  5  4  1  0
  6  5  1  0
  6  7  1  0
  8  7  1  0
  9  8  1  0
 10 11  1  0
 10  9  1  0
 11  6  1  0
 13 12  1  0
 14 15  2  0
 15 16  1  0
 15 13  1  0
 17 16  2  0
 18 17  1  0
 19 18  2  0
 19 14  1  0
  1 20  1  0
  2 21  1  0
  2 22  1  0
  3 23  1  0
  3 24  1  0
  4 25  1  0
  4 26  1  0
  7 27  1  0
  7 28  1  0
  8 29  1  0
  8 30  1  0
  9 31  1  0
  9 32  1  0
 10 33  1  0
 10 34  1  0
 11 35  1  0
 11 36  1  0
 13 37  1  0
 13 38  1  0
 14 39  1  0
 16 40  1  0
 18 41  1  0
M  ISO  8  20   5  21  13  22  13  23  13  24  13  25  13  26  13  27  13
M  ISO  8  28  13  29  13  30  13  31  13  32  13  33  13  34  13  35  13
M  ISO  6  36  13  37   8  38   8  39  14  40  14  41  14
M  END
>  <minimizedAffinity>  (1) 
-4.1401248

>  <minimizedRMSD>  (1) 
0.853090346

$$$$
