
     RDKit          3D

 33 35  0  0  1  0  0  0  0  0999 V2000
   39.8860   24.0490   35.8760 N   0  0  0  0  0  0  0  0  0  0  0  0
   40.8100   23.0960   36.4370 C   0  0  0  0  0  0  0  0  0  0  0  0
   40.0510   22.3260   37.5020 C   0  0  0  0  0  0  0  0  0  0  0  0
   39.0270   23.3920   37.9230 C   0  0  0  0  0  0  0  0  0  0  0  0
   38.6480   23.8970   36.5420 C   0  0  2  0  0  0  0  0  0  0  0  0
   37.8090   22.8180   35.9690 N   0  0  0  0  0  0  0  0  0  0  0  0
   37.8680   22.3230   34.7180 C   0  0  0  0  0  0  0  0  0  0  0  0
   36.8910   21.3570   34.7060 C   0  0  0  0  0  0  0  0  0  0  0  0
   36.2690   21.2710   35.8960 N   0  0  0  0  0  0  0  0  0  0  0  0
   36.8540   22.1960   36.6860 C   0  0  0  0  0  0  0  0  0  0  0  0
   37.8750   25.0100   36.4750 O   0  0  0  0  0  0  0  0  0  0  0  0
   38.6180   25.9480   35.7850 C   0  0  0  0  0  0  0  0  0  0  0  0
   37.6380   25.8700   33.5300 C   0  0  0  0  0  0  0  0  0  0  0  0
   37.7650   26.5610   34.7560 C   0  0  0  0  0  0  0  0  0  0  0  0
   37.1300   27.7560   34.8880 C   0  0  0  0  0  0  0  0  0  0  0  0
   36.3930   28.2450   33.8300 N   0  0  0  0  0  0  0  0  0  0  0  0
   36.3010   27.5580   32.6880 C   0  0  0  0  0  0  0  0  0  0  0  0
   36.9040   26.3740   32.4950 N   0  0  0  0  0  0  0  0  0  0  0  0
   40.2426   25.0054   36.0140 H   0  0  0  0  0  0  0  0  0  0  0  0
   41.1674   22.4095   35.6554 H   0  0  0  0  0  0  0  0  0  0  0  0
   41.6880   23.6017   36.8652 H   0  0  0  0  0  0  0  0  0  0  0  0
   39.5624   21.4313   37.0887 H   0  0  0  0  0  0  0  0  0  0  0  0
   40.6721   21.9316   38.3197 H   0  0  0  0  0  0  0  0  0  0  0  0
   38.1687   22.9553   38.4547 H   0  0  0  0  0  0  0  0  0  0  0  0
   39.3926   24.1542   38.6269 H   0  0  0  0  0  0  0  0  0  0  0  0
   38.5395   22.6214   33.8994 H   0  0  0  0  0  0  0  0  0  0  0  0
   36.6480   20.7327   33.8336 H   0  0  0  0  0  0  0  0  0  0  0  0
   36.5953   22.4055   37.7344 H   0  0  0  0  0  0  0  0  0  0  0  0
   38.9740   26.7225   36.4803 H   0  0  0  0  0  0  0  0  0  0  0  0
   39.4863   25.4650   35.3130 H   0  0  0  0  0  0  0  0  0  0  0  0
   38.1436   24.9009   33.4063 H   0  0  0  0  0  0  0  0  0  0  0  0
   37.2032   28.3252   35.8264 H   0  0  0  0  0  0  0  0  0  0  0  0
   35.7034   27.9821   31.8676 H   0  0  0  0  0  0  0  0  0  0  0  0
  1  2  1  0
  1  5  1  0
  2  3  1  0
  3  4  1  0
  5 11  1  1
  5  4  1  0
  6  5  1  0
  6 10  1  0
  7  6  1  0
  8  7  2  0
  8  9  1  0
  9 10  2  0
 12 11  1  0
 13 14  2  0
 14 15  1  0
 14 12  1  0
 16 15  2  0
 17 16  1  0
 18 17  2  0
 18 13  1  0
  1 19  1  0
  2 20  1  0
  2 21  1  0
  3 22  1  0
  3 23  1  0
  4 24  1  0
  4 25  1  0
  7 26  1  0
  8 27  1  0
 10 28  1  0
 12 29  1  0
 12 30  1  0
 13 31  1  0
 15 32  1  0
 17 33  1  0
M  ISO  8  19   5  20  13  21  13  22  13  23  13  24  13  25  13  26  14
M  ISO  7  27  14  28  14  29   8  30   8  31  14  32  14  33  14
M  END
>  <minimizedAffinity>  (1) 
-4.04071951

>  <minimizedRMSD>  (1) 
1.108289

$$$$
