
     RDKit          3D

 28 29  0  0  1  0  0  0  0  0999 V2000
   40.0210   23.5710   35.7990 N   0  0  0  0  0  0  0  0  0  0  0  0
   41.1260   22.9820   36.5240 C   0  0  0  0  0  0  0  0  0  0  0  0
   40.5120   22.2380   37.7010 C   0  0  0  0  0  0  0  0  0  0  0  0
   39.2980   23.1600   37.9610 C   0  0  0  0  0  0  0  0  0  0  0  0
   38.8340   23.2850   36.5170 C   0  0  2  0  0  0  0  0  0  0  0  0
   38.2960   21.9440   36.1960 N   0  0  0  0  0  0  0  0  0  0  0  0
   37.8350   24.1590   36.2320 O   0  0  0  0  0  0  0  0  0  0  0  0
   38.4590   25.3810   36.0470 C   0  0  0  0  0  0  0  0  0  0  0  0
   37.6140   25.4530   33.7380 C   0  0  0  0  0  0  0  0  0  0  0  0
   37.7700   26.1150   34.9770 C   0  0  0  0  0  0  0  0  0  0  0  0
   37.3110   27.3920   35.0930 C   0  0  0  0  0  0  0  0  0  0  0  0
   36.7140   27.9890   34.0030 N   0  0  0  0  0  0  0  0  0  0  0  0
   36.5880   27.3260   32.8500 C   0  0  0  0  0  0  0  0  0  0  0  0
   37.0210   26.0620   32.6720 N   0  0  0  0  0  0  0  0  0  0  0  0
   39.9656   23.1655   34.8538 H   0  0  0  0  0  0  0  0  0  0  0  0
   41.6777   22.2839   35.8773 H   0  0  0  0  0  0  0  0  0  0  0  0
   41.8385   23.7490   36.8618 H   0  0  0  0  0  0  0  0  0  0  0  0
   40.2045   21.2175   37.4291 H   0  0  0  0  0  0  0  0  0  0  0  0
   41.1791   22.0792   38.5611 H   0  0  0  0  0  0  0  0  0  0  0  0
   38.5421   22.6863   38.6046 H   0  0  0  0  0  0  0  0  0  0  0  0
   39.5043   24.1015   38.4911 H   0  0  0  0  0  0  0  0  0  0  0  0
   38.0928   21.4375   37.0695 H   0  0  0  0  0  0  0  0  0  0  0  0
   37.4299   22.0438   35.6475 H   0  0  0  0  0  0  0  0  0  0  0  0
   38.4149   25.9622   36.9799 H   0  0  0  0  0  0  0  0  0  0  0  0
   39.5113   25.2217   35.7692 H   0  0  0  0  0  0  0  0  0  0  0  0
   37.9800   24.4212   33.6312 H   0  0  0  0  0  0  0  0  0  0  0  0
   37.4150   27.9387   36.0418 H   0  0  0  0  0  0  0  0  0  0  0  0
   36.1067   27.8374   32.0033 H   0  0  0  0  0  0  0  0  0  0  0  0
  1  5  1  0
  1  2  1  0
  2  3  1  0
  3  4  1  0
  5  7  1  1
  5  4  1  0
  6  5  1  0
  8  7  1  0
  9 10  2  0
 10 11  1  0
 10  8  1  0
 12 11  2  0
 13 12  1  0
 14 13  2  0
 14  9  1  0
  1 15  1  0
  2 16  1  0
  2 17  1  0
  3 18  1  0
  3 19  1  0
  4 20  1  0
  4 21  1  0
  6 22  1  0
  6 23  1  0
  8 24  1  0
  8 25  1  0
  9 26  1  0
 11 27  1  0
 13 28  1  0
M  ISO  8  15   5  16  13  17  13  18  13  19  13  20  13  21  13  22   5
M  ISO  6  23   5  24   8  25   8  26  14  27  14  28  14
M  END
>  <minimizedAffinity>  (1) 
-4.00432158

>  <minimizedRMSD>  (1) 
0.163717449

$$$$
