
     RDKit          3D

 40 42  0  0  1  0  0  0  0  0999 V2000
   40.3230   24.1210   35.5310 N   0  0  0  0  0  0  0  0  0  0  0  0
   41.3540   23.3590   36.1810 C   0  0  0  0  0  0  0  0  0  0  0  0
   40.6670   22.1610   36.8230 C   0  0  0  0  0  0  0  0  0  0  0  0
   39.2990   22.7850   37.1070 C   0  0  0  0  0  0  0  0  0  0  0  0
   39.1000   23.4650   35.7450 C   0  0  2  0  0  0  0  0  0  0  0  0
   38.8470   22.3140   34.8660 N   0  0  0  0  0  0  0  0  0  0  0  0
   39.1570   22.6370   33.4880 C   0  0  0  0  0  0  0  0  0  0  0  0
   39.1760   21.2810   32.7680 C   0  0  0  0  0  0  0  0  0  0  0  0
   37.8430   20.7520   32.7960 N   0  0  0  0  0  0  0  0  0  0  0  0
   36.9160   21.5050   33.5900 C   0  0  0  0  0  0  0  0  0  0  0  0
   37.4620   21.9110   34.9410 C   0  0  0  0  0  0  0  0  0  0  0  0
   38.0150   24.2720   35.6170 O   0  0  0  0  0  0  0  0  0  0  0  0
   38.4960   25.5560   35.5560 C   0  0  0  0  0  0  0  0  0  0  0  0
   37.4450   25.9180   33.4460 C   0  0  0  0  0  0  0  0  0  0  0  0
   37.7270   26.4210   34.7430 C   0  0  0  0  0  0  0  0  0  0  0  0
   37.2400   27.6500   35.0260 C   0  0  0  0  0  0  0  0  0  0  0  0
   36.5150   28.3310   34.0620 N   0  0  0  0  0  0  0  0  0  0  0  0
   36.2780   27.8100   32.8540 C   0  0  0  0  0  0  0  0  0  0  0  0
   36.7260   26.5770   32.4720 N   0  0  0  0  0  0  0  0  0  0  0  0
   40.5160   24.1804   34.5210 H   0  0  0  0  0  0  0  0  0  0  0  0
   42.0980   23.0208   35.4447 H   0  0  0  0  0  0  0  0  0  0  0  0
   41.8821   23.9644   36.9324 H   0  0  0  0  0  0  0  0  0  0  0  0
   40.5948   21.3087   36.1313 H   0  0  0  0  0  0  0  0  0  0  0  0
   41.1814   21.7365   37.6978 H   0  0  0  0  0  0  0  0  0  0  0  0
   38.5283   22.0277   37.3131 H   0  0  0  0  0  0  0  0  0  0  0  0
   39.2354   23.4371   37.9906 H   0  0  0  0  0  0  0  0  0  0  0  0
   38.3851   23.2934   33.0598 H   0  0  0  0  0  0  0  0  0  0  0  0
   40.1113   23.1751   33.3899 H   0  0  0  0  0  0  0  0  0  0  0  0
   39.8626   20.5932   33.2832 H   0  0  0  0  0  0  0  0  0  0  0  0
   39.5203   21.4013   31.7302 H   0  0  0  0  0  0  0  0  0  0  0  0
   37.4886   20.7240   31.8293 H   0  0  0  0  0  0  0  0  0  0  0  0
   36.6452   22.4164   33.0368 H   0  0  0  0  0  0  0  0  0  0  0  0
   36.0492   20.8538   33.7761 H   0  0  0  0  0  0  0  0  0  0  0  0
   37.3773   21.0572   35.6294 H   0  0  0  0  0  0  0  0  0  0  0  0
   36.8769   22.7707   35.2995 H   0  0  0  0  0  0  0  0  0  0  0  0
   38.5154   25.9668   36.5762 H   0  0  0  0  0  0  0  0  0  0  0  0
   39.4966   25.4995   35.1026 H   0  0  0  0  0  0  0  0  0  0  0  0
   37.8326   24.9190   33.1974 H   0  0  0  0  0  0  0  0  0  0  0  0
   37.4177   28.1046   36.0118 H   0  0  0  0  0  0  0  0  0  0  0  0
   35.6947   28.4019   32.1333 H   0  0  0  0  0  0  0  0  0  0  0  0
  1  5  1  0
  1  2  1  0
  2  3  1  0
  3  4  1  0
  5 12  1  1
  5  4  1  0
  6 11  1  0
  6  5  1  0
  7  6  1  0
  8  9  1  0
  8  7  1  0
  9 10  1  0
 10 11  1  0
 13 12  1  0
 14 15  2  0
 15 16  1  0
 15 13  1  0
 17 16  2  0
 18 17  1  0
 19 18  2  0
 19 14  1  0
  1 20  1  0
  2 21  1  0
  2 22  1  0
  3 23  1  0
  3 24  1  0
  4 25  1  0
  4 26  1  0
  7 27  1  0
  7 28  1  0
  8 29  1  0
  8 30  1  0
  9 31  1  0
 10 32  1  0
 10 33  1  0
 11 34  1  0
 11 35  1  0
 13 36  1  0
 13 37  1  0
 14 38  1  0
 16 39  1  0
 18 40  1  0
M  ISO  8  20   5  21  13  22  13  23  13  24  13  25  13  26  13  27  13
M  ISO  8  28  13  29  13  30  13  31   5  32  13  33  13  34  13  35  13
M  ISO  5  36   8  37   8  38  14  39  14  40  14
M  END
>  <minimizedAffinity>  (1) 
-3.99167132

>  <minimizedRMSD>  (1) 
1.25956571

$$$$
