
     RDKit          3D

 32 33  0  0  1  0  0  0  0  0999 V2000
   39.9160   23.7640   35.7750 N   0  0  0  0  0  0  0  0  0  0  0  0
   40.9790   23.1160   36.4890 C   0  0  0  0  0  0  0  0  0  0  0  0
   40.3620   22.4260   37.6860 C   0  0  0  0  0  0  0  0  0  0  0  0
   39.0980   23.2740   37.8810 C   0  0  0  0  0  0  0  0  0  0  0  0
   38.7000   23.4530   36.4210 C   0  0  1  0  0  0  0  0  0  0  0  0
   37.7140   24.3410   36.1340 O   0  0  0  0  0  0  0  0  0  0  0  0
   38.3450   25.5520   35.9210 C   0  0  0  0  0  0  0  0  0  0  0  0
   37.4890   25.6210   33.6100 C   0  0  0  0  0  0  0  0  0  0  0  0
   37.6420   26.2800   34.8500 C   0  0  0  0  0  0  0  0  0  0  0  0
   37.1820   27.5550   34.9730 C   0  0  0  0  0  0  0  0  0  0  0  0
   36.5860   28.1540   33.8830 N   0  0  0  0  0  0  0  0  0  0  0  0
   36.4600   27.4980   32.7260 C   0  0  0  0  0  0  0  0  0  0  0  0
   36.8940   26.2400   32.5480 N   0  0  0  0  0  0  0  0  0  0  0  0
   38.1380   22.0890   35.9590 C   0  0  0  0  0  0  0  0  0  0  0  0
   38.0790   22.1200   34.4570 C   0  0  0  0  0  0  0  0  0  0  0  0
   39.8913   23.4252   34.8026 H   0  0  0  0  0  0  0  0  0  0  0  0
   41.4717   22.3764   35.8408 H   0  0  0  0  0  0  0  0  0  0  0  0
   41.7359   23.8474   36.8085 H   0  0  0  0  0  0  0  0  0  0  0  0
   40.1164   21.3764   37.4670 H   0  0  0  0  0  0  0  0  0  0  0  0
   41.0158   22.3704   38.5688 H   0  0  0  0  0  0  0  0  0  0  0  0
   38.3275   22.7389   38.4555 H   0  0  0  0  0  0  0  0  0  0  0  0
   39.2374   24.2051   38.4498 H   0  0  0  0  0  0  0  0  0  0  0  0
   38.3232   26.1465   36.8462 H   0  0  0  0  0  0  0  0  0  0  0  0
   39.3906   25.3784   35.6267 H   0  0  0  0  0  0  0  0  0  0  0  0
   37.8559   24.5901   33.4977 H   0  0  0  0  0  0  0  0  0  0  0  0
   37.2837   28.0978   35.9243 H   0  0  0  0  0  0  0  0  0  0  0  0
   35.9788   28.0119   31.8808 H   0  0  0  0  0  0  0  0  0  0  0  0
   38.7989   21.2759   36.2938 H   0  0  0  0  0  0  0  0  0  0  0  0
   37.1398   21.9123   36.3861 H   0  0  0  0  0  0  0  0  0  0  0  0
   37.1474   22.6095   34.1367 H   0  0  0  0  0  0  0  0  0  0  0  0
   38.9410   22.6817   34.0677 H   0  0  0  0  0  0  0  0  0  0  0  0
   38.1054   21.0915   34.0677 H   0  0  0  0  0  0  0  0  0  0  0  0
  1  5  1  0
  1  2  1  0
  2  3  1  0
  3  4  1  0
  5 14  1  0
  5  4  1  0
  5  6  1  1
  7  6  1  0
  8  9  2  0
  9 10  1  0
  9  7  1  0
 11 10  2  0
 12 11  1  0
 13 12  2  0
 13  8  1  0
 15 14  1  0
  1 16  1  0
  2 17  1  0
  2 18  1  0
  3 19  1  0
  3 20  1  0
  4 21  1  0
  4 22  1  0
  7 23  1  0
  7 24  1  0
  8 25  1  0
 10 26  1  0
 12 27  1  0
 14 28  1  0
 14 29  1  0
 15 30  1  0
 15 31  1  0
 15 32  1  0
M  ISO  8  16   5  17  13  18  13  19  13  20  13  21  13  22  13  23   8
M  ISO  8  24   8  25  14  26  14  27  14  28   8  29   8  30   8  31   8
M  ISO  1  32   8
M  END
>  <minimizedAffinity>  (1) 
-3.82016301

>  <minimizedRMSD>  (1) 
0.306255907

$$$$
