
     RDKit          3D

 27 28  0  0  1  0  0  0  0  0999 V2000
   39.9150   24.0270   35.8790 N   0  0  0  0  0  0  0  0  0  0  0  0
   40.9030   23.1600   36.4520 C   0  0  0  0  0  0  0  0  0  0  0  0
   40.1840   22.2750   37.4600 C   0  0  0  0  0  0  0  0  0  0  0  0
   39.0600   23.2460   37.8790 C   0  0  0  0  0  0  0  0  0  0  0  0
   38.6650   23.7180   36.4940 C   0  0  2  0  0  0  0  0  0  0  0  0
   37.8590   22.2330   35.7560 S   0  0  0  0  0  0  0  0  0  0  0  0
   37.7720   24.7280   36.3840 O   0  0  0  0  0  0  0  0  0  0  0  0
   38.4810   25.7990   35.8730 C   0  0  0  0  0  0  0  0  0  0  0  0
   37.5040   25.7160   33.6160 C   0  0  0  0  0  0  0  0  0  0  0  0
   37.6860   26.4440   34.8160 C   0  0  0  0  0  0  0  0  0  0  0  0
   37.1630   27.6990   34.8960 C   0  0  0  0  0  0  0  0  0  0  0  0
   36.4850   28.2040   33.8100 N   0  0  0  0  0  0  0  0  0  0  0  0
   36.3350   27.4850   32.6940 C   0  0  0  0  0  0  0  0  0  0  0  0
   36.8270   26.2420   32.5580 N   0  0  0  0  0  0  0  0  0  0  0  0
   40.1625   25.0103   36.0600 H   0  0  0  0  0  0  0  0  0  0  0  0
   41.3645   22.5421   35.6677 H   0  0  0  0  0  0  0  0  0  0  0  0
   41.7020   23.7401   36.9370 H   0  0  0  0  0  0  0  0  0  0  0  0
   39.7866   21.3604   36.9957 H   0  0  0  0  0  0  0  0  0  0  0  0
   40.8075   21.8919   38.2813 H   0  0  0  0  0  0  0  0  0  0  0  0
   38.2358   22.7320   38.3952 H   0  0  0  0  0  0  0  0  0  0  0  0
   39.3418   24.0316   38.5955 H   0  0  0  0  0  0  0  0  0  0  0  0
   37.4127   21.4108   36.7569 H   0  0  0  0  0  0  0  0  0  0  0  0
   38.6829   26.5235   36.6757 H   0  0  0  0  0  0  0  0  0  0  0  0
   39.4351   25.4455   35.4549 H   0  0  0  0  0  0  0  0  0  0  0  0
   37.9195   24.7006   33.5360 H   0  0  0  0  0  0  0  0  0  0  0  0
   37.2803   28.2977   35.8113 H   0  0  0  0  0  0  0  0  0  0  0  0
   35.7856   27.9293   31.8509 H   0  0  0  0  0  0  0  0  0  0  0  0
  1  2  1  0
  1  5  1  0
  2  3  1  0
  3  4  1  0
  5  6  1  0
  5  4  1  0
  5  7  1  1
  8  7  1  0
  9 10  2  0
 10 11  1  0
 10  8  1  0
 12 11  2  0
 13 12  1  0
 14 13  2  0
 14  9  1  0
  1 15  1  0
  2 16  1  0
  2 17  1  0
  3 18  1  0
  3 19  1  0
  4 20  1  0
  4 21  1  0
  6 22  1  0
  8 23  1  0
  8 24  1  0
  9 25  1  0
 11 26  1  0
 13 27  1  0
M  ISO  8  15   5  16  13  17  13  18  13  19  13  20  13  21  13  22  11
M  ISO  5  23   8  24   8  25  14  26  14  27  14
M  END
>  <minimizedAffinity>  (1) 
-3.75255942

>  <minimizedRMSD>  (1) 
0.509855986

$$$$
