
     RDKit          3D

 49 52  0  0  1  0  0  0  0  0999 V2000
   37.2380   23.4720   37.0570 N   0  0  0  0  0  0  0  0  0  0  0  0
   37.8400   23.3190   38.3660 C   0  0  0  0  0  0  0  0  0  0  0  0
   39.3270   23.5550   38.1850 C   0  0  0  0  0  0  0  0  0  0  0  0
   39.5020   23.0500   36.7260 C   0  0  0  0  0  0  0  0  0  0  0  0
   38.2890   23.6880   36.1170 C   0  0  2  0  0  0  0  0  0  0  0  0
   38.5890   25.1800   36.0430 C   0  0  0  0  0  0  0  0  0  0  0  0
   39.5480   25.5450   35.1180 C   0  0  0  0  0  0  0  0  0  0  0  0
   39.7050   26.9420   35.1770 C   0  0  0  0  0  0  0  0  0  0  0  0
   38.8410   27.3550   36.1270 N   0  0  0  0  0  0  0  0  0  0  0  0
   38.1930   26.3330   36.6300 N   0  0  0  0  0  0  0  0  0  0  0  0
   37.8660   23.3570   34.8750 O   0  0  0  0  0  0  0  0  0  0  0  0
   37.5850   21.9920   34.9410 C   0  0  0  0  0  0  0  0  0  0  0  0
   38.8890   21.3090   32.9660 C   0  0  0  0  0  0  0  0  0  0  0  0
   37.6230   21.4440   33.5940 C   0  0  0  0  0  0  0  0  0  0  0  0
   36.4970   21.1150   32.8810 C   0  0  0  0  0  0  0  0  0  0  0  0
   36.6330   20.6700   31.5850 N   0  0  0  0  0  0  0  0  0  0  0  0
   37.8620   20.5650   31.0430 C   0  0  0  0  0  0  0  0  0  0  0  0
   38.9970   20.8640   31.6780 N   0  0  0  0  0  0  0  0  0  0  0  0
   37.7290   20.0620   29.6300 C   0  0  0  0  0  0  0  0  0  0  0  0
   36.5950   19.0880   29.4950 C   0  0  0  0  0  0  0  0  0  0  0  0
   36.9660   17.6530   29.6250 C   0  0  0  0  0  0  0  0  0  0  0  0
   38.2210   17.2790   28.8780 C   0  0  0  0  0  0  0  0  0  0  0  0
   39.3290   18.1250   29.4380 C   0  0  0  0  0  0  0  0  0  0  0  0
   39.0470   19.5770   29.1450 C   0  0  0  0  0  0  0  0  0  0  0  0
   36.7161   22.6192   36.8094 H   0  0  0  0  0  0  0  0  0  0  0  0
   37.4204   24.0565   39.0660 H   0  0  0  0  0  0  0  0  0  0  0  0
   37.6430   22.3194   38.7806 H   0  0  0  0  0  0  0  0  0  0  0  0
   39.5867   24.6194   38.2829 H   0  0  0  0  0  0  0  0  0  0  0  0
   39.9695   23.0598   38.9279 H   0  0  0  0  0  0  0  0  0  0  0  0
   40.4342   23.4157   36.2708 H   0  0  0  0  0  0  0  0  0  0  0  0
   39.5765   21.9591   36.6060 H   0  0  0  0  0  0  0  0  0  0  0  0
   40.0942   24.8618   34.4509 H   0  0  0  0  0  0  0  0  0  0  0  0
   40.3860   27.5638   34.5773 H   0  0  0  0  0  0  0  0  0  0  0  0
   38.7092   28.3348   36.4161 H   0  0  0  0  0  0  0  0  0  0  0  0
   38.3367   21.4889   35.5670 H   0  0  0  0  0  0  0  0  0  0  0  0
   36.5899   21.8344   35.3826 H   0  0  0  0  0  0  0  0  0  0  0  0
   39.7998   21.5672   33.5261 H   0  0  0  0  0  0  0  0  0  0  0  0
   35.5007   21.2055   33.3383 H   0  0  0  0  0  0  0  0  0  0  0  0
   37.4463   20.8864   28.9589 H   0  0  0  0  0  0  0  0  0  0  0  0
   36.1402   19.2323   28.5039 H   0  0  0  0  0  0  0  0  0  0  0  0
   35.9121   19.3009   30.3307 H   0  0  0  0  0  0  0  0  0  0  0  0
   37.1173   17.4291   30.6913 H   0  0  0  0  0  0  0  0  0  0  0  0
   36.1448   17.0686   29.1846 H   0  0  0  0  0  0  0  0  0  0  0  0
   38.0965   17.4809   27.8039 H   0  0  0  0  0  0  0  0  0  0  0  0
   38.4450   16.2084   28.9945 H   0  0  0  0  0  0  0  0  0  0  0  0
   39.3910   17.9754   30.5260 H   0  0  0  0  0  0  0  0  0  0  0  0
   40.2833   17.8350   28.9741 H   0  0  0  0  0  0  0  0  0  0  0  0
   39.8319   20.1819   29.6225 H   0  0  0  0  0  0  0  0  0  0  0  0
   39.0315   19.6763   28.0496 H   0  0  0  0  0  0  0  0  0  0  0  0
  1  2  1  0
  3  2  1  0
  4  3  1  0
  5 11  1  6
  5  4  1  0
  5  1  1  0
  6  5  1  0
  6 10  2  0
  7  8  2  0
  7  6  1  0
  8  9  1  0
  9 10  1  0
 11 12  1  0
 13 14  2  0
 14 12  1  0
 15 14  1  0
 16 15  2  0
 17 16  1  0
 17 18  2  0
 18 13  1  0
 19 17  1  0
 20 21  1  0
 20 19  1  0
 22 23  1  0
 22 21  1  0
 24 23  1  0
 24 19  1  0
  1 25  1  0
  2 26  1  0
  2 27  1  0
  3 28  1  0
  3 29  1  0
  4 30  1  0
  4 31  1  0
  7 32  1  0
  8 33  1  0
  9 34  1  0
 12 35  1  0
 12 36  1  0
 13 37  1  0
 15 38  1  0
 19 39  1  0
 20 40  1  0
 20 41  1  0
 21 42  1  0
 21 43  1  0
 22 44  1  0
 22 45  1  0
 23 46  1  0
 23 47  1  0
 24 48  1  0
 24 49  1  0
M  ISO  8  25   5  26  13  27  13  28  13  29  13  30  13  31  13  32  14
M  ISO  8  33  14  34   9  35   8  36   8  37  14  38  14  39  13  40  13
M  ISO  8  41  13  42  13  43  13  44  13  45  13  46  13  47  13  48  13
M  ISO  1  49  13
M  END
>  <minimizedAffinity>  (1) 
-4.88484955

>  <minimizedRMSD>  (1) 
3.00504732

$$$$
