
     RDKit          3D

 34 36  0  0  1  0  0  0  0  0999 V2000
   37.2590   23.4390   37.1200 N   0  0  0  0  0  0  0  0  0  0  0  0
   37.8420   23.3340   38.4460 C   0  0  0  0  0  0  0  0  0  0  0  0
   39.3310   23.5720   38.2710 C   0  0  0  0  0  0  0  0  0  0  0  0
   39.5270   22.9980   36.8400 C   0  0  0  0  0  0  0  0  0  0  0  0
   38.3200   23.6130   36.1890 C   0  0  2  0  0  0  0  0  0  0  0  0
   38.6260   25.1030   36.0630 C   0  0  0  0  0  0  0  0  0  0  0  0
   39.6160   25.4350   35.1500 C   0  0  0  0  0  0  0  0  0  0  0  0
   39.7700   26.8330   35.1590 C   0  0  0  0  0  0  0  0  0  0  0  0
   38.8850   27.2780   36.0590 N   0  0  0  0  0  0  0  0  0  0  0  0
   38.2150   26.2790   36.5900 N   0  0  0  0  0  0  0  0  0  0  0  0
   37.9280   23.2350   34.9530 O   0  0  0  0  0  0  0  0  0  0  0  0
   37.4110   21.9560   35.1100 C   0  0  0  0  0  0  0  0  0  0  0  0
   38.0920   21.4990   32.7960 C   0  0  0  0  0  0  0  0  0  0  0  0
   37.1060   21.4060   33.7960 C   0  0  0  0  0  0  0  0  0  0  0  0
   35.8960   20.8410   33.4800 C   0  0  0  0  0  0  0  0  0  0  0  0
   35.6910   20.3880   32.2070 N   0  0  0  0  0  0  0  0  0  0  0  0
   36.6550   20.4920   31.2730 C   0  0  0  0  0  0  0  0  0  0  0  0
   37.8650   21.0420   31.5360 N   0  0  0  0  0  0  0  0  0  0  0  0
   36.2130   19.9670   30.0630 O   0  0  0  0  0  0  0  0  0  0  0  0
   36.7363   22.5796   36.8984 H   0  0  0  0  0  0  0  0  0  0  0  0
   37.4099   24.0934   39.1143 H   0  0  0  0  0  0  0  0  0  0  0  0
   37.6423   22.3504   38.8961 H   0  0  0  0  0  0  0  0  0  0  0  0
   39.5824   24.6418   38.3202 H   0  0  0  0  0  0  0  0  0  0  0  0
   39.9678   23.1181   39.0446 H   0  0  0  0  0  0  0  0  0  0  0  0
   40.4659   23.3405   36.3806 H   0  0  0  0  0  0  0  0  0  0  0  0
   39.6030   21.9029   36.7698 H   0  0  0  0  0  0  0  0  0  0  0  0
   40.1826   24.7274   34.5268 H   0  0  0  0  0  0  0  0  0  0  0  0
   40.4680   27.4321   34.5558 H   0  0  0  0  0  0  0  0  0  0  0  0
   38.7473   28.2692   36.3028 H   0  0  0  0  0  0  0  0  0  0  0  0
   38.1513   21.3178   35.6147 H   0  0  0  0  0  0  0  0  0  0  0  0
   36.4958   21.9960   35.7190 H   0  0  0  0  0  0  0  0  0  0  0  0
   39.0653   21.9503   33.0387 H   0  0  0  0  0  0  0  0  0  0  0  0
   35.1043   20.7542   34.2387 H   0  0  0  0  0  0  0  0  0  0  0  0
   35.3008   19.5891   29.9911 H   0  0  0  0  0  0  0  0  0  0  0  0
  1  2  1  0
  3  2  1  0
  4  3  1  0
  5 11  1  6
  5  4  1  0
  5  1  1  0
  6  5  1  0
  6 10  2  0
  7  8  2  0
  7  6  1  0
  8  9  1  0
  9 10  1  0
 11 12  1  0
 13 14  2  0
 14 12  1  0
 15 14  1  0
 16 15  2  0
 17 18  2  0
 17 16  1  0
 18 13  1  0
 19 17  1  0
  1 20  1  0
  2 21  1  0
  2 22  1  0
  3 23  1  0
  3 24  1  0
  4 25  1  0
  4 26  1  0
  7 27  1  0
  8 28  1  0
  9 29  1  0
 12 30  1  0
 12 31  1  0
 13 32  1  0
 15 33  1  0
 19 34  1  0
M  ISO  8  20   5  21  13  22  13  23  13  24  13  25  13  26  13  27  14
M  ISO  7  28  14  29   9  30   8  31   8  32  14  33  14  34   3
M  END
>  <minimizedAffinity>  (1) 
-4.73009205

>  <minimizedRMSD>  (1) 
0.81481719

$$$$
