
     RDKit          3D

 35 37  0  0  1  0  0  0  0  0999 V2000
   37.2690   23.4380   37.1930 N   0  0  0  0  0  0  0  0  0  0  0  0
   37.8560   23.3620   38.5150 C   0  0  0  0  0  0  0  0  0  0  0  0
   39.3400   23.5840   38.3360 C   0  0  0  0  0  0  0  0  0  0  0  0
   39.5350   22.9920   36.9120 C   0  0  0  0  0  0  0  0  0  0  0  0
   38.3310   23.5950   36.2530 C   0  0  2  0  0  0  0  0  0  0  0  0
   38.6310   25.0800   36.0970 C   0  0  0  0  0  0  0  0  0  0  0  0
   39.6310   25.3860   35.1880 C   0  0  0  0  0  0  0  0  0  0  0  0
   39.7880   26.7830   35.1610 C   0  0  0  0  0  0  0  0  0  0  0  0
   38.8840   27.2600   36.0480 N   0  0  0  0  0  0  0  0  0  0  0  0
   38.2130   26.2680   36.5900 N   0  0  0  0  0  0  0  0  0  0  0  0
   37.9150   23.1960   35.0300 O   0  0  0  0  0  0  0  0  0  0  0  0
   37.3180   21.9520   35.2400 C   0  0  0  0  0  0  0  0  0  0  0  0
   38.0410   21.3640   32.9600 C   0  0  0  0  0  0  0  0  0  0  0  0
   37.0250   21.3540   33.9510 C   0  0  0  0  0  0  0  0  0  0  0  0
   35.7970   20.8380   33.6190 C   0  0  0  0  0  0  0  0  0  0  0  0
   35.6000   20.3550   32.3390 N   0  0  0  0  0  0  0  0  0  0  0  0
   36.5930   20.3930   31.4510 C   0  0  0  0  0  0  0  0  0  0  0  0
   37.8120   20.8770   31.7010 N   0  0  0  0  0  0  0  0  0  0  0  0
   36.3630   19.8860   30.1280 N   0  0  0  0  0  0  0  0  0  0  0  0
   36.7472   22.5732   36.9910 H   0  0  0  0  0  0  0  0  0  0  0  0
   37.4306   24.1404   39.1655 H   0  0  0  0  0  0  0  0  0  0  0  0
   37.6522   22.3893   38.9866 H   0  0  0  0  0  0  0  0  0  0  0  0
   39.5998   24.6523   38.3725 H   0  0  0  0  0  0  0  0  0  0  0  0
   39.9721   23.1323   39.1148 H   0  0  0  0  0  0  0  0  0  0  0  0
   40.4737   23.3292   36.4481 H   0  0  0  0  0  0  0  0  0  0  0  0
   39.6107   21.8960   36.8569 H   0  0  0  0  0  0  0  0  0  0  0  0
   40.2033   24.6611   34.5906 H   0  0  0  0  0  0  0  0  0  0  0  0
   40.4944   27.3639   34.5498 H   0  0  0  0  0  0  0  0  0  0  0  0
   38.7422   28.2564   36.2668 H   0  0  0  0  0  0  0  0  0  0  0  0
   38.0045   21.3020   35.8023 H   0  0  0  0  0  0  0  0  0  0  0  0
   36.3893   22.0742   35.8167 H   0  0  0  0  0  0  0  0  0  0  0  0
   39.0322   21.7711   33.2084 H   0  0  0  0  0  0  0  0  0  0  0  0
   34.9836   20.8094   34.3590 H   0  0  0  0  0  0  0  0  0  0  0  0
   35.4415   19.5000   29.8774 H   0  0  0  0  0  0  0  0  0  0  0  0
   37.1194   19.9081   29.4293 H   0  0  0  0  0  0  0  0  0  0  0  0
  1  2  1  0
  3  2  1  0
  4  3  1  0
  5 11  1  6
  5  4  1  0
  5  1  1  0
  6  5  1  0
  6 10  2  0
  7  6  1  0
  8  7  2  0
  8  9  1  0
  9 10  1  0
 11 12  1  0
 13 14  2  0
 14 12  1  0
 15 14  1  0
 16 15  2  0
 17 18  2  0
 17 16  1  0
 18 13  1  0
 19 17  1  0
  1 20  1  0
  2 21  1  0
  2 22  1  0
  3 23  1  0
  3 24  1  0
  4 25  1  0
  4 26  1  0
  7 27  1  0
  8 28  1  0
  9 29  1  0
 12 30  1  0
 12 31  1  0
 13 32  1  0
 15 33  1  0
 19 34  1  0
 19 35  1  0
M  ISO  8  20   5  21  13  22  13  23  13  24  13  25  13  26  13  27  14
M  ISO  6  28  14  29   9  30   8  31   8  32  14  33  14
M  END
>  <minimizedAffinity>  (1) 
-4.73003864

>  <minimizedRMSD>  (1) 
0.839930534

$$$$
