
     RDKit          3D

 34 36  0  0  1  0  0  0  0  0999 V2000
   37.2720   23.4330   37.1870 N   0  0  0  0  0  0  0  0  0  0  0  0
   37.8690   23.3510   38.5080 C   0  0  0  0  0  0  0  0  0  0  0  0
   39.3530   23.5830   38.3180 C   0  0  0  0  0  0  0  0  0  0  0  0
   39.5350   22.9810   36.8940 C   0  0  0  0  0  0  0  0  0  0  0  0
   38.3220   23.5890   36.2430 C   0  0  2  0  0  0  0  0  0  0  0  0
   38.6370   25.0730   36.0830 C   0  0  0  0  0  0  0  0  0  0  0  0
   39.6480   25.3750   35.1750 C   0  0  0  0  0  0  0  0  0  0  0  0
   39.8070   26.7720   35.1550 C   0  0  0  0  0  0  0  0  0  0  0  0
   38.8950   27.2500   36.0410 N   0  0  0  0  0  0  0  0  0  0  0  0
   38.2210   26.2630   36.5740 N   0  0  0  0  0  0  0  0  0  0  0  0
   37.9220   23.1870   35.0170 O   0  0  0  0  0  0  0  0  0  0  0  0
   37.2550   21.9880   35.2270 C   0  0  0  0  0  0  0  0  0  0  0  0
   38.1150   21.3080   33.0310 C   0  0  0  0  0  0  0  0  0  0  0  0
   37.0410   21.3340   33.9390 C   0  0  0  0  0  0  0  0  0  0  0  0
   35.8390   20.7820   33.5770 C   0  0  0  0  0  0  0  0  0  0  0  0
   35.7330   20.2180   32.3230 N   0  0  0  0  0  0  0  0  0  0  0  0
   36.7820   20.2110   31.4800 C   0  0  0  0  0  0  0  0  0  0  0  0
   37.9830   20.7450   31.8000 N   0  0  0  0  0  0  0  0  0  0  0  0
   36.6900   19.4920   29.8460 S   0  0  0  0  0  0  0  0  0  0  0  0
   36.7461   22.5704   36.9863 H   0  0  0  0  0  0  0  0  0  0  0  0
   37.4440   24.1226   39.1667 H   0  0  0  0  0  0  0  0  0  0  0  0
   37.6733   22.3748   38.9756 H   0  0  0  0  0  0  0  0  0  0  0  0
   39.6066   24.6530   38.3453 H   0  0  0  0  0  0  0  0  0  0  0  0
   39.9959   23.1433   39.0947 H   0  0  0  0  0  0  0  0  0  0  0  0
   40.4706   23.3121   36.4197 H   0  0  0  0  0  0  0  0  0  0  0  0
   39.6077   21.8846   36.8428 H   0  0  0  0  0  0  0  0  0  0  0  0
   40.2209   24.6495   34.5789 H   0  0  0  0  0  0  0  0  0  0  0  0
   40.5184   27.3539   34.5506 H   0  0  0  0  0  0  0  0  0  0  0  0
   38.7542   28.2462   36.2616 H   0  0  0  0  0  0  0  0  0  0  0  0
   37.8602   21.3374   35.8755 H   0  0  0  0  0  0  0  0  0  0  0  0
   36.2870   22.1801   35.7129 H   0  0  0  0  0  0  0  0  0  0  0  0
   39.0790   21.7510   33.3218 H   0  0  0  0  0  0  0  0  0  0  0  0
   34.9830   20.7889   34.2678 H   0  0  0  0  0  0  0  0  0  0  0  0
   36.5166   18.1372   29.9523 H   0  0  0  0  0  0  0  0  0  0  0  0
  1  2  1  0
  3  2  1  0
  4  3  1  0
  5 11  1  6
  5  4  1  0
  5  1  1  0
  6  5  1  0
  6 10  2  0
  7  6  1  0
  8  7  2  0
  8  9  1  0
  9 10  1  0
 11 12  1  0
 13 14  2  0
 14 12  1  0
 15 14  1  0
 16 15  2  0
 17 18  2  0
 17 16  1  0
 18 13  1  0
 19 17  1  0
  1 20  1  0
  2 21  1  0
  2 22  1  0
  3 23  1  0
  3 24  1  0
  4 25  1  0
  4 26  1  0
  7 27  1  0
  8 28  1  0
  9 29  1  0
 12 30  1  0
 12 31  1  0
 13 32  1  0
 15 33  1  0
 19 34  1  0
M  ISO  8  20   5  21  13  22  13  23  13  24  13  25  13  26  13  27  14
M  ISO  7  28  14  29   9  30   8  31   8  32  14  33  14  34  11
M  END
>  <minimizedAffinity>  (1) 
-4.63745928

>  <minimizedRMSD>  (1) 
0.979442954

$$$$
