
     RDKit          3D

 42 45  0  0  1  0  0  0  0  0999 V2000
   39.0570   23.7040   33.7140 O   0  0  0  0  0  0  0  0  0  0  0  0
   38.4050   24.4090   35.7630 N   0  0  0  0  0  0  0  0  0  0  0  0
   38.4990   23.9600   37.1400 C   0  0  0  0  0  0  0  0  0  0  0  0
   39.6710   23.0080   37.2030 C   0  0  0  0  0  0  0  0  0  0  0  0
   39.6320   22.4230   35.7580 C   0  0  0  0  0  0  0  0  0  0  0  0
   39.3960   23.7220   35.0240 C   0  0  1  0  0  0  0  0  0  0  0  0
   40.7060   24.4840   35.0850 C   0  0  0  0  0  0  0  0  0  0  0  0
   41.8610   23.7240   34.9790 C   0  0  0  0  0  0  0  0  0  0  0  0
   42.9730   24.5780   35.0520 C   0  0  0  0  0  0  0  0  0  0  0  0
   42.4490   25.8130   35.1990 N   0  0  0  0  0  0  0  0  0  0  0  0
   41.1270   25.7550   35.2170 N   0  0  0  0  0  0  0  0  0  0  0  0
   37.9250   22.8960   33.6310 C   0  0  0  0  0  0  0  0  0  0  0  0
   37.1790   24.8750   32.3980 C   0  0  0  0  0  0  0  0  0  0  0  0
   37.0070   23.4870   32.6780 C   0  0  0  0  0  0  0  0  0  0  0  0
   35.9930   22.8190   32.0480 C   0  0  0  0  0  0  0  0  0  0  0  0
   35.1810   23.5050   31.1750 N   0  0  0  0  0  0  0  0  0  0  0  0
   35.3930   24.8030   30.9550 C   0  0  0  0  0  0  0  0  0  0  0  0
   36.3530   25.5280   31.5220 N   0  0  0  0  0  0  0  0  0  0  0  0
   34.5300   25.5040   30.0490 N   0  0  0  0  0  0  0  0  0  0  0  0
   35.8020   21.4320   32.3110 N   0  0  0  0  0  0  0  0  0  0  0  0
   35.6270   20.7150   33.4160 N   0  0  0  0  0  0  0  0  0  0  0  0
   35.4920   19.4110   33.0960 C   0  0  0  0  0  0  0  0  0  0  0  0
   35.5880   19.3070   31.7090 C   0  0  0  0  0  0  0  0  0  0  0  0
   35.7840   20.6030   31.2400 C   0  0  0  0  0  0  0  0  0  0  0  0
   37.4714   24.1927   35.3854 H   0  0  0  0  0  0  0  0  0  0  0  0
   38.6695   24.8170   37.8082 H   0  0  0  0  0  0  0  0  0  0  0  0
   37.5694   23.4677   37.4617 H   0  0  0  0  0  0  0  0  0  0  0  0
   40.6147   23.5368   37.4028 H   0  0  0  0  0  0  0  0  0  0  0  0
   39.6125   22.2578   38.0054 H   0  0  0  0  0  0  0  0  0  0  0  0
   40.5823   21.9480   35.4730 H   0  0  0  0  0  0  0  0  0  0  0  0
   38.9008   21.6214   35.5767 H   0  0  0  0  0  0  0  0  0  0  0  0
   41.8996   22.6314   34.8576 H   0  0  0  0  0  0  0  0  0  0  0  0
   44.0365   24.3015   35.0007 H   0  0  0  0  0  0  0  0  0  0  0  0
   43.0003   26.6787   35.2851 H   0  0  0  0  0  0  0  0  0  0  0  0
   38.2119   21.8889   33.2943 H   0  0  0  0  0  0  0  0  0  0  0  0
   37.4450   22.8173   34.6176 H   0  0  0  0  0  0  0  0  0  0  0  0
   37.9887   25.4304   32.8940 H   0  0  0  0  0  0  0  0  0  0  0  0
   34.6793   26.5068   29.8674 H   0  0  0  0  0  0  0  0  0  0  0  0
   33.7609   25.0046   29.5800 H   0  0  0  0  0  0  0  0  0  0  0  0
   35.3349   18.5813   33.8010 H   0  0  0  0  0  0  0  0  0  0  0  0
   35.5223   18.3882   31.1078 H   0  0  0  0  0  0  0  0  0  0  0  0
   35.9030   20.9006   30.1877 H   0  0  0  0  0  0  0  0  0  0  0  0
  2  3  1  0
  3  4  1  0
  5  4  1  0
  6  1  1  6
  6  7  1  0
  6  5  1  0
  6  2  1  0
  7 11  2  0
  8  9  2  0
  8  7  1  0
  9 10  1  0
 10 11  1  0
 12  1  1  0
 13 14  2  0
 14 12  1  0
 15 20  1  0
 15 14  1  0
 16 15  2  0
 17 16  1  0
 17 18  2  0
 18 13  1  0
 19 17  1  0
 20 21  1  0
 22 21  2  0
 23 22  1  0
 24 23  2  0
 24 20  1  0
  2 25  1  0
  3 26  1  0
  3 27  1  0
  4 28  1  0
  4 29  1  0
  5 30  1  0
  5 31  1  0
  8 32  1  0
  9 33  1  0
 10 34  1  0
 12 35  1  0
 12 36  1  0
 13 37  1  0
 19 38  1  0
 19 39  1  0
 22 40  1  0
 23 41  1  0
 24 42  1  0
M  ISO  8  25   5  26  13  27  13  28  13  29  13  30  13  31  13  32  14
M  ISO  8  33  14  34   9  35   8  36   8  37  14  40  14  41  14  42  14
M  END
>  <minimizedAffinity>  (1) 
-5.30830622

>  <minimizedRMSD>  (1) 
3.30349731

$$$$
