
     RDKit          3D

 41 43  0  0  1  0  0  0  0  0999 V2000
   37.2210   23.4820   37.0690 N   0  0  0  0  0  0  0  0  0  0  0  0
   37.8810   23.3000   38.3420 C   0  0  0  0  0  0  0  0  0  0  0  0
   39.3600   23.4860   38.0950 C   0  0  0  0  0  0  0  0  0  0  0  0
   39.4580   23.0220   36.6140 C   0  0  0  0  0  0  0  0  0  0  0  0
   38.2160   23.7040   36.0900 C   0  0  2  0  0  0  0  0  0  0  0  0
   38.5700   25.1730   36.0160 C   0  0  0  0  0  0  0  0  0  0  0  0
   39.5420   25.5250   35.1020 C   0  0  0  0  0  0  0  0  0  0  0  0
   39.7380   26.9140   35.1650 C   0  0  0  0  0  0  0  0  0  0  0  0
   38.8730   27.3450   36.1190 N   0  0  0  0  0  0  0  0  0  0  0  0
   38.1940   26.3290   36.6120 N   0  0  0  0  0  0  0  0  0  0  0  0
   37.7530   23.3920   34.8580 O   0  0  0  0  0  0  0  0  0  0  0  0
   37.7130   21.9890   34.8240 C   0  0  0  0  0  0  0  0  0  0  0  0
   39.0350   21.9590   32.7690 C   0  0  0  0  0  0  0  0  0  0  0  0
   37.8450   21.5610   33.4500 C   0  0  0  0  0  0  0  0  0  0  0  0
   36.9320   20.8260   32.7600 C   0  0  0  0  0  0  0  0  0  0  0  0
   37.1980   20.5080   31.4490 N   0  0  0  0  0  0  0  0  0  0  0  0
   38.3160   20.9020   30.8640 C   0  0  0  0  0  0  0  0  0  0  0  0
   39.2610   21.6200   31.4610 N   0  0  0  0  0  0  0  0  0  0  0  0
   38.5390   20.5370   29.4920 N   0  0  0  0  0  0  0  0  0  0  0  0
   35.6690   20.3680   33.4240 C   0  0  0  0  0  0  0  0  0  0  0  0
   35.3140   18.9640   32.9730 C   0  0  0  0  0  0  0  0  0  0  0  0
   36.6794   22.6385   36.8321 H   0  0  0  0  0  0  0  0  0  0  0  0
   37.5208   24.0459   39.0658 H   0  0  0  0  0  0  0  0  0  0  0  0
   37.6716   22.3031   38.7572 H   0  0  0  0  0  0  0  0  0  0  0  0
   39.6628   24.5370   38.2126 H   0  0  0  0  0  0  0  0  0  0  0  0
   40.0141   22.9408   38.7914 H   0  0  0  0  0  0  0  0  0  0  0  0
   40.3717   23.3885   36.1233 H   0  0  0  0  0  0  0  0  0  0  0  0
   39.5127   21.9351   36.4540 H   0  0  0  0  0  0  0  0  0  0  0  0
   40.0751   24.8321   34.4344 H   0  0  0  0  0  0  0  0  0  0  0  0
   40.4385   27.5200   34.5717 H   0  0  0  0  0  0  0  0  0  0  0  0
   38.7634   28.3255   36.4148 H   0  0  0  0  0  0  0  0  0  0  0  0
   38.5407   21.5794   35.4216 H   0  0  0  0  0  0  0  0  0  0  0  0
   36.7616   21.6283   35.2420 H   0  0  0  0  0  0  0  0  0  0  0  0
   39.7887   22.5522   33.3076 H   0  0  0  0  0  0  0  0  0  0  0  0
   39.4025   20.8322   29.0144 H   0  0  0  0  0  0  0  0  0  0  0  0
   37.8353   19.9802   28.9863 H   0  0  0  0  0  0  0  0  0  0  0  0
   35.8104   20.3735   34.5149 H   0  0  0  0  0  0  0  0  0  0  0  0
   34.8519   21.0497   33.1455 H   0  0  0  0  0  0  0  0  0  0  0  0
   35.1526   18.3256   33.8542 H   0  0  0  0  0  0  0  0  0  0  0  0
   34.3952   18.9942   32.3689 H   0  0  0  0  0  0  0  0  0  0  0  0
   36.1367   18.5539   32.3689 H   0  0  0  0  0  0  0  0  0  0  0  0
  1  2  1  0
  3  2  1  0
  4  3  1  0
  5 11  1  6
  5  4  1  0
  5  1  1  0
  6  5  1  0
  6 10  2  0
  7  8  2  0
  7  6  1  0
  8  9  1  0
  9 10  1  0
 12 11  1  0
 13 14  2  0
 14 12  1  0
 15 20  1  0
 15 14  1  0
 16 15  2  0
 17 16  1  0
 17 18  2  0
 18 13  1  0
 19 17  1  0
 21 20  1  0
  1 22  1  0
  2 23  1  0
  2 24  1  0
  3 25  1  0
  3 26  1  0
  4 27  1  0
  4 28  1  0
  7 29  1  0
  8 30  1  0
  9 31  1  0
 12 32  1  0
 12 33  1  0
 13 34  1  0
 19 35  1  0
 19 36  1  0
 20 37  1  0
 20 38  1  0
 21 39  1  0
 21 40  1  0
 21 41  1  0
M  ISO  8  22   5  23  13  24  13  25  13  26  13  27  13  28  13  29  14
M  ISO  8  30  14  31   9  32   8  33   8  34  14  37   8  38   8  39   8
M  ISO  2  40   8  41   8
M  END
>  <minimizedAffinity>  (1) 
-4.90428162

>  <minimizedRMSD>  (1) 
1.28879821

$$$$
