
     RDKit          3D

 37 39  0  0  1  0  0  0  0  0999 V2000
   37.1840   23.4600   36.9850 N   0  0  0  0  0  0  0  0  0  0  0  0
   37.7080   23.3290   38.3320 C   0  0  0  0  0  0  0  0  0  0  0  0
   39.1860   23.5960   38.2460 C   0  0  0  0  0  0  0  0  0  0  0  0
   39.4860   23.0920   36.7990 C   0  0  0  0  0  0  0  0  0  0  0  0
   38.2780   23.6970   36.1220 C   0  0  2  0  0  0  0  0  0  0  0  0
   38.5650   25.1880   36.0440 C   0  0  0  0  0  0  0  0  0  0  0  0
   39.5400   25.5760   35.1320 C   0  0  0  0  0  0  0  0  0  0  0  0
   39.6740   26.9710   35.1940 C   0  0  0  0  0  0  0  0  0  0  0  0
   38.7750   27.3670   36.1400 N   0  0  0  0  0  0  0  0  0  0  0  0
   38.1300   26.3250   36.6340 N   0  0  0  0  0  0  0  0  0  0  0  0
   37.9770   23.3380   34.8510 O   0  0  0  0  0  0  0  0  0  0  0  0
   38.4170   22.0030   34.7470 C   0  0  0  0  0  0  0  0  0  0  0  0
   38.5300   21.4190   32.3650 C   0  0  0  0  0  0  0  0  0  0  0  0
   37.7870   21.4240   33.5790 C   0  0  0  0  0  0  0  0  0  0  0  0
   36.5410   20.8930   33.5430 C   0  0  0  0  0  0  0  0  0  0  0  0
   36.0370   20.3750   32.3660 N   0  0  0  0  0  0  0  0  0  0  0  0
   36.7820   20.4040   31.2740 C   0  0  0  0  0  0  0  0  0  0  0  0
   38.0050   20.9000   31.2170 N   0  0  0  0  0  0  0  0  0  0  0  0
   36.2340   19.8590   30.0610 N   0  0  0  0  0  0  0  0  0  0  0  0
   35.6800   20.8300   34.6950 C   0  0  0  0  0  0  0  0  0  0  0  0
   35.7470   20.8320   35.9340 O   0  0  0  0  0  0  0  0  0  0  0  0
   36.7012   22.5927   36.7101 H   0  0  0  0  0  0  0  0  0  0  0  0
   37.2283   24.0607   38.9987 H   0  0  0  0  0  0  0  0  0  0  0  0
   37.5089   22.3268   38.7394 H   0  0  0  0  0  0  0  0  0  0  0  0
   39.4118   24.6668   38.3575 H   0  0  0  0  0  0  0  0  0  0  0  0
   39.7844   23.1120   39.0319 H   0  0  0  0  0  0  0  0  0  0  0  0
   40.4313   23.4926   36.4041 H   0  0  0  0  0  0  0  0  0  0  0  0
   39.6180   22.0065   36.6795 H   0  0  0  0  0  0  0  0  0  0  0  0
   40.1095   24.9034   34.4737 H   0  0  0  0  0  0  0  0  0  0  0  0
   40.3548   27.6061   34.6082 H   0  0  0  0  0  0  0  0  0  0  0  0
   38.6202   28.3433   36.4294 H   0  0  0  0  0  0  0  0  0  0  0  0
   39.5110   21.9763   34.6351 H   0  0  0  0  0  0  0  0  0  0  0  0
   38.1492   21.4365   35.6511 H   0  0  0  0  0  0  0  0  0  0  0  0
   39.5457   21.8411   32.3517 H   0  0  0  0  0  0  0  0  0  0  0  0
   36.7911   19.8678   29.1947 H   0  0  0  0  0  0  0  0  0  0  0  0
   35.2845   19.4599   30.0586 H   0  0  0  0  0  0  0  0  0  0  0  0
   34.6299   20.7569   34.3757 H   0  0  0  0  0  0  0  0  0  0  0  0
  1  2  1  0
  3  2  1  0
  4  3  1  0
  5 11  1  6
  5  4  1  0
  5  1  1  0
  6  5  1  0
  6 10  2  0
  7  8  2  0
  7  6  1  0
  8  9  1  0
  9 10  1  0
 12 11  1  0
 13 14  2  0
 14 12  1  0
 15 14  1  0
 15 20  1  0
 16 15  2  0
 17 16  1  0
 18 17  2  0
 18 13  1  0
 19 17  1  0
 20 21  2  0
  1 22  1  0
  2 23  1  0
  2 24  1  0
  3 25  1  0
  3 26  1  0
  4 27  1  0
  4 28  1  0
  7 29  1  0
  8 30  1  0
  9 31  1  0
 12 32  1  0
 12 33  1  0
 13 34  1  0
 19 35  1  0
 19 36  1  0
 20 37  1  0
M  ISO  8  22   5  23  13  24  13  25  13  26  13  27  13  28  13  29  14
M  ISO  6  30  14  31   9  32   8  33   8  34  14  37   6
M  END
>  <minimizedAffinity>  (1) 
-4.90295029

>  <minimizedRMSD>  (1) 
0.641669691

$$$$
