
     RDKit          3D

 50 52  0  0  1  0  0  0  0  0999 V2000
   40.0040   27.4930   31.8900 C   0  0  0  0  0  0  0  0  0  0  0  0
   41.3040   27.1430   31.1510 C   0  0  1  0  0  0  0  0  0  0  0  0
   41.7650   28.3030   30.3220 C   0  0  0  0  0  0  0  0  0  0  0  0
   42.8690   29.1000   30.9170 C   0  0  0  0  0  0  0  0  0  0  0  0
   43.8400   28.4090   31.7830 C   0  0  0  0  0  0  0  0  0  0  0  0
   43.2220   27.4670   32.7350 C   0  0  0  0  0  0  0  0  0  0  0  0
   42.2970   26.5220   32.0570 C   0  0  2  0  0  0  0  0  0  0  0  0
   42.9450   25.2600   31.5140 C   0  0  0  0  0  0  0  0  0  0  0  0
   43.3620   24.2590   32.5160 C   0  0  0  0  0  0  0  0  0  0  0  0
   42.0420   24.6990   30.4300 C   0  0  0  0  0  0  0  0  0  0  0  0
   38.5360   24.6280   33.8030 N   0  0  0  0  0  0  0  0  0  0  0  0
   39.2500   25.7410   33.5740 C   0  0  0  0  0  0  0  0  0  0  0  0
   39.2570   26.2710   32.2970 C   0  0  0  0  0  0  0  0  0  0  0  0
   38.5280   25.6410   31.2870 C   0  0  0  0  0  0  0  0  0  0  0  0
   38.4610   26.0310   30.0950 O   0  0  0  0  0  0  0  0  0  0  0  0
   37.8110   24.5040   31.5600 N   0  0  0  0  0  0  0  0  0  0  0  0
   37.8410   24.0370   32.8080 C   0  0  0  0  0  0  0  0  0  0  0  0
   37.1830   22.9930   33.0620 O   0  0  0  0  0  0  0  0  0  0  0  0
   37.8110   24.7920   36.0970 C   0  0  0  0  0  0  0  0  0  0  0  0
   38.5940   24.1600   35.1260 C   0  0  0  0  0  0  0  0  0  0  0  0
   39.3920   23.0950   35.5380 C   0  0  0  0  0  0  0  0  0  0  0  0
   39.3600   22.7340   36.8610 N   0  0  0  0  0  0  0  0  0  0  0  0
   38.6030   23.3540   37.7630 C   0  0  0  0  0  0  0  0  0  0  0  0
   37.8350   24.3790   37.3680 N   0  0  0  0  0  0  0  0  0  0  0  0
   38.7470   22.7970   39.0500 N   0  0  0  0  0  0  0  0  0  0  0  0
   39.3672   28.0956   31.2256 H   0  0  0  0  0  0  0  0  0  0  0  0
   40.2662   28.0539   32.7992 H   0  0  0  0  0  0  0  0  0  0  0  0
   41.1239   26.3470   30.4135 H   0  0  0  0  0  0  0  0  0  0  0  0
   40.9067   28.9728   30.1649 H   0  0  0  0  0  0  0  0  0  0  0  0
   42.1619   27.8760   29.3892 H   0  0  0  0  0  0  0  0  0  0  0  0
   43.4339   29.5460   30.0852 H   0  0  0  0  0  0  0  0  0  0  0  0
   42.3617   29.8083   31.5885 H   0  0  0  0  0  0  0  0  0  0  0  0
   44.5378   27.8484   31.1436 H   0  0  0  0  0  0  0  0  0  0  0  0
   44.3455   29.1827   32.3795 H   0  0  0  0  0  0  0  0  0  0  0  0
   44.0165   26.8916   33.2327 H   0  0  0  0  0  0  0  0  0  0  0  0
   42.6399   28.0507   33.4634 H   0  0  0  0  0  0  0  0  0  0  0  0
   41.6811   26.1566   32.8920 H   0  0  0  0  0  0  0  0  0  0  0  0
   43.9188   25.5455   31.0894 H   0  0  0  0  0  0  0  0  0  0  0  0
   43.1949   24.6601   33.5265 H   0  0  0  0  0  0  0  0  0  0  0  0
   42.7718   23.3402   32.3840 H   0  0  0  0  0  0  0  0  0  0  0  0
   44.4300   24.0309   32.3840 H   0  0  0  0  0  0  0  0  0  0  0  0
   41.1950   24.1728   30.8944 H   0  0  0  0  0  0  0  0  0  0  0  0
   41.6644   25.5218   29.8051 H   0  0  0  0  0  0  0  0  0  0  0  0
   42.6124   23.9960   29.8051 H   0  0  0  0  0  0  0  0  0  0  0  0
   39.8174   26.2213   34.3848 H   0  0  0  0  0  0  0  0  0  0  0  0
   37.2681   24.0275   30.8258 H   0  0  0  0  0  0  0  0  0  0  0  0
   37.1685   25.6381   35.8118 H   0  0  0  0  0  0  0  0  0  0  0  0
   40.0308   22.5578   34.8215 H   0  0  0  0  0  0  0  0  0  0  0  0
   38.2148   23.1854   39.8417 H   0  0  0  0  0  0  0  0  0  0  0  0
   39.3844   22.0016   39.1986 H   0  0  0  0  0  0  0  0  0  0  0  0
  1 13  1  0
  2  1  1  0
  2  7  1  0
  3  4  1  0
  3  2  1  0
  4  5  1  0
  5  6  1  0
  7  6  1  0
  8  7  1  0
  8  9  1  0
 10  8  1  0
 11 20  1  0
 12 11  1  0
 13 12  2  0
 14 16  1  0
 14 13  1  0
 15 14  2  0
 16 17  1  0
 17 18  2  0
 17 11  1  0
 19 24  2  0
 20 21  2  0
 20 19  1  0
 21 22  1  0
 22 23  2  0
 23 25  1  0
 24 23  1  0
  1 26  1  0
  1 27  1  0
  2 28  1  6
  3 29  1  0
  3 30  1  0
  4 31  1  0
  4 32  1  0
  5 33  1  0
  5 34  1  0
  6 35  1  0
  6 36  1  0
  7 37  1  1
  8 38  1  0
  9 39  1  0
  9 40  1  0
  9 41  1  0
 10 42  1  0
 10 43  1  0
 10 44  1  0
 12 45  1  0
 16 46  1  0
 19 47  1  0
 21 48  1  0
 25 49  1  0
 25 50  1  0
M  ISO  8  26   8  27   8  28  13  29  13  30  13  31  13  32  13  33  13
M  ISO  8  34  13  35  13  36  13  37  13  38   8  39   8  40   8  41   8
M  ISO  7  42   8  43   8  44   8  45  14  46   9  47  14  48  14
M  END
>  <minimizedAffinity>  (1) 
-4.41155005

>  <minimizedRMSD>  (1) 
0.492677063

$$$$
