
     RDKit          3D

 24 25  0  0  1  0  0  0  0  0999 V2000
   38.2260   24.3660   36.8730 C   0  0  1  0  0  0  0  0  0  0  0  0
   41.0200   21.8730   37.4730 C   0  0  0  0  0  0  0  0  0  0  0  0
   39.9690   22.7750   37.7460 C   0  0  0  0  0  0  0  0  0  0  0  0
   39.3160   23.3980   36.6470 C   0  0  0  0  0  0  0  0  0  0  0  0
   39.7500   23.0820   35.3890 N   0  0  0  0  0  0  0  0  0  0  0  0
   40.7470   22.2250   35.1600 C   0  0  0  0  0  0  0  0  0  0  0  0
   41.3850   21.6170   36.1940 N   0  0  0  0  0  0  0  0  0  0  0  0
   37.7820   24.3900   38.3200 C   0  0  0  0  0  0  0  0  0  0  0  0
   38.5870   25.7660   36.4470 C   0  0  0  0  0  0  0  0  0  0  0  0
   37.8800   26.0650   35.1860 C   0  0  0  0  0  0  0  0  0  0  0  0
   37.2310   27.2620   35.0530 N   0  0  0  0  0  0  0  0  0  0  0  0
   36.7100   27.3170   33.8880 O   0  0  0  0  0  0  0  0  0  0  0  0
   36.9550   26.2300   33.1980 C   0  0  0  0  0  0  0  0  0  0  0  0
   37.6860   25.4310   33.9910 N   0  0  0  0  0  0  0  0  0  0  0  0
   37.3953   24.0162   36.2424 H   0  0  0  0  0  0  0  0  0  0  0  0
   41.5447   21.3760   38.3023 H   0  0  0  0  0  0  0  0  0  0  0  0
   39.6635   22.9901   38.7806 H   0  0  0  0  0  0  0  0  0  0  0  0
   41.0546   22.0092   34.1262 H   0  0  0  0  0  0  0  0  0  0  0  0
   38.6644   24.3423   38.9751 H   0  0  0  0  0  0  0  0  0  0  0  0
   37.2280   25.3194   38.5182 H   0  0  0  0  0  0  0  0  0  0  0  0
   37.1310   23.5257   38.5182 H   0  0  0  0  0  0  0  0  0  0  0  0
   38.2802   26.4817   37.2239 H   0  0  0  0  0  0  0  0  0  0  0  0
   39.6740   25.8485   36.3001 H   0  0  0  0  0  0  0  0  0  0  0  0
   36.6261   26.0147   32.1706 H   0  0  0  0  0  0  0  0  0  0  0  0
  1  8  1  0
  2  3  2  0
  4  1  1  0
  4  3  1  0
  5  4  2  0
  6  5  1  0
  6  7  2  0
  7  2  1  0
  9  1  1  0
 10  9  1  0
 11 10  2  0
 12 11  1  0
 13 12  1  0
 13 14  2  0
 14 10  1  0
  1 15  1  6
  2 16  1  0
  3 17  1  0
  6 18  1  0
  8 19  1  0
  8 20  1  0
  8 21  1  0
  9 22  1  0
  9 23  1  0
 13 24  1  0
M  ISO  8  15   8  16  14  17  14  18  14  19   8  20   8  21   8  22   8
M  ISO  2  23   8  24  14
M  END
>  <minimizedAffinity>  (1) 
-3.75499058

>  <minimizedRMSD>  (1) 
1.20806611

$$$$
