
     RDKit          3D

 32 33  0  0  1  0  0  0  0  0999 V2000
   38.2590   23.3990   36.8990 C   0  0  1  0  0  0  0  0  0  0  0  0
   41.6530   21.7610   37.3530 C   0  0  0  0  0  0  0  0  0  0  0  0
   40.4390   22.4230   37.6550 C   0  0  0  0  0  0  0  0  0  0  0  0
   39.5250   22.7010   36.6150 C   0  0  0  0  0  0  0  0  0  0  0  0
   39.8690   22.3050   35.3440 N   0  0  0  0  0  0  0  0  0  0  0  0
   41.0270   21.6800   35.0880 C   0  0  0  0  0  0  0  0  0  0  0  0
   41.9290   21.4000   36.0800 N   0  0  0  0  0  0  0  0  0  0  0  0
   37.9290   23.4030   38.3730 C   0  0  0  0  0  0  0  0  0  0  0  0
   38.2420   24.8250   36.3990 C   0  0  0  0  0  0  0  0  0  0  0  0
   38.7960   24.9710   35.0860 N   0  0  0  0  0  0  0  0  0  0  0  0
   37.8300   25.0540   34.0240 C   0  0  0  0  0  0  0  0  0  0  0  0
   37.1890   26.4210   33.9320 C   0  0  0  0  0  0  0  0  0  0  0  0
   38.2140   27.3080   33.6020 O   0  0  0  0  0  0  0  0  0  0  0  0
   39.0270   27.3900   34.7250 C   0  0  0  0  0  0  0  0  0  0  0  0
   39.6920   26.0850   35.0780 C   0  0  0  0  0  0  0  0  0  0  0  0
   37.4961   22.8265   36.3510 H   0  0  0  0  0  0  0  0  0  0  0  0
   42.3726   21.5401   38.1551 H   0  0  0  0  0  0  0  0  0  0  0  0
   40.2097   22.7180   38.6896 H   0  0  0  0  0  0  0  0  0  0  0  0
   41.2589   21.3843   34.0542 H   0  0  0  0  0  0  0  0  0  0  0  0
   38.8609   23.3917   38.9574 H   0  0  0  0  0  0  0  0  0  0  0  0
   37.3538   24.3082   38.6175 H   0  0  0  0  0  0  0  0  0  0  0  0
   37.3320   22.5120   38.6175 H   0  0  0  0  0  0  0  0  0  0  0  0
   37.1996   25.1758   36.3793 H   0  0  0  0  0  0  0  0  0  0  0  0
   38.8657   25.4182   37.0839 H   0  0  0  0  0  0  0  0  0  0  0  0
   38.3335   24.8352   33.0708 H   0  0  0  0  0  0  0  0  0  0  0  0
   37.0346   24.3246   34.2369 H   0  0  0  0  0  0  0  0  0  0  0  0
   36.4132   26.4271   33.1522 H   0  0  0  0  0  0  0  0  0  0  0  0
   36.7041   26.7018   34.8786 H   0  0  0  0  0  0  0  0  0  0  0  0
   39.8091   28.1399   34.5354 H   0  0  0  0  0  0  0  0  0  0  0  0
   38.3831   27.6665   35.5729 H   0  0  0  0  0  0  0  0  0  0  0  0
   40.4852   25.8883   34.3417 H   0  0  0  0  0  0  0  0  0  0  0  0
   40.0867   26.1895   36.0994 H   0  0  0  0  0  0  0  0  0  0  0  0
  1  8  1  0
  2  3  2  0
  4  1  1  0
  4  3  1  0
  5  4  2  0
  6  5  1  0
  6  7  2  0
  7  2  1  0
  9  1  1  0
 10  9  1  0
 11 10  1  0
 12 11  1  0
 13 12  1  0
 13 14  1  0
 14 15  1  0
 15 10  1  0
  1 16  1  6
  2 17  1  0
  3 18  1  0
  6 19  1  0
  8 20  1  0
  8 21  1  0
  8 22  1  0
  9 23  1  0
  9 24  1  0
 11 25  1  0
 11 26  1  0
 12 27  1  0
 12 28  1  0
 14 29  1  0
 14 30  1  0
 15 31  1  0
 15 32  1  0
M  ISO  8  16   8  17  14  18  14  19  14  20   8  21   8  22   8  23   8
M  ISO  8  24   8  25  13  26  13  27  13  28  13  29  13  30  13  31  13
M  ISO  1  32  13
M  END
>  <minimizedAffinity>  (1) 
-3.58969712

>  <minimizedRMSD>  (1) 
0.904386997

$$$$
