
     RDKit          3D

 21 21  0  0  1  0  0  0  0  0999 V2000
   37.9050   23.9800   37.0470 C   0  0  1  0  0  0  0  0  0  0  0  0
   41.0910   21.9600   37.3710 C   0  0  0  0  0  0  0  0  0  0  0  0
   39.9730   22.7150   37.7490 C   0  0  0  0  0  0  0  0  0  0  0  0
   39.1020   23.1750   36.7210 C   0  0  0  0  0  0  0  0  0  0  0  0
   39.3980   22.8580   35.4070 N   0  0  0  0  0  0  0  0  0  0  0  0
   40.5020   22.1200   35.1060 C   0  0  0  0  0  0  0  0  0  0  0  0
   41.3350   21.6790   36.0770 N   0  0  0  0  0  0  0  0  0  0  0  0
   37.9020   24.4170   38.4920 C   0  0  0  0  0  0  0  0  0  0  0  0
   37.7580   25.2000   36.1690 C   0  0  0  0  0  0  0  0  0  0  0  0
   38.9940   25.7490   35.7100 N   0  0  0  0  0  0  0  0  0  0  0  0
   37.0498   23.3140   36.8598 H   0  0  0  0  0  0  0  0  0  0  0  0
   41.7808   21.5907   38.1441 H   0  0  0  0  0  0  0  0  0  0  0  0
   39.7745   22.9450   38.8062 H   0  0  0  0  0  0  0  0  0  0  0  0
   40.7205   21.8781   34.0554 H   0  0  0  0  0  0  0  0  0  0  0  0
   37.9081   23.5305   39.1432 H   0  0  0  0  0  0  0  0  0  0  0  0
   38.7960   25.0256   38.6929 H   0  0  0  0  0  0  0  0  0  0  0  0
   36.9997   25.0133   38.6929 H   0  0  0  0  0  0  0  0  0  0  0  0
   37.1580   24.9212   35.2902 H   0  0  0  0  0  0  0  0  0  0  0  0
   37.2802   25.9751   36.7861 H   0  0  0  0  0  0  0  0  0  0  0  0
   39.5763   26.0077   36.5192 H   0  0  0  0  0  0  0  0  0  0  0  0
   39.4899   25.0490   35.1399 H   0  0  0  0  0  0  0  0  0  0  0  0
  1  8  1  0
  2  3  2  0
  4  1  1  0
  4  3  1  0
  5  4  2  0
  6  5  1  0
  6  7  2  0
  7  2  1  0
  9  1  1  0
 10  9  1  0
  1 11  1  1
  2 12  1  0
  3 13  1  0
  6 14  1  0
  8 15  1  0
  8 16  1  0
  8 17  1  0
  9 18  1  0
  9 19  1  0
 10 20  1  0
 10 21  1  0
M  ISO  8  11   8  12  14  13  14  14  14  15   8  16   8  17   8  18   8
M  ISO  3  19   8  20   5  21   5
M  END
>  <minimizedAffinity>  (1) 
-3.10115862

>  <minimizedRMSD>  (1) 
0.435135454

$$$$
