
     RDKit          3D

 42 45  0  0  1  0  0  0  0  0999 V2000
   40.7270   24.0710   35.5000 C   0  0  0  0  0  0  0  0  0  0  0  0
   41.4210   25.1590   34.9000 N   0  0  0  0  0  0  0  0  0  0  0  0
   42.7120   25.1420   34.6540 N   0  0  0  0  0  0  0  0  0  0  0  0
   43.1390   26.2760   34.0800 C   0  0  0  0  0  0  0  0  0  0  0  0
   42.0370   27.0620   33.9550 C   0  0  0  0  0  0  0  0  0  0  0  0
   40.9440   26.3490   34.4790 C   0  0  0  0  0  0  0  0  0  0  0  0
   39.5790   26.8530   34.5020 C   0  0  0  0  0  0  0  0  0  0  0  0
   38.9230   27.2880   35.6300 C   0  0  0  0  0  0  0  0  0  0  0  0
   37.6290   27.7500   35.6650 C   0  0  0  0  0  0  0  0  0  0  0  0
   36.8960   27.7950   34.4960 C   0  0  0  0  0  0  0  0  0  0  0  0
   37.4930   27.3730   33.3290 C   0  0  0  0  0  0  0  0  0  0  0  0
   36.7250   27.4270   32.1860 C   0  0  0  0  0  0  0  0  0  0  0  0
   37.2620   27.0110   30.9860 C   0  0  0  0  0  0  0  0  0  0  0  0
   38.5790   26.5400   30.9490 C   0  0  0  0  0  0  0  0  0  0  0  0
   39.2760   26.5200   32.1390 C   0  0  0  0  0  0  0  0  0  0  0  0
   38.7960   26.9210   33.3650 C   0  0  0  0  0  0  0  0  0  0  0  0
   40.8350   22.7700   34.7160 C   0  0  1  0  0  0  0  0  0  0  0  0
   42.2880   20.7350   37.5490 C   0  0  0  0  0  0  0  0  0  0  0  0
   41.5410   21.6990   36.8440 C   0  0  0  0  0  0  0  0  0  0  0  0
   41.6230   21.7600   35.4230 C   0  0  0  0  0  0  0  0  0  0  0  0
   42.4340   20.8690   34.7840 N   0  0  0  0  0  0  0  0  0  0  0  0
   43.1430   19.9500   35.5060 C   0  0  0  0  0  0  0  0  0  0  0  0
   43.0760   19.8760   36.8800 N   0  0  0  0  0  0  0  0  0  0  0  0
   39.4840   22.2900   34.2900 C   0  0  0  0  0  0  0  0  0  0  0  0
   41.1420   23.9063   36.5053 H   0  0  0  0  0  0  0  0  0  0  0  0
   39.6617   24.3438   35.5256 H   0  0  0  0  0  0  0  0  0  0  0  0
   44.1671   26.5196   33.7739 H   0  0  0  0  0  0  0  0  0  0  0  0
   42.0058   28.0728   33.5223 H   0  0  0  0  0  0  0  0  0  0  0  0
   39.4780   27.2642   36.5794 H   0  0  0  0  0  0  0  0  0  0  0  0
   37.1822   28.0804   36.6143 H   0  0  0  0  0  0  0  0  0  0  0  0
   35.8583   28.1598   34.4967 H   0  0  0  0  0  0  0  0  0  0  0  0
   35.6909   27.7993   32.2306 H   0  0  0  0  0  0  0  0  0  0  0  0
   36.6603   27.0491   30.0659 H   0  0  0  0  0  0  0  0  0  0  0  0
   39.0394   26.1998   30.0097 H   0  0  0  0  0  0  0  0  0  0  0  0
   40.3111   26.1493   32.1051 H   0  0  0  0  0  0  0  0  0  0  0  0
   41.3985   22.9729   33.7934 H   0  0  0  0  0  0  0  0  0  0  0  0
   42.2264   20.6853   38.6462 H   0  0  0  0  0  0  0  0  0  0  0  0
   40.8957   22.4032   37.3895 H   0  0  0  0  0  0  0  0  0  0  0  0
   43.7920   19.2424   34.9693 H   0  0  0  0  0  0  0  0  0  0  0  0
   38.8745   22.0734   35.1797 H   0  0  0  0  0  0  0  0  0  0  0  0
   38.9913   23.0681   33.6885 H   0  0  0  0  0  0  0  0  0  0  0  0
   39.5927   21.3755   33.6885 H   0  0  0  0  0  0  0  0  0  0  0  0
  2  1  1  0
  3  2  1  0
  4  3  2  0
  5  4  1  0
  5  6  2  0
  6  7  1  0
  6  2  1  0
  7  8  2  0
  8  9  1  0
 10  9  2  0
 11 16  2  0
 11 10  1  0
 12 11  1  0
 13 12  2  0
 14 13  1  0
 14 15  2  0
 15 16  1  0
 16  7  1  0
 17 20  1  0
 17  1  1  0
 19 18  2  0
 20 19  1  0
 21 20  2  0
 21 22  1  0
 22 23  2  0
 23 18  1  0
 24 17  1  0
  1 25  1  0
  1 26  1  0
  4 27  1  0
  5 28  1  0
  8 29  1  0
  9 30  1  0
 10 31  1  0
 12 32  1  0
 13 33  1  0
 14 34  1  0
 15 35  1  0
 17 36  1  6
 18 37  1  0
 19 38  1  0
 22 39  1  0
 24 40  1  0
 24 41  1  0
 24 42  1  0
M  ISO  8  25   8  26   8  27  14  28  14  29  14  30  14  31  14  32  14
M  ISO  8  33  14  34  14  35  14  36   8  37  14  38  14  39  14  40   8
M  ISO  2  41   8  42   8
M  END
>  <minimizedAffinity>  (1) 
-5.26897621

>  <minimizedRMSD>  (1) 
4.46163416

$$$$
