
     RDKit          3D

 27 29  0  0  0  0  0  0  0  0999 V2000
   39.4890   23.8970   35.9520 C   0  0  0  0  0  0  0  0  0  0  0  0
   38.5800   24.5060   36.8580 C   0  0  0  0  0  0  0  0  0  0  0  0
   38.0520   25.7550   36.5080 C   0  0  0  0  0  0  0  0  0  0  0  0
   38.4370   26.3130   35.3250 N   0  0  0  0  0  0  0  0  0  0  0  0
   39.3170   25.6810   34.4880 C   0  0  0  0  0  0  0  0  0  0  0  0
   39.8250   24.4960   34.8100 N   0  0  0  0  0  0  0  0  0  0  0  0
   39.6520   26.3520   33.2770 N   0  0  0  0  0  0  0  0  0  0  0  0
   40.8150   26.9270   32.9100 C   0  0  0  0  0  0  0  0  0  0  0  0
   40.7300   27.4600   31.6770 N   0  0  0  0  0  0  0  0  0  0  0  0
   39.4910   27.2430   31.2050 C   0  0  0  0  0  0  0  0  0  0  0  0
   38.8420   27.5480   30.0390 C   0  0  0  0  0  0  0  0  0  0  0  0
   39.4350   28.1760   29.1200 O   0  0  0  0  0  0  0  0  0  0  0  0
   37.5640   27.2070   29.8080 N   0  0  0  0  0  0  0  0  0  0  0  0
   36.9830   26.5320   30.8390 C   0  0  0  0  0  0  0  0  0  0  0  0
   35.6300   26.1140   30.7200 N   0  0  0  0  0  0  0  0  0  0  0  0
   37.5690   26.2040   32.0050 N   0  0  0  0  0  0  0  0  0  0  0  0
   38.8440   26.5560   32.2130 C   0  0  0  0  0  0  0  0  0  0  0  0
   38.1690   23.8790   38.1460 C   0  0  0  0  0  0  0  0  0  0  0  0
   39.2950   23.2950   38.6930 F   0  0  0  0  0  0  0  0  0  0  0  0
   37.2360   22.9010   37.9560 F   0  0  0  0  0  0  0  0  0  0  0  0
   37.7670   24.8330   39.0650 F   0  0  0  0  0  0  0  0  0  0  0  0
   39.9222   22.9160   36.1969 H   0  0  0  0  0  0  0  0  0  0  0  0
   37.3439   26.2733   37.1713 H   0  0  0  0  0  0  0  0  0  0  0  0
   41.7177   26.9567   33.5379 H   0  0  0  0  0  0  0  0  0  0  0  0
   37.0694   27.4343   28.9336 H   0  0  0  0  0  0  0  0  0  0  0  0
   35.1791   25.6029   31.4922 H   0  0  0  0  0  0  0  0  0  0  0  0
   35.1003   26.3221   29.8615 H   0  0  0  0  0  0  0  0  0  0  0  0
  1  2  2  0
  2 18  1  0
  3  2  1  0
  4  3  2  0
  5  6  2  0
  5  4  1  0
  6  1  1  0
  7  5  1  0
  8  7  1  0
  9  8  2  0
 10  9  1  0
 10 17  2  0
 11 10  1  0
 12 11  2  0
 13 11  1  0
 13 14  1  0
 14 16  2  0
 15 14  1  0
 16 17  1  0
 17  7  1  0
 18 19  1  0
 18 21  1  0
 20 18  1  0
  1 22  1  0
  3 23  1  0
  8 24  1  0
 13 25  1  0
 15 26  1  0
 15 27  1  0
M  ISO  4  22  14  23  14  24  14  25   9
M  END
>  <minimizedAffinity>  (1) 
-5.5595274

>  <minimizedRMSD>  (1) 
6.02372313

$$$$
