
     RDKit          3D

 28 29  0  0  1  0  0  0  0  0999 V2000
   38.3850   26.3960   35.0150 C   0  0  1  0  0  0  0  0  0  0  0  0
   37.7060   23.2870   37.0270 C   0  0  0  0  0  0  0  0  0  0  0  0
   37.9120   24.6330   36.6750 C   0  0  0  0  0  0  0  0  0  0  0  0
   38.1790   24.9880   35.3200 C   0  0  0  0  0  0  0  0  0  0  0  0
   38.2250   24.0010   34.3970 N   0  0  0  0  0  0  0  0  0  0  0  0
   38.0190   22.6990   34.7730 C   0  0  0  0  0  0  0  0  0  0  0  0
   37.7630   22.3330   36.0650 N   0  0  0  0  0  0  0  0  0  0  0  0
   38.4160   27.2910   36.2140 C   0  0  0  0  0  0  0  0  0  0  0  0
   39.6190   26.6460   34.1530 C   0  0  0  0  0  0  0  0  0  0  0  0
   39.3090   27.0540   32.8140 N   0  0  0  0  0  0  0  0  0  0  0  0
   38.0970   27.2690   32.3650 N   0  0  0  0  0  0  0  0  0  0  0  0
   38.1080   27.6430   31.0620 C   0  0  0  0  0  0  0  0  0  0  0  0
   39.4320   27.6590   30.6750 C   0  0  0  0  0  0  0  0  0  0  0  0
   40.1460   27.2860   31.7980 C   0  0  0  0  0  0  0  0  0  0  0  0
   41.6000   27.1780   31.8100 C   0  0  0  0  0  0  0  0  0  0  0  0
   42.3530   28.0680   32.3160 O   0  0  0  0  0  0  0  0  0  0  0  0
   37.4897   26.6636   34.4347 H   0  0  0  0  0  0  0  0  0  0  0  0
   37.5008   23.0110   38.0718 H   0  0  0  0  0  0  0  0  0  0  0  0
   37.8670   25.4146   37.4477 H   0  0  0  0  0  0  0  0  0  0  0  0
   38.0615   21.9153   34.0023 H   0  0  0  0  0  0  0  0  0  0  0  0
   38.3948   26.6799   37.1284 H   0  0  0  0  0  0  0  0  0  0  0  0
   39.3356   27.8944   36.1975 H   0  0  0  0  0  0  0  0  0  0  0  0
   37.5404   27.9566   36.1975 H   0  0  0  0  0  0  0  0  0  0  0  0
   40.2205   27.4356   34.6270 H   0  0  0  0  0  0  0  0  0  0  0  0
   40.1627   25.6924   34.0826 H   0  0  0  0  0  0  0  0  0  0  0  0
   37.2353   27.8854   30.4378 H   0  0  0  0  0  0  0  0  0  0  0  0
   39.8340   27.9143   29.6834 H   0  0  0  0  0  0  0  0  0  0  0  0
   42.0653   26.2877   31.3617 H   0  0  0  0  0  0  0  0  0  0  0  0
  1  4  1  0
  1  8  1  0
  3  2  2  0
  4  3  1  0
  5  6  1  0
  5  4  2  0
  6  7  2  0
  7  2  1  0
  9  1  1  0
 10  9  1  0
 11 10  1  0
 12 11  2  0
 13 12  1  0
 13 14  2  0
 14 15  1  0
 14 10  1  0
 15 16  2  0
  1 17  1  6
  2 18  1  0
  3 19  1  0
  6 20  1  0
  8 21  1  0
  8 22  1  0
  8 23  1  0
  9 24  1  0
  9 25  1  0
 12 26  1  0
 13 27  1  0
 15 28  1  0
M  ISO  8  17   8  18  14  19  14  20  14  21   8  22   8  23   8  24   8
M  ISO  4  25   8  26  14  27  14  28   6
M  END
>  <minimizedAffinity>  (1) 
-3.56568146

>  <minimizedRMSD>  (1) 
3.73180485

$$$$
