
     RDKit          3D

 51 56  0  0  1  0  0  0  0  0999 V2000
   39.6100   23.2160   35.0240 C   0  0  2  0  0  0  0  0  0  0  0  0
   41.5550   21.3520   37.6520 C   0  0  0  0  0  0  0  0  0  0  0  0
   40.5960   22.1730   37.0230 C   0  0  0  0  0  0  0  0  0  0  0  0
   40.6230   22.3580   35.6190 C   0  0  0  0  0  0  0  0  0  0  0  0
   41.5870   21.7260   34.9090 N   0  0  0  0  0  0  0  0  0  0  0  0
   42.5070   20.9320   35.5450 C   0  0  0  0  0  0  0  0  0  0  0  0
   42.5000   20.7430   36.8950 N   0  0  0  0  0  0  0  0  0  0  0  0
   39.5440   24.5980   35.6350 C   0  0  0  0  0  0  0  0  0  0  0  0
   40.3630   25.5650   34.9620 N   0  0  0  0  0  0  0  0  0  0  0  0
   41.6570   25.4840   34.8540 N   0  0  0  0  0  0  0  0  0  0  0  0
   42.1700   26.5350   34.1680 C   0  0  0  0  0  0  0  0  0  0  0  0
   41.1060   27.3160   33.8330 C   0  0  0  0  0  0  0  0  0  0  0  0
   39.9700   26.6870   34.3450 C   0  0  0  0  0  0  0  0  0  0  0  0
   38.6080   27.1460   34.2370 N   0  0  0  0  0  0  0  0  0  0  0  0
   37.7290   27.5660   35.1650 C   0  0  0  0  0  0  0  0  0  0  0  0
   36.5890   27.8840   34.5230 N   0  0  0  0  0  0  0  0  0  0  0  0
   36.7640   27.6620   33.2090 C   0  0  0  0  0  0  0  0  0  0  0  0
   35.8310   27.8650   32.2090 C   0  0  0  0  0  0  0  0  0  0  0  0
   36.2840   27.5520   30.9540 N   0  0  0  0  0  0  0  0  0  0  0  0
   37.5370   27.0940   30.7610 C   0  0  0  0  0  0  0  0  0  0  0  0
   38.4330   26.9020   31.7430 N   0  0  0  0  0  0  0  0  0  0  0  0
   38.0310   27.1960   33.0050 C   0  0  0  0  0  0  0  0  0  0  0  0
   38.2400   22.5930   34.9620 C   0  0  0  0  0  0  0  0  0  0  0  0
   37.6410   22.6610   33.6250 C   0  0  0  0  0  0  0  0  0  0  0  0
   37.7630   23.5130   32.5380 C   0  0  0  0  0  0  0  0  0  0  0  0
   36.9450   23.0810   31.5360 N   0  0  0  0  0  0  0  0  0  0  0  0
   36.3010   21.9790   31.9450 C   0  0  0  0  0  0  0  0  0  0  0  0
   35.3670   21.1980   31.2580 C   0  0  0  0  0  0  0  0  0  0  0  0
   34.8440   20.1010   31.9100 C   0  0  0  0  0  0  0  0  0  0  0  0
   35.2230   19.7690   33.2130 C   0  0  0  0  0  0  0  0  0  0  0  0
   36.1450   20.5940   33.8060 C   0  0  0  0  0  0  0  0  0  0  0  0
   36.7220   21.7050   33.2420 C   0  0  0  0  0  0  0  0  0  0  0  0
   39.9552   23.3365   33.9866 H   0  0  0  0  0  0  0  0  0  0  0  0
   41.5362   21.2079   38.7424 H   0  0  0  0  0  0  0  0  0  0  0  0
   39.8231   22.6722   37.6259 H   0  0  0  0  0  0  0  0  0  0  0  0
   43.2788   20.4293   34.9436 H   0  0  0  0  0  0  0  0  0  0  0  0
   38.5001   24.9432   35.6014 H   0  0  0  0  0  0  0  0  0  0  0  0
   39.9248   24.5137   36.6635 H   0  0  0  0  0  0  0  0  0  0  0  0
   43.2282   26.7190   33.9308 H   0  0  0  0  0  0  0  0  0  0  0  0
   41.1359   28.2596   33.2684 H   0  0  0  0  0  0  0  0  0  0  0  0
   37.9085   27.6365   36.2480 H   0  0  0  0  0  0  0  0  0  0  0  0
   34.8166   28.2436   32.4032 H   0  0  0  0  0  0  0  0  0  0  0  0
   37.8462   26.8622   29.7311 H   0  0  0  0  0  0  0  0  0  0  0  0
   38.3215   21.5363   35.2565 H   0  0  0  0  0  0  0  0  0  0  0  0
   37.5890   23.1596   35.6441 H   0  0  0  0  0  0  0  0  0  0  0  0
   38.4159   24.3970   32.4913 H   0  0  0  0  0  0  0  0  0  0  0  0
   36.8393   23.5289   30.6145 H   0  0  0  0  0  0  0  0  0  0  0  0
   35.0597   21.4499   30.2323 H   0  0  0  0  0  0  0  0  0  0  0  0
   34.1082   19.4701   31.3898 H   0  0  0  0  0  0  0  0  0  0  0  0
   34.8055   18.8950   33.7344 H   0  0  0  0  0  0  0  0  0  0  0  0
   36.4514   20.3411   34.8318 H   0  0  0  0  0  0  0  0  0  0  0  0
  1  4  1  0
  1  8  1  0
  3  2  2  0
  4  3  1  0
  5  6  1  0
  5  4  2  0
  6  7  2  0
  7  2  1  0
  9  8  1  0
 10  9  1  0
 11 10  2  0
 12 11  1  0
 12 13  2  0
 13  9  1  0
 14 13  1  0
 14 15  1  0
 16 15  2  0
 17 16  1  0
 18 17  2  0
 19 18  1  0
 20 19  2  0
 20 21  1  0
 21 22  2  0
 22 17  1  0
 22 14  1  0
 23  1  1  0
 24 23  1  0
 25 24  2  0
 26 27  1  0
 26 25  1  0
 27 32  2  0
 28 29  2  0
 28 27  1  0
 29 30  1  0
 30 31  2  0
 32 24  1  0
 32 31  1  0
  1 33  1  6
  2 34  1  0
  3 35  1  0
  6 36  1  0
  8 37  1  0
  8 38  1  0
 11 39  1  0
 12 40  1  0
 15 41  1  0
 18 42  1  0
 20 43  1  0
 23 44  1  0
 23 45  1  0
 25 46  1  0
 26 47  1  0
 28 48  1  0
 29 49  1  0
 30 50  1  0
 31 51  1  0
M  ISO  8  33   8  34  14  35  14  36  14  37   8  38   8  39  14  40  14
M  ISO  8  41  14  42  14  43  14  44   8  45   8  46  14  47   9  48  14
M  ISO  3  49  14  50  14  51  14
M  END
>  <minimizedAffinity>  (1) 
-6.28666973

>  <minimizedRMSD>  (1) 
1.01671922

$$$$
