
     RDKit          3D

 47 51  0  0  1  0  0  0  0  0999 V2000
   39.1580   24.3610   35.4730 C   0  0  0  0  0  0  0  0  0  0  0  0
   40.0710   25.3450   34.9680 N   0  0  0  0  0  0  0  0  0  0  0  0
   41.3590   25.2010   34.9540 N   0  0  0  0  0  0  0  0  0  0  0  0
   41.9800   26.2840   34.4230 C   0  0  0  0  0  0  0  0  0  0  0  0
   40.9870   27.1560   34.0860 C   0  0  0  0  0  0  0  0  0  0  0  0
   39.7970   26.5450   34.4380 C   0  0  0  0  0  0  0  0  0  0  0  0
   38.4640   27.0870   34.2720 N   0  0  0  0  0  0  0  0  0  0  0  0
   37.5980   27.6500   35.1460 C   0  0  0  0  0  0  0  0  0  0  0  0
   36.4880   27.9830   34.4530 N   0  0  0  0  0  0  0  0  0  0  0  0
   36.6690   27.6290   33.1670 C   0  0  0  0  0  0  0  0  0  0  0  0
   35.7680   27.7980   32.1360 C   0  0  0  0  0  0  0  0  0  0  0  0
   36.1990   27.3520   30.9290 N   0  0  0  0  0  0  0  0  0  0  0  0
   37.4300   26.7890   30.7940 C   0  0  0  0  0  0  0  0  0  0  0  0
   38.2980   26.6310   31.8130 N   0  0  0  0  0  0  0  0  0  0  0  0
   37.9080   27.0630   33.0360 C   0  0  0  0  0  0  0  0  0  0  0  0
   39.3410   22.9790   34.8900 C   0  0  1  0  0  0  0  0  0  0  0  0
   41.4750   21.4370   37.6020 C   0  0  0  0  0  0  0  0  0  0  0  0
   40.4550   22.1290   36.9310 C   0  0  0  0  0  0  0  0  0  0  0  0
   40.4380   22.2450   35.5220 C   0  0  0  0  0  0  0  0  0  0  0  0
   41.4570   21.6570   34.8450 N   0  0  0  0  0  0  0  0  0  0  0  0
   42.4410   20.9890   35.5140 C   0  0  0  0  0  0  0  0  0  0  0  0
   42.4600   20.8740   36.8790 N   0  0  0  0  0  0  0  0  0  0  0  0
   38.0690   22.2150   34.8320 C   0  0  0  0  0  0  0  0  0  0  0  0
   37.3210   22.2840   33.5850 C   0  0  0  0  0  0  0  0  0  0  0  0
   37.3970   23.1760   32.5380 C   0  0  0  0  0  0  0  0  0  0  0  0
   36.5930   23.0600   31.4220 C   0  0  0  0  0  0  0  0  0  0  0  0
   35.6720   22.0410   31.3010 C   0  0  0  0  0  0  0  0  0  0  0  0
   35.5680   21.1280   32.3310 C   0  0  0  0  0  0  0  0  0  0  0  0
   36.3790   21.2590   33.4380 C   0  0  0  0  0  0  0  0  0  0  0  0
   39.2924   24.2948   36.5627 H   0  0  0  0  0  0  0  0  0  0  0  0
   38.1497   24.6918   35.1834 H   0  0  0  0  0  0  0  0  0  0  0  0
   43.0624   26.4290   34.2913 H   0  0  0  0  0  0  0  0  0  0  0  0
   41.1083   28.1478   33.6259 H   0  0  0  0  0  0  0  0  0  0  0  0
   37.7669   27.8072   36.2215 H   0  0  0  0  0  0  0  0  0  0  0  0
   34.7792   28.2576   32.2808 H   0  0  0  0  0  0  0  0  0  0  0  0
   37.7347   26.4426   29.7954 H   0  0  0  0  0  0  0  0  0  0  0  0
   39.6478   23.1155   33.8425 H   0  0  0  0  0  0  0  0  0  0  0  0
   41.4692   21.3564   38.6990 H   0  0  0  0  0  0  0  0  0  0  0  0
   39.6477   22.5932   37.5165 H   0  0  0  0  0  0  0  0  0  0  0  0
   43.2517   20.5241   34.9338 H   0  0  0  0  0  0  0  0  0  0  0  0
   38.3065   21.1575   35.0201 H   0  0  0  0  0  0  0  0  0  0  0  0
   37.4175   22.6808   35.5860 H   0  0  0  0  0  0  0  0  0  0  0  0
   38.1189   24.0042   32.5929 H   0  0  0  0  0  0  0  0  0  0  0  0
   36.6892   23.7970   30.6110 H   0  0  0  0  0  0  0  0  0  0  0  0
   35.0367   21.9578   30.4069 H   0  0  0  0  0  0  0  0  0  0  0  0
   34.8437   20.3024   32.2690 H   0  0  0  0  0  0  0  0  0  0  0  0
   36.2809   20.5203   34.2472 H   0  0  0  0  0  0  0  0  0  0  0  0
  2  1  1  0
  3  2  1  0
  4  3  2  0
  5  4  1  0
  5  6  2  0
  6  2  1  0
  7  6  1  0
  7  8  1  0
  9  8  2  0
 10  9  1  0
 11 10  2  0
 12 11  1  0
 13 12  2  0
 13 14  1  0
 14 15  2  0
 15 10  1  0
 15  7  1  0
 16  1  1  0
 16 19  1  0
 18 17  2  0
 19 18  1  0
 20 21  1  0
 20 19  2  0
 21 22  2  0
 22 17  1  0
 23 16  1  0
 24 23  1  0
 25 24  2  0
 26 25  1  0
 27 26  2  0
 27 28  1  0
 28 29  2  0
 29 24  1  0
  1 30  1  0
  1 31  1  0
  4 32  1  0
  5 33  1  0
  8 34  1  0
 11 35  1  0
 13 36  1  0
 16 37  1  6
 17 38  1  0
 18 39  1  0
 21 40  1  0
 23 41  1  0
 23 42  1  0
 25 43  1  0
 26 44  1  0
 27 45  1  0
 28 46  1  0
 29 47  1  0
M  ISO  8  30   8  31   8  32  14  33  14  34  14  35  14  36  14  37   8
M  ISO  8  38  14  39  14  40  14  41   8  42   8  43  14  44  14  45  14
M  ISO  2  46  14  47  14
M  END
>  <minimizedAffinity>  (1) 
-5.7123909

>  <minimizedRMSD>  (1) 
0.983749688

$$$$
