
     RDKit          3D

 46 50  0  0  1  0  0  0  0  0999 V2000
   39.0540   24.5170   35.7970 C   0  0  0  0  0  0  0  0  0  0  0  0
   39.9810   25.3880   35.1380 N   0  0  0  0  0  0  0  0  0  0  0  0
   41.2590   25.1870   35.0900 N   0  0  0  0  0  0  0  0  0  0  0  0
   41.8980   26.1670   34.4030 C   0  0  0  0  0  0  0  0  0  0  0  0
   40.9230   27.0350   34.0000 C   0  0  0  0  0  0  0  0  0  0  0  0
   39.7170   26.5220   34.4770 C   0  0  0  0  0  0  0  0  0  0  0  0
   38.4160   27.0990   34.2970 N   0  0  0  0  0  0  0  0  0  0  0  0
   37.5710   27.7000   35.1630 C   0  0  0  0  0  0  0  0  0  0  0  0
   36.4750   28.0640   34.4750 N   0  0  0  0  0  0  0  0  0  0  0  0
   36.6450   27.6900   33.1940 C   0  0  0  0  0  0  0  0  0  0  0  0
   35.7470   27.8800   32.1550 C   0  0  0  0  0  0  0  0  0  0  0  0
   36.1690   27.4040   30.9530 N   0  0  0  0  0  0  0  0  0  0  0  0
   37.3810   26.7960   30.8180 C   0  0  0  0  0  0  0  0  0  0  0  0
   38.2390   26.6210   31.8370 N   0  0  0  0  0  0  0  0  0  0  0  0
   37.8560   27.0820   33.0580 C   0  0  0  0  0  0  0  0  0  0  0  0
   39.0840   23.0890   35.2950 C   0  0  1  0  0  0  0  0  0  0  0  0
   41.5850   21.4600   37.6010 C   0  0  0  0  0  0  0  0  0  0  0  0
   40.4640   22.1670   37.1330 C   0  0  0  0  0  0  0  0  0  0  0  0
   40.2650   22.3480   35.7250 C   0  0  0  0  0  0  0  0  0  0  0  0
   41.1730   21.8270   34.8830 N   0  0  0  0  0  0  0  0  0  0  0  0
   42.2600   21.1390   35.3780 C   0  0  0  0  0  0  0  0  0  0  0  0
   42.4690   20.9550   36.7100 N   0  0  0  0  0  0  0  0  0  0  0  0
   37.7780   22.4030   35.6040 C   0  0  0  0  0  0  0  0  0  0  0  0
   37.2170   21.7930   34.3670 C   0  0  0  0  0  0  0  0  0  0  0  0
   36.1160   20.9600   34.4200 C   0  0  0  0  0  0  0  0  0  0  0  0
   35.5280   20.3490   33.3230 C   0  0  0  0  0  0  0  0  0  0  0  0
   36.0900   20.5940   32.0810 C   0  0  0  0  0  0  0  0  0  0  0  0
   37.1900   21.4260   32.0370 C   0  0  0  0  0  0  0  0  0  0  0  0
   37.7360   22.0050   33.1280 N   0  0  0  0  0  0  0  0  0  0  0  0
   39.2899   24.5106   36.8714 H   0  0  0  0  0  0  0  0  0  0  0  0
   38.0473   24.9066   35.5856 H   0  0  0  0  0  0  0  0  0  0  0  0
   42.9781   26.2463   34.2103 H   0  0  0  0  0  0  0  0  0  0  0  0
   41.0617   27.9562   33.4151 H   0  0  0  0  0  0  0  0  0  0  0  0
   37.7478   27.8621   36.2365 H   0  0  0  0  0  0  0  0  0  0  0  0
   34.7740   28.3747   32.2915 H   0  0  0  0  0  0  0  0  0  0  0  0
   37.6722   26.4293   29.8226 H   0  0  0  0  0  0  0  0  0  0  0  0
   39.1852   23.1151   34.2000 H   0  0  0  0  0  0  0  0  0  0  0  0
   41.7419   21.3187   38.6805 H   0  0  0  0  0  0  0  0  0  0  0  0
   39.7384   22.5820   37.8481 H   0  0  0  0  0  0  0  0  0  0  0  0
   42.9884   20.7216   34.6672 H   0  0  0  0  0  0  0  0  0  0  0  0
   37.9485   21.6158   36.3531 H   0  0  0  0  0  0  0  0  0  0  0  0
   37.0655   23.1437   35.9961 H   0  0  0  0  0  0  0  0  0  0  0  0
   35.6721   20.7668   35.4077 H   0  0  0  0  0  0  0  0  0  0  0  0
   34.6501   19.6957   33.4346 H   0  0  0  0  0  0  0  0  0  0  0  0
   35.6762   20.1436   31.1667 H   0  0  0  0  0  0  0  0  0  0  0  0
   37.6481   21.6291   31.0578 H   0  0  0  0  0  0  0  0  0  0  0  0
  2  1  1  0
  3  2  1  0
  4  3  2  0
  5  4  1  0
  5  6  2  0
  6  2  1  0
  7  6  1  0
  7  8  1  0
  9  8  2  0
 10  9  1  0
 11 10  2  0
 12 11  1  0
 13 12  2  0
 13 14  1  0
 14 15  2  0
 15 10  1  0
 15  7  1  0
 16 23  1  0
 16 19  1  0
 16  1  1  0
 18 17  2  0
 19 18  1  0
 20 21  1  0
 20 19  2  0
 21 22  2  0
 22 17  1  0
 24 25  2  0
 24 23  1  0
 26 25  1  0
 27 26  2  0
 28 27  1  0
 28 29  2  0
 29 24  1  0
  1 30  1  0
  1 31  1  0
  4 32  1  0
  5 33  1  0
  8 34  1  0
 11 35  1  0
 13 36  1  0
 16 37  1  6
 17 38  1  0
 18 39  1  0
 21 40  1  0
 23 41  1  0
 23 42  1  0
 25 43  1  0
 26 44  1  0
 27 45  1  0
 28 46  1  0
M  ISO  8  30   8  31   8  32  14  33  14  34  14  35  14  36  14  37   8
M  ISO  8  38  14  39  14  40  14  41   8  42   8  43  14  44  14  45  14
M  ISO  1  46  14
M  END
>  <minimizedAffinity>  (1) 
-5.69083071

>  <minimizedRMSD>  (1) 
1.12148964

$$$$
