
     RDKit          3D

 49 53  0  0  1  0  0  0  0  0999 V2000
   39.1020   24.3080   34.9840 C   0  0  0  0  0  0  0  0  0  0  0  0
   40.0080   25.3510   34.6470 N   0  0  0  0  0  0  0  0  0  0  0  0
   41.3040   25.2220   34.6290 N   0  0  0  0  0  0  0  0  0  0  0  0
   41.9280   26.3720   34.2720 C   0  0  0  0  0  0  0  0  0  0  0  0
   40.9350   27.2800   34.0540 C   0  0  0  0  0  0  0  0  0  0  0  0
   39.7360   26.6170   34.2950 C   0  0  0  0  0  0  0  0  0  0  0  0
   38.4090   27.1770   34.1930 N   0  0  0  0  0  0  0  0  0  0  0  0
   37.5570   27.6470   35.1180 C   0  0  0  0  0  0  0  0  0  0  0  0
   36.4430   28.0550   34.4830 N   0  0  0  0  0  0  0  0  0  0  0  0
   36.6140   27.8330   33.1650 C   0  0  0  0  0  0  0  0  0  0  0  0
   35.7070   28.1100   32.1530 C   0  0  0  0  0  0  0  0  0  0  0  0
   36.1350   27.7850   30.8960 N   0  0  0  0  0  0  0  0  0  0  0  0
   37.3540   27.2400   30.7120 C   0  0  0  0  0  0  0  0  0  0  0  0
   38.2340   26.9710   31.6940 N   0  0  0  0  0  0  0  0  0  0  0  0
   37.8470   27.2800   32.9610 C   0  0  0  0  0  0  0  0  0  0  0  0
   39.5010   22.9430   34.4490 C   0  0  1  0  0  0  0  0  0  0  0  0
   41.1480   21.6290   37.5760 C   0  0  0  0  0  0  0  0  0  0  0  0
   40.2550   22.2760   36.7080 C   0  0  0  0  0  0  0  0  0  0  0  0
   40.4560   22.2580   35.2990 C   0  0  0  0  0  0  0  0  0  0  0  0
   41.5410   21.5930   34.8260 N   0  0  0  0  0  0  0  0  0  0  0  0
   42.3930   20.9710   35.7010 C   0  0  0  0  0  0  0  0  0  0  0  0
   42.2140   20.9780   37.0680 N   0  0  0  0  0  0  0  0  0  0  0  0
   38.2780   22.1340   34.1160 C   0  0  0  0  0  0  0  0  0  0  0  0
   37.9820   22.0360   32.7330 N   0  0  0  0  0  0  0  0  0  0  0  0
   36.7620   22.6320   32.2890 C   0  0  0  0  0  0  0  0  0  0  0  0
   35.6590   21.6530   32.5600 C   0  0  0  0  0  0  0  0  0  0  0  0
   36.3490   20.3410   32.7780 C   0  0  0  0  0  0  0  0  0  0  0  0
   37.7950   20.6380   32.4120 C   0  0  0  0  0  0  0  0  0  0  0  0
   39.0403   24.2448   36.0805 H   0  0  0  0  0  0  0  0  0  0  0  0
   38.1383   24.5620   34.5183 H   0  0  0  0  0  0  0  0  0  0  0  0
   43.0114   26.5377   34.1778 H   0  0  0  0  0  0  0  0  0  0  0  0
   41.0575   28.3295   33.7480 H   0  0  0  0  0  0  0  0  0  0  0  0
   37.7375   27.6908   36.2022 H   0  0  0  0  0  0  0  0  0  0  0  0
   34.7204   28.5563   32.3466 H   0  0  0  0  0  0  0  0  0  0  0  0
   37.6520   26.9968   29.6814 H   0  0  0  0  0  0  0  0  0  0  0  0
   40.0497   23.0901   33.5071 H   0  0  0  0  0  0  0  0  0  0  0  0
   40.9796   21.6528   38.6628 H   0  0  0  0  0  0  0  0  0  0  0  0
   39.3852   22.8059   37.1235 H   0  0  0  0  0  0  0  0  0  0  0  0
   43.2643   20.4389   35.2916 H   0  0  0  0  0  0  0  0  0  0  0  0
   38.4256   21.1162   34.5062 H   0  0  0  0  0  0  0  0  0  0  0  0
   37.4278   22.6593   34.5756 H   0  0  0  0  0  0  0  0  0  0  0  0
   36.8185   22.8457   31.2114 H   0  0  0  0  0  0  0  0  0  0  0  0
   36.5783   23.5794   32.8169 H   0  0  0  0  0  0  0  0  0  0  0  0
   35.0937   21.9462   33.4570 H   0  0  0  0  0  0  0  0  0  0  0  0
   34.9356   21.6066   31.7327 H   0  0  0  0  0  0  0  0  0  0  0  0
   36.2661   20.0223   33.8276 H   0  0  0  0  0  0  0  0  0  0  0  0
   35.9148   19.5235   32.1836 H   0  0  0  0  0  0  0  0  0  0  0  0
   37.9668   20.4610   31.3400 H   0  0  0  0  0  0  0  0  0  0  0  0
   38.5001   19.9912   32.9546 H   0  0  0  0  0  0  0  0  0  0  0  0
  2  1  1  0
  3  2  1  0
  4  3  2  0
  5  4  1  0
  5  6  2  0
  6  2  1  0
  7  6  1  0
  7  8  1  0
  9  8  2  0
 10  9  1  0
 11 10  2  0
 12 11  1  0
 13 12  2  0
 13 14  1  0
 14 15  2  0
 15 10  1  0
 15  7  1  0
 16  1  1  0
 16 19  1  0
 18 17  2  0
 19 18  1  0
 20 19  2  0
 20 21  1  0
 21 22  2  0
 22 17  1  0
 23 16  1  0
 24 23  1  0
 25 26  1  0
 25 24  1  0
 26 27  1  0
 28 24  1  0
 28 27  1  0
  1 29  1  0
  1 30  1  0
  4 31  1  0
  5 32  1  0
  8 33  1  0
 11 34  1  0
 13 35  1  0
 16 36  1  6
 17 37  1  0
 18 38  1  0
 21 39  1  0
 23 40  1  0
 23 41  1  0
 25 42  1  0
 25 43  1  0
 26 44  1  0
 26 45  1  0
 27 46  1  0
 27 47  1  0
 28 48  1  0
 28 49  1  0
M  ISO  8  29   8  30   8  31  14  32  14  33  14  34  14  35  14  36   8
M  ISO  8  37  14  38  14  39  14  40   8  41   8  42  13  43  13  44  13
M  ISO  5  45  13  46  13  47  13  48  13  49  13
M  END
>  <minimizedAffinity>  (1) 
-5.12598801

>  <minimizedRMSD>  (1) 
1.67623973

$$$$
