
     RDKit          3D

 39 42  0  0  1  0  0  0  0  0999 V2000
   39.2850   24.3680   35.7740 C   0  0  0  0  0  0  0  0  0  0  0  0
   40.1870   25.2770   35.1500 N   0  0  0  0  0  0  0  0  0  0  0  0
   41.4750   25.0980   35.0810 N   0  0  0  0  0  0  0  0  0  0  0  0
   42.0950   26.1180   34.4330 C   0  0  0  0  0  0  0  0  0  0  0  0
   41.1070   26.9890   34.0780 C   0  0  0  0  0  0  0  0  0  0  0  0
   39.9140   26.4360   34.5400 C   0  0  0  0  0  0  0  0  0  0  0  0
   38.5960   27.0030   34.3980 N   0  0  0  0  0  0  0  0  0  0  0  0
   37.7570   27.5610   35.2810 C   0  0  0  0  0  0  0  0  0  0  0  0
   36.6450   27.9260   34.6050 N   0  0  0  0  0  0  0  0  0  0  0  0
   36.8060   27.5910   33.3170 C   0  0  0  0  0  0  0  0  0  0  0  0
   35.8870   27.7980   32.2900 C   0  0  0  0  0  0  0  0  0  0  0  0
   36.3050   27.3620   31.0690 N   0  0  0  0  0  0  0  0  0  0  0  0
   37.5240   26.7790   30.9090 C   0  0  0  0  0  0  0  0  0  0  0  0
   38.4000   26.5870   31.9100 N   0  0  0  0  0  0  0  0  0  0  0  0
   38.0250   27.0080   33.1490 C   0  0  0  0  0  0  0  0  0  0  0  0
   39.3390   22.9610   35.2180 C   0  0  1  0  0  0  0  0  0  0  0  0
   41.7890   21.3370   37.5880 C   0  0  0  0  0  0  0  0  0  0  0  0
   40.6890   22.0590   37.0920 C   0  0  0  0  0  0  0  0  0  0  0  0
   40.5050   22.2000   35.6790 C   0  0  0  0  0  0  0  0  0  0  0  0
   41.3990   21.6330   34.8500 N   0  0  0  0  0  0  0  0  0  0  0  0
   42.4610   20.9350   35.3750 C   0  0  0  0  0  0  0  0  0  0  0  0
   42.6610   20.7850   36.7130 N   0  0  0  0  0  0  0  0  0  0  0  0
   38.0290   22.2550   35.4170 C   0  0  0  0  0  0  0  0  0  0  0  0
   37.3830   22.5450   36.6480 N   0  0  0  0  0  0  0  0  0  0  0  0
   39.5256   24.3247   36.8465 H   0  0  0  0  0  0  0  0  0  0  0  0
   38.2704   24.7460   35.5801 H   0  0  0  0  0  0  0  0  0  0  0  0
   43.1722   26.2206   34.2352 H   0  0  0  0  0  0  0  0  0  0  0  0
   41.2277   27.9382   33.5355 H   0  0  0  0  0  0  0  0  0  0  0  0
   37.9394   27.6969   36.3572 H   0  0  0  0  0  0  0  0  0  0  0  0
   34.9080   28.2728   32.4515 H   0  0  0  0  0  0  0  0  0  0  0  0
   37.8094   26.4450   29.9005 H   0  0  0  0  0  0  0  0  0  0  0  0
   39.4901   23.0406   34.1313 H   0  0  0  0  0  0  0  0  0  0  0  0
   41.9384   21.2226   38.6718 H   0  0  0  0  0  0  0  0  0  0  0  0
   39.9705   22.5151   37.7889 H   0  0  0  0  0  0  0  0  0  0  0  0
   43.1820   20.4768   34.6820 H   0  0  0  0  0  0  0  0  0  0  0  0
   37.3544   22.5461   34.5984 H   0  0  0  0  0  0  0  0  0  0  0  0
   38.2534   21.1782   35.4284 H   0  0  0  0  0  0  0  0  0  0  0  0
   37.9948   22.2704   37.4298 H   0  0  0  0  0  0  0  0  0  0  0  0
   37.1873   23.5547   36.7035 H   0  0  0  0  0  0  0  0  0  0  0  0
  2  1  1  0
  3  2  1  0
  4  3  2  0
  5  4  1  0
  5  6  2  0
  6  2  1  0
  7  6  1  0
  7  8  1  0
  9  8  2  0
 10  9  1  0
 11 10  2  0
 12 11  1  0
 13 12  2  0
 13 14  1  0
 14 15  2  0
 15 10  1  0
 15  7  1  0
 16 23  1  0
 16 19  1  0
 16  1  1  0
 18 17  2  0
 19 18  1  0
 20 21  1  0
 20 19  2  0
 21 22  2  0
 22 17  1  0
 23 24  1  0
  1 25  1  0
  1 26  1  0
  4 27  1  0
  5 28  1  0
  8 29  1  0
 11 30  1  0
 13 31  1  0
 16 32  1  6
 17 33  1  0
 18 34  1  0
 21 35  1  0
 23 36  1  0
 23 37  1  0
 24 38  1  0
 24 39  1  0
M  ISO  8  25   8  26   8  27  14  28  14  29  14  30  14  31  14  32   8
M  ISO  7  33  14  34  14  35  14  36   8  37   8  38   5  39   5
M  END
>  <minimizedAffinity>  (1) 
-4.91666508

>  <minimizedRMSD>  (1) 
0.232221469

$$$$
