
     RDKit          3D

 38 41  0  0  1  0  0  0  0  0999 V2000
   39.6650   24.4120   35.8280 C   0  0  0  0  0  0  0  0  0  0  0  0
   40.5130   25.3240   35.1350 N   0  0  0  0  0  0  0  0  0  0  0  0
   41.7920   25.1680   35.0030 N   0  0  0  0  0  0  0  0  0  0  0  0
   42.3620   26.1840   34.2960 C   0  0  0  0  0  0  0  0  0  0  0  0
   41.3390   27.0250   33.9740 C   0  0  0  0  0  0  0  0  0  0  0  0
   40.1910   26.4640   34.5120 C   0  0  0  0  0  0  0  0  0  0  0  0
   38.8500   27.0010   34.4280 N   0  0  0  0  0  0  0  0  0  0  0  0
   38.0400   27.5410   35.3530 C   0  0  0  0  0  0  0  0  0  0  0  0
   36.8870   27.8830   34.7400 N   0  0  0  0  0  0  0  0  0  0  0  0
   36.9940   27.5520   33.4460 C   0  0  0  0  0  0  0  0  0  0  0  0
   36.0340   27.7320   32.4600 C   0  0  0  0  0  0  0  0  0  0  0  0
   36.3970   27.3060   31.2190 N   0  0  0  0  0  0  0  0  0  0  0  0
   37.6200   26.7530   31.0040 C   0  0  0  0  0  0  0  0  0  0  0  0
   38.5490   26.5790   31.9590 N   0  0  0  0  0  0  0  0  0  0  0  0
   38.2180   26.9950   33.2170 C   0  0  0  0  0  0  0  0  0  0  0  0
   39.6200   23.0250   35.2250 C   0  0  1  0  0  0  0  0  0  0  0  0
   42.0110   21.1390   37.4390 C   0  0  0  0  0  0  0  0  0  0  0  0
   40.9450   21.9450   37.0050 C   0  0  0  0  0  0  0  0  0  0  0  0
   40.7390   22.1840   35.6080 C   0  0  0  0  0  0  0  0  0  0  0  0
   41.5940   21.6160   34.7340 N   0  0  0  0  0  0  0  0  0  0  0  0
   42.6280   20.8320   35.1950 C   0  0  0  0  0  0  0  0  0  0  0  0
   42.8420   20.5910   36.5200 N   0  0  0  0  0  0  0  0  0  0  0  0
   38.2660   22.3990   35.4460 C   0  0  0  0  0  0  0  0  0  0  0  0
   37.4080   23.0570   36.8780 S   0  0  0  0  0  0  0  0  0  0  0  0
   40.0246   24.3261   36.8640 H   0  0  0  0  0  0  0  0  0  0  0  0
   38.6447   24.8178   35.7628 H   0  0  0  0  0  0  0  0  0  0  0  0
   43.4252   26.3009   34.0390 H   0  0  0  0  0  0  0  0  0  0  0  0
   41.4100   27.9617   33.4016 H   0  0  0  0  0  0  0  0  0  0  0  0
   38.2740   27.6797   36.4188 H   0  0  0  0  0  0  0  0  0  0  0  0
   35.0530   28.1851   32.6659 H   0  0  0  0  0  0  0  0  0  0  0  0
   37.8649   26.4269   29.9824 H   0  0  0  0  0  0  0  0  0  0  0  0
   39.7505   23.1298   34.1378 H   0  0  0  0  0  0  0  0  0  0  0  0
   42.1689   20.9552   38.5120 H   0  0  0  0  0  0  0  0  0  0  0  0
   40.2645   22.3952   37.7427 H   0  0  0  0  0  0  0  0  0  0  0  0
   43.3119   20.3799   34.4616 H   0  0  0  0  0  0  0  0  0  0  0  0
   37.6476   22.5797   34.5544 H   0  0  0  0  0  0  0  0  0  0  0  0
   38.4276   21.3260   35.6264 H   0  0  0  0  0  0  0  0  0  0  0  0
   38.0076   22.5972   38.0208 H   0  0  0  0  0  0  0  0  0  0  0  0
  2  1  1  0
  3  2  1  0
  4  3  2  0
  5  4  1  0
  5  6  2  0
  6  2  1  0
  7  6  1  0
  7  8  1  0
  9  8  2  0
 10  9  1  0
 11 10  2  0
 12 11  1  0
 13 12  2  0
 13 14  1  0
 14 15  2  0
 15 10  1  0
 15  7  1  0
 16 23  1  0
 16 19  1  0
 16  1  1  0
 18 17  2  0
 19 18  1  0
 20 21  1  0
 20 19  2  0
 21 22  2  0
 22 17  1  0
 23 24  1  0
  1 25  1  0
  1 26  1  0
  4 27  1  0
  5 28  1  0
  8 29  1  0
 11 30  1  0
 13 31  1  0
 16 32  1  6
 17 33  1  0
 18 34  1  0
 21 35  1  0
 23 36  1  0
 23 37  1  0
 24 38  1  0
M  ISO  8  25   8  26   8  27  14  28  14  29  14  30  14  31  14  32   8
M  ISO  6  33  14  34  14  35  14  36   8  37   8  38  11
M  END
>  <minimizedAffinity>  (1) 
-4.64396143

>  <minimizedRMSD>  (1) 
0.463916212

$$$$
