
     RDKit          3D

 27 29  0  0  0  0  0  0  0  0999 V2000
   37.7370   23.6520   33.6270 O   0  0  0  0  0  0  0  0  0  0  0  0
   37.7310   22.7760   32.5750 C   0  0  0  0  0  0  0  0  0  0  0  0
   38.3960   22.9560   31.4010 N   0  0  0  0  0  0  0  0  0  0  0  0
   38.3450   22.0480   30.4030 C   0  0  0  0  0  0  0  0  0  0  0  0
   37.6190   20.9230   30.5550 N   0  0  0  0  0  0  0  0  0  0  0  0
   36.9400   20.7060   31.7140 C   0  0  0  0  0  0  0  0  0  0  0  0
   36.2070   19.5380   31.8270 C   0  0  0  0  0  0  0  0  0  0  0  0
   35.4870   19.2540   32.9910 C   0  0  0  0  0  0  0  0  0  0  0  0
   35.5520   20.1970   34.0000 C   0  0  0  0  0  0  0  0  0  0  0  0
   36.2720   21.3500   33.8970 C   0  0  0  0  0  0  0  0  0  0  0  0
   36.9760   21.6260   32.7560 C   0  0  0  0  0  0  0  0  0  0  0  0
   38.8120   23.9190   34.4570 C   0  0  0  0  0  0  0  0  0  0  0  0
   39.8170   24.3400   33.8410 O   0  0  0  0  0  0  0  0  0  0  0  0
   39.8380   22.8040   37.7610 C   0  0  0  0  0  0  0  0  0  0  0  0
   38.8660   23.3130   38.6210 C   0  0  0  0  0  0  0  0  0  0  0  0
   37.8150   24.0710   38.0440 C   0  0  0  0  0  0  0  0  0  0  0  0
   37.8140   24.2580   36.6890 N   0  0  0  0  0  0  0  0  0  0  0  0
   38.7910   23.7350   35.9030 C   0  0  0  0  0  0  0  0  0  0  0  0
   39.7940   23.0120   36.4450 N   0  0  0  0  0  0  0  0  0  0  0  0
   38.8952   22.2263   29.4673 H   0  0  0  0  0  0  0  0  0  0  0  0
   36.1906   18.8240   30.9904 H   0  0  0  0  0  0  0  0  0  0  0  0
   34.9002   18.3298   33.0985 H   0  0  0  0  0  0  0  0  0  0  0  0
   34.9962   20.0079   34.9302 H   0  0  0  0  0  0  0  0  0  0  0  0
   36.2873   22.0622   34.7351 H   0  0  0  0  0  0  0  0  0  0  0  0
   40.6656   22.2133   38.1807 H   0  0  0  0  0  0  0  0  0  0  0  0
   38.9123   23.1337   39.7053 H   0  0  0  0  0  0  0  0  0  0  0  0
   37.0192   24.4985   38.6717 H   0  0  0  0  0  0  0  0  0  0  0  0
  1 12  1  0
  2 11  1  0
  2  1  1  0
  3  2  2  0
  4  5  2  0
  4  3  1  0
  5  6  1  0
  6  7  1  0
  6 11  2  0
  7  8  2  0
  8  9  1  0
 10  9  2  0
 11 10  1  0
 12 18  1  0
 13 12  2  0
 14 15  2  0
 16 15  1  0
 17 16  2  0
 18 19  2  0
 18 17  1  0
 19 14  1  0
  4 20  1  0
  7 21  1  0
  8 22  1  0
  9 23  1  0
 10 24  1  0
 14 25  1  0
 15 26  1  0
 16 27  1  0
M  ISO  8  20  14  21  14  22  14  23  14  24  14  25  14  26  14  27  14
M  END
>  <minimizedAffinity>  (1) 
-4.68751907

>  <minimizedRMSD>  (1) 
1.98914063

$$$$
