
     RDKit          3D

 22 23  0  0  0  0  0  0  0  0999 V2000
   37.8230   21.8700   35.0040 C   0  0  0  0  0  0  0  0  0  0  0  0
   38.5750   21.6710   34.0380 O   0  0  0  0  0  0  0  0  0  0  0  0
   39.9910   22.7680   37.7540 C   0  0  0  0  0  0  0  0  0  0  0  0
   39.1780   23.4910   38.6380 C   0  0  0  0  0  0  0  0  0  0  0  0
   37.8360   23.6720   38.2700 C   0  0  0  0  0  0  0  0  0  0  0  0
   37.4220   23.1420   37.0970 N   0  0  0  0  0  0  0  0  0  0  0  0
   38.2500   22.4470   36.2700 C   0  0  0  0  0  0  0  0  0  0  0  0
   39.5250   22.2680   36.6080 N   0  0  0  0  0  0  0  0  0  0  0  0
   36.5120   21.4820   34.7610 O   0  0  0  0  0  0  0  0  0  0  0  0
   36.0960   21.0340   33.5020 C   0  0  0  0  0  0  0  0  0  0  0  0
   35.6620   19.7400   33.2110 C   0  0  0  0  0  0  0  0  0  0  0  0
   35.2930   19.5010   31.8980 C   0  0  0  0  0  0  0  0  0  0  0  0
   35.3630   20.5100   30.9570 C   0  0  0  0  0  0  0  0  0  0  0  0
   35.7960   21.7770   31.2820 C   0  0  0  0  0  0  0  0  0  0  0  0
   36.1600   22.0180   32.5680 N   0  0  0  0  0  0  0  0  0  0  0  0
   41.0478   22.6076   38.0136 H   0  0  0  0  0  0  0  0  0  0  0  0
   39.5749   23.8988   39.5794 H   0  0  0  0  0  0  0  0  0  0  0  0
   37.1415   24.2285   38.9165 H   0  0  0  0  0  0  0  0  0  0  0  0
   35.6157   18.9552   33.9803 H   0  0  0  0  0  0  0  0  0  0  0  0
   34.9419   18.5014   31.6023 H   0  0  0  0  0  0  0  0  0  0  0  0
   35.0649   20.2961   29.9200 H   0  0  0  0  0  0  0  0  0  0  0  0
   35.8454   22.5705   30.5218 H   0  0  0  0  0  0  0  0  0  0  0  0
  1  7  1  0
  2  1  2  0
  3  4  2  0
  5  4  1  0
  6  5  2  0
  7  8  2  0
  7  6  1  0
  8  3  1  0
  9  1  1  0
 10  9  1  0
 11 10  2  0
 12 11  1  0
 13 14  1  0
 13 12  2  0
 14 15  2  0
 15 10  1  0
  3 16  1  0
  4 17  1  0
  5 18  1  0
 11 19  1  0
 12 20  1  0
 13 21  1  0
 14 22  1  0
M  ISO  7  16  14  17  14  18  14  19  14  20  14  21  14  22  14
M  END
>  <minimizedAffinity>  (1) 
-4.16677999

>  <minimizedRMSD>  (1) 
0.571232378

$$$$
