
     RDKit          3D

 20 21  0  0  0  0  0  0  0  0999 V2000
   37.4110   21.7280   34.9530 C   0  0  0  0  0  0  0  0  0  0  0  0
   37.9880   21.6810   33.8460 O   0  0  0  0  0  0  0  0  0  0  0  0
   39.9380   22.6790   37.3630 C   0  0  0  0  0  0  0  0  0  0  0  0
   39.2320   23.3520   38.3590 C   0  0  0  0  0  0  0  0  0  0  0  0
   37.8440   23.4800   38.1910 C   0  0  0  0  0  0  0  0  0  0  0  0
   37.2460   22.9520   37.0820 N   0  0  0  0  0  0  0  0  0  0  0  0
   38.0040   22.3040   36.1460 C   0  0  0  0  0  0  0  0  0  0  0  0
   39.3310   22.1730   36.2900 N   0  0  0  0  0  0  0  0  0  0  0  0
   36.1460   21.1650   34.8850 O   0  0  0  0  0  0  0  0  0  0  0  0
   34.7470   20.6530   31.6880 N   0  0  0  0  0  0  0  0  0  0  0  0
   35.1460   21.4090   32.7120 N   0  0  0  0  0  0  0  0  0  0  0  0
   35.6500   20.6210   33.6850 C   0  0  0  0  0  0  0  0  0  0  0  0
   35.5550   19.3140   33.2310 C   0  0  0  0  0  0  0  0  0  0  0  0
   34.9850   19.3640   31.9750 C   0  0  0  0  0  0  0  0  0  0  0  0
   41.0270   22.5623   37.4657 H   0  0  0  0  0  0  0  0  0  0  0  0
   39.7420   23.7662   39.2412 H   0  0  0  0  0  0  0  0  0  0  0  0
   37.2412   24.0026   38.9483 H   0  0  0  0  0  0  0  0  0  0  0  0
   34.3239   21.0027   30.8165 H   0  0  0  0  0  0  0  0  0  0  0  0
   35.8735   18.4093   33.7696 H   0  0  0  0  0  0  0  0  0  0  0  0
   34.7655   18.5030   31.3266 H   0  0  0  0  0  0  0  0  0  0  0  0
  1  7  1  0
  2  1  2  0
  3  4  2  0
  5  4  1  0
  6  5  2  0
  7  8  2  0
  7  6  1  0
  8  3  1  0
  9  1  1  0
 10 14  1  0
 10 11  1  0
 11 12  2  0
 12  9  1  0
 13 12  1  0
 14 13  2  0
  3 15  1  0
  4 16  1  0
  5 17  1  0
 10 18  1  0
 13 19  1  0
 14 20  1  0
M  ISO  6  15  14  16  14  17  14  18   9  19  14  20  14
M  END
>  <minimizedAffinity>  (1) 
-4.11710453

>  <minimizedRMSD>  (1) 
0.986107171

$$$$
