
     RDKit          3D

 25 25  0  0  0  0  0  0  0  0999 V2000
   39.9930   22.6320   37.5280 C   0  0  0  0  0  0  0  0  0  0  0  0
   39.1930   23.2040   38.5140 C   0  0  0  0  0  0  0  0  0  0  0  0
   37.8530   23.4920   38.1800 C   0  0  0  0  0  0  0  0  0  0  0  0
   37.3920   23.2060   36.9210 N   0  0  0  0  0  0  0  0  0  0  0  0
   38.2450   22.6440   36.0120 C   0  0  0  0  0  0  0  0  0  0  0  0
   39.5220   22.3630   36.3120 N   0  0  0  0  0  0  0  0  0  0  0  0
   37.7990   22.3260   34.6600 C   0  0  0  0  0  0  0  0  0  0  0  0
   38.2980   22.8370   33.6330 O   0  0  0  0  0  0  0  0  0  0  0  0
   36.7910   21.4370   34.3500 O   0  0  0  0  0  0  0  0  0  0  0  0
   36.4860   20.9690   33.0700 C   0  0  0  0  0  0  0  0  0  0  0  0
   35.8140   21.9950   32.2000 C   0  0  0  0  0  0  0  0  0  0  0  0
   35.5270   19.8060   33.2410 C   0  0  0  0  0  0  0  0  0  0  0  0
   37.7010   20.4370   32.3390 C   0  0  0  0  0  0  0  0  0  0  0  0
   41.0421   22.3961   37.7600 H   0  0  0  0  0  0  0  0  0  0  0  0
   39.5911   23.4230   39.5158 H   0  0  0  0  0  0  0  0  0  0  0  0
   37.1819   23.9435   38.9255 H   0  0  0  0  0  0  0  0  0  0  0  0
   35.3214   22.7471   32.8337 H   0  0  0  0  0  0  0  0  0  0  0  0
   36.5659   22.4863   31.5649 H   0  0  0  0  0  0  0  0  0  0  0  0
   35.0632   21.5021   31.5649 H   0  0  0  0  0  0  0  0  0  0  0  0
   35.3696   19.6151   34.3128 H   0  0  0  0  0  0  0  0  0  0  0  0
   34.5651   20.0512   32.7671 H   0  0  0  0  0  0  0  0  0  0  0  0
   35.9510   18.9084   32.7671 H   0  0  0  0  0  0  0  0  0  0  0  0
   38.4537   20.1074   33.0703 H   0  0  0  0  0  0  0  0  0  0  0  0
   37.4056   19.5859   31.7079 H   0  0  0  0  0  0  0  0  0  0  0  0
   38.1261   21.2313   31.7079 H   0  0  0  0  0  0  0  0  0  0  0  0
  1  2  2  0
  3  2  1  0
  4  3  2  0
  5  6  2  0
  5  4  1  0
  6  1  1  0
  7  5  1  0
  8  7  2  0
  9  7  1  0
 10 12  1  0
 10  9  1  0
 11 10  1  0
 13 10  1  0
  1 14  1  0
  2 15  1  0
  3 16  1  0
 11 17  1  0
 11 18  1  0
 11 19  1  0
 12 20  1  0
 12 21  1  0
 12 22  1  0
 13 23  1  0
 13 24  1  0
 13 25  1  0
M  ISO  8  14  14  15  14  16  14  17   8  18   8  19   8  20   8  21   8
M  ISO  4  22   8  23   8  24   8  25   8
M  END
>  <minimizedAffinity>  (1) 
-3.76979041

>  <minimizedRMSD>  (1) 
0.447070569

$$$$
