
     RDKit          3D

 20 21  0  0  0  0  0  0  0  0999 V2000
   39.9760   22.7240   37.6830 C   0  0  0  0  0  0  0  0  0  0  0  0
   39.0520   23.3450   38.5530 C   0  0  0  0  0  0  0  0  0  0  0  0
   37.7310   23.5120   38.1060 C   0  0  0  0  0  0  0  0  0  0  0  0
   37.4370   23.0610   36.8660 N   0  0  0  0  0  0  0  0  0  0  0  0
   38.3330   22.4710   36.0530 C   0  0  0  0  0  0  0  0  0  0  0  0
   39.6080   22.3000   36.4610 N   0  0  0  0  0  0  0  0  0  0  0  0
   38.0220   21.9860   34.7220 C   0  0  0  0  0  0  0  0  0  0  0  0
   38.8270   21.9550   33.7670 O   0  0  0  0  0  0  0  0  0  0  0  0
   36.7540   21.4940   34.3780 O   0  0  0  0  0  0  0  0  0  0  0  0
   36.4910   20.8570   33.1450 C   0  0  0  0  0  0  0  0  0  0  0  0
   35.1080   21.0870   32.6050 C   0  0  0  0  0  0  0  0  0  0  0  0
   35.5110   19.7420   33.0940 C   0  0  0  0  0  0  0  0  0  0  0  0
   41.0165   22.5847   38.0116 H   0  0  0  0  0  0  0  0  0  0  0  0
   39.3586   23.6880   39.5522 H   0  0  0  0  0  0  0  0  0  0  0  0
   36.9679   23.9896   38.7382 H   0  0  0  0  0  0  0  0  0  0  0  0
   37.5262   20.9659   32.7892 H   0  0  0  0  0  0  0  0  0  0  0  0
   34.9582   21.2602   31.5291 H   0  0  0  0  0  0  0  0  0  0  0  0
   34.2888   21.7858   32.8299 H   0  0  0  0  0  0  0  0  0  0  0  0
   35.0818   19.3467   34.0264 H   0  0  0  0  0  0  0  0  0  0  0  0
   35.5122   18.7303   32.6622 H   0  0  0  0  0  0  0  0  0  0  0  0
  1  2  2  0
  3  2  1  0
  4  3  2  0
  5  6  2  0
  5  4  1  0
  6  1  1  0
  7  5  1  0
  8  7  2  0
  9  7  1  0
 10  9  1  0
 11 12  1  0
 11 10  1  0
 12 10  1  0
  1 13  1  0
  2 14  1  0
  3 15  1  0
 10 16  1  0
 11 17  1  0
 11 18  1  0
 12 19  1  0
 12 20  1  0
M  ISO  8  13  14  14  14  15  14  16  13  17  13  18  13  19  13  20  13
M  END
>  <minimizedAffinity>  (1) 
-3.70571899

>  <minimizedRMSD>  (1) 
0.640093446

$$$$
