
     RDKit          3D

 19 19  0  0  0  0  0  0  0  0999 V2000
   39.9590   22.6160   37.2750 C   0  0  0  0  0  0  0  0  0  0  0  0
   39.2350   23.2620   38.2900 C   0  0  0  0  0  0  0  0  0  0  0  0
   37.8490   23.4370   38.0880 C   0  0  0  0  0  0  0  0  0  0  0  0
   37.2950   22.9780   36.9350 N   0  0  0  0  0  0  0  0  0  0  0  0
   38.0500   22.3600   35.9850 C   0  0  0  0  0  0  0  0  0  0  0  0
   39.3750   22.1820   36.1610 N   0  0  0  0  0  0  0  0  0  0  0  0
   37.4700   21.8580   34.7380 C   0  0  0  0  0  0  0  0  0  0  0  0
   37.9640   22.0600   33.6250 O   0  0  0  0  0  0  0  0  0  0  0  0
   36.3170   21.1120   34.6720 O   0  0  0  0  0  0  0  0  0  0  0  0
   35.5850   20.8320   33.5180 C   0  0  0  0  0  0  0  0  0  0  0  0
   35.5080   19.4080   33.1080 C   0  0  0  0  0  0  0  0  0  0  0  0
   41.0407   22.4643   37.4046 H   0  0  0  0  0  0  0  0  0  0  0  0
   39.7285   23.6177   39.2065 H   0  0  0  0  0  0  0  0  0  0  0  0
   37.2297   23.9349   38.8486 H   0  0  0  0  0  0  0  0  0  0  0  0
   34.5571   21.1884   33.6804 H   0  0  0  0  0  0  0  0  0  0  0  0
   36.1232   21.3391   32.7036 H   0  0  0  0  0  0  0  0  0  0  0  0
   35.4735   18.7700   34.0034 H   0  0  0  0  0  0  0  0  0  0  0  0
   34.5999   19.2477   32.5083 H   0  0  0  0  0  0  0  0  0  0  0  0
   36.3935   19.1507   32.5083 H   0  0  0  0  0  0  0  0  0  0  0  0
  1  2  2  0
  3  2  1  0
  4  3  2  0
  5  6  2  0
  5  4  1  0
  6  1  1  0
  7  5  1  0
  8  7  2  0
  9  7  1  0
 10  9  1  0
 11 10  1  0
  1 12  1  0
  2 13  1  0
  3 14  1  0
 10 15  1  0
 10 16  1  0
 11 17  1  0
 11 18  1  0
 11 19  1  0
M  ISO  8  12  14  13  14  14  14  15   8  16   8  17   8  18   8  19   8
M  END
>  <minimizedAffinity>  (1) 
-3.36286855

>  <minimizedRMSD>  (1) 
0.611614883

$$$$
