
     RDKit          3D

 27 29  0  0  0  0  0  0  0  0999 V2000
   37.0430   22.3980   32.9190 C   0  0  0  0  0  0  0  0  0  0  0  0
   36.0660   21.9160   32.0920 C   0  0  0  0  0  0  0  0  0  0  0  0
   35.6550   22.9130   31.2540 C   0  0  0  0  0  0  0  0  0  0  0  0
   36.4070   24.0120   31.5930 N   0  0  0  0  0  0  0  0  0  0  0  0
   37.2180   23.7080   32.5670 N   0  0  0  0  0  0  0  0  0  0  0  0
   36.4900   25.3560   31.1290 C   0  0  0  0  0  0  0  0  0  0  0  0
   37.7440   25.9510   30.9670 C   0  0  0  0  0  0  0  0  0  0  0  0
   37.5570   27.2420   30.5120 C   0  0  0  0  0  0  0  0  0  0  0  0
   36.2080   27.4020   30.4060 N   0  0  0  0  0  0  0  0  0  0  0  0
   35.5710   26.2980   30.7660 N   0  0  0  0  0  0  0  0  0  0  0  0
   37.6090   21.5510   33.8600 O   0  0  0  0  0  0  0  0  0  0  0  0
   38.7570   21.9190   34.5580 C   0  0  0  0  0  0  0  0  0  0  0  0
   39.7890   21.7580   33.8670 O   0  0  0  0  0  0  0  0  0  0  0  0
   39.9830   22.7630   37.8560 C   0  0  0  0  0  0  0  0  0  0  0  0
   38.8900   23.3460   38.4880 C   0  0  0  0  0  0  0  0  0  0  0  0
   37.6980   23.4510   37.7610 C   0  0  0  0  0  0  0  0  0  0  0  0
   37.6510   22.9870   36.4790 N   0  0  0  0  0  0  0  0  0  0  0  0
   38.7590   22.4280   35.9210 C   0  0  0  0  0  0  0  0  0  0  0  0
   39.8910   22.3250   36.6070 N   0  0  0  0  0  0  0  0  0  0  0  0
   35.6736   20.8884   32.1005 H   0  0  0  0  0  0  0  0  0  0  0  0
   34.8840   22.8496   30.4720 H   0  0  0  0  0  0  0  0  0  0  0  0
   38.7143   25.4731   31.1675 H   0  0  0  0  0  0  0  0  0  0  0  0
   38.3347   27.9855   30.2831 H   0  0  0  0  0  0  0  0  0  0  0  0
   35.7456   28.2658   30.0884 H   0  0  0  0  0  0  0  0  0  0  0  0
   40.9350   22.6638   38.3980 H   0  0  0  0  0  0  0  0  0  0  0  0
   38.9595   23.7119   39.5230 H   0  0  0  0  0  0  0  0  0  0  0  0
   36.8067   23.9039   38.2198 H   0  0  0  0  0  0  0  0  0  0  0  0
  1 11  1  0
  2  1  1  0
  3  4  1  0
  3  2  2  0
  4  5  1  0
  5  1  2  0
  6  4  1  0
  7  6  1  0
  8  7  2  0
  9  8  1  0
  9 10  1  0
 10  6  2  0
 11 12  1  0
 12 18  1  0
 13 12  2  0
 14 15  2  0
 16 15  1  0
 17 16  2  0
 18 17  1  0
 18 19  2  0
 19 14  1  0
  2 20  1  0
  3 21  1  0
  7 22  1  0
  8 23  1  0
  9 24  1  0
 14 25  1  0
 15 26  1  0
 16 27  1  0
M  ISO  8  20  14  21  14  22  14  23  14  24   9  25  14  26  14  27  14
M  END
>  <minimizedAffinity>  (1) 
-4.97387409

>  <minimizedRMSD>  (1) 
3.32380462

$$$$
