
     RDKit          3D

 25 27  0  0  0  0  0  0  0  0999 V2000
   36.7650   21.1500   33.0840 C   0  0  0  0  0  0  0  0  0  0  0  0
   35.6890   20.4170   33.5090 C   0  0  0  0  0  0  0  0  0  0  0  0
   35.4750   19.4290   32.5660 C   0  0  0  0  0  0  0  0  0  0  0  0
   36.4150   19.5850   31.6010 N   0  0  0  0  0  0  0  0  0  0  0  0
   37.1740   20.5980   31.9080 N   0  0  0  0  0  0  0  0  0  0  0  0
   36.5560   18.7760   30.4400 C   0  0  0  0  0  0  0  0  0  0  0  0
   36.4740   19.1020   29.1370 N   0  0  0  0  0  0  0  0  0  0  0  0
   36.6610   18.0780   28.3710 O   0  0  0  0  0  0  0  0  0  0  0  0
   36.8700   17.0500   29.1340 C   0  0  0  0  0  0  0  0  0  0  0  0
   36.8100   17.4550   30.4120 N   0  0  0  0  0  0  0  0  0  0  0  0
   37.1930   22.2200   33.8670 O   0  0  0  0  0  0  0  0  0  0  0  0
   38.3810   22.1480   34.5870 C   0  0  0  0  0  0  0  0  0  0  0  0
   39.3130   21.6860   33.8970 O   0  0  0  0  0  0  0  0  0  0  0  0
   39.9570   22.7460   37.7860 C   0  0  0  0  0  0  0  0  0  0  0  0
   38.9450   23.2880   38.5830 C   0  0  0  0  0  0  0  0  0  0  0  0
   37.6860   23.4460   37.9860 C   0  0  0  0  0  0  0  0  0  0  0  0
   37.4890   23.0790   36.6840 N   0  0  0  0  0  0  0  0  0  0  0  0
   38.5340   22.5540   35.9690 C   0  0  0  0  0  0  0  0  0  0  0  0
   39.7290   22.4010   36.5260 N   0  0  0  0  0  0  0  0  0  0  0  0
   35.1057   20.5829   34.4267 H   0  0  0  0  0  0  0  0  0  0  0  0
   34.6890   18.6599   32.5933 H   0  0  0  0  0  0  0  0  0  0  0  0
   37.0633   16.0225   28.7921 H   0  0  0  0  0  0  0  0  0  0  0  0
   40.9612   22.6029   38.2117 H   0  0  0  0  0  0  0  0  0  0  0  0
   39.1273   23.5769   39.6286 H   0  0  0  0  0  0  0  0  0  0  0  0
   36.8531   23.8672   38.5681 H   0  0  0  0  0  0  0  0  0  0  0  0
  1  2  1  0
  1 11  1  0
  3  2  2  0
  4  5  1  0
  4  3  1  0
  5  1  2  0
  6  4  1  0
  7  6  2  0
  8  9  1  0
  8  7  1  0
  9 10  2  0
 10  6  1  0
 11 12  1  0
 12 18  1  0
 13 12  2  0
 14 15  2  0
 16 15  1  0
 17 16  2  0
 18 19  2  0
 18 17  1  0
 19 14  1  0
  2 20  1  0
  3 21  1  0
  9 22  1  0
 14 23  1  0
 15 24  1  0
 16 25  1  0
M  ISO  6  20  14  21  14  22  14  23  14  24  14  25  14
M  END
>  <minimizedAffinity>  (1) 
-4.71361256

>  <minimizedRMSD>  (1) 
2.57058644

$$$$
