
     RDKit          3D

 27 29  0  0  0  0  0  0  0  0999 V2000
   37.1850   22.1980   33.9170 O   0  0  0  0  0  0  0  0  0  0  0  0
   36.7840   21.1060   33.1580 C   0  0  0  0  0  0  0  0  0  0  0  0
   35.7190   20.3530   33.6180 C   0  0  0  0  0  0  0  0  0  0  0  0
   35.4950   19.3360   32.7250 C   0  0  0  0  0  0  0  0  0  0  0  0
   36.4330   19.4930   31.7380 N   0  0  0  0  0  0  0  0  0  0  0  0
   37.1850   20.5250   31.9890 N   0  0  0  0  0  0  0  0  0  0  0  0
   36.5710   18.6420   30.5860 C   0  0  0  0  0  0  0  0  0  0  0  0
   36.6030   19.0500   29.2640 C   0  0  0  0  0  0  0  0  0  0  0  0
   36.7370   18.1580   28.2640 C   0  0  0  0  0  0  0  0  0  0  0  0
   36.8470   16.7300   28.6350 C   0  0  0  0  0  0  0  0  0  0  0  0
   36.7370   16.8330   30.5230 S   0  0  0  0  0  0  0  0  0  0  0  0
   38.3750   22.1740   34.6250 C   0  0  0  0  0  0  0  0  0  0  0  0
   39.3240   21.7560   33.9210 O   0  0  0  0  0  0  0  0  0  0  0  0
   39.9320   22.7850   37.8310 C   0  0  0  0  0  0  0  0  0  0  0  0
   38.9290   23.3110   38.6260 C   0  0  0  0  0  0  0  0  0  0  0  0
   37.6730   23.4570   38.0260 C   0  0  0  0  0  0  0  0  0  0  0  0
   37.4670   23.0940   36.7240 N   0  0  0  0  0  0  0  0  0  0  0  0
   38.5230   22.5800   36.0110 C   0  0  0  0  0  0  0  0  0  0  0  0
   39.7390   22.4300   36.5640 N   0  0  0  0  0  0  0  0  0  0  0  0
   35.1497   20.5378   34.5409 H   0  0  0  0  0  0  0  0  0  0  0  0
   34.7222   18.5557   32.7880 H   0  0  0  0  0  0  0  0  0  0  0  0
   36.5176   20.1206   29.0261 H   0  0  0  0  0  0  0  0  0  0  0  0
   36.7636   18.4787   27.2121 H   0  0  0  0  0  0  0  0  0  0  0  0
   36.9617   15.8471   27.9890 H   0  0  0  0  0  0  0  0  0  0  0  0
   40.9337   22.6547   38.2664 H   0  0  0  0  0  0  0  0  0  0  0  0
   39.1090   23.5987   39.6724 H   0  0  0  0  0  0  0  0  0  0  0  0
   36.8383   23.8704   38.6112 H   0  0  0  0  0  0  0  0  0  0  0  0
  1 12  1  0
  2  3  1  0
  2  1  1  0
  4  3  2  0
  5  6  1  0
  5  4  1  0
  6  2  2  0
  7  5  1  0
  8  7  2  0
  9 10  2  0
  9  8  1  0
 10 11  1  0
 11  7  1  0
 12 18  1  0
 13 12  2  0
 14 15  2  0
 16 15  1  0
 17 16  2  0
 18 19  2  0
 18 17  1  0
 19 14  1  0
  3 20  1  0
  4 21  1  0
  8 22  1  0
  9 23  1  0
 10 24  1  0
 14 25  1  0
 15 26  1  0
 16 27  1  0
M  ISO  8  20  14  21  14  22  14  23  14  24  14  25  14  26  14  27  14
M  END
>  <minimizedAffinity>  (1) 
-4.61367559

>  <minimizedRMSD>  (1) 
2.79632425

$$$$
