
     RDKit          3D

 32 33  0  0  0  0  0  0  0  0999 V2000
   36.8010   21.5500   34.3150 O   0  0  0  0  0  0  0  0  0  0  0  0
   36.6760   20.9330   33.0850 C   0  0  0  0  0  0  0  0  0  0  0  0
   35.7150   21.3750   32.2180 C   0  0  0  0  0  0  0  0  0  0  0  0
   35.7860   20.6110   31.0690 C   0  0  0  0  0  0  0  0  0  0  0  0
   36.7880   19.7270   31.2680 N   0  0  0  0  0  0  0  0  0  0  0  0
   37.3050   19.9200   32.4460 N   0  0  0  0  0  0  0  0  0  0  0  0
   37.1880   18.7400   30.2930 C   0  0  0  0  0  0  0  0  0  0  0  0
   36.6320   19.0190   28.9270 C   0  0  0  0  0  0  0  0  0  0  0  0
   36.7460   17.3580   30.7180 C   0  0  0  0  0  0  0  0  0  0  0  0
   38.7020   18.6760   30.1510 C   0  0  0  0  0  0  0  0  0  0  0  0
   37.9170   22.2730   34.6700 C   0  0  0  0  0  0  0  0  0  0  0  0
   38.5750   22.6030   33.6540 O   0  0  0  0  0  0  0  0  0  0  0  0
   39.9900   22.6730   37.6000 C   0  0  0  0  0  0  0  0  0  0  0  0
   39.1450   23.2330   38.5540 C   0  0  0  0  0  0  0  0  0  0  0  0
   37.8240   23.4760   38.1660 C   0  0  0  0  0  0  0  0  0  0  0  0
   37.4060   23.1640   36.8900 N   0  0  0  0  0  0  0  0  0  0  0  0
   38.3000   22.6180   36.0150 C   0  0  0  0  0  0  0  0  0  0  0  0
   39.5540   22.3860   36.3780 N   0  0  0  0  0  0  0  0  0  0  0  0
   35.0077   22.1968   32.4034 H   0  0  0  0  0  0  0  0  0  0  0  0
   35.1543   20.7038   30.1732 H   0  0  0  0  0  0  0  0  0  0  0  0
   35.6526   19.5105   29.0231 H   0  0  0  0  0  0  0  0  0  0  0  0
   37.3208   19.6782   28.3784 H   0  0  0  0  0  0  0  0  0  0  0  0
   36.5151   18.0728   28.3784 H   0  0  0  0  0  0  0  0  0  0  0  0
   36.7276   17.3005   31.8163 H   0  0  0  0  0  0  0  0  0  0  0  0
   35.7389   17.1576   30.3234 H   0  0  0  0  0  0  0  0  0  0  0  0
   37.4499   16.6104   30.3234 H   0  0  0  0  0  0  0  0  0  0  0  0
   39.1634   18.6565   31.1494 H   0  0  0  0  0  0  0  0  0  0  0  0
   38.9805   17.7653   29.6005 H   0  0  0  0  0  0  0  0  0  0  0  0
   39.0563   19.5600   29.6005 H   0  0  0  0  0  0  0  0  0  0  0  0
   41.0376   22.4643   37.8625 H   0  0  0  0  0  0  0  0  0  0  0  0
   39.5004   23.4734   39.5669 H   0  0  0  0  0  0  0  0  0  0  0  0
   37.1153   23.9180   38.8819 H   0  0  0  0  0  0  0  0  0  0  0  0
  1 11  1  0
  2  1  1  0
  3  2  1  0
  4  5  1  0
  4  3  2  0
  5  6  1  0
  6  2  2  0
  7  9  1  0
  7  5  1  0
  8  7  1  0
 10  7  1  0
 11 17  1  0
 12 11  2  0
 13 14  2  0
 15 14  1  0
 16 15  2  0
 17 18  2  0
 17 16  1  0
 18 13  1  0
  3 19  1  0
  4 20  1  0
  8 21  1  0
  8 22  1  0
  8 23  1  0
  9 24  1  0
  9 25  1  0
  9 26  1  0
 10 27  1  0
 10 28  1  0
 10 29  1  0
 13 30  1  0
 14 31  1  0
 15 32  1  0
M  ISO  8  19  14  20  14  21   8  22   8  23   8  24   8  25   8  26   8
M  ISO  6  27   8  28   8  29   8  30  14  31  14  32  14
M  END
>  <minimizedAffinity>  (1) 
-4.10883474

>  <minimizedRMSD>  (1) 
2.44846416

$$$$
