
     RDKit          3D

 37 40  0  0  1  0  0  0  0  0999 V2000
   37.3100   23.1040   32.7710 C   0  0  0  0  0  0  0  0  0  0  0  0
   36.7600   23.4480   31.5670 C   0  0  0  0  0  0  0  0  0  0  0  0
   35.8010   22.5010   31.2580 C   0  0  0  0  0  0  0  0  0  0  0  0
   35.7870   21.6120   32.2650 N   0  0  0  0  0  0  0  0  0  0  0  0
   36.6630   21.9680   33.1370 N   0  0  0  0  0  0  0  0  0  0  0  0
   34.9340   20.4580   32.3500 C   0  0  2  0  0  0  0  0  0  0  0  0
   35.3330   19.3300   33.2520 C   0  0  0  0  0  0  0  0  0  0  0  0
   35.4790   19.1080   31.8200 C   0  0  2  0  0  0  0  0  0  0  0  0
   36.7350   19.1930   31.0770 C   0  0  0  0  0  0  0  0  0  0  0  0
   36.6190   19.2640   29.6850 C   0  0  0  0  0  0  0  0  0  0  0  0
   37.6840   19.3300   28.8170 C   0  0  0  0  0  0  0  0  0  0  0  0
   38.9680   19.3320   29.3030 C   0  0  0  0  0  0  0  0  0  0  0  0
   39.0950   19.2620   30.6750 C   0  0  0  0  0  0  0  0  0  0  0  0
   38.0510   19.1960   31.5550 C   0  0  0  0  0  0  0  0  0  0  0  0
   38.3080   23.8970   33.3170 O   0  0  0  0  0  0  0  0  0  0  0  0
   39.1940   23.3910   34.2540 C   0  0  0  0  0  0  0  0  0  0  0  0
   40.2100   22.8980   33.7150 O   0  0  0  0  0  0  0  0  0  0  0  0
   39.7820   22.7950   37.7850 C   0  0  0  0  0  0  0  0  0  0  0  0
   38.7020   23.4150   38.4180 C   0  0  0  0  0  0  0  0  0  0  0  0
   37.7640   24.0440   37.6090 C   0  0  0  0  0  0  0  0  0  0  0  0
   37.9270   24.0340   36.2530 N   0  0  0  0  0  0  0  0  0  0  0  0
   39.0010   23.4140   35.6940 C   0  0  0  0  0  0  0  0  0  0  0  0
   39.9030   22.8090   36.4610 N   0  0  0  0  0  0  0  0  0  0  0  0
   37.0316   24.3207   30.9548 H   0  0  0  0  0  0  0  0  0  0  0  0
   35.1691   22.4796   30.3579 H   0  0  0  0  0  0  0  0  0  0  0  0
   34.0320   21.0696   32.2005 H   0  0  0  0  0  0  0  0  0  0  0  0
   36.2318   19.4302   33.8782 H   0  0  0  0  0  0  0  0  0  0  0  0
   34.8180   18.7831   34.0556 H   0  0  0  0  0  0  0  0  0  0  0  0
   35.1626   18.2673   31.1851 H   0  0  0  0  0  0  0  0  0  0  0  0
   35.6066   19.2673   29.2548 H   0  0  0  0  0  0  0  0  0  0  0  0
   37.5068   19.3812   27.7326 H   0  0  0  0  0  0  0  0  0  0  0  0
   39.8429   19.3862   28.6385 H   0  0  0  0  0  0  0  0  0  0  0  0
   40.1128   19.2591   31.0921 H   0  0  0  0  0  0  0  0  0  0  0  0
   38.2445   19.1453   32.6367 H   0  0  0  0  0  0  0  0  0  0  0  0
   40.5453   22.2865   38.3923 H   0  0  0  0  0  0  0  0  0  0  0  0
   38.5984   23.4055   39.5131 H   0  0  0  0  0  0  0  0  0  0  0  0
   36.8950   24.5472   38.0580 H   0  0  0  0  0  0  0  0  0  0  0  0
  1  5  2  0
  1 15  1  0
  2  1  1  0
  3  2  2  0
  3  4  1  0
  4  6  1  0
  4  5  1  0
  6  7  1  0
  8  6  1  0
  8  7  1  0
  9 14  1  0
  9  8  1  0
 10  9  2  0
 11 12  2  0
 11 10  1  0
 12 13  1  0
 13 14  2  0
 15 16  1  0
 16 22  1  0
 17 16  2  0
 18 19  2  0
 20 19  1  0
 21 20  2  0
 22 21  1  0
 22 23  2  0
 23 18  1  0
  2 24  1  0
  3 25  1  0
  6 26  1  6
  7 27  1  0
  7 28  1  0
  8 29  1  6
 10 30  1  0
 11 31  1  0
 12 32  1  0
 13 33  1  0
 14 34  1  0
 18 35  1  0
 19 36  1  0
 20 37  1  0
M  ISO  8  24  14  25  14  26  13  27  13  28  13  29  13  30  14  31  14
M  ISO  6  32  14  33  14  34  14  35  14  36  14  37  14
M  END
>  <minimizedAffinity>  (1) 
-4.92918587

>  <minimizedRMSD>  (1) 
2.5654304

$$$$
