
     RDKit          3D

 25 26  0  0  0  0  0  0  0  0999 V2000
   40.5020   22.4860   37.6980 C   0  0  0  0  0  0  0  0  0  0  0  0
   39.2640   23.0940   37.4460 C   0  0  0  0  0  0  0  0  0  0  0  0
   38.8220   23.1360   36.1140 C   0  0  0  0  0  0  0  0  0  0  0  0
   39.6060   22.5920   35.1430 N   0  0  0  0  0  0  0  0  0  0  0  0
   40.8070   22.0110   35.4480 C   0  0  0  0  0  0  0  0  0  0  0  0
   41.2290   21.9690   36.7130 N   0  0  0  0  0  0  0  0  0  0  0  0
   41.5830   21.4590   34.3920 N   0  0  0  0  0  0  0  0  0  0  0  0
   41.0470   21.1880   33.0540 C   0  0  0  0  0  0  0  0  0  0  0  0
   42.1050   20.3000   32.4310 C   0  0  0  0  0  0  0  0  0  0  0  0
   43.3790   20.8870   33.0460 C   0  0  0  0  0  0  0  0  0  0  0  0
   42.9720   21.0930   34.4780 C   0  0  0  0  0  0  0  0  0  0  0  0
   38.3990   23.6930   38.5010 C   0  0  0  0  0  0  0  0  0  0  0  0
   39.2010   23.8680   39.6230 F   0  0  0  0  0  0  0  0  0  0  0  0
   37.3630   22.8970   38.8510 F   0  0  0  0  0  0  0  0  0  0  0  0
   37.9960   24.9880   38.1420 F   0  0  0  0  0  0  0  0  0  0  0  0
   40.8786   22.4360   38.7303 H   0  0  0  0  0  0  0  0  0  0  0  0
   37.8581   23.6008   35.8592 H   0  0  0  0  0  0  0  0  0  0  0  0
   40.0802   20.6669   33.1144 H   0  0  0  0  0  0  0  0  0  0  0  0
   40.8540   22.1020   32.4731 H   0  0  0  0  0  0  0  0  0  0  0  0
   42.1094   20.3855   31.3343 H   0  0  0  0  0  0  0  0  0  0  0  0
   41.9638   19.2256   32.6201 H   0  0  0  0  0  0  0  0  0  0  0  0
   44.2209   20.1834   32.9676 H   0  0  0  0  0  0  0  0  0  0  0  0
   43.7281   21.8041   32.5490 H   0  0  0  0  0  0  0  0  0  0  0  0
   43.5613   21.8984   34.9407 H   0  0  0  0  0  0  0  0  0  0  0  0
   43.1387   20.2009   35.0997 H   0  0  0  0  0  0  0  0  0  0  0  0
  2  1  2  0
  2 12  1  0
  3  2  1  0
  4  5  1  0
  4  3  2  0
  5  6  2  0
  6  1  1  0
  7 11  1  0
  7  5  1  0
  8  7  1  0
  9 10  1  0
  9  8  1  0
 10 11  1  0
 12 14  1  0
 12 13  1  0
 15 12  1  0
  1 16  1  0
  3 17  1  0
  8 18  1  0
  8 19  1  0
  9 20  1  0
  9 21  1  0
 10 22  1  0
 10 23  1  0
 11 24  1  0
 11 25  1  0
M  ISO  8  16  14  17  14  18  13  19  13  20  13  21  13  22  13  23  13
M  ISO  2  24  13  25  13
M  END
>  <minimizedAffinity>  (1) 
-4.12748289

>  <minimizedRMSD>  (1) 
0.101905264

$$$$
