
     RDKit          3D

 34 37  0  0  1  0  0  0  0  0999 V2000
   37.2810   23.1570   32.8020 C   0  0  0  0  0  0  0  0  0  0  0  0
   36.6430   23.6030   31.6590 C   0  0  0  0  0  0  0  0  0  0  0  0
   35.6870   22.6750   31.3220 C   0  0  0  0  0  0  0  0  0  0  0  0
   35.7680   21.6920   32.2610 N   0  0  0  0  0  0  0  0  0  0  0  0
   36.7030   21.9690   33.1350 N   0  0  0  0  0  0  0  0  0  0  0  0
   34.9340   20.5050   32.2900 C   0  0  2  0  0  0  0  0  0  0  0  0
   35.4220   19.3200   33.0610 C   0  0  0  0  0  0  0  0  0  0  0  0
   35.4150   19.2650   31.5740 C   0  0  2  0  0  0  0  0  0  0  0  0
   36.7390   19.1890   30.9230 C   0  0  0  0  0  0  0  0  0  0  0  0
   36.6930   19.2460   29.3920 C   0  0  0  0  0  0  0  0  0  0  0  0
   36.9200   17.9260   30.0420 C   0  0  0  0  0  0  0  0  0  0  0  0
   38.3010   23.9220   33.3560 O   0  0  0  0  0  0  0  0  0  0  0  0
   39.1690   23.3890   34.2990 C   0  0  0  0  0  0  0  0  0  0  0  0
   40.1620   22.8600   33.7490 O   0  0  0  0  0  0  0  0  0  0  0  0
   39.7500   22.8260   37.8260 C   0  0  0  0  0  0  0  0  0  0  0  0
   38.6950   23.4430   38.4640 C   0  0  0  0  0  0  0  0  0  0  0  0
   37.7540   24.0740   37.6400 C   0  0  0  0  0  0  0  0  0  0  0  0
   37.8990   24.0630   36.2840 N   0  0  0  0  0  0  0  0  0  0  0  0
   38.9810   23.4230   35.7350 C   0  0  0  0  0  0  0  0  0  0  0  0
   39.8800   22.8210   36.5000 N   0  0  0  0  0  0  0  0  0  0  0  0
   36.8617   24.5345   31.1163 H   0  0  0  0  0  0  0  0  0  0  0  0
   34.9963   22.7176   30.4670 H   0  0  0  0  0  0  0  0  0  0  0  0
   34.0127   21.1057   32.2737 H   0  0  0  0  0  0  0  0  0  0  0  0
   36.3779   19.3748   33.6025 H   0  0  0  0  0  0  0  0  0  0  0  0
   35.0018   18.6911   33.8597 H   0  0  0  0  0  0  0  0  0  0  0  0
   34.9682   18.6463   30.7818 H   0  0  0  0  0  0  0  0  0  0  0  0
   37.3078   19.6991   31.7144 H   0  0  0  0  0  0  0  0  0  0  0  0
   37.5121   19.7297   28.8396 H   0  0  0  0  0  0  0  0  0  0  0  0
   35.9655   19.6259   28.6596 H   0  0  0  0  0  0  0  0  0  0  0  0
   36.1324   17.1586   30.0150 H   0  0  0  0  0  0  0  0  0  0  0  0
   37.6884   17.1433   29.9585 H   0  0  0  0  0  0  0  0  0  0  0  0
   40.5131   22.3188   38.4346 H   0  0  0  0  0  0  0  0  0  0  0  0
   38.5975   23.4400   39.5597 H   0  0  0  0  0  0  0  0  0  0  0  0
   36.8897   24.5833   38.0912 H   0  0  0  0  0  0  0  0  0  0  0  0
  1  5  2  0
  1 12  1  0
  2  1  1  0
  3  2  2  0
  3  4  1  0
  4  6  1  0
  4  5  1  0
  6  7  1  0
  8  6  1  0
  8  7  1  0
  9  8  1  0
 10 11  1  0
 10  9  1  0
 11  9  1  0
 12 13  1  0
 13 19  1  0
 14 13  2  0
 15 16  2  0
 17 16  1  0
 18 17  2  0
 19 18  1  0
 19 20  2  0
 20 15  1  0
  2 21  1  0
  3 22  1  0
  6 23  1  1
  7 24  1  0
  7 25  1  0
  8 26  1  1
  9 27  1  0
 10 28  1  0
 10 29  1  0
 11 30  1  0
 11 31  1  0
 15 32  1  0
 16 33  1  0
 17 34  1  0
M  ISO  8  21  14  22  14  23  13  24  13  25  13  26  13  27  13  28  13
M  ISO  6  29  13  30  13  31  13  32  14  33  14  34  14
M  END
>  <minimizedAffinity>  (1) 
-4.69772291

>  <minimizedRMSD>  (1) 
2.15697622

$$$$
