
     RDKit          3D

 42 45  0  0  1  0  0  0  0  0999 V2000
   36.9570   21.2030   33.3190 C   0  0  0  0  0  0  0  0  0  0  0  0
   35.7930   20.7940   33.9110 C   0  0  0  0  0  0  0  0  0  0  0  0
   35.3860   19.6220   33.2850 C   0  0  0  0  0  0  0  0  0  0  0  0
   36.3080   19.3570   32.3410 N   0  0  0  0  0  0  0  0  0  0  0  0
   37.2270   20.2700   32.3510 N   0  0  0  0  0  0  0  0  0  0  0  0
   36.2630   18.2220   31.4560 C   0  0  2  0  0  0  0  0  0  0  0  0
   37.5120   17.3890   31.3000 C   0  0  0  0  0  0  0  0  0  0  0  0
   37.1540   18.2760   30.1940 C   0  0  1  0  0  0  0  0  0  0  0  0
   36.5460   17.8800   28.9660 N   0  0  0  0  0  0  0  0  0  0  0  0
   36.5390   18.8450   27.9190 C   0  0  0  0  0  0  0  0  0  0  0  0
   36.9820   18.3150   26.5940 C   0  0  0  0  0  0  0  0  0  0  0  0
   36.2100   17.0910   26.1610 C   0  0  0  0  0  0  0  0  0  0  0  0
   36.0800   16.1760   27.3510 C   0  0  0  0  0  0  0  0  0  0  0  0
   37.0330   16.6220   28.4460 C   0  0  0  0  0  0  0  0  0  0  0  0
   37.5770   22.3610   33.7660 O   0  0  0  0  0  0  0  0  0  0  0  0
   38.6880   22.2930   34.6020 C   0  0  0  0  0  0  0  0  0  0  0  0
   39.7070   21.8530   34.0060 O   0  0  0  0  0  0  0  0  0  0  0  0
   39.9020   22.8580   37.9660 C   0  0  0  0  0  0  0  0  0  0  0  0
   38.8240   23.3800   38.6590 C   0  0  0  0  0  0  0  0  0  0  0  0
   37.6500   23.5350   37.9250 C   0  0  0  0  0  0  0  0  0  0  0  0
   37.5990   23.1840   36.6070 N   0  0  0  0  0  0  0  0  0  0  0  0
   38.7010   22.6780   36.0020 C   0  0  0  0  0  0  0  0  0  0  0  0
   39.8270   22.5250   36.6870 N   0  0  0  0  0  0  0  0  0  0  0  0
   35.2722   21.3025   34.7357 H   0  0  0  0  0  0  0  0  0  0  0  0
   34.4887   19.0288   33.5152 H   0  0  0  0  0  0  0  0  0  0  0  0
   35.2050   18.0220   31.6810 H   0  0  0  0  0  0  0  0  0  0  0  0
   38.3961   17.6167   31.9137 H   0  0  0  0  0  0  0  0  0  0  0  0
   37.7238   16.3122   31.3750 H   0  0  0  0  0  0  0  0  0  0  0  0
   37.7547   19.0046   29.6298 H   0  0  0  0  0  0  0  0  0  0  0  0
   35.5141   19.2297   27.8114 H   0  0  0  0  0  0  0  0  0  0  0  0
   37.2597   19.6256   28.2040 H   0  0  0  0  0  0  0  0  0  0  0  0
   36.8447   19.1019   25.8378 H   0  0  0  0  0  0  0  0  0  0  0  0
   38.0373   18.0210   26.6929 H   0  0  0  0  0  0  0  0  0  0  0  0
   35.2114   17.3859   25.8063 H   0  0  0  0  0  0  0  0  0  0  0  0
   36.7351   16.5788   25.3413 H   0  0  0  0  0  0  0  0  0  0  0  0
   35.0473   16.2113   27.7283 H   0  0  0  0  0  0  0  0  0  0  0  0
   36.3279   15.1478   27.0488 H   0  0  0  0  0  0  0  0  0  0  0  0
   37.0601   15.8701   29.2484 H   0  0  0  0  0  0  0  0  0  0  0  0
   38.0515   16.7381   28.0470 H   0  0  0  0  0  0  0  0  0  0  0  0
   40.8548   22.7147   38.4966 H   0  0  0  0  0  0  0  0  0  0  0  0
   38.8898   23.6551   39.7220 H   0  0  0  0  0  0  0  0  0  0  0  0
   36.7537   23.9450   38.4134 H   0  0  0  0  0  0  0  0  0  0  0  0
  1 15  1  0
  1  2  1  0
  3  2  2  0
  4  5  1  0
  4  3  1  0
  5  1  2  0
  6  4  1  0
  7  6  1  0
  8  7  1  0
  8  6  1  0
  9  8  1  0
 10  9  1  0
 11 10  1  0
 12 11  1  0
 12 13  1  0
 13 14  1  0
 14  9  1  0
 15 16  1  0
 16 22  1  0
 17 16  2  0
 18 19  2  0
 20 19  1  0
 21 20  2  0
 22 21  1  0
 22 23  2  0
 23 18  1  0
  2 24  1  0
  3 25  1  0
  6 26  1  6
  7 27  1  0
  7 28  1  0
  8 29  1  6
 10 30  1  0
 10 31  1  0
 11 32  1  0
 11 33  1  0
 12 34  1  0
 12 35  1  0
 13 36  1  0
 13 37  1  0
 14 38  1  0
 14 39  1  0
 18 40  1  0
 19 41  1  0
 20 42  1  0
M  ISO  8  24  14  25  14  26  13  27  13  28  13  29  13  30  13  31  13
M  ISO  8  32  13  33  13  34  13  35  13  36  13  37  13  38  13  39  13
M  ISO  3  40  14  41  14  42  14
M  END
>  <minimizedAffinity>  (1) 
-4.62233973

>  <minimizedRMSD>  (1) 
0.944539309

$$$$
