
     RDKit          3D

 20 21  0  0  0  0  0  0  0  0999 V2000
   40.4990   22.4740   37.6910 C   0  0  0  0  0  0  0  0  0  0  0  0
   39.2570   23.0970   37.4430 C   0  0  0  0  0  0  0  0  0  0  0  0
   38.8070   23.1550   36.1140 C   0  0  0  0  0  0  0  0  0  0  0  0
   39.5920   22.6090   35.1470 N   0  0  0  0  0  0  0  0  0  0  0  0
   40.7810   22.0200   35.4320 C   0  0  0  0  0  0  0  0  0  0  0  0
   41.2170   21.9590   36.6840 N   0  0  0  0  0  0  0  0  0  0  0  0
   41.4560   21.5090   34.2880 N   0  0  0  0  0  0  0  0  0  0  0  0
   42.7500   21.2570   34.3700 N   0  0  0  0  0  0  0  0  0  0  0  0
   43.1930   20.7790   33.1780 C   0  0  0  0  0  0  0  0  0  0  0  0
   42.0700   20.7620   32.3700 C   0  0  0  0  0  0  0  0  0  0  0  0
   40.9640   21.2250   33.0710 C   0  0  0  0  0  0  0  0  0  0  0  0
   38.3940   23.6960   38.5080 C   0  0  0  0  0  0  0  0  0  0  0  0
   39.2180   23.8610   39.6230 F   0  0  0  0  0  0  0  0  0  0  0  0
   37.3570   22.8920   38.8480 F   0  0  0  0  0  0  0  0  0  0  0  0
   37.9920   24.9880   38.1610 F   0  0  0  0  0  0  0  0  0  0  0  0
   40.8809   22.4107   38.7206 H   0  0  0  0  0  0  0  0  0  0  0  0
   37.8467   23.6287   35.8623 H   0  0  0  0  0  0  0  0  0  0  0  0
   44.2163   20.4736   32.9141 H   0  0  0  0  0  0  0  0  0  0  0  0
   42.0552   20.4292   31.3217 H   0  0  0  0  0  0  0  0  0  0  0  0
   39.9293   21.3335   32.7138 H   0  0  0  0  0  0  0  0  0  0  0  0
  2  1  2  0
  2 12  1  0
  3  2  1  0
  4  5  1  0
  4  3  2  0
  5  6  2  0
  6  1  1  0
  7  8  1  0
  7  5  1  0
  9  8  2  0
 10 11  2  0
 10  9  1  0
 11  7  1  0
 12 14  1  0
 12 13  1  0
 15 12  1  0
  1 16  1  0
  3 17  1  0
  9 18  1  0
 10 19  1  0
 11 20  1  0
M  ISO  5  16  14  17  14  18  14  19  14  20  14
M  END
>  <minimizedAffinity>  (1) 
-4.1227951

>  <minimizedRMSD>  (1) 
0.0714914724

$$$$
