
     RDKit          3D

 40 43  0  0  1  0  0  0  0  0999 V2000
   35.7480   21.5870   31.6430 C   0  0  0  0  0  0  0  0  0  0  0  0
   34.9260   20.6790   32.2730 C   0  0  0  0  0  0  0  0  0  0  0  0
   35.1840   19.4430   31.7140 C   0  0  0  0  0  0  0  0  0  0  0  0
   36.1420   19.6250   30.7740 N   0  0  0  0  0  0  0  0  0  0  0  0
   36.4780   20.8780   30.7260 N   0  0  0  0  0  0  0  0  0  0  0  0
   36.7000   18.5750   29.9510 C   0  0  2  0  0  0  0  0  0  0  0  0
   38.0000   18.8290   29.2690 C   0  0  0  0  0  0  0  0  0  0  0  0
   36.7700   18.8110   28.4490 C   0  0  1  0  0  0  0  0  0  0  0  0
   36.3720   17.6160   27.6270 C   0  0  0  0  0  0  0  0  0  0  0  0
   35.8050   18.0000   26.2740 C   0  0  0  0  0  0  0  0  0  0  0  0
   35.6900   22.9170   32.0180 O   0  0  0  0  0  0  0  0  0  0  0  0
   36.8180   23.7280   31.9510 C   0  0  0  0  0  0  0  0  0  0  0  0
   36.7680   24.5300   30.9850 O   0  0  0  0  0  0  0  0  0  0  0  0
   40.2200   23.5150   33.1580 C   0  0  0  0  0  0  0  0  0  0  0  0
   40.1150   23.5630   34.5490 C   0  0  0  0  0  0  0  0  0  0  0  0
   38.8290   23.6720   35.0520 C   0  0  0  0  0  0  0  0  0  0  0  0
   37.7500   23.7270   34.2430 N   0  0  0  0  0  0  0  0  0  0  0  0
   37.9310   23.6740   32.8760 C   0  0  0  0  0  0  0  0  0  0  0  0
   39.1490   23.5700   32.3700 N   0  0  0  0  0  0  0  0  0  0  0  0
   38.6320   23.7290   36.4950 C   0  0  0  0  0  0  0  0  0  0  0  0
   37.9750   24.7130   37.2020 C   0  0  0  0  0  0  0  0  0  0  0  0
   38.0000   24.4170   38.5140 N   0  0  0  0  0  0  0  0  0  0  0  0
   38.6740   23.2450   38.6340 C   0  0  0  0  0  0  0  0  0  0  0  0
   39.0590   22.8260   37.3960 N   0  0  0  0  0  0  0  0  0  0  0  0
   34.2009   20.8972   33.0708 H   0  0  0  0  0  0  0  0  0  0  0  0
   34.7026   18.4908   31.9815 H   0  0  0  0  0  0  0  0  0  0  0  0
   36.3009   17.7872   30.6068 H   0  0  0  0  0  0  0  0  0  0  0  0
   38.5283   19.7788   29.4387 H   0  0  0  0  0  0  0  0  0  0  0  0
   38.9606   18.2949   29.2240 H   0  0  0  0  0  0  0  0  0  0  0  0
   36.3780   19.5158   27.7009 H   0  0  0  0  0  0  0  0  0  0  0  0
   37.2593   16.9849   27.4706 H   0  0  0  0  0  0  0  0  0  0  0  0
   35.5846   17.0807   28.1779 H   0  0  0  0  0  0  0  0  0  0  0  0
   34.9018   18.6117   26.4152 H   0  0  0  0  0  0  0  0  0  0  0  0
   36.5546   18.5771   25.7127 H   0  0  0  0  0  0  0  0  0  0  0  0
   35.5473   17.0898   25.7127 H   0  0  0  0  0  0  0  0  0  0  0  0
   41.2165   23.4293   32.7000 H   0  0  0  0  0  0  0  0  0  0  0  0
   40.9974   23.5172   35.2042 H   0  0  0  0  0  0  0  0  0  0  0  0
   37.5029   25.6034   36.7612 H   0  0  0  0  0  0  0  0  0  0  0  0
   38.8767   22.7185   39.5783 H   0  0  0  0  0  0  0  0  0  0  0  0
   39.5860   21.9663   37.1862 H   0  0  0  0  0  0  0  0  0  0  0  0
  1 11  1  0
  1  2  1  0
  3  2  2  0
  4  3  1  0
  5  4  1  0
  5  1  2  0
  6  4  1  0
  7  6  1  0
  8  7  1  0
  8  6  1  0
  9  8  1  0
 10  9  1  0
 12 11  1  0
 12 18  1  0
 13 12  2  0
 14 15  2  0
 15 16  1  0
 16 20  1  0
 17 16  2  0
 18 17  1  0
 19 18  2  0
 19 14  1  0
 20 21  2  0
 20 24  1  0
 21 22  1  0
 22 23  2  0
 24 23  1  0
  2 25  1  0
  3 26  1  0
  6 27  1  6
  7 28  1  0
  7 29  1  0
  8 30  1  1
  9 31  1  0
  9 32  1  0
 10 33  1  0
 10 34  1  0
 10 35  1  0
 14 36  1  0
 15 37  1  0
 21 38  1  0
 23 39  1  0
 24 40  1  0
M  ISO  8  25  14  26  14  27  13  28  13  29  13  30  13  31   8  32   8
M  ISO  8  33   8  34   8  35   8  36  14  37  14  38  14  39  14  40   9
M  END
>  <minimizedAffinity>  (1) 
-4.96445417

>  <minimizedRMSD>  (1) 
2.87679029

$$$$
