
     RDKit          3D

 45 47  0  0  1  0  0  0  0  0999 V2000
   36.1170   22.2190   31.7570 C   0  0  0  0  0  0  0  0  0  0  0  0
   35.0710   21.5400   32.3140 C   0  0  0  0  0  0  0  0  0  0  0  0
   35.1020   20.2450   31.8280 C   0  0  0  0  0  0  0  0  0  0  0  0
   36.1640   20.1720   30.9880 N   0  0  0  0  0  0  0  0  0  0  0  0
   36.7540   21.3110   30.9440 N   0  0  0  0  0  0  0  0  0  0  0  0
   36.5440   18.9760   30.2690 C   0  0  2  0  0  0  0  0  0  0  0  0
   37.9860   18.8080   29.9070 C   0  0  0  0  0  0  0  0  0  0  0  0
   37.0320   19.1630   28.8240 C   0  0  1  0  0  0  0  0  0  0  0  0
   36.4910   18.1310   27.8740 C   0  0  0  0  0  0  0  0  0  0  0  0
   36.0320   18.7350   26.5630 C   0  0  0  0  0  0  0  0  0  0  0  0
   36.3190   23.5460   32.0780 O   0  0  0  0  0  0  0  0  0  0  0  0
   37.5830   24.0940   32.1200 C   0  0  0  0  0  0  0  0  0  0  0  0
   37.8860   24.6720   31.0430 O   0  0  0  0  0  0  0  0  0  0  0  0
   40.6610   24.1880   34.0340 C   0  0  0  0  0  0  0  0  0  0  0  0
   40.2710   23.9390   35.3460 C   0  0  0  0  0  0  0  0  0  0  0  0
   38.9110   23.7390   35.5500 C   0  0  0  0  0  0  0  0  0  0  0  0
   38.0220   23.7850   34.5170 N   0  0  0  0  0  0  0  0  0  0  0  0
   38.4940   24.0360   33.2460 C   0  0  0  0  0  0  0  0  0  0  0  0
   39.7740   24.2280   33.0370 N   0  0  0  0  0  0  0  0  0  0  0  0
   38.4160   23.4680   36.9230 C   0  0  0  0  0  0  0  0  0  0  0  0
   39.5360   22.9240   37.7520 C   0  0  0  0  0  0  0  0  0  0  0  0
   37.1730   22.6230   36.9390 C   0  0  0  0  0  0  0  0  0  0  0  0
   38.0260   24.8060   37.5530 C   0  0  0  0  0  0  0  0  0  0  0  0
   34.3356   21.9494   33.0222 H   0  0  0  0  0  0  0  0  0  0  0  0
   34.4019   19.4332   32.0748 H   0  0  0  0  0  0  0  0  0  0  0  0
   35.7897   18.3567   30.7764 H   0  0  0  0  0  0  0  0  0  0  0  0
   38.7229   19.5501   30.2481 H   0  0  0  0  0  0  0  0  0  0  0  0
   38.7214   18.0019   30.0458 H   0  0  0  0  0  0  0  0  0  0  0  0
   37.0585   19.9443   28.0501 H   0  0  0  0  0  0  0  0  0  0  0  0
   37.2809   17.3943   27.6658 H   0  0  0  0  0  0  0  0  0  0  0  0
   35.6173   17.6625   28.3507 H   0  0  0  0  0  0  0  0  0  0  0  0
   35.3778   19.5959   26.7651 H   0  0  0  0  0  0  0  0  0  0  0  0
   36.9075   19.0673   25.9859 H   0  0  0  0  0  0  0  0  0  0  0  0
   35.4774   17.9804   25.9859 H   0  0  0  0  0  0  0  0  0  0  0  0
   41.7254   24.3559   33.8129 H   0  0  0  0  0  0  0  0  0  0  0  0
   40.9959   23.9026   36.1726 H   0  0  0  0  0  0  0  0  0  0  0  0
   39.2935   23.0418   38.8185 H   0  0  0  0  0  0  0  0  0  0  0  0
   39.6766   21.8572   37.5236 H   0  0  0  0  0  0  0  0  0  0  0  0
   40.4614   23.4730   37.5236 H   0  0  0  0  0  0  0  0  0  0  0  0
   36.8789   22.4231   37.9799 H   0  0  0  0  0  0  0  0  0  0  0  0
   36.3603   23.1565   36.4244 H   0  0  0  0  0  0  0  0  0  0  0  0
   37.3702   21.6710   36.4244 H   0  0  0  0  0  0  0  0  0  0  0  0
   38.0520   24.7166   38.6491 H   0  0  0  0  0  0  0  0  0  0  0  0
   38.7350   25.5832   37.2315 H   0  0  0  0  0  0  0  0  0  0  0  0
   37.0105   25.0805   37.2315 H   0  0  0  0  0  0  0  0  0  0  0  0
  1 11  1  0
  1  2  1  0
  3  2  2  0
  4  3  1  0
  5  4  1  0
  5  1  2  0
  6  4  1  0
  7  6  1  0
  8  7  1  0
  8  6  1  0
  9  8  1  0
 10  9  1  0
 11 12  1  0
 12 18  1  0
 13 12  2  0
 14 15  2  0
 15 16  1  0
 16 20  1  0
 17 16  2  0
 18 17  1  0
 19 18  2  0
 19 14  1  0
 20 22  1  0
 20 23  1  0
 20 21  1  0
  2 24  1  0
  3 25  1  0
  6 26  1  6
  7 27  1  0
  7 28  1  0
  8 29  1  6
  9 30  1  0
  9 31  1  0
 10 32  1  0
 10 33  1  0
 10 34  1  0
 14 35  1  0
 15 36  1  0
 21 37  1  0
 21 38  1  0
 21 39  1  0
 22 40  1  0
 22 41  1  0
 22 42  1  0
 23 43  1  0
 23 44  1  0
 23 45  1  0
M  ISO  8  24  14  25  14  26  13  27  13  28  13  29  13  30   8  31   8
M  ISO  8  32   8  33   8  34   8  35  14  36  14  37   8  38   8  39   8
M  ISO  6  40   8  41   8  42   8  43   8  44   8  45   8
M  END
>  <minimizedAffinity>  (1) 
-4.6227355

>  <minimizedRMSD>  (1) 
2.57402205

$$$$
