
     RDKit          3D

 39 41  0  0  1  0  0  0  0  0999 V2000
   36.4260   20.6650   33.2100 C   0  0  0  0  0  0  0  0  0  0  0  0
   35.1270   20.4590   32.7710 C   0  0  0  0  0  0  0  0  0  0  0  0
   35.1990   19.6360   31.6650 C   0  0  0  0  0  0  0  0  0  0  0  0
   36.5180   19.3590   31.4540 N   0  0  0  0  0  0  0  0  0  0  0  0
   37.2190   19.9580   32.3510 N   0  0  0  0  0  0  0  0  0  0  0  0
   37.0120   18.5260   30.3860 C   0  0  2  0  0  0  0  0  0  0  0  0
   38.2480   18.9610   29.6800 C   0  0  0  0  0  0  0  0  0  0  0  0
   36.9500   19.0980   28.9800 C   0  0  1  0  0  0  0  0  0  0  0  0
   36.4790   18.1360   27.9210 C   0  0  0  0  0  0  0  0  0  0  0  0
   36.0810   18.8180   26.6380 C   0  0  0  0  0  0  0  0  0  0  0  0
   36.6420   21.4660   34.3220 O   0  0  0  0  0  0  0  0  0  0  0  0
   37.7100   22.3310   34.3600 C   0  0  0  0  0  0  0  0  0  0  0  0
   37.7800   23.0760   33.3340 O   0  0  0  0  0  0  0  0  0  0  0  0
   40.8530   22.0740   36.1450 C   0  0  0  0  0  0  0  0  0  0  0  0
   40.5760   22.5600   37.4130 C   0  0  0  0  0  0  0  0  0  0  0  0
   39.2760   22.9850   37.6530 C   0  0  0  0  0  0  0  0  0  0  0  0
   38.3430   22.9110   36.6610 N   0  0  0  0  0  0  0  0  0  0  0  0
   38.6790   22.4220   35.4320 C   0  0  0  0  0  0  0  0  0  0  0  0
   39.9110   22.0190   35.2040 N   0  0  0  0  0  0  0  0  0  0  0  0
   38.7700   23.5310   38.9210 C   0  0  0  0  0  0  0  0  0  0  0  0
   37.8610   24.7060   38.6190 C   0  0  0  0  0  0  0  0  0  0  0  0
   34.2119   20.8732   33.2194 H   0  0  0  0  0  0  0  0  0  0  0  0
   34.3514   19.2717   31.0659 H   0  0  0  0  0  0  0  0  0  0  0  0
   36.6796   17.5990   30.8761 H   0  0  0  0  0  0  0  0  0  0  0  0
   38.7825   19.8605   30.0195 H   0  0  0  0  0  0  0  0  0  0  0  0
   39.2051   18.4766   29.4367 H   0  0  0  0  0  0  0  0  0  0  0  0
   36.4884   19.9438   28.4493 H   0  0  0  0  0  0  0  0  0  0  0  0
   37.2929   17.4287   27.7036 H   0  0  0  0  0  0  0  0  0  0  0  0
   35.5857   17.6280   28.3133 H   0  0  0  0  0  0  0  0  0  0  0  0
   35.5390   19.7468   26.8693 H   0  0  0  0  0  0  0  0  0  0  0  0
   36.9824   19.0553   26.0539 H   0  0  0  0  0  0  0  0  0  0  0  0
   35.4310   18.1499   26.0539 H   0  0  0  0  0  0  0  0  0  0  0  0
   41.8702   21.7269   35.9108 H   0  0  0  0  0  0  0  0  0  0  0  0
   41.3501   22.6069   38.1931 H   0  0  0  0  0  0  0  0  0  0  0  0
   38.2050   22.7551   39.4583 H   0  0  0  0  0  0  0  0  0  0  0  0
   39.6114   23.8610   39.5480 H   0  0  0  0  0  0  0  0  0  0  0  0
   37.5147   25.1536   39.5623 H   0  0  0  0  0  0  0  0  0  0  0  0
   38.4147   25.4581   38.0378 H   0  0  0  0  0  0  0  0  0  0  0  0
   36.9940   24.3589   38.0378 H   0  0  0  0  0  0  0  0  0  0  0  0
  1 11  1  0
  2  1  1  0
  3  2  2  0
  4  3  1  0
  4  5  1  0
  5  1  2  0
  6  4  1  0
  7  6  1  0
  8  7  1  0
  8  6  1  0
  9  8  1  0
 10  9  1  0
 11 12  1  0
 12 18  1  0
 13 12  2  0
 14 15  2  0
 15 16  1  0
 16 20  1  0
 17 16  2  0
 18 17  1  0
 19 18  2  0
 19 14  1  0
 21 20  1  0
  2 22  1  0
  3 23  1  0
  6 24  1  6
  7 25  1  0
  7 26  1  0
  8 27  1  1
  9 28  1  0
  9 29  1  0
 10 30  1  0
 10 31  1  0
 10 32  1  0
 14 33  1  0
 15 34  1  0
 20 35  1  0
 20 36  1  0
 21 37  1  0
 21 38  1  0
 21 39  1  0
M  ISO  8  22  14  23  14  24  13  25  13  26  13  27  13  28   8  29   8
M  ISO  8  30   8  31   8  32   8  33  14  34  14  35   8  36   8  37   8
M  ISO  2  38   8  39   8
M  END
>  <minimizedAffinity>  (1) 
-4.61851883

>  <minimizedRMSD>  (1) 
1.21887076

$$$$
