
     RDKit          3D

 35 37  0  0  1  0  0  0  0  0999 V2000
   36.3440   20.6380   33.1300 C   0  0  0  0  0  0  0  0  0  0  0  0
   35.0610   20.5010   32.6650 C   0  0  0  0  0  0  0  0  0  0  0  0
   35.1160   19.6750   31.5680 C   0  0  0  0  0  0  0  0  0  0  0  0
   36.4140   19.3290   31.3870 N   0  0  0  0  0  0  0  0  0  0  0  0
   37.1330   19.8870   32.2960 N   0  0  0  0  0  0  0  0  0  0  0  0
   36.8980   18.4650   30.3340 C   0  0  2  0  0  0  0  0  0  0  0  0
   38.1880   18.8080   29.6830 C   0  0  0  0  0  0  0  0  0  0  0  0
   36.9460   19.0480   28.9170 C   0  0  1  0  0  0  0  0  0  0  0  0
   36.4660   18.1010   27.8480 C   0  0  0  0  0  0  0  0  0  0  0  0
   36.0530   18.8110   26.5910 C   0  0  0  0  0  0  0  0  0  0  0  0
   36.5850   21.4270   34.2430 O   0  0  0  0  0  0  0  0  0  0  0  0
   37.6730   22.2680   34.3080 C   0  0  0  0  0  0  0  0  0  0  0  0
   37.8150   22.9350   33.2410 O   0  0  0  0  0  0  0  0  0  0  0  0
   40.6850   22.0860   36.2940 C   0  0  0  0  0  0  0  0  0  0  0  0
   40.3460   22.6500   37.5100 C   0  0  0  0  0  0  0  0  0  0  0  0
   39.0420   23.1020   37.6350 C   0  0  0  0  0  0  0  0  0  0  0  0
   38.1570   22.9850   36.5990 N   0  0  0  0  0  0  0  0  0  0  0  0
   38.5740   22.4120   35.4280 C   0  0  0  0  0  0  0  0  0  0  0  0
   39.8110   21.9820   35.3020 N   0  0  0  0  0  0  0  0  0  0  0  0
   38.6370   23.7040   38.8950 C   0  0  0  0  0  0  0  0  0  0  0  0
   37.9810   24.7730   38.9370 O   0  0  0  0  0  0  0  0  0  0  0  0
   34.1585   20.9647   33.0898 H   0  0  0  0  0  0  0  0  0  0  0  0
   34.2640   19.3539   30.9508 H   0  0  0  0  0  0  0  0  0  0  0  0
   36.4773   17.5650   30.8062 H   0  0  0  0  0  0  0  0  0  0  0  0
   38.7727   19.6634   30.0523 H   0  0  0  0  0  0  0  0  0  0  0  0
   39.1143   18.2500   29.4814 H   0  0  0  0  0  0  0  0  0  0  0  0
   36.5783   19.9269   28.3671 H   0  0  0  0  0  0  0  0  0  0  0  0
   37.2794   17.4010   27.6063 H   0  0  0  0  0  0  0  0  0  0  0  0
   35.5823   17.5762   28.2400 H   0  0  0  0  0  0  0  0  0  0  0  0
   35.5156   19.7348   26.8514 H   0  0  0  0  0  0  0  0  0  0  0  0
   36.9468   19.0607   26.0004 H   0  0  0  0  0  0  0  0  0  0  0  0
   35.3941   18.1576   26.0004 H   0  0  0  0  0  0  0  0  0  0  0  0
   41.7090   21.7129   36.1451 H   0  0  0  0  0  0  0  0  0  0  0  0
   41.0712   22.7352   38.3327 H   0  0  0  0  0  0  0  0  0  0  0  0
   38.9133   23.2087   39.8375 H   0  0  0  0  0  0  0  0  0  0  0  0
  1 11  1  0
  2  1  1  0
  3  2  2  0
  4  3  1  0
  4  5  1  0
  5  1  2  0
  6  4  1  0
  7  6  1  0
  8  7  1  0
  8  6  1  0
  9  8  1  0
 10  9  1  0
 11 12  1  0
 12 18  1  0
 13 12  2  0
 14 15  2  0
 15 16  1  0
 16 20  1  0
 17 16  2  0
 18 17  1  0
 19 18  2  0
 19 14  1  0
 20 21  2  0
  2 22  1  0
  3 23  1  0
  6 24  1  6
  7 25  1  0
  7 26  1  0
  8 27  1  1
  9 28  1  0
  9 29  1  0
 10 30  1  0
 10 31  1  0
 10 32  1  0
 14 33  1  0
 15 34  1  0
 20 35  1  0
M  ISO  8  22  14  23  14  24  13  25  13  26  13  27  13  28   8  29   8
M  ISO  6  30   8  31   8  32   8  33  14  34  14  35   6
M  END
>  <minimizedAffinity>  (1) 
-4.52560663

>  <minimizedRMSD>  (1) 
1.15357268

$$$$
