
     RDKit          3D

 43 46  0  0  1  0  0  0  0  0999 V2000
   36.0740   20.0330   32.5450 C   0  0  0  0  0  0  0  0  0  0  0  0
   35.4650   18.8330   32.8620 C   0  0  0  0  0  0  0  0  0  0  0  0
   35.7410   17.9490   31.8330 C   0  0  0  0  0  0  0  0  0  0  0  0
   36.4990   18.6220   30.9300 N   0  0  0  0  0  0  0  0  0  0  0  0
   36.6900   19.8290   31.3480 N   0  0  0  0  0  0  0  0  0  0  0  0
   37.0080   18.0600   29.6960 C   0  0  2  0  0  0  0  0  0  0  0  0
   38.0060   18.8280   28.9380 C   0  0  0  0  0  0  0  0  0  0  0  0
   36.6360   18.7550   28.4040 C   0  0  1  0  0  0  0  0  0  0  0  0
   36.2510   17.8420   27.2730 C   0  0  0  0  0  0  0  0  0  0  0  0
   35.7100   18.5820   26.0630 C   0  0  0  0  0  0  0  0  0  0  0  0
   35.9400   21.0830   33.4320 O   0  0  0  0  0  0  0  0  0  0  0  0
   36.8800   22.1050   33.4430 C   0  0  0  0  0  0  0  0  0  0  0  0
   36.7120   22.9420   32.5030 O   0  0  0  0  0  0  0  0  0  0  0  0
   40.2070   21.9650   34.8640 C   0  0  0  0  0  0  0  0  0  0  0  0
   40.0640   22.4750   36.1460 C   0  0  0  0  0  0  0  0  0  0  0  0
   38.7720   22.8770   36.5180 C   0  0  0  0  0  0  0  0  0  0  0  0
   37.7470   22.7600   35.6560 N   0  0  0  0  0  0  0  0  0  0  0  0
   37.9600   22.2470   34.4040 C   0  0  0  0  0  0  0  0  0  0  0  0
   39.1780   21.8630   34.0370 N   0  0  0  0  0  0  0  0  0  0  0  0
   38.5620   23.4260   37.8680 C   0  0  0  0  0  0  0  0  0  0  0  0
   37.3700   22.8780   38.3340 F   0  0  0  0  0  0  0  0  0  0  0  0
   38.3540   24.7910   37.8170 F   0  0  0  0  0  0  0  0  0  0  0  0
   39.6090   23.2100   38.7180 F   0  0  0  0  0  0  0  0  0  0  0  0
   41.2000   22.5960   37.0820 C   0  0  0  0  0  0  0  0  0  0  0  0
   42.4820   21.9140   36.9140 C   0  0  0  0  0  0  0  0  0  0  0  0
   42.3970   23.3460   36.5360 C   0  0  0  0  0  0  0  0  0  0  0  0
   34.8718   18.6203   33.7636 H   0  0  0  0  0  0  0  0  0  0  0  0
   35.4098   16.9025   31.7609 H   0  0  0  0  0  0  0  0  0  0  0  0
   36.9467   17.0326   30.0841 H   0  0  0  0  0  0  0  0  0  0  0  0
   38.3831   19.7791   29.3421 H   0  0  0  0  0  0  0  0  0  0  0  0
   39.0011   18.5982   28.5293 H   0  0  0  0  0  0  0  0  0  0  0  0
   35.9368   19.5275   28.0513 H   0  0  0  0  0  0  0  0  0  0  0  0
   37.1405   17.2726   26.9654 H   0  0  0  0  0  0  0  0  0  0  0  0
   35.4474   17.1873   27.6413 H   0  0  0  0  0  0  0  0  0  0  0  0
   35.0914   19.4281   26.3970 H   0  0  0  0  0  0  0  0  0  0  0  0
   36.5483   18.9571   25.4576 H   0  0  0  0  0  0  0  0  0  0  0  0
   35.0982   17.8970   25.4576 H   0  0  0  0  0  0  0  0  0  0  0  0
   41.2009   21.6368   34.5257 H   0  0  0  0  0  0  0  0  0  0  0  0
   40.5082   22.6370   37.9363 H   0  0  0  0  0  0  0  0  0  0  0  0
   43.0619   21.6182   37.8007 H   0  0  0  0  0  0  0  0  0  0  0  0
   42.8017   21.0007   36.3908 H   0  0  0  0  0  0  0  0  0  0  0  0
   42.8977   24.1115   37.1471 H   0  0  0  0  0  0  0  0  0  0  0  0
   42.6114   23.9359   35.6327 H   0  0  0  0  0  0  0  0  0  0  0  0
  1  2  1  0
  1 11  1  0
  3  2  2  0
  4  5  1  0
  4  3  1  0
  5  1  2  0
  6  4  1  0
  7  6  1  0
  8  7  1  0
  8  6  1  0
  9  8  1  0
 10  9  1  0
 11 12  1  0
 12 18  1  0
 13 12  2  0
 14 15  2  0
 15 16  1  0
 15 24  1  0
 16 20  1  0
 17 16  2  0
 18 17  1  0
 19 18  2  0
 19 14  1  0
 20 21  1  0
 20 23  1  0
 22 20  1  0
 25 24  1  0
 26 25  1  0
 26 24  1  0
  2 27  1  0
  3 28  1  0
  6 29  1  6
  7 30  1  0
  7 31  1  0
  8 32  1  1
  9 33  1  0
  9 34  1  0
 10 35  1  0
 10 36  1  0
 10 37  1  0
 14 38  1  0
 24 39  1  0
 25 40  1  0
 25 41  1  0
 26 42  1  0
 26 43  1  0
M  ISO  8  27  14  28  14  29  13  30  13  31  13  32  13  33   8  34   8
M  ISO  8  35   8  36   8  37   8  38  14  39  13  40  13  41  13  42  13
M  ISO  1  43  13
M  END
>  <minimizedAffinity>  (1) 
-5.41028786

>  <minimizedRMSD>  (1) 
0.891405106

$$$$
