
     RDKit          3D

 39 41  0  0  1  0  0  0  0  0999 V2000
   36.0460   20.1630   32.4800 C   0  0  0  0  0  0  0  0  0  0  0  0
   35.4700   18.9570   32.8620 C   0  0  0  0  0  0  0  0  0  0  0  0
   35.7450   18.0310   31.8690 C   0  0  0  0  0  0  0  0  0  0  0  0
   36.4700   18.6810   30.9200 N   0  0  0  0  0  0  0  0  0  0  0  0
   36.6430   19.9190   31.2770 N   0  0  0  0  0  0  0  0  0  0  0  0
   36.9680   18.0800   29.7020 C   0  0  2  0  0  0  0  0  0  0  0  0
   38.0110   18.8110   28.9340 C   0  0  0  0  0  0  0  0  0  0  0  0
   36.6330   18.7630   28.3980 C   0  0  1  0  0  0  0  0  0  0  0  0
   36.2640   17.8450   27.2710 C   0  0  0  0  0  0  0  0  0  0  0  0
   35.7110   18.5760   26.0600 C   0  0  0  0  0  0  0  0  0  0  0  0
   35.9100   21.2600   33.3150 O   0  0  0  0  0  0  0  0  0  0  0  0
   36.9090   22.2290   33.3510 C   0  0  0  0  0  0  0  0  0  0  0  0
   36.8020   23.0770   32.4280 O   0  0  0  0  0  0  0  0  0  0  0  0
   40.1860   21.8380   34.8470 C   0  0  0  0  0  0  0  0  0  0  0  0
   40.0430   22.3460   36.1310 C   0  0  0  0  0  0  0  0  0  0  0  0
   38.8030   22.8290   36.4780 C   0  0  0  0  0  0  0  0  0  0  0  0
   37.7800   22.7980   35.5860 N   0  0  0  0  0  0  0  0  0  0  0  0
   37.9760   22.2860   34.3360 C   0  0  0  0  0  0  0  0  0  0  0  0
   39.1680   21.8180   33.9910 N   0  0  0  0  0  0  0  0  0  0  0  0
   38.6070   23.3740   37.8180 C   0  0  0  0  0  0  0  0  0  0  0  0
   37.3710   22.9000   38.2780 F   0  0  0  0  0  0  0  0  0  0  0  0
   38.4150   24.7550   37.7670 F   0  0  0  0  0  0  0  0  0  0  0  0
   39.6010   23.1610   38.6990 F   0  0  0  0  0  0  0  0  0  0  0  0
   41.2700   22.3180   36.9400 C   0  0  0  0  0  0  0  0  0  0  0  0
   41.7500   23.5960   37.2650 F   0  0  0  0  0  0  0  0  0  0  0  0
   42.3510   21.7990   36.2420 F   0  0  0  0  0  0  0  0  0  0  0  0
   41.1960   21.4870   38.0440 F   0  0  0  0  0  0  0  0  0  0  0  0
   34.8999   18.7717   33.7843 H   0  0  0  0  0  0  0  0  0  0  0  0
   35.4368   16.9752   31.8517 H   0  0  0  0  0  0  0  0  0  0  0  0
   36.8668   17.0616   30.1052 H   0  0  0  0  0  0  0  0  0  0  0  0
   38.4136   19.7578   29.3232 H   0  0  0  0  0  0  0  0  0  0  0  0
   39.0023   18.5474   28.5366 H   0  0  0  0  0  0  0  0  0  0  0  0
   35.9465   19.5439   28.0389 H   0  0  0  0  0  0  0  0  0  0  0  0
   37.1626   17.2898   26.9639 H   0  0  0  0  0  0  0  0  0  0  0  0
   35.4714   17.1773   27.6396 H   0  0  0  0  0  0  0  0  0  0  0  0
   35.0786   19.4120   26.3935 H   0  0  0  0  0  0  0  0  0  0  0  0
   36.5432   18.9646   25.4547 H   0  0  0  0  0  0  0  0  0  0  0  0
   35.1107   17.8809   25.4547 H   0  0  0  0  0  0  0  0  0  0  0  0
   41.1627   21.4433   34.5304 H   0  0  0  0  0  0  0  0  0  0  0  0
  1  2  1  0
  1 11  1  0
  3  2  2  0
  4  5  1  0
  4  3  1  0
  5  1  2  0
  6  4  1  0
  7  6  1  0
  8  7  1  0
  8  6  1  0
  9  8  1  0
 10  9  1  0
 11 12  1  0
 12 18  1  0
 13 12  2  0
 14 15  2  0
 15 16  1  0
 15 24  1  0
 16 20  1  0
 17 16  2  0
 18 17  1  0
 19 18  2  0
 19 14  1  0
 20 21  1  0
 20 23  1  0
 22 20  1  0
 24 25  1  0
 24 27  1  0
 26 24  1  0
  2 28  1  0
  3 29  1  0
  6 30  1  6
  7 31  1  0
  7 32  1  0
  8 33  1  1
  9 34  1  0
  9 35  1  0
 10 36  1  0
 10 37  1  0
 10 38  1  0
 14 39  1  0
M  ISO  8  28  14  29  14  30  13  31  13  32  13  33  13  34   8  35   8
M  ISO  4  36   8  37   8  38   8  39  14
M  END
>  <minimizedAffinity>  (1) 
-5.37714338

>  <minimizedRMSD>  (1) 
0.812852263

$$$$
