
     RDKit          3D

 26 28  0  0  0  0  0  0  0  0999 V2000
   37.3160   21.5540   34.7140 C   0  0  0  0  0  0  0  0  0  0  0  0
   36.0000   21.0880   34.7440 C   0  0  0  0  0  0  0  0  0  0  0  0
   35.7340   20.5260   33.4890 C   0  0  0  0  0  0  0  0  0  0  0  0
   36.9180   20.6920   32.7790 C   0  0  0  0  0  0  0  0  0  0  0  0
   37.8110   21.2940   33.5300 O   0  0  0  0  0  0  0  0  0  0  0  0
   39.7100   22.7860   37.1720 C   0  0  0  0  0  0  0  0  0  0  0  0
   38.9120   23.3580   38.1620 C   0  0  0  0  0  0  0  0  0  0  0  0
   37.5030   23.3220   37.9840 C   0  0  0  0  0  0  0  0  0  0  0  0
   37.0210   22.7280   36.8490 N   0  0  0  0  0  0  0  0  0  0  0  0
   37.8300   22.1880   35.9210 C   0  0  0  0  0  0  0  0  0  0  0  0
   39.1530   22.2200   36.0850 N   0  0  0  0  0  0  0  0  0  0  0  0
   37.1820   20.2780   31.4040 C   0  0  0  0  0  0  0  0  0  0  0  0
   36.2610   19.4520   30.7900 C   0  0  0  0  0  0  0  0  0  0  0  0
   36.5220   19.0600   29.4740 C   0  0  0  0  0  0  0  0  0  0  0  0
   37.6680   19.5060   28.8490 C   0  0  0  0  0  0  0  0  0  0  0  0
   38.5730   20.3360   29.4960 C   0  0  0  0  0  0  0  0  0  0  0  0
   38.3120   20.7110   30.7710 N   0  0  0  0  0  0  0  0  0  0  0  0
   35.3036   21.1505   35.5932 H   0  0  0  0  0  0  0  0  0  0  0  0
   34.8000   20.0590   33.1433 H   0  0  0  0  0  0  0  0  0  0  0  0
   40.8046   22.7973   37.2802 H   0  0  0  0  0  0  0  0  0  0  0  0
   39.3594   23.8226   39.0530 H   0  0  0  0  0  0  0  0  0  0  0  0
   36.8233   23.7562   38.7320 H   0  0  0  0  0  0  0  0  0  0  0  0
   35.3560   19.1153   31.3169 H   0  0  0  0  0  0  0  0  0  0  0  0
   35.8198   18.4017   28.9415 H   0  0  0  0  0  0  0  0  0  0  0  0
   37.8695   19.1964   27.8129 H   0  0  0  0  0  0  0  0  0  0  0  0
   39.4830   20.6819   28.9840 H   0  0  0  0  0  0  0  0  0  0  0  0
  1  2  2  0
  1 10  1  0
  3  2  1  0
  4  3  2  0
  4  5  1  0
  5  1  1  0
  6  7  2  0
  8  7  1  0
  9  8  2  0
 10 11  2  0
 10  9  1  0
 11  6  1  0
 12  4  1  0
 13 12  2  0
 14 13  1  0
 15 14  2  0
 15 16  1  0
 16 17  2  0
 17 12  1  0
  2 18  1  0
  3 19  1  0
  6 20  1  0
  7 21  1  0
  8 22  1  0
 13 23  1  0
 14 24  1  0
 15 25  1  0
 16 26  1  0
M  ISO  8  18  14  19  14  20  14  21  14  22  14  23  14  24  14  25  14
M  ISO  1  26  14
M  END
>  <minimizedAffinity>  (1) 
-4.40241671

>  <minimizedRMSD>  (1) 
1.18484485

$$$$
