
     RDKit          3D

 24 26  0  0  0  0  0  0  0  0999 V2000
   37.2760   21.6160   34.9900 C   0  0  0  0  0  0  0  0  0  0  0  0
   35.9810   21.1120   35.1320 C   0  0  0  0  0  0  0  0  0  0  0  0
   35.6150   20.5410   33.9110 C   0  0  0  0  0  0  0  0  0  0  0  0
   36.7260   20.7400   33.1000 C   0  0  0  0  0  0  0  0  0  0  0  0
   37.6620   21.3600   33.7530 O   0  0  0  0  0  0  0  0  0  0  0  0
   39.8510   22.7580   37.3040 C   0  0  0  0  0  0  0  0  0  0  0  0
   39.1210   23.4450   38.2880 C   0  0  0  0  0  0  0  0  0  0  0  0
   37.7240   23.5150   38.1520 C   0  0  0  0  0  0  0  0  0  0  0  0
   37.1500   22.9110   37.0700 N   0  0  0  0  0  0  0  0  0  0  0  0
   37.8730   22.2630   36.1470 C   0  0  0  0  0  0  0  0  0  0  0  0
   39.2090   22.1860   36.2610 N   0  0  0  0  0  0  0  0  0  0  0  0
   36.9600   20.3790   31.7420 N   0  0  0  0  0  0  0  0  0  0  0  0
   37.9950   20.6710   30.9920 N   0  0  0  0  0  0  0  0  0  0  0  0
   37.8390   20.1380   29.7460 C   0  0  0  0  0  0  0  0  0  0  0  0
   36.6160   19.4810   29.7650 C   0  0  0  0  0  0  0  0  0  0  0  0
   36.0770   19.6450   31.0320 C   0  0  0  0  0  0  0  0  0  0  0  0
   35.3620   21.1567   36.0402 H   0  0  0  0  0  0  0  0  0  0  0  0
   34.6667   20.0478   33.6513 H   0  0  0  0  0  0  0  0  0  0  0  0
   40.9458   22.6854   37.3822 H   0  0  0  0  0  0  0  0  0  0  0  0
   39.6293   23.9157   39.1424 H   0  0  0  0  0  0  0  0  0  0  0  0
   37.1096   24.0420   38.8968 H   0  0  0  0  0  0  0  0  0  0  0  0
   38.5383   20.2132   28.9002 H   0  0  0  0  0  0  0  0  0  0  0  0
   36.1588   18.9315   28.9289 H   0  0  0  0  0  0  0  0  0  0  0  0
   35.1140   19.2521   31.3901 H   0  0  0  0  0  0  0  0  0  0  0  0
  1  2  2  0
  1 10  1  0
  3  2  1  0
  4  5  1  0
  4  3  2  0
  5  1  1  0
  6  7  2  0
  8  7  1  0
  9  8  2  0
 10 11  2  0
 10  9  1  0
 11  6  1  0
 12  4  1  0
 13 12  1  0
 14 15  1  0
 14 13  2  0
 15 16  2  0
 16 12  1  0
  2 17  1  0
  3 18  1  0
  6 19  1  0
  7 20  1  0
  8 21  1  0
 14 22  1  0
 15 23  1  0
 16 24  1  0
M  ISO  8  17  14  18  14  19  14  20  14  21  14  22  14  23  14  24  14
M  END
>  <minimizedAffinity>  (1) 
-4.35844898

>  <minimizedRMSD>  (1) 
0.835409939

$$$$
