
     RDKit          3D

 22 24  0  0  0  0  0  0  0  0999 V2000
   37.3330   21.6510   35.0020 C   0  0  0  0  0  0  0  0  0  0  0  0
   36.0340   21.1330   35.1190 C   0  0  0  0  0  0  0  0  0  0  0  0
   35.6730   20.5800   33.8980 C   0  0  0  0  0  0  0  0  0  0  0  0
   36.7960   20.8010   33.1040 C   0  0  0  0  0  0  0  0  0  0  0  0
   37.7260   21.4190   33.7730 O   0  0  0  0  0  0  0  0  0  0  0  0
   39.8470   22.7760   37.3890 C   0  0  0  0  0  0  0  0  0  0  0  0
   39.1040   23.4480   38.3600 C   0  0  0  0  0  0  0  0  0  0  0  0
   37.7130   23.5160   38.1930 C   0  0  0  0  0  0  0  0  0  0  0  0
   37.1430   22.9250   37.0900 N   0  0  0  0  0  0  0  0  0  0  0  0
   37.9190   22.2870   36.1810 C   0  0  0  0  0  0  0  0  0  0  0  0
   39.2460   22.2070   36.3180 N   0  0  0  0  0  0  0  0  0  0  0  0
   36.9050   20.3910   31.7030 C   0  0  0  0  0  0  0  0  0  0  0  0
   37.8380   20.7450   30.8010 N   0  0  0  0  0  0  0  0  0  0  0  0
   37.5910   20.1740   29.6730 O   0  0  0  0  0  0  0  0  0  0  0  0
   36.5320   19.4350   29.7280 C   0  0  0  0  0  0  0  0  0  0  0  0
   36.0930   19.5690   31.0130 N   0  0  0  0  0  0  0  0  0  0  0  0
   35.4088   21.1605   36.0236 H   0  0  0  0  0  0  0  0  0  0  0  0
   34.7288   20.0867   33.6238 H   0  0  0  0  0  0  0  0  0  0  0  0
   40.9397   22.7074   37.4956 H   0  0  0  0  0  0  0  0  0  0  0  0
   39.5939   23.9102   39.2297 H   0  0  0  0  0  0  0  0  0  0  0  0
   37.0870   24.0348   38.9339 H   0  0  0  0  0  0  0  0  0  0  0  0
   36.0858   18.8343   28.9217 H   0  0  0  0  0  0  0  0  0  0  0  0
  1  2  2  0
  1 10  1  0
  3  2  1  0
  4  5  1  0
  4  3  2  0
  5  1  1  0
  6  7  2  0
  8  7  1  0
  9  8  2  0
 10 11  2  0
 10  9  1  0
 11  6  1  0
 12  4  1  0
 13 12  2  0
 14 15  1  0
 14 13  1  0
 15 16  2  0
 16 12  1  0
  2 17  1  0
  3 18  1  0
  6 19  1  0
  7 20  1  0
  8 21  1  0
 15 22  1  0
M  ISO  6  17  14  18  14  19  14  20  14  21  14  22  14
M  END
>  <minimizedAffinity>  (1) 
-4.30715275

>  <minimizedRMSD>  (1) 
0.844374716

$$$$
