
     RDKit          3D

 24 26  0  0  0  0  0  0  0  0999 V2000
   37.2890   21.6690   35.1350 C   0  0  0  0  0  0  0  0  0  0  0  0
   36.0160   21.1170   35.3130 C   0  0  0  0  0  0  0  0  0  0  0  0
   35.6390   20.5520   34.0870 C   0  0  0  0  0  0  0  0  0  0  0  0
   36.7200   20.8060   33.2520 C   0  0  0  0  0  0  0  0  0  0  0  0
   37.6740   21.4590   33.8800 O   0  0  0  0  0  0  0  0  0  0  0  0
   39.8590   22.8070   37.4660 C   0  0  0  0  0  0  0  0  0  0  0  0
   39.1380   23.5360   38.4140 C   0  0  0  0  0  0  0  0  0  0  0  0
   37.7500   23.6390   38.2510 C   0  0  0  0  0  0  0  0  0  0  0  0
   37.1700   23.0230   37.1740 N   0  0  0  0  0  0  0  0  0  0  0  0
   37.9060   22.3230   36.2750 C   0  0  0  0  0  0  0  0  0  0  0  0
   39.2310   22.2180   36.4220 N   0  0  0  0  0  0  0  0  0  0  0  0
   36.7150   20.3770   31.8940 N   0  0  0  0  0  0  0  0  0  0  0  0
   37.8210   20.6530   31.1670 C   0  0  0  0  0  0  0  0  0  0  0  0
   37.5880   20.1440   29.8850 C   0  0  0  0  0  0  0  0  0  0  0  0
   36.3450   19.5810   29.8980 N   0  0  0  0  0  0  0  0  0  0  0  0
   35.8080   19.7270   31.1420 C   0  0  0  0  0  0  0  0  0  0  0  0
   35.4232   21.1249   36.2396 H   0  0  0  0  0  0  0  0  0  0  0  0
   34.7031   20.0283   33.8423 H   0  0  0  0  0  0  0  0  0  0  0  0
   40.9499   22.7104   37.5690 H   0  0  0  0  0  0  0  0  0  0  0  0
   39.6450   24.0156   39.2643 H   0  0  0  0  0  0  0  0  0  0  0  0
   37.1397   24.2023   38.9723 H   0  0  0  0  0  0  0  0  0  0  0  0
   38.7250   21.1745   31.5147 H   0  0  0  0  0  0  0  0  0  0  0  0
   38.2766   20.1891   29.0284 H   0  0  0  0  0  0  0  0  0  0  0  0
   34.8177   19.3784   31.4702 H   0  0  0  0  0  0  0  0  0  0  0  0
  1  2  2  0
  1 10  1  0
  3  2  1  0
  4  5  1  0
  4  3  2  0
  5  1  1  0
  6  7  2  0
  8  7  1  0
  9  8  2  0
 10 11  2  0
 10  9  1  0
 11  6  1  0
 12  4  1  0
 13 12  1  0
 14 15  1  0
 14 13  2  0
 15 16  2  0
 16 12  1  0
  2 17  1  0
  3 18  1  0
  6 19  1  0
  7 20  1  0
  8 21  1  0
 13 22  1  0
 14 23  1  0
 16 24  1  0
M  ISO  8  17  14  18  14  19  14  20  14  21  14  22  14  23  14  24  14
M  END
>  <minimizedAffinity>  (1) 
-4.29683733

>  <minimizedRMSD>  (1) 
0.674780369

$$$$
