
     RDKit          3D

 23 24  0  0  0  0  0  0  0  0999 V2000
   37.1400   21.8130   35.0670 C   0  0  0  0  0  0  0  0  0  0  0  0
   36.0880   20.9270   35.3550 C   0  0  0  0  0  0  0  0  0  0  0  0
   35.5340   20.5340   34.1240 C   0  0  0  0  0  0  0  0  0  0  0  0
   36.3130   21.2280   33.1750 C   0  0  0  0  0  0  0  0  0  0  0  0
   37.2170   21.9460   33.7620 O   0  0  0  0  0  0  0  0  0  0  0  0
   39.9310   22.6290   37.2620 C   0  0  0  0  0  0  0  0  0  0  0  0
   39.3390   23.3250   38.3210 C   0  0  0  0  0  0  0  0  0  0  0  0
   37.9500   23.5180   38.2790 C   0  0  0  0  0  0  0  0  0  0  0  0
   37.2670   23.0160   37.2120 N   0  0  0  0  0  0  0  0  0  0  0  0
   37.8620   22.3500   36.2070 C   0  0  0  0  0  0  0  0  0  0  0  0
   39.1930   22.1530   36.2260 N   0  0  0  0  0  0  0  0  0  0  0  0
   36.0400   21.0800   31.7250 C   0  0  0  0  0  0  0  0  0  0  0  0
   35.6540   22.4270   31.1630 C   0  0  0  0  0  0  0  0  0  0  0  0
   35.7603   20.6026   36.3537 H   0  0  0  0  0  0  0  0  0  0  0  0
   34.6930   19.8483   33.9439 H   0  0  0  0  0  0  0  0  0  0  0  0
   41.0185   22.4635   37.2684 H   0  0  0  0  0  0  0  0  0  0  0  0
   39.9416   23.7078   39.1578 H   0  0  0  0  0  0  0  0  0  0  0  0
   37.4282   24.0580   39.0828 H   0  0  0  0  0  0  0  0  0  0  0  0
   36.9419   20.7111   31.2147 H   0  0  0  0  0  0  0  0  0  0  0  0
   35.2214   20.3617   31.5701 H   0  0  0  0  0  0  0  0  0  0  0  0
   35.4539   23.1253   31.9891 H   0  0  0  0  0  0  0  0  0  0  0  0
   36.4768   22.8160   30.5452 H   0  0  0  0  0  0  0  0  0  0  0  0
   34.7500   22.3212   30.5452 H   0  0  0  0  0  0  0  0  0  0  0  0
  1  2  2  0
  1 10  1  0
  3  2  1  0
  4  5  1  0
  4  3  2  0
  5  1  1  0
  6  7  2  0
  8  7  1  0
  9  8  2  0
 10 11  2  0
 10  9  1  0
 11  6  1  0
 12  4  1  0
 13 12  1  0
  2 14  1  0
  3 15  1  0
  6 16  1  0
  7 17  1  0
  8 18  1  0
 12 19  1  0
 12 20  1  0
 13 21  1  0
 13 22  1  0
 13 23  1  0
M  ISO  8  14  14  15  14  16  14  17  14  18  14  19   8  20   8  21   8
M  ISO  2  22   8  23   8
M  END
>  <minimizedAffinity>  (1) 
-4.2225132

>  <minimizedRMSD>  (1) 
0.217280641

$$$$
