
     RDKit          3D

 23 25  0  0  0  0  0  0  0  0999 V2000
   37.4130   21.6290   34.8280 C   0  0  0  0  0  0  0  0  0  0  0  0
   36.0970   21.1910   34.8410 C   0  0  0  0  0  0  0  0  0  0  0  0
   35.8120   20.6360   33.5960 C   0  0  0  0  0  0  0  0  0  0  0  0
   37.0090   20.7760   32.8820 C   0  0  0  0  0  0  0  0  0  0  0  0
   37.8990   21.3490   33.6240 O   0  0  0  0  0  0  0  0  0  0  0  0
   39.8280   22.7590   37.3050 C   0  0  0  0  0  0  0  0  0  0  0  0
   39.0190   23.4000   38.2730 C   0  0  0  0  0  0  0  0  0  0  0  0
   37.6290   23.4380   38.0620 C   0  0  0  0  0  0  0  0  0  0  0  0
   37.1580   22.8500   36.9280 N   0  0  0  0  0  0  0  0  0  0  0  0
   37.9420   22.2490   36.0260 C   0  0  0  0  0  0  0  0  0  0  0  0
   39.2640   22.2030   36.2090 N   0  0  0  0  0  0  0  0  0  0  0  0
   37.1680   20.3200   31.5030 C   0  0  0  0  0  0  0  0  0  0  0  0
   36.1090   19.4340   30.9860 C   0  0  0  0  0  0  0  0  0  0  0  0
   36.6730   19.0990   29.2640 S   0  0  0  0  0  0  0  0  0  0  0  0
   38.2100   20.1870   29.5230 C   0  0  0  0  0  0  0  0  0  0  0  0
   38.1000   20.5530   30.6030 N   0  0  0  0  0  0  0  0  0  0  0  0
   35.3994   21.2686   35.6879 H   0  0  0  0  0  0  0  0  0  0  0  0
   34.8664   20.1910   33.2529 H   0  0  0  0  0  0  0  0  0  0  0  0
   40.9182   22.7129   37.4444 H   0  0  0  0  0  0  0  0  0  0  0  0
   39.4661   23.8571   39.1681 H   0  0  0  0  0  0  0  0  0  0  0  0
   36.9521   23.9216   38.7817 H   0  0  0  0  0  0  0  0  0  0  0  0
   35.2085   19.0655   31.4992 H   0  0  0  0  0  0  0  0  0  0  0  0
   39.0138   20.4117   28.8064 H   0  0  0  0  0  0  0  0  0  0  0  0
  1  2  2  0
  1 10  1  0
  3  2  1  0
  4  3  2  0
  4  5  1  0
  5  1  1  0
  6  7  2  0
  8  7  1  0
  9  8  2  0
 10 11  2  0
 10  9  1  0
 11  6  1  0
 12  4  1  0
 13 12  2  0
 14 15  1  0
 14 13  1  0
 15 16  2  0
 16 12  1  0
  2 17  1  0
  3 18  1  0
  6 19  1  0
  7 20  1  0
  8 21  1  0
 13 22  1  0
 15 23  1  0
M  ISO  7  17  14  18  14  19  14  20  14  21  14  22  14  23  14
M  END
>  <minimizedAffinity>  (1) 
-4.15480947

>  <minimizedRMSD>  (1) 
0.87156564

$$$$
