
     RDKit          3D

 20 21  0  0  0  0  0  0  0  0999 V2000
   39.9080   22.6120   37.1730 C   0  0  0  0  0  0  0  0  0  0  0  0
   39.2900   23.2740   38.2450 C   0  0  0  0  0  0  0  0  0  0  0  0
   37.8980   23.4460   38.2110 C   0  0  0  0  0  0  0  0  0  0  0  0
   37.2160   22.9540   37.1200 N   0  0  0  0  0  0  0  0  0  0  0  0
   37.8440   22.3270   36.1130 C   0  0  0  0  0  0  0  0  0  0  0  0
   39.1760   22.1580   36.1400 N   0  0  0  0  0  0  0  0  0  0  0  0
   37.1220   21.8080   34.9610 C   0  0  0  0  0  0  0  0  0  0  0  0
   36.0780   20.9140   35.2090 C   0  0  0  0  0  0  0  0  0  0  0  0
   35.5430   20.5580   33.9570 C   0  0  0  0  0  0  0  0  0  0  0  0
   36.3110   21.2690   33.0430 C   0  0  0  0  0  0  0  0  0  0  0  0
   37.2130   21.9790   33.6540 O   0  0  0  0  0  0  0  0  0  0  0  0
   36.1260   21.2220   31.5630 C   0  0  0  0  0  0  0  0  0  0  0  0
   40.9979   22.4635   37.1776 H   0  0  0  0  0  0  0  0  0  0  0  0
   39.8830   23.6492   39.0921 H   0  0  0  0  0  0  0  0  0  0  0  0
   37.3686   23.9570   39.0287 H   0  0  0  0  0  0  0  0  0  0  0  0
   35.7394   20.5571   36.1928 H   0  0  0  0  0  0  0  0  0  0  0  0
   34.7076   19.8732   33.7494 H   0  0  0  0  0  0  0  0  0  0  0  0
   35.0836   20.9572   31.3320 H   0  0  0  0  0  0  0  0  0  0  0  0
   36.3578   22.2076   31.1330 H   0  0  0  0  0  0  0  0  0  0  0  0
   36.8001   20.4666   31.1330 H   0  0  0  0  0  0  0  0  0  0  0  0
  1  2  2  0
  3  2  1  0
  4  3  2  0
  5  6  2  0
  5  4  1  0
  6  1  1  0
  7  8  2  0
  7  5  1  0
  9  8  1  0
 10 11  1  0
 10  9  2  0
 11  7  1  0
 12 10  1  0
  1 13  1  0
  2 14  1  0
  3 15  1  0
  8 16  1  0
  9 17  1  0
 12 18  1  0
 12 19  1  0
 12 20  1  0
M  ISO  8  13  14  14  14  15  14  16  14  17  14  18   8  19   8  20   8
M  END
>  <minimizedAffinity>  (1) 
-4.05920982

>  <minimizedRMSD>  (1) 
0.133078247

$$$$
