
     RDKit          3D

 39 42  0  0  1  0  0  0  0  0999 V2000
   36.1670   20.6670   32.2510 N   0  0  0  0  0  0  0  0  0  0  0  0
   36.0220   19.2510   31.8410 C   0  0  0  0  0  0  0  0  0  0  0  0
   36.3720   19.1670   30.3960 C   0  0  0  0  0  0  0  0  0  0  0  0
   36.9360   20.5480   30.1240 C   0  0  0  0  0  0  0  0  0  0  0  0
   35.9670   21.3680   30.9950 C   0  0  2  0  0  0  0  0  0  0  0  0
   36.3300   22.7470   31.0270 N   0  0  0  0  0  0  0  0  0  0  0  0
   35.4290   23.7020   31.2330 C   0  0  0  0  0  0  0  0  0  0  0  0
   35.8080   25.0210   31.2580 C   0  0  0  0  0  0  0  0  0  0  0  0
   37.1460   25.3470   31.0660 C   0  0  0  0  0  0  0  0  0  0  0  0
   37.4790   26.5550   31.0910 O   0  0  0  0  0  0  0  0  0  0  0  0
   38.0190   24.3280   30.8590 N   0  0  0  0  0  0  0  0  0  0  0  0
   37.6320   23.0310   30.8370 C   0  0  0  0  0  0  0  0  0  0  0  0
   38.5660   22.2110   30.6340 O   0  0  0  0  0  0  0  0  0  0  0  0
   37.2110   21.7960   35.4530 C   0  0  0  0  0  0  0  0  0  0  0  0
   36.0760   21.0800   35.7780 C   0  0  0  0  0  0  0  0  0  0  0  0
   35.5490   20.5680   34.5870 C   0  0  0  0  0  0  0  0  0  0  0  0
   36.4380   21.0300   33.6050 C   0  0  0  0  0  0  0  0  0  0  0  0
   37.3860   21.7360   34.1400 O   0  0  0  0  0  0  0  0  0  0  0  0
   40.0080   22.7800   37.5880 C   0  0  0  0  0  0  0  0  0  0  0  0
   39.4000   23.6080   38.5450 C   0  0  0  0  0  0  0  0  0  0  0  0
   38.0080   23.8290   38.4500 C   0  0  0  0  0  0  0  0  0  0  0  0
   37.3350   23.2270   37.4370 N   0  0  0  0  0  0  0  0  0  0  0  0
   37.9500   22.4360   36.5340 C   0  0  0  0  0  0  0  0  0  0  0  0
   39.2550   22.2350   36.6320 N   0  0  0  0  0  0  0  0  0  0  0  0
   36.7019   18.6177   32.4298 H   0  0  0  0  0  0  0  0  0  0  0  0
   34.9934   18.9008   32.0122 H   0  0  0  0  0  0  0  0  0  0  0  0
   37.1240   18.3855   30.2123 H   0  0  0  0  0  0  0  0  0  0  0  0
   35.5223   18.9012   29.7499 H   0  0  0  0  0  0  0  0  0  0  0  0
   37.9785   20.6435   30.4618 H   0  0  0  0  0  0  0  0  0  0  0  0
   36.9900   20.8411   29.0651 H   0  0  0  0  0  0  0  0  0  0  0  0
   34.9188   21.4178   30.6651 H   0  0  0  0  0  0  0  0  0  0  0  0
   34.3730   23.4337   31.3844 H   0  0  0  0  0  0  0  0  0  0  0  0
   35.0618   25.8111   31.4280 H   0  0  0  0  0  0  0  0  0  0  0  0
   39.0141   24.5504   30.7131 H   0  0  0  0  0  0  0  0  0  0  0  0
   35.6622   20.9382   36.7873 H   0  0  0  0  0  0  0  0  0  0  0  0
   34.6496   19.9491   34.4525 H   0  0  0  0  0  0  0  0  0  0  0  0
   41.0897   22.5837   37.6263 H   0  0  0  0  0  0  0  0  0  0  0  0
   39.9919   24.0723   39.3475 H   0  0  0  0  0  0  0  0  0  0  0  0
   37.4853   24.4698   39.1754 H   0  0  0  0  0  0  0  0  0  0  0  0
  1 17  1  0
  2  1  1  0
  3  2  1  0
  4  3  1  0
  4  5  1  0
  5  6  1  0
  5  1  1  0
  6  7  1  0
  7  8  2  0
  9 10  2  0
  9  8  1  0
 11  9  1  0
 12 11  1  0
 12  6  1  0
 13 12  2  0
 14 15  2  0
 14 23  1  0
 16 15  1  0
 17 18  1  0
 17 16  2  0
 18 14  1  0
 19 20  2  0
 21 20  1  0
 22 21  2  0
 23 24  2  0
 23 22  1  0
 24 19  1  0
  2 25  1  0
  2 26  1  0
  3 27  1  0
  3 28  1  0
  4 29  1  0
  4 30  1  0
  5 31  1  6
  7 32  1  0
  8 33  1  0
 11 34  1  0
 15 35  1  0
 16 36  1  0
 19 37  1  0
 20 38  1  0
 21 39  1  0
M  ISO  8  25  13  26  13  27  13  28  13  29  13  30  13  31  13  32  14
M  ISO  7  33  14  34   9  35  14  36  14  37  14  38  14  39  14
M  END
>  <minimizedAffinity>  (1) 
-5.77838087

>  <minimizedRMSD>  (1) 
1.12036943

$$$$
