
     RDKit          3D

 37 40  0  0  1  0  0  0  0  0999 V2000
   36.2110   20.5100   32.2550 N   0  0  0  0  0  0  0  0  0  0  0  0
   36.2370   19.0930   31.8810 C   0  0  0  0  0  0  0  0  0  0  0  0
   36.4990   19.0360   30.4110 C   0  0  0  0  0  0  0  0  0  0  0  0
   36.9290   20.4670   30.1150 C   0  0  0  0  0  0  0  0  0  0  0  0
   35.9100   21.1870   30.9940 C   0  0  2  0  0  0  0  0  0  0  0  0
   37.2320   21.7530   35.4360 C   0  0  0  0  0  0  0  0  0  0  0  0
   36.0390   21.1020   35.7580 C   0  0  0  0  0  0  0  0  0  0  0  0
   35.5200   20.5560   34.5770 C   0  0  0  0  0  0  0  0  0  0  0  0
   36.4530   20.9220   33.6040 C   0  0  0  0  0  0  0  0  0  0  0  0
   37.4180   21.6070   34.1410 O   0  0  0  0  0  0  0  0  0  0  0  0
   40.0130   22.7720   37.5560 C   0  0  0  0  0  0  0  0  0  0  0  0
   39.4170   23.6060   38.5060 C   0  0  0  0  0  0  0  0  0  0  0  0
   38.0310   23.8130   38.4050 C   0  0  0  0  0  0  0  0  0  0  0  0
   37.3330   23.2110   37.4090 N   0  0  0  0  0  0  0  0  0  0  0  0
   37.9650   22.4040   36.5060 C   0  0  0  0  0  0  0  0  0  0  0  0
   39.2750   22.1980   36.5880 N   0  0  0  0  0  0  0  0  0  0  0  0
   36.3040   22.6260   31.0640 C   0  0  0  0  0  0  0  0  0  0  0  0
   35.4230   23.6120   31.4540 C   0  0  0  0  0  0  0  0  0  0  0  0
   35.9380   24.9120   31.4700 C   0  0  0  0  0  0  0  0  0  0  0  0
   37.2040   25.1690   31.1260 N   0  0  0  0  0  0  0  0  0  0  0  0
   38.0470   24.1900   30.7490 C   0  0  0  0  0  0  0  0  0  0  0  0
   37.5920   22.9030   30.7170 N   0  0  0  0  0  0  0  0  0  0  0  0
   37.0366   18.5721   32.4281 H   0  0  0  0  0  0  0  0  0  0  0  0
   35.2843   18.6028   32.1301 H   0  0  0  0  0  0  0  0  0  0  0  0
   37.3000   18.3201   30.1745 H   0  0  0  0  0  0  0  0  0  0  0  0
   35.6364   18.6985   29.8177 H   0  0  0  0  0  0  0  0  0  0  0  0
   37.9639   20.6640   30.4314 H   0  0  0  0  0  0  0  0  0  0  0  0
   36.9381   20.7565   29.0538 H   0  0  0  0  0  0  0  0  0  0  0  0
   34.8547   21.1603   30.6849 H   0  0  0  0  0  0  0  0  0  0  0  0
   35.5881   21.0309   36.7588 H   0  0  0  0  0  0  0  0  0  0  0  0
   34.5949   19.9753   34.4465 H   0  0  0  0  0  0  0  0  0  0  0  0
   41.0957   22.5829   37.5999 H   0  0  0  0  0  0  0  0  0  0  0  0
   40.0096   24.0816   39.3014 H   0  0  0  0  0  0  0  0  0  0  0  0
   37.5143   24.4597   39.1295 H   0  0  0  0  0  0  0  0  0  0  0  0
   34.3826   23.3906   31.7344 H   0  0  0  0  0  0  0  0  0  0  0  0
   35.2852   25.7438   31.7732 H   0  0  0  0  0  0  0  0  0  0  0  0
   39.0856   24.4228   30.4712 H   0  0  0  0  0  0  0  0  0  0  0  0
  1  9  1  0
  2  1  1  0
  3  2  1  0
  4  3  1  0
  4  5  1  0
  5 17  1  0
  5  1  1  0
  6  7  2  0
  6 15  1  0
  8  7  1  0
  9 10  1  0
  9  8  2  0
 10  6  1  0
 11 12  2  0
 13 12  1  0
 14 13  2  0
 15 16  2  0
 15 14  1  0
 16 11  1  0
 17 18  2  0
 18 19  1  0
 20 19  2  0
 21 20  1  0
 22 21  2  0
 22 17  1  0
  2 23  1  0
  2 24  1  0
  3 25  1  0
  3 26  1  0
  4 27  1  0
  4 28  1  0
  5 29  1  6
  7 30  1  0
  8 31  1  0
 11 32  1  0
 12 33  1  0
 13 34  1  0
 18 35  1  0
 19 36  1  0
 21 37  1  0
M  ISO  8  23  13  24  13  25  13  26  13  27  13  28  13  29  13  30  14
M  ISO  7  31  14  32  14  33  14  34  14  35  14  36  14  37  14
M  END
>  <minimizedAffinity>  (1) 
-5.47036934

>  <minimizedRMSD>  (1) 
1.27574146

$$$$
