
     RDKit          3D

 34 37  0  0  1  0  0  0  0  0999 V2000
   36.1200   20.6190   32.3080 N   0  0  0  0  0  0  0  0  0  0  0  0
   36.1910   19.2090   31.8820 C   0  0  0  0  0  0  0  0  0  0  0  0
   36.4000   19.1980   30.4080 C   0  0  0  0  0  0  0  0  0  0  0  0
   36.7750   20.6470   30.1440 C   0  0  0  0  0  0  0  0  0  0  0  0
   35.7400   21.3180   31.0770 C   0  0  2  0  0  0  0  0  0  0  0  0
   37.2170   21.8030   35.4690 C   0  0  0  0  0  0  0  0  0  0  0  0
   36.0620   21.0970   35.8270 C   0  0  0  0  0  0  0  0  0  0  0  0
   35.5170   20.5660   34.6480 C   0  0  0  0  0  0  0  0  0  0  0  0
   36.3970   20.9990   33.6570 C   0  0  0  0  0  0  0  0  0  0  0  0
   37.3630   21.7080   34.1680 O   0  0  0  0  0  0  0  0  0  0  0  0
   40.0090   22.7690   37.5990 C   0  0  0  0  0  0  0  0  0  0  0  0
   39.4410   23.6090   38.5480 C   0  0  0  0  0  0  0  0  0  0  0  0
   38.0530   23.8510   38.4510 C   0  0  0  0  0  0  0  0  0  0  0  0
   37.3350   23.2620   37.4500 N   0  0  0  0  0  0  0  0  0  0  0  0
   37.9530   22.4450   36.5460 C   0  0  0  0  0  0  0  0  0  0  0  0
   39.2600   22.2090   36.6260 N   0  0  0  0  0  0  0  0  0  0  0  0
   36.0960   22.7560   31.1110 C   0  0  0  0  0  0  0  0  0  0  0  0
   37.2980   23.2800   30.7720 N   0  0  0  0  0  0  0  0  0  0  0  0
   37.2500   24.5680   30.9230 O   0  0  0  0  0  0  0  0  0  0  0  0
   36.0550   24.9140   31.3510 C   0  0  0  0  0  0  0  0  0  0  0  0
   35.3150   23.8090   31.4780 N   0  0  0  0  0  0  0  0  0  0  0  0
   37.0307   18.7065   32.3844 H   0  0  0  0  0  0  0  0  0  0  0  0
   35.2654   18.6768   32.1465 H   0  0  0  0  0  0  0  0  0  0  0  0
   37.2130   18.5142   30.1226 H   0  0  0  0  0  0  0  0  0  0  0  0
   35.5290   18.8486   29.8342 H   0  0  0  0  0  0  0  0  0  0  0  0
   37.8099   20.8695   30.4431 H   0  0  0  0  0  0  0  0  0  0  0  0
   36.7501   20.9653   29.0914 H   0  0  0  0  0  0  0  0  0  0  0  0
   34.6675   21.2632   30.8388 H   0  0  0  0  0  0  0  0  0  0  0  0
   35.6573   20.9804   36.8432 H   0  0  0  0  0  0  0  0  0  0  0  0
   34.6106   19.9535   34.5329 H   0  0  0  0  0  0  0  0  0  0  0  0
   41.0875   22.5566   37.6411 H   0  0  0  0  0  0  0  0  0  0  0  0
   40.0476   24.0673   39.3430 H   0  0  0  0  0  0  0  0  0  0  0  0
   37.5537   24.5095   39.1770 H   0  0  0  0  0  0  0  0  0  0  0  0
   35.7216   25.9396   31.5676 H   0  0  0  0  0  0  0  0  0  0  0  0
  1  9  1  0
  2  1  1  0
  3  2  1  0
  4  3  1  0
  4  5  1  0
  5 17  1  0
  5  1  1  0
  6  7  2  0
  6 15  1  0
  8  7  1  0
  9 10  1  0
  9  8  2  0
 10  6  1  0
 11 12  2  0
 13 12  1  0
 14 13  2  0
 15 16  2  0
 15 14  1  0
 16 11  1  0
 17 21  1  0
 18 19  1  0
 18 17  2  0
 19 20  1  0
 20 21  2  0
  2 22  1  0
  2 23  1  0
  3 24  1  0
  3 25  1  0
  4 26  1  0
  4 27  1  0
  5 28  1  6
  7 29  1  0
  8 30  1  0
 11 31  1  0
 12 32  1  0
 13 33  1  0
 20 34  1  0
M  ISO  8  22  13  23  13  24  13  25  13  26  13  27  13  28  13  29  14
M  ISO  5  30  14  31  14  32  14  33  14  34  14
M  END
>  <minimizedAffinity>  (1) 
-5.24943542

>  <minimizedRMSD>  (1) 
1.17398047

$$$$
