
     RDKit          3D

 32 34  0  0  1  0  0  0  0  0999 V2000
   37.2390   21.7270   35.2940 C   0  0  0  0  0  0  0  0  0  0  0  0
   36.0410   21.0760   35.5150 C   0  0  0  0  0  0  0  0  0  0  0  0
   35.6110   20.5620   34.2800 C   0  0  0  0  0  0  0  0  0  0  0  0
   36.6140   20.9520   33.3740 C   0  0  0  0  0  0  0  0  0  0  0  0
   37.5230   21.6180   34.0030 O   0  0  0  0  0  0  0  0  0  0  0  0
   36.4470   20.5650   32.0150 N   0  0  0  0  0  0  0  0  0  0  0  0
   35.9550   19.2380   31.6310 C   0  0  0  0  0  0  0  0  0  0  0  0
   36.4600   18.9670   30.2490 C   0  0  0  0  0  0  0  0  0  0  0  0
   37.4530   20.1200   30.0430 C   0  0  0  0  0  0  0  0  0  0  0  0
   36.6680   21.2350   30.7230 C   0  0  2  0  0  0  0  0  0  0  0  0
   37.5470   22.4360   30.8590 C   0  0  0  0  0  0  0  0  0  0  0  0
   39.9350   22.7680   37.5360 C   0  0  0  0  0  0  0  0  0  0  0  0
   39.2700   23.5220   38.4900 C   0  0  0  0  0  0  0  0  0  0  0  0
   37.8780   23.6780   38.3660 C   0  0  0  0  0  0  0  0  0  0  0  0
   37.2010   23.0950   37.3220 N   0  0  0  0  0  0  0  0  0  0  0  0
   37.9170   22.3620   36.4160 C   0  0  0  0  0  0  0  0  0  0  0  0
   39.2250   22.2240   36.5450 N   0  0  0  0  0  0  0  0  0  0  0  0
   35.5202   20.9781   36.4789 H   0  0  0  0  0  0  0  0  0  0  0  0
   34.6979   19.9858   34.0695 H   0  0  0  0  0  0  0  0  0  0  0  0
   36.3362   18.4775   32.3283 H   0  0  0  0  0  0  0  0  0  0  0  0
   34.8560   19.2031   31.6611 H   0  0  0  0  0  0  0  0  0  0  0  0
   36.9631   17.9905   30.1912 H   0  0  0  0  0  0  0  0  0  0  0  0
   35.6678   18.9212   29.4873 H   0  0  0  0  0  0  0  0  0  0  0  0
   38.4151   19.9298   30.5413 H   0  0  0  0  0  0  0  0  0  0  0  0
   37.7430   20.3139   28.9998 H   0  0  0  0  0  0  0  0  0  0  0  0
   35.7583   21.6008   30.2244 H   0  0  0  0  0  0  0  0  0  0  0  0
   37.7069   22.6545   31.9252 H   0  0  0  0  0  0  0  0  0  0  0  0
   38.5153   22.2383   30.3760 H   0  0  0  0  0  0  0  0  0  0  0  0
   37.0658   23.2992   30.3760 H   0  0  0  0  0  0  0  0  0  0  0  0
   41.0236   22.6211   37.5941 H   0  0  0  0  0  0  0  0  0  0  0  0
   39.8174   23.9868   39.3233 H   0  0  0  0  0  0  0  0  0  0  0  0
   37.3268   24.2713   39.1105 H   0  0  0  0  0  0  0  0  0  0  0  0
  1  2  2  0
  1 16  1  0
  3  2  1  0
  4  5  1  0
  4  3  2  0
  5  1  1  0
  6  4  1  0
  7  6  1  0
  8  7  1  0
  9  8  1  0
  9 10  1  0
 10 11  1  0
 10  6  1  0
 12 13  2  0
 14 13  1  0
 15 14  2  0
 16 17  2  0
 16 15  1  0
 17 12  1  0
  2 18  1  0
  3 19  1  0
  7 20  1  0
  7 21  1  0
  8 22  1  0
  8 23  1  0
  9 24  1  0
  9 25  1  0
 10 26  1  6
 11 27  1  0
 11 28  1  0
 11 29  1  0
 12 30  1  0
 13 31  1  0
 14 32  1  0
M  ISO  8  18  14  19  14  20  13  21  13  22  13  23  13  24  13  25  13
M  ISO  7  26  13  27   8  28   8  29   8  30  14  31  14  32  14
M  END
>  <minimizedAffinity>  (1) 
-4.61900377

>  <minimizedRMSD>  (1) 
0.0456146114

$$$$
