
     RDKit          3D

 30 32  0  0  1  0  0  0  0  0999 V2000
   37.2590   21.9130   35.6040 C   0  0  0  0  0  0  0  0  0  0  0  0
   36.1350   21.1460   35.8960 C   0  0  0  0  0  0  0  0  0  0  0  0
   35.6470   20.6240   34.6910 C   0  0  0  0  0  0  0  0  0  0  0  0
   36.5250   21.1210   33.7380 C   0  0  0  0  0  0  0  0  0  0  0  0
   37.4370   21.8560   34.2980 O   0  0  0  0  0  0  0  0  0  0  0  0
   36.3130   20.7730   32.3670 N   0  0  0  0  0  0  0  0  0  0  0  0
   35.7830   19.4450   31.9960 C   0  0  0  0  0  0  0  0  0  0  0  0
   36.2350   19.1710   30.5970 C   0  0  0  0  0  0  0  0  0  0  0  0
   37.2180   20.3100   30.3440 C   0  0  0  0  0  0  0  0  0  0  0  0
   36.4880   21.4270   31.0730 C   0  0  1  0  0  0  0  0  0  0  0  0
   35.3120   21.7920   30.4760 O   0  0  0  0  0  0  0  0  0  0  0  0
   39.9410   22.8770   37.8750 C   0  0  0  0  0  0  0  0  0  0  0  0
   39.3230   23.7600   38.7470 C   0  0  0  0  0  0  0  0  0  0  0  0
   37.9550   24.0340   38.5580 C   0  0  0  0  0  0  0  0  0  0  0  0
   37.3070   23.4230   37.5310 N   0  0  0  0  0  0  0  0  0  0  0  0
   37.9490   22.5660   36.6990 C   0  0  0  0  0  0  0  0  0  0  0  0
   39.2440   22.3060   36.8810 N   0  0  0  0  0  0  0  0  0  0  0  0
   35.7061   20.9793   36.8951 H   0  0  0  0  0  0  0  0  0  0  0  0
   34.7736   19.9734   34.5366 H   0  0  0  0  0  0  0  0  0  0  0  0
   36.1767   18.6768   32.6778 H   0  0  0  0  0  0  0  0  0  0  0  0
   34.6854   19.4262   32.0655 H   0  0  0  0  0  0  0  0  0  0  0  0
   36.7317   18.1923   30.5233 H   0  0  0  0  0  0  0  0  0  0  0  0
   35.4120   19.1294   29.8684 H   0  0  0  0  0  0  0  0  0  0  0  0
   38.2053   20.1072   30.7846 H   0  0  0  0  0  0  0  0  0  0  0  0
   37.4474   20.5084   29.2866 H   0  0  0  0  0  0  0  0  0  0  0  0
   37.0142   22.3925   31.1043 H   0  0  0  0  0  0  0  0  0  0  0  0
   34.6395   22.0007   31.1719 H   0  0  0  0  0  0  0  0  0  0  0  0
   41.0087   22.6433   37.9988 H   0  0  0  0  0  0  0  0  0  0  0  0
   39.8863   24.2338   39.5645 H   0  0  0  0  0  0  0  0  0  0  0  0
   37.4226   24.7268   39.2262 H   0  0  0  0  0  0  0  0  0  0  0  0
  1  2  2  0
  1 16  1  0
  3  2  1  0
  4  5  1  0
  4  3  2  0
  5  1  1  0
  6  4  1  0
  7  6  1  0
  8  7  1  0
  9  8  1  0
  9 10  1  0
 10  6  1  0
 11 10  1  0
 12 13  2  0
 14 13  1  0
 15 14  2  0
 16 17  2  0
 16 15  1  0
 17 12  1  0
  2 18  1  0
  3 19  1  0
  7 20  1  0
  7 21  1  0
  8 22  1  0
  8 23  1  0
  9 24  1  0
  9 25  1  0
 10 26  1  1
 11 27  1  0
 12 28  1  0
 13 29  1  0
 14 30  1  0
M  ISO  8  18  14  19  14  20  13  21  13  22  13  23  13  24  13  25  13
M  ISO  5  26  13  27   3  28  14  29  14  30  14
M  END
>  <minimizedAffinity>  (1) 
-4.37839127

>  <minimizedRMSD>  (1) 
0.40529263

$$$$
