
     RDKit          3D

 36 39  0  0  1  0  0  0  0  0999 V2000
   36.6550   18.0400   31.7470 N   0  0  0  0  0  0  0  0  0  0  0  0
   35.7270   16.9480   32.1170 C   0  0  0  0  0  0  0  0  0  0  0  0
   36.5440   15.7090   32.2350 C   0  0  0  0  0  0  0  0  0  0  0  0
   37.9740   16.2470   32.1490 C   0  0  0  0  0  0  0  0  0  0  0  0
   37.7400   17.3300   31.0860 C   0  0  1  0  0  0  0  0  0  0  0  0
   36.1980   21.5480   32.1430 C   0  0  0  0  0  0  0  0  0  0  0  0
   35.4250   21.0510   33.2010 C   0  0  0  0  0  0  0  0  0  0  0  0
   35.5180   19.6510   33.1630 C   0  0  0  0  0  0  0  0  0  0  0  0
   36.3540   19.4040   32.0650 C   0  0  0  0  0  0  0  0  0  0  0  0
   36.7180   20.5160   31.5120 O   0  0  0  0  0  0  0  0  0  0  0  0
   37.3050   24.9940   32.5330 C   0  0  0  0  0  0  0  0  0  0  0  0
   36.4230   25.7160   31.7120 C   0  0  0  0  0  0  0  0  0  0  0  0
   35.4410   25.0010   31.0230 C   0  0  0  0  0  0  0  0  0  0  0  0
   35.3900   23.6520   31.1790 N   0  0  0  0  0  0  0  0  0  0  0  0
   36.2560   22.9890   31.9780 C   0  0  0  0  0  0  0  0  0  0  0  0
   37.1880   23.6580   32.6350 N   0  0  0  0  0  0  0  0  0  0  0  0
   37.3240   16.7150   29.8050 C   0  0  0  0  0  0  0  0  0  0  0  0
   37.7290   15.5230   29.2410 C   0  0  0  0  0  0  0  0  0  0  0  0
   37.0860   15.3610   28.0610 N   0  0  0  0  0  0  0  0  0  0  0  0
   36.2910   16.4410   27.8940 C   0  0  0  0  0  0  0  0  0  0  0  0
   36.4320   17.2610   28.9470 N   0  0  0  0  0  0  0  0  0  0  0  0
   35.2408   17.1737   33.0776 H   0  0  0  0  0  0  0  0  0  0  0  0
   34.9371   16.8288   31.3608 H   0  0  0  0  0  0  0  0  0  0  0  0
   36.3658   15.2052   33.1965 H   0  0  0  0  0  0  0  0  0  0  0  0
   36.3117   14.9554   31.4681 H   0  0  0  0  0  0  0  0  0  0  0  0
   38.3167   16.6702   33.1047 H   0  0  0  0  0  0  0  0  0  0  0  0
   38.7523   15.5056   31.9154 H   0  0  0  0  0  0  0  0  0  0  0  0
   38.6022   17.9543   30.8085 H   0  0  0  0  0  0  0  0  0  0  0  0
   34.8519   21.6472   33.9264 H   0  0  0  0  0  0  0  0  0  0  0  0
   35.0462   18.9200   33.8360 H   0  0  0  0  0  0  0  0  0  0  0  0
   38.0916   25.5214   33.0926 H   0  0  0  0  0  0  0  0  0  0  0  0
   36.5032   26.8088   31.6150 H   0  0  0  0  0  0  0  0  0  0  0  0
   34.7244   25.5185   30.3683 H   0  0  0  0  0  0  0  0  0  0  0  0
   38.4542   14.8207   29.6778 H   0  0  0  0  0  0  0  0  0  0  0  0
   35.6324   16.6197   27.0313 H   0  0  0  0  0  0  0  0  0  0  0  0
   35.9423   18.1573   29.0798 H   0  0  0  0  0  0  0  0  0  0  0  0
  1  9  1  0
  1  2  1  0
  2  3  1  0
  4  3  1  0
  5  1  1  0
  5  4  1  0
  6  7  2  0
  8  7  1  0
  9  8  2  0
 10  9  1  0
 10  6  1  0
 11 16  2  0
 12 11  1  0
 13 14  1  0
 13 12  2  0
 14 15  2  0
 15  6  1  0
 15 16  1  0
 17  5  1  0
 18 17  2  0
 19 18  1  0
 20 19  2  0
 20 21  1  0
 21 17  1  0
  2 22  1  0
  2 23  1  0
  3 24  1  0
  3 25  1  0
  4 26  1  0
  4 27  1  0
  5 28  1  6
  7 29  1  0
  8 30  1  0
 11 31  1  0
 12 32  1  0
 13 33  1  0
 18 34  1  0
 20 35  1  0
 21 36  1  0
M  ISO  8  22  13  23  13  24  13  25  13  26  13  27  13  28  13  29  14
M  ISO  7  30  14  31  14  32  14  33  14  34  14  35  14  36   9
M  END
>  <minimizedAffinity>  (1) 
-4.34358406

>  <minimizedRMSD>  (1) 
5.03292942

$$$$
