
     RDKit          3D

 42 45  0  0  1  0  0  0  0  0999 V2000
   37.2570   20.6350   31.7700 N   0  0  0  0  0  0  0  0  0  0  0  0
   36.0510   20.4530   30.9650 C   0  0  0  0  0  0  0  0  0  0  0  0
   36.3820   19.4770   29.8750 C   0  0  0  0  0  0  0  0  0  0  0  0
   37.7730   18.9980   30.3010 C   0  0  0  0  0  0  0  0  0  0  0  0
   38.3390   20.3000   30.8410 C   0  0  1  0  0  0  0  0  0  0  0  0
   37.5960   21.8400   35.1070 C   0  0  0  0  0  0  0  0  0  0  0  0
   36.2980   21.3190   35.1200 C   0  0  0  0  0  0  0  0  0  0  0  0
   36.0300   20.8020   33.8430 C   0  0  0  0  0  0  0  0  0  0  0  0
   37.2050   21.0530   33.1380 C   0  0  0  0  0  0  0  0  0  0  0  0
   38.0750   21.6480   33.9000 O   0  0  0  0  0  0  0  0  0  0  0  0
   39.9220   22.8030   37.7340 C   0  0  0  0  0  0  0  0  0  0  0  0
   39.1380   23.5230   38.6220 C   0  0  0  0  0  0  0  0  0  0  0  0
   37.7680   23.6870   38.3150 C   0  0  0  0  0  0  0  0  0  0  0  0
   37.2710   23.1320   37.1610 N   0  0  0  0  0  0  0  0  0  0  0  0
   38.0980   22.4360   36.3330 C   0  0  0  0  0  0  0  0  0  0  0  0
   39.3820   22.2840   36.6240 N   0  0  0  0  0  0  0  0  0  0  0  0
   38.5330   21.3320   29.7780 C   0  0  0  0  0  0  0  0  0  0  0  0
   39.1520   22.5540   30.4400 C   0  0  0  0  0  0  0  0  0  0  0  0
   40.5400   22.1520   30.8280 C   0  0  0  0  0  0  0  0  0  0  0  0
   40.9380   21.0910   29.8280 C   0  0  0  0  0  0  0  0  0  0  0  0
   39.7350   20.8630   28.9460 C   0  0  0  0  0  0  0  0  0  0  0  0
   35.2378   20.0564   31.5906 H   0  0  0  0  0  0  0  0  0  0  0  0
   35.7194   21.4119   30.5401 H   0  0  0  0  0  0  0  0  0  0  0  0
   36.4108   19.9686   28.8914 H   0  0  0  0  0  0  0  0  0  0  0  0
   35.6459   18.6676   29.7610 H   0  0  0  0  0  0  0  0  0  0  0  0
   37.7183   18.2218   31.0785 H   0  0  0  0  0  0  0  0  0  0  0  0
   38.3674   18.5265   29.5046 H   0  0  0  0  0  0  0  0  0  0  0  0
   39.3438   20.2363   31.2841 H   0  0  0  0  0  0  0  0  0  0  0  0
   35.6099   21.3152   35.9782 H   0  0  0  0  0  0  0  0  0  0  0  0
   35.1113   20.3148   33.4844 H   0  0  0  0  0  0  0  0  0  0  0  0
   40.9923   22.6574   37.9421 H   0  0  0  0  0  0  0  0  0  0  0  0
   39.5690   23.9537   39.5378 H   0  0  0  0  0  0  0  0  0  0  0  0
   37.1089   24.2514   38.9910 H   0  0  0  0  0  0  0  0  0  0  0  0
   37.5892   21.5038   29.2397 H   0  0  0  0  0  0  0  0  0  0  0  0
   39.1812   23.3976   29.7346 H   0  0  0  0  0  0  0  0  0  0  0  0
   38.5673   22.8798   31.3129 H   0  0  0  0  0  0  0  0  0  0  0  0
   41.2219   23.0131   30.7691 H   0  0  0  0  0  0  0  0  0  0  0  0
   40.5871   21.7810   31.8625 H   0  0  0  0  0  0  0  0  0  0  0  0
   41.7910   21.4369   29.2257 H   0  0  0  0  0  0  0  0  0  0  0  0
   41.2438   20.1626   30.3326 H   0  0  0  0  0  0  0  0  0  0  0  0
   39.6376   19.7967   28.6941 H   0  0  0  0  0  0  0  0  0  0  0  0
   39.8138   21.4073   27.9934 H   0  0  0  0  0  0  0  0  0  0  0  0
  1  9  1  0
  2  1  1  0
  3  4  1  0
  3  2  1  0
  4  5  1  0
  5  1  1  0
  6  7  2  0
  6 15  1  0
  8  7  1  0
  9  8  2  0
  9 10  1  0
 10  6  1  0
 11 12  2  0
 13 12  1  0
 14 13  2  0
 15 16  2  0
 15 14  1  0
 16 11  1  0
 17 18  1  0
 17  5  1  0
 18 19  1  0
 20 19  1  0
 21 17  1  0
 21 20  1  0
  2 22  1  0
  2 23  1  0
  3 24  1  0
  3 25  1  0
  4 26  1  0
  4 27  1  0
  5 28  1  1
  7 29  1  0
  8 30  1  0
 11 31  1  0
 12 32  1  0
 13 33  1  0
 17 34  1  0
 18 35  1  0
 18 36  1  0
 19 37  1  0
 19 38  1  0
 20 39  1  0
 20 40  1  0
 21 41  1  0
 21 42  1  0
M  ISO  8  22  13  23  13  24  13  25  13  26  13  27  13  28  13  29  14
M  ISO  8  30  14  31  14  32  14  33  14  34  13  35  13  36  13  37  13
M  ISO  5  38  13  39  13  40  13  41  13  42  13
M  END
>  <minimizedAffinity>  (1) 
-4.33012533

>  <minimizedRMSD>  (1) 
2.5315845

$$$$
