
     RDKit          3D

 48 52  0  0  1  0  0  0  0  0999 V2000
   36.2090   20.5240   32.2530 N   0  0  0  0  0  0  0  0  0  0  0  0
   36.2820   19.0970   31.8470 C   0  0  0  0  0  0  0  0  0  0  0  0
   36.5780   19.0630   30.3990 C   0  0  0  0  0  0  0  0  0  0  0  0
   36.8430   20.5330   30.0900 C   0  0  0  0  0  0  0  0  0  0  0  0
   35.8520   21.1980   31.0020 C   0  0  2  0  0  0  0  0  0  0  0  0
   37.2350   21.7580   35.4230 C   0  0  0  0  0  0  0  0  0  0  0  0
   36.0410   21.1120   35.7530 C   0  0  0  0  0  0  0  0  0  0  0  0
   35.5180   20.5690   34.5750 C   0  0  0  0  0  0  0  0  0  0  0  0
   36.4570   20.9360   33.5980 C   0  0  0  0  0  0  0  0  0  0  0  0
   37.4050   21.6050   34.1310 O   0  0  0  0  0  0  0  0  0  0  0  0
   40.0350   22.7440   37.5260 C   0  0  0  0  0  0  0  0  0  0  0  0
   39.4530   23.5720   38.4820 C   0  0  0  0  0  0  0  0  0  0  0  0
   38.0620   23.7950   38.3970 C   0  0  0  0  0  0  0  0  0  0  0  0
   37.3420   23.2030   37.4020 N   0  0  0  0  0  0  0  0  0  0  0  0
   37.9650   22.4020   36.4930 C   0  0  0  0  0  0  0  0  0  0  0  0
   39.2870   22.1860   36.5660 N   0  0  0  0  0  0  0  0  0  0  0  0
   36.1980   22.6110   31.1570 C   0  0  0  0  0  0  0  0  0  0  0  0
   35.3950   23.6440   31.4960 C   0  0  0  0  0  0  0  0  0  0  0  0
   36.1950   24.8010   31.4860 C   0  0  0  0  0  0  0  0  0  0  0  0
   37.4420   24.4030   31.1420 N   0  0  0  0  0  0  0  0  0  0  0  0
   37.4520   23.0830   30.9410 N   0  0  0  0  0  0  0  0  0  0  0  0
   38.5270   26.1170   29.8320 N   0  0  0  0  0  0  0  0  0  0  0  0
   39.1230   27.3800   30.1460 C   0  0  0  0  0  0  0  0  0  0  0  0
   39.7170   27.2400   31.5420 C   0  0  0  0  0  0  0  0  0  0  0  0
   38.6680   26.3010   32.1570 C   0  0  0  0  0  0  0  0  0  0  0  0
   38.5710   25.3000   31.0180 C   0  0  1  0  0  0  0  0  0  0  0  0
   37.0808   18.5876   32.4059 H   0  0  0  0  0  0  0  0  0  0  0  0
   35.3330   18.5836   32.0612 H   0  0  0  0  0  0  0  0  0  0  0  0
   37.4630   18.4450   30.1872 H   0  0  0  0  0  0  0  0  0  0  0  0
   35.7719   18.6228   29.7936 H   0  0  0  0  0  0  0  0  0  0  0  0
   37.8759   20.8186   30.3381 H   0  0  0  0  0  0  0  0  0  0  0  0
   36.7349   20.8010   29.0286 H   0  0  0  0  0  0  0  0  0  0  0  0
   34.8026   21.1399   30.6774 H   0  0  0  0  0  0  0  0  0  0  0  0
   35.5941   21.0431   36.7557 H   0  0  0  0  0  0  0  0  0  0  0  0
   34.5909   19.9914   34.4449 H   0  0  0  0  0  0  0  0  0  0  0  0
   41.1167   22.5469   37.5596 H   0  0  0  0  0  0  0  0  0  0  0  0
   40.0563   24.0363   39.2760 H   0  0  0  0  0  0  0  0  0  0  0  0
   37.5608   24.4437   39.1305 H   0  0  0  0  0  0  0  0  0  0  0  0
   34.3224   23.5903   31.7339 H   0  0  0  0  0  0  0  0  0  0  0  0
   35.8708   25.8273   31.7131 H   0  0  0  0  0  0  0  0  0  0  0  0
   37.5495   26.2547   29.5378 H   0  0  0  0  0  0  0  0  0  0  0  0
   39.9128   27.6193   29.4187 H   0  0  0  0  0  0  0  0  0  0  0  0
   38.3814   28.1915   30.1077 H   0  0  0  0  0  0  0  0  0  0  0  0
   40.7174   26.7831   31.5206 H   0  0  0  0  0  0  0  0  0  0  0  0
   39.8818   28.1837   32.0826 H   0  0  0  0  0  0  0  0  0  0  0  0
   39.0226   25.8362   33.0888 H   0  0  0  0  0  0  0  0  0  0  0  0
   37.7223   26.7733   32.4612 H   0  0  0  0  0  0  0  0  0  0  0  0
   39.4251   24.6069   31.0041 H   0  0  0  0  0  0  0  0  0  0  0  0
  1  9  1  0
  2  1  1  0
  3  2  1  0
  4  3  1  0
  4  5  1  0
  5 17  1  0
  5  1  1  0
  6  7  2  0
  6 15  1  0
  8  7  1  0
  9 10  1  0
  9  8  2  0
 10  6  1  0
 11 12  2  0
 13 12  1  0
 14 13  2  0
 15 16  2  0
 15 14  1  0
 16 11  1  0
 17 18  1  0
 19 18  2  0
 20 19  1  0
 21 20  1  0
 21 17  2  0
 22 23  1  0
 22 26  1  0
 23 24  1  0
 24 25  1  0
 26 20  1  0
 26 25  1  0
  2 27  1  0
  2 28  1  0
  3 29  1  0
  3 30  1  0
  4 31  1  0
  4 32  1  0
  5 33  1  6
  7 34  1  0
  8 35  1  0
 11 36  1  0
 12 37  1  0
 13 38  1  0
 18 39  1  0
 19 40  1  0
 22 41  1  0
 23 42  1  0
 23 43  1  0
 24 44  1  0
 24 45  1  0
 25 46  1  0
 25 47  1  0
 26 48  1  6
M  ISO  8  27  13  28  13  29  13  30  13  31  13  32  13  33  13  34  14
M  ISO  8  35  14  36  14  37  14  38  14  39  14  40  14  41   5  42  13
M  ISO  6  43  13  44  13  45  13  46  13  47  13  48  13
M  END
>  <minimizedAffinity>  (1) 
-5.9860487

>  <minimizedRMSD>  (1) 
0.121832706

$$$$
