
     RDKit          3D

 45 49  0  0  1  0  0  0  0  0999 V2000
   36.4020   20.5830   32.1750 N   0  0  0  0  0  0  0  0  0  0  0  0
   36.6450   19.1890   31.7360 C   0  0  0  0  0  0  0  0  0  0  0  0
   36.9590   19.2330   30.2930 C   0  0  0  0  0  0  0  0  0  0  0  0
   37.0620   20.7290   30.0320 C   0  0  0  0  0  0  0  0  0  0  0  0
   35.9810   21.2490   30.9390 C   0  0  2  0  0  0  0  0  0  0  0  0
   37.2690   21.7970   35.4000 C   0  0  0  0  0  0  0  0  0  0  0  0
   36.0770   21.1240   35.6780 C   0  0  0  0  0  0  0  0  0  0  0  0
   35.6160   20.5870   34.4710 C   0  0  0  0  0  0  0  0  0  0  0  0
   36.5870   20.9850   33.5350 C   0  0  0  0  0  0  0  0  0  0  0  0
   37.4990   21.6660   34.1150 O   0  0  0  0  0  0  0  0  0  0  0  0
   39.9550   22.7910   37.6490 C   0  0  0  0  0  0  0  0  0  0  0  0
   39.3310   23.6270   38.5670 C   0  0  0  0  0  0  0  0  0  0  0  0
   37.9470   23.8580   38.4100 C   0  0  0  0  0  0  0  0  0  0  0  0
   37.2740   23.2630   37.3790 N   0  0  0  0  0  0  0  0  0  0  0  0
   37.9480   22.4460   36.5040 C   0  0  0  0  0  0  0  0  0  0  0  0
   39.2620   22.2280   36.6530 N   0  0  0  0  0  0  0  0  0  0  0  0
   36.1590   22.6870   31.1350 C   0  0  0  0  0  0  0  0  0  0  0  0
   35.2380   23.6230   31.4480 C   0  0  0  0  0  0  0  0  0  0  0  0
   35.9010   24.8570   31.5020 C   0  0  0  0  0  0  0  0  0  0  0  0
   37.1990   24.6040   31.2160 N   0  0  0  0  0  0  0  0  0  0  0  0
   37.3610   23.3000   30.9940 N   0  0  0  0  0  0  0  0  0  0  0  0
   38.3220   25.4860   31.1300 C   0  0  0  0  0  0  0  0  0  0  0  0
   38.5500   26.2650   32.2450 C   0  0  0  0  0  0  0  0  0  0  0  0
   39.6150   27.1470   32.2500 C   0  0  0  0  0  0  0  0  0  0  0  0
   40.4640   27.2620   31.1450 C   0  0  0  0  0  0  0  0  0  0  0  0
   40.1800   26.4530   30.0630 C   0  0  0  0  0  0  0  0  0  0  0  0
   39.1440   25.5950   30.0590 N   0  0  0  0  0  0  0  0  0  0  0  0
   37.4915   18.7608   32.2929 H   0  0  0  0  0  0  0  0  0  0  0  0
   35.7616   18.5611   31.9241 H   0  0  0  0  0  0  0  0  0  0  0  0
   37.9096   18.7239   30.0760 H   0  0  0  0  0  0  0  0  0  0  0  0
   36.2138   18.7251   29.6632 H   0  0  0  0  0  0  0  0  0  0  0  0
   38.0502   21.1218   30.3135 H   0  0  0  0  0  0  0  0  0  0  0  0
   36.9474   21.0158   28.9763 H   0  0  0  0  0  0  0  0  0  0  0  0
   34.9492   21.0813   30.5967 H   0  0  0  0  0  0  0  0  0  0  0  0
   35.5919   21.0332   36.6611 H   0  0  0  0  0  0  0  0  0  0  0  0
   34.7071   19.9928   34.2955 H   0  0  0  0  0  0  0  0  0  0  0  0
   41.0324   22.5897   37.7426 H   0  0  0  0  0  0  0  0  0  0  0  0
   39.8959   24.0928   39.3879 H   0  0  0  0  0  0  0  0  0  0  0  0
   37.4127   24.5134   39.1136 H   0  0  0  0  0  0  0  0  0  0  0  0
   34.1666   23.4497   31.6273 H   0  0  0  0  0  0  0  0  0  0  0  0
   35.4548   25.8360   31.7312 H   0  0  0  0  0  0  0  0  0  0  0  0
   37.8909   26.1855   33.1221 H   0  0  0  0  0  0  0  0  0  0  0  0
   39.7974   27.7690   33.1388 H   0  0  0  0  0  0  0  0  0  0  0  0
   41.3137   27.9605   31.1382 H   0  0  0  0  0  0  0  0  0  0  0  0
   40.8235   26.5121   29.1728 H   0  0  0  0  0  0  0  0  0  0  0  0
  1  9  1  0
  2  1  1  0
  3  2  1  0
  4  3  1  0
  4  5  1  0
  5 17  1  0
  5  1  1  0
  6  7  2  0
  6 15  1  0
  8  7  1  0
  9 10  1  0
  9  8  2  0
 10  6  1  0
 11 12  2  0
 13 12  1  0
 14 13  2  0
 15 16  2  0
 15 14  1  0
 16 11  1  0
 17 18  1  0
 18 19  2  0
 20 19  1  0
 21 17  2  0
 21 20  1  0
 22 20  1  0
 22 23  2  0
 23 24  1  0
 25 24  2  0
 26 25  1  0
 27 26  2  0
 27 22  1  0
  2 28  1  0
  2 29  1  0
  3 30  1  0
  3 31  1  0
  4 32  1  0
  4 33  1  0
  5 34  1  6
  7 35  1  0
  8 36  1  0
 11 37  1  0
 12 38  1  0
 13 39  1  0
 18 40  1  0
 19 41  1  0
 23 42  1  0
 24 43  1  0
 25 44  1  0
 26 45  1  0
M  ISO  8  28  13  29  13  30  13  31  13  32  13  33  13  34  13  35  14
M  ISO  8  36  14  37  14  38  14  39  14  40  14  41  14  42  14  43  14
M  ISO  2  44  14  45  14
M  END
>  <minimizedAffinity>  (1) 
-5.86623335

>  <minimizedRMSD>  (1) 
0.560157001

$$$$
