
     RDKit          3D

 43 47  0  0  1  0  0  0  0  0999 V2000
   36.3650   20.4880   32.1970 N   0  0  0  0  0  0  0  0  0  0  0  0
   36.6040   19.0800   31.7820 C   0  0  0  0  0  0  0  0  0  0  0  0
   36.9080   19.0960   30.3350 C   0  0  0  0  0  0  0  0  0  0  0  0
   37.0020   20.5830   30.0370 C   0  0  0  0  0  0  0  0  0  0  0  0
   35.9380   21.1250   30.9480 C   0  0  2  0  0  0  0  0  0  0  0  0
   37.2650   21.7530   35.3910 C   0  0  0  0  0  0  0  0  0  0  0  0
   36.0520   21.1190   35.6810 C   0  0  0  0  0  0  0  0  0  0  0  0
   35.5790   20.5660   34.4870 C   0  0  0  0  0  0  0  0  0  0  0  0
   36.5600   20.9150   33.5460 C   0  0  0  0  0  0  0  0  0  0  0  0
   37.4900   21.5840   34.1090 O   0  0  0  0  0  0  0  0  0  0  0  0
   39.9920   22.7810   37.5730 C   0  0  0  0  0  0  0  0  0  0  0  0
   39.3790   23.6030   38.5100 C   0  0  0  0  0  0  0  0  0  0  0  0
   37.9890   23.8120   38.3890 C   0  0  0  0  0  0  0  0  0  0  0  0
   37.2970   23.2110   37.3740 N   0  0  0  0  0  0  0  0  0  0  0  0
   37.9610   22.4110   36.4820 C   0  0  0  0  0  0  0  0  0  0  0  0
   39.2810   22.2100   36.5910 N   0  0  0  0  0  0  0  0  0  0  0  0
   36.1260   22.5670   31.1120 C   0  0  0  0  0  0  0  0  0  0  0  0
   35.2160   23.5000   31.4760 C   0  0  0  0  0  0  0  0  0  0  0  0
   35.8640   24.7400   31.4730 C   0  0  0  0  0  0  0  0  0  0  0  0
   37.1440   24.4930   31.1020 N   0  0  0  0  0  0  0  0  0  0  0  0
   37.3120   23.1840   30.8820 N   0  0  0  0  0  0  0  0  0  0  0  0
   38.2840   25.3620   30.9200 C   0  0  0  0  0  0  0  0  0  0  0  0
   38.5190   26.4710   31.7920 C   0  0  0  0  0  0  0  0  0  0  0  0
   39.6320   27.2250   31.5220 C   0  0  0  0  0  0  0  0  0  0  0  0
   40.4880   26.9320   30.4600 C   0  0  0  0  0  0  0  0  0  0  0  0
   39.6180   25.3900   29.7400 S   0  0  0  0  0  0  0  0  0  0  0  0
   37.4539   18.6615   32.3410 H   0  0  0  0  0  0  0  0  0  0  0  0
   35.7213   18.4569   31.9886 H   0  0  0  0  0  0  0  0  0  0  0  0
   37.8597   18.5868   30.1228 H   0  0  0  0  0  0  0  0  0  0  0  0
   36.1591   18.5719   29.7230 H   0  0  0  0  0  0  0  0  0  0  0  0
   37.9943   20.9841   30.2911 H   0  0  0  0  0  0  0  0  0  0  0  0
   36.8668   20.8427   28.9767 H   0  0  0  0  0  0  0  0  0  0  0  0
   34.9027   20.9508   30.6198 H   0  0  0  0  0  0  0  0  0  0  0  0
   35.5620   21.0656   36.6644 H   0  0  0  0  0  0  0  0  0  0  0  0
   34.6549   19.9921   34.3236 H   0  0  0  0  0  0  0  0  0  0  0  0
   41.0745   22.5965   37.6378 H   0  0  0  0  0  0  0  0  0  0  0  0
   39.9572   24.0746   39.3183 H   0  0  0  0  0  0  0  0  0  0  0  0
   37.4634   24.4565   39.1090 H   0  0  0  0  0  0  0  0  0  0  0  0
   34.1610   23.3172   31.7279 H   0  0  0  0  0  0  0  0  0  0  0  0
   35.4239   25.7171   31.7213 H   0  0  0  0  0  0  0  0  0  0  0  0
   37.8463   26.7054   32.6302 H   0  0  0  0  0  0  0  0  0  0  0  0
   39.8574   28.0894   32.1639 H   0  0  0  0  0  0  0  0  0  0  0  0
   41.4043   27.4436   30.1303 H   0  0  0  0  0  0  0  0  0  0  0  0
  1  9  1  0
  2  1  1  0
  3  2  1  0
  4  3  1  0
  4  5  1  0
  5 17  1  0
  5  1  1  0
  6  7  2  0
  6 15  1  0
  8  7  1  0
  9 10  1  0
  9  8  2  0
 10  6  1  0
 11 12  2  0
 13 12  1  0
 14 13  2  0
 15 16  2  0
 15 14  1  0
 16 11  1  0
 17 18  1  0
 19 18  2  0
 20 19  1  0
 21 20  1  0
 21 17  2  0
 22 20  1  0
 22 23  2  0
 24 23  1  0
 25 24  2  0
 26 25  1  0
 26 22  1  0
  2 27  1  0
  2 28  1  0
  3 29  1  0
  3 30  1  0
  4 31  1  0
  4 32  1  0
  5 33  1  6
  7 34  1  0
  8 35  1  0
 11 36  1  0
 12 37  1  0
 13 38  1  0
 18 39  1  0
 19 40  1  0
 23 41  1  0
 24 42  1  0
 25 43  1  0
M  ISO  8  27  13  28  13  29  13  30  13  31  13  32  13  33  13  34  14
M  ISO  8  35  14  36  14  37  14  38  14  39  14  40  14  41  14  42  14
M  ISO  1  43  14
M  END
>  <minimizedAffinity>  (1) 
-5.68026781

>  <minimizedRMSD>  (1) 
0.402838737

$$$$
