
     RDKit          3D

 19 19  0  0  0  0  0  0  0  0999 V2000
   40.3500   23.4210   35.7790 C   0  0  0  0  0  0  0  0  0  0  0  0
   39.4890   24.3740   35.2000 C   0  0  0  0  0  0  0  0  0  0  0  0
   38.3700   24.7810   35.9410 C   0  0  0  0  0  0  0  0  0  0  0  0
   38.1700   24.2390   37.1790 N   0  0  0  0  0  0  0  0  0  0  0  0
   39.0190   23.3330   37.6880 C   0  0  0  0  0  0  0  0  0  0  0  0
   40.1020   22.9150   37.0160 N   0  0  0  0  0  0  0  0  0  0  0  0
   38.7610   22.8020   38.9850 N   0  0  0  0  0  0  0  0  0  0  0  0
   37.4700   25.7390   35.4020 N   0  0  0  0  0  0  0  0  0  0  0  0
   37.7590   27.1280   35.5060 C   0  0  0  0  0  0  0  0  0  0  0  0
   38.5840   27.5700   36.3930 N   0  0  0  0  0  0  0  0  0  0  0  0
   37.0980   27.9790   34.5940 N   0  0  0  0  0  0  0  0  0  0  0  0
   38.8750   28.5640   36.4760 H   0  0  0  0  0  0  0  0  0  0  0  0
   41.2357   23.0815   35.2220 H   0  0  0  0  0  0  0  0  0  0  0  0
   39.6879   24.7854   34.1994 H   0  0  0  0  0  0  0  0  0  0  0  0
   39.4009   22.1056   39.3930 H   0  0  0  0  0  0  0  0  0  0  0  0
   37.9346   23.1146   39.5144 H   0  0  0  0  0  0  0  0  0  0  0  0
   36.6065   25.4272   34.9350 H   0  0  0  0  0  0  0  0  0  0  0  0
   37.2676   28.9946   34.6215 H   0  0  0  0  0  0  0  0  0  0  0  0
   36.4461   27.5843   33.9011 H   0  0  0  0  0  0  0  0  0  0  0  0
  1  6  2  0
  2  1  1  0
  2  3  2  0
  3  4  1  0
  4  5  2  0
  5  7  1  0
  6  5  1  0
  8  9  1  0
  8  3  1  0
  9 10  2  0
 10 12  1  0
 11  9  1  0
  1 13  1  0
  2 14  1  0
  7 15  1  0
  7 16  1  0
  8 17  1  0
 11 18  1  0
 11 19  1  0
M  ISO  2  13  14  14  14
M  END
>  <minimizedAffinity>  (1) 
-4.16785765

>  <minimizedRMSD>  (1) 
0.670117021

$$$$
