
     RDKit          3D

 21 21  0  0  0  0  0  0  0  0999 V2000
   37.8480   24.5520   38.2080 C   0  0  0  0  0  0  0  0  0  0  0  0
   38.5010   23.3200   38.2110 C   0  0  0  0  0  0  0  0  0  0  0  0
   39.2650   22.9780   37.0910 C   0  0  0  0  0  0  0  0  0  0  0  0
   39.3390   23.8430   36.0660 N   0  0  0  0  0  0  0  0  0  0  0  0
   38.6980   25.0370   36.0800 C   0  0  0  0  0  0  0  0  0  0  0  0
   37.9640   25.3820   37.1400 N   0  0  0  0  0  0  0  0  0  0  0  0
   39.9700   21.7290   37.0110 N   0  0  0  0  0  0  0  0  0  0  0  0
   41.3710   21.7070   37.2320 C   0  0  0  0  0  0  0  0  0  0  0  0
   42.1020   22.7770   37.0590 N   0  0  0  0  0  0  0  0  0  0  0  0
   41.9470   20.4720   37.6490 N   0  0  0  0  0  0  0  0  0  0  0  0
   43.1210   22.8230   37.2340 H   0  0  0  0  0  0  0  0  0  0  0  0
   38.7980   25.9790   34.9270 C   0  0  0  0  0  0  0  0  0  0  0  0
   39.6330   27.0010   35.3030 F   0  0  0  0  0  0  0  0  0  0  0  0
   39.2880   25.3450   33.8130 F   0  0  0  0  0  0  0  0  0  0  0  0
   37.5300   26.4850   34.5970 F   0  0  0  0  0  0  0  0  0  0  0  0
   38.4110   22.4390   39.2820 O   0  0  0  0  0  0  0  0  0  0  0  0
   37.2377   24.8519   39.0726 H   0  0  0  0  0  0  0  0  0  0  0  0
   39.4635   20.8584   36.7954 H   0  0  0  0  0  0  0  0  0  0  0  0
   42.9605   20.4087   37.8215 H   0  0  0  0  0  0  0  0  0  0  0  0
   41.3498   19.6427   37.7779 H   0  0  0  0  0  0  0  0  0  0  0  0
   38.8878   21.5719   39.2511 H   0  0  0  0  0  0  0  0  0  0  0  0
  1  2  2  0
  2 16  1  0
  3  2  1  0
  4  5  1  0
  4  3  2  0
  5  6  2  0
  6  1  1  0
  7  3  1  0
  7  8  1  0
  8 10  1  0
  9  8  2  0
  9 11  1  0
 12 13  1  0
 12  5  1  0
 14 12  1  0
 15 12  1  0
  1 17  1  0
  7 18  1  0
 10 19  1  0
 10 20  1  0
 16 21  1  0
M  ISO  2  17  14  21   3
M  END
>  <minimizedAffinity>  (1) 
-5.18202305

>  <minimizedRMSD>  (1) 
0.48168087

$$$$
