
     RDKit          3D

 22 22  0  0  0  0  0  0  0  0999 V2000
   38.0000   24.6080   37.5920 C   0  0  0  0  0  0  0  0  0  0  0  0
   38.6370   23.3950   37.8470 C   0  0  0  0  0  0  0  0  0  0  0  0
   39.4320   22.8550   36.8320 C   0  0  0  0  0  0  0  0  0  0  0  0
   39.5390   23.5250   35.6700 N   0  0  0  0  0  0  0  0  0  0  0  0
   38.9130   24.6930   35.4500 C   0  0  0  0  0  0  0  0  0  0  0  0
   38.1500   25.2230   36.4100 N   0  0  0  0  0  0  0  0  0  0  0  0
   40.1350   21.6050   36.9930 N   0  0  0  0  0  0  0  0  0  0  0  0
   41.5140   21.6260   37.2740 C   0  0  0  0  0  0  0  0  0  0  0  0
   42.2670   22.6440   36.9520 N   0  0  0  0  0  0  0  0  0  0  0  0
   42.0590   20.4780   37.9320 N   0  0  0  0  0  0  0  0  0  0  0  0
   43.2810   22.7080   37.1220 H   0  0  0  0  0  0  0  0  0  0  0  0
   39.0600   25.4070   34.1420 C   0  0  0  0  0  0  0  0  0  0  0  0
   39.4610   26.6900   34.4200 F   0  0  0  0  0  0  0  0  0  0  0  0
   39.9820   24.7960   33.3440 F   0  0  0  0  0  0  0  0  0  0  0  0
   37.8320   25.4220   33.4610 F   0  0  0  0  0  0  0  0  0  0  0  0
   38.5680   22.6360   39.0460 N   0  0  0  0  0  0  0  0  0  0  0  0
   37.3682   25.0652   38.3677 H   0  0  0  0  0  0  0  0  0  0  0  0
   39.6343   20.7094   36.9035 H   0  0  0  0  0  0  0  0  0  0  0  0
   43.0628   20.4434   38.1602 H   0  0  0  0  0  0  0  0  0  0  0  0
   41.4475   19.6864   38.1774 H   0  0  0  0  0  0  0  0  0  0  0  0
   39.0836   21.7477   39.1236 H   0  0  0  0  0  0  0  0  0  0  0  0
   38.0024   22.9740   39.8377 H   0  0  0  0  0  0  0  0  0  0  0  0
  1  2  2  0
  2 16  1  0
  3  7  1  0
  3  2  1  0
  4  3  2  0
  5  4  1  0
  5  6  2  0
  6  1  1  0
  7  8  1  0
  8 10  1  0
  9 11  1  0
  9  8  2  0
 12 13  1  0
 12  5  1  0
 14 12  1  0
 15 12  1  0
  1 17  1  0
  7 18  1  0
 10 19  1  0
 10 20  1  0
 16 21  1  0
 16 22  1  0
M  ISO  1  17  14
M  END
>  <minimizedAffinity>  (1) 
-5.04950762

>  <minimizedRMSD>  (1) 
1.08020067

$$$$
