
     RDKit          3D

 28 29  0  0  0  0  0  0  0  0999 V2000
   37.7500   26.8440   35.6360 C   0  0  0  0  0  0  0  0  0  0  0  0
   37.9580   25.5070   35.2380 C   0  0  0  0  0  0  0  0  0  0  0  0
   37.6260   25.1800   33.9290 C   0  0  0  0  0  0  0  0  0  0  0  0
   37.1290   26.1470   33.1210 N   0  0  0  0  0  0  0  0  0  0  0  0
   36.9440   27.4130   33.5350 C   0  0  0  0  0  0  0  0  0  0  0  0
   37.2540   27.7500   34.7850 N   0  0  0  0  0  0  0  0  0  0  0  0
   37.7880   23.8630   33.4050 N   0  0  0  0  0  0  0  0  0  0  0  0
   38.9230   23.5880   32.5740 C   0  0  0  0  0  0  0  0  0  0  0  0
   39.5170   24.5240   31.8980 N   0  0  0  0  0  0  0  0  0  0  0  0
   39.3530   22.2180   32.5410 N   0  0  0  0  0  0  0  0  0  0  0  0
   40.3290   24.3770   31.2870 H   0  0  0  0  0  0  0  0  0  0  0  0
   38.4990   24.6060   36.2330 C   0  0  0  0  0  0  0  0  0  0  0  0
   38.0810   24.3110   37.4860 C   0  0  0  0  0  0  0  0  0  0  0  0
   38.6630   23.4370   38.3630 C   0  0  0  0  0  0  0  0  0  0  0  0
   39.7820   22.7740   37.9690 N   0  0  0  0  0  0  0  0  0  0  0  0
   40.2230   23.0390   36.7390 C   0  0  0  0  0  0  0  0  0  0  0  0
   39.6040   23.9050   35.9380 N   0  0  0  0  0  0  0  0  0  0  0  0
   36.3900   28.4480   32.6040 C   0  0  0  0  0  0  0  0  0  0  0  0
   37.3510   28.7280   31.6750 F   0  0  0  0  0  0  0  0  0  0  0  0
   35.2390   28.0090   32.0050 F   0  0  0  0  0  0  0  0  0  0  0  0
   36.0750   29.6160   33.3180 F   0  0  0  0  0  0  0  0  0  0  0  0
   37.9997   27.1473   36.6635 H   0  0  0  0  0  0  0  0  0  0  0  0
   37.1029   23.1244   33.6196 H   0  0  0  0  0  0  0  0  0  0  0  0
   40.1625   21.9460   31.9652 H   0  0  0  0  0  0  0  0  0  0  0  0
   38.8518   21.5075   33.0932 H   0  0  0  0  0  0  0  0  0  0  0  0
   37.1765   24.8295   37.8368 H   0  0  0  0  0  0  0  0  0  0  0  0
   38.2353   23.2747   39.3634 H   0  0  0  0  0  0  0  0  0  0  0  0
   41.1257   22.5269   36.3744 H   0  0  0  0  0  0  0  0  0  0  0  0
  2  1  2  0
  2 12  1  0
  3  2  1  0
  4  5  1  0
  4  3  2  0
  5  6  2  0
  6  1  1  0
  7  3  1  0
  8  7  1  0
  9  8  2  0
 10  8  1  0
 11  9  1  0
 12 13  2  0
 13 14  1  0
 15 14  2  0
 16 15  1  0
 17 12  1  0
 17 16  2  0
 18 21  1  0
 18  5  1  0
 19 18  1  0
 20 18  1  0
  1 22  1  0
  7 23  1  0
 10 24  1  0
 10 25  1  0
 13 26  1  0
 14 27  1  0
 16 28  1  0
M  ISO  4  22  14  26  14  27  14  28  14
M  END
>  <minimizedAffinity>  (1) 
-4.99539042

>  <minimizedRMSD>  (1) 
4.66725159

$$$$
