
     RDKit          3D

 27 28  0  0  0  0  0  0  0  0999 V2000
   38.5820   24.3090   36.5480 C   0  0  0  0  0  0  0  0  0  0  0  0
   39.7670   24.0010   35.8830 C   0  0  0  0  0  0  0  0  0  0  0  0
   40.1660   24.8330   34.8330 C   0  0  0  0  0  0  0  0  0  0  0  0
   39.3980   25.8880   34.5120 N   0  0  0  0  0  0  0  0  0  0  0  0
   38.2460   26.1670   35.1760 C   0  0  0  0  0  0  0  0  0  0  0  0
   37.8470   25.3810   36.1850 N   0  0  0  0  0  0  0  0  0  0  0  0
   41.3750   24.5920   34.0890 N   0  0  0  0  0  0  0  0  0  0  0  0
   42.5280   25.3690   34.3700 C   0  0  0  0  0  0  0  0  0  0  0  0
   42.4260   26.5460   34.8950 N   0  0  0  0  0  0  0  0  0  0  0  0
   43.7830   24.7780   34.0420 N   0  0  0  0  0  0  0  0  0  0  0  0
   43.2250   27.1570   35.1300 H   0  0  0  0  0  0  0  0  0  0  0  0
   40.5460   22.8970   36.2400 N   0  0  0  0  0  0  0  0  0  0  0  0
   41.1650   22.0760   35.4320 N   0  0  0  0  0  0  0  0  0  0  0  0
   41.8300   21.1150   36.1110 C   0  0  0  0  0  0  0  0  0  0  0  0
   41.5930   21.3740   37.4620 C   0  0  0  0  0  0  0  0  0  0  0  0
   40.7870   22.4950   37.5050 C   0  0  0  0  0  0  0  0  0  0  0  0
   37.4200   27.3530   34.7850 C   0  0  0  0  0  0  0  0  0  0  0  0
   37.7540   28.3740   35.6490 F   0  0  0  0  0  0  0  0  0  0  0  0
   37.6590   27.7380   33.5090 F   0  0  0  0  0  0  0  0  0  0  0  0
   36.0600   27.0690   34.9190 F   0  0  0  0  0  0  0  0  0  0  0  0
   38.2420   23.6717   37.3776 H   0  0  0  0  0  0  0  0  0  0  0  0
   41.4023   23.8638   33.3611 H   0  0  0  0  0  0  0  0  0  0  0  0
   44.6571   25.2922   34.2220 H   0  0  0  0  0  0  0  0  0  0  0  0
   43.8157   23.8368   33.6250 H   0  0  0  0  0  0  0  0  0  0  0  0
   42.4328   20.2984   35.6870 H   0  0  0  0  0  0  0  0  0  0  0  0
   41.9722   20.8003   38.3205 H   0  0  0  0  0  0  0  0  0  0  0  0
   40.4060   22.9783   38.4168 H   0  0  0  0  0  0  0  0  0  0  0  0
  2 12  1  0
  2  1  2  0
  3  2  1  0
  4  3  2  0
  4  5  1  0
  5  6  2  0
  6  1  1  0
  7  8  1  0
  7  3  1  0
  8  9  2  0
  9 11  1  0
 10  8  1  0
 12 16  1  0
 13 14  2  0
 13 12  1  0
 14 15  1  0
 15 16  2  0
 17 20  1  0
 17  5  1  0
 17 18  1  0
 19 17  1  0
  1 21  1  0
  7 22  1  0
 10 23  1  0
 10 24  1  0
 14 25  1  0
 15 26  1  0
 16 27  1  0
M  ISO  4  21  14  25  14  26  14  27  14
M  END
>  <minimizedAffinity>  (1) 
-4.42974424

>  <minimizedRMSD>  (1) 
3.67603898

$$$$
