
     RDKit          3D

 26 26  0  0  0  0  0  0  0  0999 V2000
   38.1630   26.0190   36.1050 C   0  0  0  0  0  0  0  0  0  0  0  0
   38.4150   24.6780   36.4230 C   0  0  0  0  0  0  0  0  0  0  0  0
   39.4590   24.0320   35.7160 C   0  0  0  0  0  0  0  0  0  0  0  0
   40.1540   24.7320   34.7810 N   0  0  0  0  0  0  0  0  0  0  0  0
   39.8670   26.0190   34.5180 C   0  0  0  0  0  0  0  0  0  0  0  0
   38.8940   26.6510   35.1640 N   0  0  0  0  0  0  0  0  0  0  0  0
   39.8080   22.6620   35.9640 N   0  0  0  0  0  0  0  0  0  0  0  0
   40.9400   22.3810   36.7670 C   0  0  0  0  0  0  0  0  0  0  0  0
   41.9100   23.2320   36.8950 N   0  0  0  0  0  0  0  0  0  0  0  0
   40.9860   21.1240   37.4380 N   0  0  0  0  0  0  0  0  0  0  0  0
   42.7820   23.0880   37.4450 H   0  0  0  0  0  0  0  0  0  0  0  0
   40.6540   26.7590   33.4740 C   0  0  0  0  0  0  0  0  0  0  0  0
   41.5560   27.5570   34.1120 F   0  0  0  0  0  0  0  0  0  0  0  0
   41.3020   25.9000   32.6270 F   0  0  0  0  0  0  0  0  0  0  0  0
   39.7930   27.5470   32.6790 F   0  0  0  0  0  0  0  0  0  0  0  0
   37.6530   23.8910   37.4360 C   0  0  0  0  0  0  0  0  0  0  0  0
   38.0950   24.3080   38.8440 C   0  0  0  0  0  0  0  0  0  0  0  0
   37.3615   26.5615   36.6277 H   0  0  0  0  0  0  0  0  0  0  0  0
   39.2452   21.8971   35.5651 H   0  0  0  0  0  0  0  0  0  0  0  0
   41.7941   20.8858   38.0305 H   0  0  0  0  0  0  0  0  0  0  0  0
   40.2111   20.4540   37.3303 H   0  0  0  0  0  0  0  0  0  0  0  0
   36.5767   24.0845   37.3170 H   0  0  0  0  0  0  0  0  0  0  0  0
   37.8504   22.8185   37.2919 H   0  0  0  0  0  0  0  0  0  0  0  0
   37.5081   23.7543   39.5916 H   0  0  0  0  0  0  0  0  0  0  0  0
   39.1633   24.0811   38.9752 H   0  0  0  0  0  0  0  0  0  0  0  0
   37.9306   25.3877   38.9752 H   0  0  0  0  0  0  0  0  0  0  0  0
  1  2  2  0
  2 16  1  0
  3  7  1  0
  3  2  1  0
  4  3  2  0
  5  4  1  0
  5  6  2  0
  6  1  1  0
  7  8  1  0
  8  9  2  0
  8 10  1  0
  9 11  1  0
 12 13  1  0
 12  5  1  0
 14 12  1  0
 15 12  1  0
 16 17  1  0
  1 18  1  0
  7 19  1  0
 10 20  1  0
 10 21  1  0
 16 22  1  0
 16 23  1  0
 17 24  1  0
 17 25  1  0
 17 26  1  0
M  ISO  6  18  14  22   8  23   8  24   8  25   8  26   8
M  END
>  <minimizedAffinity>  (1) 
-4.40369081

>  <minimizedRMSD>  (1) 
2.55856824

$$$$
