
     RDKit          3D

 26 27  0  0  0  0  0  0  0  0999 V2000
   40.4970   22.5020   37.6810 C   0  0  0  0  0  0  0  0  0  0  0  0
   39.2490   23.1030   37.4520 C   0  0  0  0  0  0  0  0  0  0  0  0
   38.7920   23.1500   36.1310 C   0  0  0  0  0  0  0  0  0  0  0  0
   39.5560   22.6260   35.1480 N   0  0  0  0  0  0  0  0  0  0  0  0
   40.7680   22.0480   35.4130 C   0  0  0  0  0  0  0  0  0  0  0  0
   41.2050   22.0020   36.6660 N   0  0  0  0  0  0  0  0  0  0  0  0
   43.0320   20.4590   32.2240 C   0  0  0  0  0  0  0  0  0  0  0  0
   41.7110   20.8620   32.0110 C   0  0  0  0  0  0  0  0  0  0  0  0
   40.9890   21.3750   33.0550 C   0  0  0  0  0  0  0  0  0  0  0  0
   41.5470   21.4990   34.3040 C   0  0  0  0  0  0  0  0  0  0  0  0
   42.8660   21.0980   34.5250 C   0  0  0  0  0  0  0  0  0  0  0  0
   43.6010   20.5790   33.4780 C   0  0  0  0  0  0  0  0  0  0  0  0
   43.8340   19.8200   30.7950 S   0  0  0  0  0  0  0  0  0  0  0  0
   44.1940   21.0080   29.9290 O   0  0  0  0  0  0  0  0  0  0  0  0
   42.7940   19.0630   29.9980 O   0  0  0  0  0  0  0  0  0  0  0  0
   38.3890   23.6900   38.5270 C   0  0  0  0  0  0  0  0  0  0  0  0
   39.2230   23.8670   39.6350 F   0  0  0  0  0  0  0  0  0  0  0  0
   37.3620   22.8910   38.8770 F   0  0  0  0  0  0  0  0  0  0  0  0
   37.9920   24.9960   38.1910 F   0  0  0  0  0  0  0  0  0  0  0  0
   40.8944   22.4427   38.7050 H   0  0  0  0  0  0  0  0  0  0  0  0
   37.8205   23.6089   35.8950 H   0  0  0  0  0  0  0  0  0  0  0  0
   41.2556   20.7680   31.0141 H   0  0  0  0  0  0  0  0  0  0  0  0
   39.9484   21.6920   32.8914 H   0  0  0  0  0  0  0  0  0  0  0  0
   43.3154   21.1947   35.5243 H   0  0  0  0  0  0  0  0  0  0  0  0
   44.6410   20.2605   33.6419 H   0  0  0  0  0  0  0  0  0  0  0  0
   44.9130   19.0478   31.1363 H   0  0  0  0  0  0  0  0  0  0  0  0
  2  1  2  0
  2 16  1  0
  3  2  1  0
  4  5  1  0
  4  3  2  0
  5  6  2  0
  6  1  1  0
  7 12  2  0
  8  7  1  0
  8  9  2  0
  9 10  1  0
 10 11  2  0
 10  5  1  0
 12 11  1  0
 13  7  1  0
 14 13  2  0
 15 13  2  0
 16 18  1  0
 16 17  1  0
 19 16  1  0
  1 20  1  0
  3 21  1  0
  8 22  1  0
  9 23  1  0
 11 24  1  0
 12 25  1  0
 13 26  1  0
M  ISO  7  20  14  21  14  22  14  23  14  24  14  25  14  26  11
M  END
>  <minimizedAffinity>  (1) 
-3.75948524

>  <minimizedRMSD>  (1) 
0.250414073

$$$$
