
     RDKit          3D

 29 29  0  0  0  0  0  0  0  0999 V2000
   38.4570   25.5920   36.2120 C   0  0  0  0  0  0  0  0  0  0  0  0
   38.8500   24.2900   36.5070 C   0  0  0  0  0  0  0  0  0  0  0  0
   39.9410   23.7840   35.7600 C   0  0  0  0  0  0  0  0  0  0  0  0
   40.5300   24.5590   34.8270 N   0  0  0  0  0  0  0  0  0  0  0  0
   40.1090   25.8180   34.5790 C   0  0  0  0  0  0  0  0  0  0  0  0
   39.0780   26.3210   35.2720 N   0  0  0  0  0  0  0  0  0  0  0  0
   40.4420   22.4470   35.9740 N   0  0  0  0  0  0  0  0  0  0  0  0
   41.6130   22.2550   36.7320 C   0  0  0  0  0  0  0  0  0  0  0  0
   42.4970   23.1990   36.8570 N   0  0  0  0  0  0  0  0  0  0  0  0
   41.7850   20.9810   37.3570 N   0  0  0  0  0  0  0  0  0  0  0  0
   43.3760   23.1250   37.3970 H   0  0  0  0  0  0  0  0  0  0  0  0
   40.7800   26.6490   33.5420 C   0  0  0  0  0  0  0  0  0  0  0  0
   41.7430   27.3910   34.1670 F   0  0  0  0  0  0  0  0  0  0  0  0
   41.3520   25.8670   32.5760 F   0  0  0  0  0  0  0  0  0  0  0  0
   39.8420   27.4940   32.9190 F   0  0  0  0  0  0  0  0  0  0  0  0
   38.2790   23.3720   37.4960 C   0  0  0  0  0  0  0  0  0  0  0  0
   37.0090   22.7340   36.9430 C   0  0  0  0  0  0  0  0  0  0  0  0
   37.8760   24.1650   38.7160 C   0  0  0  0  0  0  0  0  0  0  0  0
   37.6151   26.0353   36.7640 H   0  0  0  0  0  0  0  0  0  0  0  0
   39.9455   21.6379   35.5743 H   0  0  0  0  0  0  0  0  0  0  0  0
   42.6258   20.7937   37.9217 H   0  0  0  0  0  0  0  0  0  0  0  0
   41.0681   20.2503   37.2427 H   0  0  0  0  0  0  0  0  0  0  0  0
   39.0255   22.6009   37.7374 H   0  0  0  0  0  0  0  0  0  0  0  0
   36.3676   22.4118   37.7766 H   0  0  0  0  0  0  0  0  0  0  0  0
   36.4685   23.4676   36.3268 H   0  0  0  0  0  0  0  0  0  0  0  0
   37.2749   21.8624   36.3268 H   0  0  0  0  0  0  0  0  0  0  0  0
   38.1578   23.6105   39.6233 H   0  0  0  0  0  0  0  0  0  0  0  0
   38.3890   25.1380   38.7068 H   0  0  0  0  0  0  0  0  0  0  0  0
   36.7876   24.3242   38.7068 H   0  0  0  0  0  0  0  0  0  0  0  0
  1  2  2  0
  2 16  1  0
  3  7  1  0
  3  2  1  0
  4  3  2  0
  5  4  1  0
  5  6  2  0
  6  1  1  0
  7  8  1  0
  8  9  2  0
  8 10  1  0
  9 11  1  0
 12 13  1  0
 12  5  1  0
 14 12  1  0
 15 12  1  0
 16 18  1  0
 17 16  1  0
  1 19  1  0
  7 20  1  0
 10 21  1  0
 10 22  1  0
 16 23  1  0
 17 24  1  0
 17 25  1  0
 17 26  1  0
 18 27  1  0
 18 28  1  0
 18 29  1  0
M  ISO  8  19  14  23   8  24   8  25   8  26   8  27   8  28   8  29   8
M  END
>  <minimizedAffinity>  (1) 
-4.34160614

>  <minimizedRMSD>  (1) 
2.54198909

$$$$
