
     RDKit          3D

 29 30  0  0  0  0  0  0  0  0999 V2000
   39.3470   24.3980   36.2040 C   0  0  0  0  0  0  0  0  0  0  0  0
   40.4940   24.3050   35.4200 C   0  0  0  0  0  0  0  0  0  0  0  0
   40.6640   25.2410   34.3970 C   0  0  0  0  0  0  0  0  0  0  0  0
   39.7110   26.1950   34.2120 N   0  0  0  0  0  0  0  0  0  0  0  0
   38.6110   26.2490   34.9970 C   0  0  0  0  0  0  0  0  0  0  0  0
   38.4290   25.3660   35.9780 N   0  0  0  0  0  0  0  0  0  0  0  0
   41.8010   25.2450   33.5280 N   0  0  0  0  0  0  0  0  0  0  0  0
   42.8470   26.1680   33.7650 C   0  0  0  0  0  0  0  0  0  0  0  0
   42.6380   27.2820   34.3850 N   0  0  0  0  0  0  0  0  0  0  0  0
   44.1590   25.8290   33.2940 N   0  0  0  0  0  0  0  0  0  0  0  0
   43.3500   28.0080   34.5900 H   0  0  0  0  0  0  0  0  0  0  0  0
   41.5260   23.2890   35.6030 C   0  0  0  0  0  0  0  0  0  0  0  0
   41.3520   21.9790   35.2230 C   0  0  0  0  0  0  0  0  0  0  0  0
   42.3840   21.0580   35.4280 C   0  0  0  0  0  0  0  0  0  0  0  0
   43.5590   21.5150   36.0160 C   0  0  0  0  0  0  0  0  0  0  0  0
   43.7070   22.8270   36.3850 C   0  0  0  0  0  0  0  0  0  0  0  0
   42.6770   23.6950   36.1690 N   0  0  0  0  0  0  0  0  0  0  0  0
   37.5760   27.3100   34.7720 C   0  0  0  0  0  0  0  0  0  0  0  0
   37.8470   28.3360   35.6540 F   0  0  0  0  0  0  0  0  0  0  0  0
   37.6130   27.7830   33.5020 F   0  0  0  0  0  0  0  0  0  0  0  0
   36.2940   26.7980   35.0150 F   0  0  0  0  0  0  0  0  0  0  0  0
   39.1851   23.6754   37.0174 H   0  0  0  0  0  0  0  0  0  0  0  0
   41.8572   24.5843   32.7399 H   0  0  0  0  0  0  0  0  0  0  0  0
   44.9449   26.4766   33.4485 H   0  0  0  0  0  0  0  0  0  0  0  0
   44.3151   24.9380   32.8013 H   0  0  0  0  0  0  0  0  0  0  0  0
   40.4070   21.6576   34.7607 H   0  0  0  0  0  0  0  0  0  0  0  0
   42.2702   20.0043   35.1333 H   0  0  0  0  0  0  0  0  0  0  0  0
   44.3855   20.8099   36.1882 H   0  0  0  0  0  0  0  0  0  0  0  0
   44.6422   23.1746   36.8483 H   0  0  0  0  0  0  0  0  0  0  0  0
  2 12  1  0
  2  1  2  0
  3  2  1  0
  4  3  2  0
  4  5  1  0
  5  6  2  0
  6  1  1  0
  7  8  1  0
  7  3  1  0
  8  9  2  0
  9 11  1  0
 10  8  1  0
 12 17  2  0
 13 14  2  0
 13 12  1  0
 14 15  1  0
 15 16  2  0
 17 16  1  0
 18  5  1  0
 18 21  1  0
 18 19  1  0
 20 18  1  0
  1 22  1  0
  7 23  1  0
 10 24  1  0
 10 25  1  0
 13 26  1  0
 14 27  1  0
 15 28  1  0
 16 29  1  0
M  ISO  5  22  14  26  14  27  14  28  14  29  14
M  END
>  <minimizedAffinity>  (1) 
-4.1867156

>  <minimizedRMSD>  (1) 
4.71926451

$$$$
