
     RDKit          3D

 33 34  0  0  0  0  0  0  0  0999 V2000
   38.5380   23.8420   36.1450 C   0  0  0  0  0  0  0  0  0  0  0  0
   39.8330   23.6630   35.6880 C   0  0  0  0  0  0  0  0  0  0  0  0
   40.2910   24.4960   34.6620 C   0  0  0  0  0  0  0  0  0  0  0  0
   39.4460   25.4370   34.1660 N   0  0  0  0  0  0  0  0  0  0  0  0
   38.1900   25.5810   34.6350 C   0  0  0  0  0  0  0  0  0  0  0  0
   37.7420   24.7960   35.6100 N   0  0  0  0  0  0  0  0  0  0  0  0
   41.6180   24.3810   34.1290 N   0  0  0  0  0  0  0  0  0  0  0  0
   42.6070   25.3180   34.5190 C   0  0  0  0  0  0  0  0  0  0  0  0
   42.2890   26.4990   34.9590 N   0  0  0  0  0  0  0  0  0  0  0  0
   43.9670   24.9220   34.4110 N   0  0  0  0  0  0  0  0  0  0  0  0
   42.9490   27.2320   35.2780 H   0  0  0  0  0  0  0  0  0  0  0  0
   40.6860   22.6700   36.2310 N   0  0  0  0  0  0  0  0  0  0  0  0
   40.7070   22.2650   37.5140 C   0  0  0  0  0  0  0  0  0  0  0  0
   41.6510   21.2980   37.6760 N   0  0  0  0  0  0  0  0  0  0  0  0
   42.2090   21.1200   36.4680 C   0  0  0  0  0  0  0  0  0  0  0  0
   41.5930   21.9750   35.6140 N   0  0  0  0  0  0  0  0  0  0  0  0
   43.2490   20.2090   36.1340 N   0  0  0  0  0  0  0  0  0  0  0  0
   43.5680   19.1650   37.0450 C   0  0  0  0  0  0  0  0  0  0  0  0
   42.6740   18.7010   37.8300 N   0  0  0  0  0  0  0  0  0  0  0  0
   44.9180   18.6640   37.0460 N   0  0  0  0  0  0  0  0  0  0  0  0
   42.8610   17.9410   38.5110 H   0  0  0  0  0  0  0  0  0  0  0  0
   37.2860   26.6320   34.0610 C   0  0  0  0  0  0  0  0  0  0  0  0
   36.4700   27.0740   35.0620 F   0  0  0  0  0  0  0  0  0  0  0  0
   38.0060   27.6750   33.5340 F   0  0  0  0  0  0  0  0  0  0  0  0
   36.5110   26.1010   33.0250 F   0  0  0  0  0  0  0  0  0  0  0  0
   38.1524   23.2014   36.9519 H   0  0  0  0  0  0  0  0  0  0  0  0
   41.8496   23.6247   33.4693 H   0  0  0  0  0  0  0  0  0  0  0  0
   44.7164   25.5737   34.6842 H   0  0  0  0  0  0  0  0  0  0  0  0
   44.2037   23.9832   34.0595 H   0  0  0  0  0  0  0  0  0  0  0  0
   40.0588   22.6565   38.3118 H   0  0  0  0  0  0  0  0  0  0  0  0
   43.7628   20.3041   35.2464 H   0  0  0  0  0  0  0  0  0  0  0  0
   45.1863   17.9080   37.6921 H   0  0  0  0  0  0  0  0  0  0  0  0
   45.6154   19.0616   36.4006 H   0  0  0  0  0  0  0  0  0  0  0  0
  2  1  2  0
  2 12  1  0
  3  2  1  0
  4  5  1  0
  4  3  2  0
  5  6  2  0
  6  1  1  0
  7  8  1  0
  7  3  1  0
  8  9  2  0
  9 11  1  0
 10  8  1  0
 12 13  1  0
 13 14  2  0
 15 14  1  0
 16 12  1  0
 16 15  2  0
 17 15  1  0
 17 18  1  0
 18 20  1  0
 18 19  2  0
 19 21  1  0
 22  5  1  0
 22 23  1  0
 24 22  1  0
 25 22  1  0
  1 26  1  0
  7 27  1  0
 10 28  1  0
 10 29  1  0
 13 30  1  0
 17 31  1  0
 20 32  1  0
 20 33  1  0
M  ISO  2  26  14  30  14
M  END
>  <minimizedAffinity>  (1) 
-5.32736111

>  <minimizedRMSD>  (1) 
0.348796129

$$$$
