
     RDKit          3D

 29 30  0  0  0  0  0  0  0  0999 V2000
   37.7340   25.1350   35.8050 C   0  0  0  0  0  0  0  0  0  0  0  0
   39.0270   24.6930   35.5200 C   0  0  0  0  0  0  0  0  0  0  0  0
   39.6930   25.2250   34.4100 C   0  0  0  0  0  0  0  0  0  0  0  0
   39.0440   26.1490   33.6650 N   0  0  0  0  0  0  0  0  0  0  0  0
   37.7980   26.5590   33.9590 C   0  0  0  0  0  0  0  0  0  0  0  0
   37.1570   26.0700   34.9970 N   0  0  0  0  0  0  0  0  0  0  0  0
   41.0150   24.8150   34.0680 N   0  0  0  0  0  0  0  0  0  0  0  0
   42.1080   25.6710   34.3750 C   0  0  0  0  0  0  0  0  0  0  0  0
   41.9510   26.9430   34.5340 N   0  0  0  0  0  0  0  0  0  0  0  0
   43.3890   25.0610   34.5010 N   0  0  0  0  0  0  0  0  0  0  0  0
   42.6900   27.6180   34.7780 H   0  0  0  0  0  0  0  0  0  0  0  0
   39.6600   23.7240   36.3330 N   0  0  0  0  0  0  0  0  0  0  0  0
   39.3110   23.4030   37.6000 C   0  0  0  0  0  0  0  0  0  0  0  0
   40.1310   22.4330   38.0840 N   0  0  0  0  0  0  0  0  0  0  0  0
   40.9890   22.1670   37.0850 C   0  0  0  0  0  0  0  0  0  0  0  0
   40.6890   22.9610   36.0290 N   0  0  0  0  0  0  0  0  0  0  0  0
   42.0590   21.1780   37.1620 C   0  0  0  0  0  0  0  0  0  0  0  0
   42.9240   21.1660   36.2480 O   0  0  0  0  0  0  0  0  0  0  0  0
   42.1270   20.2710   38.2120 O   0  0  0  0  0  0  0  0  0  0  0  0
   37.1320   27.5900   33.0870 C   0  0  0  0  0  0  0  0  0  0  0  0
   36.6270   28.5590   33.9150 F   0  0  0  0  0  0  0  0  0  0  0  0
   37.9980   28.1370   32.1980 F   0  0  0  0  0  0  0  0  0  0  0  0
   36.0730   27.0030   32.3750 F   0  0  0  0  0  0  0  0  0  0  0  0
   37.1870   24.7340   36.6710 H   0  0  0  0  0  0  0  0  0  0  0  0
   41.1763   23.9096   33.6041 H   0  0  0  0  0  0  0  0  0  0  0  0
   44.2140   25.6366   34.7225 H   0  0  0  0  0  0  0  0  0  0  0  0
   43.4903   24.0443   34.3706 H   0  0  0  0  0  0  0  0  0  0  0  0
   38.4819   23.8616   38.1588 H   0  0  0  0  0  0  0  0  0  0  0  0
   42.8610   19.6076   38.2463 H   0  0  0  0  0  0  0  0  0  0  0  0
  2  1  2  0
  2 12  1  0
  3  2  1  0
  4  5  1  0
  4  3  2  0
  5  6  2  0
  6  1  1  0
  7  8  1  0
  7  3  1  0
  8 10  1  0
  8  9  2  0
  9 11  1  0
 12 13  1  0
 13 14  2  0
 15 17  1  0
 15 14  1  0
 16 12  1  0
 16 15  2  0
 17 19  1  0
 18 17  2  0
 20 21  1  0
 20  5  1  0
 22 20  1  0
 23 20  1  0
  1 24  1  0
  7 25  1  0
 10 26  1  0
 10 27  1  0
 13 28  1  0
 19 29  1  0
M  ISO  3  24  14  28  14  29   3
M  END
>  <minimizedAffinity>  (1) 
-5.19968271

>  <minimizedRMSD>  (1) 
1.15221548

$$$$
