
     RDKit          3D

 14 14  0  0  0  0  0  0  0  0999 V2000
   40.5030   22.4860   37.6500 C   0  0  0  0  0  0  0  0  0  0  0  0
   39.2580   23.1100   37.4060 C   0  0  0  0  0  0  0  0  0  0  0  0
   38.8210   23.1990   36.0950 C   0  0  0  0  0  0  0  0  0  0  0  0
   39.5930   22.6890   35.0930 N   0  0  0  0  0  0  0  0  0  0  0  0
   40.7910   22.0950   35.3780 C   0  0  0  0  0  0  0  0  0  0  0  0
   41.2220   22.0020   36.6320 N   0  0  0  0  0  0  0  0  0  0  0  0
   38.4100   23.6680   38.5000 C   0  0  0  0  0  0  0  0  0  0  0  0
   39.2230   23.8340   39.6050 F   0  0  0  0  0  0  0  0  0  0  0  0
   37.3870   22.8450   38.8460 F   0  0  0  0  0  0  0  0  0  0  0  0
   37.9870   24.9720   38.1810 F   0  0  0  0  0  0  0  0  0  0  0  0
   41.7240   21.4600   33.9850 S   0  0  0  0  0  0  0  0  0  0  0  0
   40.8808   22.3986   38.6794 H   0  0  0  0  0  0  0  0  0  0  0  0
   37.8581   23.6776   35.8634 H   0  0  0  0  0  0  0  0  0  0  0  0
   42.7913   20.7336   34.4433 H   0  0  0  0  0  0  0  0  0  0  0  0
  2  1  2  0
  2  7  1  0
  3  2  1  0
  4  5  1  0
  4  3  2  0
  5  6  2  0
  6  1  1  0
  7  9  1  0
  7  8  1  0
 10  7  1  0
 11  5  1  0
  1 12  1  0
  3 13  1  0
 11 14  1  0
M  ISO  3  12  14  13  14  14  11
M  END
>  <minimizedAffinity>  (1) 
-3.8255012

>  <minimizedRMSD>  (1) 
0.0390872173

$$$$
