
     RDKit          3D

 33 35  0  0  0  0  0  0  0  0999 V2000
   38.1080   24.6860   35.8110 C   0  0  0  0  0  0  0  0  0  0  0  0
   39.4210   24.3890   35.4560 C   0  0  0  0  0  0  0  0  0  0  0  0
   39.9920   25.0810   34.3960 C   0  0  0  0  0  0  0  0  0  0  0  0
   39.2570   26.0190   33.7460 N   0  0  0  0  0  0  0  0  0  0  0  0
   37.9780   26.2830   34.1200 C   0  0  0  0  0  0  0  0  0  0  0  0
   37.4180   25.6300   35.1320 N   0  0  0  0  0  0  0  0  0  0  0  0
   41.3290   24.8370   33.9690 N   0  0  0  0  0  0  0  0  0  0  0  0
   42.3640   25.7340   34.3230 C   0  0  0  0  0  0  0  0  0  0  0  0
   42.1090   26.9580   34.6080 N   0  0  0  0  0  0  0  0  0  0  0  0
   43.6940   25.2550   34.3580 N   0  0  0  0  0  0  0  0  0  0  0  0
   42.7920   27.6880   34.9200 H   0  0  0  0  0  0  0  0  0  0  0  0
   40.1680   23.3980   36.1560 N   0  0  0  0  0  0  0  0  0  0  0  0
   39.8590   22.8810   37.3620 C   0  0  0  0  0  0  0  0  0  0  0  0
   40.7840   21.9640   37.7310 N   0  0  0  0  0  0  0  0  0  0  0  0
   41.6760   21.9230   36.7240 C   0  0  0  0  0  0  0  0  0  0  0  0
   41.2720   22.8140   35.7710 N   0  0  0  0  0  0  0  0  0  0  0  0
   42.8820   21.1110   36.5860 C   0  0  0  0  0  0  0  0  0  0  0  0
   42.8970   19.8530   37.2000 C   0  0  0  0  0  0  0  0  0  0  0  0
   44.1280   19.2880   36.9290 C   0  0  0  0  0  0  0  0  0  0  0  0
   44.8050   20.2370   36.1590 C   0  0  0  0  0  0  0  0  0  0  0  0
   44.0390   21.2880   35.9820 O   0  0  0  0  0  0  0  0  0  0  0  0
   37.1850   27.3290   33.3830 C   0  0  0  0  0  0  0  0  0  0  0  0
   36.6230   28.1550   34.3220 F   0  0  0  0  0  0  0  0  0  0  0  0
   37.9820   28.0480   32.5320 F   0  0  0  0  0  0  0  0  0  0  0  0
   36.1750   26.7300   32.6280 F   0  0  0  0  0  0  0  0  0  0  0  0
   37.6309   24.1515   36.6457 H   0  0  0  0  0  0  0  0  0  0  0  0
   41.5427   24.0049   33.4008 H   0  0  0  0  0  0  0  0  0  0  0  0
   44.4636   25.8902   34.6131 H   0  0  0  0  0  0  0  0  0  0  0  0
   43.8932   24.2709   34.1284 H   0  0  0  0  0  0  0  0  0  0  0  0
   38.9807   23.1638   37.9608 H   0  0  0  0  0  0  0  0  0  0  0  0
   42.0836   19.4007   37.7864 H   0  0  0  0  0  0  0  0  0  0  0  0
   44.4962   18.3025   37.2504 H   0  0  0  0  0  0  0  0  0  0  0  0
   45.8242   20.1211   35.7618 H   0  0  0  0  0  0  0  0  0  0  0  0
  2  1  2  0
  2 12  1  0
  3  2  1  0
  4  5  1  0
  4  3  2  0
  5  6  2  0
  6  1  1  0
  7  8  1  0
  7  3  1  0
  8 10  1  0
  8  9  2  0
  9 11  1  0
 12 13  1  0
 13 14  2  0
 15 14  1  0
 16 12  1  0
 16 15  2  0
 17 15  1  0
 17 18  2  0
 19 18  1  0
 20 19  2  0
 21 20  1  0
 21 17  1  0
 22  5  1  0
 22 23  1  0
 24 22  1  0
 25 22  1  0
  1 26  1  0
  7 27  1  0
 10 28  1  0
 10 29  1  0
 13 30  1  0
 18 31  1  0
 19 32  1  0
 20 33  1  0
M  ISO  5  26  14  30  14  31  14  32  14  33  14
M  END
>  <minimizedAffinity>  (1) 
-5.04858637

>  <minimizedRMSD>  (1) 
0.818511546

$$$$
