
     RDKit          3D

 32 34  0  0  0  0  0  0  0  0999 V2000
   38.3210   24.1150   36.0230 C   0  0  0  0  0  0  0  0  0  0  0  0
   39.6370   23.8840   35.6060 C   0  0  0  0  0  0  0  0  0  0  0  0
   40.1470   24.6630   34.5660 C   0  0  0  0  0  0  0  0  0  0  0  0
   39.3520   25.6030   34.0060 N   0  0  0  0  0  0  0  0  0  0  0  0
   38.0890   25.8020   34.4290 C   0  0  0  0  0  0  0  0  0  0  0  0
   37.5780   25.0830   35.4090 N   0  0  0  0  0  0  0  0  0  0  0  0
   41.4820   24.4820   34.0910 N   0  0  0  0  0  0  0  0  0  0  0  0
   42.4860   25.4000   34.4720 C   0  0  0  0  0  0  0  0  0  0  0  0
   42.1920   26.6020   34.8400 N   0  0  0  0  0  0  0  0  0  0  0  0
   43.8360   24.9640   34.4410 N   0  0  0  0  0  0  0  0  0  0  0  0
   42.8660   27.3230   35.1730 H   0  0  0  0  0  0  0  0  0  0  0  0
   40.4250   22.8920   36.2240 N   0  0  0  0  0  0  0  0  0  0  0  0
   40.4910   22.6270   37.5300 C   0  0  0  0  0  0  0  0  0  0  0  0
   41.3500   21.6070   37.7680 N   0  0  0  0  0  0  0  0  0  0  0  0
   41.8230   21.2400   36.5650 C   0  0  0  0  0  0  0  0  0  0  0  0
   41.2420   22.0410   35.6380 N   0  0  0  0  0  0  0  0  0  0  0  0
   42.7610   20.2070   36.2720 N   0  0  0  0  0  0  0  0  0  0  0  0
   43.3090   19.8950   35.0810 C   0  0  0  0  0  0  0  0  0  0  0  0
   44.1610   18.8530   35.1810 N   0  0  0  0  0  0  0  0  0  0  0  0
   44.1340   18.5120   36.4910 C   0  0  0  0  0  0  0  0  0  0  0  0
   43.2770   19.3480   37.1350 N   0  0  0  0  0  0  0  0  0  0  0  0
   37.2370   26.8620   33.7750 C   0  0  0  0  0  0  0  0  0  0  0  0
   36.4830   27.4430   34.7610 F   0  0  0  0  0  0  0  0  0  0  0  0
   38.0060   27.7920   33.1410 F   0  0  0  0  0  0  0  0  0  0  0  0
   36.3960   26.2840   32.8190 F   0  0  0  0  0  0  0  0  0  0  0  0
   37.8875   23.5204   36.8406 H   0  0  0  0  0  0  0  0  0  0  0  0
   41.7108   23.6884   33.4756 H   0  0  0  0  0  0  0  0  0  0  0  0
   44.5918   25.6088   34.7128 H   0  0  0  0  0  0  0  0  0  0  0  0
   44.0601   24.0027   34.1467 H   0  0  0  0  0  0  0  0  0  0  0  0
   39.9257   23.1630   38.3066 H   0  0  0  0  0  0  0  0  0  0  0  0
   43.0889   20.4247   34.1424 H   0  0  0  0  0  0  0  0  0  0  0  0
   44.7081   17.6967   36.9555 H   0  0  0  0  0  0  0  0  0  0  0  0
  2  1  2  0
  2 12  1  0
  3  2  1  0
  4  5  1  0
  4  3  2  0
  5  6  2  0
  6  1  1  0
  7  8  1  0
  7  3  1  0
  8  9  2  0
  9 11  1  0
 10  8  1  0
 12 13  1  0
 13 14  2  0
 15 14  1  0
 16 12  1  0
 16 15  2  0
 17 15  1  0
 17 21  1  0
 18 19  2  0
 18 17  1  0
 19 20  1  0
 20 21  2  0
 22  5  1  0
 22 23  1  0
 24 22  1  0
 25 22  1  0
  1 26  1  0
  7 27  1  0
 10 28  1  0
 10 29  1  0
 13 30  1  0
 18 31  1  0
 20 32  1  0
M  ISO  4  26  14  30  14  31  14  32  14
M  END
>  <minimizedAffinity>  (1) 
-4.91704702

>  <minimizedRMSD>  (1) 
0.0510724932

$$$$
