
     RDKit          3D

 33 35  0  0  0  0  0  0  0  0999 V2000
   38.3260   24.1030   36.0120 C   0  0  0  0  0  0  0  0  0  0  0  0
   39.6440   23.8740   35.5980 C   0  0  0  0  0  0  0  0  0  0  0  0
   40.1450   24.6550   34.5630 C   0  0  0  0  0  0  0  0  0  0  0  0
   39.3620   25.5920   34.0000 N   0  0  0  0  0  0  0  0  0  0  0  0
   38.0860   25.7900   34.4250 C   0  0  0  0  0  0  0  0  0  0  0  0
   37.5880   25.0600   35.4070 N   0  0  0  0  0  0  0  0  0  0  0  0
   41.4950   24.4750   34.0830 N   0  0  0  0  0  0  0  0  0  0  0  0
   42.4970   25.4040   34.4720 C   0  0  0  0  0  0  0  0  0  0  0  0
   42.2050   26.6040   34.8410 N   0  0  0  0  0  0  0  0  0  0  0  0
   43.8480   24.9520   34.4370 N   0  0  0  0  0  0  0  0  0  0  0  0
   42.8750   27.3250   35.1500 H   0  0  0  0  0  0  0  0  0  0  0  0
   40.4410   22.8770   36.2140 N   0  0  0  0  0  0  0  0  0  0  0  0
   40.5150   22.6160   37.5220 C   0  0  0  0  0  0  0  0  0  0  0  0
   41.3730   21.5980   37.7600 N   0  0  0  0  0  0  0  0  0  0  0  0
   41.8390   21.2260   36.5560 C   0  0  0  0  0  0  0  0  0  0  0  0
   41.2420   22.0370   35.6210 N   0  0  0  0  0  0  0  0  0  0  0  0
   42.7570   20.2330   36.1060 N   0  0  0  0  0  0  0  0  0  0  0  0
   43.2210   19.8430   34.9050 C   0  0  0  0  0  0  0  0  0  0  0  0
   44.1180   18.7950   35.1420 C   0  0  0  0  0  0  0  0  0  0  0  0
   44.1650   18.5910   36.4670 N   0  0  0  0  0  0  0  0  0  0  0  0
   43.3450   19.4550   37.0600 C   0  0  0  0  0  0  0  0  0  0  0  0
   37.2420   26.8500   33.7690 C   0  0  0  0  0  0  0  0  0  0  0  0
   36.4830   27.4340   34.7540 F   0  0  0  0  0  0  0  0  0  0  0  0
   38.0030   27.7880   33.1350 F   0  0  0  0  0  0  0  0  0  0  0  0
   36.3950   26.2640   32.8090 F   0  0  0  0  0  0  0  0  0  0  0  0
   37.8925   23.5055   36.8275 H   0  0  0  0  0  0  0  0  0  0  0  0
   41.7284   23.6834   33.4667 H   0  0  0  0  0  0  0  0  0  0  0  0
   44.6110   25.5879   34.7097 H   0  0  0  0  0  0  0  0  0  0  0  0
   44.0615   23.9894   34.1390 H   0  0  0  0  0  0  0  0  0  0  0  0
   39.9544   23.1556   38.2996 H   0  0  0  0  0  0  0  0  0  0  0  0
   42.9484   20.2656   33.9267 H   0  0  0  0  0  0  0  0  0  0  0  0
   44.6827   18.2389   34.3792 H   0  0  0  0  0  0  0  0  0  0  0  0
   43.1697   19.5298   38.1434 H   0  0  0  0  0  0  0  0  0  0  0  0
  2  1  2  0
  2 12  1  0
  3  2  1  0
  4  5  1  0
  4  3  2  0
  5  6  2  0
  6  1  1  0
  7  8  1  0
  7  3  1  0
  8  9  2  0
  9 11  1  0
 10  8  1  0
 12 13  1  0
 13 14  2  0
 15 14  1  0
 16 12  1  0
 16 15  2  0
 17 15  1  0
 17 21  1  0
 18 19  2  0
 18 17  1  0
 19 20  1  0
 20 21  2  0
 22  5  1  0
 22 23  1  0
 24 22  1  0
 25 22  1  0
  1 26  1  0
  7 27  1  0
 10 28  1  0
 10 29  1  0
 13 30  1  0
 18 31  1  0
 19 32  1  0
 21 33  1  0
M  ISO  5  26  14  30  14  31  14  32  14  33  14
M  END
>  <minimizedAffinity>  (1) 
-4.90393305

>  <minimizedRMSD>  (1) 
0.0324339159

$$$$
