
     RDKit          3D

 34 36  0  0  0  0  0  0  0  0999 V2000
   38.2430   24.4820   35.7950 C   0  0  0  0  0  0  0  0  0  0  0  0
   39.5560   24.1770   35.4370 C   0  0  0  0  0  0  0  0  0  0  0  0
   40.1550   24.9070   34.4120 C   0  0  0  0  0  0  0  0  0  0  0  0
   39.4270   25.8870   33.8060 N   0  0  0  0  0  0  0  0  0  0  0  0
   38.1640   26.1560   34.1760 C   0  0  0  0  0  0  0  0  0  0  0  0
   37.5810   25.4710   35.1490 N   0  0  0  0  0  0  0  0  0  0  0  0
   41.4980   24.6540   33.9860 N   0  0  0  0  0  0  0  0  0  0  0  0
   42.5280   25.5230   34.3950 C   0  0  0  0  0  0  0  0  0  0  0  0
   42.2900   26.7380   34.7400 N   0  0  0  0  0  0  0  0  0  0  0  0
   43.8520   25.0020   34.4140 N   0  0  0  0  0  0  0  0  0  0  0  0
   42.9850   27.4320   35.0840 H   0  0  0  0  0  0  0  0  0  0  0  0
   40.2760   23.1450   36.0980 N   0  0  0  0  0  0  0  0  0  0  0  0
   40.2130   22.8340   37.3960 C   0  0  0  0  0  0  0  0  0  0  0  0
   41.0310   21.7970   37.6840 N   0  0  0  0  0  0  0  0  0  0  0  0
   41.6120   21.4660   36.5180 C   0  0  0  0  0  0  0  0  0  0  0  0
   41.1300   22.3110   35.5540 N   0  0  0  0  0  0  0  0  0  0  0  0
   42.5860   20.4040   36.2790 C   0  0  0  0  0  0  0  0  0  0  0  0
   43.1410   19.6560   37.2960 C   0  0  0  0  0  0  0  0  0  0  0  0
   44.0590   18.6750   36.9060 C   0  0  0  0  0  0  0  0  0  0  0  0
   44.3950   18.4550   35.6250 N   0  0  0  0  0  0  0  0  0  0  0  0
   43.8280   19.2100   34.6660 C   0  0  0  0  0  0  0  0  0  0  0  0
   42.9250   20.1840   34.9840 N   0  0  0  0  0  0  0  0  0  0  0  0
   37.3920   27.2450   33.4840 C   0  0  0  0  0  0  0  0  0  0  0  0
   36.9550   28.1160   34.4350 F   0  0  0  0  0  0  0  0  0  0  0  0
   38.1690   27.8950   32.5710 F   0  0  0  0  0  0  0  0  0  0  0  0
   36.2930   26.7050   32.7950 F   0  0  0  0  0  0  0  0  0  0  0  0
   37.7464   23.9206   36.6001 H   0  0  0  0  0  0  0  0  0  0  0  0
   41.7091   23.8439   33.3859 H   0  0  0  0  0  0  0  0  0  0  0  0
   44.6371   25.6013   34.7062 H   0  0  0  0  0  0  0  0  0  0  0  0
   44.0253   24.0256   34.1355 H   0  0  0  0  0  0  0  0  0  0  0  0
   39.5803   23.3523   38.1316 H   0  0  0  0  0  0  0  0  0  0  0  0
   42.8775   19.8209   38.3512 H   0  0  0  0  0  0  0  0  0  0  0  0
   44.5271   18.0553   37.6850 H   0  0  0  0  0  0  0  0  0  0  0  0
   44.0953   19.0404   33.6125 H   0  0  0  0  0  0  0  0  0  0  0  0
  2  1  2  0
  2 12  1  0
  3  2  1  0
  4  5  1  0
  4  3  2  0
  5  6  2  0
  6  1  1  0
  7  8  1  0
  7  3  1  0
  8 10  1  0
  8  9  2  0
  9 11  1  0
 12 13  1  0
 13 14  2  0
 15 14  1  0
 16 12  1  0
 16 15  2  0
 17 15  1  0
 17 18  2  0
 19 18  1  0
 20 19  2  0
 21 22  2  0
 21 20  1  0
 22 17  1  0
 23  5  1  0
 23 24  1  0
 25 23  1  0
 26 23  1  0
  1 27  1  0
  7 28  1  0
 10 29  1  0
 10 30  1  0
 13 31  1  0
 18 32  1  0
 19 33  1  0
 21 34  1  0
M  ISO  5  27  14  31  14  32  14  33  14  34  14
M  END
>  <minimizedAffinity>  (1) 
-4.83684921

>  <minimizedRMSD>  (1) 
0.868144512

$$$$
