
     RDKit          3D

 31 33  0  0  0  0  0  0  0  0999 V2000
   38.3450   24.0970   36.0110 C   0  0  0  0  0  0  0  0  0  0  0  0
   39.6570   23.8760   35.5960 C   0  0  0  0  0  0  0  0  0  0  0  0
   40.1670   24.6490   34.5560 C   0  0  0  0  0  0  0  0  0  0  0  0
   39.3780   25.5820   33.9880 N   0  0  0  0  0  0  0  0  0  0  0  0
   38.0990   25.7780   34.4130 C   0  0  0  0  0  0  0  0  0  0  0  0
   37.5920   25.0560   35.3990 N   0  0  0  0  0  0  0  0  0  0  0  0
   41.5100   24.4740   34.0790 N   0  0  0  0  0  0  0  0  0  0  0  0
   42.5070   25.4040   34.4670 C   0  0  0  0  0  0  0  0  0  0  0  0
   42.2080   26.6060   34.8430 N   0  0  0  0  0  0  0  0  0  0  0  0
   43.8540   24.9530   34.4230 N   0  0  0  0  0  0  0  0  0  0  0  0
   42.8800   27.3270   35.1380 H   0  0  0  0  0  0  0  0  0  0  0  0
   40.4530   22.8810   36.2240 N   0  0  0  0  0  0  0  0  0  0  0  0
   40.4800   22.6050   37.5380 C   0  0  0  0  0  0  0  0  0  0  0  0
   41.3510   21.6000   37.7850 N   0  0  0  0  0  0  0  0  0  0  0  0
   41.8650   21.2580   36.5830 C   0  0  0  0  0  0  0  0  0  0  0  0
   41.2950   22.0640   35.6350 N   0  0  0  0  0  0  0  0  0  0  0  0
   42.8450   20.2510   36.1860 C   0  0  0  0  0  0  0  0  0  0  0  0
   43.2710   19.8210   34.9820 N   0  0  0  0  0  0  0  0  0  0  0  0
   44.1710   18.8940   35.1230 O   0  0  0  0  0  0  0  0  0  0  0  0
   44.3370   18.7150   36.4130 C   0  0  0  0  0  0  0  0  0  0  0  0
   43.5330   19.5390   37.1030 N   0  0  0  0  0  0  0  0  0  0  0  0
   37.2480   26.8270   33.7570 C   0  0  0  0  0  0  0  0  0  0  0  0
   36.4970   27.4140   34.7210 F   0  0  0  0  0  0  0  0  0  0  0  0
   38.0110   27.7680   33.1100 F   0  0  0  0  0  0  0  0  0  0  0  0
   36.4010   26.2380   32.8010 F   0  0  0  0  0  0  0  0  0  0  0  0
   37.9177   23.4997   36.8299 H   0  0  0  0  0  0  0  0  0  0  0  0
   41.7459   23.6830   33.4629 H   0  0  0  0  0  0  0  0  0  0  0  0
   44.6187   25.5875   34.6944 H   0  0  0  0  0  0  0  0  0  0  0  0
   44.0656   23.9917   34.1198 H   0  0  0  0  0  0  0  0  0  0  0  0
   39.8808   23.1213   38.3025 H   0  0  0  0  0  0  0  0  0  0  0  0
   45.0346   17.9936   36.8635 H   0  0  0  0  0  0  0  0  0  0  0  0
  2  1  2  0
  2 12  1  0
  3  2  1  0
  4  5  1  0
  4  3  2  0
  5  6  2  0
  6  1  1  0
  7  8  1  0
  7  3  1  0
  8  9  2  0
  9 11  1  0
 10  8  1  0
 12 13  1  0
 13 14  2  0
 15 14  1  0
 16 12  1  0
 16 15  2  0
 17 15  1  0
 17 21  1  0
 18 19  1  0
 18 17  2  0
 19 20  1  0
 20 21  2  0
 22  5  1  0
 22 23  1  0
 24 22  1  0
 25 22  1  0
  1 26  1  0
  7 27  1  0
 10 28  1  0
 10 29  1  0
 13 30  1  0
 20 31  1  0
M  ISO  3  26  14  30  14  31  14
M  END
>  <minimizedAffinity>  (1) 
-4.64985323

>  <minimizedRMSD>  (1) 
0.184816033

$$$$
