
     RDKit          3D

 28 30  0  0  0  0  0  0  0  0999 V2000
   37.8910   23.2320   32.5040 S   0  0  0  0  0  0  0  0  0  0  0  0
   36.8930   21.8890   31.9440 C   0  0  0  0  0  0  0  0  0  0  0  0
   35.7130   21.6850   32.5670 N   0  0  0  0  0  0  0  0  0  0  0  0
   34.8520   20.7010   32.2490 C   0  0  0  0  0  0  0  0  0  0  0  0
   35.1870   19.8550   31.2330 N   0  0  0  0  0  0  0  0  0  0  0  0
   36.3390   20.0080   30.5830 C   0  0  0  0  0  0  0  0  0  0  0  0
   36.7300   19.1700   29.5360 C   0  0  0  0  0  0  0  0  0  0  0  0
   37.9410   19.3760   28.8940 C   0  0  0  0  0  0  0  0  0  0  0  0
   38.7880   20.4030   29.2620 C   0  0  0  0  0  0  0  0  0  0  0  0
   38.4240   21.2580   30.3050 C   0  0  0  0  0  0  0  0  0  0  0  0
   37.2260   21.0150   30.9060 C   0  0  0  0  0  0  0  0  0  0  0  0
   38.1960   22.2990   36.3630 C   0  0  0  0  0  0  0  0  0  0  0  0
   38.1810   23.5610   37.0030 C   0  0  0  0  0  0  0  0  0  0  0  0
   38.0700   24.6840   36.2120 C   0  0  0  0  0  0  0  0  0  0  0  0
   37.9800   24.5530   34.8550 N   0  0  0  0  0  0  0  0  0  0  0  0
   38.0000   23.3020   34.2870 C   0  0  0  0  0  0  0  0  0  0  0  0
   38.1060   22.2230   35.0380 N   0  0  0  0  0  0  0  0  0  0  0  0
   38.2810   23.7140   38.4870 C   0  0  0  0  0  0  0  0  0  0  0  0
   39.5980   23.4640   38.8340 F   0  0  0  0  0  0  0  0  0  0  0  0
   37.4970   22.8460   39.1520 F   0  0  0  0  0  0  0  0  0  0  0  0
   38.0790   25.0690   38.8480 F   0  0  0  0  0  0  0  0  0  0  0  0
   33.9037   20.5822   32.7937 H   0  0  0  0  0  0  0  0  0  0  0  0
   36.0751   18.3445   29.2202 H   0  0  0  0  0  0  0  0  0  0  0  0
   38.2343   18.7060   28.0724 H   0  0  0  0  0  0  0  0  0  0  0  0
   39.7437   20.5469   28.7368 H   0  0  0  0  0  0  0  0  0  0  0  0
   39.0728   22.0866   30.6252 H   0  0  0  0  0  0  0  0  0  0  0  0
   38.2821   21.3802   36.9616 H   0  0  0  0  0  0  0  0  0  0  0  0
   38.0539   25.6831   36.6719 H   0  0  0  0  0  0  0  0  0  0  0  0
  1 16  1  0
  2  1  1  0
  2  3  2  0
  4  3  1  0
  5  4  2  0
  6 11  2  0
  6  5  1  0
  7  6  1  0
  8  9  1  0
  8  7  2  0
  9 10  2  0
 10 11  1  0
 11  2  1  0
 12 13  2  0
 13 18  1  0
 14 13  1  0
 15 14  2  0
 16 15  1  0
 16 17  2  0
 17 12  1  0
 18 19  1  0
 18 21  1  0
 18 20  1  0
  4 22  1  0
  7 23  1  0
  8 24  1  0
  9 25  1  0
 10 26  1  0
 12 27  1  0
 14 28  1  0
M  ISO  7  22  14  23  14  24  14  25  14  26  14  27  14  28  14
M  END
>  <minimizedAffinity>  (1) 
-5.43699837

>  <minimizedRMSD>  (1) 
3.56150961

$$$$
