
     RDKit          3D

 43 45  0  0  1  0  0  0  0  0999 V2000
   39.6420   24.1460   35.7930 N   0  0  0  0  0  0  0  0  0  0  0  0
   39.1490   23.2920   36.6970 C   0  0  0  0  0  0  0  0  0  0  0  0
   40.1150   22.4810   37.1850 N   0  0  0  0  0  0  0  0  0  0  0  0
   41.2320   22.8540   36.5570 C   0  0  0  0  0  0  0  0  0  0  0  0
   40.9330   23.8790   35.7000 N   0  0  0  0  0  0  0  0  0  0  0  0
   37.6590   25.5380   35.4980 C   0  0  0  0  0  0  0  0  0  0  0  0
   38.9310   25.1380   35.0830 C   0  0  0  0  0  0  0  0  0  0  0  0
   39.4750   25.7470   33.9580 C   0  0  0  0  0  0  0  0  0  0  0  0
   38.7650   26.6900   33.3120 N   0  0  0  0  0  0  0  0  0  0  0  0
   37.5350   27.0550   33.7400 C   0  0  0  0  0  0  0  0  0  0  0  0
   36.9910   26.5010   34.7990 N   0  0  0  0  0  0  0  0  0  0  0  0
   40.7830   25.3910   33.4660 N   0  0  0  0  0  0  0  0  0  0  0  0
   41.8890   26.2440   33.7300 C   0  0  0  0  0  0  0  0  0  0  0  0
   41.7160   27.5020   33.9750 N   0  0  0  0  0  0  0  0  0  0  0  0
   43.1900   25.6810   33.7190 N   0  0  0  0  0  0  0  0  0  0  0  0
   42.4650   28.1820   34.1760 H   0  0  0  0  0  0  0  0  0  0  0  0
   36.7750   28.1160   32.9880 C   0  0  0  0  0  0  0  0  0  0  0  0
   36.3630   29.0600   33.8970 F   0  0  0  0  0  0  0  0  0  0  0  0
   37.5360   28.6940   32.0090 F   0  0  0  0  0  0  0  0  0  0  0  0
   35.6400   27.5540   32.3840 F   0  0  0  0  0  0  0  0  0  0  0  0
   42.5610   22.2430   36.8040 C   0  0  2  0  0  0  0  0  0  0  0  0
   43.6520   23.1800   36.4480 C   0  0  0  0  0  0  0  0  0  0  0  0
   44.9270   22.5840   35.9380 C   0  0  0  0  0  0  0  0  0  0  0  0
   44.9980   21.1350   35.7790 C   0  0  0  0  0  0  0  0  0  0  0  0
   43.9660   20.3240   36.4600 C   0  0  0  0  0  0  0  0  0  0  0  0
   42.6100   20.9020   36.1180 C   0  0  2  0  0  0  0  0  0  0  0  0
   42.3380   20.9410   34.6570 C   0  0  0  0  0  0  0  0  0  0  0  0
   38.0934   23.2543   37.0040 H   0  0  0  0  0  0  0  0  0  0  0  0
   37.1975   25.0787   36.3846 H   0  0  0  0  0  0  0  0  0  0  0  0
   40.9150   24.5236   32.9264 H   0  0  0  0  0  0  0  0  0  0  0  0
   44.0100   26.2754   33.9069 H   0  0  0  0  0  0  0  0  0  0  0  0
   43.3153   24.6776   33.5231 H   0  0  0  0  0  0  0  0  0  0  0  0
   42.7189   22.0509   37.8755 H   0  0  0  0  0  0  0  0  0  0  0  0
   43.5302   24.2681   36.5540 H   0  0  0  0  0  0  0  0  0  0  0  0
   45.7881   23.2217   35.6895 H   0  0  0  0  0  0  0  0  0  0  0  0
   44.9313   20.9176   34.7028 H   0  0  0  0  0  0  0  0  0  0  0  0
   45.9447   20.8456   36.2586 H   0  0  0  0  0  0  0  0  0  0  0  0
   44.0242   19.2811   36.1151 H   0  0  0  0  0  0  0  0  0  0  0  0
   44.1241   20.3432   37.5484 H   0  0  0  0  0  0  0  0  0  0  0  0
   41.7928   20.2608   36.4801 H   0  0  0  0  0  0  0  0  0  0  0  0
   41.2620   21.0953   34.4883 H   0  0  0  0  0  0  0  0  0  0  0  0
   42.9028   21.7673   34.2008 H   0  0  0  0  0  0  0  0  0  0  0  0
   42.6479   19.9892   34.2008 H   0  0  0  0  0  0  0  0  0  0  0  0
  1  2  1  0
  2  3  2  0
  4 21  1  0
  4  3  1  0
  5  1  1  0
  5  4  2  0
  7  6  2  0
  7  1  1  0
  8  7  1  0
  9 10  1  0
  9  8  2  0
 10 11  2  0
 11  6  1  0
 12 13  1  0
 12  8  1  0
 13 14  2  0
 14 16  1  0
 15 13  1  0
 17 10  1  0
 17 18  1  0
 19 17  1  0
 20 17  1  0
 22 21  1  0
 23 22  2  0
 24 23  1  0
 24 25  1  0
 26 25  1  0
 26 21  1  0
 27 26  1  0
  2 28  1  0
  6 29  1  0
 12 30  1  0
 15 31  1  0
 15 32  1  0
 21 33  1  1
 22 34  1  0
 23 35  1  0
 24 36  1  0
 24 37  1  0
 25 38  1  0
 25 39  1  0
 26 40  1  1
 27 41  1  0
 27 42  1  0
 27 43  1  0
M  ISO  8  28  14  29  14  33  13  34  13  35  13  36  13  37  13  38  13
M  ISO  5  39  13  40  13  41   8  42   8  43   8
M  END
>  <minimizedAffinity>  (1) 
-5.37255716

>  <minimizedRMSD>  (1) 
0.639993012

$$$$
