
     RDKit          3D

 31 34  0  0  0  0  0  0  0  0999 V2000
   37.0300   21.2340   33.7440 C   0  0  0  0  0  0  0  0  0  0  0  0
   35.7120   20.8260   33.8490 C   0  0  0  0  0  0  0  0  0  0  0  0
   35.4500   19.9600   32.8090 C   0  0  0  0  0  0  0  0  0  0  0  0
   36.6120   19.8760   32.1170 C   0  0  0  0  0  0  0  0  0  0  0  0
   37.4820   20.6370   32.7110 O   0  0  0  0  0  0  0  0  0  0  0  0
   36.6540   19.0140   30.9300 C   0  0  0  0  0  0  0  0  0  0  0  0
   36.5810   19.4760   29.6810 N   0  0  0  0  0  0  0  0  0  0  0  0
   36.6180   18.7140   28.5790 C   0  0  0  0  0  0  0  0  0  0  0  0
   36.7340   17.3860   28.6480 N   0  0  0  0  0  0  0  0  0  0  0  0
   36.8160   16.8130   29.8770 C   0  0  0  0  0  0  0  0  0  0  0  0
   36.9360   15.4430   29.9690 C   0  0  0  0  0  0  0  0  0  0  0  0
   37.0210   14.8240   31.1990 C   0  0  0  0  0  0  0  0  0  0  0  0
   36.9810   15.6440   32.3290 C   0  0  0  0  0  0  0  0  0  0  0  0
   36.8610   16.9910   32.1800 C   0  0  0  0  0  0  0  0  0  0  0  0
   36.7730   17.6450   30.9730 C   0  0  0  0  0  0  0  0  0  0  0  0
   37.6420   22.1580   34.6840 C   0  0  0  0  0  0  0  0  0  0  0  0
   38.6340   23.0830   34.3670 C   0  0  0  0  0  0  0  0  0  0  0  0
   39.1280   23.9080   35.3660 C   0  0  0  0  0  0  0  0  0  0  0  0
   38.6160   23.7760   36.6280 N   0  0  0  0  0  0  0  0  0  0  0  0
   37.6620   22.8780   36.9080 C   0  0  0  0  0  0  0  0  0  0  0  0
   37.1630   22.0650   35.9610 N   0  0  0  0  0  0  0  0  0  0  0  0
   34.9985   21.1379   34.6260 H   0  0  0  0  0  0  0  0  0  0  0  0
   34.5020   19.4476   32.5884 H   0  0  0  0  0  0  0  0  0  0  0  0
   36.5510   19.1954   27.5922 H   0  0  0  0  0  0  0  0  0  0  0  0
   36.9643   14.8366   29.0517 H   0  0  0  0  0  0  0  0  0  0  0  0
   37.1162   13.7316   31.2861 H   0  0  0  0  0  0  0  0  0  0  0  0
   37.0462   15.2028   33.3345 H   0  0  0  0  0  0  0  0  0  0  0  0
   36.8322   17.6032   33.0935 H   0  0  0  0  0  0  0  0  0  0  0  0
   39.0197   23.1579   33.3396 H   0  0  0  0  0  0  0  0  0  0  0  0
   39.9112   24.6494   35.1496 H   0  0  0  0  0  0  0  0  0  0  0  0
   37.2783   22.8043   37.9363 H   0  0  0  0  0  0  0  0  0  0  0  0
  1  2  2  0
  1 16  1  0
  3  2  1  0
  4  5  1  0
  4  3  2  0
  5  1  1  0
  6 15  1  0
  6  4  1  0
  7  6  2  0
  8  9  2  0
  8  7  1  0
  9 10  1  0
 10 11  1  0
 10 15  2  0
 11 12  2  0
 12 13  1  0
 14 13  2  0
 15 14  1  0
 16 21  1  0
 17 16  2  0
 17 18  1  0
 18 19  2  0
 19 20  1  0
 21 20  2  0
  2 22  1  0
  3 23  1  0
  8 24  1  0
 11 25  1  0
 12 26  1  0
 13 27  1  0
 14 28  1  0
 17 29  1  0
 18 30  1  0
 20 31  1  0
M  ISO  8  22  14  23  14  24  14  25  14  26  14  27  14  28  14  29  14
M  ISO  2  30  14  31  14
M  END
>  <minimizedAffinity>  (1) 
-4.71859837

>  <minimizedRMSD>  (1) 
2.71940327

$$$$
