
     RDKit          3D

 24 25  0  0  0  0  0  0  0  0999 V2000
   38.1540   22.6540   36.2580 C   0  0  0  0  0  0  0  0  0  0  0  0
   38.1380   23.8280   37.0610 C   0  0  0  0  0  0  0  0  0  0  0  0
   38.0740   25.0480   36.4240 C   0  0  0  0  0  0  0  0  0  0  0  0
   38.0290   25.0880   35.0560 N   0  0  0  0  0  0  0  0  0  0  0  0
   38.0470   23.9330   34.3290 C   0  0  0  0  0  0  0  0  0  0  0  0
   38.1080   22.7560   34.9210 N   0  0  0  0  0  0  0  0  0  0  0  0
   38.1890   23.7810   38.5410 C   0  0  0  0  0  0  0  0  0  0  0  0
   39.5030   23.4990   38.9000 F   0  0  0  0  0  0  0  0  0  0  0  0
   37.4030   22.8300   39.0850 F   0  0  0  0  0  0  0  0  0  0  0  0
   37.9870   25.0750   39.0800 F   0  0  0  0  0  0  0  0  0  0  0  0
   37.9910   24.1210   32.5460 S   0  0  0  0  0  0  0  0  0  0  0  0
   37.3480   22.6500   31.7800 C   0  0  0  0  0  0  0  0  0  0  0  0
   38.0990   21.7000   31.1210 C   0  0  0  0  0  0  0  0  0  0  0  0
   37.5570   20.5760   30.5430 C   0  0  0  0  0  0  0  0  0  0  0  0
   36.1770   20.3730   30.6190 C   0  0  0  0  0  0  0  0  0  0  0  0
   35.4080   21.3180   31.2770 C   0  0  0  0  0  0  0  0  0  0  0  0
   35.9690   22.4390   31.8520 C   0  0  0  0  0  0  0  0  0  0  0  0
   38.2041   21.6631   36.7329 H   0  0  0  0  0  0  0  0  0  0  0  0
   38.0592   25.9800   37.0081 H   0  0  0  0  0  0  0  0  0  0  0  0
   39.1869   21.8486   31.0541 H   0  0  0  0  0  0  0  0  0  0  0  0
   38.2007   19.8475   30.0284 H   0  0  0  0  0  0  0  0  0  0  0  0
   35.7125   19.4841   30.1671 H   0  0  0  0  0  0  0  0  0  0  0  0
   34.3199   21.1706   31.3429 H   0  0  0  0  0  0  0  0  0  0  0  0
   35.3287   23.1691   32.3688 H   0  0  0  0  0  0  0  0  0  0  0  0
  1  2  2  0
  2  7  1  0
  3  2  1  0
  4  3  2  0
  5  6  2  0
  5  4  1  0
  6  1  1  0
  7  8  1  0
  7 10  1  0
  7  9  1  0
 11  5  1  0
 12 17  1  0
 12 11  1  0
 13 12  2  0
 14 15  2  0
 14 13  1  0
 15 16  1  0
 16 17  2  0
  1 18  1  0
  3 19  1  0
 13 20  1  0
 14 21  1  0
 15 22  1  0
 16 23  1  0
 17 24  1  0
M  ISO  7  18  14  19  14  20  14  21  14  22  14  23  14  24  14
M  END
>  <minimizedAffinity>  (1) 
-5.07731342

>  <minimizedRMSD>  (1) 
3.14990044

$$$$
