
     RDKit          3D

 33 35  0  0  0  0  0  0  0  0999 V2000
   37.4810   21.7130   34.9530 C   0  0  0  0  0  0  0  0  0  0  0  0
   36.1660   21.2230   34.9790 C   0  0  0  0  0  0  0  0  0  0  0  0
   35.8700   20.7430   33.7160 C   0  0  0  0  0  0  0  0  0  0  0  0
   37.0150   20.9650   32.9870 C   0  0  0  0  0  0  0  0  0  0  0  0
   37.9220   21.5330   33.7570 O   0  0  0  0  0  0  0  0  0  0  0  0
   38.0790   22.2860   36.1430 C   0  0  0  0  0  0  0  0  0  0  0  0
   39.4460   22.2560   36.4310 C   0  0  0  0  0  0  0  0  0  0  0  0
   39.9050   22.8390   37.6060 C   0  0  0  0  0  0  0  0  0  0  0  0
   38.9920   23.4260   38.4420 N   0  0  0  0  0  0  0  0  0  0  0  0
   37.6840   23.4430   38.1440 C   0  0  0  0  0  0  0  0  0  0  0  0
   37.2140   22.8850   37.0130 N   0  0  0  0  0  0  0  0  0  0  0  0
   37.1900   20.6180   31.5660 C   0  0  0  0  0  0  0  0  0  0  0  0
   38.5880   20.7280   31.0570 C   0  0  0  0  0  0  0  0  0  0  0  0
   38.5520   20.5750   29.5590 C   0  0  0  0  0  0  0  0  0  0  0  0
   37.7490   19.4280   29.0570 C   0  0  0  0  0  0  0  0  0  0  0  0
   36.4810   19.1420   29.8040 C   0  0  0  0  0  0  0  0  0  0  0  0
   36.7450   19.1720   31.3050 C   0  0  0  0  0  0  0  0  0  0  0  0
   35.4917   21.2211   35.8481 H   0  0  0  0  0  0  0  0  0  0  0  0
   34.9302   20.2864   33.3720 H   0  0  0  0  0  0  0  0  0  0  0  0
   40.1507   21.7764   35.7357 H   0  0  0  0  0  0  0  0  0  0  0  0
   40.9755   22.8294   37.8588 H   0  0  0  0  0  0  0  0  0  0  0  0
   36.9801   23.9236   38.8394 H   0  0  0  0  0  0  0  0  0  0  0  0
   36.5721   21.3577   31.0359 H   0  0  0  0  0  0  0  0  0  0  0  0
   39.0053   21.7107   31.3218 H   0  0  0  0  0  0  0  0  0  0  0  0
   39.2202   19.9475   31.5055 H   0  0  0  0  0  0  0  0  0  0  0  0
   38.1304   21.4974   29.1331 H   0  0  0  0  0  0  0  0  0  0  0  0
   39.5889   20.3801   29.2478 H   0  0  0  0  0  0  0  0  0  0  0  0
   37.4843   19.6343   28.0095 H   0  0  0  0  0  0  0  0  0  0  0  0
   38.3821   18.5386   29.1920 H   0  0  0  0  0  0  0  0  0  0  0  0
   35.7288   19.9036   29.5507 H   0  0  0  0  0  0  0  0  0  0  0  0
   36.1111   18.1454   29.5212 H   0  0  0  0  0  0  0  0  0  0  0  0
   35.8309   18.9348   31.8691 H   0  0  0  0  0  0  0  0  0  0  0  0
   37.4940   18.4312   31.6215 H   0  0  0  0  0  0  0  0  0  0  0  0
  1  2  2  0
  1  6  1  0
  3  2  1  0
  4  3  2  0
  4  5  1  0
  5  1  1  0
  6  7  2  0
  6 11  1  0
  7  8  1  0
  8  9  2  0
 10  9  1  0
 11 10  2  0
 12  4  1  0
 13 12  1  0
 14 13  1  0
 15 14  1  0
 15 16  1  0
 16 17  1  0
 17 12  1  0
  2 18  1  0
  3 19  1  0
  7 20  1  0
  8 21  1  0
 10 22  1  0
 12 23  1  0
 13 24  1  0
 13 25  1  0
 14 26  1  0
 14 27  1  0
 15 28  1  0
 15 29  1  0
 16 30  1  0
 16 31  1  0
 17 32  1  0
 17 33  1  0
M  ISO  8  18  14  19  14  20  14  21  14  22  14  23  13  24  13  25  13
M  ISO  8  26  13  27  13  28  13  29  13  30  13  31  13  32  13  33  13
M  END
>  <minimizedAffinity>  (1) 
-4.35941267

>  <minimizedRMSD>  (1) 
0.954927325

$$$$
