
     RDKit          3D

 27 29  0  0  0  0  0  0  0  0999 V2000
   37.4200   21.5960   34.7380 C   0  0  0  0  0  0  0  0  0  0  0  0
   36.0950   21.1870   34.7260 C   0  0  0  0  0  0  0  0  0  0  0  0
   35.8040   20.6470   33.4940 C   0  0  0  0  0  0  0  0  0  0  0  0
   36.9770   20.7540   32.8060 C   0  0  0  0  0  0  0  0  0  0  0  0
   37.9120   21.3180   33.5670 O   0  0  0  0  0  0  0  0  0  0  0  0
   38.0230   22.2100   35.9140 C   0  0  0  0  0  0  0  0  0  0  0  0
   39.4050   22.2370   36.1600 C   0  0  0  0  0  0  0  0  0  0  0  0
   39.8540   22.8580   37.3280 C   0  0  0  0  0  0  0  0  0  0  0  0
   38.9320   23.4060   38.1700 N   0  0  0  0  0  0  0  0  0  0  0  0
   37.6180   23.3590   37.9010 C   0  0  0  0  0  0  0  0  0  0  0  0
   37.1510   22.7670   36.7840 N   0  0  0  0  0  0  0  0  0  0  0  0
   37.2170   20.3250   31.4310 C   0  0  0  0  0  0  0  0  0  0  0  0
   38.3510   20.7190   30.7510 C   0  0  0  0  0  0  0  0  0  0  0  0
   38.6070   20.3230   29.4340 C   0  0  0  0  0  0  0  0  0  0  0  0
   37.6630   19.5000   28.8120 C   0  0  0  0  0  0  0  0  0  0  0  0
   36.5270   19.1050   29.4920 C   0  0  0  0  0  0  0  0  0  0  0  0
   36.3020   19.5130   30.7940 C   0  0  0  0  0  0  0  0  0  0  0  0
   35.3903   21.2793   35.5656 H   0  0  0  0  0  0  0  0  0  0  0  0
   34.8488   20.2272   33.1456 H   0  0  0  0  0  0  0  0  0  0  0  0
   40.1142   21.7820   35.4529 H   0  0  0  0  0  0  0  0  0  0  0  0
   40.9276   22.9039   37.5633 H   0  0  0  0  0  0  0  0  0  0  0  0
   36.9073   23.8132   38.6071 H   0  0  0  0  0  0  0  0  0  0  0  0
   39.0787   21.3666   31.2619 H   0  0  0  0  0  0  0  0  0  0  0  0
   39.5168   20.6469   28.9074 H   0  0  0  0  0  0  0  0  0  0  0  0
   37.8256   19.1656   27.7767 H   0  0  0  0  0  0  0  0  0  0  0  0
   35.7921   18.4576   28.9912 H   0  0  0  0  0  0  0  0  0  0  0  0
   35.3927   19.1898   31.3220 H   0  0  0  0  0  0  0  0  0  0  0  0
  1  6  1  0
  2  1  2  0
  3  2  1  0
  4  3  2  0
  4  5  1  0
  5  1  1  0
  6  7  2  0
  6 11  1  0
  7  8  1  0
  8  9  2  0
 10  9  1  0
 11 10  2  0
 12  4  1  0
 13 12  2  0
 14 13  1  0
 15 14  2  0
 15 16  1  0
 16 17  2  0
 17 12  1  0
  2 18  1  0
  3 19  1  0
  7 20  1  0
  8 21  1  0
 10 22  1  0
 13 23  1  0
 14 24  1  0
 15 25  1  0
 16 26  1  0
 17 27  1  0
M  ISO  8  18  14  19  14  20  14  21  14  22  14  23  14  24  14  25  14
M  ISO  2  26  14  27  14
M  END
>  <minimizedAffinity>  (1) 
-4.3587451

>  <minimizedRMSD>  (1) 
1.3211683

$$$$
