
     RDKit          3D

 24 26  0  0  0  0  0  0  0  0999 V2000
   37.1740   21.8190   35.1490 C   0  0  0  0  0  0  0  0  0  0  0  0
   36.1490   20.8920   35.3800 C   0  0  0  0  0  0  0  0  0  0  0  0
   35.5600   20.5890   34.1730 C   0  0  0  0  0  0  0  0  0  0  0  0
   36.2510   21.3450   33.2660 C   0  0  0  0  0  0  0  0  0  0  0  0
   37.2010   22.0610   33.8800 O   0  0  0  0  0  0  0  0  0  0  0  0
   37.9820   22.3290   36.2440 C   0  0  0  0  0  0  0  0  0  0  0  0
   39.3720   22.1820   36.3310 C   0  0  0  0  0  0  0  0  0  0  0  0
   40.0420   22.7120   37.4260 C   0  0  0  0  0  0  0  0  0  0  0  0
   39.3060   23.3610   38.3780 N   0  0  0  0  0  0  0  0  0  0  0  0
   37.9760   23.4890   38.2710 C   0  0  0  0  0  0  0  0  0  0  0  0
   37.3050   22.9820   37.2180 N   0  0  0  0  0  0  0  0  0  0  0  0
   36.0500   21.4270   31.7760 C   0  0  0  0  0  0  0  0  0  0  0  0
   37.1260   22.2080   31.0330 C   0  0  0  0  0  0  0  0  0  0  0  0
   35.7410   22.7380   31.1600 C   0  0  0  0  0  0  0  0  0  0  0  0
   35.8638   20.4774   36.3581 H   0  0  0  0  0  0  0  0  0  0  0  0
   34.7257   19.8980   33.9819 H   0  0  0  0  0  0  0  0  0  0  0  0
   39.9264   21.6532   35.5417 H   0  0  0  0  0  0  0  0  0  0  0  0
   41.1331   22.6125   37.5245 H   0  0  0  0  0  0  0  0  0  0  0  0
   37.4208   24.0188   39.0590 H   0  0  0  0  0  0  0  0  0  0  0  0
   35.5829   20.4331   31.7125 H   0  0  0  0  0  0  0  0  0  0  0  0
   37.4949   21.8523   30.0597 H   0  0  0  0  0  0  0  0  0  0  0  0
   38.1329   22.5794   31.2741 H   0  0  0  0  0  0  0  0  0  0  0  0
   35.5477   23.6100   31.8020 H   0  0  0  0  0  0  0  0  0  0  0  0
   34.9850   23.0899   30.4426 H   0  0  0  0  0  0  0  0  0  0  0  0
  1  2  2  0
  1  6  1  0
  3  2  1  0
  4  5  1  0
  4  3  2  0
  5  1  1  0
  6  7  2  0
  6 11  1  0
  7  8  1  0
  8  9  2  0
 10  9  1  0
 11 10  2  0
 12  4  1  0
 13 14  1  0
 13 12  1  0
 14 12  1  0
  2 15  1  0
  3 16  1  0
  7 17  1  0
  8 18  1  0
 10 19  1  0
 12 20  1  0
 13 21  1  0
 13 22  1  0
 14 23  1  0
 14 24  1  0
M  ISO  8  15  14  16  14  17  14  18  14  19  14  20  13  21  13  22  13
M  ISO  2  23  13  24  13
M  END
>  <minimizedAffinity>  (1) 
-4.33061266

>  <minimizedRMSD>  (1) 
0.243959337

$$$$
