
     RDKit          3D

 25 27  0  0  0  0  0  0  0  0999 V2000
   37.4480   21.6060   34.7380 C   0  0  0  0  0  0  0  0  0  0  0  0
   36.1190   21.1940   34.7220 C   0  0  0  0  0  0  0  0  0  0  0  0
   35.8330   20.6580   33.4810 C   0  0  0  0  0  0  0  0  0  0  0  0
   36.9990   20.7690   32.8010 C   0  0  0  0  0  0  0  0  0  0  0  0
   37.9140   21.3300   33.5760 O   0  0  0  0  0  0  0  0  0  0  0  0
   38.0390   22.2160   35.9220 C   0  0  0  0  0  0  0  0  0  0  0  0
   39.4200   22.2380   36.1690 C   0  0  0  0  0  0  0  0  0  0  0  0
   39.8510   22.8550   37.3400 C   0  0  0  0  0  0  0  0  0  0  0  0
   38.9340   23.3990   38.1820 N   0  0  0  0  0  0  0  0  0  0  0  0
   37.6140   23.3580   37.9090 C   0  0  0  0  0  0  0  0  0  0  0  0
   37.1640   22.7720   36.7870 N   0  0  0  0  0  0  0  0  0  0  0  0
   37.2320   20.3420   31.4210 C   0  0  0  0  0  0  0  0  0  0  0  0
   36.3150   19.5310   30.7630 C   0  0  0  0  0  0  0  0  0  0  0  0
   36.5430   19.1260   29.4490 C   0  0  0  0  0  0  0  0  0  0  0  0
   37.6650   19.5330   28.8250 N   0  0  0  0  0  0  0  0  0  0  0  0
   38.5460   20.3170   29.4700 C   0  0  0  0  0  0  0  0  0  0  0  0
   38.3550   20.7310   30.7570 N   0  0  0  0  0  0  0  0  0  0  0  0
   35.4119   21.2808   35.5601 H   0  0  0  0  0  0  0  0  0  0  0  0
   34.8796   20.2385   33.1274 H   0  0  0  0  0  0  0  0  0  0  0  0
   40.1339   21.7855   35.4650 H   0  0  0  0  0  0  0  0  0  0  0  0
   40.9232   22.9016   37.5812 H   0  0  0  0  0  0  0  0  0  0  0  0
   36.8984   23.8090   38.6122 H   0  0  0  0  0  0  0  0  0  0  0  0
   35.4020   19.2061   31.2834 H   0  0  0  0  0  0  0  0  0  0  0  0
   35.8172   18.4834   28.9292 H   0  0  0  0  0  0  0  0  0  0  0  0
   39.4556   20.6373   28.9408 H   0  0  0  0  0  0  0  0  0  0  0  0
  1  6  1  0
  2  1  2  0
  3  2  1  0
  4  3  2  0
  4  5  1  0
  5  1  1  0
  6  7  2  0
  6 11  1  0
  7  8  1  0
  8  9  2  0
 10  9  1  0
 11 10  2  0
 12  4  1  0
 13 12  2  0
 14 13  1  0
 15 14  2  0
 15 16  1  0
 16 17  2  0
 17 12  1  0
  2 18  1  0
  3 19  1  0
  7 20  1  0
  8 21  1  0
 10 22  1  0
 13 23  1  0
 14 24  1  0
 16 25  1  0
M  ISO  8  18  14  19  14  20  14  21  14  22  14  23  14  24  14  25  14
M  END
>  <minimizedAffinity>  (1) 
-4.1709342

>  <minimizedRMSD>  (1) 
1.16329932

$$$$
