
     RDKit          3D

 30 32  0  0  0  0  0  0  0  0999 V2000
   37.3040   21.5300   34.8360 C   0  0  0  0  0  0  0  0  0  0  0  0
   35.9720   21.1210   34.9030 C   0  0  0  0  0  0  0  0  0  0  0  0
   35.6550   20.5360   33.6840 C   0  0  0  0  0  0  0  0  0  0  0  0
   36.7950   20.6210   32.9560 C   0  0  0  0  0  0  0  0  0  0  0  0
   37.7450   21.2120   33.6710 O   0  0  0  0  0  0  0  0  0  0  0  0
   37.9540   22.1880   35.9680 C   0  0  0  0  0  0  0  0  0  0  0  0
   39.3340   22.2560   36.1560 C   0  0  0  0  0  0  0  0  0  0  0  0
   39.8170   22.9170   37.2810 C   0  0  0  0  0  0  0  0  0  0  0  0
   38.9180   23.4710   38.1550 N   0  0  0  0  0  0  0  0  0  0  0  0
   37.5970   23.3840   37.9400 C   0  0  0  0  0  0  0  0  0  0  0  0
   37.0930   22.7540   36.8620 N   0  0  0  0  0  0  0  0  0  0  0  0
   36.9320   20.1380   31.6180 N   0  0  0  0  0  0  0  0  0  0  0  0
   36.1750   18.9600   31.2390 C   0  0  0  0  0  0  0  0  0  0  0  0
   36.6200   18.4340   29.8970 C   0  0  0  0  0  0  0  0  0  0  0  0
   36.9480   19.4690   29.0160 O   0  0  0  0  0  0  0  0  0  0  0  0
   38.1170   20.0260   29.4800 C   0  0  0  0  0  0  0  0  0  0  0  0
   37.8230   20.8430   30.6950 C   0  0  0  0  0  0  0  0  0  0  0  0
   35.2969   21.2400   35.7632 H   0  0  0  0  0  0  0  0  0  0  0  0
   34.6925   20.1004   33.3775 H   0  0  0  0  0  0  0  0  0  0  0  0
   40.0242   21.7980   35.4322 H   0  0  0  0  0  0  0  0  0  0  0  0
   40.8987   22.9935   37.4654 H   0  0  0  0  0  0  0  0  0  0  0  0
   36.9061   23.8400   38.6644 H   0  0  0  0  0  0  0  0  0  0  0  0
   36.3241   18.1781   31.9982 H   0  0  0  0  0  0  0  0  0  0  0  0
   35.1124   19.2361   31.1700 H   0  0  0  0  0  0  0  0  0  0  0  0
   37.5038   17.7950   30.0404 H   0  0  0  0  0  0  0  0  0  0  0  0
   35.7867   17.8643   29.4598 H   0  0  0  0  0  0  0  0  0  0  0  0
   38.8285   19.2274   29.7369 H   0  0  0  0  0  0  0  0  0  0  0  0
   38.5559   20.6667   28.7010 H   0  0  0  0  0  0  0  0  0  0  0  0
   38.7680   21.0661   31.2120 H   0  0  0  0  0  0  0  0  0  0  0  0
   37.3220   21.7681   30.3736 H   0  0  0  0  0  0  0  0  0  0  0  0
  1  2  2  0
  1  6  1  0
  3  2  1  0
  4  5  1  0
  4  3  2  0
  5  1  1  0
  6  7  2  0
  6 11  1  0
  7  8  1  0
  8  9  2  0
 10  9  1  0
 11 10  2  0
 12  4  1  0
 13 12  1  0
 14 13  1  0
 15 16  1  0
 15 14  1  0
 16 17  1  0
 17 12  1  0
  2 18  1  0
  3 19  1  0
  7 20  1  0
  8 21  1  0
 10 22  1  0
 13 23  1  0
 13 24  1  0
 14 25  1  0
 14 26  1  0
 16 27  1  0
 16 28  1  0
 17 29  1  0
 17 30  1  0
M  ISO  8  18  14  19  14  20  14  21  14  22  14  23  13  24  13  25  13
M  ISO  5  26  13  27  13  28  13  29  13  30  13
M  END
>  <minimizedAffinity>  (1) 
-4.0750742

>  <minimizedRMSD>  (1) 
1.45466244

$$$$
