
     RDKit          3D

 39 41  0  0  1  0  0  0  0  0999 V2000
   36.3240   21.0630   31.8370 C   0  0  2  0  0  0  0  0  0  0  0  0
   37.2130   21.7350   35.1980 C   0  0  0  0  0  0  0  0  0  0  0  0
   36.0800   20.9680   35.4680 C   0  0  0  0  0  0  0  0  0  0  0  0
   35.5680   20.5940   34.2260 C   0  0  0  0  0  0  0  0  0  0  0  0
   36.4210   21.1550   33.3000 C   0  0  0  0  0  0  0  0  0  0  0  0
   37.3640   21.8110   33.9190 O   0  0  0  0  0  0  0  0  0  0  0  0
   38.0040   22.3010   36.2920 C   0  0  0  0  0  0  0  0  0  0  0  0
   39.3940   22.1910   36.3960 C   0  0  0  0  0  0  0  0  0  0  0  0
   40.0080   22.7920   37.5010 C   0  0  0  0  0  0  0  0  0  0  0  0
   39.2510   23.4470   38.4160 N   0  0  0  0  0  0  0  0  0  0  0  0
   37.9100   23.5370   38.2870 C   0  0  0  0  0  0  0  0  0  0  0  0
   37.3060   22.9700   37.2390 N   0  0  0  0  0  0  0  0  0  0  0  0
   35.8070   22.3360   31.2160 C   0  0  0  0  0  0  0  0  0  0  0  0
   35.5220   19.8830   31.4420 C   0  0  0  0  0  0  0  0  0  0  0  0
   36.1820   18.6340   31.3120 N   0  0  0  0  0  0  0  0  0  0  0  0
   36.4720   17.5510   32.0370 C   0  0  0  0  0  0  0  0  0  0  0  0
   37.1260   16.4360   31.6450 C   0  0  0  0  0  0  0  0  0  0  0  0
   37.3310   15.3660   32.6250 C   0  0  0  0  0  0  0  0  0  0  0  0
   37.5630   16.3610   30.3520 C   0  0  0  0  0  0  0  0  0  0  0  0
   38.1710   15.3360   29.9700 O   0  0  0  0  0  0  0  0  0  0  0  0
   37.3110   17.4110   29.5570 N   0  0  0  0  0  0  0  0  0  0  0  0
   36.6480   18.4970   30.0230 C   0  0  0  0  0  0  0  0  0  0  0  0
   36.5270   19.3600   29.0850 O   0  0  0  0  0  0  0  0  0  0  0  0
   37.3418   20.9265   31.4427 H   0  0  0  0  0  0  0  0  0  0  0  0
   35.6737   20.7109   36.4574 H   0  0  0  0  0  0  0  0  0  0  0  0
   34.6752   19.9827   34.0279 H   0  0  0  0  0  0  0  0  0  0  0  0
   39.9825   21.6527   35.6384 H   0  0  0  0  0  0  0  0  0  0  0  0
   41.0992   22.7333   37.6266 H   0  0  0  0  0  0  0  0  0  0  0  0
   37.3174   24.0749   39.0416 H   0  0  0  0  0  0  0  0  0  0  0  0
   35.5206   23.0413   32.0100 H   0  0  0  0  0  0  0  0  0  0  0  0
   36.5938   22.7857   30.5925 H   0  0  0  0  0  0  0  0  0  0  0  0
   34.9295   22.1097   30.5925 H   0  0  0  0  0  0  0  0  0  0  0  0
   34.7333   19.7573   32.1984 H   0  0  0  0  0  0  0  0  0  0  0  0
   35.1796   20.1164   30.4230 H   0  0  0  0  0  0  0  0  0  0  0  0
   36.1364   17.5690   33.0844 H   0  0  0  0  0  0  0  0  0  0  0  0
   37.2518   15.7795   33.6413 H   0  0  0  0  0  0  0  0  0  0  0  0
   36.5654   14.5887   32.4847 H   0  0  0  0  0  0  0  0  0  0  0  0
   38.3297   14.9267   32.4847 H   0  0  0  0  0  0  0  0  0  0  0  0
   37.6264   17.3917   28.5767 H   0  0  0  0  0  0  0  0  0  0  0  0
  1  5  1  0
  2  3  2  0
  2  7  1  0
  4  3  1  0
  5  6  1  0
  5  4  2  0
  6  2  1  0
  7  8  2  0
  7 12  1  0
  8  9  1  0
  9 10  2  0
 11 10  1  0
 12 11  2  0
 13  1  1  0
 14  1  1  0
 15 14  1  0
 15 16  1  0
 17 16  2  0
 17 18  1  0
 19 17  1  0
 20 19  2  0
 21 22  1  0
 21 19  1  0
 22 15  1  0
 23 22  2  0
  1 24  1  6
  3 25  1  0
  4 26  1  0
  8 27  1  0
  9 28  1  0
 11 29  1  0
 13 30  1  0
 13 31  1  0
 13 32  1  0
 14 33  1  0
 14 34  1  0
 16 35  1  0
 18 36  1  0
 18 37  1  0
 18 38  1  0
 21 39  1  0
M  ISO  8  24   8  25  14  26  14  27  14  28  14  29  14  30   8  31   8
M  ISO  8  32   8  33   8  34   8  35  14  36   8  37   8  38   8  39   9
M  END
>  <minimizedAffinity>  (1) 
-5.24480295

>  <minimizedRMSD>  (1) 
0.831823707

$$$$
