
     RDKit          3D

 36 38  0  0  1  0  0  0  0  0999 V2000
   36.2310   21.4440   31.9750 C   0  0  2  0  0  0  0  0  0  0  0  0
   37.3100   21.8640   35.3370 C   0  0  0  0  0  0  0  0  0  0  0  0
   36.2250   21.0260   35.6260 C   0  0  0  0  0  0  0  0  0  0  0  0
   35.6250   20.7180   34.4050 C   0  0  0  0  0  0  0  0  0  0  0  0
   36.3910   21.3920   33.4650 C   0  0  0  0  0  0  0  0  0  0  0  0
   37.3620   22.0450   34.0610 O   0  0  0  0  0  0  0  0  0  0  0  0
   38.1600   22.3750   36.4170 C   0  0  0  0  0  0  0  0  0  0  0  0
   39.5410   22.1510   36.4900 C   0  0  0  0  0  0  0  0  0  0  0  0
   40.2080   22.7090   37.5890 C   0  0  0  0  0  0  0  0  0  0  0  0
   39.5280   23.4250   38.5180 N   0  0  0  0  0  0  0  0  0  0  0  0
   38.1870   23.6170   38.4090 C   0  0  0  0  0  0  0  0  0  0  0  0
   37.5390   23.0940   37.3720 N   0  0  0  0  0  0  0  0  0  0  0  0
   35.7460   22.8100   31.5350 C   0  0  0  0  0  0  0  0  0  0  0  0
   35.2200   20.3950   31.6130 C   0  0  0  0  0  0  0  0  0  0  0  0
   35.8500   19.2440   30.9600 N   0  0  0  0  0  0  0  0  0  0  0  0
   36.5140   19.3740   29.7740 C   0  0  0  0  0  0  0  0  0  0  0  0
   37.0920   18.2600   29.1940 C   0  0  0  0  0  0  0  0  0  0  0  0
   37.0000   17.0140   29.8140 C   0  0  0  0  0  0  0  0  0  0  0  0
   37.5050   15.9730   29.3350 O   0  0  0  0  0  0  0  0  0  0  0  0
   36.3440   16.9090   30.9780 N   0  0  0  0  0  0  0  0  0  0  0  0
   35.7760   18.0120   31.5430 C   0  0  0  0  0  0  0  0  0  0  0  0
   35.1730   17.8320   32.6430 O   0  0  0  0  0  0  0  0  0  0  0  0
   37.1930   21.2615   31.4738 H   0  0  0  0  0  0  0  0  0  0  0  0
   35.9084   20.6790   36.6207 H   0  0  0  0  0  0  0  0  0  0  0  0
   34.7437   20.0840   34.2276 H   0  0  0  0  0  0  0  0  0  0  0  0
   40.0739   21.5676   35.7247 H   0  0  0  0  0  0  0  0  0  0  0  0
   41.2930   22.5648   37.6988 H   0  0  0  0  0  0  0  0  0  0  0  0
   37.6442   24.1979   39.1692 H   0  0  0  0  0  0  0  0  0  0  0  0
   35.5278   23.4245   32.4209 H   0  0  0  0  0  0  0  0  0  0  0  0
   36.5254   23.2992   30.9323 H   0  0  0  0  0  0  0  0  0  0  0  0
   34.8326   22.6982   30.9323 H   0  0  0  0  0  0  0  0  0  0  0  0
   34.7151   20.0541   32.5289 H   0  0  0  0  0  0  0  0  0  0  0  0
   34.4993   20.8385   30.9102 H   0  0  0  0  0  0  0  0  0  0  0  0
   36.5884   20.3562   29.2844 H   0  0  0  0  0  0  0  0  0  0  0  0
   37.6275   18.3569   28.2381 H   0  0  0  0  0  0  0  0  0  0  0  0
   36.2690   15.9945   31.4459 H   0  0  0  0  0  0  0  0  0  0  0  0
  1  5  1  0
  2  3  2  0
  2  7  1  0
  4  3  1  0
  5  6  1  0
  5  4  2  0
  6  2  1  0
  7  8  2  0
  7 12  1  0
  8  9  1  0
  9 10  2  0
 11 10  1  0
 12 11  2  0
 13  1  1  0
 14  1  1  0
 15 21  1  0
 15 14  1  0
 16 15  1  0
 17 16  2  0
 17 18  1  0
 18 20  1  0
 19 18  2  0
 20 21  1  0
 21 22  2  0
  1 23  1  6
  3 24  1  0
  4 25  1  0
  8 26  1  0
  9 27  1  0
 11 28  1  0
 13 29  1  0
 13 30  1  0
 13 31  1  0
 14 32  1  0
 14 33  1  0
 16 34  1  0
 17 35  1  0
 20 36  1  0
M  ISO  8  23   8  24  14  25  14  26  14  27  14  28  14  29   8  30   8
M  ISO  6  31   8  32   8  33   8  34  14  35  14  36   9
M  END
>  <minimizedAffinity>  (1) 
-5.18672419

>  <minimizedRMSD>  (1) 
2.07478476

$$$$
