
     RDKit          3D

 33 35  0  0  1  0  0  0  0  0999 V2000
   37.2360   21.8570   35.2500 C   0  0  0  0  0  0  0  0  0  0  0  0
   36.1800   20.9540   35.5150 C   0  0  0  0  0  0  0  0  0  0  0  0
   35.6120   20.6350   34.2850 C   0  0  0  0  0  0  0  0  0  0  0  0
   36.3540   21.3580   33.3620 C   0  0  0  0  0  0  0  0  0  0  0  0
   37.2900   22.0550   33.9780 O   0  0  0  0  0  0  0  0  0  0  0  0
   38.0310   22.3790   36.3520 C   0  0  0  0  0  0  0  0  0  0  0  0
   39.4200   22.2170   36.4480 C   0  0  0  0  0  0  0  0  0  0  0  0
   40.0670   22.7670   37.5560 C   0  0  0  0  0  0  0  0  0  0  0  0
   39.3480   23.4280   38.4850 N   0  0  0  0  0  0  0  0  0  0  0  0
   38.0010   23.5740   38.3720 C   0  0  0  0  0  0  0  0  0  0  0  0
   37.3770   23.0450   37.3060 N   0  0  0  0  0  0  0  0  0  0  0  0
   36.2070   21.4200   31.8730 C   0  0  2  0  0  0  0  0  0  0  0  0
   35.7450   22.7870   31.4280 C   0  0  0  0  0  0  0  0  0  0  0  0
   35.2160   20.3620   31.4890 C   0  0  0  0  0  0  0  0  0  0  0  0
   36.0000   19.2350   30.8670 C   0  0  0  0  0  0  0  0  0  0  0  0
   36.6510   19.3300   29.6350 C   0  0  0  0  0  0  0  0  0  0  0  0
   37.2470   18.0970   29.4260 C   0  0  0  0  0  0  0  0  0  0  0  0
   36.9320   17.3210   30.5270 C   0  0  0  0  0  0  0  0  0  0  0  0
   36.1960   18.0370   31.3470 O   0  0  0  0  0  0  0  0  0  0  0  0
   35.8686   20.5775   36.5005 H   0  0  0  0  0  0  0  0  0  0  0  0
   34.7651   19.9611   34.0887 H   0  0  0  0  0  0  0  0  0  0  0  0
   39.9825   21.6736   35.6746 H   0  0  0  0  0  0  0  0  0  0  0  0
   41.1560   22.6617   37.6702 H   0  0  0  0  0  0  0  0  0  0  0  0
   37.4312   24.1164   39.1408 H   0  0  0  0  0  0  0  0  0  0  0  0
   37.1740   21.2437   31.3792 H   0  0  0  0  0  0  0  0  0  0  0  0
   35.5350   23.4085   32.3110 H   0  0  0  0  0  0  0  0  0  0  0  0
   36.5326   23.2617   30.8244 H   0  0  0  0  0  0  0  0  0  0  0  0
   34.8309   22.6866   30.8244 H   0  0  0  0  0  0  0  0  0  0  0  0
   34.6804   20.0036   32.3804 H   0  0  0  0  0  0  0  0  0  0  0  0
   34.4690   20.7581   30.7854 H   0  0  0  0  0  0  0  0  0  0  0  0
   36.6837   20.2040   28.9679 H   0  0  0  0  0  0  0  0  0  0  0  0
   37.8506   17.7951   28.5574 H   0  0  0  0  0  0  0  0  0  0  0  0
   37.2452   16.2790   30.6890 H   0  0  0  0  0  0  0  0  0  0  0  0
  1  2  2  0
  1  6  1  0
  3  2  1  0
  4  5  1  0
  4  3  2  0
  5  1  1  0
  6  7  2  0
  6 11  1  0
  7  8  1  0
  8  9  2  0
 10  9  1  0
 11 10  2  0
 12  4  1  0
 13 12  1  0
 14 12  1  0
 15 19  1  0
 15 14  1  0
 16 15  2  0
 17 16  1  0
 17 18  2  0
 18 19  1  0
  2 20  1  0
  3 21  1  0
  7 22  1  0
  8 23  1  0
 10 24  1  0
 12 25  1  6
 13 26  1  0
 13 27  1  0
 13 28  1  0
 14 29  1  0
 14 30  1  0
 16 31  1  0
 17 32  1  0
 18 33  1  0
M  ISO  8  20  14  21  14  22  14  23  14  24  14  25   8  26   8  27   8
M  ISO  6  28   8  29   8  30   8  31  14  32  14  33  14
M  END
>  <minimizedAffinity>  (1) 
-4.91796875

>  <minimizedRMSD>  (1) 
1.4181546

$$$$
