
     RDKit          3D

 33 35  0  0  1  0  0  0  0  0999 V2000
   37.2200   21.7550   35.2300 C   0  0  0  0  0  0  0  0  0  0  0  0
   36.0790   21.0050   35.5090 C   0  0  0  0  0  0  0  0  0  0  0  0
   35.5420   20.6160   34.2790 C   0  0  0  0  0  0  0  0  0  0  0  0
   36.4030   21.1590   33.3410 C   0  0  0  0  0  0  0  0  0  0  0  0
   37.3590   21.8120   33.9490 O   0  0  0  0  0  0  0  0  0  0  0  0
   38.0130   22.3170   36.3150 C   0  0  0  0  0  0  0  0  0  0  0  0
   39.4020   22.1970   36.4150 C   0  0  0  0  0  0  0  0  0  0  0  0
   40.0310   22.7930   37.4990 C   0  0  0  0  0  0  0  0  0  0  0  0
   39.2940   23.4670   38.4230 N   0  0  0  0  0  0  0  0  0  0  0  0
   37.9490   23.5670   38.3010 C   0  0  0  0  0  0  0  0  0  0  0  0
   37.3400   22.9990   37.2640 N   0  0  0  0  0  0  0  0  0  0  0  0
   36.3250   21.0710   31.8670 C   0  0  2  0  0  0  0  0  0  0  0  0
   35.6310   22.2710   31.2610 C   0  0  0  0  0  0  0  0  0  0  0  0
   35.6020   19.8130   31.5070 C   0  0  0  0  0  0  0  0  0  0  0  0
   36.4250   18.6290   31.6530 N   0  0  0  0  0  0  0  0  0  0  0  0
   37.6780   18.2720   31.4490 N   0  0  0  0  0  0  0  0  0  0  0  0
   37.8320   16.9960   31.7880 C   0  0  0  0  0  0  0  0  0  0  0  0
   36.6240   16.4810   32.2390 C   0  0  0  0  0  0  0  0  0  0  0  0
   35.7520   17.5440   32.1400 C   0  0  0  0  0  0  0  0  0  0  0  0
   35.6785   20.7655   36.5051 H   0  0  0  0  0  0  0  0  0  0  0  0
   34.6392   20.0143   34.0973 H   0  0  0  0  0  0  0  0  0  0  0  0
   39.9792   21.6467   35.6573 H   0  0  0  0  0  0  0  0  0  0  0  0
   41.1229   22.7207   37.6109 H   0  0  0  0  0  0  0  0  0  0  0  0
   37.3640   24.1145   39.0547 H   0  0  0  0  0  0  0  0  0  0  0  0
   37.3464   21.0581   31.4589 H   0  0  0  0  0  0  0  0  0  0  0  0
   35.2548   22.9214   32.0644 H   0  0  0  0  0  0  0  0  0  0  0  0
   36.3443   22.8317   30.6390 H   0  0  0  0  0  0  0  0  0  0  0  0
   34.7893   21.9324   30.6390 H   0  0  0  0  0  0  0  0  0  0  0  0
   35.2725   19.8847   30.4600 H   0  0  0  0  0  0  0  0  0  0  0  0
   34.7516   19.7115   32.1973 H   0  0  0  0  0  0  0  0  0  0  0  0
   38.7745   16.4328   31.7213 H   0  0  0  0  0  0  0  0  0  0  0  0
   36.4120   15.4614   32.5931 H   0  0  0  0  0  0  0  0  0  0  0  0
   34.6858   17.5223   32.4097 H   0  0  0  0  0  0  0  0  0  0  0  0
  1  2  2  0
  1  6  1  0
  3  2  1  0
  4  5  1  0
  4  3  2  0
  5  1  1  0
  6  7  2  0
  6 11  1  0
  7  8  1  0
  8  9  2  0
 10  9  1  0
 11 10  2  0
 12  4  1  0
 13 12  1  0
 14 15  1  0
 14 12  1  0
 15 19  1  0
 16 15  1  0
 16 17  2  0
 17 18  1  0
 19 18  2  0
  2 20  1  0
  3 21  1  0
  7 22  1  0
  8 23  1  0
 10 24  1  0
 12 25  1  6
 13 26  1  0
 13 27  1  0
 13 28  1  0
 14 29  1  0
 14 30  1  0
 17 31  1  0
 18 32  1  0
 19 33  1  0
M  ISO  8  20  14  21  14  22  14  23  14  24  14  25   8  26   8  27   8
M  ISO  6  28   8  29   8  30   8  31  14  32  14  33  14
M  END
>  <minimizedAffinity>  (1) 
-4.78752947

>  <minimizedRMSD>  (1) 
0.345000327

$$$$
