
     RDKit          3D

 26 27  0  0  1  0  0  0  0  0999 V2000
   39.1800   22.8490   36.3920 C   0  0  0  0  0  0  0  0  0  0  0  0
   38.4230   23.8190   37.0950 C   0  0  0  0  0  0  0  0  0  0  0  0
   37.8260   24.8350   36.3610 C   0  0  0  0  0  0  0  0  0  0  0  0
   37.9870   24.8640   35.0060 N   0  0  0  0  0  0  0  0  0  0  0  0
   38.7330   23.8970   34.3740 C   0  0  0  0  0  0  0  0  0  0  0  0
   39.3040   22.9280   35.0640 N   0  0  0  0  0  0  0  0  0  0  0  0
   38.2510   23.7790   38.5770 C   0  0  0  0  0  0  0  0  0  0  0  0
   39.4750   23.5080   39.1370 F   0  0  0  0  0  0  0  0  0  0  0  0
   37.3870   22.8070   38.9730 F   0  0  0  0  0  0  0  0  0  0  0  0
   37.9100   25.0630   39.0610 F   0  0  0  0  0  0  0  0  0  0  0  0
   38.8620   24.0550   32.5930 S   0  0  0  0  0  0  0  0  0  0  0  0
   37.8800   21.5380   32.9050 N   0  0  0  0  0  0  0  0  0  0  0  0
   36.4600   21.5340   33.1110 C   0  0  0  0  0  0  0  0  0  0  0  0
   35.8160   22.2740   31.9690 C   0  0  0  0  0  0  0  0  0  0  0  0
   36.9450   22.8000   31.1290 C   0  0  0  0  0  0  0  0  0  0  0  0
   38.2020   22.5040   31.9060 C   0  0  1  0  0  0  0  0  0  0  0  0
   39.6666   22.0292   36.9408 H   0  0  0  0  0  0  0  0  0  0  0  0
   37.2293   25.6087   36.8663 H   0  0  0  0  0  0  0  0  0  0  0  0
   38.3560   21.7803   33.7857 H   0  0  0  0  0  0  0  0  0  0  0  0
   36.0908   20.4982   33.1386 H   0  0  0  0  0  0  0  0  0  0  0  0
   36.2136   22.0211   34.0660 H   0  0  0  0  0  0  0  0  0  0  0  0
   35.1855   21.5927   31.3789 H   0  0  0  0  0  0  0  0  0  0  0  0
   35.1684   23.0869   32.3291 H   0  0  0  0  0  0  0  0  0  0  0  0
   36.8357   23.8836   30.9743 H   0  0  0  0  0  0  0  0  0  0  0  0
   36.9630   22.3326   30.1334 H   0  0  0  0  0  0  0  0  0  0  0  0
   38.9930   22.0827   31.2681 H   0  0  0  0  0  0  0  0  0  0  0  0
  1  2  2  0
  2  7  1  0
  3  2  1  0
  4  3  2  0
  5  4  1  0
  5  6  2  0
  6  1  1  0
  7  9  1  0
  7 10  1  0
  7  8  1  0
 11  5  1  0
 12 13  1  0
 14 13  1  0
 15 16  1  0
 15 14  1  0
 16 11  1  0
 16 12  1  0
  1 17  1  0
  3 18  1  0
 12 19  1  0
 13 20  1  0
 13 21  1  0
 14 22  1  0
 14 23  1  0
 15 24  1  0
 15 25  1  0
 16 26  1  6
M  ISO  8  17  14  18  14  19   5  20  13  21  13  22  13  23  13  24  13
M  ISO  2  25  13  26  13
M  END
>  <minimizedAffinity>  (1) 
-4.50459099

>  <minimizedRMSD>  (1) 
3.80493689

$$$$
