
     RDKit          3D

 33 35  0  0  1  0  0  0  0  0999 V2000
   37.2490   21.8570   35.1350 C   0  0  0  0  0  0  0  0  0  0  0  0
   36.1850   20.9800   35.3510 C   0  0  0  0  0  0  0  0  0  0  0  0
   35.6560   20.6860   34.0940 C   0  0  0  0  0  0  0  0  0  0  0  0
   36.4370   21.4040   33.2110 C   0  0  0  0  0  0  0  0  0  0  0  0
   37.3510   22.0700   33.8670 O   0  0  0  0  0  0  0  0  0  0  0  0
   38.0180   22.3620   36.2660 C   0  0  0  0  0  0  0  0  0  0  0  0
   39.4030   22.2200   36.3990 C   0  0  0  0  0  0  0  0  0  0  0  0
   40.0110   22.7600   37.5290 C   0  0  0  0  0  0  0  0  0  0  0  0
   39.2630   23.3970   38.4560 N   0  0  0  0  0  0  0  0  0  0  0  0
   37.9140   23.5240   38.3070 C   0  0  0  0  0  0  0  0  0  0  0  0
   37.3380   23.0050   37.2240 N   0  0  0  0  0  0  0  0  0  0  0  0
   36.3210   21.4700   31.7410 C   0  0  2  0  0  0  0  0  0  0  0  0
   35.7330   22.7850   31.2740 C   0  0  0  0  0  0  0  0  0  0  0  0
   35.4940   20.3270   31.2610 C   0  0  0  0  0  0  0  0  0  0  0  0
   36.1630   19.3400   30.4810 N   0  0  0  0  0  0  0  0  0  0  0  0
   36.6560   19.0630   29.2670 C   0  0  0  0  0  0  0  0  0  0  0  0
   37.2070   17.8310   29.1360 C   0  0  0  0  0  0  0  0  0  0  0  0
   37.0660   17.2590   30.3490 N   0  0  0  0  0  0  0  0  0  0  0  0
   36.4390   18.1850   31.1300 C   0  0  0  0  0  0  0  0  0  0  0  0
   35.8333   20.5966   36.3202 H   0  0  0  0  0  0  0  0  0  0  0  0
   34.8060   20.0286   33.8590 H   0  0  0  0  0  0  0  0  0  0  0  0
   39.9946   21.6970   35.6332 H   0  0  0  0  0  0  0  0  0  0  0  0
   41.0985   22.6681   37.6667 H   0  0  0  0  0  0  0  0  0  0  0  0
   37.3127   24.0451   39.0665 H   0  0  0  0  0  0  0  0  0  0  0  0
   37.3324   21.4037   31.3136 H   0  0  0  0  0  0  0  0  0  0  0  0
   35.4601   23.3954   32.1475 H   0  0  0  0  0  0  0  0  0  0  0  0
   36.4758   23.3240   30.6677 H   0  0  0  0  0  0  0  0  0  0  0  0
   34.8360   22.5908   30.6677 H   0  0  0  0  0  0  0  0  0  0  0  0
   35.0728   19.8253   32.1447 H   0  0  0  0  0  0  0  0  0  0  0  0
   34.7465   20.7718   30.5876 H   0  0  0  0  0  0  0  0  0  0  0  0
   36.6168   19.7829   28.4362 H   0  0  0  0  0  0  0  0  0  0  0  0
   37.6677   17.3942   28.2377 H   0  0  0  0  0  0  0  0  0  0  0  0
   36.1825   18.0099   32.1853 H   0  0  0  0  0  0  0  0  0  0  0  0
  1  2  2  0
  1  6  1  0
  3  2  1  0
  4  5  1  0
  4  3  2  0
  5  1  1  0
  6  7  2  0
  6 11  1  0
  7  8  1  0
  8  9  2  0
 10  9  1  0
 11 10  2  0
 12  4  1  0
 13 12  1  0
 14 12  1  0
 15 19  1  0
 15 14  1  0
 16 15  1  0
 17 16  2  0
 17 18  1  0
 18 19  2  0
  2 20  1  0
  3 21  1  0
  7 22  1  0
  8 23  1  0
 10 24  1  0
 12 25  1  6
 13 26  1  0
 13 27  1  0
 13 28  1  0
 14 29  1  0
 14 30  1  0
 16 31  1  0
 17 32  1  0
 19 33  1  0
M  ISO  8  20  14  21  14  22  14  23  14  24  14  25   8  26   8  27   8
M  ISO  6  28   8  29   8  30   8  31  14  32  14  33  14
M  END
>  <minimizedAffinity>  (1) 
-4.77589083

>  <minimizedRMSD>  (1) 
1.32803535

$$$$
