
     RDKit          3D

 39 41  0  0  1  0  0  0  0  0999 V2000
   37.2550   21.8080   35.0960 C   0  0  0  0  0  0  0  0  0  0  0  0
   36.1230   21.0040   35.2980 C   0  0  0  0  0  0  0  0  0  0  0  0
   35.6490   20.6790   34.0240 C   0  0  0  0  0  0  0  0  0  0  0  0
   36.5260   21.3060   33.1460 C   0  0  0  0  0  0  0  0  0  0  0  0
   37.4400   21.9480   33.8280 O   0  0  0  0  0  0  0  0  0  0  0  0
   38.0110   22.3330   36.2420 C   0  0  0  0  0  0  0  0  0  0  0  0
   39.3990   22.2020   36.3760 C   0  0  0  0  0  0  0  0  0  0  0  0
   39.9860   22.7520   37.5190 C   0  0  0  0  0  0  0  0  0  0  0  0
   39.2090   23.3750   38.4280 N   0  0  0  0  0  0  0  0  0  0  0  0
   37.8680   23.4910   38.2770 C   0  0  0  0  0  0  0  0  0  0  0  0
   37.3010   22.9640   37.1840 N   0  0  0  0  0  0  0  0  0  0  0  0
   36.5090   21.3070   31.6580 C   0  0  2  0  0  0  0  0  0  0  0  0
   35.4780   22.2740   31.1220 C   0  0  0  0  0  0  0  0  0  0  0  0
   36.1800   19.9180   31.2120 C   0  0  0  0  0  0  0  0  0  0  0  0
   37.2840   18.9990   31.2670 N   0  0  0  0  0  0  0  0  0  0  0  0
   38.2730   19.2540   30.2410 C   0  0  0  0  0  0  0  0  0  0  0  0
   37.6470   19.2810   28.8600 C   0  0  0  0  0  0  0  0  0  0  0  0
   36.6690   18.3410   28.6650 O   0  0  0  0  0  0  0  0  0  0  0  0
   36.8040   17.3000   29.5440 C   0  0  0  0  0  0  0  0  0  0  0  0
   36.7680   17.6660   30.9960 C   0  0  0  0  0  0  0  0  0  0  0  0
   35.6956   20.6928   36.2626 H   0  0  0  0  0  0  0  0  0  0  0  0
   34.7739   20.0623   33.7713 H   0  0  0  0  0  0  0  0  0  0  0  0
   40.0021   21.6876   35.6133 H   0  0  0  0  0  0  0  0  0  0  0  0
   41.0722   22.6773   37.6756 H   0  0  0  0  0  0  0  0  0  0  0  0
   37.2588   24.0060   39.0344 H   0  0  0  0  0  0  0  0  0  0  0  0
   37.4898   21.6262   31.2757 H   0  0  0  0  0  0  0  0  0  0  0  0
   34.9597   22.7601   31.9617 H   0  0  0  0  0  0  0  0  0  0  0  0
   35.9765   23.0379   30.5071 H   0  0  0  0  0  0  0  0  0  0  0  0
   34.7476   21.7277   30.5071 H   0  0  0  0  0  0  0  0  0  0  0  0
   35.8238   19.9659   30.1724 H   0  0  0  0  0  0  0  0  0  0  0  0
   35.4193   19.5366   31.9091 H   0  0  0  0  0  0  0  0  0  0  0  0
   38.7487   20.2263   30.4369 H   0  0  0  0  0  0  0  0  0  0  0  0
   39.0151   18.4425   30.2677 H   0  0  0  0  0  0  0  0  0  0  0  0
   37.2050   20.2758   28.7016 H   0  0  0  0  0  0  0  0  0  0  0  0
   38.4511   19.0514   28.1454 H   0  0  0  0  0  0  0  0  0  0  0  0
   35.9859   16.5895   29.3544 H   0  0  0  0  0  0  0  0  0  0  0  0
   37.8067   16.8848   29.3646 H   0  0  0  0  0  0  0  0  0  0  0  0
   35.7250   17.6184   31.3422 H   0  0  0  0  0  0  0  0  0  0  0  0
   37.4145   16.9523   31.5277 H   0  0  0  0  0  0  0  0  0  0  0  0
  1  2  2  0
  1  6  1  0
  3  2  1  0
  4  5  1  0
  4  3  2  0
  5  1  1  0
  6  7  2  0
  6 11  1  0
  7  8  1  0
  8  9  2  0
 10  9  1  0
 11 10  2  0
 12  4  1  0
 13 12  1  0
 14 15  1  0
 14 12  1  0
 16 15  1  0
 17 16  1  0
 18 17  1  0
 18 19  1  0
 19 20  1  0
 20 15  1  0
  2 21  1  0
  3 22  1  0
  7 23  1  0
  8 24  1  0
 10 25  1  0
 12 26  1  6
 13 27  1  0
 13 28  1  0
 13 29  1  0
 14 30  1  0
 14 31  1  0
 16 32  1  0
 16 33  1  0
 17 34  1  0
 17 35  1  0
 19 36  1  0
 19 37  1  0
 20 38  1  0
 20 39  1  0
M  ISO  8  21  14  22  14  23  14  24  14  25  14  26   8  27   8  28   8
M  ISO  8  29   8  30   8  31   8  32  13  33  13  34  13  35  13  36  13
M  ISO  3  37  13  38  13  39  13
M  END
>  <minimizedAffinity>  (1) 
-4.64230824

>  <minimizedRMSD>  (1) 
0.704778731

$$$$
