
     RDKit          3D

 21 22  0  0  0  0  0  0  0  0999 V2000
   38.2570   22.7380   36.0660 C   0  0  0  0  0  0  0  0  0  0  0  0
   38.1360   23.8480   36.9300 C   0  0  0  0  0  0  0  0  0  0  0  0
   37.9870   25.1020   36.3820 C   0  0  0  0  0  0  0  0  0  0  0  0
   37.9610   25.2210   35.0180 N   0  0  0  0  0  0  0  0  0  0  0  0
   38.0810   24.1210   34.2190 C   0  0  0  0  0  0  0  0  0  0  0  0
   38.2230   22.9190   34.7410 N   0  0  0  0  0  0  0  0  0  0  0  0
   38.1680   23.7150   38.4200 C   0  0  0  0  0  0  0  0  0  0  0  0
   39.4670   23.3470   38.7650 F   0  0  0  0  0  0  0  0  0  0  0  0
   37.3270   22.7760   38.8950 F   0  0  0  0  0  0  0  0  0  0  0  0
   38.0240   24.9850   39.0290 F   0  0  0  0  0  0  0  0  0  0  0  0
   38.0410   24.4210   32.4550 S   0  0  0  0  0  0  0  0  0  0  0  0
   37.1300   23.1640   31.5740 C   0  0  0  0  0  0  0  0  0  0  0  0
   35.7520   23.6420   31.0950 C   0  0  0  0  0  0  0  0  0  0  0  0
   35.8970   22.5490   32.0910 C   0  0  0  0  0  0  0  0  0  0  0  0
   38.3789   21.7268   36.4814 H   0  0  0  0  0  0  0  0  0  0  0  0
   37.8909   25.9889   37.0256 H   0  0  0  0  0  0  0  0  0  0  0  0
   38.0508   22.7148   31.1735 H   0  0  0  0  0  0  0  0  0  0  0  0
   35.3682   24.6258   31.4030 H   0  0  0  0  0  0  0  0  0  0  0  0
   35.2536   23.7597   30.1215 H   0  0  0  0  0  0  0  0  0  0  0  0
   35.6440   21.5173   31.8054 H   0  0  0  0  0  0  0  0  0  0  0  0
   35.4949   22.3791   33.1007 H   0  0  0  0  0  0  0  0  0  0  0  0
  1  2  2  0
  2  7  1  0
  3  2  1  0
  4  3  2  0
  5  6  2  0
  5  4  1  0
  6  1  1  0
  7  8  1  0
  7  9  1  0
  7 10  1  0
 11  5  1  0
 12 14  1  0
 12 11  1  0
 13 12  1  0
 13 14  1  0
  1 15  1  0
  3 16  1  0
 12 17  1  0
 13 18  1  0
 13 19  1  0
 14 20  1  0
 14 21  1  0
M  ISO  7  15  14  16  14  17  13  18  13  19  13  20  13  21  13
M  END
>  <minimizedAffinity>  (1) 
-4.40622568

>  <minimizedRMSD>  (1) 
2.99548054

$$$$
