
     RDKit          3D

 46 50  0  0  1  0  0  0  0  0999 V2000
   36.3250   21.6480   31.6800 C   0  0  2  0  0  0  0  0  0  0  0  0
   37.2690   21.9010   35.0710 C   0  0  0  0  0  0  0  0  0  0  0  0
   36.1830   21.0550   35.2540 C   0  0  0  0  0  0  0  0  0  0  0  0
   35.6440   20.8180   33.9850 C   0  0  0  0  0  0  0  0  0  0  0  0
   36.4650   21.5540   33.1310 C   0  0  0  0  0  0  0  0  0  0  0  0
   37.3970   22.1670   33.8060 O   0  0  0  0  0  0  0  0  0  0  0  0
   38.0820   22.3640   36.2100 C   0  0  0  0  0  0  0  0  0  0  0  0
   39.4490   22.1970   36.3300 C   0  0  0  0  0  0  0  0  0  0  0  0
   40.0430   22.7100   37.4910 C   0  0  0  0  0  0  0  0  0  0  0  0
   39.3060   23.3290   38.4290 N   0  0  0  0  0  0  0  0  0  0  0  0
   37.9600   23.4800   38.2810 C   0  0  0  0  0  0  0  0  0  0  0  0
   37.3830   23.0010   37.1900 N   0  0  0  0  0  0  0  0  0  0  0  0
   35.7610   23.0080   31.2530 C   0  0  0  0  0  0  0  0  0  0  0  0
   35.5180   20.5570   31.1160 C   0  0  0  0  0  0  0  0  0  0  0  0
   36.1620   19.3350   30.8080 N   0  0  0  0  0  0  0  0  0  0  0  0
   36.7200   18.7670   29.7250 C   0  0  0  0  0  0  0  0  0  0  0  0
   37.1840   17.5430   30.0260 N   0  0  0  0  0  0  0  0  0  0  0  0
   36.9030   17.3450   31.3400 C   0  0  0  0  0  0  0  0  0  0  0  0
   36.2880   18.4450   31.7770 N   0  0  0  0  0  0  0  0  0  0  0  0
   37.2430   16.1280   32.0710 C   0  0  0  0  0  0  0  0  0  0  0  0
   38.5240   15.6390   32.2230 C   0  0  0  0  0  0  0  0  0  0  0  0
   38.4680   14.5030   32.9520 N   0  0  0  0  0  0  0  0  0  0  0  0
   37.1550   14.2850   33.2550 C   0  0  0  0  0  0  0  0  0  0  0  0
   36.5470   13.2700   33.9750 C   0  0  0  0  0  0  0  0  0  0  0  0
   35.1800   13.2450   34.1620 C   0  0  0  0  0  0  0  0  0  0  0  0
   34.4320   14.2570   33.6120 C   0  0  0  0  0  0  0  0  0  0  0  0
   34.9950   15.3020   32.8770 C   0  0  0  0  0  0  0  0  0  0  0  0
   36.3560   15.2890   32.7160 C   0  0  0  0  0  0  0  0  0  0  0  0
   37.3411   21.5485   31.2705 H   0  0  0  0  0  0  0  0  0  0  0  0
   35.8181   20.6505   36.2096 H   0  0  0  0  0  0  0  0  0  0  0  0
   34.7754   20.1963   33.7221 H   0  0  0  0  0  0  0  0  0  0  0  0
   40.0399   21.6878   35.5544 H   0  0  0  0  0  0  0  0  0  0  0  0
   41.1282   22.6045   37.6367 H   0  0  0  0  0  0  0  0  0  0  0  0
   37.3646   23.9898   39.0527 H   0  0  0  0  0  0  0  0  0  0  0  0
   35.5154   23.6001   32.1469 H   0  0  0  0  0  0  0  0  0  0  0  0
   36.5111   23.5439   30.6528 H   0  0  0  0  0  0  0  0  0  0  0  0
   34.8518   22.8558   30.6528 H   0  0  0  0  0  0  0  0  0  0  0  0
   34.7225   20.3318   31.8416 H   0  0  0  0  0  0  0  0  0  0  0  0
   35.1860   20.9418   30.1404 H   0  0  0  0  0  0  0  0  0  0  0  0
   36.7871   19.2378   28.7331 H   0  0  0  0  0  0  0  0  0  0  0  0
   39.4383   16.0975   31.8182 H   0  0  0  0  0  0  0  0  0  0  0  0
   39.2658   13.9126   33.2273 H   0  0  0  0  0  0  0  0  0  0  0  0
   37.1654   12.4688   34.4059 H   0  0  0  0  0  0  0  0  0  0  0  0
   34.7027   12.4369   34.7357 H   0  0  0  0  0  0  0  0  0  0  0  0
   33.3417   14.2436   33.7569 H   0  0  0  0  0  0  0  0  0  0  0  0
   34.3735   16.1007   32.4460 H   0  0  0  0  0  0  0  0  0  0  0  0
  1  5  1  0
  2  3  2  0
  2  7  1  0
  4  3  1  0
  5  6  1  0
  5  4  2  0
  6  2  1  0
  7  8  2  0
  7 12  1  0
  8  9  1  0
  9 10  2  0
 11 10  1  0
 12 11  2  0
 13  1  1  0
 14  1  1  0
 15 14  1  0
 15 19  1  0
 16 17  2  0
 16 15  1  0
 17 18  1  0
 18 19  2  0
 18 20  1  0
 20 21  2  0
 20 28  1  0
 21 22  1  0
 22 23  1  0
 23 24  2  0
 24 25  1  0
 26 25  2  0
 27 26  1  0
 28 27  2  0
 28 23  1  0
  1 29  1  6
  3 30  1  0
  4 31  1  0
  8 32  1  0
  9 33  1  0
 11 34  1  0
 13 35  1  0
 13 36  1  0
 13 37  1  0
 14 38  1  0
 14 39  1  0
 16 40  1  0
 21 41  1  0
 22 42  1  0
 24 43  1  0
 25 44  1  0
 26 45  1  0
 27 46  1  0
M  ISO  8  29   8  30  14  31  14  32  14  33  14  34  14  35   8  36   8
M  ISO  8  37   8  38   8  39   8  40  14  41  14  42   9  43  14  44  14
M  ISO  2  45  14  46  14
M  END
>  <minimizedAffinity>  (1) 
-5.87408066

>  <minimizedRMSD>  (1) 
2.22821593

$$$$
