
     RDKit          3D

 46 50  0  0  1  0  0  0  0  0999 V2000
   36.5160   21.6400   31.5980 C   0  0  2  0  0  0  0  0  0  0  0  0
   37.3180   21.8990   35.0260 C   0  0  0  0  0  0  0  0  0  0  0  0
   36.2380   21.0100   35.1630 C   0  0  0  0  0  0  0  0  0  0  0  0
   35.7530   20.7630   33.8690 C   0  0  0  0  0  0  0  0  0  0  0  0
   36.5910   21.5320   33.0540 C   0  0  0  0  0  0  0  0  0  0  0  0
   37.4660   22.1580   33.7810 O   0  0  0  0  0  0  0  0  0  0  0  0
   38.0590   22.3650   36.2000 C   0  0  0  0  0  0  0  0  0  0  0  0
   39.4260   22.2290   36.3710 C   0  0  0  0  0  0  0  0  0  0  0  0
   39.9660   22.7410   37.5600 C   0  0  0  0  0  0  0  0  0  0  0  0
   39.1710   23.3300   38.4750 N   0  0  0  0  0  0  0  0  0  0  0  0
   37.8410   23.4450   38.2750 C   0  0  0  0  0  0  0  0  0  0  0  0
   37.2930   22.9710   37.1590 N   0  0  0  0  0  0  0  0  0  0  0  0
   35.5610   22.7510   31.1630 C   0  0  0  0  0  0  0  0  0  0  0  0
   36.1340   20.3650   30.9750 C   0  0  0  0  0  0  0  0  0  0  0  0
   36.9890   19.8190   29.9780 N   0  0  0  0  0  0  0  0  0  0  0  0
   38.2450   20.0380   29.5290 C   0  0  0  0  0  0  0  0  0  0  0  0
   38.4660   19.1760   28.4990 N   0  0  0  0  0  0  0  0  0  0  0  0
   37.3180   18.4300   28.3350 C   0  0  0  0  0  0  0  0  0  0  0  0
   36.4830   18.8600   29.2420 N   0  0  0  0  0  0  0  0  0  0  0  0
   37.9680   17.7470   27.2700 C   0  0  0  0  0  0  0  0  0  0  0  0
   38.5230   17.1630   26.3570 N   0  0  0  0  0  0  0  0  0  0  0  0
   39.0050   16.6150   25.3830 C   0  0  0  0  0  0  0  0  0  0  0  0
   38.1150   17.0080   24.4650 N   0  0  0  0  0  0  0  0  0  0  0  0
   37.0670   17.8070   24.8580 C   0  0  0  0  0  0  0  0  0  0  0  0
   36.2280   18.1390   23.7710 C   0  0  0  0  0  0  0  0  0  0  0  0
   35.1850   18.9340   24.1120 C   0  0  0  0  0  0  0  0  0  0  0  0
   34.8970   19.4180   25.3590 C   0  0  0  0  0  0  0  0  0  0  0  0
   35.8320   18.9810   26.2720 C   0  0  0  0  0  0  0  0  0  0  0  0
   37.0110   18.1600   26.2390 C   0  0  0  0  0  0  0  0  0  0  0  0
   37.5265   21.9000   31.2496 H   0  0  0  0  0  0  0  0  0  0  0  0
   35.8485   20.5895   36.1018 H   0  0  0  0  0  0  0  0  0  0  0  0
   34.9141   20.1185   33.5676 H   0  0  0  0  0  0  0  0  0  0  0  0
   40.0573   21.7436   35.6122 H   0  0  0  0  0  0  0  0  0  0  0  0
   41.0470   22.6611   37.7471 H   0  0  0  0  0  0  0  0  0  0  0  0
   37.2104   23.9304   39.0344 H   0  0  0  0  0  0  0  0  0  0  0  0
   35.1394   23.2414   32.0528 H   0  0  0  0  0  0  0  0  0  0  0  0
   36.1092   23.4911   30.5615 H   0  0  0  0  0  0  0  0  0  0  0  0
   34.7470   22.3202   30.5615 H   0  0  0  0  0  0  0  0  0  0  0  0
   36.0552   19.6197   31.7802 H   0  0  0  0  0  0  0  0  0  0  0  0
   35.2018   20.5938   30.4377 H   0  0  0  0  0  0  0  0  0  0  0  0
   38.9577   20.7772   29.9236 H   0  0  0  0  0  0  0  0  0  0  0  0
   39.9023   15.9860   25.2866 H   0  0  0  0  0  0  0  0  0  0  0  0
   36.4047   17.7854   22.7445 H   0  0  0  0  0  0  0  0  0  0  0  0
   34.4982   19.2201   23.3018 H   0  0  0  0  0  0  0  0  0  0  0  0
   34.0401   20.0646   25.5988 H   0  0  0  0  0  0  0  0  0  0  0  0
   35.6225   19.3564   27.2845 H   0  0  0  0  0  0  0  0  0  0  0  0
  1  5  1  0
  2  3  2  0
  2  7  1  0
  4  3  1  0
  5  6  1  0
  5  4  2  0
  6  2  1  0
  7  8  2  0
  7 12  1  0
  8  9  1  0
  9 10  2  0
 11 10  1  0
 12 11  2  0
 13  1  1  0
 14  1  1  0
 15 14  1  0
 16 15  1  0
 17 16  2  0
 18 17  1  0
 18 19  2  0
 19 15  1  0
 20 18  1  0
 21 20  2  0
 22 21  1  0
 23 24  1  0
 23 22  2  0
 24 29  2  0
 25 26  2  0
 25 24  1  0
 26 27  1  0
 27 28  2  0
 29 28  1  0
 29 20  1  0
  1 30  1  6
  3 31  1  0
  4 32  1  0
  8 33  1  0
  9 34  1  0
 11 35  1  0
 13 36  1  0
 13 37  1  0
 13 38  1  0
 14 39  1  0
 14 40  1  0
 16 41  1  0
 22 42  1  0
 25 43  1  0
 26 44  1  0
 27 45  1  0
 28 46  1  0
M  ISO  8  30   8  31  14  32  14  33  14  34  14  35  14  36   8  37   8
M  ISO  8  38   8  39   8  40   8  41  14  42  14  43  14  44  14  45  14
M  ISO  1  46  14
M  END
>  <minimizedAffinity>  (1) 
-5.7038455

>  <minimizedRMSD>  (1) 
2.41061687

$$$$
