
     RDKit          3D

 46 49  0  0  1  0  0  0  0  0999 V2000
   36.2950   21.5530   31.7860 C   0  0  2  0  0  0  0  0  0  0  0  0
   37.2640   21.8910   35.1620 C   0  0  0  0  0  0  0  0  0  0  0  0
   36.1850   21.0200   35.3710 C   0  0  0  0  0  0  0  0  0  0  0  0
   35.6440   20.7520   34.1080 C   0  0  0  0  0  0  0  0  0  0  0  0
   36.4450   21.4870   33.2380 C   0  0  0  0  0  0  0  0  0  0  0  0
   37.3750   22.1330   33.8930 O   0  0  0  0  0  0  0  0  0  0  0  0
   38.0670   22.3820   36.2880 C   0  0  0  0  0  0  0  0  0  0  0  0
   39.4330   22.2250   36.4150 C   0  0  0  0  0  0  0  0  0  0  0  0
   40.0420   22.7560   37.5570 C   0  0  0  0  0  0  0  0  0  0  0  0
   39.2920   23.3960   38.4890 N   0  0  0  0  0  0  0  0  0  0  0  0
   37.9430   23.5350   38.3360 C   0  0  0  0  0  0  0  0  0  0  0  0
   37.3730   23.0320   37.2570 N   0  0  0  0  0  0  0  0  0  0  0  0
   35.8260   22.9370   31.3290 C   0  0  0  0  0  0  0  0  0  0  0  0
   35.4130   20.5070   31.2570 C   0  0  0  0  0  0  0  0  0  0  0  0
   35.9790   19.2530   30.9150 N   0  0  0  0  0  0  0  0  0  0  0  0
   36.7220   18.7520   29.9120 C   0  0  0  0  0  0  0  0  0  0  0  0
   36.9660   17.4450   30.1290 N   0  0  0  0  0  0  0  0  0  0  0  0
   36.3510   17.1320   31.3040 C   0  0  0  0  0  0  0  0  0  0  0  0
   35.7720   18.2430   31.7420 N   0  0  0  0  0  0  0  0  0  0  0  0
   36.3630   15.8370   31.8990 N   0  0  0  0  0  0  0  0  0  0  0  0
   37.5100   15.3130   32.5610 C   0  0  0  0  0  0  0  0  0  0  0  0
   37.1540   13.8890   32.9780 C   0  0  0  0  0  0  0  0  0  0  0  0
   35.9440   13.8140   33.7420 N   0  0  0  0  0  0  0  0  0  0  0  0
   34.8740   14.6470   33.2880 C   0  0  0  0  0  0  0  0  0  0  0  0
   35.1640   15.0210   31.8300 C   0  0  0  0  0  0  0  0  0  0  0  0
   37.2968   21.3717   31.3695 H   0  0  0  0  0  0  0  0  0  0  0  0
   35.8335   20.6257   36.3359 H   0  0  0  0  0  0  0  0  0  0  0  0
   34.7857   20.1101   33.8605 H   0  0  0  0  0  0  0  0  0  0  0  0
   40.0207   21.7016   35.6464 H   0  0  0  0  0  0  0  0  0  0  0  0
   41.1281   22.6547   37.6992 H   0  0  0  0  0  0  0  0  0  0  0  0
   37.3428   24.0558   39.0966 H   0  0  0  0  0  0  0  0  0  0  0  0
   35.6143   23.5616   32.2094 H   0  0  0  0  0  0  0  0  0  0  0  0
   36.6140   23.4101   30.7246 H   0  0  0  0  0  0  0  0  0  0  0  0
   34.9127   22.8336   30.7246 H   0  0  0  0  0  0  0  0  0  0  0  0
   34.6411   20.3181   32.0176 H   0  0  0  0  0  0  0  0  0  0  0  0
   35.0595   20.9131   30.2977 H   0  0  0  0  0  0  0  0  0  0  0  0
   37.0778   19.3248   29.0429 H   0  0  0  0  0  0  0  0  0  0  0  0
   38.3726   15.3051   31.8785 H   0  0  0  0  0  0  0  0  0  0  0  0
   37.7829   15.9270   33.4319 H   0  0  0  0  0  0  0  0  0  0  0  0
   37.0341   13.2780   32.0712 H   0  0  0  0  0  0  0  0  0  0  0  0
   37.9696   13.5204   33.6174 H   0  0  0  0  0  0  0  0  0  0  0  0
   35.6162   12.8378   33.7214 H   0  0  0  0  0  0  0  0  0  0  0  0
   33.9208   14.1018   33.3529 H   0  0  0  0  0  0  0  0  0  0  0  0
   34.7972   15.5506   33.9106 H   0  0  0  0  0  0  0  0  0  0  0  0
   34.3280   15.5928   31.4010 H   0  0  0  0  0  0  0  0  0  0  0  0
   35.2942   14.1373   31.1880 H   0  0  0  0  0  0  0  0  0  0  0  0
  1  5  1  0
  2  3  2  0
  2  7  1  0
  4  3  1  0
  5  6  1  0
  5  4  2  0
  6  2  1  0
  7  8  2  0
  7 12  1  0
  8  9  1  0
  9 10  2  0
 11 10  1  0
 12 11  2  0
 13  1  1  0
 14  1  1  0
 15 14  1  0
 15 19  1  0
 16 17  2  0
 16 15  1  0
 17 18  1  0
 18 19  2  0
 18 20  1  0
 20 21  1  0
 21 22  1  0
 22 23  1  0
 24 23  1  0
 25 20  1  0
 25 24  1  0
  1 26  1  6
  3 27  1  0
  4 28  1  0
  8 29  1  0
  9 30  1  0
 11 31  1  0
 13 32  1  0
 13 33  1  0
 13 34  1  0
 14 35  1  0
 14 36  1  0
 16 37  1  0
 21 38  1  0
 21 39  1  0
 22 40  1  0
 22 41  1  0
 23 42  1  0
 24 43  1  0
 24 44  1  0
 25 45  1  0
 25 46  1  0
M  ISO  8  26   8  27  14  28  14  29  14  30  14  31  14  32   8  33   8
M  ISO  8  34   8  35   8  36   8  37  14  38  13  39  13  40  13  41  13
M  ISO  5  42   5  43  13  44  13  45  13  46  13
M  END
>  <minimizedAffinity>  (1) 
-5.47064495

>  <minimizedRMSD>  (1) 
1.02459109

$$$$
