
     RDKit          3D

 39 42  0  0  1  0  0  0  0  0999 V2000
   36.2410   21.4200   31.8610 C   0  0  2  0  0  0  0  0  0  0  0  0
   37.2410   21.8560   35.2150 C   0  0  0  0  0  0  0  0  0  0  0  0
   36.1480   21.0060   35.4640 C   0  0  0  0  0  0  0  0  0  0  0  0
   35.5940   20.7050   34.2150 C   0  0  0  0  0  0  0  0  0  0  0  0
   36.3990   21.3980   33.3140 C   0  0  0  0  0  0  0  0  0  0  0  0
   37.3430   22.0520   33.9400 O   0  0  0  0  0  0  0  0  0  0  0  0
   38.0570   22.3710   36.3220 C   0  0  0  0  0  0  0  0  0  0  0  0
   39.4270   22.2180   36.4290 C   0  0  0  0  0  0  0  0  0  0  0  0
   40.0500   22.7710   37.5530 C   0  0  0  0  0  0  0  0  0  0  0  0
   39.3100   23.4250   38.4840 N   0  0  0  0  0  0  0  0  0  0  0  0
   37.9680   23.5600   38.3520 C   0  0  0  0  0  0  0  0  0  0  0  0
   37.3700   23.0360   37.2870 N   0  0  0  0  0  0  0  0  0  0  0  0
   35.7390   22.7770   31.3670 C   0  0  0  0  0  0  0  0  0  0  0  0
   35.3750   20.3390   31.3690 C   0  0  0  0  0  0  0  0  0  0  0  0
   35.9610   19.0790   31.1010 N   0  0  0  0  0  0  0  0  0  0  0  0
   36.7220   18.5210   30.1400 C   0  0  0  0  0  0  0  0  0  0  0  0
   36.9810   17.2370   30.4240 N   0  0  0  0  0  0  0  0  0  0  0  0
   36.3510   16.9830   31.6160 C   0  0  0  0  0  0  0  0  0  0  0  0
   35.7630   18.1080   31.9700 N   0  0  0  0  0  0  0  0  0  0  0  0
   36.3390   15.6960   32.3520 C   0  0  0  0  0  0  0  0  0  0  0  0
   37.3630   14.8470   32.6960 C   0  0  0  0  0  0  0  0  0  0  0  0
   36.7530   13.7960   33.3800 C   0  0  0  0  0  0  0  0  0  0  0  0
   35.4420   14.0000   33.4420 N   0  0  0  0  0  0  0  0  0  0  0  0
   35.1760   15.1570   32.8180 N   0  0  0  0  0  0  0  0  0  0  0  0
   37.2447   21.2500   31.4441 H   0  0  0  0  0  0  0  0  0  0  0  0
   35.7989   20.6495   36.4443 H   0  0  0  0  0  0  0  0  0  0  0  0
   34.7242   20.0685   33.9954 H   0  0  0  0  0  0  0  0  0  0  0  0
   40.0043   21.6827   35.6608 H   0  0  0  0  0  0  0  0  0  0  0  0
   41.1383   22.6759   37.6820 H   0  0  0  0  0  0  0  0  0  0  0  0
   37.3828   24.0949   39.1145 H   0  0  0  0  0  0  0  0  0  0  0  0
   35.5023   23.4167   32.2300 H   0  0  0  0  0  0  0  0  0  0  0  0
   36.5191   23.2569   30.7578 H   0  0  0  0  0  0  0  0  0  0  0  0
   34.8344   22.6337   30.7578 H   0  0  0  0  0  0  0  0  0  0  0  0
   34.5918   20.1797   32.1247 H   0  0  0  0  0  0  0  0  0  0  0  0
   35.0311   20.6929   30.3859 H   0  0  0  0  0  0  0  0  0  0  0  0
   37.0820   19.0475   29.2438 H   0  0  0  0  0  0  0  0  0  0  0  0
   38.4342   14.9700   32.4785 H   0  0  0  0  0  0  0  0  0  0  0  0
   37.2788   12.9281   33.8046 H   0  0  0  0  0  0  0  0  0  0  0  0
   34.7522   13.3798   33.8897 H   0  0  0  0  0  0  0  0  0  0  0  0
  1  5  1  0
  2  3  2  0
  2  7  1  0
  4  3  1  0
  5  6  1  0
  5  4  2  0
  6  2  1  0
  7  8  2  0
  7 12  1  0
  8  9  1  0
  9 10  2  0
 11 10  1  0
 12 11  2  0
 13  1  1  0
 14  1  1  0
 15 14  1  0
 15 19  1  0
 16 17  2  0
 16 15  1  0
 17 18  1  0
 18 19  2  0
 18 20  1  0
 20 21  1  0
 20 24  2  0
 21 22  2  0
 22 23  1  0
 24 23  1  0
  1 25  1  6
  3 26  1  0
  4 27  1  0
  8 28  1  0
  9 29  1  0
 11 30  1  0
 13 31  1  0
 13 32  1  0
 13 33  1  0
 14 34  1  0
 14 35  1  0
 16 36  1  0
 21 37  1  0
 22 38  1  0
 23 39  1  0
M  ISO  8  25   8  26  14  27  14  28  14  29  14  30  14  31   8  32   8
M  ISO  7  33   8  34   8  35   8  36  14  37  14  38  14  39   9
M  END
>  <minimizedAffinity>  (1) 
-5.21771193

>  <minimizedRMSD>  (1) 
1.11048746

$$$$
