
     RDKit          3D

 35 37  0  0  1  0  0  0  0  0999 V2000
   36.2570   21.5300   31.7950 C   0  0  2  0  0  0  0  0  0  0  0  0
   37.2510   21.8700   35.1680 C   0  0  0  0  0  0  0  0  0  0  0  0
   36.1900   20.9770   35.3770 C   0  0  0  0  0  0  0  0  0  0  0  0
   35.6430   20.7050   34.1190 C   0  0  0  0  0  0  0  0  0  0  0  0
   36.4220   21.4600   33.2440 C   0  0  0  0  0  0  0  0  0  0  0  0
   37.3410   22.1180   33.8980 O   0  0  0  0  0  0  0  0  0  0  0  0
   38.0530   22.3710   36.2860 C   0  0  0  0  0  0  0  0  0  0  0  0
   39.4200   22.2240   36.4090 C   0  0  0  0  0  0  0  0  0  0  0  0
   40.0130   22.7720   37.5520 C   0  0  0  0  0  0  0  0  0  0  0  0
   39.2670   23.4120   38.4790 N   0  0  0  0  0  0  0  0  0  0  0  0
   37.9280   23.5410   38.3300 C   0  0  0  0  0  0  0  0  0  0  0  0
   37.3630   23.0250   37.2520 N   0  0  0  0  0  0  0  0  0  0  0  0
   35.7120   22.8930   31.3540 C   0  0  0  0  0  0  0  0  0  0  0  0
   35.4310   20.4450   31.2610 C   0  0  0  0  0  0  0  0  0  0  0  0
   36.0740   19.2930   30.7470 N   0  0  0  0  0  0  0  0  0  0  0  0
   36.6840   18.9410   29.6000 C   0  0  0  0  0  0  0  0  0  0  0  0
   37.1160   17.6680   29.6870 N   0  0  0  0  0  0  0  0  0  0  0  0
   36.7620   17.2230   30.9230 C   0  0  0  0  0  0  0  0  0  0  0  0
   36.1400   18.2260   31.5290 N   0  0  0  0  0  0  0  0  0  0  0  0
   37.0540   15.8540   31.4270 C   0  0  0  0  0  0  0  0  0  0  0  0
   37.2640   21.4046   31.3704 H   0  0  0  0  0  0  0  0  0  0  0  0
   35.8537   20.5700   36.3420 H   0  0  0  0  0  0  0  0  0  0  0  0
   34.7949   20.0478   33.8764 H   0  0  0  0  0  0  0  0  0  0  0  0
   40.0146   21.7013   35.6453 H   0  0  0  0  0  0  0  0  0  0  0  0
   41.0995   22.6806   37.6975 H   0  0  0  0  0  0  0  0  0  0  0  0
   37.3245   24.0625   39.0875 H   0  0  0  0  0  0  0  0  0  0  0  0
   35.4708   23.4961   32.2417 H   0  0  0  0  0  0  0  0  0  0  0  0
   36.4710   23.4140   30.7519 H   0  0  0  0  0  0  0  0  0  0  0  0
   34.8031   22.7471   30.7519 H   0  0  0  0  0  0  0  0  0  0  0  0
   34.7692   20.1113   32.0738 H   0  0  0  0  0  0  0  0  0  0  0  0
   34.9379   20.8902   30.3843 H   0  0  0  0  0  0  0  0  0  0  0  0
   36.8106   19.5941   28.7240 H   0  0  0  0  0  0  0  0  0  0  0  0
   37.0527   15.8602   32.5270 H   0  0  0  0  0  0  0  0  0  0  0  0
   36.2842   15.1574   31.0633 H   0  0  0  0  0  0  0  0  0  0  0  0
   38.0410   15.5322   31.0633 H   0  0  0  0  0  0  0  0  0  0  0  0
  1  5  1  0
  2  3  2  0
  2  7  1  0
  4  3  1  0
  5  6  1  0
  5  4  2  0
  6  2  1  0
  7  8  2  0
  7 12  1  0
  8  9  1  0
  9 10  2  0
 11 10  1  0
 12 11  2  0
 13  1  1  0
 14  1  1  0
 15 14  1  0
 15 19  1  0
 16 17  2  0
 16 15  1  0
 17 18  1  0
 18 20  1  0
 18 19  2  0
  1 21  1  6
  3 22  1  0
  4 23  1  0
  8 24  1  0
  9 25  1  0
 11 26  1  0
 13 27  1  0
 13 28  1  0
 13 29  1  0
 14 30  1  0
 14 31  1  0
 16 32  1  0
 20 33  1  0
 20 34  1  0
 20 35  1  0
M  ISO  8  21   8  22  14  23  14  24  14  25  14  26  14  27   8  28   8
M  ISO  7  29   8  30   8  31   8  32  14  33   8  34   8  35   8
M  END
>  <minimizedAffinity>  (1) 
-4.87547541

>  <minimizedRMSD>  (1) 
0.247993961

$$$$
