
     RDKit          3D

 34 36  0  0  1  0  0  0  0  0999 V2000
   36.2560   21.5380   31.7860 C   0  0  2  0  0  0  0  0  0  0  0  0
   37.2490   21.8690   35.1590 C   0  0  0  0  0  0  0  0  0  0  0  0
   36.1950   20.9790   35.3700 C   0  0  0  0  0  0  0  0  0  0  0  0
   35.6510   20.7130   34.1100 C   0  0  0  0  0  0  0  0  0  0  0  0
   36.4240   21.4660   33.2360 C   0  0  0  0  0  0  0  0  0  0  0  0
   37.3410   22.1220   33.8900 O   0  0  0  0  0  0  0  0  0  0  0  0
   38.0540   22.3700   36.2830 C   0  0  0  0  0  0  0  0  0  0  0  0
   39.4240   22.2200   36.4020 C   0  0  0  0  0  0  0  0  0  0  0  0
   40.0230   22.7630   37.5470 C   0  0  0  0  0  0  0  0  0  0  0  0
   39.2780   23.3990   38.4730 N   0  0  0  0  0  0  0  0  0  0  0  0
   37.9390   23.5320   38.3280 C   0  0  0  0  0  0  0  0  0  0  0  0
   37.3450   23.0240   37.2510 N   0  0  0  0  0  0  0  0  0  0  0  0
   35.7080   22.8980   31.3450 C   0  0  0  0  0  0  0  0  0  0  0  0
   35.4350   20.4490   31.2560 C   0  0  0  0  0  0  0  0  0  0  0  0
   36.0800   19.3040   30.7310 N   0  0  0  0  0  0  0  0  0  0  0  0
   36.6880   18.9490   29.5830 C   0  0  0  0  0  0  0  0  0  0  0  0
   37.1200   17.6840   29.6530 N   0  0  0  0  0  0  0  0  0  0  0  0
   36.7680   17.2300   30.8910 C   0  0  0  0  0  0  0  0  0  0  0  0
   36.1470   18.2320   31.5020 N   0  0  0  0  0  0  0  0  0  0  0  0
   37.0510   15.8840   31.3840 C   0  0  0  0  0  0  0  0  0  0  0  0
   36.9710   15.6100   32.5890 O   0  0  0  0  0  0  0  0  0  0  0  0
   37.2624   21.4195   31.3581 H   0  0  0  0  0  0  0  0  0  0  0  0
   35.8596   20.5691   36.3341 H   0  0  0  0  0  0  0  0  0  0  0  0
   34.8030   20.0562   33.8662 H   0  0  0  0  0  0  0  0  0  0  0  0
   40.0153   21.6993   35.6344 H   0  0  0  0  0  0  0  0  0  0  0  0
   41.1095   22.6694   37.6910 H   0  0  0  0  0  0  0  0  0  0  0  0
   37.3471   24.0552   39.0934 H   0  0  0  0  0  0  0  0  0  0  0  0
   35.4651   23.5007   32.2325 H   0  0  0  0  0  0  0  0  0  0  0  0
   36.4656   23.4208   30.7428 H   0  0  0  0  0  0  0  0  0  0  0  0
   34.7995   22.7495   30.7428 H   0  0  0  0  0  0  0  0  0  0  0  0
   34.7838   20.1071   32.0740 H   0  0  0  0  0  0  0  0  0  0  0  0
   34.9315   20.8942   30.3852 H   0  0  0  0  0  0  0  0  0  0  0  0
   36.8122   19.6066   28.7100 H   0  0  0  0  0  0  0  0  0  0  0  0
   37.3409   15.0985   30.6706 H   0  0  0  0  0  0  0  0  0  0  0  0
  1  5  1  0
  2  3  2  0
  2  7  1  0
  4  3  1  0
  5  6  1  0
  5  4  2  0
  6  2  1  0
  7  8  2  0
  7 12  1  0
  8  9  1  0
  9 10  2  0
 11 10  1  0
 12 11  2  0
 13  1  1  0
 14  1  1  0
 15 14  1  0
 15 19  1  0
 16 17  2  0
 16 15  1  0
 17 18  1  0
 18 20  1  0
 18 19  2  0
 20 21  2  0
  1 22  1  6
  3 23  1  0
  4 24  1  0
  8 25  1  0
  9 26  1  0
 11 27  1  0
 13 28  1  0
 13 29  1  0
 13 30  1  0
 14 31  1  0
 14 32  1  0
 16 33  1  0
 20 34  1  0
M  ISO  8  22   8  23  14  24  14  25  14  26  14  27  14  28   8  29   8
M  ISO  5  30   8  31   8  32   8  33  14  34   6
M  END
>  <minimizedAffinity>  (1) 
-4.76543093

>  <minimizedRMSD>  (1) 
0.304446042

$$$$
