
     RDKit          3D

 51 55  0  0  1  0  0  0  0  0999 V2000
   36.3240   21.3060   31.8640 C   0  0  2  0  0  0  0  0  0  0  0  0
   37.2350   21.8160   35.2210 C   0  0  0  0  0  0  0  0  0  0  0  0
   36.1140   21.0260   35.4720 C   0  0  0  0  0  0  0  0  0  0  0  0
   35.5740   20.6960   34.2190 C   0  0  0  0  0  0  0  0  0  0  0  0
   36.4430   21.3340   33.3170 C   0  0  0  0  0  0  0  0  0  0  0  0
   37.3970   21.9750   33.9380 O   0  0  0  0  0  0  0  0  0  0  0  0
   38.0610   22.3510   36.3230 C   0  0  0  0  0  0  0  0  0  0  0  0
   39.4200   22.2120   36.4410 C   0  0  0  0  0  0  0  0  0  0  0  0
   40.0170   22.7950   37.5670 C   0  0  0  0  0  0  0  0  0  0  0  0
   39.2840   23.4530   38.4760 N   0  0  0  0  0  0  0  0  0  0  0  0
   37.9500   23.5790   38.3420 C   0  0  0  0  0  0  0  0  0  0  0  0
   37.3630   23.0340   37.2800 N   0  0  0  0  0  0  0  0  0  0  0  0
   35.8300   22.6770   31.3270 C   0  0  0  0  0  0  0  0  0  0  0  0
   35.4450   20.2620   31.3630 C   0  0  0  0  0  0  0  0  0  0  0  0
   35.9110   18.9330   31.2840 N   0  0  0  0  0  0  0  0  0  0  0  0
   36.7530   18.3060   30.4650 C   0  0  0  0  0  0  0  0  0  0  0  0
   36.8690   17.0140   30.8140 N   0  0  0  0  0  0  0  0  0  0  0  0
   36.0660   16.8410   31.8900 C   0  0  0  0  0  0  0  0  0  0  0  0
   35.5130   18.0160   32.1360 N   0  0  0  0  0  0  0  0  0  0  0  0
   35.9020   15.6050   32.5660 N   0  0  0  0  0  0  0  0  0  0  0  0
   36.8240   14.6620   32.7300 C   0  0  0  0  0  0  0  0  0  0  0  0
   36.2780   13.6590   33.4150 N   0  0  0  0  0  0  0  0  0  0  0  0
   34.9720   13.9780   33.6910 C   0  0  0  0  0  0  0  0  0  0  0  0
   34.7620   15.2000   33.1500 N   0  0  0  0  0  0  0  0  0  0  0  0
   34.0120   13.1390   34.4320 C   0  0  0  0  0  0  0  0  0  0  0  0
   34.7320   11.9700   35.0700 C   0  0  0  0  0  0  0  0  0  0  0  0
   34.4160   12.0490   36.5580 C   0  0  0  0  0  0  0  0  0  0  0  0
   34.2570   13.5240   36.7700 C   0  0  0  0  0  0  0  0  0  0  0  0
   33.3820   13.9050   35.5860 C   0  0  0  0  0  0  0  0  0  0  0  0
   37.3365   21.0847   31.4955 H   0  0  0  0  0  0  0  0  0  0  0  0
   35.7291   20.7217   36.4565 H   0  0  0  0  0  0  0  0  0  0  0  0
   34.6860   20.0860   33.9968 H   0  0  0  0  0  0  0  0  0  0  0  0
   40.0123   21.6698   35.6892 H   0  0  0  0  0  0  0  0  0  0  0  0
   41.1048   22.7112   37.7071 H   0  0  0  0  0  0  0  0  0  0  0  0
   37.3584   24.1210   39.0946 H   0  0  0  0  0  0  0  0  0  0  0  0
   35.5918   23.3380   32.1733 H   0  0  0  0  0  0  0  0  0  0  0  0
   36.6191   23.1365   30.7137 H   0  0  0  0  0  0  0  0  0  0  0  0
   34.9292   22.5275   30.7137 H   0  0  0  0  0  0  0  0  0  0  0  0
   34.5592   20.2510   32.0151 H   0  0  0  0  0  0  0  0  0  0  0  0
   35.2901   20.5416   30.3105 H   0  0  0  0  0  0  0  0  0  0  0  0
   37.2789   18.7788   29.6224 H   0  0  0  0  0  0  0  0  0  0  0  0
   37.8601   14.7030   32.3630 H   0  0  0  0  0  0  0  0  0  0  0  0
   33.2495   12.8178   33.7072 H   0  0  0  0  0  0  0  0  0  0  0  0
   34.3671   11.0207   34.6509 H   0  0  0  0  0  0  0  0  0  0  0  0
   35.8153   12.0117   34.8837 H   0  0  0  0  0  0  0  0  0  0  0  0
   33.4880   11.5093   36.7979 H   0  0  0  0  0  0  0  0  0  0  0  0
   35.1850   11.5913   37.1976 H   0  0  0  0  0  0  0  0  0  0  0  0
   33.7577   13.7415   37.7257 H   0  0  0  0  0  0  0  0  0  0  0  0
   35.2072   14.0756   36.8227 H   0  0  0  0  0  0  0  0  0  0  0  0
   33.4135   14.9894   35.4043 H   0  0  0  0  0  0  0  0  0  0  0  0
   32.3197   13.6630   35.7373 H   0  0  0  0  0  0  0  0  0  0  0  0
  1  5  1  0
  2  3  2  0
  2  7  1  0
  4  3  1  0
  5  6  1  0
  5  4  2  0
  6  2  1  0
  7  8  2  0
  7 12  1  0
  8  9  1  0
  9 10  2  0
 11 10  1  0
 12 11  2  0
 13  1  1  0
 14  1  1  0
 15 14  1  0
 15 19  1  0
 16 17  2  0
 16 15  1  0
 17 18  1  0
 18 19  2  0
 18 20  1  0
 20 21  1  0
 20 24  1  0
 21 22  2  0
 22 23  1  0
 23 25  1  0
 24 23  2  0
 25 26  1  0
 25 29  1  0
 26 27  1  0
 27 28  1  0
 29 28  1  0
  1 30  1  6
  3 31  1  0
  4 32  1  0
  8 33  1  0
  9 34  1  0
 11 35  1  0
 13 36  1  0
 13 37  1  0
 13 38  1  0
 14 39  1  0
 14 40  1  0
 16 41  1  0
 21 42  1  0
 25 43  1  0
 26 44  1  0
 26 45  1  0
 27 46  1  0
 27 47  1  0
 28 48  1  0
 28 49  1  0
 29 50  1  0
 29 51  1  0
M  ISO  8  30   8  31  14  32  14  33  14  34  14  35  14  36   8  37   8
M  ISO  8  38   8  39   8  40   8  41  14  42  14  43  13  44  13  45  13
M  ISO  6  46  13  47  13  48  13  49  13  50  13  51  13
M  END
>  <minimizedAffinity>  (1) 
-6.40183783

>  <minimizedRMSD>  (1) 
0.841623843

$$$$
