
     RDKit          3D

 50 53  0  0  1  0  0  0  0  0999 V2000
   36.3730   21.1290   31.9040 C   0  0  2  0  0  0  0  0  0  0  0  0
   37.2350   21.7730   35.2650 C   0  0  0  0  0  0  0  0  0  0  0  0
   36.0870   21.0360   35.5130 C   0  0  0  0  0  0  0  0  0  0  0  0
   35.5630   20.6650   34.2680 C   0  0  0  0  0  0  0  0  0  0  0  0
   36.4700   21.2270   33.3540 C   0  0  0  0  0  0  0  0  0  0  0  0
   37.4240   21.8610   33.9700 O   0  0  0  0  0  0  0  0  0  0  0  0
   38.0560   22.3320   36.3570 C   0  0  0  0  0  0  0  0  0  0  0  0
   39.4200   22.1920   36.4660 C   0  0  0  0  0  0  0  0  0  0  0  0
   40.0110   22.8120   37.5820 C   0  0  0  0  0  0  0  0  0  0  0  0
   39.2870   23.4900   38.4730 N   0  0  0  0  0  0  0  0  0  0  0  0
   37.9370   23.6060   38.3310 C   0  0  0  0  0  0  0  0  0  0  0  0
   37.3650   23.0300   37.2900 N   0  0  0  0  0  0  0  0  0  0  0  0
   35.9760   22.4990   31.2910 C   0  0  0  0  0  0  0  0  0  0  0  0
   35.4440   20.1140   31.4340 C   0  0  0  0  0  0  0  0  0  0  0  0
   35.8470   18.7650   31.3820 N   0  0  0  0  0  0  0  0  0  0  0  0
   36.6220   18.0600   30.5660 C   0  0  0  0  0  0  0  0  0  0  0  0
   36.6870   16.7790   30.9570 N   0  0  0  0  0  0  0  0  0  0  0  0
   35.9210   16.6910   32.0610 C   0  0  0  0  0  0  0  0  0  0  0  0
   35.4300   17.9070   32.2910 N   0  0  0  0  0  0  0  0  0  0  0  0
   35.7040   15.4990   32.8060 N   0  0  0  0  0  0  0  0  0  0  0  0
   36.6050   14.5090   32.9680 C   0  0  0  0  0  0  0  0  0  0  0  0
   36.0310   13.5680   33.7500 N   0  0  0  0  0  0  0  0  0  0  0  0
   34.7720   13.9890   34.0650 C   0  0  0  0  0  0  0  0  0  0  0  0
   34.5860   15.1780   33.4760 N   0  0  0  0  0  0  0  0  0  0  0  0
   33.7860   13.2760   34.8990 C   0  0  0  0  0  0  0  0  0  0  0  0
   33.7310   11.7960   34.6600 C   0  0  0  0  0  0  0  0  0  0  0  0
   32.3690   13.8170   34.6810 C   0  0  0  0  0  0  0  0  0  0  0  0
   34.0340   13.4600   36.3950 C   0  0  0  0  0  0  0  0  0  0  0  0
   37.3752   20.8244   31.5682 H   0  0  0  0  0  0  0  0  0  0  0  0
   35.6676   20.7896   36.4996 H   0  0  0  0  0  0  0  0  0  0  0  0
   34.6587   20.0754   34.0567 H   0  0  0  0  0  0  0  0  0  0  0  0
   40.0112   21.6308   35.7274 H   0  0  0  0  0  0  0  0  0  0  0  0
   41.0992   22.7354   37.7233 H   0  0  0  0  0  0  0  0  0  0  0  0
   37.3388   24.1655   39.0652 H   0  0  0  0  0  0  0  0  0  0  0  0
   35.7683   23.2159   32.0991 H   0  0  0  0  0  0  0  0  0  0  0  0
   36.8019   22.8759   30.6698 H   0  0  0  0  0  0  0  0  0  0  0  0
   35.0766   22.3759   30.6698 H   0  0  0  0  0  0  0  0  0  0  0  0
   34.5642   20.1582   32.0928 H   0  0  0  0  0  0  0  0  0  0  0  0
   35.2945   20.3760   30.3762 H   0  0  0  0  0  0  0  0  0  0  0  0
   37.1408   18.4715   29.6876 H   0  0  0  0  0  0  0  0  0  0  0  0
   37.6188   14.4738   32.5427 H   0  0  0  0  0  0  0  0  0  0  0  0
   33.7114   11.2692   35.6254 H   0  0  0  0  0  0  0  0  0  0  0  0
   32.8231   11.5502   34.0897 H   0  0  0  0  0  0  0  0  0  0  0  0
   34.6182   11.4835   34.0897 H   0  0  0  0  0  0  0  0  0  0  0  0
   31.8921   13.9991   35.6554 H   0  0  0  0  0  0  0  0  0  0  0  0
   32.4192   14.7592   34.1156 H   0  0  0  0  0  0  0  0  0  0  0  0
   31.7785   13.0811   34.1156 H   0  0  0  0  0  0  0  0  0  0  0  0
   33.2778   12.8990   36.9637 H   0  0  0  0  0  0  0  0  0  0  0  0
   35.0365   13.0855   36.6493 H   0  0  0  0  0  0  0  0  0  0  0  0
   33.9662   14.5281   36.6493 H   0  0  0  0  0  0  0  0  0  0  0  0
  1  5  1  0
  2  3  2  0
  2  7  1  0
  4  3  1  0
  5  6  1  0
  5  4  2  0
  6  2  1  0
  7  8  2  0
  7 12  1  0
  8  9  1  0
  9 10  2  0
 11 10  1  0
 12 11  2  0
 13  1  1  0
 14  1  1  0
 15 14  1  0
 15 19  1  0
 16 17  2  0
 16 15  1  0
 17 18  1  0
 18 19  2  0
 18 20  1  0
 20 21  1  0
 20 24  1  0
 21 22  2  0
 22 23  1  0
 23 25  1  0
 24 23  2  0
 25 28  1  0
 26 25  1  0
 27 25  1  0
  1 29  1  6
  3 30  1  0
  4 31  1  0
  8 32  1  0
  9 33  1  0
 11 34  1  0
 13 35  1  0
 13 36  1  0
 13 37  1  0
 14 38  1  0
 14 39  1  0
 16 40  1  0
 21 41  1  0
 26 42  1  0
 26 43  1  0
 26 44  1  0
 27 45  1  0
 27 46  1  0
 27 47  1  0
 28 48  1  0
 28 49  1  0
 28 50  1  0
M  ISO  8  29   8  30  14  31  14  32  14  33  14  34  14  35   8  36   8
M  ISO  8  37   8  38   8  39   8  40  14  41  14  42   8  43   8  44   8
M  ISO  6  45   8  46   8  47   8  48   8  49   8  50   8
M  END
>  <minimizedAffinity>  (1) 
-6.19545317

>  <minimizedRMSD>  (1) 
0.326105237

$$$$
