
     RDKit          3D

 21 22  0  0  0  0  0  0  0  0999 V2000
   40.0810   22.6180   38.0740 C   0  0  0  0  0  0  0  0  0  0  0  0
   39.1000   23.2550   37.2910 C   0  0  0  0  0  0  0  0  0  0  0  0
   39.2700   23.2780   35.9170 C   0  0  0  0  0  0  0  0  0  0  0  0
   40.3770   22.6860   35.3670 N   0  0  0  0  0  0  0  0  0  0  0  0
   41.3040   22.0770   36.1840 C   0  0  0  0  0  0  0  0  0  0  0  0
   41.1420   22.0550   37.5020 N   0  0  0  0  0  0  0  0  0  0  0  0
   37.8830   23.8980   37.8810 C   0  0  0  0  0  0  0  0  0  0  0  0
   37.2320   22.9380   38.6190 F   0  0  0  0  0  0  0  0  0  0  0  0
   37.0180   24.3400   36.9190 F   0  0  0  0  0  0  0  0  0  0  0  0
   38.2400   24.8990   38.7850 F   0  0  0  0  0  0  0  0  0  0  0  0
   42.7070   21.3260   35.3680 S   0  0  0  0  0  0  0  0  0  0  0  0
   43.0030   19.6850   36.0550 C   0  0  0  0  0  0  0  0  0  0  0  0
   43.5410   18.7040   35.2390 C   0  0  0  0  0  0  0  0  0  0  0  0
   43.6330   17.6220   36.0420 N   0  0  0  0  0  0  0  0  0  0  0  0
   43.1820   17.9220   37.2570 C   0  0  0  0  0  0  0  0  0  0  0  0
   42.7740   19.2240   37.2990 N   0  0  0  0  0  0  0  0  0  0  0  0
   39.9695   22.5854   39.1678 H   0  0  0  0  0  0  0  0  0  0  0  0
   38.5239   23.7666   35.2732 H   0  0  0  0  0  0  0  0  0  0  0  0
   43.8275   18.7869   34.1802 H   0  0  0  0  0  0  0  0  0  0  0  0
   43.1434   17.2223   38.1049 H   0  0  0  0  0  0  0  0  0  0  0  0
   42.3803   19.7372   38.1005 H   0  0  0  0  0  0  0  0  0  0  0  0
  2  7  1  0
  2  1  2  0
  3  2  1  0
  4  3  2  0
  4  5  1  0
  5  6  2  0
  6  1  1  0
  7  8  1  0
  7 10  1  0
  9  7  1  0
 11 12  1  0
 11  5  1  0
 12 16  1  0
 13 14  1  0
 13 12  2  0
 14 15  2  0
 15 16  1  0
  1 17  1  0
  3 18  1  0
 13 19  1  0
 15 20  1  0
 16 21  1  0
M  ISO  5  17  14  18  14  19  14  20  14  21   9
M  END
>  <minimizedAffinity>  (1) 
-4.04677534

>  <minimizedRMSD>  (1) 
2.47463632

$$$$
