
     RDKit          3D

 43 47  0  0  1  0  0  0  0  0999 V2000
   36.2820   21.4360   31.8480 C   0  0  2  0  0  0  0  0  0  0  0  0
   37.2290   21.8440   35.2100 C   0  0  0  0  0  0  0  0  0  0  0  0
   36.1340   21.0140   35.4420 C   0  0  0  0  0  0  0  0  0  0  0  0
   35.5880   20.7190   34.1860 C   0  0  0  0  0  0  0  0  0  0  0  0
   36.4250   21.4140   33.2970 C   0  0  0  0  0  0  0  0  0  0  0  0
   37.3730   22.0610   33.9260 O   0  0  0  0  0  0  0  0  0  0  0  0
   38.0590   22.3640   36.3200 C   0  0  0  0  0  0  0  0  0  0  0  0
   39.4180   22.2160   36.4300 C   0  0  0  0  0  0  0  0  0  0  0  0
   40.0200   22.7840   37.5600 C   0  0  0  0  0  0  0  0  0  0  0  0
   39.2870   23.4400   38.4890 N   0  0  0  0  0  0  0  0  0  0  0  0
   37.9500   23.5640   38.3450 C   0  0  0  0  0  0  0  0  0  0  0  0
   37.3730   23.0320   37.2840 N   0  0  0  0  0  0  0  0  0  0  0  0
   35.7370   22.8100   31.3690 C   0  0  0  0  0  0  0  0  0  0  0  0
   35.4280   20.3840   31.3180 C   0  0  0  0  0  0  0  0  0  0  0  0
   35.9480   19.0830   31.1480 N   0  0  0  0  0  0  0  0  0  0  0  0
   36.7210   18.5130   30.2360 C   0  0  0  0  0  0  0  0  0  0  0  0
   36.9350   17.2230   30.5310 N   0  0  0  0  0  0  0  0  0  0  0  0
   36.2620   16.9920   31.6740 C   0  0  0  0  0  0  0  0  0  0  0  0
   35.6810   18.1320   32.0180 N   0  0  0  0  0  0  0  0  0  0  0  0
   36.2150   15.7350   32.3470 N   0  0  0  0  0  0  0  0  0  0  0  0
   37.2070   14.8320   32.3770 C   0  0  0  0  0  0  0  0  0  0  0  0
   36.7790   13.7870   33.1130 N   0  0  0  0  0  0  0  0  0  0  0  0
   35.5110   14.0550   33.5370 C   0  0  0  0  0  0  0  0  0  0  0  0
   35.1750   15.2630   33.0560 N   0  0  0  0  0  0  0  0  0  0  0  0
   34.6700   13.1950   34.3610 C   0  0  0  0  0  0  0  0  0  0  0  0
   34.5030   13.2990   35.6860 N   0  0  0  0  0  0  0  0  0  0  0  0
   33.6970   12.3940   36.1360 O   0  0  0  0  0  0  0  0  0  0  0  0
   33.3190   11.6780   35.1100 C   0  0  0  0  0  0  0  0  0  0  0  0
   33.9120   12.1520   33.9740 N   0  0  0  0  0  0  0  0  0  0  0  0
   37.2955   21.2596   31.4586 H   0  0  0  0  0  0  0  0  0  0  0  0
   35.7703   20.6604   36.4181 H   0  0  0  0  0  0  0  0  0  0  0  0
   34.7139   20.0935   33.9520 H   0  0  0  0  0  0  0  0  0  0  0  0
   40.0048   21.6791   35.6702 H   0  0  0  0  0  0  0  0  0  0  0  0
   41.1081   22.6952   37.6946 H   0  0  0  0  0  0  0  0  0  0  0  0
   37.3528   24.0987   39.0983 H   0  0  0  0  0  0  0  0  0  0  0  0
   35.4905   23.4314   32.2426 H   0  0  0  0  0  0  0  0  0  0  0  0
   36.5022   23.3168   30.7627 H   0  0  0  0  0  0  0  0  0  0  0  0
   34.8325   22.6545   30.7627 H   0  0  0  0  0  0  0  0  0  0  0  0
   34.5678   20.2978   31.9982 H   0  0  0  0  0  0  0  0  0  0  0  0
   35.2211   20.7146   30.2895 H   0  0  0  0  0  0  0  0  0  0  0  0
   37.1319   19.0285   29.3554 H   0  0  0  0  0  0  0  0  0  0  0  0
   38.1890   14.9270   31.8904 H   0  0  0  0  0  0  0  0  0  0  0  0
   32.6281   10.8232   35.1543 H   0  0  0  0  0  0  0  0  0  0  0  0
  1  5  1  0
  2  3  2  0
  2  7  1  0
  4  3  1  0
  5  6  1  0
  5  4  2  0
  6  2  1  0
  7  8  2  0
  7 12  1  0
  8  9  1  0
  9 10  2  0
 11 10  1  0
 12 11  2  0
 13  1  1  0
 14  1  1  0
 15 14  1  0
 15 19  1  0
 16 17  2  0
 16 15  1  0
 17 18  1  0
 18 19  2  0
 18 20  1  0
 20 21  1  0
 20 24  1  0
 21 22  2  0
 22 23  1  0
 23 25  1  0
 24 23  2  0
 25 26  2  0
 26 27  1  0
 28 27  1  0
 29 25  1  0
 29 28  2  0
  1 30  1  6
  3 31  1  0
  4 32  1  0
  8 33  1  0
  9 34  1  0
 11 35  1  0
 13 36  1  0
 13 37  1  0
 13 38  1  0
 14 39  1  0
 14 40  1  0
 16 41  1  0
 21 42  1  0
 28 43  1  0
M  ISO  8  30   8  31  14  32  14  33  14  34  14  35  14  36   8  37   8
M  ISO  6  38   8  39   8  40   8  41  14  42  14  43  14
M  END
>  <minimizedAffinity>  (1) 
-5.76223421

>  <minimizedRMSD>  (1) 
0.59676069

$$$$
