
     RDKit          3D

 44 47  0  0  1  0  0  0  0  0999 V2000
   36.3390   21.1090   31.9220 C   0  0  2  0  0  0  0  0  0  0  0  0
   37.2280   21.7620   35.2680 C   0  0  0  0  0  0  0  0  0  0  0  0
   36.0810   21.0320   35.5310 C   0  0  0  0  0  0  0  0  0  0  0  0
   35.5440   20.6550   34.2910 C   0  0  0  0  0  0  0  0  0  0  0  0
   36.4470   21.2130   33.3680 C   0  0  0  0  0  0  0  0  0  0  0  0
   37.4120   21.8480   33.9730 O   0  0  0  0  0  0  0  0  0  0  0  0
   38.0610   22.3260   36.3490 C   0  0  0  0  0  0  0  0  0  0  0  0
   39.4220   22.1950   36.4530 C   0  0  0  0  0  0  0  0  0  0  0  0
   40.0160   22.8180   37.5610 C   0  0  0  0  0  0  0  0  0  0  0  0
   39.2960   23.4950   38.4560 N   0  0  0  0  0  0  0  0  0  0  0  0
   37.9470   23.6070   38.3270 C   0  0  0  0  0  0  0  0  0  0  0  0
   37.3670   23.0280   37.2900 N   0  0  0  0  0  0  0  0  0  0  0  0
   35.9400   22.4730   31.2990 C   0  0  0  0  0  0  0  0  0  0  0  0
   35.4140   20.0850   31.4640 C   0  0  0  0  0  0  0  0  0  0  0  0
   35.8330   18.7370   31.4070 N   0  0  0  0  0  0  0  0  0  0  0  0
   36.6160   18.0490   30.5900 C   0  0  0  0  0  0  0  0  0  0  0  0
   36.6980   16.7670   30.9730 N   0  0  0  0  0  0  0  0  0  0  0  0
   35.9300   16.6640   32.0760 C   0  0  0  0  0  0  0  0  0  0  0  0
   35.4250   17.8690   32.3090 N   0  0  0  0  0  0  0  0  0  0  0  0
   35.7260   15.4610   32.8160 N   0  0  0  0  0  0  0  0  0  0  0  0
   36.6340   14.4840   32.9740 C   0  0  0  0  0  0  0  0  0  0  0  0
   36.0660   13.5280   33.7330 N   0  0  0  0  0  0  0  0  0  0  0  0
   34.8010   13.9220   34.0430 C   0  0  0  0  0  0  0  0  0  0  0  0
   34.6020   15.1230   33.4680 N   0  0  0  0  0  0  0  0  0  0  0  0
   33.8730   13.1080   34.8740 C   0  0  0  0  0  0  0  0  0  0  0  0
   34.0240   13.4860   36.3350 C   0  0  0  0  0  0  0  0  0  0  0  0
   37.3408   20.8078   31.5818 H   0  0  0  0  0  0  0  0  0  0  0  0
   35.6695   20.7933   36.5228 H   0  0  0  0  0  0  0  0  0  0  0  0
   34.6371   20.0661   34.0894 H   0  0  0  0  0  0  0  0  0  0  0  0
   40.0124   21.6353   35.7126 H   0  0  0  0  0  0  0  0  0  0  0  0
   41.1054   22.7459   37.6949 H   0  0  0  0  0  0  0  0  0  0  0  0
   37.3538   24.1650   39.0665 H   0  0  0  0  0  0  0  0  0  0  0  0
   35.7288   23.1949   32.1016 H   0  0  0  0  0  0  0  0  0  0  0  0
   36.7662   22.8477   30.6769 H   0  0  0  0  0  0  0  0  0  0  0  0
   35.0421   22.3433   30.6769 H   0  0  0  0  0  0  0  0  0  0  0  0
   34.5424   20.1199   32.1342 H   0  0  0  0  0  0  0  0  0  0  0  0
   35.2463   20.3455   30.4085 H   0  0  0  0  0  0  0  0  0  0  0  0
   37.1301   18.4727   29.7146 H   0  0  0  0  0  0  0  0  0  0  0  0
   37.6530   14.4679   32.5600 H   0  0  0  0  0  0  0  0  0  0  0  0
   32.8373   13.2947   34.5539 H   0  0  0  0  0  0  0  0  0  0  0  0
   34.1139   12.0421   34.7484 H   0  0  0  0  0  0  0  0  0  0  0  0
   33.6899   12.6496   36.9666 H   0  0  0  0  0  0  0  0  0  0  0  0
   35.0799   13.7081   36.5490 H   0  0  0  0  0  0  0  0  0  0  0  0
   33.4118   14.3744   36.5490 H   0  0  0  0  0  0  0  0  0  0  0  0
  1  5  1  0
  2  3  2  0
  2  7  1  0
  4  3  1  0
  5  6  1  0
  5  4  2  0
  6  2  1  0
  7  8  2  0
  7 12  1  0
  8  9  1  0
  9 10  2  0
 11 10  1  0
 12 11  2  0
 13  1  1  0
 14  1  1  0
 15 14  1  0
 15 19  1  0
 16 17  2  0
 16 15  1  0
 17 18  1  0
 18 19  2  0
 18 20  1  0
 20 21  1  0
 20 24  1  0
 21 22  2  0
 22 23  1  0
 23 25  1  0
 24 23  2  0
 25 26  1  0
  1 27  1  6
  3 28  1  0
  4 29  1  0
  8 30  1  0
  9 31  1  0
 11 32  1  0
 13 33  1  0
 13 34  1  0
 13 35  1  0
 14 36  1  0
 14 37  1  0
 16 38  1  0
 21 39  1  0
 25 40  1  0
 25 41  1  0
 26 42  1  0
 26 43  1  0
 26 44  1  0
M  ISO  8  27   8  28  14  29  14  30  14  31  14  32  14  33   8  34   8
M  ISO  8  35   8  36   8  37   8  38  14  39  14  40   8  41   8  42   8
M  ISO  2  43   8  44   8
M  END
>  <minimizedAffinity>  (1) 
-5.70630312

>  <minimizedRMSD>  (1) 
0.163074493

$$$$
