
     RDKit          3D

 41 44  0  0  1  0  0  0  0  0999 V2000
   36.2480   21.0460   31.9900 C   0  0  2  0  0  0  0  0  0  0  0  0
   37.2110   21.7460   35.2970 C   0  0  0  0  0  0  0  0  0  0  0  0
   36.0650   21.0120   35.6080 C   0  0  0  0  0  0  0  0  0  0  0  0
   35.5020   20.6200   34.3850 C   0  0  0  0  0  0  0  0  0  0  0  0
   36.3840   21.1660   33.4350 C   0  0  0  0  0  0  0  0  0  0  0  0
   37.3670   21.8160   34.0030 O   0  0  0  0  0  0  0  0  0  0  0  0
   38.0640   22.3240   36.3590 C   0  0  0  0  0  0  0  0  0  0  0  0
   39.4280   22.1980   36.4360 C   0  0  0  0  0  0  0  0  0  0  0  0
   40.0520   22.8220   37.5270 C   0  0  0  0  0  0  0  0  0  0  0  0
   39.3390   23.5040   38.4390 N   0  0  0  0  0  0  0  0  0  0  0  0
   37.9980   23.6120   38.3380 C   0  0  0  0  0  0  0  0  0  0  0  0
   37.3870   23.0280   37.3120 N   0  0  0  0  0  0  0  0  0  0  0  0
   35.7900   22.3940   31.3660 C   0  0  0  0  0  0  0  0  0  0  0  0
   35.3350   19.9980   31.5640 C   0  0  0  0  0  0  0  0  0  0  0  0
   35.7780   18.6600   31.5120 N   0  0  0  0  0  0  0  0  0  0  0  0
   36.6220   18.0060   30.7130 C   0  0  0  0  0  0  0  0  0  0  0  0
   36.7100   16.7170   31.0810 N   0  0  0  0  0  0  0  0  0  0  0  0
   35.8860   16.5740   32.1490 C   0  0  0  0  0  0  0  0  0  0  0  0
   35.3510   17.7620   32.3690 N   0  0  0  0  0  0  0  0  0  0  0  0
   35.6900   15.3500   32.8360 N   0  0  0  0  0  0  0  0  0  0  0  0
   36.5930   14.3930   33.0280 C   0  0  0  0  0  0  0  0  0  0  0  0
   36.0090   13.4070   33.7190 N   0  0  0  0  0  0  0  0  0  0  0  0
   34.7160   13.7540   33.9630 C   0  0  0  0  0  0  0  0  0  0  0  0
   34.5320   14.9740   33.4040 N   0  0  0  0  0  0  0  0  0  0  0  0
   33.7920   12.8650   34.7150 C   0  0  0  0  0  0  0  0  0  0  0  0
   37.2501   20.7696   31.6302 H   0  0  0  0  0  0  0  0  0  0  0  0
   35.6799   20.7859   36.6133 H   0  0  0  0  0  0  0  0  0  0  0  0
   34.5910   20.0286   34.2107 H   0  0  0  0  0  0  0  0  0  0  0  0
   40.0017   21.6379   35.6829 H   0  0  0  0  0  0  0  0  0  0  0  0
   41.1442   22.7516   37.6375 H   0  0  0  0  0  0  0  0  0  0  0  0
   37.4219   24.1719   39.0894 H   0  0  0  0  0  0  0  0  0  0  0  0
   35.5480   23.1062   32.1687 H   0  0  0  0  0  0  0  0  0  0  0  0
   36.5993   22.8038   30.7439 H   0  0  0  0  0  0  0  0  0  0  0  0
   34.8985   22.2259   30.7439 H   0  0  0  0  0  0  0  0  0  0  0  0
   34.4779   20.0230   32.2530 H   0  0  0  0  0  0  0  0  0  0  0  0
   35.1403   20.2430   30.5095 H   0  0  0  0  0  0  0  0  0  0  0  0
   37.1685   18.4578   29.8721 H   0  0  0  0  0  0  0  0  0  0  0  0
   37.6364   14.4090   32.6801 H   0  0  0  0  0  0  0  0  0  0  0  0
   33.9422   13.0095   35.7951 H   0  0  0  0  0  0  0  0  0  0  0  0
   32.7523   13.1111   34.4532 H   0  0  0  0  0  0  0  0  0  0  0  0
   33.9977   11.8166   34.4532 H   0  0  0  0  0  0  0  0  0  0  0  0
  1  5  1  0
  2  3  2  0
  2  7  1  0
  4  3  1  0
  5  6  1  0
  5  4  2  0
  6  2  1  0
  7  8  2  0
  7 12  1  0
  8  9  1  0
  9 10  2  0
 11 10  1  0
 12 11  2  0
 13  1  1  0
 14  1  1  0
 15 14  1  0
 15 19  1  0
 16 17  2  0
 16 15  1  0
 17 18  1  0
 18 19  2  0
 18 20  1  0
 20 21  1  0
 20 24  1  0
 21 22  2  0
 22 23  1  0
 23 25  1  0
 24 23  2  0
  1 26  1  6
  3 27  1  0
  4 28  1  0
  8 29  1  0
  9 30  1  0
 11 31  1  0
 13 32  1  0
 13 33  1  0
 13 34  1  0
 14 35  1  0
 14 36  1  0
 16 37  1  0
 21 38  1  0
 25 39  1  0
 25 40  1  0
 25 41  1  0
M  ISO  8  26   8  27  14  28  14  29  14  30  14  31  14  32   8  33   8
M  ISO  8  34   8  35   8  36   8  37  14  38  14  39   8  40   8  41   8
M  END
>  <minimizedAffinity>  (1) 
-5.56392956

>  <minimizedRMSD>  (1) 
0.111157365

$$$$
