
     RDKit          3D

 39 42  0  0  1  0  0  0  0  0999 V2000
   36.2850   21.1220   31.9290 C   0  0  2  0  0  0  0  0  0  0  0  0
   37.2070   21.7550   35.2640 C   0  0  0  0  0  0  0  0  0  0  0  0
   36.0770   21.0150   35.5450 C   0  0  0  0  0  0  0  0  0  0  0  0
   35.5250   20.6420   34.3110 C   0  0  0  0  0  0  0  0  0  0  0  0
   36.4090   21.2130   33.3780 C   0  0  0  0  0  0  0  0  0  0  0  0
   37.3800   21.8570   33.9680 O   0  0  0  0  0  0  0  0  0  0  0  0
   38.0570   22.3230   36.3380 C   0  0  0  0  0  0  0  0  0  0  0  0
   39.4170   22.2000   36.4310 C   0  0  0  0  0  0  0  0  0  0  0  0
   40.0170   22.8220   37.5310 C   0  0  0  0  0  0  0  0  0  0  0  0
   39.3070   23.4950   38.4370 N   0  0  0  0  0  0  0  0  0  0  0  0
   37.9550   23.6040   38.3250 C   0  0  0  0  0  0  0  0  0  0  0  0
   37.3760   23.0230   37.2910 N   0  0  0  0  0  0  0  0  0  0  0  0
   35.7920   22.4710   31.3350 C   0  0  0  0  0  0  0  0  0  0  0  0
   35.3950   20.0640   31.4760 C   0  0  0  0  0  0  0  0  0  0  0  0
   35.8580   18.7340   31.4130 N   0  0  0  0  0  0  0  0  0  0  0  0
   36.7210   18.1020   30.6100 C   0  0  0  0  0  0  0  0  0  0  0  0
   36.8220   16.8100   30.9690 N   0  0  0  0  0  0  0  0  0  0  0  0
   35.9930   16.6430   32.0270 C   0  0  0  0  0  0  0  0  0  0  0  0
   35.4390   17.8190   32.2590 N   0  0  0  0  0  0  0  0  0  0  0  0
   35.8090   15.4090   32.7020 N   0  0  0  0  0  0  0  0  0  0  0  0
   36.7230   14.4640   32.8920 C   0  0  0  0  0  0  0  0  0  0  0  0
   36.1360   13.4620   33.5740 N   0  0  0  0  0  0  0  0  0  0  0  0
   34.8310   13.7930   33.8120 C   0  0  0  0  0  0  0  0  0  0  0  0
   34.6520   15.0110   33.2570 N   0  0  0  0  0  0  0  0  0  0  0  0
   33.8450   13.0840   34.4690 O   0  0  0  0  0  0  0  0  0  0  0  0
   37.2954   20.8787   31.5687 H   0  0  0  0  0  0  0  0  0  0  0  0
   35.6854   20.7661   36.5424 H   0  0  0  0  0  0  0  0  0  0  0  0
   34.6199   20.0470   34.1192 H   0  0  0  0  0  0  0  0  0  0  0  0
   40.0038   21.6446   35.6845 H   0  0  0  0  0  0  0  0  0  0  0  0
   41.1082   22.7538   37.6523 H   0  0  0  0  0  0  0  0  0  0  0  0
   37.3651   24.1573   39.0706 H   0  0  0  0  0  0  0  0  0  0  0  0
   35.5396   23.1615   32.1532 H   0  0  0  0  0  0  0  0  0  0  0  0
   36.5873   22.9114   30.7157 H   0  0  0  0  0  0  0  0  0  0  0  0
   34.9001   22.2948   30.7157 H   0  0  0  0  0  0  0  0  0  0  0  0
   34.5277   20.0669   32.1525 H   0  0  0  0  0  0  0  0  0  0  0  0
   35.2136   20.3195   30.4216 H   0  0  0  0  0  0  0  0  0  0  0  0
   37.2677   18.5702   29.7782 H   0  0  0  0  0  0  0  0  0  0  0  0
   37.7693   14.4944   32.5537 H   0  0  0  0  0  0  0  0  0  0  0  0
   32.9364   13.4668   34.5589 H   0  0  0  0  0  0  0  0  0  0  0  0
  1  5  1  0
  2  3  2  0
  2  7  1  0
  4  3  1  0
  5  6  1  0
  5  4  2  0
  6  2  1  0
  7  8  2  0
  7 12  1  0
  8  9  1  0
  9 10  2  0
 11 10  1  0
 12 11  2  0
 13  1  1  0
 14  1  1  0
 15 14  1  0
 15 19  1  0
 16 17  2  0
 16 15  1  0
 17 18  1  0
 18 19  2  0
 18 20  1  0
 20 21  1  0
 20 24  1  0
 21 22  2  0
 22 23  1  0
 23 25  1  0
 24 23  2  0
  1 26  1  6
  3 27  1  0
  4 28  1  0
  8 29  1  0
  9 30  1  0
 11 31  1  0
 13 32  1  0
 13 33  1  0
 13 34  1  0
 14 35  1  0
 14 36  1  0
 16 37  1  0
 21 38  1  0
 25 39  1  0
M  ISO  8  26   8  27  14  28  14  29  14  30  14  31  14  32   8  33   8
M  ISO  6  34   8  35   8  36   8  37  14  38  14  39   3
M  END
>  <minimizedAffinity>  (1) 
-5.4940052

>  <minimizedRMSD>  (1) 
0.0573394708

$$$$
