
     RDKit          3D

 28 29  0  0  0  0  0  0  0  0999 V2000
   38.3460   21.9410   34.7230 N   0  0  0  0  0  0  0  0  0  0  0  0
   39.1780   21.7940   33.6380 C   0  0  0  0  0  0  0  0  0  0  0  0
   38.4610   21.3010   32.5990 N   0  0  0  0  0  0  0  0  0  0  0  0
   37.1830   21.1440   33.0520 C   0  0  0  0  0  0  0  0  0  0  0  0
   37.1510   21.5430   34.3470 N   0  0  0  0  0  0  0  0  0  0  0  0
   37.5110   22.9620   36.7170 C   0  0  0  0  0  0  0  0  0  0  0  0
   38.6020   22.4120   36.0310 C   0  0  0  0  0  0  0  0  0  0  0  0
   39.8300   22.3690   36.6710 C   0  0  0  0  0  0  0  0  0  0  0  0
   39.9190   22.8650   37.9390 N   0  0  0  0  0  0  0  0  0  0  0  0
   38.8570   23.3840   38.5670 C   0  0  0  0  0  0  0  0  0  0  0  0
   37.6490   23.4340   37.9570 N   0  0  0  0  0  0  0  0  0  0  0  0
   36.0330   20.6200   32.2390 C   0  0  0  0  0  0  0  0  0  0  0  0
   34.9350   21.6370   32.1720 C   0  0  0  0  0  0  0  0  0  0  0  0
   36.4730   20.2330   30.8540 C   0  0  0  0  0  0  0  0  0  0  0  0
   35.5020   19.3760   32.9420 C   0  0  0  0  0  0  0  0  0  0  0  0
   40.2506   22.0370   33.6169 H   0  0  0  0  0  0  0  0  0  0  0  0
   36.5274   23.0051   36.2264 H   0  0  0  0  0  0  0  0  0  0  0  0
   40.7122   21.9451   36.1689 H   0  0  0  0  0  0  0  0  0  0  0  0
   38.9667   23.7741   39.5896 H   0  0  0  0  0  0  0  0  0  0  0  0
   34.6322   21.9174   33.1917 H   0  0  0  0  0  0  0  0  0  0  0  0
   35.2936   22.5291   31.6376 H   0  0  0  0  0  0  0  0  0  0  0  0
   34.0730   21.2112   31.6376 H   0  0  0  0  0  0  0  0  0  0  0  0
   37.2975   19.5078   30.9204 H   0  0  0  0  0  0  0  0  0  0  0  0
   35.6285   19.7796   30.3143 H   0  0  0  0  0  0  0  0  0  0  0  0
   36.8149   21.1284   30.3143 H   0  0  0  0  0  0  0  0  0  0  0  0
   35.5620   19.5167   34.0313 H   0  0  0  0  0  0  0  0  0  0  0  0
   34.4544   19.2094   32.6510 H   0  0  0  0  0  0  0  0  0  0  0  0
   36.1064   18.5042   32.6510 H   0  0  0  0  0  0  0  0  0  0  0  0
  1  7  1  0
  2  1  1  0
  3  4  1  0
  3  2  2  0
  4  5  2  0
  5  1  1  0
  6 11  2  0
  7  8  2  0
  7  6  1  0
  8  9  1  0
  9 10  2  0
 11 10  1  0
 12 15  1  0
 12  4  1  0
 13 12  1  0
 14 12  1  0
  2 16  1  0
  6 17  1  0
  8 18  1  0
 10 19  1  0
 13 20  1  0
 13 21  1  0
 13 22  1  0
 14 23  1  0
 14 24  1  0
 14 25  1  0
 15 26  1  0
 15 27  1  0
 15 28  1  0
M  ISO  8  16  14  17  14  18  14  19  14  20   8  21   8  22   8  23   8
M  ISO  5  24   8  25   8  26   8  27   8  28   8
M  END
>  <minimizedAffinity>  (1) 
-4.39270782

>  <minimizedRMSD>  (1) 
1.63529897

$$$$
