
     RDKit          3D

 19 20  0  0  0  0  0  0  0  0999 V2000
   37.9640   23.7970   34.8300 N   0  0  0  0  0  0  0  0  0  0  0  0
   38.1720   25.1190   35.0420 C   0  0  0  0  0  0  0  0  0  0  0  0
   38.3000   25.3470   36.3700 N   0  0  0  0  0  0  0  0  0  0  0  0
   38.1650   24.1280   36.9870 C   0  0  0  0  0  0  0  0  0  0  0  0
   37.9590   23.1900   36.0180 N   0  0  0  0  0  0  0  0  0  0  0  0
   37.4880   21.6610   33.8320 C   0  0  0  0  0  0  0  0  0  0  0  0
   37.7680   23.0230   33.6610 C   0  0  0  0  0  0  0  0  0  0  0  0
   37.8360   23.5360   32.3570 C   0  0  0  0  0  0  0  0  0  0  0  0
   37.6260   22.6800   31.3160 N   0  0  0  0  0  0  0  0  0  0  0  0
   37.3570   21.3650   31.5260 C   0  0  0  0  0  0  0  0  0  0  0  0
   37.2930   20.8800   32.7700 N   0  0  0  0  0  0  0  0  0  0  0  0
   38.2190   23.7940   38.4450 C   0  0  0  0  0  0  0  0  0  0  0  0
   37.2970   22.8430   38.7930 F   0  0  0  0  0  0  0  0  0  0  0  0
   39.4980   23.3720   38.7680 F   0  0  0  0  0  0  0  0  0  0  0  0
   38.0190   24.9760   39.1490 F   0  0  0  0  0  0  0  0  0  0  0  0
   38.2281   25.8874   34.2569 H   0  0  0  0  0  0  0  0  0  0  0  0
   37.4290   21.2355   34.8447 H   0  0  0  0  0  0  0  0  0  0  0  0
   38.0528   24.5996   32.1789 H   0  0  0  0  0  0  0  0  0  0  0  0
   37.1911   20.6963   30.6685 H   0  0  0  0  0  0  0  0  0  0  0  0
  1  2  1  0
  1  5  1  0
  2  3  2  0
  3  4  1  0
  4 12  1  0
  5  4  2  0
  7  6  2  0
  7  1  1  0
  8  7  1  0
  9 10  1  0
  9  8  2  0
 10 11  2  0
 11  6  1  0
 12 14  1  0
 12 13  1  0
 12 15  1  0
  2 16  1  0
  6 17  1  0
  8 18  1  0
 10 19  1  0
M  ISO  4  16  14  17  14  18  14  19  14
M  END
>  <minimizedAffinity>  (1) 
-4.34758186

>  <minimizedRMSD>  (1) 
5.81847

$$$$
