
     RDKit          3D

 18 19  0  0  0  0  0  0  0  0999 V2000
   37.3240   23.1040   37.0150 C   0  0  0  0  0  0  0  0  0  0  0  0
   38.1940   22.5410   36.0740 C   0  0  0  0  0  0  0  0  0  0  0  0
   39.5360   22.3630   36.4260 C   0  0  0  0  0  0  0  0  0  0  0  0
   39.9280   22.7500   37.6710 N   0  0  0  0  0  0  0  0  0  0  0  0
   39.0750   23.2860   38.5510 C   0  0  0  0  0  0  0  0  0  0  0  0
   37.7790   23.4620   38.2210 N   0  0  0  0  0  0  0  0  0  0  0  0
   37.6500   22.1860   34.8210 N   0  0  0  0  0  0  0  0  0  0  0  0
   37.9080   22.5940   33.5500 C   0  0  0  0  0  0  0  0  0  0  0  0
   37.0850   21.9230   32.6980 N   0  0  0  0  0  0  0  0  0  0  0  0
   36.3190   21.1010   33.4530 C   0  0  0  0  0  0  0  0  0  0  0  0
   36.6840   21.2820   34.7400 N   0  0  0  0  0  0  0  0  0  0  0  0
   35.2980   20.2010   32.9280 C   0  0  0  0  0  0  0  0  0  0  0  0
   35.4210   18.9740   33.1760 O   0  0  0  0  0  0  0  0  0  0  0  0
   36.2638   23.2524   36.7623 H   0  0  0  0  0  0  0  0  0  0  0  0
   40.2536   21.9232   35.7177 H   0  0  0  0  0  0  0  0  0  0  0  0
   39.4319   23.5845   39.5478 H   0  0  0  0  0  0  0  0  0  0  0  0
   38.6585   23.3433   33.2580 H   0  0  0  0  0  0  0  0  0  0  0  0
   34.4518   20.5814   32.3370 H   0  0  0  0  0  0  0  0  0  0  0  0
  1  6  2  0
  2  3  2  0
  2  1  1  0
  3  4  1  0
  4  5  2  0
  6  5  1  0
  7  2  1  0
  8  7  1  0
  9 10  1  0
  9  8  2  0
 10 11  2  0
 11  7  1  0
 12 13  2  0
 12 10  1  0
  1 14  1  0
  3 15  1  0
  5 16  1  0
  8 17  1  0
 12 18  1  0
M  ISO  5  14  14  15  14  16  14  17  14  18   6
M  END
>  <minimizedAffinity>  (1) 
-3.62036133

>  <minimizedRMSD>  (1) 
0.780981719

$$$$
