
     RDKit          3D

 18 19  0  0  0  0  0  0  0  0999 V2000
   37.3770   23.0380   36.9540 C   0  0  0  0  0  0  0  0  0  0  0  0
   38.3440   22.4390   36.1550 C   0  0  0  0  0  0  0  0  0  0  0  0
   39.6470   22.3410   36.6250 C   0  0  0  0  0  0  0  0  0  0  0  0
   39.9270   22.8380   37.8600 N   0  0  0  0  0  0  0  0  0  0  0  0
   38.9580   23.4180   38.6150 C   0  0  0  0  0  0  0  0  0  0  0  0
   37.7060   23.5120   38.1610 N   0  0  0  0  0  0  0  0  0  0  0  0
   37.9090   21.9620   34.8820 N   0  0  0  0  0  0  0  0  0  0  0  0
   38.5160   21.9030   33.6640 C   0  0  0  0  0  0  0  0  0  0  0  0
   37.6720   21.3570   32.7690 N   0  0  0  0  0  0  0  0  0  0  0  0
   36.5210   21.0730   33.4390 C   0  0  0  0  0  0  0  0  0  0  0  0
   36.6840   21.4540   34.7460 N   0  0  0  0  0  0  0  0  0  0  0  0
   35.2620   20.4920   33.0520 N   0  0  0  0  0  0  0  0  0  0  0  0
   36.3411   23.1223   36.5938 H   0  0  0  0  0  0  0  0  0  0  0  0
   40.4330   21.8732   36.0140 H   0  0  0  0  0  0  0  0  0  0  0  0
   39.2074   23.8142   39.6104 H   0  0  0  0  0  0  0  0  0  0  0  0
   39.5374   22.2480   33.4458 H   0  0  0  0  0  0  0  0  0  0  0  0
   34.5144   20.3710   33.7501 H   0  0  0  0  0  0  0  0  0  0  0  0
   35.1088   20.1973   32.0770 H   0  0  0  0  0  0  0  0  0  0  0  0
  1  6  2  0
  2  3  2  0
  2  1  1  0
  3  4  1  0
  4  5  2  0
  6  5  1  0
  7  2  1  0
  8  7  1  0
  9 10  1  0
  9  8  2  0
 10 11  2  0
 11  7  1  0
 12 10  1  0
  1 13  1  0
  3 14  1  0
  5 15  1  0
  8 16  1  0
 12 17  1  0
 12 18  1  0
M  ISO  4  13  14  14  14  15  14  16  14
M  END
>  <minimizedAffinity>  (1) 
-3.48273373

>  <minimizedRMSD>  (1) 
0.816942513

$$$$
