
     RDKit          3D

 33 35  0  0  0  0  0  0  0  0999 V2000
   38.5160   22.1830   34.7340 N   0  0  0  0  0  0  0  0  0  0  0  0
   39.3400   21.6820   33.7900 C   0  0  0  0  0  0  0  0  0  0  0  0
   38.6430   21.4880   32.6420 N   0  0  0  0  0  0  0  0  0  0  0  0
   37.3460   21.8850   32.8990 C   0  0  0  0  0  0  0  0  0  0  0  0
   37.3040   22.3040   34.1850 N   0  0  0  0  0  0  0  0  0  0  0  0
   37.6260   23.0700   36.7710 C   0  0  0  0  0  0  0  0  0  0  0  0
   38.7060   22.5630   36.0790 C   0  0  0  0  0  0  0  0  0  0  0  0
   39.8930   22.4670   36.7610 C   0  0  0  0  0  0  0  0  0  0  0  0
   40.0010   22.8530   38.0580 N   0  0  0  0  0  0  0  0  0  0  0  0
   38.9000   23.3480   38.6960 C   0  0  0  0  0  0  0  0  0  0  0  0
   37.7110   23.4510   38.0350 N   0  0  0  0  0  0  0  0  0  0  0  0
   36.2150   21.9070   32.1040 O   0  0  0  0  0  0  0  0  0  0  0  0
   35.4170   20.7480   31.9410 C   0  0  0  0  0  0  0  0  0  0  0  0
   35.7640   20.0540   30.6570 C   0  0  0  0  0  0  0  0  0  0  0  0
   36.8450   19.0220   30.7910 C   0  0  0  0  0  0  0  0  0  0  0  0
   36.6170   18.0730   31.9420 C   0  0  0  0  0  0  0  0  0  0  0  0
   35.3280   18.4370   32.6720 C   0  0  0  0  0  0  0  0  0  0  0  0
   35.5270   19.8560   33.1530 C   0  0  0  0  0  0  0  0  0  0  0  0
   40.4093   21.4649   33.9293 H   0  0  0  0  0  0  0  0  0  0  0  0
   36.6596   23.1608   36.2535 H   0  0  0  0  0  0  0  0  0  0  0  0
   40.7782   22.0677   36.2443 H   0  0  0  0  0  0  0  0  0  0  0  0
   38.9719   23.6649   39.7469 H   0  0  0  0  0  0  0  0  0  0  0  0
   34.3580   21.0356   31.8648 H   0  0  0  0  0  0  0  0  0  0  0  0
   36.0983   20.8125   29.9338 H   0  0  0  0  0  0  0  0  0  0  0  0
   34.8581   19.5236   30.3283 H   0  0  0  0  0  0  0  0  0  0  0  0
   36.8896   18.4385   29.8596 H   0  0  0  0  0  0  0  0  0  0  0  0
   37.7863   19.5561   30.9874 H   0  0  0  0  0  0  0  0  0  0  0  0
   36.5397   17.0455   31.5569 H   0  0  0  0  0  0  0  0  0  0  0  0
   37.4616   18.1466   32.6429 H   0  0  0  0  0  0  0  0  0  0  0  0
   34.4686   18.3794   31.9878 H   0  0  0  0  0  0  0  0  0  0  0  0
   35.1202   17.7481   33.5040 H   0  0  0  0  0  0  0  0  0  0  0  0
   36.5202   19.9638   33.6133 H   0  0  0  0  0  0  0  0  0  0  0  0
   34.7753   20.1248   33.9097 H   0  0  0  0  0  0  0  0  0  0  0  0
  1  7  1  0
  2  1  1  0
  3  4  1  0
  3  2  2  0
  4  5  2  0
  5  1  1  0
  6 11  2  0
  7  8  2  0
  7  6  1  0
  8  9  1  0
  9 10  2  0
 11 10  1  0
 12  4  1  0
 13 12  1  0
 13 18  1  0
 14 15  1  0
 14 13  1  0
 15 16  1  0
 16 17  1  0
 17 18  1  0
  2 19  1  0
  6 20  1  0
  8 21  1  0
 10 22  1  0
 13 23  1  0
 14 24  1  0
 14 25  1  0
 15 26  1  0
 15 27  1  0
 16 28  1  0
 16 29  1  0
 17 30  1  0
 17 31  1  0
 18 32  1  0
 18 33  1  0
M  ISO  8  19  14  20  14  21  14  22  14  23  13  24  13  25  13  26  13
M  ISO  7  27  13  28  13  29  13  30  13  31  13  32  13  33  13
M  END
>  <minimizedAffinity>  (1) 
-4.68613625

>  <minimizedRMSD>  (1) 
1.7725929

$$$$
