
     RDKit          3D

 24 26  0  0  0  0  0  0  0  0999 V2000
   37.5950   22.2790   34.7570 N   0  0  0  0  0  0  0  0  0  0  0  0
   37.7700   22.7980   33.5080 C   0  0  0  0  0  0  0  0  0  0  0  0
   36.9210   22.1690   32.6600 N   0  0  0  0  0  0  0  0  0  0  0  0
   36.2200   21.2590   33.3890 C   0  0  0  0  0  0  0  0  0  0  0  0
   36.6570   21.3510   34.6750 N   0  0  0  0  0  0  0  0  0  0  0  0
   37.4040   23.1640   36.9810 C   0  0  0  0  0  0  0  0  0  0  0  0
   38.2090   22.5610   36.0030 C   0  0  0  0  0  0  0  0  0  0  0  0
   39.5180   22.2930   36.3180 C   0  0  0  0  0  0  0  0  0  0  0  0
   40.0140   22.6010   37.5420 N   0  0  0  0  0  0  0  0  0  0  0  0
   39.2150   23.1820   38.4690 C   0  0  0  0  0  0  0  0  0  0  0  0
   37.9260   23.4540   38.1750 N   0  0  0  0  0  0  0  0  0  0  0  0
   35.2310   20.3500   33.0510 O   0  0  0  0  0  0  0  0  0  0  0  0
   36.1480   17.8860   30.6950 N   0  0  0  0  0  0  0  0  0  0  0  0
   35.9760   19.1380   31.0830 N   0  0  0  0  0  0  0  0  0  0  0  0
   35.5160   19.1880   32.3460 C   0  0  0  0  0  0  0  0  0  0  0  0
   35.3950   17.8770   32.7650 C   0  0  0  0  0  0  0  0  0  0  0  0
   35.7980   17.0490   31.7150 C   0  0  0  0  0  0  0  0  0  0  0  0
   38.4801   23.5926   33.2353 H   0  0  0  0  0  0  0  0  0  0  0  0
   36.3506   23.3961   36.7656 H   0  0  0  0  0  0  0  0  0  0  0  0
   40.1721   21.8230   35.5689 H   0  0  0  0  0  0  0  0  0  0  0  0
   39.6169   23.4322   39.4619 H   0  0  0  0  0  0  0  0  0  0  0  0
   36.4914   17.5893   29.7704 H   0  0  0  0  0  0  0  0  0  0  0  0
   35.0430   17.5438   33.7525 H   0  0  0  0  0  0  0  0  0  0  0  0
   35.8273   15.9494   31.7108 H   0  0  0  0  0  0  0  0  0  0  0  0
  1  7  1  0
  2  1  1  0
  3  4  1  0
  3  2  2  0
  4  5  2  0
  5  1  1  0
  6 11  2  0
  7  8  2  0
  7  6  1  0
  8  9  1  0
  9 10  2  0
 11 10  1  0
 12  4  1  0
 13 14  1  0
 13 17  1  0
 14 15  2  0
 15 16  1  0
 15 12  1  0
 17 16  2  0
  2 18  1  0
  6 19  1  0
  8 20  1  0
 10 21  1  0
 13 22  1  0
 16 23  1  0
 17 24  1  0
M  ISO  7  18  14  19  14  20  14  21  14  22   9  23  14  24  14
M  END
>  <minimizedAffinity>  (1) 
-4.40957451

>  <minimizedRMSD>  (1) 
1.54420495

$$$$
