
     RDKit          3D

 24 26  0  0  0  0  0  0  0  0999 V2000
   37.5650   22.2160   34.6750 N   0  0  0  0  0  0  0  0  0  0  0  0
   37.7180   22.6990   33.4260 C   0  0  0  0  0  0  0  0  0  0  0  0
   36.8920   22.0540   32.5780 N   0  0  0  0  0  0  0  0  0  0  0  0
   36.1980   21.1330   33.3350 C   0  0  0  0  0  0  0  0  0  0  0  0
   36.6400   21.2670   34.6080 N   0  0  0  0  0  0  0  0  0  0  0  0
   37.3660   23.0960   36.9000 C   0  0  0  0  0  0  0  0  0  0  0  0
   38.1650   22.5190   35.9280 C   0  0  0  0  0  0  0  0  0  0  0  0
   39.4960   22.2690   36.2210 C   0  0  0  0  0  0  0  0  0  0  0  0
   39.9970   22.5880   37.4440 N   0  0  0  0  0  0  0  0  0  0  0  0
   39.1840   23.1550   38.3790 C   0  0  0  0  0  0  0  0  0  0  0  0
   37.8810   23.4020   38.0990 N   0  0  0  0  0  0  0  0  0  0  0  0
   35.2260   20.2020   33.0080 O   0  0  0  0  0  0  0  0  0  0  0  0
   35.6160   18.9610   32.5680 C   0  0  0  0  0  0  0  0  0  0  0  0
   36.8630   18.5520   32.0910 C   0  0  0  0  0  0  0  0  0  0  0  0
   36.7500   17.2460   31.7820 N   0  0  0  0  0  0  0  0  0  0  0  0
   35.5190   16.8090   32.0330 C   0  0  0  0  0  0  0  0  0  0  0  0
   34.8360   17.8640   32.5110 N   0  0  0  0  0  0  0  0  0  0  0  0
   38.4143   23.5013   33.1406 H   0  0  0  0  0  0  0  0  0  0  0  0
   36.3068   23.3037   36.6881 H   0  0  0  0  0  0  0  0  0  0  0  0
   40.1485   21.8116   35.4627 H   0  0  0  0  0  0  0  0  0  0  0  0
   39.5882   23.4143   39.3686 H   0  0  0  0  0  0  0  0  0  0  0  0
   37.7632   19.1756   31.9876 H   0  0  0  0  0  0  0  0  0  0  0  0
   35.1365   15.7890   31.8802 H   0  0  0  0  0  0  0  0  0  0  0  0
   33.8466   17.8370   32.7961 H   0  0  0  0  0  0  0  0  0  0  0  0
  1  7  1  0
  2  1  1  0
  3  4  1  0
  3  2  2  0
  4  5  2  0
  5  1  1  0
  6 11  2  0
  7  8  2  0
  7  6  1  0
  8  9  1  0
  9 10  2  0
 11 10  1  0
 12  4  1  0
 13 12  1  0
 14 13  2  0
 15 16  2  0
 15 14  1  0
 16 17  1  0
 17 13  1  0
  2 18  1  0
  6 19  1  0
  8 20  1  0
 10 21  1  0
 14 22  1  0
 16 23  1  0
 17 24  1  0
M  ISO  7  18  14  19  14  20  14  21  14  22  14  23  14  24   9
M  END
>  <minimizedAffinity>  (1) 
-4.3773222

>  <minimizedRMSD>  (1) 
1.615376

$$$$
