
     RDKit          3D

 20 21  0  0  0  0  0  0  0  0999 V2000
   37.6800   22.0700   34.7050 N   0  0  0  0  0  0  0  0  0  0  0  0
   38.0530   22.3080   33.4200 C   0  0  0  0  0  0  0  0  0  0  0  0
   37.1640   21.7320   32.5800 N   0  0  0  0  0  0  0  0  0  0  0  0
   36.2210   21.1250   33.3720 C   0  0  0  0  0  0  0  0  0  0  0  0
   36.5580   21.3450   34.6820 N   0  0  0  0  0  0  0  0  0  0  0  0
   37.4080   23.0300   36.8860 C   0  0  0  0  0  0  0  0  0  0  0  0
   38.2450   22.4360   35.9560 C   0  0  0  0  0  0  0  0  0  0  0  0
   39.5620   22.2410   36.2990 C   0  0  0  0  0  0  0  0  0  0  0  0
   40.0290   22.6190   37.5130 N   0  0  0  0  0  0  0  0  0  0  0  0
   39.1720   23.2010   38.4030 C   0  0  0  0  0  0  0  0  0  0  0  0
   37.8820   23.3970   38.0800 N   0  0  0  0  0  0  0  0  0  0  0  0
   35.0740   20.3830   33.0960 O   0  0  0  0  0  0  0  0  0  0  0  0
   35.3270   19.1110   32.5490 C   0  0  0  0  0  0  0  0  0  0  0  0
   36.5370   18.7640   32.4410 O   0  0  0  0  0  0  0  0  0  0  0  0
   34.5660   18.0530   32.0590 O   0  0  0  0  0  0  0  0  0  0  0  0
   38.9403   22.8803   33.1114 H   0  0  0  0  0  0  0  0  0  0  0  0
   36.3493   23.2002   36.6407 H   0  0  0  0  0  0  0  0  0  0  0  0
   40.2463   21.7713   35.5772 H   0  0  0  0  0  0  0  0  0  0  0  0
   39.5403   23.5118   39.3918 H   0  0  0  0  0  0  0  0  0  0  0  0
   35.0129   17.2378   31.7187 H   0  0  0  0  0  0  0  0  0  0  0  0
  1  7  1  0
  2  1  1  0
  3  4  1  0
  3  2  2  0
  4  5  2  0
  5  1  1  0
  6 11  2  0
  7  8  2  0
  7  6  1  0
  8  9  1  0
  9 10  2  0
 11 10  1  0
 12  4  1  0
 13 12  1  0
 14 13  2  0
 15 13  1  0
  2 16  1  0
  6 17  1  0
  8 18  1  0
 10 19  1  0
 15 20  1  0
M  ISO  5  16  14  17  14  18  14  19  14  20   3
M  END
>  <minimizedAffinity>  (1) 
-4.16646338

>  <minimizedRMSD>  (1) 
0.354911923

$$$$
