
     RDKit          3D

 19 20  0  0  0  0  0  0  0  0999 V2000
   37.6680   22.1230   34.7750 N   0  0  0  0  0  0  0  0  0  0  0  0
   38.0150   22.3950   33.5020 C   0  0  0  0  0  0  0  0  0  0  0  0
   37.1680   21.7860   32.6590 N   0  0  0  0  0  0  0  0  0  0  0  0
   36.2620   21.1120   33.4240 C   0  0  0  0  0  0  0  0  0  0  0  0
   36.5930   21.3370   34.7280 N   0  0  0  0  0  0  0  0  0  0  0  0
   37.3080   23.0360   36.9750 C   0  0  0  0  0  0  0  0  0  0  0  0
   38.1980   22.4930   36.0400 C   0  0  0  0  0  0  0  0  0  0  0  0
   39.5390   22.3440   36.3840 C   0  0  0  0  0  0  0  0  0  0  0  0
   39.9490   22.7310   37.6290 N   0  0  0  0  0  0  0  0  0  0  0  0
   39.0480   23.2570   38.5120 C   0  0  0  0  0  0  0  0  0  0  0  0
   37.7560   23.4000   38.1760 N   0  0  0  0  0  0  0  0  0  0  0  0
   35.1500   20.3040   33.1320 O   0  0  0  0  0  0  0  0  0  0  0  0
   35.2600   19.1220   32.4560 C   0  0  0  0  0  0  0  0  0  0  0  0
   35.1750   17.9290   32.8530 O   0  0  0  0  0  0  0  0  0  0  0  0
   38.8660   23.0228   33.1992 H   0  0  0  0  0  0  0  0  0  0  0  0
   36.2454   23.1613   36.7195 H   0  0  0  0  0  0  0  0  0  0  0  0
   40.2568   21.9217   35.6654 H   0  0  0  0  0  0  0  0  0  0  0  0
   39.3861   23.5674   39.5117 H   0  0  0  0  0  0  0  0  0  0  0  0
   35.4567   19.2303   31.3792 H   0  0  0  0  0  0  0  0  0  0  0  0
  1  7  1  0
  2  1  1  0
  3  4  1  0
  3  2  2  0
  4  5  2  0
  5  1  1  0
  6 11  2  0
  7  8  2  0
  7  6  1  0
  8  9  1  0
  9 10  2  0
 11 10  1  0
 12  4  1  0
 13 14  2  0
 13 12  1  0
  2 15  1  0
  6 16  1  0
  8 17  1  0
 10 18  1  0
 13 19  1  0
M  ISO  5  15  14  16  14  17  14  18  14  19   6
M  END
>  <minimizedAffinity>  (1) 
-3.72540307

>  <minimizedRMSD>  (1) 
0.257449001

$$$$
