
     RDKit          3D

 37 41  0  0  1  0  0  0  0  0999 V2000
   35.3780   20.5680   32.9480 C   0  0  1  0  0  0  0  0  0  0  0  0
   34.4530   19.9720   31.9310 C   0  0  0  0  0  0  0  0  0  0  0  0
   35.1850   19.0800   32.9010 C   0  0  1  0  0  0  0  0  0  0  0  0
   36.2430   18.2990   32.2800 N   0  0  0  0  0  0  0  0  0  0  0  0
   37.3970   18.7780   31.7320 C   0  0  0  0  0  0  0  0  0  0  0  0
   38.1130   17.7170   31.2600 N   0  0  0  0  0  0  0  0  0  0  0  0
   37.4200   16.6120   31.5110 C   0  0  0  0  0  0  0  0  0  0  0  0
   37.5720   15.2580   31.3010 C   0  0  0  0  0  0  0  0  0  0  0  0
   36.6570   14.3340   31.6830 N   0  0  0  0  0  0  0  0  0  0  0  0
   35.5170   14.7470   32.3110 C   0  0  0  0  0  0  0  0  0  0  0  0
   35.3200   16.0560   32.5390 N   0  0  0  0  0  0  0  0  0  0  0  0
   36.2360   16.9430   32.1520 C   0  0  0  0  0  0  0  0  0  0  0  0
   38.7410   14.7850   30.6530 N   0  0  0  0  0  0  0  0  0  0  0  0
   36.6200   21.0540   32.4040 O   0  0  0  0  0  0  0  0  0  0  0  0
   38.0150   23.1080   34.8720 N   0  0  0  0  0  0  0  0  0  0  0  0
   38.1150   23.9210   33.7970 C   0  0  0  0  0  0  0  0  0  0  0  0
   37.6170   23.3100   32.7090 N   0  0  0  0  0  0  0  0  0  0  0  0
   37.1930   22.0570   33.1400 C   0  0  0  0  0  0  0  0  0  0  0  0
   37.4520   21.9790   34.4530 N   0  0  0  0  0  0  0  0  0  0  0  0
   37.5300   23.9340   37.0610 C   0  0  0  0  0  0  0  0  0  0  0  0
   38.3830   23.2300   36.2500 C   0  0  0  0  0  0  0  0  0  0  0  0
   39.5550   22.6730   36.7630 C   0  0  0  0  0  0  0  0  0  0  0  0
   39.8270   22.8480   38.0770 N   0  0  0  0  0  0  0  0  0  0  0  0
   38.9980   23.5350   38.8720 C   0  0  0  0  0  0  0  0  0  0  0  0
   37.8760   24.0600   38.3540 N   0  0  0  0  0  0  0  0  0  0  0  0
   35.2936   21.3303   33.7365 H   0  0  0  0  0  0  0  0  0  0  0  0
   34.7312   19.9729   30.8668 H   0  0  0  0  0  0  0  0  0  0  0  0
   33.3988   20.1222   31.6552 H   0  0  0  0  0  0  0  0  0  0  0  0
   34.9169   18.3232   33.6529 H   0  0  0  0  0  0  0  0  0  0  0  0
   37.6975   19.8349   31.6799 H   0  0  0  0  0  0  0  0  0  0  0  0
   34.7635   14.0112   32.6287 H   0  0  0  0  0  0  0  0  0  0  0  0
   38.8669   13.7758   30.4900 H   0  0  0  0  0  0  0  0  0  0  0  0
   39.4643   15.4506   30.3453 H   0  0  0  0  0  0  0  0  0  0  0  0
   38.5417   24.9348   33.8108 H   0  0  0  0  0  0  0  0  0  0  0  0
   36.6020   24.3768   36.6701 H   0  0  0  0  0  0  0  0  0  0  0  0
   40.2404   22.1061   36.1158 H   0  0  0  0  0  0  0  0  0  0  0  0
   39.2333   23.6681   39.9383 H   0  0  0  0  0  0  0  0  0  0  0  0
  2  3  1  0
  2  1  1  0
  3  1  1  0
  4  3  1  0
  5  4  1  0
  6  7  1  0
  6  5  2  0
  7 12  2  0
  8  7  1  0
  8  9  2  0
  9 10  1  0
 10 11  2  0
 12  4  1  0
 12 11  1  0
 13  8  1  0
 14  1  1  0
 14 18  1  0
 15 21  1  0
 16 15  1  0
 17 18  1  0
 17 16  2  0
 18 19  2  0
 19 15  1  0
 20 25  2  0
 21 22  2  0
 21 20  1  0
 22 23  1  0
 23 24  2  0
 25 24  1  0
  1 26  1  1
  2 27  1  0
  2 28  1  0
  3 29  1  1
  5 30  1  0
 10 31  1  0
 13 32  1  0
 13 33  1  0
 16 34  1  0
 20 35  1  0
 22 36  1  0
 24 37  1  0
M  ISO  8  26  13  27  13  28  13  29  13  30  14  31  14  34  14  35  14
M  ISO  2  36  14  37  14
M  END
>  <minimizedAffinity>  (1) 
-5.01899529

>  <minimizedRMSD>  (1) 
1.53323877

$$$$
