
     RDKit          3D

 34 37  0  0  1  0  0  0  0  0999 V2000
   36.8400   20.8310   32.1380 O   0  0  0  0  0  0  0  0  0  0  0  0
   35.5740   20.6530   32.7920 C   0  0  1  0  0  0  0  0  0  0  0  0
   34.4790   20.1650   31.8940 C   0  0  0  0  0  0  0  0  0  0  0  0
   35.0770   19.2470   32.9270 C   0  0  1  0  0  0  0  0  0  0  0  0
   35.8340   18.0940   32.4330 C   0  0  0  0  0  0  0  0  0  0  0  0
   35.3770   16.7920   32.4290 C   0  0  0  0  0  0  0  0  0  0  0  0
   36.0570   15.6900   31.9730 C   0  0  0  0  0  0  0  0  0  0  0  0
   37.3360   15.9000   31.4630 C   0  0  0  0  0  0  0  0  0  0  0  0
   37.8840   17.1600   31.4220 C   0  0  0  0  0  0  0  0  0  0  0  0
   37.1240   18.2050   31.9030 C   0  0  0  0  0  0  0  0  0  0  0  0
   38.7940   22.1020   34.7510 N   0  0  0  0  0  0  0  0  0  0  0  0
   39.7290   21.9950   33.7760 C   0  0  0  0  0  0  0  0  0  0  0  0
   39.1690   21.5150   32.6570 N   0  0  0  0  0  0  0  0  0  0  0  0
   37.8270   21.3160   32.9540 C   0  0  0  0  0  0  0  0  0  0  0  0
   37.6460   21.6850   34.2300 N   0  0  0  0  0  0  0  0  0  0  0  0
   37.6580   23.0380   36.6310 C   0  0  0  0  0  0  0  0  0  0  0  0
   38.8350   22.5390   36.1140 C   0  0  0  0  0  0  0  0  0  0  0  0
   39.9830   22.4810   36.8870 C   0  0  0  0  0  0  0  0  0  0  0  0
   39.9240   22.9270   38.1670 N   0  0  0  0  0  0  0  0  0  0  0  0
   38.7850   23.4140   38.6750 C   0  0  0  0  0  0  0  0  0  0  0  0
   37.6850   23.4600   37.9070 N   0  0  0  0  0  0  0  0  0  0  0  0
   35.7066   21.4868   33.4971 H   0  0  0  0  0  0  0  0  0  0  0  0
   33.4537   20.5427   32.0207 H   0  0  0  0  0  0  0  0  0  0  0  0
   34.3266   20.1187   30.8056 H   0  0  0  0  0  0  0  0  0  0  0  0
   34.7279   18.6580   33.7879 H   0  0  0  0  0  0  0  0  0  0  0  0
   34.3677   16.6200   32.8311 H   0  0  0  0  0  0  0  0  0  0  0  0
   35.6112   14.6850   32.0088 H   0  0  0  0  0  0  0  0  0  0  0  0
   37.9164   15.0445   31.0873 H   0  0  0  0  0  0  0  0  0  0  0  0
   38.8937   17.3287   31.0195 H   0  0  0  0  0  0  0  0  0  0  0  0
   37.5692   19.2102   31.8670 H   0  0  0  0  0  0  0  0  0  0  0  0
   40.7902   22.2625   33.8866 H   0  0  0  0  0  0  0  0  0  0  0  0
   36.7398   23.0884   36.0274 H   0  0  0  0  0  0  0  0  0  0  0  0
   40.9208   22.0825   36.4726 H   0  0  0  0  0  0  0  0  0  0  0  0
   38.7509   23.7737   39.7140 H   0  0  0  0  0  0  0  0  0  0  0  0
  1  2  1  0
  1 14  1  0
  2  4  1  0
  3  2  1  0
  3  4  1  0
  5  4  1  0
  6  5  2  0
  7  6  1  0
  8  7  2  0
  9  8  1  0
  9 10  2  0
 10  5  1  0
 11 17  1  0
 12 11  1  0
 13 14  1  0
 13 12  2  0
 14 15  2  0
 15 11  1  0
 16 21  2  0
 17 16  1  0
 17 18  2  0
 18 19  1  0
 19 20  2  0
 21 20  1  0
  2 22  1  1
  3 23  1  0
  3 24  1  0
  4 25  1  1
  6 26  1  0
  7 27  1  0
  8 28  1  0
  9 29  1  0
 10 30  1  0
 12 31  1  0
 16 32  1  0
 18 33  1  0
 20 34  1  0
M  ISO  8  22  13  23  13  24  13  25  13  26  14  27  14  28  14  29  14
M  ISO  5  30  14  31  14  32  14  33  14  34  14
M  END
>  <minimizedAffinity>  (1) 
-4.94961786

>  <minimizedRMSD>  (1) 
0.742803931

$$$$
