
     RDKit          3D

 33 35  0  0  1  0  0  0  0  0999 V2000
   38.6780   24.1530   34.7580 N   0  0  0  0  0  0  0  0  0  0  0  0
   39.2180   25.0910   33.9480 C   0  0  0  0  0  0  0  0  0  0  0  0
   38.8070   24.8690   32.6720 N   0  0  0  0  0  0  0  0  0  0  0  0
   37.9960   23.7620   32.7180 C   0  0  0  0  0  0  0  0  0  0  0  0
   37.9390   23.3560   33.9950 N   0  0  0  0  0  0  0  0  0  0  0  0
   37.8550   24.5520   36.9680 C   0  0  0  0  0  0  0  0  0  0  0  0
   38.7670   23.8960   36.1630 C   0  0  0  0  0  0  0  0  0  0  0  0
   39.7090   23.0420   36.7160 C   0  0  0  0  0  0  0  0  0  0  0  0
   39.7160   22.8670   38.0610 N   0  0  0  0  0  0  0  0  0  0  0  0
   38.8340   23.5030   38.8430 C   0  0  0  0  0  0  0  0  0  0  0  0
   37.9260   24.3270   38.2900 N   0  0  0  0  0  0  0  0  0  0  0  0
   37.3500   23.1490   31.6800 O   0  0  0  0  0  0  0  0  0  0  0  0
   36.1060   22.5260   32.0340 C   0  0  1  0  0  0  0  0  0  0  0  0
   35.4510   21.7750   30.9180 C   0  0  0  0  0  0  0  0  0  0  0  0
   36.1140   21.0240   32.0410 C   0  0  2  0  0  0  0  0  0  0  0  0
   35.2860   20.2700   33.0190 C   0  0  0  0  0  0  0  0  0  0  0  0
   35.6260   20.5670   34.4710 C   0  0  0  0  0  0  0  0  0  0  0  0
   35.4670   18.7790   32.8500 C   0  0  0  0  0  0  0  0  0  0  0  0
   39.8842   25.9047   34.2706 H   0  0  0  0  0  0  0  0  0  0  0  0
   37.1013   25.2311   36.5429 H   0  0  0  0  0  0  0  0  0  0  0  0
   40.4352   22.5176   36.0775 H   0  0  0  0  0  0  0  0  0  0  0  0
   38.8521   23.3522   39.9325 H   0  0  0  0  0  0  0  0  0  0  0  0
   35.7915   23.2998   32.7498 H   0  0  0  0  0  0  0  0  0  0  0  0
   34.3548   21.7719   30.8263 H   0  0  0  0  0  0  0  0  0  0  0  0
   35.5429   21.7749   29.8218 H   0  0  0  0  0  0  0  0  0  0  0  0
   36.8944   20.2521   32.1135 H   0  0  0  0  0  0  0  0  0  0  0  0
   34.2566   20.5948   32.8071 H   0  0  0  0  0  0  0  0  0  0  0  0
   34.9621   19.9871   35.1290 H   0  0  0  0  0  0  0  0  0  0  0  0
   36.6718   20.2880   34.6672 H   0  0  0  0  0  0  0  0  0  0  0  0
   35.4900   21.6408   34.6672 H   0  0  0  0  0  0  0  0  0  0  0  0
   35.5249   18.3022   33.8396 H   0  0  0  0  0  0  0  0  0  0  0  0
   34.6123   18.3666   32.2937 H   0  0  0  0  0  0  0  0  0  0  0  0
   36.3955   18.5831   32.2937 H   0  0  0  0  0  0  0  0  0  0  0  0
  1  7  1  0
  2  1  1  0
  3  4  1  0
  3  2  2  0
  4  5  2  0
  5  1  1  0
  6 11  2  0
  7  8  2  0
  7  6  1  0
  8  9  1  0
  9 10  2  0
 11 10  1  0
 12 13  1  0
 12  4  1  0
 13 15  1  0
 14 13  1  0
 14 15  1  0
 15 16  1  0
 16 17  1  0
 18 16  1  0
  2 19  1  0
  6 20  1  0
  8 21  1  0
 10 22  1  0
 13 23  1  1
 14 24  1  0
 14 25  1  0
 15 26  1  6
 16 27  1  0
 17 28  1  0
 17 29  1  0
 17 30  1  0
 18 31  1  0
 18 32  1  0
 18 33  1  0
M  ISO  8  19  14  20  14  21  14  22  14  23  13  24  13  25  13  26  13
M  ISO  7  27   8  28   8  29   8  30   8  31   8  32   8  33   8
M  END
>  <minimizedAffinity>  (1) 
-4.7586937

>  <minimizedRMSD>  (1) 
2.16868186

$$$$
