
     RDKit          3D

 37 40  0  0  1  0  0  0  0  0999 V2000
   38.0300   23.5840   34.6810 N   0  0  0  0  0  0  0  0  0  0  0  0
   38.0960   24.5390   33.7430 C   0  0  0  0  0  0  0  0  0  0  0  0
   37.6300   24.0670   32.5680 N   0  0  0  0  0  0  0  0  0  0  0  0
   37.2640   22.7520   32.8100 C   0  0  0  0  0  0  0  0  0  0  0  0
   37.5180   22.4870   34.1030 N   0  0  0  0  0  0  0  0  0  0  0  0
   37.6050   24.2110   36.9560 C   0  0  0  0  0  0  0  0  0  0  0  0
   38.3830   23.5180   36.0680 C   0  0  0  0  0  0  0  0  0  0  0  0
   39.4640   22.7850   36.5280 C   0  0  0  0  0  0  0  0  0  0  0  0
   39.7320   22.7700   37.8630 N   0  0  0  0  0  0  0  0  0  0  0  0
   38.9620   23.4530   38.7200 C   0  0  0  0  0  0  0  0  0  0  0  0
   37.8950   24.1730   38.2550 N   0  0  0  0  0  0  0  0  0  0  0  0
   36.7420   21.8480   31.9230 O   0  0  0  0  0  0  0  0  0  0  0  0
   36.1930   20.6700   32.5420 C   0  0  1  0  0  0  0  0  0  0  0  0
   34.8660   20.2450   31.9960 C   0  0  0  0  0  0  0  0  0  0  0  0
   36.0970   19.4520   31.6710 C   0  0  2  0  0  0  0  0  0  0  0  0
   36.3770   18.1490   32.3230 C   0  0  0  0  0  0  0  0  0  0  0  0
   35.1440   17.3110   32.5540 C   0  0  0  0  0  0  0  0  0  0  0  0
   35.6020   15.9060   32.2190 C   0  0  0  0  0  0  0  0  0  0  0  0
   36.3840   16.1580   30.9450 C   0  0  0  0  0  0  0  0  0  0  0  0
   37.2400   17.3380   31.3620 C   0  0  0  0  0  0  0  0  0  0  0  0
   38.4747   25.5586   33.9071 H   0  0  0  0  0  0  0  0  0  0  0  0
   36.7449   24.7961   36.5983 H   0  0  0  0  0  0  0  0  0  0  0  0
   40.0969   22.2231   35.8254 H   0  0  0  0  0  0  0  0  0  0  0  0
   39.1870   23.4353   39.7966 H   0  0  0  0  0  0  0  0  0  0  0  0
   36.6066   20.8715   33.5412 H   0  0  0  0  0  0  0  0  0  0  0  0
   34.1036   19.8255   32.6688 H   0  0  0  0  0  0  0  0  0  0  0  0
   34.0767   20.7322   31.4047 H   0  0  0  0  0  0  0  0  0  0  0  0
   36.5317   19.0982   30.7245 H   0  0  0  0  0  0  0  0  0  0  0  0
   36.8435   18.3705   33.2942 H   0  0  0  0  0  0  0  0  0  0  0  0
   34.8141   17.3776   33.6013 H   0  0  0  0  0  0  0  0  0  0  0  0
   34.2853   17.6370   31.9487 H   0  0  0  0  0  0  0  0  0  0  0  0
   36.2417   15.4892   33.0109 H   0  0  0  0  0  0  0  0  0  0  0  0
   34.7874   15.1740   32.1160 H   0  0  0  0  0  0  0  0  0  0  0  0
   35.7196   16.4165   30.1073 H   0  0  0  0  0  0  0  0  0  0  0  0
   36.9533   15.2895   30.5822 H   0  0  0  0  0  0  0  0  0  0  0  0
   38.1540   16.9907   31.8660 H   0  0  0  0  0  0  0  0  0  0  0  0
   37.5589   17.9367   30.4960 H   0  0  0  0  0  0  0  0  0  0  0  0
  1  7  1  0
  2  1  1  0
  3  4  1  0
  3  2  2  0
  4  5  2  0
  5  1  1  0
  6 11  2  0
  7  8  2  0
  7  6  1  0
  8  9  1  0
  9 10  2  0
 11 10  1  0
 12 13  1  0
 12  4  1  0
 14 13  1  0
 15 14  1  0
 15 16  1  0
 15 13  1  0
 16 17  1  0
 18 17  1  0
 19 20  1  0
 19 18  1  0
 20 16  1  0
  2 21  1  0
  6 22  1  0
  8 23  1  0
 10 24  1  0
 13 25  1  1
 14 26  1  0
 14 27  1  0
 15 28  1  6
 16 29  1  0
 17 30  1  0
 17 31  1  0
 18 32  1  0
 18 33  1  0
 19 34  1  0
 19 35  1  0
 20 36  1  0
 20 37  1  0
M  ISO  8  21  14  22  14  23  14  24  14  25  13  26  13  27  13  28  13
M  ISO  8  29  13  30  13  31  13  32  13  33  13  34  13  35  13  36  13
M  ISO  1  37  13
M  END
>  <minimizedAffinity>  (1) 
-4.67729902

>  <minimizedRMSD>  (1) 
1.96936822

$$$$
