
     RDKit          3D

 20 20  0  0  0  0  0  0  0  0999 V2000
   40.4640   22.3890   37.7270 C   0  0  0  0  0  0  0  0  0  0  0  0
   39.2970   23.1210   37.4410 C   0  0  0  0  0  0  0  0  0  0  0  0
   38.9690   23.3260   36.1060 C   0  0  0  0  0  0  0  0  0  0  0  0
   39.7720   22.8190   35.1210 N   0  0  0  0  0  0  0  0  0  0  0  0
   40.8880   22.1190   35.4470 C   0  0  0  0  0  0  0  0  0  0  0  0
   41.2190   21.9120   36.7270 N   0  0  0  0  0  0  0  0  0  0  0  0
   38.4060   23.6850   38.4910 C   0  0  0  0  0  0  0  0  0  0  0  0
   39.2010   23.8800   39.6160 F   0  0  0  0  0  0  0  0  0  0  0  0
   37.3800   22.8750   38.8110 F   0  0  0  0  0  0  0  0  0  0  0  0
   38.0120   25.0010   38.1430 F   0  0  0  0  0  0  0  0  0  0  0  0
   41.8740   21.4880   34.1020 S   0  0  0  0  0  0  0  0  0  0  0  0
   43.0210   20.2760   34.8380 C   0  0  0  0  0  0  0  0  0  0  0  0
   44.3540   20.8950   35.1620 C   0  0  0  0  0  0  0  0  0  0  0  0
   40.7571   22.2079   38.7717 H   0  0  0  0  0  0  0  0  0  0  0  0
   38.0654   23.8949   35.8418 H   0  0  0  0  0  0  0  0  0  0  0  0
   42.5768   19.8817   35.7639 H   0  0  0  0  0  0  0  0  0  0  0  0
   43.1858   19.4719   34.1057 H   0  0  0  0  0  0  0  0  0  0  0  0
   44.4763   20.9518   36.2537 H   0  0  0  0  0  0  0  0  0  0  0  0
   45.1583   20.2782   34.7346 H   0  0  0  0  0  0  0  0  0  0  0  0
   44.4017   21.9074   34.7346 H   0  0  0  0  0  0  0  0  0  0  0  0
  2  1  2  0
  2  7  1  0
  3  2  1  0
  4  5  1  0
  4  3  2  0
  5  6  2  0
  6  1  1  0
  7  9  1  0
  7  8  1  0
 10  7  1  0
 11 12  1  0
 11  5  1  0
 12 13  1  0
  1 14  1  0
  3 15  1  0
 12 16  1  0
 12 17  1  0
 13 18  1  0
 13 19  1  0
 13 20  1  0
M  ISO  7  14  14  15  14  16   8  17   8  18   8  19   8  20   8
M  END
>  <minimizedAffinity>  (1) 
-3.6756134

>  <minimizedRMSD>  (1) 
1.11559427

$$$$
