
     RDKit          3D

 20 21  0  0  0  0  0  0  0  0999 V2000
   40.4550   22.3880   37.7170 C   0  0  0  0  0  0  0  0  0  0  0  0
   39.2910   23.1240   37.4420 C   0  0  0  0  0  0  0  0  0  0  0  0
   38.9700   23.3350   36.1180 C   0  0  0  0  0  0  0  0  0  0  0  0
   39.7710   22.8350   35.1360 N   0  0  0  0  0  0  0  0  0  0  0  0
   40.8940   22.1240   35.4510 C   0  0  0  0  0  0  0  0  0  0  0  0
   41.2110   21.9170   36.7270 N   0  0  0  0  0  0  0  0  0  0  0  0
   38.4090   23.6750   38.5050 C   0  0  0  0  0  0  0  0  0  0  0  0
   39.2050   23.8700   39.6290 F   0  0  0  0  0  0  0  0  0  0  0  0
   37.3810   22.8680   38.8320 F   0  0  0  0  0  0  0  0  0  0  0  0
   37.9970   24.9880   38.1690 F   0  0  0  0  0  0  0  0  0  0  0  0
   41.8700   21.5180   34.0870 S   0  0  0  0  0  0  0  0  0  0  0  0
   43.2630   22.5960   33.7940 C   0  0  0  0  0  0  0  0  0  0  0  0
   43.2130   23.8910   34.3710 C   0  0  0  0  0  0  0  0  0  0  0  0
   44.8480   24.6710   33.8230 S   0  0  0  0  0  0  0  0  0  0  0  0
   45.2630   23.0740   32.9190 C   0  0  0  0  0  0  0  0  0  0  0  0
   44.3730   22.4360   33.1290 N   0  0  0  0  0  0  0  0  0  0  0  0
   40.7453   22.1986   38.7610 H   0  0  0  0  0  0  0  0  0  0  0  0
   38.0678   23.9066   35.8547 H   0  0  0  0  0  0  0  0  0  0  0  0
   42.4170   24.3343   34.9874 H   0  0  0  0  0  0  0  0  0  0  0  0
   46.1597   22.8305   32.3303 H   0  0  0  0  0  0  0  0  0  0  0  0
  2  1  2  0
  2  7  1  0
  3  2  1  0
  4  5  1  0
  4  3  2  0
  5  6  2  0
  6  1  1  0
  7  9  1  0
  7  8  1  0
 10  7  1  0
 11  5  1  0
 12 11  1  0
 12 13  2  0
 14 13  1  0
 15 16  2  0
 15 14  1  0
 16 12  1  0
  1 17  1  0
  3 18  1  0
 13 19  1  0
 15 20  1  0
M  ISO  4  17  14  18  14  19  14  20  14
M  END
>  <minimizedAffinity>  (1) 
-3.7850678

>  <minimizedRMSD>  (1) 
0.578885674

$$$$
