
     RDKit          3D

 46 50  0  0  1  0  0  0  0  0999 V2000
   36.3850   21.5760   32.3360 C   0  0  1  0  0  0  0  0  0  0  0  0
   35.5580   21.5290   31.1080 C   0  0  0  0  0  0  0  0  0  0  0  0
   35.4340   20.4320   32.0900 C   0  0  1  0  0  0  0  0  0  0  0  0
   35.7430   19.1200   31.8070 N   0  0  0  0  0  0  0  0  0  0  0  0
   35.2470   18.1670   32.6650 C   0  0  0  0  0  0  0  0  0  0  0  0
   35.6680   16.9190   32.2050 C   0  0  0  0  0  0  0  0  0  0  0  0
   36.4110   17.1440   31.0730 N   0  0  0  0  0  0  0  0  0  0  0  0
   36.4200   18.4770   30.8830 C   0  0  0  0  0  0  0  0  0  0  0  0
   37.2170   18.5450   29.7260 N   0  0  0  0  0  0  0  0  0  0  0  0
   37.8770   19.6640   29.0770 C   0  0  0  0  0  0  0  0  0  0  0  0
   38.2760   19.3040   27.6890 C   0  0  0  0  0  0  0  0  0  0  0  0
   37.1100   18.7420   26.9310 C   0  0  0  0  0  0  0  0  0  0  0  0
   36.4650   17.6270   27.7040 C   0  0  0  0  0  0  0  0  0  0  0  0
   37.3910   17.3170   28.8970 C   0  0  0  0  0  0  0  0  0  0  0  0
   37.7340   21.1920   32.2680 O   0  0  0  0  0  0  0  0  0  0  0  0
   39.1410   22.4580   35.1920 N   0  0  0  0  0  0  0  0  0  0  0  0
   40.2460   22.0990   34.5230 C   0  0  0  0  0  0  0  0  0  0  0  0
   39.9010   21.5820   33.3440 N   0  0  0  0  0  0  0  0  0  0  0  0
   38.5390   21.6200   33.2800 C   0  0  0  0  0  0  0  0  0  0  0  0
   38.0840   22.1620   34.4230 N   0  0  0  0  0  0  0  0  0  0  0  0
   37.8360   23.9480   36.5660 C   0  0  0  0  0  0  0  0  0  0  0  0
   38.8830   23.0590   36.4820 C   0  0  0  0  0  0  0  0  0  0  0  0
   39.6690   22.7390   37.5990 C   0  0  0  0  0  0  0  0  0  0  0  0
   39.3400   23.3600   38.7760 N   0  0  0  0  0  0  0  0  0  0  0  0
   38.3030   24.2320   38.8320 C   0  0  0  0  0  0  0  0  0  0  0  0
   37.5730   24.5140   37.7440 N   0  0  0  0  0  0  0  0  0  0  0  0
   36.5518   22.3533   33.0963 H   0  0  0  0  0  0  0  0  0  0  0  0
   36.0349   21.3400   30.1349 H   0  0  0  0  0  0  0  0  0  0  0  0
   34.8472   22.2199   30.6312 H   0  0  0  0  0  0  0  0  0  0  0  0
   34.6377   19.9668   32.6895 H   0  0  0  0  0  0  0  0  0  0  0  0
   34.6287   18.3550   33.5551 H   0  0  0  0  0  0  0  0  0  0  0  0
   35.4471   15.9429   32.6615 H   0  0  0  0  0  0  0  0  0  0  0  0
   37.1877   20.5206   29.0443 H   0  0  0  0  0  0  0  0  0  0  0  0
   38.7798   19.9235   29.6493 H   0  0  0  0  0  0  0  0  0  0  0  0
   38.6418   20.2042   27.1734 H   0  0  0  0  0  0  0  0  0  0  0  0
   39.0682   18.5422   27.7351 H   0  0  0  0  0  0  0  0  0  0  0  0
   36.3710   19.5390   26.7613 H   0  0  0  0  0  0  0  0  0  0  0  0
   37.4695   18.3457   25.9699 H   0  0  0  0  0  0  0  0  0  0  0  0
   35.4744   17.9405   28.0652 H   0  0  0  0  0  0  0  0  0  0  0  0
   36.3257   16.7379   27.0715 H   0  0  0  0  0  0  0  0  0  0  0  0
   37.0643   16.4163   29.4374 H   0  0  0  0  0  0  0  0  0  0  0  0
   38.4334   17.1059   28.6163 H   0  0  0  0  0  0  0  0  0  0  0  0
   41.2767   22.2133   34.8900 H   0  0  0  0  0  0  0  0  0  0  0  0
   37.2291   24.1865   35.6801 H   0  0  0  0  0  0  0  0  0  0  0  0
   40.5052   22.0273   37.5339 H   0  0  0  0  0  0  0  0  0  0  0  0
   38.0564   24.7169   39.7881 H   0  0  0  0  0  0  0  0  0  0  0  0
  2  3  1  0
  2  1  1  0
  3  1  1  0
  4  3  1  0
  4  5  1  0
  6  5  2  0
  7  6  1  0
  8  7  2  0
  8  4  1  0
  9  8  1  0
 10  9  1  0
 11 10  1  0
 12 11  1  0
 12 13  1  0
 13 14  1  0
 14  9  1  0
 15  1  1  0
 15 19  1  0
 16 22  1  0
 17 16  1  0
 18 17  2  0
 19 18  1  0
 19 20  2  0
 20 16  1  0
 21 26  2  0
 22 21  1  0
 22 23  2  0
 23 24  1  0
 24 25  2  0
 26 25  1  0
  1 27  1  1
  2 28  1  0
  2 29  1  0
  3 30  1  1
  5 31  1  0
  6 32  1  0
 10 33  1  0
 10 34  1  0
 11 35  1  0
 11 36  1  0
 12 37  1  0
 12 38  1  0
 13 39  1  0
 13 40  1  0
 14 41  1  0
 14 42  1  0
 17 43  1  0
 21 44  1  0
 23 45  1  0
 25 46  1  0
M  ISO  8  27  13  28  13  29  13  30  13  31  14  32  14  33  13  34  13
M  ISO  8  35  13  36  13  37  13  38  13  39  13  40  13  41  13  42  13
M  ISO  4  43  14  44  14  45  14  46  14
M  END
>  <minimizedAffinity>  (1) 
-5.10398817

>  <minimizedRMSD>  (1) 
1.67333543

$$$$
