
     RDKit          3D

 38 42  0  0  1  0  0  0  0  0999 V2000
   35.6180   20.5340   32.7490 C   0  0  1  0  0  0  0  0  0  0  0  0
   34.4690   20.2260   31.8640 C   0  0  0  0  0  0  0  0  0  0  0  0
   35.1060   19.1230   32.6130 C   0  0  1  0  0  0  0  0  0  0  0  0
   35.7220   18.0630   31.9810 N   0  0  0  0  0  0  0  0  0  0  0  0
   35.5420   16.8150   32.5520 C   0  0  0  0  0  0  0  0  0  0  0  0
   36.2550   15.8950   31.7810 C   0  0  0  0  0  0  0  0  0  0  0  0
   36.8390   16.5940   30.7780 N   0  0  0  0  0  0  0  0  0  0  0  0
   36.4910   17.8950   30.9340 C   0  0  0  0  0  0  0  0  0  0  0  0
   37.1070   18.4950   29.8220 N   0  0  0  0  0  0  0  0  0  0  0  0
   38.2050   19.2240   29.6800 N   0  0  0  0  0  0  0  0  0  0  0  0
   38.3760   19.5070   28.3530 C   0  0  0  0  0  0  0  0  0  0  0  0
   37.3790   18.9660   27.5700 C   0  0  0  0  0  0  0  0  0  0  0  0
   36.6190   18.3470   28.5430 C   0  0  0  0  0  0  0  0  0  0  0  0
   36.8840   20.7250   32.1720 O   0  0  0  0  0  0  0  0  0  0  0  0
   38.8160   22.0580   34.7390 N   0  0  0  0  0  0  0  0  0  0  0  0
   39.7420   21.9350   33.7840 C   0  0  0  0  0  0  0  0  0  0  0  0
   39.1790   21.4280   32.6880 N   0  0  0  0  0  0  0  0  0  0  0  0
   37.8580   21.2290   32.9750 C   0  0  0  0  0  0  0  0  0  0  0  0
   37.6480   21.6220   34.2380 N   0  0  0  0  0  0  0  0  0  0  0  0
   37.6390   23.0380   36.6040 C   0  0  0  0  0  0  0  0  0  0  0  0
   38.8220   22.5360   36.1030 C   0  0  0  0  0  0  0  0  0  0  0  0
   39.9820   22.4840   36.8870 C   0  0  0  0  0  0  0  0  0  0  0  0
   39.8790   22.9550   38.1700 N   0  0  0  0  0  0  0  0  0  0  0  0
   38.7010   23.4440   38.6380 C   0  0  0  0  0  0  0  0  0  0  0  0
   37.6090   23.4800   37.8600 N   0  0  0  0  0  0  0  0  0  0  0  0
   35.7737   21.2704   33.5512 H   0  0  0  0  0  0  0  0  0  0  0  0
   34.5886   20.2859   30.7722 H   0  0  0  0  0  0  0  0  0  0  0  0
   33.4400   20.6050   31.7770 H   0  0  0  0  0  0  0  0  0  0  0  0
   34.8087   18.3579   33.3452 H   0  0  0  0  0  0  0  0  0  0  0  0
   34.9464   16.5894   33.4488 H   0  0  0  0  0  0  0  0  0  0  0  0
   36.3285   14.8113   31.9545 H   0  0  0  0  0  0  0  0  0  0  0  0
   39.2138   20.0989   27.9558 H   0  0  0  0  0  0  0  0  0  0  0  0
   37.2309   19.0136   26.4811 H   0  0  0  0  0  0  0  0  0  0  0  0
   35.7019   17.7837   28.3155 H   0  0  0  0  0  0  0  0  0  0  0  0
   40.8024   22.2091   33.8864 H   0  0  0  0  0  0  0  0  0  0  0  0
   36.7359   23.0727   35.9770 H   0  0  0  0  0  0  0  0  0  0  0  0
   40.9282   22.0851   36.4925 H   0  0  0  0  0  0  0  0  0  0  0  0
   38.6419   23.8163   39.6714 H   0  0  0  0  0  0  0  0  0  0  0  0
  2  3  1  0
  2  1  1  0
  3  1  1  0
  4  5  1  0
  4  3  1  0
  6  5  2  0
  7  8  2  0
  7  6  1  0
  8  4  1  0
  9  8  1  0
 10  9  1  0
 11 10  2  0
 12 11  1  0
 12 13  2  0
 13  9  1  0
 14  1  1  0
 14 18  1  0
 15 21  1  0
 16 15  1  0
 17 18  1  0
 17 16  2  0
 18 19  2  0
 19 15  1  0
 20 25  2  0
 21 20  1  0
 21 22  2  0
 22 23  1  0
 23 24  2  0
 25 24  1  0
  1 26  1  1
  2 27  1  0
  2 28  1  0
  3 29  1  1
  5 30  1  0
  6 31  1  0
 11 32  1  0
 12 33  1  0
 13 34  1  0
 16 35  1  0
 20 36  1  0
 22 37  1  0
 24 38  1  0
M  ISO  8  26  13  27  13  28  13  29  13  30  14  31  14  32  14  33  14
M  ISO  5  34  14  35  14  36  14  37  14  38  14
M  END
>  <minimizedAffinity>  (1) 
-5.01718092

>  <minimizedRMSD>  (1) 
1.10891867

$$$$
