
     RDKit          3D

 40 44  0  0  1  0  0  0  0  0999 V2000
   36.3000   21.9040   32.2580 C   0  0  1  0  0  0  0  0  0  0  0  0
   35.3870   21.8500   31.0930 C   0  0  0  0  0  0  0  0  0  0  0  0
   35.4020   20.7150   32.0360 C   0  0  1  0  0  0  0  0  0  0  0  0
   35.7620   19.4380   31.6690 N   0  0  0  0  0  0  0  0  0  0  0  0
   35.4190   18.4200   32.5350 C   0  0  0  0  0  0  0  0  0  0  0  0
   35.8830   17.2230   31.9910 C   0  0  0  0  0  0  0  0  0  0  0  0
   36.4940   17.5420   30.8060 N   0  0  0  0  0  0  0  0  0  0  0  0
   36.3940   18.8700   30.6610 C   0  0  0  0  0  0  0  0  0  0  0  0
   37.0460   19.0460   29.3940 C   0  0  0  0  0  0  0  0  0  0  0  0
   36.5270   18.4780   28.2250 C   0  0  0  0  0  0  0  0  0  0  0  0
   37.0780   18.5370   26.9730 C   0  0  0  0  0  0  0  0  0  0  0  0
   38.2560   19.2490   26.9650 C   0  0  0  0  0  0  0  0  0  0  0  0
   38.8410   19.8410   28.0610 C   0  0  0  0  0  0  0  0  0  0  0  0
   38.2310   19.7280   29.2300 N   0  0  0  0  0  0  0  0  0  0  0  0
   37.6580   21.6090   32.0720 O   0  0  0  0  0  0  0  0  0  0  0  0
   39.1350   22.4730   35.0990 N   0  0  0  0  0  0  0  0  0  0  0  0
   40.2140   22.0650   34.4150 C   0  0  0  0  0  0  0  0  0  0  0  0
   39.8420   21.6820   33.1810 N   0  0  0  0  0  0  0  0  0  0  0  0
   38.4850   21.8660   33.1230 C   0  0  0  0  0  0  0  0  0  0  0  0
   38.0660   22.3490   34.3000 N   0  0  0  0  0  0  0  0  0  0  0  0
   37.8010   23.7490   36.6480 C   0  0  0  0  0  0  0  0  0  0  0  0
   38.9310   22.9830   36.4370 C   0  0  0  0  0  0  0  0  0  0  0  0
   39.8290   22.7030   37.4670 C   0  0  0  0  0  0  0  0  0  0  0  0
   39.5380   23.2260   38.7080 N   0  0  0  0  0  0  0  0  0  0  0  0
   38.4270   23.9680   38.8800 C   0  0  0  0  0  0  0  0  0  0  0  0
   37.5790   24.2250   37.8790 N   0  0  0  0  0  0  0  0  0  0  0  0
   36.4781   22.6604   33.0366 H   0  0  0  0  0  0  0  0  0  0  0  0
   35.7993   21.7251   30.0809 H   0  0  0  0  0  0  0  0  0  0  0  0
   34.6031   22.5125   30.6973 H   0  0  0  0  0  0  0  0  0  0  0  0
   34.6851   20.1814   32.6774 H   0  0  0  0  0  0  0  0  0  0  0  0
   34.8763   18.5327   33.4851 H   0  0  0  0  0  0  0  0  0  0  0  0
   35.7791   16.2187   32.4275 H   0  0  0  0  0  0  0  0  0  0  0  0
   35.5794   17.9278   28.3220 H   0  0  0  0  0  0  0  0  0  0  0  0
   36.6330   18.0716   26.0812 H   0  0  0  0  0  0  0  0  0  0  0  0
   38.7740   19.3537   26.0003 H   0  0  0  0  0  0  0  0  0  0  0  0
   39.7884   20.3923   27.9681 H   0  0  0  0  0  0  0  0  0  0  0  0
   41.2431   22.0466   34.8031 H   0  0  0  0  0  0  0  0  0  0  0  0
   37.1020   23.9622   35.8258 H   0  0  0  0  0  0  0  0  0  0  0  0
   40.7281   22.0927   37.2963 H   0  0  0  0  0  0  0  0  0  0  0  0
   38.2101   24.3764   39.8781 H   0  0  0  0  0  0  0  0  0  0  0  0
  2  3  1  0
  2  1  1  0
  3  1  1  0
  4  3  1  0
  4  5  1  0
  6  5  2  0
  7  6  1  0
  8  7  2  0
  8  4  1  0
  9  8  1  0
 10  9  2  0
 11 10  1  0
 12 11  2  0
 12 13  1  0
 13 14  2  0
 14  9  1  0
 15  1  1  0
 15 19  1  0
 16 22  1  0
 17 16  1  0
 18 17  2  0
 19 18  1  0
 19 20  2  0
 20 16  1  0
 21 26  2  0
 22 21  1  0
 22 23  2  0
 23 24  1  0
 24 25  2  0
 26 25  1  0
  1 27  1  1
  2 28  1  0
  2 29  1  0
  3 30  1  1
  5 31  1  0
  6 32  1  0
 10 33  1  0
 11 34  1  0
 12 35  1  0
 13 36  1  0
 17 37  1  0
 21 38  1  0
 23 39  1  0
 25 40  1  0
M  ISO  8  27  13  28  13  29  13  30  13  31  14  32  14  33  14  34  14
M  ISO  6  35  14  36  14  37  14  38  14  39  14  40  14
M  END
>  <minimizedAffinity>  (1) 
-4.94955111

>  <minimizedRMSD>  (1) 
2.00640321

$$$$
