
     RDKit          3D

 38 42  0  0  1  0  0  0  0  0999 V2000
   36.3310   21.8450   32.2260 C   0  0  1  0  0  0  0  0  0  0  0  0
   35.4370   21.7720   31.0440 C   0  0  0  0  0  0  0  0  0  0  0  0
   35.3950   20.6790   32.0340 C   0  0  1  0  0  0  0  0  0  0  0  0
   35.7280   19.3790   31.7240 N   0  0  0  0  0  0  0  0  0  0  0  0
   35.3700   18.4100   32.6480 C   0  0  0  0  0  0  0  0  0  0  0  0
   35.7950   17.1780   32.1650 C   0  0  0  0  0  0  0  0  0  0  0  0
   36.3930   17.4220   30.9710 N   0  0  0  0  0  0  0  0  0  0  0  0
   36.3320   18.7540   30.7390 C   0  0  0  0  0  0  0  0  0  0  0  0
   36.9410   18.8710   29.4380 C   0  0  0  0  0  0  0  0  0  0  0  0
   36.5760   18.3100   28.2030 C   0  0  0  0  0  0  0  0  0  0  0  0
   37.5210   18.7620   27.2670 C   0  0  0  0  0  0  0  0  0  0  0  0
   38.3900   19.5550   27.9730 C   0  0  0  0  0  0  0  0  0  0  0  0
   38.0180   19.5900   29.2200 O   0  0  0  0  0  0  0  0  0  0  0  0
   37.6830   21.5050   32.0770 O   0  0  0  0  0  0  0  0  0  0  0  0
   39.1580   22.4430   35.0850 N   0  0  0  0  0  0  0  0  0  0  0  0
   40.2390   22.0510   34.4000 C   0  0  0  0  0  0  0  0  0  0  0  0
   39.8680   21.6460   33.1840 N   0  0  0  0  0  0  0  0  0  0  0  0
   38.5100   21.7930   33.1180 C   0  0  0  0  0  0  0  0  0  0  0  0
   38.0810   22.2830   34.2840 N   0  0  0  0  0  0  0  0  0  0  0  0
   37.8000   23.7300   36.6110 C   0  0  0  0  0  0  0  0  0  0  0  0
   38.9250   22.9630   36.4090 C   0  0  0  0  0  0  0  0  0  0  0  0
   39.8190   22.6900   37.4570 C   0  0  0  0  0  0  0  0  0  0  0  0
   39.5180   23.2220   38.6870 N   0  0  0  0  0  0  0  0  0  0  0  0
   38.3950   23.9760   38.8520 C   0  0  0  0  0  0  0  0  0  0  0  0
   37.5650   24.2170   37.8300 N   0  0  0  0  0  0  0  0  0  0  0  0
   36.5204   22.6239   32.9793 H   0  0  0  0  0  0  0  0  0  0  0  0
   35.8636   21.5898   30.0466 H   0  0  0  0  0  0  0  0  0  0  0  0
   34.6841   22.4431   30.6049 H   0  0  0  0  0  0  0  0  0  0  0  0
   34.6455   20.1992   32.6806 H   0  0  0  0  0  0  0  0  0  0  0  0
   34.8422   18.5852   33.5970 H   0  0  0  0  0  0  0  0  0  0  0  0
   35.6714   16.2000   32.6531 H   0  0  0  0  0  0  0  0  0  0  0  0
   35.7197   17.6478   28.0075 H   0  0  0  0  0  0  0  0  0  0  0  0
   37.5568   18.5289   26.1926 H   0  0  0  0  0  0  0  0  0  0  0  0
   39.2618   20.0777   27.5525 H   0  0  0  0  0  0  0  0  0  0  0  0
   41.2713   22.0611   34.7799 H   0  0  0  0  0  0  0  0  0  0  0  0
   37.1074   23.9375   35.7820 H   0  0  0  0  0  0  0  0  0  0  0  0
   40.7194   22.0779   37.3000 H   0  0  0  0  0  0  0  0  0  0  0  0
   38.1664   24.3943   39.8434 H   0  0  0  0  0  0  0  0  0  0  0  0
  2  3  1  0
  2  1  1  0
  3  1  1  0
  4  3  1  0
  4  5  1  0
  6  5  2  0
  7  6  1  0
  8  7  2  0
  8  4  1  0
  9  8  1  0
 10  9  2  0
 11 12  2  0
 11 10  1  0
 12 13  1  0
 13  9  1  0
 14  1  1  0
 14 18  1  0
 15 21  1  0
 16 15  1  0
 17 16  2  0
 18 17  1  0
 18 19  2  0
 19 15  1  0
 20 25  2  0
 21 20  1  0
 21 22  2  0
 22 23  1  0
 23 24  2  0
 25 24  1  0
  1 26  1  1
  2 27  1  0
  2 28  1  0
  3 29  1  1
  5 30  1  0
  6 31  1  0
 10 32  1  0
 11 33  1  0
 12 34  1  0
 16 35  1  0
 20 36  1  0
 22 37  1  0
 24 38  1  0
M  ISO  8  26  13  27  13  28  13  29  13  30  14  31  14  32  14  33  14
M  ISO  5  34  14  35  14  36  14  37  14  38  14
M  END
>  <minimizedAffinity>  (1) 
-4.84367752

>  <minimizedRMSD>  (1) 
1.72630429

$$$$
