
     RDKit          3D

 37 41  0  0  1  0  0  0  0  0999 V2000
   36.2960   21.8760   32.1840 C   0  0  1  0  0  0  0  0  0  0  0  0
   35.3850   21.7880   31.0160 C   0  0  0  0  0  0  0  0  0  0  0  0
   35.3880   20.6890   31.9990 C   0  0  1  0  0  0  0  0  0  0  0  0
   35.7580   19.3990   31.6700 N   0  0  0  0  0  0  0  0  0  0  0  0
   35.4140   18.4110   32.5840 C   0  0  0  0  0  0  0  0  0  0  0  0
   35.8620   17.1950   32.0990 C   0  0  0  0  0  0  0  0  0  0  0  0
   36.4590   17.4630   30.9130 N   0  0  0  0  0  0  0  0  0  0  0  0
   36.3760   18.7870   30.6890 C   0  0  0  0  0  0  0  0  0  0  0  0
   36.9830   18.9500   29.3970 C   0  0  0  0  0  0  0  0  0  0  0  0
   38.3360   19.5590   29.1920 C   0  0  0  0  0  0  0  0  0  0  0  0
   38.5250   19.3990   27.3540 S   0  0  0  0  0  0  0  0  0  0  0  0
   36.8270   18.5770   27.1890 C   0  0  0  0  0  0  0  0  0  0  0  0
   36.4280   18.5370   28.2810 N   0  0  0  0  0  0  0  0  0  0  0  0
   37.6550   21.5810   31.9900 O   0  0  0  0  0  0  0  0  0  0  0  0
   39.1640   22.4270   35.0120 N   0  0  0  0  0  0  0  0  0  0  0  0
   40.2410   22.0560   34.2950 C   0  0  0  0  0  0  0  0  0  0  0  0
   39.8560   21.6890   33.0690 N   0  0  0  0  0  0  0  0  0  0  0  0
   38.4950   21.8360   33.0260 C   0  0  0  0  0  0  0  0  0  0  0  0
   38.0820   22.2870   34.2130 N   0  0  0  0  0  0  0  0  0  0  0  0
   37.7880   23.6000   36.5990 C   0  0  0  0  0  0  0  0  0  0  0  0
   38.9490   22.9030   36.3490 C   0  0  0  0  0  0  0  0  0  0  0  0
   39.8900   22.6640   37.3570 C   0  0  0  0  0  0  0  0  0  0  0  0
   39.6040   23.1570   38.6110 N   0  0  0  0  0  0  0  0  0  0  0  0
   38.4450   23.8420   38.8230 C   0  0  0  0  0  0  0  0  0  0  0  0
   37.5700   24.0520   37.8360 N   0  0  0  0  0  0  0  0  0  0  0  0
   36.4775   22.6466   32.9477 H   0  0  0  0  0  0  0  0  0  0  0  0
   35.7996   21.6232   30.0105 H   0  0  0  0  0  0  0  0  0  0  0  0
   34.6080   22.4421   30.5936 H   0  0  0  0  0  0  0  0  0  0  0  0
   34.6607   20.1866   32.6537 H   0  0  0  0  0  0  0  0  0  0  0  0
   34.8773   18.5684   33.5312 H   0  0  0  0  0  0  0  0  0  0  0  0
   35.7551   16.2110   32.5789 H   0  0  0  0  0  0  0  0  0  0  0  0
   39.0297   19.9856   29.9314 H   0  0  0  0  0  0  0  0  0  0  0  0
   36.3328   18.2202   26.2733 H   0  0  0  0  0  0  0  0  0  0  0  0
   41.2781   22.0550   34.6616 H   0  0  0  0  0  0  0  0  0  0  0  0
   37.0566   23.7803   35.7974 H   0  0  0  0  0  0  0  0  0  0  0  0
   40.8172   22.1070   37.1567 H   0  0  0  0  0  0  0  0  0  0  0  0
   38.2255   24.2302   39.8285 H   0  0  0  0  0  0  0  0  0  0  0  0
  2  3  1  0
  2  1  1  0
  3  1  1  0
  4  3  1  0
  4  5  1  0
  6  5  2  0
  7  6  1  0
  8  7  2  0
  8  4  1  0
  9  8  1  0
 10  9  2  0
 11 10  1  0
 12 11  1  0
 12 13  2  0
 13  9  1  0
 14  1  1  0
 14 18  1  0
 15 21  1  0
 16 15  1  0
 17 16  2  0
 18 17  1  0
 18 19  2  0
 19 15  1  0
 20 25  2  0
 21 20  1  0
 21 22  2  0
 22 23  1  0
 23 24  2  0
 25 24  1  0
  1 26  1  1
  2 27  1  0
  2 28  1  0
  3 29  1  1
  5 30  1  0
  6 31  1  0
 10 32  1  0
 12 33  1  0
 16 34  1  0
 20 35  1  0
 22 36  1  0
 24 37  1  0
M  ISO  8  26  13  27  13  28  13  29  13  30  14  31  14  32  14  33  14
M  ISO  4  34  14  35  14  36  14  37  14
M  END
>  <minimizedAffinity>  (1) 
-4.78786612

>  <minimizedRMSD>  (1) 
1.77141464

$$$$
