
     RDKit          3D

 37 40  0  0  1  0  0  0  0  0999 V2000
   35.4830   20.2070   33.0400 C   0  0  1  0  0  0  0  0  0  0  0  0
   34.4280   19.9740   32.0210 C   0  0  0  0  0  0  0  0  0  0  0  0
   35.1970   18.8340   32.5110 C   0  0  1  0  0  0  0  0  0  0  0  0
   35.9800   18.0410   31.7060 N   0  0  0  0  0  0  0  0  0  0  0  0
   36.2830   16.7650   32.2090 C   0  0  0  0  0  0  0  0  0  0  0  0
   37.1280   16.1470   31.3200 C   0  0  0  0  0  0  0  0  0  0  0  0
   37.3110   17.0560   30.3040 N   0  0  0  0  0  0  0  0  0  0  0  0
   36.6180   18.1600   30.5530 C   0  0  0  0  0  0  0  0  0  0  0  0
   36.7540   18.9290   29.3350 C   0  0  0  0  0  0  0  0  0  0  0  0
   38.0400   19.8680   29.4440 C   0  0  0  0  0  0  0  0  0  0  0  0
   36.7140   20.6890   32.6470 O   0  0  0  0  0  0  0  0  0  0  0  0
   38.0090   22.9760   34.8990 N   0  0  0  0  0  0  0  0  0  0  0  0
   38.0600   23.7100   33.7810 C   0  0  0  0  0  0  0  0  0  0  0  0
   37.5910   23.0010   32.7530 N   0  0  0  0  0  0  0  0  0  0  0  0
   37.2340   21.7630   33.2730 C   0  0  0  0  0  0  0  0  0  0  0  0
   37.4950   21.7660   34.5800 N   0  0  0  0  0  0  0  0  0  0  0  0
   37.5270   23.9730   37.0410 C   0  0  0  0  0  0  0  0  0  0  0  0
   38.3730   23.2000   36.2750 C   0  0  0  0  0  0  0  0  0  0  0  0
   39.5440   22.6390   36.8140 C   0  0  0  0  0  0  0  0  0  0  0  0
   39.8020   22.8990   38.1320 N   0  0  0  0  0  0  0  0  0  0  0  0
   38.9520   23.6640   38.8680 C   0  0  0  0  0  0  0  0  0  0  0  0
   37.8410   24.1860   38.3230 N   0  0  0  0  0  0  0  0  0  0  0  0
   35.4893   20.7344   34.0053 H   0  0  0  0  0  0  0  0  0  0  0  0
   34.5749   20.3303   30.9907 H   0  0  0  0  0  0  0  0  0  0  0  0
   33.3554   20.2089   31.9544 H   0  0  0  0  0  0  0  0  0  0  0  0
   34.9959   17.8696   33.0003 H   0  0  0  0  0  0  0  0  0  0  0  0
   35.9090   16.3358   33.1502 H   0  0  0  0  0  0  0  0  0  0  0  0
   37.5648   15.1408   31.4027 H   0  0  0  0  0  0  0  0  0  0  0  0
   35.8573   19.5495   29.1903 H   0  0  0  0  0  0  0  0  0  0  0  0
   36.8676   18.2468   28.4796 H   0  0  0  0  0  0  0  0  0  0  0  0
   38.2782   20.0420   30.5037 H   0  0  0  0  0  0  0  0  0  0  0  0
   38.8937   19.3792   28.9517 H   0  0  0  0  0  0  0  0  0  0  0  0
   37.8344   20.8300   28.9517 H   0  0  0  0  0  0  0  0  0  0  0  0
   38.4328   24.7431   33.7191 H   0  0  0  0  0  0  0  0  0  0  0  0
   36.6134   24.4052   36.6069 H   0  0  0  0  0  0  0  0  0  0  0  0
   40.2202   22.0208   36.2052 H   0  0  0  0  0  0  0  0  0  0  0  0
   39.1781   23.8584   39.9268 H   0  0  0  0  0  0  0  0  0  0  0  0
  2  3  1  0
  2  1  1  0
  3  1  1  0
  4  5  1  0
  4  3  1  0
  6  5  2  0
  7  8  2  0
  7  6  1  0
  8  4  1  0
  9 10  1  0
  9  8  1  0
 11  1  1  0
 11 15  1  0
 12 18  1  0
 13 12  1  0
 14 15  1  0
 14 13  2  0
 15 16  2  0
 16 12  1  0
 17 22  2  0
 18 19  2  0
 18 17  1  0
 19 20  1  0
 20 21  2  0
 22 21  1  0
  1 23  1  1
  2 24  1  0
  2 25  1  0
  3 26  1  1
  5 27  1  0
  6 28  1  0
  9 29  1  0
  9 30  1  0
 10 31  1  0
 10 32  1  0
 10 33  1  0
 13 34  1  0
 17 35  1  0
 19 36  1  0
 21 37  1  0
M  ISO  8  23  13  24  13  25  13  26  13  27  14  28  14  29   8  30   8
M  ISO  7  31   8  32   8  33   8  34  14  35  14  36  14  37  14
M  END
>  <minimizedAffinity>  (1) 
-4.78664732

>  <minimizedRMSD>  (1) 
1.14492846

$$$$
