
     RDKit          3D

 34 37  0  0  0  0  0  0  0  0999 V2000
   37.2260   21.8730   34.9250 C   0  0  0  0  0  0  0  0  0  0  0  0
   36.2260   20.9440   35.1310 C   0  0  0  0  0  0  0  0  0  0  0  0
   35.5210   20.4290   34.0650 C   0  0  0  0  0  0  0  0  0  0  0  0
   35.8290   20.8550   32.7760 C   0  0  0  0  0  0  0  0  0  0  0  0
   36.8360   21.7890   32.5990 C   0  0  0  0  0  0  0  0  0  0  0  0
   37.5570   22.3200   33.6570 C   0  0  0  0  0  0  0  0  0  0  0  0
   38.5840   23.2750   33.4530 N   0  0  0  0  0  0  0  0  0  0  0  0
   39.9060   23.2520   33.6620 C   0  0  0  0  0  0  0  0  0  0  0  0
   40.4040   24.4500   33.2860 N   0  0  0  0  0  0  0  0  0  0  0  0
   39.3950   25.2200   32.8430 C   0  0  0  0  0  0  0  0  0  0  0  0
   39.4510   26.5130   32.3640 C   0  0  0  0  0  0  0  0  0  0  0  0
   40.4730   27.2100   32.2580 O   0  0  0  0  0  0  0  0  0  0  0  0
   38.2700   27.0430   31.9860 N   0  0  0  0  0  0  0  0  0  0  0  0
   37.1200   26.3500   32.0720 C   0  0  0  0  0  0  0  0  0  0  0  0
   35.8990   26.9780   31.6490 N   0  0  0  0  0  0  0  0  0  0  0  0
   37.0780   25.0900   32.5400 N   0  0  0  0  0  0  0  0  0  0  0  0
   38.2250   24.4890   32.9410 C   0  0  0  0  0  0  0  0  0  0  0  0
   39.9400   22.6300   37.2570 C   0  0  0  0  0  0  0  0  0  0  0  0
   39.3070   23.2930   38.3050 C   0  0  0  0  0  0  0  0  0  0  0  0
   37.9380   23.4790   38.2050 C   0  0  0  0  0  0  0  0  0  0  0  0
   37.2640   23.0210   37.1140 N   0  0  0  0  0  0  0  0  0  0  0  0
   37.9290   22.3750   36.1080 C   0  0  0  0  0  0  0  0  0  0  0  0
   39.2520   22.1920   36.2000 N   0  0  0  0  0  0  0  0  0  0  0  0
   35.9903   20.6126   36.1531 H   0  0  0  0  0  0  0  0  0  0  0  0
   34.7237   19.6895   34.2307 H   0  0  0  0  0  0  0  0  0  0  0  0
   35.2803   20.4554   31.9104 H   0  0  0  0  0  0  0  0  0  0  0  0
   37.0731   22.1228   31.5780 H   0  0  0  0  0  0  0  0  0  0  0  0
   40.4836   22.4082   34.0675 H   0  0  0  0  0  0  0  0  0  0  0  0
   38.2477   28.0059   31.6210 H   0  0  0  0  0  0  0  0  0  0  0  0
   35.0084   26.4638   31.7071 H   0  0  0  0  0  0  0  0  0  0  0  0
   35.9142   27.9424   31.2876 H   0  0  0  0  0  0  0  0  0  0  0  0
   41.0265   22.4641   37.3007 H   0  0  0  0  0  0  0  0  0  0  0  0
   39.8713   23.6545   39.1773 H   0  0  0  0  0  0  0  0  0  0  0  0
   37.3943   23.9976   39.0084 H   0  0  0  0  0  0  0  0  0  0  0  0
  1  2  2  0
  1 22  1  0
  3  2  1  0
  4  3  2  0
  5  4  1  0
  5  6  2  0
  6  1  1  0
  7  6  1  0
  7  8  1  0
  9  8  2  0
 10 17  2  0
 10  9  1  0
 11 10  1  0
 12 11  2  0
 13 14  1  0
 13 11  1  0
 14 16  2  0
 15 14  1  0
 16 17  1  0
 17  7  1  0
 18 19  2  0
 20 19  1  0
 21 20  2  0
 22 23  2  0
 22 21  1  0
 23 18  1  0
  2 24  1  0
  3 25  1  0
  4 26  1  0
  5 27  1  0
  8 28  1  0
 13 29  1  0
 15 30  1  0
 15 31  1  0
 18 32  1  0
 19 33  1  0
 20 34  1  0
M  ISO  8  24  14  25  14  26  14  27  14  28  14  29   9  32  14  33  14
M  ISO  1  34  14
M  END
>  <minimizedAffinity>  (1) 
-5.63660002

>  <minimizedRMSD>  (1) 
0.165920764

$$$$
