
     RDKit          3D

 34 37  0  0  0  0  0  0  0  0999 V2000
   37.3460   21.9810   35.0530 C   0  0  0  0  0  0  0  0  0  0  0  0
   36.2820   21.1180   35.2810 C   0  0  0  0  0  0  0  0  0  0  0  0
   35.6200   20.5550   34.2040 C   0  0  0  0  0  0  0  0  0  0  0  0
   36.0340   20.8670   32.9110 C   0  0  0  0  0  0  0  0  0  0  0  0
   37.0860   21.7190   32.7250 C   0  0  0  0  0  0  0  0  0  0  0  0
   37.7730   22.3020   33.7770 C   0  0  0  0  0  0  0  0  0  0  0  0
   38.8930   23.2100   33.5460 C   0  0  0  0  0  0  0  0  0  0  0  0
   40.1830   22.8930   33.4810 N   0  0  0  0  0  0  0  0  0  0  0  0
   41.1800   23.7390   33.2670 C   0  0  0  0  0  0  0  0  0  0  0  0
   40.9260   25.0500   33.0930 N   0  0  0  0  0  0  0  0  0  0  0  0
   39.6500   25.4990   33.1370 C   0  0  0  0  0  0  0  0  0  0  0  0
   39.3770   26.8320   32.9600 C   0  0  0  0  0  0  0  0  0  0  0  0
   38.0740   27.3080   33.0020 C   0  0  0  0  0  0  0  0  0  0  0  0
   37.0480   26.4090   33.2270 C   0  0  0  0  0  0  0  0  0  0  0  0
   37.3670   25.0800   33.3990 C   0  0  0  0  0  0  0  0  0  0  0  0
   38.6510   24.5640   33.3640 C   0  0  0  0  0  0  0  0  0  0  0  0
   39.8730   22.6000   37.6190 C   0  0  0  0  0  0  0  0  0  0  0  0
   39.2810   23.5530   38.4490 C   0  0  0  0  0  0  0  0  0  0  0  0
   38.0010   23.9900   38.1220 C   0  0  0  0  0  0  0  0  0  0  0  0
   37.4040   23.4730   37.0310 N   0  0  0  0  0  0  0  0  0  0  0  0
   38.0080   22.5400   36.2360 C   0  0  0  0  0  0  0  0  0  0  0  0
   39.2400   22.1150   36.5420 N   0  0  0  0  0  0  0  0  0  0  0  0
   35.9681   20.8840   36.3090 H   0  0  0  0  0  0  0  0  0  0  0  0
   34.7761   19.8686   34.3672 H   0  0  0  0  0  0  0  0  0  0  0  0
   35.5167   20.4298   32.0442 H   0  0  0  0  0  0  0  0  0  0  0  0
   37.4004   21.9516   31.6969 H   0  0  0  0  0  0  0  0  0  0  0  0
   42.2158   23.3703   33.2314 H   0  0  0  0  0  0  0  0  0  0  0  0
   40.2043   27.5348   32.7819 H   0  0  0  0  0  0  0  0  0  0  0  0
   37.8620   28.3779   32.8593 H   0  0  0  0  0  0  0  0  0  0  0  0
   36.0020   26.7469   33.2677 H   0  0  0  0  0  0  0  0  0  0  0  0
   36.5402   24.3767   33.5774 H   0  0  0  0  0  0  0  0  0  0  0  0
   40.8846   22.2379   37.8547 H   0  0  0  0  0  0  0  0  0  0  0  0
   39.8080   23.9452   39.3313 H   0  0  0  0  0  0  0  0  0  0  0  0
   37.4881   24.7410   38.7408 H   0  0  0  0  0  0  0  0  0  0  0  0
  1  2  2  0
  1 21  1  0
  3  2  1  0
  4  3  2  0
  5  4  1  0
  5  6  2  0
  6  1  1  0
  7  6  1  0
  8  7  2  0
  9  8  1  0
 10 11  1  0
 10  9  2  0
 11 16  2  0
 12 13  2  0
 12 11  1  0
 13 14  1  0
 14 15  2  0
 16 15  1  0
 16  7  1  0
 17 18  2  0
 19 18  1  0
 20 19  2  0
 21 22  2  0
 21 20  1  0
 22 17  1  0
  2 23  1  0
  3 24  1  0
  4 25  1  0
  5 26  1  0
  9 27  1  0
 12 28  1  0
 13 29  1  0
 14 30  1  0
 15 31  1  0
 17 32  1  0
 18 33  1  0
 19 34  1  0
M  ISO  8  23  14  24  14  25  14  26  14  27  14  28  14  29  14  30  14
M  ISO  4  31  14  32  14  33  14  34  14
M  END
>  <minimizedAffinity>  (1) 
-5.32840872

>  <minimizedRMSD>  (1) 
0.361193091

$$$$
