
     RDKit          3D

 31 34  0  0  0  0  0  0  0  0999 V2000
   37.2380   21.9960   34.9280 C   0  0  0  0  0  0  0  0  0  0  0  0
   36.2990   20.9830   35.0840 C   0  0  0  0  0  0  0  0  0  0  0  0
   35.5940   20.5090   33.9970 C   0  0  0  0  0  0  0  0  0  0  0  0
   35.8390   21.0610   32.7430 C   0  0  0  0  0  0  0  0  0  0  0  0
   36.7820   22.0700   32.6170 C   0  0  0  0  0  0  0  0  0  0  0  0
   37.4990   22.5610   33.6920 C   0  0  0  0  0  0  0  0  0  0  0  0
   38.4660   23.5960   33.5610 N   0  0  0  0  0  0  0  0  0  0  0  0
   39.6390   23.2980   32.9360 C   0  0  0  0  0  0  0  0  0  0  0  0
   40.4280   24.4070   32.9080 N   0  0  0  0  0  0  0  0  0  0  0  0
   39.7660   25.4050   33.5100 C   0  0  0  0  0  0  0  0  0  0  0  0
   39.9690   26.7500   33.8210 C   0  0  0  0  0  0  0  0  0  0  0  0
   39.0060   27.4340   34.4660 N   0  0  0  0  0  0  0  0  0  0  0  0
   37.8280   26.8920   34.8420 C   0  0  0  0  0  0  0  0  0  0  0  0
   37.5900   25.5800   34.5560 N   0  0  0  0  0  0  0  0  0  0  0  0
   38.5480   24.8940   33.9130 C   0  0  0  0  0  0  0  0  0  0  0  0
   39.9290   22.4780   37.3540 C   0  0  0  0  0  0  0  0  0  0  0  0
   39.3140   23.2180   38.3800 C   0  0  0  0  0  0  0  0  0  0  0  0
   37.9790   23.5470   38.2350 C   0  0  0  0  0  0  0  0  0  0  0  0
   37.3360   23.1420   37.1140 N   0  0  0  0  0  0  0  0  0  0  0  0
   37.9370   22.4330   36.1370 C   0  0  0  0  0  0  0  0  0  0  0  0
   39.2400   22.1000   36.2590 N   0  0  0  0  0  0  0  0  0  0  0  0
   36.1167   20.5562   36.0813 H   0  0  0  0  0  0  0  0  0  0  0  0
   34.8503   19.7078   34.1194 H   0  0  0  0  0  0  0  0  0  0  0  0
   35.2900   20.7005   31.8606 H   0  0  0  0  0  0  0  0  0  0  0  0
   36.9671   22.4973   31.6204 H   0  0  0  0  0  0  0  0  0  0  0  0
   39.9066   22.3157   32.5194 H   0  0  0  0  0  0  0  0  0  0  0  0
   40.9092   27.2476   33.5410 H   0  0  0  0  0  0  0  0  0  0  0  0
   37.0751   27.4967   35.3686 H   0  0  0  0  0  0  0  0  0  0  0  0
   40.9901   22.2032   37.4469 H   0  0  0  0  0  0  0  0  0  0  0  0
   39.8790   23.5261   39.2721 H   0  0  0  0  0  0  0  0  0  0  0  0
   37.4526   24.1230   39.0103 H   0  0  0  0  0  0  0  0  0  0  0  0
  1  2  2  0
  1 20  1  0
  3  2  1  0
  4  3  2  0
  5  4  1  0
  5  6  2  0
  6  1  1  0
  7  6  1  0
  7 15  1  0
  8  7  1  0
  9  8  2  0
  9 10  1  0
 10 11  2  0
 10 15  1  0
 11 12  1  0
 12 13  2  0
 14 13  1  0
 15 14  2  0
 16 17  2  0
 18 17  1  0
 19 18  2  0
 20 21  2  0
 20 19  1  0
 21 16  1  0
  2 22  1  0
  3 23  1  0
  4 24  1  0
  5 25  1  0
  8 26  1  0
 11 27  1  0
 13 28  1  0
 16 29  1  0
 17 30  1  0
 18 31  1  0
M  ISO  8  22  14  23  14  24  14  25  14  26  14  27  14  28  14  29  14
M  ISO  2  30  14  31  14
M  END
>  <minimizedAffinity>  (1) 
-5.110497

>  <minimizedRMSD>  (1) 
0.680100918

$$$$
