
     RDKit          3D

 33 35  0  0  0  0  0  0  0  0999 V2000
   37.2430   22.0180   34.8710 C   0  0  0  0  0  0  0  0  0  0  0  0
   36.3390   20.9890   35.0060 C   0  0  0  0  0  0  0  0  0  0  0  0
   35.6330   20.5360   33.9100 C   0  0  0  0  0  0  0  0  0  0  0  0
   35.8490   21.1320   32.6740 C   0  0  0  0  0  0  0  0  0  0  0  0
   36.7560   22.1570   32.5710 C   0  0  0  0  0  0  0  0  0  0  0  0
   37.4880   22.6430   33.6490 C   0  0  0  0  0  0  0  0  0  0  0  0
   39.9030   22.4690   37.3410 C   0  0  0  0  0  0  0  0  0  0  0  0
   39.3000   23.2440   38.3480 C   0  0  0  0  0  0  0  0  0  0  0  0
   37.9770   23.6060   38.1630 C   0  0  0  0  0  0  0  0  0  0  0  0
   37.3360   23.2050   37.0440 N   0  0  0  0  0  0  0  0  0  0  0  0
   37.9500   22.4500   36.0830 C   0  0  0  0  0  0  0  0  0  0  0  0
   39.2250   22.1000   36.2580 N   0  0  0  0  0  0  0  0  0  0  0  0
   40.1890   25.9280   33.2330 C   0  0  0  0  0  0  0  0  0  0  0  0
   38.8880   26.0740   33.6490 C   0  0  0  0  0  0  0  0  0  0  0  0
   38.0060   25.0170   33.7900 C   0  0  0  0  0  0  0  0  0  0  0  0
   38.4530   23.7260   33.4950 C   0  0  0  0  0  0  0  0  0  0  0  0
   39.7590   23.5440   33.0740 C   0  0  0  0  0  0  0  0  0  0  0  0
   40.6020   24.6310   32.9490 C   0  0  0  0  0  0  0  0  0  0  0  0
   41.2360   27.3250   33.0850 S   0  0  0  0  0  0  0  0  0  0  0  0
   42.4710   27.1360   33.9280 O   0  0  0  0  0  0  0  0  0  0  0  0
   41.6930   27.4000   31.6360 O   0  0  0  0  0  0  0  0  0  0  0  0
   36.1786   20.5260   35.9909 H   0  0  0  0  0  0  0  0  0  0  0  0
   34.9092   19.7142   34.0138 H   0  0  0  0  0  0  0  0  0  0  0  0
   35.2987   20.7860   31.7867 H   0  0  0  0  0  0  0  0  0  0  0  0
   36.9120   22.6180   31.5845 H   0  0  0  0  0  0  0  0  0  0  0  0
   40.9537   22.1627   37.4511 H   0  0  0  0  0  0  0  0  0  0  0  0
   39.8571   23.5499   39.2458 H   0  0  0  0  0  0  0  0  0  0  0  0
   37.4545   24.2124   38.9175 H   0  0  0  0  0  0  0  0  0  0  0  0
   38.5275   27.0866   33.8829 H   0  0  0  0  0  0  0  0  0  0  0  0
   36.9734   25.1895   34.1276 H   0  0  0  0  0  0  0  0  0  0  0  0
   40.1255   22.5338   32.8390 H   0  0  0  0  0  0  0  0  0  0  0  0
   41.6362   24.4648   32.6131 H   0  0  0  0  0  0  0  0  0  0  0  0
   40.5632   28.4502   33.4827 H   0  0  0  0  0  0  0  0  0  0  0  0
  1  2  2  0
  1 11  1  0
  3  2  1  0
  4  3  2  0
  5  4  1  0
  5  6  2  0
  6  1  1  0
  7  8  2  0
  9  8  1  0
 10  9  2  0
 11 12  2  0
 11 10  1  0
 12  7  1  0
 13 14  2  0
 14 15  1  0
 16  6  1  0
 16 15  2  0
 17 16  1  0
 18 17  2  0
 18 13  1  0
 19 13  1  0
 19 20  2  0
 21 19  2  0
  2 22  1  0
  3 23  1  0
  4 24  1  0
  5 25  1  0
  7 26  1  0
  8 27  1  0
  9 28  1  0
 14 29  1  0
 15 30  1  0
 17 31  1  0
 18 32  1  0
 19 33  1  0
M  ISO  8  22  14  23  14  24  14  25  14  26  14  27  14  28  14  29  14
M  ISO  4  30  14  31  14  32  14  33  11
M  END
>  <minimizedAffinity>  (1) 
-4.79793644

>  <minimizedRMSD>  (1) 
1.13642144

$$$$
