
     RDKit          3D

 29 31  0  0  0  0  0  0  0  0999 V2000
   37.7380   22.5970   34.7850 C   0  0  0  0  0  0  0  0  0  0  0  0
   36.9760   21.4660   34.5860 C   0  0  0  0  0  0  0  0  0  0  0  0
   36.5030   21.1820   33.3200 C   0  0  0  0  0  0  0  0  0  0  0  0
   36.7930   22.0220   32.2710 C   0  0  0  0  0  0  0  0  0  0  0  0
   37.5540   23.1430   32.4960 C   0  0  0  0  0  0  0  0  0  0  0  0
   38.0530   23.4710   33.7550 C   0  0  0  0  0  0  0  0  0  0  0  0
   39.9430   22.6680   37.7140 C   0  0  0  0  0  0  0  0  0  0  0  0
   39.1690   23.2980   38.6940 C   0  0  0  0  0  0  0  0  0  0  0  0
   37.8830   23.6990   38.3400 C   0  0  0  0  0  0  0  0  0  0  0  0
   37.4290   23.4720   37.0850 N   0  0  0  0  0  0  0  0  0  0  0  0
   38.2160   22.8520   36.1540 C   0  0  0  0  0  0  0  0  0  0  0  0
   39.4490   22.4690   36.4960 N   0  0  0  0  0  0  0  0  0  0  0  0
   38.8480   24.6500   33.9690 C   0  0  0  0  0  0  0  0  0  0  0  0
   38.0740   25.7640   34.2850 C   0  0  0  0  0  0  0  0  0  0  0  0
   38.6910   26.9950   34.5230 C   0  0  0  0  0  0  0  0  0  0  0  0
   40.0700   27.0200   34.4250 C   0  0  0  0  0  0  0  0  0  0  0  0
   40.8390   25.9220   34.1130 C   0  0  0  0  0  0  0  0  0  0  0  0
   40.1710   24.7900   33.9020 N   0  0  0  0  0  0  0  0  0  0  0  0
   36.7467   20.7958   35.4276 H   0  0  0  0  0  0  0  0  0  0  0  0
   35.8932   20.2823   33.1506 H   0  0  0  0  0  0  0  0  0  0  0  0
   36.4191   21.7984   31.2610 H   0  0  0  0  0  0  0  0  0  0  0  0
   37.7784   23.8080   31.6490 H   0  0  0  0  0  0  0  0  0  0  0  0
   40.9643   22.3360   37.9520 H   0  0  0  0  0  0  0  0  0  0  0  0
   39.5615   23.4704   39.7070 H   0  0  0  0  0  0  0  0  0  0  0  0
   37.2382   24.1986   39.0780 H   0  0  0  0  0  0  0  0  0  0  0  0
   36.9794   25.6750   34.3471 H   0  0  0  0  0  0  0  0  0  0  0  0
   38.1111   27.8952   34.7746 H   0  0  0  0  0  0  0  0  0  0  0  0
   40.5836   27.9754   34.6075 H   0  0  0  0  0  0  0  0  0  0  0  0
   41.9354   25.9764   34.0425 H   0  0  0  0  0  0  0  0  0  0  0  0
  1 11  1  0
  2  1  2  0
  3  2  1  0
  4  5  1  0
  4  3  2  0
  5  6  2  0
  6 13  1  0
  6  1  1  0
  7  8  2  0
  9  8  1  0
 10  9  2  0
 11 12  2  0
 11 10  1  0
 12  7  1  0
 13 14  2  0
 14 15  1  0
 16 15  2  0
 17 16  1  0
 18 13  1  0
 18 17  2  0
  2 19  1  0
  3 20  1  0
  4 21  1  0
  5 22  1  0
  7 23  1  0
  8 24  1  0
  9 25  1  0
 14 26  1  0
 15 27  1  0
 16 28  1  0
 17 29  1  0
M  ISO  8  19  14  20  14  21  14  22  14  23  14  24  14  25  14  26  14
M  ISO  3  27  14  28  14  29  14
M  END
>  <minimizedAffinity>  (1) 
-4.74206161

>  <minimizedRMSD>  (1) 
1.62038136

$$$$
