
     RDKit          3D

 33 35  0  0  0  0  0  0  0  0999 V2000
   37.7080   22.8290   34.4520 C   0  0  0  0  0  0  0  0  0  0  0  0
   37.2060   21.5850   34.1090 C   0  0  0  0  0  0  0  0  0  0  0  0
   36.6970   21.3390   32.8520 C   0  0  0  0  0  0  0  0  0  0  0  0
   36.7000   22.3810   31.9300 C   0  0  0  0  0  0  0  0  0  0  0  0
   37.2030   23.6130   32.2890 C   0  0  0  0  0  0  0  0  0  0  0  0
   37.7180   23.8750   33.5460 C   0  0  0  0  0  0  0  0  0  0  0  0
   40.0360   22.7370   37.2700 C   0  0  0  0  0  0  0  0  0  0  0  0
   39.2820   23.2350   38.3310 C   0  0  0  0  0  0  0  0  0  0  0  0
   37.9710   23.6030   38.0820 C   0  0  0  0  0  0  0  0  0  0  0  0
   37.4690   23.4710   36.8310 N   0  0  0  0  0  0  0  0  0  0  0  0
   38.2280   22.9840   35.8210 C   0  0  0  0  0  0  0  0  0  0  0  0
   39.5160   22.6130   36.0310 N   0  0  0  0  0  0  0  0  0  0  0  0
   38.2460   25.1330   33.9550 N   0  0  0  0  0  0  0  0  0  0  0  0
   39.6240   25.5410   33.6800 C   0  0  0  0  0  0  0  0  0  0  0  0
   40.3000   25.8980   34.9940 C   0  0  0  0  0  0  0  0  0  0  0  0
   39.6750   27.0360   35.4810 O   0  0  0  0  0  0  0  0  0  0  0  0
   38.3530   26.7930   35.7760 C   0  0  0  0  0  0  0  0  0  0  0  0
   37.5590   26.1690   34.6720 C   0  0  0  0  0  0  0  0  0  0  0  0
   37.2136   20.7766   34.8549 H   0  0  0  0  0  0  0  0  0  0  0  0
   36.3002   20.3483   32.5856 H   0  0  0  0  0  0  0  0  0  0  0  0
   36.3019   22.2219   30.9170 H   0  0  0  0  0  0  0  0  0  0  0  0
   37.1946   24.4225   31.5442 H   0  0  0  0  0  0  0  0  0  0  0  0
   41.0797   22.4379   37.4467 H   0  0  0  0  0  0  0  0  0  0  0  0
   39.7160   23.3328   39.3370 H   0  0  0  0  0  0  0  0  0  0  0  0
   37.3424   23.9992   38.8931 H   0  0  0  0  0  0  0  0  0  0  0  0
   40.1656   24.7135   33.1983 H   0  0  0  0  0  0  0  0  0  0  0  0
   39.6292   26.4119   33.0080 H   0  0  0  0  0  0  0  0  0  0  0  0
   40.1898   25.0713   35.7113 H   0  0  0  0  0  0  0  0  0  0  0  0
   41.3749   26.0769   34.8440 H   0  0  0  0  0  0  0  0  0  0  0  0
   38.3163   26.1191   36.6447 H   0  0  0  0  0  0  0  0  0  0  0  0
   37.8960   27.7759   35.9633 H   0  0  0  0  0  0  0  0  0  0  0  0
   37.2862   26.9588   33.9566 H   0  0  0  0  0  0  0  0  0  0  0  0
   36.6859   25.6953   35.1446 H   0  0  0  0  0  0  0  0  0  0  0  0
  1 11  1  0
  2  1  2  0
  3  2  1  0
  4  5  1  0
  4  3  2  0
  5  6  2  0
  6 13  1  0
  6  1  1  0
  7  8  2  0
  9  8  1  0
 10  9  2  0
 11 12  2  0
 11 10  1  0
 12  7  1  0
 13 18  1  0
 14 13  1  0
 14 15  1  0
 15 16  1  0
 16 17  1  0
 18 17  1  0
  2 19  1  0
  3 20  1  0
  4 21  1  0
  5 22  1  0
  7 23  1  0
  8 24  1  0
  9 25  1  0
 14 26  1  0
 14 27  1  0
 15 28  1  0
 15 29  1  0
 17 30  1  0
 17 31  1  0
 18 32  1  0
 18 33  1  0
M  ISO  8  19  14  20  14  21  14  22  14  23  14  24  14  25  14  26  13
M  ISO  7  27  13  28  13  29  13  30  13  31  13  32  13  33  13
M  END
>  <minimizedAffinity>  (1) 
-4.64851999

>  <minimizedRMSD>  (1) 
2.19229484

$$$$
