
     RDKit          3D

 28 30  0  0  0  0  0  0  0  0999 V2000
   37.2080   21.9650   34.8680 C   0  0  0  0  0  0  0  0  0  0  0  0
   36.3020   20.9450   35.0290 C   0  0  0  0  0  0  0  0  0  0  0  0
   35.5800   20.4600   33.9590 C   0  0  0  0  0  0  0  0  0  0  0  0
   35.7840   21.0250   32.7040 C   0  0  0  0  0  0  0  0  0  0  0  0
   36.6890   22.0390   32.5640 C   0  0  0  0  0  0  0  0  0  0  0  0
   37.4270   22.5440   33.6240 C   0  0  0  0  0  0  0  0  0  0  0  0
   39.9190   22.4390   37.2730 C   0  0  0  0  0  0  0  0  0  0  0  0
   39.3580   23.2470   38.2590 C   0  0  0  0  0  0  0  0  0  0  0  0
   38.0370   23.6270   38.0890 C   0  0  0  0  0  0  0  0  0  0  0  0
   37.3410   23.2170   36.9960 N   0  0  0  0  0  0  0  0  0  0  0  0
   37.9350   22.4230   36.0530 C   0  0  0  0  0  0  0  0  0  0  0  0
   39.2200   22.0400   36.1990 N   0  0  0  0  0  0  0  0  0  0  0  0
   38.3800   23.6200   33.4460 C   0  0  0  0  0  0  0  0  0  0  0  0
   37.8540   24.8850   33.5700 C   0  0  0  0  0  0  0  0  0  0  0  0
   38.6200   26.0380   33.4310 C   0  0  0  0  0  0  0  0  0  0  0  0
   39.9450   25.9280   33.1600 N   0  0  0  0  0  0  0  0  0  0  0  0
   40.4310   24.6870   33.0440 C   0  0  0  0  0  0  0  0  0  0  0  0
   39.6950   23.5840   33.1780 N   0  0  0  0  0  0  0  0  0  0  0  0
   36.1501   20.5083   36.0271 H   0  0  0  0  0  0  0  0  0  0  0  0
   34.8568   19.6423   34.0950 H   0  0  0  0  0  0  0  0  0  0  0  0
   35.2218   20.6586   31.8324 H   0  0  0  0  0  0  0  0  0  0  0  0
   36.8391   22.4746   31.5651 H   0  0  0  0  0  0  0  0  0  0  0  0
   40.9660   22.1184   37.3776 H   0  0  0  0  0  0  0  0  0  0  0  0
   39.9393   23.5696   39.1354 H   0  0  0  0  0  0  0  0  0  0  0  0
   37.5490   24.2634   38.8419 H   0  0  0  0  0  0  0  0  0  0  0  0
   36.7810   24.9895   33.7886 H   0  0  0  0  0  0  0  0  0  0  0  0
   38.1559   27.0294   33.5398 H   0  0  0  0  0  0  0  0  0  0  0  0
   41.5026   24.5699   32.8248 H   0  0  0  0  0  0  0  0  0  0  0  0
  1  2  2  0
  1 11  1  0
  3  2  1  0
  4  3  2  0
  5  4  1  0
  5  6  2  0
  6  1  1  0
  7  8  2  0
  9  8  1  0
 10  9  2  0
 11 12  2  0
 11 10  1  0
 12  7  1  0
 13 14  2  0
 13  6  1  0
 15 14  1  0
 16 15  2  0
 17 16  1  0
 17 18  2  0
 18 13  1  0
  2 19  1  0
  3 20  1  0
  4 21  1  0
  5 22  1  0
  7 23  1  0
  8 24  1  0
  9 25  1  0
 14 26  1  0
 15 27  1  0
 17 28  1  0
M  ISO  8  19  14  20  14  21  14  22  14  23  14  24  14  25  14  26  14
M  ISO  2  27  14  28  14
M  END
>  <minimizedAffinity>  (1) 
-4.50562859

>  <minimizedRMSD>  (1) 
0.532318115

$$$$
