
     RDKit          3D

 27 29  0  0  0  0  0  0  0  0999 V2000
   37.9160   22.9740   34.7090 C   0  0  0  0  0  0  0  0  0  0  0  0
   37.3910   21.7570   34.3040 C   0  0  0  0  0  0  0  0  0  0  0  0
   37.0070   21.5560   33.0010 C   0  0  0  0  0  0  0  0  0  0  0  0
   37.1530   22.5960   32.0920 C   0  0  0  0  0  0  0  0  0  0  0  0
   37.6810   23.8020   32.5250 C   0  0  0  0  0  0  0  0  0  0  0  0
   38.0750   24.0290   33.8300 C   0  0  0  0  0  0  0  0  0  0  0  0
   39.9240   22.7320   37.7590 C   0  0  0  0  0  0  0  0  0  0  0  0
   39.0840   23.2560   38.7490 C   0  0  0  0  0  0  0  0  0  0  0  0
   37.8280   23.6930   38.3680 C   0  0  0  0  0  0  0  0  0  0  0  0
   37.4640   23.5960   37.0650 N   0  0  0  0  0  0  0  0  0  0  0  0
   38.2980   23.0850   36.1320 C   0  0  0  0  0  0  0  0  0  0  0  0
   39.5360   22.6490   36.4740 N   0  0  0  0  0  0  0  0  0  0  0  0
   38.6320   25.2960   34.2920 C   0  0  0  0  0  0  0  0  0  0  0  0
   39.9980   25.5410   34.1160 C   0  0  0  0  0  0  0  0  0  0  0  0
   40.2910   26.7850   34.6230 C   0  0  0  0  0  0  0  0  0  0  0  0
   39.1280   27.2680   35.0890 N   0  0  0  0  0  0  0  0  0  0  0  0
   38.1570   26.3950   34.8930 N   0  0  0  0  0  0  0  0  0  0  0  0
   37.2806   20.9424   35.0350 H   0  0  0  0  0  0  0  0  0  0  0  0
   36.5912   20.5886   32.6828 H   0  0  0  0  0  0  0  0  0  0  0  0
   36.8534   22.4641   31.0418 H   0  0  0  0  0  0  0  0  0  0  0  0
   37.7918   24.6175   31.7951 H   0  0  0  0  0  0  0  0  0  0  0  0
   40.9274   22.3790   38.0395 H   0  0  0  0  0  0  0  0  0  0  0  0
   39.4125   23.3182   39.7970 H   0  0  0  0  0  0  0  0  0  0  0  0
   37.1344   24.1132   39.1112 H   0  0  0  0  0  0  0  0  0  0  0  0
   40.7181   24.8527   33.6495 H   0  0  0  0  0  0  0  0  0  0  0  0
   41.2727   27.2808   34.6427 H   0  0  0  0  0  0  0  0  0  0  0  0
   39.0101   28.1885   35.5358 H   0  0  0  0  0  0  0  0  0  0  0  0
  1 11  1  0
  2  1  2  0
  3  2  1  0
  4  5  1  0
  4  3  2  0
  5  6  2  0
  6 13  1  0
  6  1  1  0
  7  8  2  0
  9  8  1  0
 10  9  2  0
 11 12  2  0
 11 10  1  0
 12  7  1  0
 13 17  2  0
 14 13  1  0
 14 15  2  0
 15 16  1  0
 17 16  1  0
  2 18  1  0
  3 19  1  0
  4 20  1  0
  5 21  1  0
  7 22  1  0
  8 23  1  0
  9 24  1  0
 14 25  1  0
 15 26  1  0
 16 27  1  0
M  ISO  8  18  14  19  14  20  14  21  14  22  14  23  14  24  14  25  14
M  ISO  2  26  14  27   9
M  END
>  <minimizedAffinity>  (1) 
-4.43208313

>  <minimizedRMSD>  (1) 
1.95812798

$$$$
