
     RDKit          3D

 27 29  0  0  0  0  0  0  0  0999 V2000
   37.2000   21.9600   34.7300 C   0  0  0  0  0  0  0  0  0  0  0  0
   36.3270   20.9120   34.8740 C   0  0  0  0  0  0  0  0  0  0  0  0
   35.5750   20.4760   33.7990 C   0  0  0  0  0  0  0  0  0  0  0  0
   35.7040   21.1010   32.5730 C   0  0  0  0  0  0  0  0  0  0  0  0
   36.5790   22.1450   32.4500 C   0  0  0  0  0  0  0  0  0  0  0  0
   37.3400   22.5970   33.5100 C   0  0  0  0  0  0  0  0  0  0  0  0
   39.9930   22.3890   37.0490 C   0  0  0  0  0  0  0  0  0  0  0  0
   39.4360   23.1410   38.0890 C   0  0  0  0  0  0  0  0  0  0  0  0
   38.1040   23.4970   37.9870 C   0  0  0  0  0  0  0  0  0  0  0  0
   37.3930   23.1130   36.9030 N   0  0  0  0  0  0  0  0  0  0  0  0
   37.9700   22.3790   35.9080 C   0  0  0  0  0  0  0  0  0  0  0  0
   39.2620   22.0200   35.9820 N   0  0  0  0  0  0  0  0  0  0  0  0
   38.2370   23.6800   33.3520 N   0  0  0  0  0  0  0  0  0  0  0  0
   39.5000   23.6190   32.8400 C   0  0  0  0  0  0  0  0  0  0  0  0
   39.9930   24.9260   32.8850 C   0  0  0  0  0  0  0  0  0  0  0  0
   39.0570   25.7140   33.4020 N   0  0  0  0  0  0  0  0  0  0  0  0
   37.9640   24.9590   33.6960 C   0  0  0  0  0  0  0  0  0  0  0  0
   36.2246   20.4156   35.8503 H   0  0  0  0  0  0  0  0  0  0  0  0
   34.8765   19.6347   33.9189 H   0  0  0  0  0  0  0  0  0  0  0  0
   35.1120   20.7639   31.7094 H   0  0  0  0  0  0  0  0  0  0  0  0
   36.6800   22.6414   31.4736 H   0  0  0  0  0  0  0  0  0  0  0  0
   41.0510   22.0933   37.1051 H   0  0  0  0  0  0  0  0  0  0  0  0
   40.0384   23.4394   38.9597 H   0  0  0  0  0  0  0  0  0  0  0  0
   37.6261   24.0883   38.7820 H   0  0  0  0  0  0  0  0  0  0  0  0
   40.0227   22.7253   32.4683 H   0  0  0  0  0  0  0  0  0  0  0  0
   40.9895   25.2482   32.5485 H   0  0  0  0  0  0  0  0  0  0  0  0
   37.0243   25.3244   34.1358 H   0  0  0  0  0  0  0  0  0  0  0  0
  1  2  2  0
  1 11  1  0
  3  2  1  0
  4  3  2  0
  5  4  1  0
  5  6  2  0
  6  1  1  0
  7  8  2  0
  9  8  1  0
 10  9  2  0
 11 12  2  0
 11 10  1  0
 12  7  1  0
 13  6  1  0
 13 17  1  0
 14 15  2  0
 14 13  1  0
 15 16  1  0
 16 17  2  0
  2 18  1  0
  3 19  1  0
  4 20  1  0
  5 21  1  0
  7 22  1  0
  8 23  1  0
  9 24  1  0
 14 25  1  0
 15 26  1  0
 17 27  1  0
M  ISO  8  18  14  19  14  20  14  21  14  22  14  23  14  24  14  25  14
M  ISO  2  26  14  27  14
M  END
>  <minimizedAffinity>  (1) 
-4.37191534

>  <minimizedRMSD>  (1) 
0.534896612

$$$$
