
     RDKit          3D

 32 33  0  0  0  0  0  0  0  0999 V2000
   37.2920   22.0340   35.0010 C   0  0  0  0  0  0  0  0  0  0  0  0
   36.3650   21.0230   35.2340 C   0  0  0  0  0  0  0  0  0  0  0  0
   35.6310   20.5380   34.1590 C   0  0  0  0  0  0  0  0  0  0  0  0
   35.8320   21.0600   32.8990 C   0  0  0  0  0  0  0  0  0  0  0  0
   36.7540   22.0510   32.7310 C   0  0  0  0  0  0  0  0  0  0  0  0
   37.5390   22.6020   33.7550 C   0  0  0  0  0  0  0  0  0  0  0  0
   37.9930   23.7980   38.1420 C   0  0  0  0  0  0  0  0  0  0  0  0
   39.3050   23.4350   38.4400 C   0  0  0  0  0  0  0  0  0  0  0  0
   39.9500   22.5820   37.5630 C   0  0  0  0  0  0  0  0  0  0  0  0
   39.3220   22.1120   36.4420 N   0  0  0  0  0  0  0  0  0  0  0  0
   38.0310   22.4960   36.1900 C   0  0  0  0  0  0  0  0  0  0  0  0
   37.4320   23.3140   37.0430 N   0  0  0  0  0  0  0  0  0  0  0  0
   38.5150   23.6510   33.4690 C   0  0  0  0  0  0  0  0  0  0  0  0
   39.9310   23.3420   33.9020 C   0  0  0  0  0  0  0  0  0  0  0  0
   38.4530   24.2090   32.0860 C   0  0  0  0  0  0  0  0  0  0  0  0
   38.1460   24.8590   34.3870 C   0  0  0  0  0  0  0  0  0  0  0  0
   36.2168   20.6173   36.2457 H   0  0  0  0  0  0  0  0  0  0  0  0
   34.8908   19.7390   34.3128 H   0  0  0  0  0  0  0  0  0  0  0  0
   35.2567   20.6825   32.0408 H   0  0  0  0  0  0  0  0  0  0  0  0
   36.8927   22.4487   31.7148 H   0  0  0  0  0  0  0  0  0  0  0  0
   37.4336   24.4733   38.8061 H   0  0  0  0  0  0  0  0  0  0  0  0
   39.8099   23.8136   39.3410 H   0  0  0  0  0  0  0  0  0  0  0  0
   40.9861   22.2761   37.7704 H   0  0  0  0  0  0  0  0  0  0  0  0
   39.9842   23.3304   35.0007 H   0  0  0  0  0  0  0  0  0  0  0  0
   40.2278   22.3580   33.5101 H   0  0  0  0  0  0  0  0  0  0  0  0
   40.6108   24.1129   33.5101 H   0  0  0  0  0  0  0  0  0  0  0  0
   38.3317   25.3011   32.1364 H   0  0  0  0  0  0  0  0  0  0  0  0
   39.3835   23.9677   31.5512 H   0  0  0  0  0  0  0  0  0  0  0  0
   37.5982   23.7694   31.5512 H   0  0  0  0  0  0  0  0  0  0  0  0
   38.2375   24.5595   35.4415 H   0  0  0  0  0  0  0  0  0  0  0  0
   38.8293   25.6966   34.1831 H   0  0  0  0  0  0  0  0  0  0  0  0
   37.1113   25.1718   34.1831 H   0  0  0  0  0  0  0  0  0  0  0  0
  1  2  2  0
  1 11  1  0
  3  2  1  0
  4  3  2  0
  5  4  1  0
  5  6  2  0
  6  1  1  0
  7  8  2  0
  9  8  1  0
 10  9  2  0
 11 10  1  0
 11 12  2  0
 12  7  1  0
 13  6  1  0
 13 14  1  0
 13 16  1  0
 15 13  1  0
  2 17  1  0
  3 18  1  0
  4 19  1  0
  5 20  1  0
  7 21  1  0
  8 22  1  0
  9 23  1  0
 14 24  1  0
 14 25  1  0
 14 26  1  0
 15 27  1  0
 15 28  1  0
 15 29  1  0
 16 30  1  0
 16 31  1  0
 16 32  1  0
M  ISO  8  17  14  18  14  19  14  20  14  21  14  22  14  23  14  24   8
M  ISO  8  25   8  26   8  27   8  28   8  29   8  30   8  31   8  32   8
M  END
>  <minimizedAffinity>  (1) 
-4.29546881

>  <minimizedRMSD>  (1) 
1.28967595

$$$$
