
     RDKit          3D

 23 24  0  0  0  0  0  0  0  0999 V2000
   37.2240   21.8840   34.9750 C   0  0  0  0  0  0  0  0  0  0  0  0
   36.2080   20.9630   35.1710 C   0  0  0  0  0  0  0  0  0  0  0  0
   35.5050   20.4770   34.0930 C   0  0  0  0  0  0  0  0  0  0  0  0
   35.8100   20.8990   32.8220 C   0  0  0  0  0  0  0  0  0  0  0  0
   36.8170   21.8070   32.6500 C   0  0  0  0  0  0  0  0  0  0  0  0
   37.5450   22.3210   33.7050 C   0  0  0  0  0  0  0  0  0  0  0  0
   39.9690   22.5900   37.2800 C   0  0  0  0  0  0  0  0  0  0  0  0
   39.3300   23.2840   38.3330 C   0  0  0  0  0  0  0  0  0  0  0  0
   37.9480   23.5060   38.2420 C   0  0  0  0  0  0  0  0  0  0  0  0
   37.2890   23.0450   37.1510 N   0  0  0  0  0  0  0  0  0  0  0  0
   37.9460   22.3770   36.1490 C   0  0  0  0  0  0  0  0  0  0  0  0
   39.2620   22.1670   36.2400 N   0  0  0  0  0  0  0  0  0  0  0  0
   38.5900   23.2930   33.4290 C   0  0  0  0  0  0  0  0  0  0  0  0
   39.6130   23.2060   32.7170 O   0  0  0  0  0  0  0  0  0  0  0  0
   38.5500   24.5540   33.9900 O   0  0  0  0  0  0  0  0  0  0  0  0
   35.9636   20.6207   36.1874 H   0  0  0  0  0  0  0  0  0  0  0  0
   34.6961   19.7482   34.2494 H   0  0  0  0  0  0  0  0  0  0  0  0
   35.2526   20.5123   31.9561 H   0  0  0  0  0  0  0  0  0  0  0  0
   37.0573   22.1419   31.6301 H   0  0  0  0  0  0  0  0  0  0  0  0
   41.0518   22.4008   37.3229 H   0  0  0  0  0  0  0  0  0  0  0  0
   39.9023   23.6410   39.2019 H   0  0  0  0  0  0  0  0  0  0  0  0
   37.4110   24.0423   39.0383 H   0  0  0  0  0  0  0  0  0  0  0  0
   39.2684   25.2062   33.7935 H   0  0  0  0  0  0  0  0  0  0  0  0
  1  2  2  0
  1 11  1  0
  3  2  1  0
  4  3  2  0
  5  4  1  0
  5  6  2  0
  6  1  1  0
  7  8  2  0
  9  8  1  0
 10  9  2  0
 11 12  2  0
 11 10  1  0
 12  7  1  0
 13  6  1  0
 13 15  1  0
 14 13  2  0
  2 16  1  0
  3 17  1  0
  4 18  1  0
  5 19  1  0
  7 20  1  0
  8 21  1  0
  9 22  1  0
 15 23  1  0
M  ISO  8  16  14  17  14  18  14  19  14  20  14  21  14  22  14  23   3
M  END
>  <minimizedAffinity>  (1) 
-4.20628834

>  <minimizedRMSD>  (1) 
0.106561378

$$$$
