
     RDKit          3D

 21 22  0  0  0  0  0  0  0  0999 V2000
   37.2240   21.8710   34.9390 C   0  0  0  0  0  0  0  0  0  0  0  0
   36.2070   20.9720   35.1200 C   0  0  0  0  0  0  0  0  0  0  0  0
   35.4990   20.4740   34.0540 C   0  0  0  0  0  0  0  0  0  0  0  0
   35.8230   20.8910   32.7740 C   0  0  0  0  0  0  0  0  0  0  0  0
   36.8490   21.7960   32.6000 C   0  0  0  0  0  0  0  0  0  0  0  0
   37.5710   22.3060   33.6660 C   0  0  0  0  0  0  0  0  0  0  0  0
   39.9490   22.6090   37.2570 C   0  0  0  0  0  0  0  0  0  0  0  0
   39.3120   23.2770   38.3170 C   0  0  0  0  0  0  0  0  0  0  0  0
   37.9370   23.4690   38.2230 C   0  0  0  0  0  0  0  0  0  0  0  0
   37.2810   23.0090   37.1280 N   0  0  0  0  0  0  0  0  0  0  0  0
   37.9410   22.3660   36.1200 C   0  0  0  0  0  0  0  0  0  0  0  0
   39.2680   22.1710   36.1920 N   0  0  0  0  0  0  0  0  0  0  0  0
   38.5880   23.2080   33.4640 O   0  0  0  0  0  0  0  0  0  0  0  0
   35.9525   20.6427   36.1382 H   0  0  0  0  0  0  0  0  0  0  0  0
   34.6844   19.7526   34.2150 H   0  0  0  0  0  0  0  0  0  0  0  0
   35.2685   20.5049   31.9060 H   0  0  0  0  0  0  0  0  0  0  0  0
   37.1022   22.1235   31.5809 H   0  0  0  0  0  0  0  0  0  0  0  0
   41.0352   22.4421   37.3043 H   0  0  0  0  0  0  0  0  0  0  0  0
   39.8795   23.6348   39.1887 H   0  0  0  0  0  0  0  0  0  0  0  0
   37.3898   23.9863   39.0249 H   0  0  0  0  0  0  0  0  0  0  0  0
   39.0950   23.5635   34.2364 H   0  0  0  0  0  0  0  0  0  0  0  0
  1  2  2  0
  1 11  1  0
  3  2  1  0
  4  3  2  0
  5  4  1  0
  5  6  2  0
  6  1  1  0
  7  8  2  0
  9  8  1  0
 10  9  2  0
 11 12  2  0
 11 10  1  0
 12  7  1  0
 13  6  1  0
  2 14  1  0
  3 15  1  0
  4 16  1  0
  5 17  1  0
  7 18  1  0
  8 19  1  0
  9 20  1  0
 13 21  1  0
M  ISO  8  14  14  15  14  16  14  17  14  18  14  19  14  20  14  21   3
M  END
>  <minimizedAffinity>  (1) 
-4.14463568

>  <minimizedRMSD>  (1) 
0.0241023563

$$$$
