
     RDKit          3D

 35 38  0  0  0  0  0  0  0  0999 V2000
   37.2460   22.0730   34.9070 C   0  0  0  0  0  0  0  0  0  0  0  0
   36.3890   21.0000   34.9660 C   0  0  0  0  0  0  0  0  0  0  0  0
   35.6770   20.5820   33.8750 C   0  0  0  0  0  0  0  0  0  0  0  0
   35.8190   21.2560   32.6810 C   0  0  0  0  0  0  0  0  0  0  0  0
   36.6780   22.3330   32.6220 C   0  0  0  0  0  0  0  0  0  0  0  0
   37.4040   22.7630   33.7230 C   0  0  0  0  0  0  0  0  0  0  0  0
   39.9900   22.5280   37.2650 C   0  0  0  0  0  0  0  0  0  0  0  0
   39.3870   23.1470   38.3650 C   0  0  0  0  0  0  0  0  0  0  0  0
   38.0320   23.4010   38.2830 C   0  0  0  0  0  0  0  0  0  0  0  0
   37.3470   23.0510   37.1600 N   0  0  0  0  0  0  0  0  0  0  0  0
   37.9690   22.4540   36.1170 C   0  0  0  0  0  0  0  0  0  0  0  0
   39.2930   22.1970   36.1780 N   0  0  0  0  0  0  0  0  0  0  0  0
   38.2540   23.8400   33.6360 O   0  0  0  0  0  0  0  0  0  0  0  0
   38.0850   25.0810   34.1860 C   0  0  0  0  0  0  0  0  0  0  0  0
   38.5740   25.5320   35.3690 N   0  0  0  0  0  0  0  0  0  0  0  0
   38.3320   26.7870   35.8010 C   0  0  0  0  0  0  0  0  0  0  0  0
   37.5890   27.6930   35.1000 N   0  0  0  0  0  0  0  0  0  0  0  0
   37.0870   27.2620   33.9100 C   0  0  0  0  0  0  0  0  0  0  0  0
   36.3330   28.1730   33.1940 C   0  0  0  0  0  0  0  0  0  0  0  0
   35.7920   27.8070   31.9770 C   0  0  0  0  0  0  0  0  0  0  0  0
   36.0120   26.5350   31.4940 C   0  0  0  0  0  0  0  0  0  0  0  0
   36.7700   25.6430   32.2310 C   0  0  0  0  0  0  0  0  0  0  0  0
   37.3230   25.9810   33.4500 C   0  0  0  0  0  0  0  0  0  0  0  0
   36.2722   20.4617   35.9181 H   0  0  0  0  0  0  0  0  0  0  0  0
   34.9995   19.7186   33.9498 H   0  0  0  0  0  0  0  0  0  0  0  0
   35.2564   20.9400   31.7901 H   0  0  0  0  0  0  0  0  0  0  0  0
   36.7915   22.8699   31.6687 H   0  0  0  0  0  0  0  0  0  0  0  0
   41.0674   22.3087   37.2978 H   0  0  0  0  0  0  0  0  0  0  0  0
   39.9680   23.4201   39.2582 H   0  0  0  0  0  0  0  0  0  0  0  0
   37.5087   23.8840   39.1214 H   0  0  0  0  0  0  0  0  0  0  0  0
   38.7552   27.0964   36.7681 H   0  0  0  0  0  0  0  0  0  0  0  0
   36.1647   29.1847   33.5917 H   0  0  0  0  0  0  0  0  0  0  0  0
   35.1911   28.5241   31.3985 H   0  0  0  0  0  0  0  0  0  0  0  0
   35.5865   26.2304   30.5264 H   0  0  0  0  0  0  0  0  0  0  0  0
   36.9376   24.6314   31.8328 H   0  0  0  0  0  0  0  0  0  0  0  0
  1  2  2  0
  1 11  1  0
  3  2  1  0
  4  3  2  0
  5  4  1  0
  5  6  2  0
  6  1  1  0
  7  8  2  0
  9  8  1  0
 10  9  2  0
 11 12  2  0
 11 10  1  0
 12  7  1  0
 13  6  1  0
 13 14  1  0
 14 15  2  0
 15 16  1  0
 17 16  2  0
 18 17  1  0
 19 18  2  0
 20 19  1  0
 21 20  2  0
 21 22  1  0
 22 23  2  0
 23 18  1  0
 23 14  1  0
  2 24  1  0
  3 25  1  0
  4 26  1  0
  5 27  1  0
  7 28  1  0
  8 29  1  0
  9 30  1  0
 16 31  1  0
 19 32  1  0
 20 33  1  0
 21 34  1  0
 22 35  1  0
M  ISO  8  24  14  25  14  26  14  27  14  28  14  29  14  30  14  31  14
M  ISO  4  32  14  33  14  34  14  35  14
M  END
>  <minimizedAffinity>  (1) 
-5.99176788

>  <minimizedRMSD>  (1) 
1.29483843

$$$$
