
     RDKit          3D

 26 28  0  0  0  0  0  0  0  0999 V2000
   37.1530   21.9850   34.7450 C   0  0  0  0  0  0  0  0  0  0  0  0
   36.2890   20.9400   34.8520 C   0  0  0  0  0  0  0  0  0  0  0  0
   35.5390   20.5020   33.7940 C   0  0  0  0  0  0  0  0  0  0  0  0
   35.6710   21.1510   32.5780 C   0  0  0  0  0  0  0  0  0  0  0  0
   36.5540   22.2210   32.4600 C   0  0  0  0  0  0  0  0  0  0  0  0
   37.3070   22.6590   33.5300 C   0  0  0  0  0  0  0  0  0  0  0  0
   39.9880   22.4650   37.0060 C   0  0  0  0  0  0  0  0  0  0  0  0
   39.4240   23.1490   38.0830 C   0  0  0  0  0  0  0  0  0  0  0  0
   38.0720   23.4460   38.0330 C   0  0  0  0  0  0  0  0  0  0  0  0
   37.3480   23.0620   36.9460 N   0  0  0  0  0  0  0  0  0  0  0  0
   37.9300   22.3990   35.9180 C   0  0  0  0  0  0  0  0  0  0  0  0
   39.2490   22.1010   35.9480 N   0  0  0  0  0  0  0  0  0  0  0  0
   38.1610   23.7090   33.3880 O   0  0  0  0  0  0  0  0  0  0  0  0
   37.6460   24.9980   33.3770 C   0  0  0  0  0  0  0  0  0  0  0  0
   37.0680   25.8510   32.5120 N   0  0  0  0  0  0  0  0  0  0  0  0
   36.7870   26.9700   33.0930 O   0  0  0  0  0  0  0  0  0  0  0  0
   37.1760   26.8630   34.3390 C   0  0  0  0  0  0  0  0  0  0  0  0
   37.7140   25.6490   34.5440 N   0  0  0  0  0  0  0  0  0  0  0  0
   36.1896   20.4297   35.8214 H   0  0  0  0  0  0  0  0  0  0  0  0
   34.8475   19.6541   33.9072 H   0  0  0  0  0  0  0  0  0  0  0  0
   35.0811   20.8228   31.7095 H   0  0  0  0  0  0  0  0  0  0  0  0
   36.6538   22.7297   31.4898 H   0  0  0  0  0  0  0  0  0  0  0  0
   41.0601   22.2194   37.0250 H   0  0  0  0  0  0  0  0  0  0  0  0
   40.0360   23.4443   38.9480 H   0  0  0  0  0  0  0  0  0  0  0  0
   37.5894   23.9854   38.8613 H   0  0  0  0  0  0  0  0  0  0  0  0
   37.0772   27.6486   35.1026 H   0  0  0  0  0  0  0  0  0  0  0  0
  1  2  2  0
  1 11  1  0
  3  2  1  0
  4  3  2  0
  5  4  1  0
  5  6  2  0
  6  1  1  0
  7  8  2  0
  9  8  1  0
 10  9  2  0
 11 12  2  0
 11 10  1  0
 12  7  1  0
 13  6  1  0
 14 13  1  0
 14 18  1  0
 15 16  1  0
 15 14  2  0
 16 17  1  0
 17 18  2  0
  2 19  1  0
  3 20  1  0
  4 21  1  0
  5 22  1  0
  7 23  1  0
  8 24  1  0
  9 25  1  0
 17 26  1  0
M  ISO  8  19  14  20  14  21  14  22  14  23  14  24  14  25  14  26  14
M  END
>  <minimizedAffinity>  (1) 
-4.6895256

>  <minimizedRMSD>  (1) 
1.12191081

$$$$
