
     RDKit          3D

 27 29  0  0  0  0  0  0  0  0999 V2000
   37.2200   21.9730   34.7020 C   0  0  0  0  0  0  0  0  0  0  0  0
   36.3190   20.9650   34.8360 C   0  0  0  0  0  0  0  0  0  0  0  0
   35.5650   20.5300   33.7770 C   0  0  0  0  0  0  0  0  0  0  0  0
   35.7350   21.1420   32.5420 C   0  0  0  0  0  0  0  0  0  0  0  0
   36.6460   22.1550   32.4220 C   0  0  0  0  0  0  0  0  0  0  0  0
   37.4290   22.6210   33.4810 C   0  0  0  0  0  0  0  0  0  0  0  0
   40.0120   22.4020   37.0240 C   0  0  0  0  0  0  0  0  0  0  0  0
   39.4610   23.1360   38.0770 C   0  0  0  0  0  0  0  0  0  0  0  0
   38.1060   23.4900   37.9890 C   0  0  0  0  0  0  0  0  0  0  0  0
   37.4240   23.0970   36.8910 N   0  0  0  0  0  0  0  0  0  0  0  0
   37.9930   22.3840   35.8860 C   0  0  0  0  0  0  0  0  0  0  0  0
   39.2960   22.0310   35.9470 N   0  0  0  0  0  0  0  0  0  0  0  0
   38.3220   23.6270   33.3400 O   0  0  0  0  0  0  0  0  0  0  0  0
   37.9320   24.9400   33.4400 C   0  0  0  0  0  0  0  0  0  0  0  0
   38.3390   25.4650   32.2340 C   0  0  0  0  0  0  0  0  0  0  0  0
   37.8320   27.2460   32.3250 S   0  0  0  0  0  0  0  0  0  0  0  0
   37.1270   26.9360   34.0640 C   0  0  0  0  0  0  0  0  0  0  0  0
   37.3610   25.8500   34.1770 N   0  0  0  0  0  0  0  0  0  0  0  0
   36.1914   20.4863   35.8181 H   0  0  0  0  0  0  0  0  0  0  0  0
   34.8398   19.7125   33.9029 H   0  0  0  0  0  0  0  0  0  0  0  0
   35.1452   20.8165   31.6724 H   0  0  0  0  0  0  0  0  0  0  0  0
   36.7690   22.6291   31.4371 H   0  0  0  0  0  0  0  0  0  0  0  0
   41.0729   22.1161   37.0774 H   0  0  0  0  0  0  0  0  0  0  0  0
   40.0691   23.4268   38.9463 H   0  0  0  0  0  0  0  0  0  0  0  0
   37.6160   24.0676   38.7866 H   0  0  0  0  0  0  0  0  0  0  0  0
   38.8476   24.9473   31.4074 H   0  0  0  0  0  0  0  0  0  0  0  0
   36.6306   27.6286   34.7597 H   0  0  0  0  0  0  0  0  0  0  0  0
  1  2  2  0
  1 11  1  0
  3  2  1  0
  4  3  2  0
  5  4  1  0
  5  6  2  0
  6  1  1  0
  7  8  2  0
  9  8  1  0
 10  9  2  0
 11 12  2  0
 11 10  1  0
 12  7  1  0
 13 14  1  0
 13  6  1  0
 14 18  1  0
 15 16  1  0
 15 14  2  0
 16 17  1  0
 17 18  2  0
  2 19  1  0
  3 20  1  0
  4 21  1  0
  5 22  1  0
  7 23  1  0
  8 24  1  0
  9 25  1  0
 15 26  1  0
 17 27  1  0
M  ISO  8  19  14  20  14  21  14  22  14  23  14  24  14  25  14  26  14
M  ISO  1  27  14
M  END
>  <minimizedAffinity>  (1) 
-4.64581156

>  <minimizedRMSD>  (1) 
2.04984689

$$$$
