
     RDKit          3D

 33 34  0  0  0  0  0  0  0  0999 V2000
   37.1850   21.9340   34.7170 C   0  0  0  0  0  0  0  0  0  0  0  0
   36.2900   20.9220   34.8470 C   0  0  0  0  0  0  0  0  0  0  0  0
   35.5450   20.4770   33.7850 C   0  0  0  0  0  0  0  0  0  0  0  0
   35.7210   21.0890   32.5430 C   0  0  0  0  0  0  0  0  0  0  0  0
   36.6380   22.1250   32.4100 C   0  0  0  0  0  0  0  0  0  0  0  0
   37.3880   22.5710   33.4900 C   0  0  0  0  0  0  0  0  0  0  0  0
   39.9870   22.4640   37.0020 C   0  0  0  0  0  0  0  0  0  0  0  0
   39.4270   23.1610   38.0750 C   0  0  0  0  0  0  0  0  0  0  0  0
   38.0770   23.4400   37.9890 C   0  0  0  0  0  0  0  0  0  0  0  0
   37.3400   23.0500   36.9110 N   0  0  0  0  0  0  0  0  0  0  0  0
   37.9530   22.3660   35.8880 C   0  0  0  0  0  0  0  0  0  0  0  0
   39.2720   22.0720   35.9320 N   0  0  0  0  0  0  0  0  0  0  0  0
   38.2800   23.5890   33.3320 O   0  0  0  0  0  0  0  0  0  0  0  0
   37.9380   24.9380   33.1710 C   0  0  0  0  0  0  0  0  0  0  0  0
   39.0910   25.6360   32.4380 C   0  0  0  0  0  0  0  0  0  0  0  0
   36.7160   25.1860   32.3510 C   0  0  0  0  0  0  0  0  0  0  0  0
   37.8090   25.6640   34.4800 C   0  0  0  0  0  0  0  0  0  0  0  0
   36.1587   20.4462   35.8300 H   0  0  0  0  0  0  0  0  0  0  0  0
   34.8242   19.6554   33.9094 H   0  0  0  0  0  0  0  0  0  0  0  0
   35.1368   20.7530   31.6736 H   0  0  0  0  0  0  0  0  0  0  0  0
   36.7724   22.6019   31.4279 H   0  0  0  0  0  0  0  0  0  0  0  0
   41.0603   22.2250   37.0332 H   0  0  0  0  0  0  0  0  0  0  0  0
   40.0288   23.4711   38.9420 H   0  0  0  0  0  0  0  0  0  0  0  0
   37.5868   23.9881   38.8071 H   0  0  0  0  0  0  0  0  0  0  0  0
   39.7904   26.0594   33.1739 H   0  0  0  0  0  0  0  0  0  0  0  0
   39.6198   24.9062   31.8073 H   0  0  0  0  0  0  0  0  0  0  0  0
   38.6895   26.4428   31.8073 H   0  0  0  0  0  0  0  0  0  0  0  0
   35.8573   25.3603   33.0160 H   0  0  0  0  0  0  0  0  0  0  0  0
   36.8736   26.0705   31.7163 H   0  0  0  0  0  0  0  0  0  0  0  0
   36.5164   24.3101   31.7163 H   0  0  0  0  0  0  0  0  0  0  0  0
   37.9356   24.9515   35.3085 H   0  0  0  0  0  0  0  0  0  0  0  0
   38.5828   26.4431   34.5450 H   0  0  0  0  0  0  0  0  0  0  0  0
   36.8142   26.1289   34.5450 H   0  0  0  0  0  0  0  0  0  0  0  0
  1  2  2  0
  1 11  1  0
  3  2  1  0
  4  3  2  0
  5  4  1  0
  5  6  2  0
  6  1  1  0
  7  8  2  0
  9  8  1  0
 10  9  2  0
 11 12  2  0
 11 10  1  0
 12  7  1  0
 13  6  1  0
 14 13  1  0
 14 17  1  0
 15 14  1  0
 16 14  1  0
  2 18  1  0
  3 19  1  0
  4 20  1  0
  5 21  1  0
  7 22  1  0
  8 23  1  0
  9 24  1  0
 15 25  1  0
 15 26  1  0
 15 27  1  0
 16 28  1  0
 16 29  1  0
 16 30  1  0
 17 31  1  0
 17 32  1  0
 17 33  1  0
M  ISO  8  18  14  19  14  20  14  21  14  22  14  23  14  24  14  25   8
M  ISO  8  26   8  27   8  28   8  29   8  30   8  31   8  32   8  33   8
M  END
>  <minimizedAffinity>  (1) 
-4.40616465

>  <minimizedRMSD>  (1) 
0.44742316

$$$$
