
     RDKit          3D

 28 30  0  0  0  0  0  0  0  0999 V2000
   37.2010   21.9510   34.7250 C   0  0  0  0  0  0  0  0  0  0  0  0
   36.3120   20.9090   34.8610 C   0  0  0  0  0  0  0  0  0  0  0  0
   35.5550   20.4700   33.8020 C   0  0  0  0  0  0  0  0  0  0  0  0
   35.6820   21.0820   32.5780 C   0  0  0  0  0  0  0  0  0  0  0  0
   36.5690   22.1170   32.4570 C   0  0  0  0  0  0  0  0  0  0  0  0
   37.3460   22.5800   33.5100 C   0  0  0  0  0  0  0  0  0  0  0  0
   39.9970   22.4070   37.0110 C   0  0  0  0  0  0  0  0  0  0  0  0
   39.4370   23.1360   38.0870 C   0  0  0  0  0  0  0  0  0  0  0  0
   38.0960   23.4580   38.0010 C   0  0  0  0  0  0  0  0  0  0  0  0
   37.3800   23.0720   36.9140 N   0  0  0  0  0  0  0  0  0  0  0  0
   37.9680   22.3650   35.8940 C   0  0  0  0  0  0  0  0  0  0  0  0
   39.2590   22.0460   35.9590 N   0  0  0  0  0  0  0  0  0  0  0  0
   38.2300   23.6210   33.3550 O   0  0  0  0  0  0  0  0  0  0  0  0
   37.9930   24.9670   33.6090 C   0  0  0  0  0  0  0  0  0  0  0  0
   37.0220   25.7320   32.7900 C   0  0  0  0  0  0  0  0  0  0  0  0
   38.4550   25.8820   32.4790 C   0  0  0  0  0  0  0  0  0  0  0  0
   36.2053   20.4170   35.8390 H   0  0  0  0  0  0  0  0  0  0  0  0
   34.8519   19.6342   33.9328 H   0  0  0  0  0  0  0  0  0  0  0  0
   35.0851   20.7480   31.7165 H   0  0  0  0  0  0  0  0  0  0  0  0
   36.6713   22.6061   31.4771 H   0  0  0  0  0  0  0  0  0  0  0  0
   41.0617   22.1324   37.0422 H   0  0  0  0  0  0  0  0  0  0  0  0
   40.0436   23.4337   38.9550 H   0  0  0  0  0  0  0  0  0  0  0  0
   37.6108   24.0245   38.8095 H   0  0  0  0  0  0  0  0  0  0  0  0
   38.1266   24.8585   34.6954 H   0  0  0  0  0  0  0  0  0  0  0  0
   36.3654   25.1996   32.0862 H   0  0  0  0  0  0  0  0  0  0  0  0
   36.2120   26.4383   33.0247 H   0  0  0  0  0  0  0  0  0  0  0  0
   38.8672   25.4523   31.5541 H   0  0  0  0  0  0  0  0  0  0  0  0
   39.1525   26.7282   32.3931 H   0  0  0  0  0  0  0  0  0  0  0  0
  1  2  2  0
  1 11  1  0
  3  2  1  0
  4  3  2  0
  5  4  1  0
  5  6  2  0
  6  1  1  0
  7  8  2  0
  9  8  1  0
 10  9  2  0
 11 12  2  0
 11 10  1  0
 12  7  1  0
 13  6  1  0
 13 14  1  0
 15 14  1  0
 16 15  1  0
 16 14  1  0
  2 17  1  0
  3 18  1  0
  4 19  1  0
  5 20  1  0
  7 21  1  0
  8 22  1  0
  9 23  1  0
 14 24  1  0
 15 25  1  0
 15 26  1  0
 16 27  1  0
 16 28  1  0
M  ISO  8  17  14  18  14  19  14  20  14  21  14  22  14  23  14  24  13
M  ISO  4  25  13  26  13  27  13  28  13
M  END
>  <minimizedAffinity>  (1) 
-4.22849989

>  <minimizedRMSD>  (1) 
1.23546493

$$$$
