
     RDKit          3D

 27 28  0  0  0  0  0  0  0  0999 V2000
   37.2110   21.9440   34.7080 C   0  0  0  0  0  0  0  0  0  0  0  0
   36.2970   20.9230   34.8570 C   0  0  0  0  0  0  0  0  0  0  0  0
   35.5410   20.4720   33.8070 C   0  0  0  0  0  0  0  0  0  0  0  0
   35.7050   21.0600   32.5660 C   0  0  0  0  0  0  0  0  0  0  0  0
   36.6260   22.0880   32.4200 C   0  0  0  0  0  0  0  0  0  0  0  0
   37.3960   22.5500   33.4820 C   0  0  0  0  0  0  0  0  0  0  0  0
   39.9960   22.4200   37.0130 C   0  0  0  0  0  0  0  0  0  0  0  0
   39.4440   23.1480   38.0680 C   0  0  0  0  0  0  0  0  0  0  0  0
   38.1050   23.4740   37.9750 C   0  0  0  0  0  0  0  0  0  0  0  0
   37.3840   23.0860   36.8920 N   0  0  0  0  0  0  0  0  0  0  0  0
   37.9820   22.3700   35.8830 C   0  0  0  0  0  0  0  0  0  0  0  0
   39.2720   22.0390   35.9410 N   0  0  0  0  0  0  0  0  0  0  0  0
   38.2950   23.5610   33.3170 O   0  0  0  0  0  0  0  0  0  0  0  0
   38.1440   24.6920   32.5220 C   0  0  0  0  0  0  0  0  0  0  0  0
   37.2690   25.6840   33.2610 C   0  0  0  0  0  0  0  0  0  0  0  0
   36.1711   20.4576   35.8457 H   0  0  0  0  0  0  0  0  0  0  0  0
   34.8164   19.6566   33.9486 H   0  0  0  0  0  0  0  0  0  0  0  0
   35.1126   20.7170   31.7049 H   0  0  0  0  0  0  0  0  0  0  0  0
   36.7511   22.5530   31.4310 H   0  0  0  0  0  0  0  0  0  0  0  0
   41.0606   22.1470   37.0575 H   0  0  0  0  0  0  0  0  0  0  0  0
   40.0490   23.4491   38.9359 H   0  0  0  0  0  0  0  0  0  0  0  0
   37.6223   24.0486   38.7793 H   0  0  0  0  0  0  0  0  0  0  0  0
   37.6688   24.4154   31.5693 H   0  0  0  0  0  0  0  0  0  0  0  0
   39.1266   25.1392   32.3112 H   0  0  0  0  0  0  0  0  0  0  0  0
   37.3919   25.5447   34.3452 H   0  0  0  0  0  0  0  0  0  0  0  0
   37.5635   26.7078   32.9871 H   0  0  0  0  0  0  0  0  0  0  0  0
   36.2164   25.5196   32.9871 H   0  0  0  0  0  0  0  0  0  0  0  0
  1  2  2  0
  1 11  1  0
  3  2  1  0
  4  3  2  0
  5  4  1  0
  5  6  2  0
  6  1  1  0
  7  8  2  0
  9  8  1  0
 10  9  2  0
 11 12  2  0
 11 10  1  0
 12  7  1  0
 13  6  1  0
 14 15  1  0
 14 13  1  0
  2 16  1  0
  3 17  1  0
  4 18  1  0
  5 19  1  0
  7 20  1  0
  8 21  1  0
  9 22  1  0
 14 23  1  0
 14 24  1  0
 15 25  1  0
 15 26  1  0
 15 27  1  0
M  ISO  8  16  14  17  14  18  14  19  14  20  14  21  14  22  14  23   8
M  ISO  4  24   8  25   8  26   8  27   8
M  END
>  <minimizedAffinity>  (1) 
-4.0364604

>  <minimizedRMSD>  (1) 
0.645013034

$$$$
