
     RDKit          3D

 28 30  0  0  0  0  0  0  0  0999 V2000
   37.1870   22.0040   34.7110 C   0  0  0  0  0  0  0  0  0  0  0  0
   36.3380   20.9260   34.8340 C   0  0  0  0  0  0  0  0  0  0  0  0
   35.5950   20.5020   33.7560 C   0  0  0  0  0  0  0  0  0  0  0  0
   35.7200   21.1810   32.5420 C   0  0  0  0  0  0  0  0  0  0  0  0
   36.5700   22.2500   32.4480 C   0  0  0  0  0  0  0  0  0  0  0  0
   37.3310   22.6950   33.5260 C   0  0  0  0  0  0  0  0  0  0  0  0
   39.9970   22.4170   37.0130 C   0  0  0  0  0  0  0  0  0  0  0  0
   39.4320   23.1180   38.1030 C   0  0  0  0  0  0  0  0  0  0  0  0
   38.0760   23.4440   38.0310 C   0  0  0  0  0  0  0  0  0  0  0  0
   37.3980   23.0710   36.9300 N   0  0  0  0  0  0  0  0  0  0  0  0
   37.9530   22.4000   35.8960 C   0  0  0  0  0  0  0  0  0  0  0  0
   39.2640   22.0750   35.9460 N   0  0  0  0  0  0  0  0  0  0  0  0
   38.1700   23.7640   33.4020 O   0  0  0  0  0  0  0  0  0  0  0  0
   36.7620   26.9730   33.0110 N   0  0  0  0  0  0  0  0  0  0  0  0
   37.0240   25.8390   32.4290 N   0  0  0  0  0  0  0  0  0  0  0  0
   37.6340   25.0420   33.3240 C   0  0  0  0  0  0  0  0  0  0  0  0
   37.7420   25.7590   34.5220 C   0  0  0  0  0  0  0  0  0  0  0  0
   37.1670   27.0120   34.2910 C   0  0  0  0  0  0  0  0  0  0  0  0
   36.2537   20.4022   35.7976 H   0  0  0  0  0  0  0  0  0  0  0  0
   34.9143   19.6429   33.8489 H   0  0  0  0  0  0  0  0  0  0  0  0
   35.1384   20.8585   31.6658 H   0  0  0  0  0  0  0  0  0  0  0  0
   36.6550   22.7766   31.4860 H   0  0  0  0  0  0  0  0  0  0  0  0
   41.0628   22.1465   37.0422 H   0  0  0  0  0  0  0  0  0  0  0  0
   40.0391   23.3968   38.9769 H   0  0  0  0  0  0  0  0  0  0  0  0
   37.5784   23.9878   38.8475 H   0  0  0  0  0  0  0  0  0  0  0  0
   36.2927   27.7591   32.5390 H   0  0  0  0  0  0  0  0  0  0  0  0
   38.1916   25.4052   35.4615 H   0  0  0  0  0  0  0  0  0  0  0  0
   37.0680   27.8462   35.0011 H   0  0  0  0  0  0  0  0  0  0  0  0
  1  2  2  0
  1 11  1  0
  3  2  1  0
  4  3  2  0
  5  4  1  0
  5  6  2  0
  6  1  1  0
  7  8  2  0
  9  8  1  0
 10  9  2  0
 11 12  2  0
 11 10  1  0
 12  7  1  0
 13  6  1  0
 14 18  1  0
 15 14  1  0
 15 16  2  0
 16 13  1  0
 16 17  1  0
 18 17  2  0
  2 19  1  0
  3 20  1  0
  4 21  1  0
  5 22  1  0
  7 23  1  0
  8 24  1  0
  9 25  1  0
 14 26  1  0
 17 27  1  0
 18 28  1  0
M  ISO  8  19  14  20  14  21  14  22  14  23  14  24  14  25  14  26   9
M  ISO  2  27  14  28  14
M  END
>  <minimizedAffinity>  (1) 
-4.69429064

>  <minimizedRMSD>  (1) 
1.08478105

$$$$
