
     RDKit          3D

 36 39  0  0  0  0  0  0  0  0999 V2000
   36.7560   21.6010   33.5840 C   0  0  0  0  0  0  0  0  0  0  0  0
   36.1010   20.4180   33.8630 C   0  0  0  0  0  0  0  0  0  0  0  0
   35.1550   19.9330   32.9860 C   0  0  0  0  0  0  0  0  0  0  0  0
   34.8750   20.6460   31.8250 C   0  0  0  0  0  0  0  0  0  0  0  0
   35.5450   21.8140   31.5800 C   0  0  0  0  0  0  0  0  0  0  0  0
   36.5020   22.3320   32.4410 C   0  0  0  0  0  0  0  0  0  0  0  0
   40.0050   22.3900   35.0820 C   0  0  0  0  0  0  0  0  0  0  0  0
   39.6690   22.9190   36.3380 C   0  0  0  0  0  0  0  0  0  0  0  0
   38.3190   23.0030   36.6660 C   0  0  0  0  0  0  0  0  0  0  0  0
   37.4170   22.5700   35.7570 N   0  0  0  0  0  0  0  0  0  0  0  0
   37.7560   22.0670   34.5600 C   0  0  0  0  0  0  0  0  0  0  0  0
   39.0620   21.9760   34.2190 N   0  0  0  0  0  0  0  0  0  0  0  0
   37.1450   23.4940   32.1630 O   0  0  0  0  0  0  0  0  0  0  0  0
   35.1940   25.9420   30.5380 N   0  0  0  0  0  0  0  0  0  0  0  0
   35.2900   24.6950   30.8800 N   0  0  0  0  0  0  0  0  0  0  0  0
   36.4500   24.5330   31.5450 C   0  0  0  0  0  0  0  0  0  0  0  0
   37.0890   25.7730   31.6020 C   0  0  0  0  0  0  0  0  0  0  0  0
   36.2460   26.6570   30.9410 C   0  0  0  0  0  0  0  0  0  0  0  0
   36.4300   28.0850   30.7070 C   0  0  0  0  0  0  0  0  0  0  0  0
   35.9660   29.0350   31.5930 C   0  0  0  0  0  0  0  0  0  0  0  0
   36.2210   30.3380   31.2270 C   0  0  0  0  0  0  0  0  0  0  0  0
   36.8650   30.6950   30.1080 N   0  0  0  0  0  0  0  0  0  0  0  0
   37.3080   29.7320   29.2590 C   0  0  0  0  0  0  0  0  0  0  0  0
   37.0750   28.4520   29.5860 N   0  0  0  0  0  0  0  0  0  0  0  0
   36.3339   19.8634   34.7840 H   0  0  0  0  0  0  0  0  0  0  0  0
   34.6272   18.9924   33.2018 H   0  0  0  0  0  0  0  0  0  0  0  0
   34.1238   20.2754   31.1120 H   0  0  0  0  0  0  0  0  0  0  0  0
   35.3142   22.3677   30.6580 H   0  0  0  0  0  0  0  0  0  0  0  0
   41.0648   22.3126   34.7977 H   0  0  0  0  0  0  0  0  0  0  0  0
   40.4465   23.2558   37.0395 H   0  0  0  0  0  0  0  0  0  0  0  0
   37.9958   23.4095   37.6357 H   0  0  0  0  0  0  0  0  0  0  0  0
   34.3980   26.3351   30.0158 H   0  0  0  0  0  0  0  0  0  0  0  0
   38.0569   26.0018   32.0718 H   0  0  0  0  0  0  0  0  0  0  0  0
   35.4340   28.7724   32.5193 H   0  0  0  0  0  0  0  0  0  0  0  0
   35.8731   31.1378   31.8973 H   0  0  0  0  0  0  0  0  0  0  0  0
   37.8408   29.9932   28.3328 H   0  0  0  0  0  0  0  0  0  0  0  0
  1  2  2  0
  1 11  1  0
  3  2  1  0
  4  3  2  0
  5  4  1  0
  5  6  2  0
  6  1  1  0
  7  8  2  0
  8  9  1  0
 10  9  2  0
 11 10  1  0
 12 11  2  0
 12  7  1  0
 13  6  1  0
 14 15  1  0
 14 18  1  0
 15 16  2  0
 16 17  1  0
 16 13  1  0
 18 17  2  0
 19 18  1  0
 19 20  2  0
 21 20  1  0
 22 21  2  0
 23 24  2  0
 23 22  1  0
 24 19  1  0
  2 25  1  0
  3 26  1  0
  4 27  1  0
  5 28  1  0
  7 29  1  0
  8 30  1  0
  9 31  1  0
 14 32  1  0
 17 33  1  0
 20 34  1  0
 21 35  1  0
 23 36  1  0
M  ISO  8  25  14  26  14  27  14  28  14  29  14  30  14  31  14  32   9
M  ISO  4  33  14  34  14  35  14  36  14
M  END
>  <minimizedAffinity>  (1) 
-5.71235323

>  <minimizedRMSD>  (1) 
3.43890357

$$$$
