
     RDKit          3D

 30 32  0  0  0  0  0  0  0  0999 V2000
   37.2020   21.9740   34.7040 C   0  0  0  0  0  0  0  0  0  0  0  0
   36.3240   20.9220   34.8550 C   0  0  0  0  0  0  0  0  0  0  0  0
   35.5710   20.4750   33.7950 C   0  0  0  0  0  0  0  0  0  0  0  0
   35.7180   21.1180   32.5580 C   0  0  0  0  0  0  0  0  0  0  0  0
   36.5960   22.1580   32.4360 C   0  0  0  0  0  0  0  0  0  0  0  0
   37.3620   22.6180   33.4980 C   0  0  0  0  0  0  0  0  0  0  0  0
   39.9990   22.4110   37.0050 C   0  0  0  0  0  0  0  0  0  0  0  0
   39.4390   23.1360   38.0710 C   0  0  0  0  0  0  0  0  0  0  0  0
   38.0810   23.4810   38.0000 C   0  0  0  0  0  0  0  0  0  0  0  0
   37.4040   23.0860   36.9010 N   0  0  0  0  0  0  0  0  0  0  0  0
   37.9670   22.3870   35.8840 C   0  0  0  0  0  0  0  0  0  0  0  0
   39.2700   22.0530   35.9470 N   0  0  0  0  0  0  0  0  0  0  0  0
   38.2340   23.6620   33.3490 O   0  0  0  0  0  0  0  0  0  0  0  0
   36.9470   26.8360   32.5190 N   0  0  0  0  0  0  0  0  0  0  0  0
   37.3270   25.6900   32.0630 N   0  0  0  0  0  0  0  0  0  0  0  0
   37.7260   24.9420   33.1200 C   0  0  0  0  0  0  0  0  0  0  0  0
   37.5700   25.7040   34.2730 C   0  0  0  0  0  0  0  0  0  0  0  0
   37.0610   26.9360   33.8650 C   0  0  0  0  0  0  0  0  0  0  0  0
   36.7060   28.0990   34.6040 N   0  0  0  0  0  0  0  0  0  0  0  0
   36.2246   20.4341   35.8358 H   0  0  0  0  0  0  0  0  0  0  0  0
   34.8714   19.6346   33.9145 H   0  0  0  0  0  0  0  0  0  0  0  0
   35.1294   20.7870   31.6897 H   0  0  0  0  0  0  0  0  0  0  0  0
   36.6997   22.6499   31.4576 H   0  0  0  0  0  0  0  0  0  0  0  0
   41.0625   22.1326   37.0442 H   0  0  0  0  0  0  0  0  0  0  0  0
   40.0499   23.4255   38.9388 H   0  0  0  0  0  0  0  0  0  0  0  0
   37.5897   24.0483   38.8043 H   0  0  0  0  0  0  0  0  0  0  0  0
   36.5934   27.5964   31.9209 H   0  0  0  0  0  0  0  0  0  0  0  0
   37.8023   25.3956   35.3030 H   0  0  0  0  0  0  0  0  0  0  0  0
   36.8164   28.1121   35.6280 H   0  0  0  0  0  0  0  0  0  0  0  0
   36.3386   28.9277   34.1150 H   0  0  0  0  0  0  0  0  0  0  0  0
  1  2  2  0
  1 11  1  0
  3  2  1  0
  4  3  2  0
  5  4  1  0
  5  6  2  0
  6  1  1  0
  7  8  2  0
  9  8  1  0
 10  9  2  0
 11 12  2  0
 11 10  1  0
 12  7  1  0
 13  6  1  0
 14 18  1  0
 15 14  1  0
 15 16  2  0
 16 13  1  0
 16 17  1  0
 18 17  2  0
 18 19  1  0
  2 20  1  0
  3 21  1  0
  4 22  1  0
  5 23  1  0
  7 24  1  0
  8 25  1  0
  9 26  1  0
 14 27  1  0
 17 28  1  0
 19 29  1  0
 19 30  1  0
M  ISO  8  20  14  21  14  22  14  23  14  24  14  25  14  26  14  27   9
M  ISO  1  28  14
M  END
>  <minimizedAffinity>  (1) 
-4.91928673

>  <minimizedRMSD>  (1) 
0.262421161

$$$$
