
     RDKit          3D

 41 44  0  0  0  0  0  0  0  0999 V2000
   38.3880   25.9170   31.6290 N   0  0  0  0  0  0  0  0  0  0  0  0
   38.9170   24.7390   31.5370 N   0  0  0  0  0  0  0  0  0  0  0  0
   38.5440   24.0410   32.6260 C   0  0  0  0  0  0  0  0  0  0  0  0
   37.7440   24.8780   33.3950 C   0  0  0  0  0  0  0  0  0  0  0  0
   37.6500   26.0850   32.7430 C   0  0  0  0  0  0  0  0  0  0  0  0
   36.9410   27.2810   33.1240 C   0  0  0  0  0  0  0  0  0  0  0  0
   36.2010   27.9620   32.1770 C   0  0  0  0  0  0  0  0  0  0  0  0
   35.5020   29.0930   32.4910 C   0  0  0  0  0  0  0  0  0  0  0  0
   35.5450   29.5590   33.7920 C   0  0  0  0  0  0  0  0  0  0  0  0
   36.2860   28.8740   34.7330 C   0  0  0  0  0  0  0  0  0  0  0  0
   37.0010   27.7170   34.4070 C   0  0  0  0  0  0  0  0  0  0  0  0
   37.7620   27.2910   35.5360 C   0  0  0  0  0  0  0  0  0  0  0  0
   38.2120   26.6420   36.4710 O   0  0  0  0  0  0  0  0  0  0  0  0
   38.7540   27.9140   36.2400 O   0  0  0  0  0  0  0  0  0  0  0  0
   38.7460   22.7570   33.1520 O   0  0  0  0  0  0  0  0  0  0  0  0
   37.2380   21.6830   34.6910 C   0  0  0  0  0  0  0  0  0  0  0  0
   36.1350   20.8820   34.9330 C   0  0  0  0  0  0  0  0  0  0  0  0
   35.4190   20.3430   33.8920 C   0  0  0  0  0  0  0  0  0  0  0  0
   35.8380   20.6270   32.5760 C   0  0  0  0  0  0  0  0  0  0  0  0
   36.9360   21.4260   32.3530 C   0  0  0  0  0  0  0  0  0  0  0  0
   37.6710   21.9780   33.4060 C   0  0  0  0  0  0  0  0  0  0  0  0
   39.9300   22.4820   37.0030 C   0  0  0  0  0  0  0  0  0  0  0  0
   39.2870   23.2120   38.0260 C   0  0  0  0  0  0  0  0  0  0  0  0
   37.9290   23.4180   37.9020 C   0  0  0  0  0  0  0  0  0  0  0  0
   37.3070   22.9140   36.8260 N   0  0  0  0  0  0  0  0  0  0  0  0
   37.9420   22.2120   35.8500 C   0  0  0  0  0  0  0  0  0  0  0  0
   39.2700   21.9990   35.9500 N   0  0  0  0  0  0  0  0  0  0  0  0
   38.5186   26.6530   30.9203 H   0  0  0  0  0  0  0  0  0  0  0  0
   37.2706   24.6208   34.3540 H   0  0  0  0  0  0  0  0  0  0  0  0
   36.1739   27.5842   31.1443 H   0  0  0  0  0  0  0  0  0  0  0  0
   34.9169   29.6221   31.7244 H   0  0  0  0  0  0  0  0  0  0  0  0
   34.9933   30.4678   34.0744 H   0  0  0  0  0  0  0  0  0  0  0  0
   36.3152   29.2478   35.7671 H   0  0  0  0  0  0  0  0  0  0  0  0
   39.1763   27.4572   37.0101 H   0  0  0  0  0  0  0  0  0  0  0  0
   35.8290   20.6752   35.9691 H   0  0  0  0  0  0  0  0  0  0  0  0
   34.5418   19.7065   34.0801 H   0  0  0  0  0  0  0  0  0  0  0  0
   35.2843   20.2077   31.7230 H   0  0  0  0  0  0  0  0  0  0  0  0
   37.2436   21.6360   31.3180 H   0  0  0  0  0  0  0  0  0  0  0  0
   41.0132   22.3055   37.0772 H   0  0  0  0  0  0  0  0  0  0  0  0
   39.8475   23.6015   38.8887 H   0  0  0  0  0  0  0  0  0  0  0  0
   37.3710   23.9805   38.6651 H   0  0  0  0  0  0  0  0  0  0  0  0
  1  5  1  0
  2  1  1  0
  2  3  2  0
  3 15  1  0
  3  4  1  0
  5  6  1  0
  5  4  2  0
  6 11  2  0
  7  8  2  0
  7  6  1  0
  8  9  1  0
  9 10  2  0
 11 10  1  0
 11 12  1  0
 12 14  1  0
 12 13  2  0
 15 21  1  0
 16 17  2  0
 16 26  1  0
 18 17  1  0
 19 18  2  0
 20 19  1  0
 20 21  2  0
 21 16  1  0
 22 23  2  0
 24 23  1  0
 25 24  2  0
 26 27  2  0
 26 25  1  0
 27 22  1  0
  1 28  1  0
  4 29  1  0
  7 30  1  0
  8 31  1  0
  9 32  1  0
 10 33  1  0
 14 34  1  0
 17 35  1  0
 18 36  1  0
 19 37  1  0
 20 38  1  0
 22 39  1  0
 23 40  1  0
 24 41  1  0
M  ISO  8  28   9  29  14  30  14  31  14  32  14  33  14  34   3  35  14
M  ISO  6  36  14  37  14  38  14  39  14  40  14  41  14
M  END
>  <minimizedAffinity>  (1) 
-6.66706181

>  <minimizedRMSD>  (1) 
0.855750442

$$$$
