
     RDKit          3D

 44 47  0  0  0  0  0  0  0  0999 V2000
   38.7230   22.7710   33.0180 O   0  0  0  0  0  0  0  0  0  0  0  0
   37.2400   21.6920   34.5470 C   0  0  0  0  0  0  0  0  0  0  0  0
   36.1350   20.8850   34.7890 C   0  0  0  0  0  0  0  0  0  0  0  0
   35.4250   20.3600   33.7340 C   0  0  0  0  0  0  0  0  0  0  0  0
   35.8390   20.6570   32.4120 C   0  0  0  0  0  0  0  0  0  0  0  0
   36.9290   21.4530   32.2140 C   0  0  0  0  0  0  0  0  0  0  0  0
   37.6510   21.9870   33.2680 C   0  0  0  0  0  0  0  0  0  0  0  0
   39.9090   22.4270   36.9110 C   0  0  0  0  0  0  0  0  0  0  0  0
   39.2700   23.2150   37.8960 C   0  0  0  0  0  0  0  0  0  0  0  0
   37.9270   23.4840   37.7340 C   0  0  0  0  0  0  0  0  0  0  0  0
   37.3000   22.9810   36.6490 N   0  0  0  0  0  0  0  0  0  0  0  0
   37.9450   22.2190   35.7110 C   0  0  0  0  0  0  0  0  0  0  0  0
   39.2550   21.9470   35.8510 N   0  0  0  0  0  0  0  0  0  0  0  0
   38.4400   25.8860   31.3980 N   0  0  0  0  0  0  0  0  0  0  0  0
   38.9670   24.6980   31.3680 N   0  0  0  0  0  0  0  0  0  0  0  0
   38.5400   24.0360   32.4450 C   0  0  0  0  0  0  0  0  0  0  0  0
   37.7060   24.8820   33.1460 C   0  0  0  0  0  0  0  0  0  0  0  0
   37.6470   26.0840   32.4690 C   0  0  0  0  0  0  0  0  0  0  0  0
   36.9600   27.3080   32.8170 C   0  0  0  0  0  0  0  0  0  0  0  0
   36.4260   28.0800   31.7900 C   0  0  0  0  0  0  0  0  0  0  0  0
   35.7420   29.2440   32.0480 C   0  0  0  0  0  0  0  0  0  0  0  0
   35.6070   29.6110   33.3780 C   0  0  0  0  0  0  0  0  0  0  0  0
   36.1490   28.8250   34.3950 C   0  0  0  0  0  0  0  0  0  0  0  0
   36.8330   27.6680   34.1280 C   0  0  0  0  0  0  0  0  0  0  0  0
   37.3300   27.0260   35.3570 C   0  0  0  0  0  0  0  0  0  0  0  0
   38.7570   27.3600   35.7220 C   0  0  0  0  0  0  0  0  0  0  0  0
   35.8284   20.6663   35.8225 H   0  0  0  0  0  0  0  0  0  0  0  0
   34.5492   19.7193   33.9142 H   0  0  0  0  0  0  0  0  0  0  0  0
   35.2863   20.2493   31.5527 H   0  0  0  0  0  0  0  0  0  0  0  0
   37.2444   21.6778   31.1844 H   0  0  0  0  0  0  0  0  0  0  0  0
   40.9801   22.2022   37.0219 H   0  0  0  0  0  0  0  0  0  0  0  0
   39.8259   23.6009   38.7632 H   0  0  0  0  0  0  0  0  0  0  0  0
   37.3808   24.0926   38.4697 H   0  0  0  0  0  0  0  0  0  0  0  0
   38.6110   26.6019   30.6775 H   0  0  0  0  0  0  0  0  0  0  0  0
   37.1796   24.6411   34.0814 H   0  0  0  0  0  0  0  0  0  0  0  0
   36.5541   27.7514   30.7481 H   0  0  0  0  0  0  0  0  0  0  0  0
   35.3212   29.8560   31.2366 H   0  0  0  0  0  0  0  0  0  0  0  0
   35.0657   30.5336   33.6346 H   0  0  0  0  0  0  0  0  0  0  0  0
   36.0238   29.1429   35.4406 H   0  0  0  0  0  0  0  0  0  0  0  0
   36.6831   27.3382   36.1901 H   0  0  0  0  0  0  0  0  0  0  0  0
   37.3077   25.9427   35.1674 H   0  0  0  0  0  0  0  0  0  0  0  0
   38.8594   27.3840   36.8170 H   0  0  0  0  0  0  0  0  0  0  0  0
   39.4301   26.5951   35.3074 H   0  0  0  0  0  0  0  0  0  0  0  0
   39.0208   28.3442   35.3074 H   0  0  0  0  0  0  0  0  0  0  0  0
  1  7  1  0
  2  3  2  0
  2 12  1  0
  4  3  1  0
  5  4  2  0
  6  5  1  0
  6  7  2  0
  7  2  1  0
  8  9  2  0
 10  9  1  0
 11 10  2  0
 12 13  2  0
 12 11  1  0
 13  8  1  0
 14 18  1  0
 15 14  1  0
 15 16  2  0
 16  1  1  0
 16 17  1  0
 18 19  1  0
 18 17  2  0
 19 24  2  0
 20 21  2  0
 20 19  1  0
 21 22  1  0
 22 23  2  0
 24 23  1  0
 24 25  1  0
 25 26  1  0
  3 27  1  0
  4 28  1  0
  5 29  1  0
  6 30  1  0
  8 31  1  0
  9 32  1  0
 10 33  1  0
 14 34  1  0
 17 35  1  0
 20 36  1  0
 21 37  1  0
 22 38  1  0
 23 39  1  0
 25 40  1  0
 25 41  1  0
 26 42  1  0
 26 43  1  0
 26 44  1  0
M  ISO  8  27  14  28  14  29  14  30  14  31  14  32  14  33  14  34   9
M  ISO  8  35  14  36  14  37  14  38  14  39  14  40   8  41   8  42   8
M  ISO  2  43   8  44   8
M  END
>  <minimizedAffinity>  (1) 
-6.25488663

>  <minimizedRMSD>  (1) 
0.693870485

$$$$
