
     RDKit          3D

 45 49  0  0  0  0  0  0  0  0999 V2000
   37.9230   26.1630   30.5260 N   0  0  0  0  0  0  0  0  0  0  0  0
   38.4050   24.9800   30.3100 N   0  0  0  0  0  0  0  0  0  0  0  0
   38.0970   24.2060   31.3590 C   0  0  0  0  0  0  0  0  0  0  0  0
   37.3840   24.9910   32.2510 C   0  0  0  0  0  0  0  0  0  0  0  0
   37.2790   26.2500   31.7020 C   0  0  0  0  0  0  0  0  0  0  0  0
   36.6350   27.4260   32.2390 C   0  0  0  0  0  0  0  0  0  0  0  0
   35.9800   28.2750   31.3770 C   0  0  0  0  0  0  0  0  0  0  0  0
   35.3210   29.4090   31.8400 C   0  0  0  0  0  0  0  0  0  0  0  0
   35.3460   29.6520   33.2070 C   0  0  0  0  0  0  0  0  0  0  0  0
   36.0190   28.7740   34.0730 C   0  0  0  0  0  0  0  0  0  0  0  0
   36.6640   27.6630   33.5860 C   0  0  0  0  0  0  0  0  0  0  0  0
   37.2860   26.9930   34.7010 C   0  0  0  0  0  0  0  0  0  0  0  0
   38.2240   27.7910   35.3770 C   0  0  0  0  0  0  0  0  0  0  0  0
   38.7250   27.0920   36.4160 N   0  0  0  0  0  0  0  0  0  0  0  0
   38.1160   25.8910   36.3880 C   0  0  0  0  0  0  0  0  0  0  0  0
   37.2420   25.8060   35.3640 N   0  0  0  0  0  0  0  0  0  0  0  0
   38.3090   22.8810   31.7540 O   0  0  0  0  0  0  0  0  0  0  0  0
   37.0780   21.6440   33.4010 C   0  0  0  0  0  0  0  0  0  0  0  0
   35.9960   20.8560   33.7580 C   0  0  0  0  0  0  0  0  0  0  0  0
   35.0550   20.5130   32.8180 C   0  0  0  0  0  0  0  0  0  0  0  0
   35.2190   20.9820   31.4930 C   0  0  0  0  0  0  0  0  0  0  0  0
   36.2990   21.7560   31.1820 C   0  0  0  0  0  0  0  0  0  0  0  0
   37.2590   22.1120   32.1170 C   0  0  0  0  0  0  0  0  0  0  0  0
   40.2400   22.1760   35.1220 C   0  0  0  0  0  0  0  0  0  0  0  0
   39.8530   22.5790   36.4190 C   0  0  0  0  0  0  0  0  0  0  0  0
   38.4970   22.6610   36.6850 C   0  0  0  0  0  0  0  0  0  0  0  0
   37.6350   22.3570   35.6990 N   0  0  0  0  0  0  0  0  0  0  0  0
   38.0360   21.9690   34.4520 C   0  0  0  0  0  0  0  0  0  0  0  0
   39.3550   21.8830   34.1730 N   0  0  0  0  0  0  0  0  0  0  0  0
   38.0225   26.9499   29.8688 H   0  0  0  0  0  0  0  0  0  0  0  0
   36.9764   24.6679   33.2202 H   0  0  0  0  0  0  0  0  0  0  0  0
   35.9774   28.0524   30.2998 H   0  0  0  0  0  0  0  0  0  0  0  0
   34.7996   30.0879   31.1492 H   0  0  0  0  0  0  0  0  0  0  0  0
   34.8358   30.5373   33.6143 H   0  0  0  0  0  0  0  0  0  0  0  0
   36.0296   28.9785   35.1538 H   0  0  0  0  0  0  0  0  0  0  0  0
   38.5043   28.8189   35.1034 H   0  0  0  0  0  0  0  0  0  0  0  0
   38.3071   25.0822   37.1086 H   0  0  0  0  0  0  0  0  0  0  0  0
   36.6523   24.9950   35.1285 H   0  0  0  0  0  0  0  0  0  0  0  0
   35.8903   20.5047   34.7950 H   0  0  0  0  0  0  0  0  0  0  0  0
   34.1922   19.8870   33.0894 H   0  0  0  0  0  0  0  0  0  0  0  0
   34.4810   20.7244   30.7190 H   0  0  0  0  0  0  0  0  0  0  0  0
   36.4126   22.1120   30.1474 H   0  0  0  0  0  0  0  0  0  0  0  0
   41.3122   22.1017   34.8880 H   0  0  0  0  0  0  0  0  0  0  0  0
   40.6011   22.8188   37.1890 H   0  0  0  0  0  0  0  0  0  0  0  0
   38.1341   22.9669   37.6773 H   0  0  0  0  0  0  0  0  0  0  0  0
  1  5  1  0
  2  1  1  0
  2  3  2  0
  3 17  1  0
  3  4  1  0
  5  6  1  0
  5  4  2  0
  6 11  2  0
  7  8  2  0
  7  6  1  0
  8  9  1  0
  9 10  2  0
 11 10  1  0
 11 12  1  0
 12 16  1  0
 12 13  2  0
 13 14  1  0
 15 14  2  0
 16 15  1  0
 17 23  1  0
 18 19  2  0
 18 28  1  0
 20 19  1  0
 21 20  2  0
 22 21  1  0
 22 23  2  0
 23 18  1  0
 24 25  2  0
 25 26  1  0
 27 26  2  0
 28 27  1  0
 29 28  2  0
 29 24  1  0
  1 30  1  0
  4 31  1  0
  7 32  1  0
  8 33  1  0
  9 34  1  0
 10 35  1  0
 13 36  1  0
 15 37  1  0
 16 38  1  0
 19 39  1  0
 20 40  1  0
 21 41  1  0
 22 42  1  0
 24 43  1  0
 25 44  1  0
 26 45  1  0
M  ISO  8  30   9  31  14  32  14  33  14  34  14  35  14  36  14  37  14
M  ISO  8  38   9  39  14  40  14  41  14  42  14  43  14  44  14  45  14
M  END
>  <minimizedAffinity>  (1) 
-6.20426655

>  <minimizedRMSD>  (1) 
1.42167056

$$$$
