
     RDKit          3D

 40 43  0  0  0  0  0  0  0  0999 V2000
   38.5940   23.2280   33.2110 O   0  0  0  0  0  0  0  0  0  0  0  0
   37.2680   21.8690   34.6880 C   0  0  0  0  0  0  0  0  0  0  0  0
   36.2390   20.9580   34.8900 C   0  0  0  0  0  0  0  0  0  0  0  0
   35.5110   20.4940   33.8300 C   0  0  0  0  0  0  0  0  0  0  0  0
   35.8210   20.9560   32.5360 C   0  0  0  0  0  0  0  0  0  0  0  0
   36.8440   21.8570   32.3710 C   0  0  0  0  0  0  0  0  0  0  0  0
   37.5990   22.3430   33.4310 C   0  0  0  0  0  0  0  0  0  0  0  0
   39.9980   22.4120   37.0300 C   0  0  0  0  0  0  0  0  0  0  0  0
   39.4140   23.1650   38.0670 C   0  0  0  0  0  0  0  0  0  0  0  0
   38.0740   23.4770   37.9430 C   0  0  0  0  0  0  0  0  0  0  0  0
   37.4190   23.0480   36.8530 N   0  0  0  0  0  0  0  0  0  0  0  0
   38.0030   22.3220   35.8630 C   0  0  0  0  0  0  0  0  0  0  0  0
   39.3130   22.0060   35.9640 N   0  0  0  0  0  0  0  0  0  0  0  0
   37.9730   26.2890   31.5720 N   0  0  0  0  0  0  0  0  0  0  0  0
   38.5820   25.1540   31.5200 N   0  0  0  0  0  0  0  0  0  0  0  0
   38.2770   24.4740   32.6560 C   0  0  0  0  0  0  0  0  0  0  0  0
   37.4290   25.2830   33.4150 C   0  0  0  0  0  0  0  0  0  0  0  0
   37.2470   26.4480   32.6960 C   0  0  0  0  0  0  0  0  0  0  0  0
   36.4580   27.6060   33.0510 C   0  0  0  0  0  0  0  0  0  0  0  0
   35.5430   28.0940   32.1360 C   0  0  0  0  0  0  0  0  0  0  0  0
   34.7740   29.1950   32.4170 C   0  0  0  0  0  0  0  0  0  0  0  0
   34.9450   29.8120   33.6660 C   0  0  0  0  0  0  0  0  0  0  0  0
   35.8650   29.3180   34.5820 C   0  0  0  0  0  0  0  0  0  0  0  0
   36.6330   28.1980   34.2730 C   0  0  0  0  0  0  0  0  0  0  0  0
   37.5190   27.8240   35.3020 N   0  0  0  0  0  0  0  0  0  0  0  0
   36.0089   20.6084   35.9073 H   0  0  0  0  0  0  0  0  0  0  0  0
   34.6962   19.7715   33.9851 H   0  0  0  0  0  0  0  0  0  0  0  0
   35.2495   20.5987   31.6666 H   0  0  0  0  0  0  0  0  0  0  0  0
   37.0758   22.2093   31.3551 H   0  0  0  0  0  0  0  0  0  0  0  0
   41.0635   22.1489   37.1043 H   0  0  0  0  0  0  0  0  0  0  0  0
   40.0001   23.4909   38.9389 H   0  0  0  0  0  0  0  0  0  0  0  0
   37.5570   24.0621   38.7179 H   0  0  0  0  0  0  0  0  0  0  0  0
   38.0350   27.0012   30.8305 H   0  0  0  0  0  0  0  0  0  0  0  0
   36.9913   25.0399   34.3945 H   0  0  0  0  0  0  0  0  0  0  0  0
   35.4296   27.5901   31.1648 H   0  0  0  0  0  0  0  0  0  0  0  0
   34.0473   29.5815   31.6873 H   0  0  0  0  0  0  0  0  0  0  0  0
   34.3437   30.6967   33.9224 H   0  0  0  0  0  0  0  0  0  0  0  0
   35.9876   29.8138   35.5562 H   0  0  0  0  0  0  0  0  0  0  0  0
   37.5472   28.3638   36.1788 H   0  0  0  0  0  0  0  0  0  0  0  0
   38.1387   27.0107   35.1777 H   0  0  0  0  0  0  0  0  0  0  0  0
  1  7  1  0
  2  3  2  0
  2 12  1  0
  4  3  1  0
  5  4  2  0
  6  5  1  0
  6  7  2  0
  7  2  1  0
  8  9  2  0
 10  9  1  0
 11 10  2  0
 12 13  2  0
 12 11  1  0
 13  8  1  0
 14 18  1  0
 15 14  1  0
 15 16  2  0
 16  1  1  0
 16 17  1  0
 18 19  1  0
 18 17  2  0
 19 24  2  0
 20 21  2  0
 20 19  1  0
 21 22  1  0
 22 23  2  0
 24 23  1  0
 24 25  1  0
  3 26  1  0
  4 27  1  0
  5 28  1  0
  6 29  1  0
  8 30  1  0
  9 31  1  0
 10 32  1  0
 14 33  1  0
 17 34  1  0
 20 35  1  0
 21 36  1  0
 22 37  1  0
 23 38  1  0
 25 39  1  0
 25 40  1  0
M  ISO  8  26  14  27  14  28  14  29  14  30  14  31  14  32  14  33   9
M  ISO  5  34  14  35  14  36  14  37  14  38  14
M  END
>  <minimizedAffinity>  (1) 
-5.97083569

>  <minimizedRMSD>  (1) 
0.524029732

$$$$
