
     RDKit          3D

 49 53  0  0  0  0  0  0  0  0999 V2000
   36.0310   25.3890   31.9280 N   0  0  0  0  0  0  0  0  0  0  0  0
   35.2710   24.5090   31.3610 N   0  0  0  0  0  0  0  0  0  0  0  0
   36.0160   23.4140   31.1330 C   0  0  0  0  0  0  0  0  0  0  0  0
   37.3000   23.6750   31.6010 C   0  0  0  0  0  0  0  0  0  0  0  0
   37.2960   24.9560   32.1110 C   0  0  0  0  0  0  0  0  0  0  0  0
   38.3620   25.7150   32.7200 C   0  0  0  0  0  0  0  0  0  0  0  0
   38.5110   25.7250   34.0840 C   0  0  0  0  0  0  0  0  0  0  0  0
   39.5140   26.4130   34.7150 C   0  0  0  0  0  0  0  0  0  0  0  0
   40.4050   27.1210   33.9070 C   0  0  0  0  0  0  0  0  0  0  0  0
   40.2610   27.1170   32.5080 C   0  0  0  0  0  0  0  0  0  0  0  0
   39.2210   26.4030   31.9130 C   0  0  0  0  0  0  0  0  0  0  0  0
   39.3340   26.6750   30.5380 N   0  0  0  0  0  0  0  0  0  0  0  0
   38.9320   27.9890   30.4350 C   0  0  0  0  0  0  0  0  0  0  0  0
   38.9700   28.6780   29.2090 C   0  0  0  0  0  0  0  0  0  0  0  0
   39.4380   27.9620   28.1000 C   0  0  0  0  0  0  0  0  0  0  0  0
   39.5180   28.6330   26.8390 N   0  0  0  0  0  0  0  0  0  0  0  0
   39.8180   26.6810   28.2500 N   0  0  0  0  0  0  0  0  0  0  0  0
   39.7710   26.0480   29.4330 C   0  0  0  0  0  0  0  0  0  0  0  0
   40.0810   24.8760   29.7430 O   0  0  0  0  0  0  0  0  0  0  0  0
   35.8430   22.1400   30.5700 O   0  0  0  0  0  0  0  0  0  0  0  0
   36.3670   19.8550   31.0530 C   0  0  0  0  0  0  0  0  0  0  0  0
   36.3140   18.7470   31.8830 C   0  0  0  0  0  0  0  0  0  0  0  0
   35.6650   18.8320   33.0870 C   0  0  0  0  0  0  0  0  0  0  0  0
   35.0690   20.0510   33.4460 C   0  0  0  0  0  0  0  0  0  0  0  0
   35.1440   21.1210   32.5970 C   0  0  0  0  0  0  0  0  0  0  0  0
   35.7930   21.0560   31.3800 C   0  0  0  0  0  0  0  0  0  0  0  0
   37.1400   18.7950   27.6460 C   0  0  0  0  0  0  0  0  0  0  0  0
   38.3980   19.3680   27.3910 C   0  0  0  0  0  0  0  0  0  0  0  0
   38.9810   20.1240   28.4080 C   0  0  0  0  0  0  0  0  0  0  0  0
   38.3080   20.2610   29.5640 N   0  0  0  0  0  0  0  0  0  0  0  0
   37.0820   19.6890   29.7800 C   0  0  0  0  0  0  0  0  0  0  0  0
   36.5090   18.9530   28.8030 N   0  0  0  0  0  0  0  0  0  0  0  0
   35.7042   26.3240   32.2107 H   0  0  0  0  0  0  0  0  0  0  0  0
   38.1582   22.9876   31.5699 H   0  0  0  0  0  0  0  0  0  0  0  0
   37.7953   25.1570   34.6965 H   0  0  0  0  0  0  0  0  0  0  0  0
   39.6127   26.4076   35.8106 H   0  0  0  0  0  0  0  0  0  0  0  0
   41.2273   27.6873   34.3686 H   0  0  0  0  0  0  0  0  0  0  0  0
   40.9701   27.6782   31.8817 H   0  0  0  0  0  0  0  0  0  0  0  0
   38.5726   28.5121   31.3334 H   0  0  0  0  0  0  0  0  0  0  0  0
   38.6482   29.7266   29.1256 H   0  0  0  0  0  0  0  0  0  0  0  0
   39.2185   29.6152   26.7584 H   0  0  0  0  0  0  0  0  0  0  0  0
   39.8751   28.1339   26.0118 H   0  0  0  0  0  0  0  0  0  0  0  0
   36.7904   17.8039   31.5772 H   0  0  0  0  0  0  0  0  0  0  0  0
   35.6122   17.9624   33.7586 H   0  0  0  0  0  0  0  0  0  0  0  0
   34.5430   20.1457   34.4074 H   0  0  0  0  0  0  0  0  0  0  0  0
   34.6699   22.0679   32.8948 H   0  0  0  0  0  0  0  0  0  0  0  0
   36.6614   18.1942   26.8586 H   0  0  0  0  0  0  0  0  0  0  0  0
   38.9042   19.2254   26.4248 H   0  0  0  0  0  0  0  0  0  0  0  0
   39.9649   20.5955   28.2681 H   0  0  0  0  0  0  0  0  0  0  0  0
  1  5  1  0
  2  1  1  0
  3  2  2  0
  3  4  1  0
  4  5  2  0
  5  6  1  0
  6  7  2  0
  7  8  1  0
  9  8  2  0
 10  9  1  0
 11 10  2  0
 11  6  1  0
 12 11  1  0
 13 12  1  0
 14 13  2  0
 15 17  2  0
 15 14  1  0
 16 15  1  0
 17 18  1  0
 18 19  2  0
 18 12  1  0
 20  3  1  0
 20 26  1  0
 21 26  1  0
 21 22  2  0
 22 23  1  0
 23 24  2  0
 25 24  1  0
 26 25  2  0
 27 32  2  0
 28 27  1  0
 28 29  2  0
 29 30  1  0
 30 31  2  0
 31 21  1  0
 32 31  1  0
  1 33  1  0
  4 34  1  0
  7 35  1  0
  8 36  1  0
  9 37  1  0
 10 38  1  0
 13 39  1  0
 14 40  1  0
 16 41  1  0
 16 42  1  0
 22 43  1  0
 23 44  1  0
 24 45  1  0
 25 46  1  0
 27 47  1  0
 28 48  1  0
 29 49  1  0
M  ISO  8  33   9  34  14  35  14  36  14  37  14  38  14  39  14  40  14
M  ISO  7  43  14  44  14  45  14  46  14  47  14  48  14  49  14
M  END
>  <minimizedAffinity>  (1) 
-5.92173481

>  <minimizedRMSD>  (1) 
6.58217955

$$$$
