
     RDKit          3D

 34 37  0  0  1  0  0  0  0  0999 V2000
   38.5590   25.0350   33.4440 C   0  0  1  0  0  0  0  0  0  0  0  0
   38.7670   26.3100   32.6970 C   0  0  0  0  0  0  0  0  0  0  0  0
   39.2350   27.3220   33.7290 C   0  0  0  0  0  0  0  0  0  0  0  0
   39.1970   26.6390   35.0540 C   0  0  0  0  0  0  0  0  0  0  0  0
   38.2270   25.5040   34.8390 C   0  0  2  0  0  0  0  0  0  0  0  0
   38.5330   24.5280   35.8670 N   0  0  0  0  0  0  0  0  0  0  0  0
   37.6420   24.1440   36.8300 C   0  0  0  0  0  0  0  0  0  0  0  0
   38.1860   23.2340   37.6560 N   0  0  0  0  0  0  0  0  0  0  0  0
   39.4400   23.0070   37.2480 C   0  0  0  0  0  0  0  0  0  0  0  0
   40.4720   22.1980   37.6810 C   0  0  0  0  0  0  0  0  0  0  0  0
   41.6620   22.2080   37.0160 N   0  0  0  0  0  0  0  0  0  0  0  0
   41.8180   22.9990   35.9550 C   0  0  0  0  0  0  0  0  0  0  0  0
   40.8090   23.7830   35.5390 N   0  0  0  0  0  0  0  0  0  0  0  0
   39.6280   23.8150   36.1460 C   0  0  0  0  0  0  0  0  0  0  0  0
   37.5620   22.7810   33.0050 C   0  0  0  0  0  0  0  0  0  0  0  0
   37.5400   24.1660   32.8390 C   0  0  0  0  0  0  0  0  0  0  0  0
   36.5110   24.7250   32.0510 C   0  0  0  0  0  0  0  0  0  0  0  0
   35.5910   23.9060   31.4930 N   0  0  0  0  0  0  0  0  0  0  0  0
   35.6390   22.5610   31.6740 C   0  0  0  0  0  0  0  0  0  0  0  0
   36.6150   22.0250   32.4200 N   0  0  0  0  0  0  0  0  0  0  0  0
   39.4426   24.3799   33.4299 H   0  0  0  0  0  0  0  0  0  0  0  0
   39.5311   26.1768   31.9170 H   0  0  0  0  0  0  0  0  0  0  0  0
   37.8458   26.6401   32.1946 H   0  0  0  0  0  0  0  0  0  0  0  0
   40.2605   27.6482   33.5009 H   0  0  0  0  0  0  0  0  0  0  0  0
   38.5903   28.2132   33.7269 H   0  0  0  0  0  0  0  0  0  0  0  0
   40.1920   26.2588   35.3288 H   0  0  0  0  0  0  0  0  0  0  0  0
   38.8964   27.3095   35.8725 H   0  0  0  0  0  0  0  0  0  0  0  0
   37.1541   25.7352   34.9121 H   0  0  0  0  0  0  0  0  0  0  0  0
   36.6153   24.5290   36.9173 H   0  0  0  0  0  0  0  0  0  0  0  0
   40.3345   21.5487   38.5582 H   0  0  0  0  0  0  0  0  0  0  0  0
   42.7774   23.0102   35.4171 H   0  0  0  0  0  0  0  0  0  0  0  0
   38.3495   22.3094   33.6111 H   0  0  0  0  0  0  0  0  0  0  0  0
   36.4582   25.8123   31.8929 H   0  0  0  0  0  0  0  0  0  0  0  0
   34.8799   21.9140   31.2102 H   0  0  0  0  0  0  0  0  0  0  0  0
  1  5  1  0
  2  1  1  0
  2  3  1  0
  3  4  1  0
  5  4  1  0
  5  6  1  0
  6 14  1  0
  6  7  1  0
  7  8  2  0
  9  8  1  0
  9 10  2  0
 11 10  1  0
 12 11  2  0
 13 12  1  0
 13 14  2  0
 14  9  1  0
 16 15  2  0
 16  1  1  0
 17 16  1  0
 18 19  1  0
 18 17  2  0
 19 20  2  0
 20 15  1  0
  1 21  1  1
  2 22  1  0
  2 23  1  0
  3 24  1  0
  3 25  1  0
  4 26  1  0
  4 27  1  0
  5 28  1  6
  7 29  1  0
 10 30  1  0
 12 31  1  0
 15 32  1  0
 17 33  1  0
 19 34  1  0
M  ISO  8  21  13  22  13  23  13  24  13  25  13  26  13  27  13  28  13
M  ISO  6  29  14  30  14  31  14  32  14  33  14  34  14
M  END
>  <minimizedAffinity>  (1) 
-5.05248642

>  <minimizedRMSD>  (1) 
4.8967495

$$$$
