
     RDKit          3D

 36 38  0  0  1  0  0  0  0  0999 V2000
   39.6530   23.4510   36.3130 C   0  0  1  0  0  0  0  0  0  0  0  0
   39.5480   22.8620   37.7080 C   0  0  0  0  0  0  0  0  0  0  0  0
   38.2310   23.3320   38.2570 C   0  0  0  0  0  0  0  0  0  0  0  0
   37.6300   24.2140   37.2120 C   0  0  0  0  0  0  0  0  0  0  0  0
   38.8400   24.6750   36.4110 C   0  0  2  0  0  0  0  0  0  0  0  0
   38.4180   25.3180   35.2060 N   0  0  0  0  0  0  0  0  0  0  0  0
   37.8520   24.5890   34.1950 C   0  0  0  0  0  0  0  0  0  0  0  0
   37.4240   25.0990   33.0060 C   0  0  0  0  0  0  0  0  0  0  0  0
   36.8220   24.2590   31.9560 C   0  0  0  0  0  0  0  0  0  0  0  0
   37.5610   26.4520   32.7790 C   0  0  0  0  0  0  0  0  0  0  0  0
   37.2060   27.0410   31.7250 O   0  0  0  0  0  0  0  0  0  0  0  0
   38.1150   27.1730   33.7650 N   0  0  0  0  0  0  0  0  0  0  0  0
   38.5250   26.6300   34.9260 C   0  0  0  0  0  0  0  0  0  0  0  0
   39.0260   27.3720   35.7820 O   0  0  0  0  0  0  0  0  0  0  0  0
   41.3540   24.2490   34.7040 C   0  0  0  0  0  0  0  0  0  0  0  0
   41.0560   23.6070   35.9020 C   0  0  0  0  0  0  0  0  0  0  0  0
   42.1040   23.1100   36.6860 C   0  0  0  0  0  0  0  0  0  0  0  0
   43.3680   23.2780   36.2420 N   0  0  0  0  0  0  0  0  0  0  0  0
   43.6480   23.9080   35.0700 C   0  0  0  0  0  0  0  0  0  0  0  0
   42.6340   24.3940   34.2990 N   0  0  0  0  0  0  0  0  0  0  0  0
   39.2692   22.8181   35.4993 H   0  0  0  0  0  0  0  0  0  0  0  0
   39.5728   21.7632   37.6620 H   0  0  0  0  0  0  0  0  0  0  0  0
   40.3869   23.1804   38.3443 H   0  0  0  0  0  0  0  0  0  0  0  0
   37.5728   22.4731   38.4546 H   0  0  0  0  0  0  0  0  0  0  0  0
   38.3640   23.8715   39.2063 H   0  0  0  0  0  0  0  0  0  0  0  0
   36.9274   23.6530   36.5782 H   0  0  0  0  0  0  0  0  0  0  0  0
   37.0471   25.0468   37.6323 H   0  0  0  0  0  0  0  0  0  0  0  0
   39.4622   25.4664   36.8545 H   0  0  0  0  0  0  0  0  0  0  0  0
   37.7334   23.5072   34.3548 H   0  0  0  0  0  0  0  0  0  0  0  0
   36.2416   23.4492   32.4222 H   0  0  0  0  0  0  0  0  0  0  0  0
   36.1574   24.8735   31.3309 H   0  0  0  0  0  0  0  0  0  0  0  0
   37.6175   23.8271   31.3309 H   0  0  0  0  0  0  0  0  0  0  0  0
   38.2318   28.1871   33.6275 H   0  0  0  0  0  0  0  0  0  0  0  0
   40.5381   24.6427   34.0801 H   0  0  0  0  0  0  0  0  0  0  0  0
   41.9031   22.5966   37.6379 H   0  0  0  0  0  0  0  0  0  0  0  0
   44.6920   24.0255   34.7441 H   0  0  0  0  0  0  0  0  0  0  0  0
  1  5  1  0
  1  2  1  0
  2  3  1  0
  4  3  1  0
  5  4  1  0
  6  5  1  0
  7  6  1  0
  8  7  2  0
  9  8  1  0
 10  8  1  0
 10 12  1  0
 11 10  2  0
 12 13  1  0
 13  6  1  0
 13 14  2  0
 15 16  2  0
 16  1  1  0
 16 17  1  0
 18 17  2  0
 19 18  1  0
 20 15  1  0
 20 19  2  0
  1 21  1  6
  2 22  1  0
  2 23  1  0
  3 24  1  0
  3 25  1  0
  4 26  1  0
  4 27  1  0
  5 28  1  1
  7 29  1  0
  9 30  1  0
  9 31  1  0
  9 32  1  0
 12 33  1  0
 15 34  1  0
 17 35  1  0
 19 36  1  0
M  ISO  8  21  13  22  13  23  13  24  13  25  13  26  13  27  13  28  13
M  ISO  8  29  14  30   8  31   8  32   8  33   9  34  14  35  14  36  14
M  END
>  <minimizedAffinity>  (1) 
-4.82508898

>  <minimizedRMSD>  (1) 
5.24212313

$$$$
