
     RDKit          3D

 33 35  0  0  1  0  0  0  0  0999 V2000
   38.8630   25.7540   34.6780 C   0  0  1  0  0  0  0  0  0  0  0  0
   39.9830   26.7710   34.8030 C   0  0  0  0  0  0  0  0  0  0  0  0
   40.2810   27.1980   33.3920 C   0  0  0  0  0  0  0  0  0  0  0  0
   39.4140   26.3730   32.4970 C   0  0  0  0  0  0  0  0  0  0  0  0
   39.1320   25.1380   33.3470 C   0  0  2  0  0  0  0  0  0  0  0  0
   39.7460   23.8050   35.9450 C   0  0  0  0  0  0  0  0  0  0  0  0
   38.8160   24.8330   35.8060 C   0  0  0  0  0  0  0  0  0  0  0  0
   37.8140   24.9500   36.7940 C   0  0  0  0  0  0  0  0  0  0  0  0
   37.8020   24.0690   37.8150 N   0  0  0  0  0  0  0  0  0  0  0  0
   38.7210   23.0740   37.9260 C   0  0  0  0  0  0  0  0  0  0  0  0
   39.6940   22.9490   36.9810 N   0  0  0  0  0  0  0  0  0  0  0  0
   37.9270   24.5210   32.7430 C   0  0  0  0  0  0  0  0  0  0  0  0
   36.9300   25.2790   32.1130 C   0  0  0  0  0  0  0  0  0  0  0  0
   35.7980   24.7310   31.5460 C   0  0  0  0  0  0  0  0  0  0  0  0
   35.6130   23.3660   31.5890 C   0  0  0  0  0  0  0  0  0  0  0  0
   36.5550   22.5790   32.1930 C   0  0  0  0  0  0  0  0  0  0  0  0
   37.6730   23.1670   32.7470 C   0  0  0  0  0  0  0  0  0  0  0  0
   37.8508   26.1827   34.7192 H   0  0  0  0  0  0  0  0  0  0  0  0
   39.6584   27.6313   35.4068 H   0  0  0  0  0  0  0  0  0  0  0  0
   40.8682   26.3511   35.3031 H   0  0  0  0  0  0  0  0  0  0  0  0
   40.0502   28.2658   33.2631 H   0  0  0  0  0  0  0  0  0  0  0  0
   41.3449   27.0529   33.1529 H   0  0  0  0  0  0  0  0  0  0  0  0
   39.9426   26.1044   31.5705 H   0  0  0  0  0  0  0  0  0  0  0  0
   38.5025   26.8951   32.1705 H   0  0  0  0  0  0  0  0  0  0  0  0
   39.9092   24.3627   33.4162 H   0  0  0  0  0  0  0  0  0  0  0  0
   40.5394   23.6911   35.1916 H   0  0  0  0  0  0  0  0  0  0  0  0
   37.0568   25.7455   36.7320 H   0  0  0  0  0  0  0  0  0  0  0  0
   38.6794   22.3741   38.7736 H   0  0  0  0  0  0  0  0  0  0  0  0
   37.0573   26.3707   32.0683 H   0  0  0  0  0  0  0  0  0  0  0  0
   35.0499   25.3776   31.0640 H   0  0  0  0  0  0  0  0  0  0  0  0
   34.7158   22.9133   31.1416 H   0  0  0  0  0  0  0  0  0  0  0  0
   36.4221   21.4879   32.2364 H   0  0  0  0  0  0  0  0  0  0  0  0
   38.4134   22.5089   33.2253 H   0  0  0  0  0  0  0  0  0  0  0  0
  1  2  1  0
  1  7  1  0
  3  2  1  0
  4  5  1  0
  4  3  1  0
  5  1  1  0
  6 11  2  0
  7  6  1  0
  7  8  2  0
  8  9  1  0
  9 10  2  0
 11 10  1  0
 12 17  1  0
 12  5  1  0
 13 12  2  0
 14 15  2  0
 14 13  1  0
 15 16  1  0
 16 17  2  0
  1 18  1  6
  2 19  1  0
  2 20  1  0
  3 21  1  0
  3 22  1  0
  4 23  1  0
  4 24  1  0
  5 25  1  1
  6 26  1  0
  8 27  1  0
 10 28  1  0
 13 29  1  0
 14 30  1  0
 15 31  1  0
 16 32  1  0
 17 33  1  0
M  ISO  8  18  13  19  13  20  13  21  13  22  13  23  13  24  13  25  13
M  ISO  8  26  14  27  14  28  14  29  14  30  14  31  14  32  14  33  14
M  END
>  <minimizedAffinity>  (1) 
-4.69366837

>  <minimizedRMSD>  (1) 
5.19305563

$$$$
