
     RDKit          3D

 31 33  0  0  1  0  0  0  0  0999 V2000
   39.8170   24.6380   35.1960 C   0  0  1  0  0  0  0  0  0  0  0  0
   40.1010   23.6300   36.2770 C   0  0  0  0  0  0  0  0  0  0  0  0
   38.7760   23.4130   36.9740 C   0  0  0  0  0  0  0  0  0  0  0  0
   37.8180   24.3890   36.3850 C   0  0  0  0  0  0  0  0  0  0  0  0
   38.7140   25.4540   35.7820 C   0  0  2  0  0  0  0  0  0  0  0  0
   40.9120   26.5990   34.1300 C   0  0  0  0  0  0  0  0  0  0  0  0
   41.0130   25.3810   34.7950 C   0  0  0  0  0  0  0  0  0  0  0  0
   42.2880   24.8640   35.0690 C   0  0  0  0  0  0  0  0  0  0  0  0
   43.3630   25.5770   34.6720 N   0  0  0  0  0  0  0  0  0  0  0  0
   43.2550   26.7680   34.0220 C   0  0  0  0  0  0  0  0  0  0  0  0
   42.0190   27.2760   33.7530 N   0  0  0  0  0  0  0  0  0  0  0  0
   37.8760   26.1870   34.8260 C   0  0  0  0  0  0  0  0  0  0  0  0
   37.3940   27.4510   35.1520 C   0  0  0  0  0  0  0  0  0  0  0  0
   36.6030   28.1890   34.2840 C   0  0  0  0  0  0  0  0  0  0  0  0
   36.2930   27.6490   33.0710 N   0  0  0  0  0  0  0  0  0  0  0  0
   36.7570   26.4260   32.7510 C   0  0  0  0  0  0  0  0  0  0  0  0
   37.5250   25.7080   33.5950 N   0  0  0  0  0  0  0  0  0  0  0  0
   39.5115   24.1967   34.2358 H   0  0  0  0  0  0  0  0  0  0  0  0
   40.4661   22.6886   35.8405 H   0  0  0  0  0  0  0  0  0  0  0  0
   40.8788   23.9798   36.9717 H   0  0  0  0  0  0  0  0  0  0  0  0
   38.4224   22.3853   36.8046 H   0  0  0  0  0  0  0  0  0  0  0  0
   38.8717   23.5586   38.0601 H   0  0  0  0  0  0  0  0  0  0  0  0
   37.1992   23.9125   35.6104 H   0  0  0  0  0  0  0  0  0  0  0  0
   37.1134   24.7945   37.1260 H   0  0  0  0  0  0  0  0  0  0  0  0
   39.1457   26.2200   36.4429 H   0  0  0  0  0  0  0  0  0  0  0  0
   39.9185   27.0160   33.9084 H   0  0  0  0  0  0  0  0  0  0  0  0
   42.4083   23.9042   35.5928 H   0  0  0  0  0  0  0  0  0  0  0  0
   44.1582   27.3164   33.7161 H   0  0  0  0  0  0  0  0  0  0  0  0
   37.6492   27.8799   36.1323 H   0  0  0  0  0  0  0  0  0  0  0  0
   36.2346   29.1860   34.5674 H   0  0  0  0  0  0  0  0  0  0  0  0
   36.5013   25.9993   31.7699 H   0  0  0  0  0  0  0  0  0  0  0  0
  1  5  1  0
  1  2  1  0
  2  3  1  0
  4  3  1  0
  5  4  1  0
  6  7  2  0
  7  8  1  0
  7  1  1  0
  9  8  2  0
 10  9  1  0
 11 10  2  0
 11  6  1  0
 12 13  2  0
 12  5  1  0
 14 13  1  0
 15 14  2  0
 16 15  1  0
 16 17  2  0
 17 12  1  0
  1 18  1  6
  2 19  1  0
  2 20  1  0
  3 21  1  0
  3 22  1  0
  4 23  1  0
  4 24  1  0
  5 25  1  1
  6 26  1  0
  8 27  1  0
 10 28  1  0
 13 29  1  0
 14 30  1  0
 16 31  1  0
M  ISO  8  18  13  19  13  20  13  21  13  22  13  23  13  24  13  25  13
M  ISO  6  26  14  27  14  28  14  29  14  30  14  31  14
M  END
>  <minimizedAffinity>  (1) 
-4.2014823

>  <minimizedRMSD>  (1) 
4.88467932

$$$$
