
     RDKit          3D

 26 27  0  0  1  0  0  0  0  0999 V2000
   39.4110   22.7910   37.1750 C   0  0  1  0  0  0  0  0  0  0  0  0
   39.2440   23.3870   38.5410 C   0  0  0  0  0  0  0  0  0  0  0  0
   37.9560   24.1570   38.4940 C   0  0  0  0  0  0  0  0  0  0  0  0
   37.5660   24.2850   37.0690 C   0  0  0  0  0  0  0  0  0  0  0  0
   38.7210   23.7600   36.2820 C   0  0  2  0  0  0  0  0  0  0  0  0
   41.5870   23.4140   36.0650 C   0  0  0  0  0  0  0  0  0  0  0  0
   40.8340   22.5380   36.8510 C   0  0  0  0  0  0  0  0  0  0  0  0
   41.4720   21.3750   37.3220 C   0  0  0  0  0  0  0  0  0  0  0  0
   42.7660   21.1880   36.9800 N   0  0  0  0  0  0  0  0  0  0  0  0
   43.4640   22.0440   36.2230 C   0  0  0  0  0  0  0  0  0  0  0  0
   42.8590   23.1730   35.7620 N   0  0  0  0  0  0  0  0  0  0  0  0
   38.0640   22.9370   35.1860 C   0  0  0  0  0  0  0  0  0  0  0  0
   37.4140   21.8340   35.1850 O   0  0  0  0  0  0  0  0  0  0  0  0
   38.2510   23.5780   33.9680 O   0  0  0  0  0  0  0  0  0  0  0  0
   38.9708   21.7884   37.0702 H   0  0  0  0  0  0  0  0  0  0  0  0
   39.1891   22.5940   39.3013 H   0  0  0  0  0  0  0  0  0  0  0  0
   40.0933   24.0327   38.8087 H   0  0  0  0  0  0  0  0  0  0  0  0
   37.1752   23.6175   39.0502 H   0  0  0  0  0  0  0  0  0  0  0  0
   38.0803   25.1491   38.9527 H   0  0  0  0  0  0  0  0  0  0  0  0
   36.6622   23.6922   36.8646 H   0  0  0  0  0  0  0  0  0  0  0  0
   37.3365   25.3277   36.8043 H   0  0  0  0  0  0  0  0  0  0  0  0
   39.4051   24.5356   35.9073 H   0  0  0  0  0  0  0  0  0  0  0  0
   41.1130   24.3311   35.6852 H   0  0  0  0  0  0  0  0  0  0  0  0
   40.9364   20.6445   37.9461 H   0  0  0  0  0  0  0  0  0  0  0  0
   44.5158   21.8370   35.9761 H   0  0  0  0  0  0  0  0  0  0  0  0
   37.8863   23.1801   33.1381 H   0  0  0  0  0  0  0  0  0  0  0  0
  1  2  1  0
  3  2  1  0
  4  3  1  0
  5  4  1  0
  5  1  1  0
  6  7  2  0
  7  1  1  0
  7  8  1  0
  9  8  2  0
 10  9  1  0
 11  6  1  0
 11 10  2  0
 12  5  1  0
 13 12  2  0
 14 12  1  0
  1 15  1  1
  2 16  1  0
  2 17  1  0
  3 18  1  0
  3 19  1  0
  4 20  1  0
  4 21  1  0
  5 22  1  6
  6 23  1  0
  8 24  1  0
 10 25  1  0
 14 26  1  0
M  ISO  8  15  13  16  13  17  13  18  13  19  13  20  13  21  13  22  13
M  ISO  4  23  14  24  14  25  14  26   3
M  END
>  <minimizedAffinity>  (1) 
-4.07112169

>  <minimizedRMSD>  (1) 
4.40031099

$$$$
