
     RDKit          3D

 39 41  0  0  1  0  0  0  0  0999 V2000
   38.4900   25.7080   30.9590 C   0  0  1  0  0  0  0  0  0  0  0  0
   38.5800   27.1700   30.6290 C   0  0  0  0  0  0  0  0  0  0  0  0
   39.9290   27.5950   31.1470 C   0  0  0  0  0  0  0  0  0  0  0  0
   40.4780   26.4670   31.9610 C   0  0  0  0  0  0  0  0  0  0  0  0
   39.2790   25.6240   32.2410 C   0  0  1  0  0  0  0  0  0  0  0  0
   36.9460   23.7820   31.0650 C   0  0  0  0  0  0  0  0  0  0  0  0
   37.1670   25.1540   30.9900 C   0  0  0  0  0  0  0  0  0  0  0  0
   36.0720   26.0560   30.8850 C   0  0  0  0  0  0  0  0  0  0  0  0
   34.8250   25.5160   30.8580 N   0  0  0  0  0  0  0  0  0  0  0  0
   34.6330   24.1790   30.9310 C   0  0  0  0  0  0  0  0  0  0  0  0
   35.6820   23.3130   31.0350 N   0  0  0  0  0  0  0  0  0  0  0  0
   38.5360   25.8920   33.4840 C   0  0  0  0  0  0  0  0  0  0  0  0
   39.3840   25.5320   34.6910 C   0  0  0  0  0  0  0  0  0  0  0  0
   39.7970   26.7250   35.5040 C   0  0  0  0  0  0  0  0  0  0  0  0
   38.5800   27.3380   36.1190 C   0  0  0  0  0  0  0  0  0  0  0  0
   37.4730   27.3650   35.1240 C   0  0  0  0  0  0  0  0  0  0  0  0
   37.9600   27.2460   33.6720 C   0  0  0  0  0  0  0  0  0  0  0  0
   38.9009   25.0631   30.1683 H   0  0  0  0  0  0  0  0  0  0  0  0
   38.5143   27.3274   29.5423 H   0  0  0  0  0  0  0  0  0  0  0  0
   37.7598   27.7498   31.0774 H   0  0  0  0  0  0  0  0  0  0  0  0
   40.6025   27.8121   30.3049 H   0  0  0  0  0  0  0  0  0  0  0  0
   39.8382   28.5042   31.7594 H   0  0  0  0  0  0  0  0  0  0  0  0
   41.2317   25.9023   31.3926 H   0  0  0  0  0  0  0  0  0  0  0  0
   40.9864   26.8063   32.8756 H   0  0  0  0  0  0  0  0  0  0  0  0
   39.5674   24.5922   32.4903 H   0  0  0  0  0  0  0  0  0  0  0  0
   37.7943   23.0867   31.1480 H   0  0  0  0  0  0  0  0  0  0  0  0
   36.2278   27.1434   30.8281 H   0  0  0  0  0  0  0  0  0  0  0  0
   33.6078   23.7810   30.9059 H   0  0  0  0  0  0  0  0  0  0  0  0
   37.6521   25.2452   33.3823 H   0  0  0  0  0  0  0  0  0  0  0  0
   38.8046   24.8542   35.3351 H   0  0  0  0  0  0  0  0  0  0  0  0
   40.3036   25.0605   34.3141 H   0  0  0  0  0  0  0  0  0  0  0  0
   40.4916   26.4091   36.2963 H   0  0  0  0  0  0  0  0  0  0  0  0
   40.2981   27.4606   34.8576 H   0  0  0  0  0  0  0  0  0  0  0  0
   38.2725   26.7432   36.9917 H   0  0  0  0  0  0  0  0  0  0  0  0
   38.8105   28.3662   36.4347 H   0  0  0  0  0  0  0  0  0  0  0  0
   36.7935   26.5260   35.3345 H   0  0  0  0  0  0  0  0  0  0  0  0
   36.9706   28.3387   35.2210 H   0  0  0  0  0  0  0  0  0  0  0  0
   38.7282   28.0079   33.4736 H   0  0  0  0  0  0  0  0  0  0  0  0
   37.1217   27.4014   32.9769 H   0  0  0  0  0  0  0  0  0  0  0  0
  1  7  1  0
  1  5  1  0
  2  1  1  0
  2  3  1  0
  3  4  1  0
  4  5  1  0
  5 12  1  0
  7  6  2  0
  8  7  1  0
  9  8  2  0
  9 10  1  0
 10 11  2  0
 11  6  1  0
 12 17  1  0
 12 13  1  0
 13 14  1  0
 14 15  1  0
 16 15  1  0
 17 16  1  0
  1 18  1  6
  2 19  1  0
  2 20  1  0
  3 21  1  0
  3 22  1  0
  4 23  1  0
  4 24  1  0
  5 25  1  1
  6 26  1  0
  8 27  1  0
 10 28  1  0
 12 29  1  0
 13 30  1  0
 13 31  1  0
 14 32  1  0
 14 33  1  0
 15 34  1  0
 15 35  1  0
 16 36  1  0
 16 37  1  0
 17 38  1  0
 17 39  1  0
M  ISO  8  18  13  19  13  20  13  21  13  22  13  23  13  24  13  25  13
M  ISO  8  26  14  27  14  28  14  29  13  30  13  31  13  32  13  33  13
M  ISO  6  34  13  35  13  36  13  37  13  38  13  39  13
M  END
>  <minimizedAffinity>  (1) 
-3.9305532

>  <minimizedRMSD>  (1) 
6.09954309

$$$$
