
     RDKit          3D

 30 32  0  0  1  0  0  0  0  0999 V2000
   39.0740   25.0680   35.0940 C   0  0  1  0  0  0  0  0  0  0  0  0
   37.6580   25.3490   35.4880 C   0  0  0  0  0  0  0  0  0  0  0  0
   37.3820   26.7660   35.0900 C   0  0  0  0  0  0  0  0  0  0  0  0
   38.7000   27.3610   34.7000 C   0  0  0  0  0  0  0  0  0  0  0  0
   39.7230   26.4250   35.3070 C   0  0  2  0  0  0  0  0  0  0  0  0
   40.8140   23.2800   35.5480 C   0  0  0  0  0  0  0  0  0  0  0  0
   39.6860   24.0100   35.9250 C   0  0  0  0  0  0  0  0  0  0  0  0
   39.1180   23.6850   37.1660 C   0  0  0  0  0  0  0  0  0  0  0  0
   39.6900   22.7030   37.9010 N   0  0  0  0  0  0  0  0  0  0  0  0
   40.7710   22.0270   37.5050 C   0  0  0  0  0  0  0  0  0  0  0  0
   41.3180   22.3340   36.3200 N   0  0  0  0  0  0  0  0  0  0  0  0
   40.9790   26.5720   34.4660 C   0  0  0  0  0  0  0  0  0  0  0  0
   41.0790   27.4500   33.3020 C   0  0  0  0  0  0  0  0  0  0  0  0
   40.8090   26.0440   33.0350 C   0  0  0  0  0  0  0  0  0  0  0  0
   39.1853   24.6809   34.0704 H   0  0  0  0  0  0  0  0  0  0  0  0
   36.9742   24.6661   34.9626 H   0  0  0  0  0  0  0  0  0  0  0  0
   37.5075   25.2014   36.5676 H   0  0  0  0  0  0  0  0  0  0  0  0
   36.6857   26.7932   34.2388 H   0  0  0  0  0  0  0  0  0  0  0  0
   36.9193   27.3284   35.9143 H   0  0  0  0  0  0  0  0  0  0  0  0
   38.8039   27.3959   33.6055 H   0  0  0  0  0  0  0  0  0  0  0  0
   38.8155   28.3970   35.0513 H   0  0  0  0  0  0  0  0  0  0  0  0
   39.9886   26.5963   36.3606 H   0  0  0  0  0  0  0  0  0  0  0  0
   41.2957   23.4979   34.5834 H   0  0  0  0  0  0  0  0  0  0  0  0
   38.2277   24.2164   37.5334 H   0  0  0  0  0  0  0  0  0  0  0  0
   41.2029   21.2365   38.1363 H   0  0  0  0  0  0  0  0  0  0  0  0
   41.6293   26.4523   35.3451 H   0  0  0  0  0  0  0  0  0  0  0  0
   40.2913   28.1956   33.1186 H   0  0  0  0  0  0  0  0  0  0  0  0
   41.8471   28.1536   32.9485 H   0  0  0  0  0  0  0  0  0  0  0  0
   39.8188   25.7284   32.6746 H   0  0  0  0  0  0  0  0  0  0  0  0
   41.2752   25.2548   32.4268 H   0  0  0  0  0  0  0  0  0  0  0  0
  1  5  1  0
  1  2  1  0
  1  7  1  0
  3  2  1  0
  4  3  1  0
  4  5  1  0
  6  7  2  0
  6 11  1  0
  7  8  1  0
  8  9  2  0
 10  9  1  0
 11 10  2  0
 12  5  1  0
 13 12  1  0
 14 13  1  0
 14 12  1  0
  1 15  1  6
  2 16  1  0
  2 17  1  0
  3 18  1  0
  3 19  1  0
  4 20  1  0
  4 21  1  0
  5 22  1  1
  6 23  1  0
  8 24  1  0
 10 25  1  0
 12 26  1  0
 13 27  1  0
 13 28  1  0
 14 29  1  0
 14 30  1  0
M  ISO  8  15  13  16  13  17  13  18  13  19  13  20  13  21  13  22  13
M  ISO  8  23  14  24  14  25  14  26  13  27  13  28  13  29  13  30  13
M  END
>  <minimizedAffinity>  (1) 
-3.89701152

>  <minimizedRMSD>  (1) 
5.18053102

$$$$
