
     RDKit          3D

 24 25  0  0  1  0  0  0  0  0999 V2000
   40.6800   22.9930   35.8840 C   0  0  1  0  0  0  0  0  0  0  0  0
   42.1050   23.4200   36.1010 C   0  0  0  0  0  0  0  0  0  0  0  0
   42.7740   22.1840   36.6680 C   0  0  0  0  0  0  0  0  0  0  0  0
   41.6980   21.2080   37.0230 C   0  0  0  0  0  0  0  0  0  0  0  0
   40.4620   22.0810   37.0800 C   0  0  1  0  0  0  0  0  0  0  0  0
   38.4200   23.9940   36.2280 C   0  0  0  0  0  0  0  0  0  0  0  0
   39.7380   24.0840   35.7910 C   0  0  0  0  0  0  0  0  0  0  0  0
   40.1820   25.2850   35.1780 C   0  0  0  0  0  0  0  0  0  0  0  0
   39.2950   26.2980   35.0440 N   0  0  0  0  0  0  0  0  0  0  0  0
   38.0090   26.1890   35.4780 C   0  0  0  0  0  0  0  0  0  0  0  0
   37.5890   25.0410   36.0630 N   0  0  0  0  0  0  0  0  0  0  0  0
   40.3450   22.8280   38.2230 O   0  0  0  0  0  0  0  0  0  0  0  0
   40.5097   22.5018   34.9146 H   0  0  0  0  0  0  0  0  0  0  0  0
   42.5733   23.7175   35.1512 H   0  0  0  0  0  0  0  0  0  0  0  0
   42.1898   24.2914   36.7670 H   0  0  0  0  0  0  0  0  0  0  0  0
   43.4464   21.7438   35.9169 H   0  0  0  0  0  0  0  0  0  0  0  0
   43.3698   22.4411   37.5562 H   0  0  0  0  0  0  0  0  0  0  0  0
   41.5986   20.4296   36.2522 H   0  0  0  0  0  0  0  0  0  0  0  0
   41.8927   20.6654   37.9599 H   0  0  0  0  0  0  0  0  0  0  0  0
   39.5399   21.4813   37.0701 H   0  0  0  0  0  0  0  0  0  0  0  0
   38.0583   23.0717   36.7062 H   0  0  0  0  0  0  0  0  0  0  0  0
   41.2176   25.3891   34.8221 H   0  0  0  0  0  0  0  0  0  0  0  0
   37.3123   27.0312   35.3540 H   0  0  0  0  0  0  0  0  0  0  0  0
   40.4373   22.2388   39.0132 H   0  0  0  0  0  0  0  0  0  0  0  0
  1  2  1  0
  1  5  1  0
  2  3  1  0
  3  4  1  0
  4  5  1  0
  5 12  1  0
  7  1  1  0
  7  6  2  0
  8  7  1  0
  9  8  2  0
  9 10  1  0
 10 11  2  0
 11  6  1  0
  1 13  1  6
  2 14  1  0
  2 15  1  0
  3 16  1  0
  3 17  1  0
  4 18  1  0
  4 19  1  0
  5 20  1  6
  6 21  1  0
  8 22  1  0
 10 23  1  0
 12 24  1  0
M  ISO  8  13  13  14  13  15  13  16  13  17  13  18  13  19  13  20  13
M  ISO  4  21  14  22  14  23  14  24   3
M  END
>  <minimizedAffinity>  (1) 
-3.61582613

>  <minimizedRMSD>  (1) 
0.850702643

$$$$
