
     RDKit          3D

 34 36  0  0  0  0  0  0  0  0999 V2000
   41.7970   21.5060   34.0790 S   0  0  0  0  0  0  0  0  0  0  0  0
   43.5100   21.9620   34.2890 C   0  0  0  0  0  0  0  0  0  0  0  0
   43.8540   23.3120   34.1440 C   0  0  0  0  0  0  0  0  0  0  0  0
   45.7110   23.3190   34.4450 S   0  0  0  0  0  0  0  0  0  0  0  0
   45.6500   21.4450   34.7140 C   0  0  0  0  0  0  0  0  0  0  0  0
   44.5730   21.2460   34.5690 N   0  0  0  0  0  0  0  0  0  0  0  0
   46.7870   20.6210   35.0220 N   0  0  0  0  0  0  0  0  0  0  0  0
   48.1480   21.1170   35.1690 C   0  0  0  0  0  0  0  0  0  0  0  0
   48.4700   20.9070   36.6540 C   0  0  0  0  0  0  0  0  0  0  0  0
   48.3290   19.5140   36.9620 N   0  0  0  0  0  0  0  0  0  0  0  0
   47.0440   18.9520   36.6830 C   0  0  0  0  0  0  0  0  0  0  0  0
   46.6870   19.1890   35.2190 C   0  0  0  0  0  0  0  0  0  0  0  0
   40.4560   22.4350   37.7190 C   0  0  0  0  0  0  0  0  0  0  0  0
   39.2660   23.1270   37.4610 C   0  0  0  0  0  0  0  0  0  0  0  0
   38.8930   23.2980   36.1390 C   0  0  0  0  0  0  0  0  0  0  0  0
   39.6800   22.7960   35.1390 N   0  0  0  0  0  0  0  0  0  0  0  0
   40.8300   22.1280   35.4540 C   0  0  0  0  0  0  0  0  0  0  0  0
   41.2000   21.9570   36.7200 N   0  0  0  0  0  0  0  0  0  0  0  0
   38.3920   23.6830   38.5340 C   0  0  0  0  0  0  0  0  0  0  0  0
   39.1950   23.8770   39.6430 F   0  0  0  0  0  0  0  0  0  0  0  0
   37.3620   22.8780   38.8700 F   0  0  0  0  0  0  0  0  0  0  0  0
   37.9770   24.9940   38.2030 F   0  0  0  0  0  0  0  0  0  0  0  0
   43.1970   24.1627   33.9105 H   0  0  0  0  0  0  0  0  0  0  0  0
   48.8417   20.5450   34.5353 H   0  0  0  0  0  0  0  0  0  0  0  0
   48.2473   22.1687   34.8622 H   0  0  0  0  0  0  0  0  0  0  0  0
   49.5019   21.2287   36.8582 H   0  0  0  0  0  0  0  0  0  0  0  0
   47.7817   21.4997   37.2744 H   0  0  0  0  0  0  0  0  0  0  0  0
   49.0291   18.9946   36.4133 H   0  0  0  0  0  0  0  0  0  0  0  0
   47.0663   17.8707   36.8837 H   0  0  0  0  0  0  0  0  0  0  0  0
   46.2895   19.4309   37.3244 H   0  0  0  0  0  0  0  0  0  0  0  0
   45.6634   18.8432   35.0123 H   0  0  0  0  0  0  0  0  0  0  0  0
   47.3552   18.6367   34.5419 H   0  0  0  0  0  0  0  0  0  0  0  0
   40.7814   22.2836   38.7588 H   0  0  0  0  0  0  0  0  0  0  0  0
   37.9658   23.8364   35.8931 H   0  0  0  0  0  0  0  0  0  0  0  0
  1  2  1  0
  1 17  1  0
  2  6  1  0
  3  2  2  0
  3  4  1  0
  4  5  1  0
  5  7  1  0
  6  5  2  0
  7  8  1  0
  7 12  1  0
  8  9  1  0
  9 10  1  0
 11 10  1  0
 12 11  1  0
 14 13  2  0
 14 19  1  0
 15 14  1  0
 16 17  1  0
 16 15  2  0
 17 18  2  0
 18 13  1  0
 19 21  1  0
 19 20  1  0
 22 19  1  0
  3 23  1  0
  8 24  1  0
  8 25  1  0
  9 26  1  0
  9 27  1  0
 10 28  1  0
 11 29  1  0
 11 30  1  0
 12 31  1  0
 12 32  1  0
 13 33  1  0
 15 34  1  0
M  ISO  8  23  14  24  13  25  13  26  13  27  13  28   5  29  13  30  13
M  ISO  4  31  13  32  13  33  14  34  14
M  END
>  <minimizedAffinity>  (1) 
-4.15715551

>  <minimizedRMSD>  (1) 
2.50838256

$$$$
