
     RDKit          3D

 42 46  0  0  1  0  0  0  0  0999 V2000
   39.4830   22.8730   37.0980 C   0  0  1  0  0  0  0  0  0  0  0  0
   39.2600   23.2210   38.5650 C   0  0  0  0  0  0  0  0  0  0  0  0
   38.0090   24.0530   38.5890 C   0  0  0  0  0  0  0  0  0  0  0  0
   37.5730   24.2070   37.1690 C   0  0  0  0  0  0  0  0  0  0  0  0
   38.8960   24.0430   36.4170 C   0  0  2  0  0  0  0  0  0  0  0  0
   38.5190   23.7210   35.0380 C   0  0  0  0  0  0  0  0  0  0  0  0
   37.8820   22.4950   34.7850 C   0  0  0  0  0  0  0  0  0  0  0  0
   37.6290   22.5700   32.9960 S   0  0  0  0  0  0  0  0  0  0  0  0
   38.4320   24.2710   32.8530 C   0  0  0  0  0  0  0  0  0  0  0  0
   38.7590   24.5460   34.0400 N   0  0  0  0  0  0  0  0  0  0  0  0
   38.5890   24.9940   31.6540 N   0  0  0  0  0  0  0  0  0  0  0  0
   39.1840   24.5990   30.5120 C   0  0  0  0  0  0  0  0  0  0  0  0
   39.0810   25.6370   29.6590 N   0  0  0  0  0  0  0  0  0  0  0  0
   38.4290   26.6700   30.2610 C   0  0  0  0  0  0  0  0  0  0  0  0
   38.1220   27.9040   29.7320 C   0  0  0  0  0  0  0  0  0  0  0  0
   37.4660   28.7530   30.5450 N   0  0  0  0  0  0  0  0  0  0  0  0
   37.1430   28.3860   31.7970 C   0  0  0  0  0  0  0  0  0  0  0  0
   37.4610   27.1740   32.2690 N   0  0  0  0  0  0  0  0  0  0  0  0
   38.1230   26.2290   31.5490 C   0  0  0  0  0  0  0  0  0  0  0  0
   38.4870   28.2330   28.4140 N   0  0  0  0  0  0  0  0  0  0  0  0
   41.6580   23.5210   36.1070 C   0  0  0  0  0  0  0  0  0  0  0  0
   40.8990   22.5750   36.8130 C   0  0  0  0  0  0  0  0  0  0  0  0
   41.4870   21.3770   37.2390 C   0  0  0  0  0  0  0  0  0  0  0  0
   42.7920   21.1950   36.9370 N   0  0  0  0  0  0  0  0  0  0  0  0
   43.5310   22.1170   36.2500 C   0  0  0  0  0  0  0  0  0  0  0  0
   42.9550   23.2900   35.8310 N   0  0  0  0  0  0  0  0  0  0  0  0
   39.0107   21.9430   36.7486 H   0  0  0  0  0  0  0  0  0  0  0  0
   39.1263   22.3068   39.1619 H   0  0  0  0  0  0  0  0  0  0  0  0
   40.1184   23.7584   38.9942 H   0  0  0  0  0  0  0  0  0  0  0  0
   37.2270   23.5462   39.1735 H   0  0  0  0  0  0  0  0  0  0  0  0
   38.1919   25.0317   39.0567 H   0  0  0  0  0  0  0  0  0  0  0  0
   36.8511   23.4272   36.8847 H   0  0  0  0  0  0  0  0  0  0  0  0
   37.0567   25.1559   36.9614 H   0  0  0  0  0  0  0  0  0  0  0  0
   39.5828   24.9022   36.4058 H   0  0  0  0  0  0  0  0  0  0  0  0
   37.6083   21.6972   35.4911 H   0  0  0  0  0  0  0  0  0  0  0  0
   39.6580   23.6260   30.3155 H   0  0  0  0  0  0  0  0  0  0  0  0
   36.6074   29.0945   32.4460 H   0  0  0  0  0  0  0  0  0  0  0  0
   38.2514   29.1594   28.0304 H   0  0  0  0  0  0  0  0  0  0  0  0
   38.9899   27.5475   27.8325 H   0  0  0  0  0  0  0  0  0  0  0  0
   41.1889   24.4594   35.7763 H   0  0  0  0  0  0  0  0  0  0  0  0
   40.9135   20.6196   37.7935 H   0  0  0  0  0  0  0  0  0  0  0  0
   44.5907   21.9182   36.0323 H   0  0  0  0  0  0  0  0  0  0  0  0
  1  2  1  0
  2  3  1  0
  4  3  1  0
  5  1  1  0
  5  4  1  0
  6  5  1  0
  7  6  2  0
  8  7  1  0
  9  8  1  0
  9 10  2  0
 10  6  1  0
 11  9  1  0
 12 11  1  0
 13 14  1  0
 13 12  2  0
 14 19  2  0
 15 14  1  0
 15 16  2  0
 16 17  1  0
 17 18  2  0
 19 11  1  0
 19 18  1  0
 20 15  1  0
 21 22  2  0
 22  1  1  0
 22 23  1  0
 24 23  2  0
 25 24  1  0
 26 21  1  0
 26 25  2  0
  1 27  1  6
  2 28  1  0
  2 29  1  0
  3 30  1  0
  3 31  1  0
  4 32  1  0
  4 33  1  0
  5 34  1  6
  7 35  1  0
 12 36  1  0
 17 37  1  0
 20 38  1  0
 20 39  1  0
 21 40  1  0
 23 41  1  0
 25 42  1  0
M  ISO  8  27  13  28  13  29  13  30  13  31  13  32  13  33  13  34  13
M  ISO  6  35  14  36  14  37  14  40  14  41  14  42  14
M  END
>  <minimizedAffinity>  (1) 
-6.08205223

>  <minimizedRMSD>  (1) 
1.06853974

$$$$
