
     RDKit          3D

 45 48  0  0  1  0  0  0  0  0999 V2000
   39.3770   22.9940   37.0240 C   0  0  1  0  0  0  0  0  0  0  0  0
   39.1860   23.2000   38.5230 C   0  0  0  0  0  0  0  0  0  0  0  0
   37.9590   24.0570   38.6570 C   0  0  0  0  0  0  0  0  0  0  0  0
   37.4860   24.3370   37.2660 C   0  0  0  0  0  0  0  0  0  0  0  0
   38.8010   24.2370   36.4710 C   0  0  2  0  0  0  0  0  0  0  0  0
   41.4850   23.6140   35.8950 C   0  0  0  0  0  0  0  0  0  0  0  0
   40.7740   22.6950   36.6820 C   0  0  0  0  0  0  0  0  0  0  0  0
   41.4040   21.5280   37.1320 C   0  0  0  0  0  0  0  0  0  0  0  0
   42.6930   21.3480   36.7710 N   0  0  0  0  0  0  0  0  0  0  0  0
   43.3860   22.2370   36.0060 C   0  0  0  0  0  0  0  0  0  0  0  0
   42.7690   23.3820   35.5660 N   0  0  0  0  0  0  0  0  0  0  0  0
   38.3880   24.0510   35.0760 C   0  0  0  0  0  0  0  0  0  0  0  0
   38.0990   22.7540   34.6250 C   0  0  0  0  0  0  0  0  0  0  0  0
   37.6470   23.0490   32.9000 S   0  0  0  0  0  0  0  0  0  0  0  0
   37.9230   24.9260   33.0480 C   0  0  0  0  0  0  0  0  0  0  0  0
   38.2780   25.0670   34.2460 N   0  0  0  0  0  0  0  0  0  0  0  0
   37.7320   25.8860   31.9580 C   0  0  0  0  0  0  0  0  0  0  0  0
   38.4480   27.1920   32.2320 C   0  0  0  0  0  0  0  0  0  0  0  0
   38.6460   27.8600   30.8910 C   0  0  0  0  0  0  0  0  0  0  0  0
   37.3180   27.8740   30.1940 C   0  0  0  0  0  0  0  0  0  0  0  0
   36.1530   27.5390   31.1070 C   0  0  0  0  0  0  0  0  0  0  0  0
   36.2910   26.1700   31.7460 C   0  0  0  0  0  0  0  0  0  0  0  0
   38.8794   22.1117   36.5950 H   0  0  0  0  0  0  0  0  0  0  0  0
   39.0374   22.2341   39.0280 H   0  0  0  0  0  0  0  0  0  0  0  0
   40.0657   23.6713   38.9856 H   0  0  0  0  0  0  0  0  0  0  0  0
   37.1816   23.5227   39.2229 H   0  0  0  0  0  0  0  0  0  0  0  0
   38.1803   24.9887   39.1982 H   0  0  0  0  0  0  0  0  0  0  0  0
   36.7553   23.5861   36.9309 H   0  0  0  0  0  0  0  0  0  0  0  0
   36.9651   25.2993   37.1537 H   0  0  0  0  0  0  0  0  0  0  0  0
   39.5004   25.0842   36.5278 H   0  0  0  0  0  0  0  0  0  0  0  0
   40.9889   24.5310   35.5444 H   0  0  0  0  0  0  0  0  0  0  0  0
   40.8727   20.7908   37.7519 H   0  0  0  0  0  0  0  0  0  0  0  0
   44.4352   22.0384   35.7420 H   0  0  0  0  0  0  0  0  0  0  0  0
   38.1375   21.8039   35.1780 H   0  0  0  0  0  0  0  0  0  0  0  0
   38.1572   25.4254   31.0541 H   0  0  0  0  0  0  0  0  0  0  0  0
   37.8378   27.8299   32.8883 H   0  0  0  0  0  0  0  0  0  0  0  0
   39.4096   27.0209   32.7379 H   0  0  0  0  0  0  0  0  0  0  0  0
   39.0061   28.8895   31.0338 H   0  0  0  0  0  0  0  0  0  0  0  0
   39.3917   27.3154   30.2932 H   0  0  0  0  0  0  0  0  0  0  0  0
   37.1549   28.8780   29.7752 H   0  0  0  0  0  0  0  0  0  0  0  0
   37.3527   27.0982   29.4149 H   0  0  0  0  0  0  0  0  0  0  0  0
   36.0996   28.2962   31.9031 H   0  0  0  0  0  0  0  0  0  0  0  0
   35.2395   27.5314   30.4943 H   0  0  0  0  0  0  0  0  0  0  0  0
   35.7655   26.1580   32.7123 H   0  0  0  0  0  0  0  0  0  0  0  0
   35.8511   25.4045   31.0899 H   0  0  0  0  0  0  0  0  0  0  0  0
  1  2  1  0
  2  3  1  0
  4  3  1  0
  5  1  1  0
  5  4  1  0
  6  7  2  0
  7  1  1  0
  7  8  1  0
  9  8  2  0
 10  9  1  0
 11  6  1  0
 11 10  2  0
 12  5  1  0
 13 12  2  0
 14 15  1  0
 14 13  1  0
 15 16  2  0
 16 12  1  0
 17 18  1  0
 17 15  1  0
 19 18  1  0
 20 19  1  0
 20 21  1  0
 21 22  1  0
 22 17  1  0
  1 23  1  6
  2 24  1  0
  2 25  1  0
  3 26  1  0
  3 27  1  0
  4 28  1  0
  4 29  1  0
  5 30  1  6
  6 31  1  0
  8 32  1  0
 10 33  1  0
 13 34  1  0
 17 35  1  0
 18 36  1  0
 18 37  1  0
 19 38  1  0
 19 39  1  0
 20 40  1  0
 20 41  1  0
 21 42  1  0
 21 43  1  0
 22 44  1  0
 22 45  1  0
M  ISO  8  23  13  24  13  25  13  26  13  27  13  28  13  29  13  30  13
M  ISO  8  31  14  32  14  33  14  34  14  35  13  36  13  37  13  38  13
M  ISO  7  39  13  40  13  41  13  42  13  43  13  44  13  45  13
M  END
>  <minimizedAffinity>  (1) 
-5.41551113

>  <minimizedRMSD>  (1) 
1.51825988

$$$$
