
     RDKit          3D

 36 38  0  0  1  0  0  0  0  0999 V2000
   39.4270   22.9320   37.0450 C   0  0  1  0  0  0  0  0  0  0  0  0
   39.2050   23.2580   38.5190 C   0  0  0  0  0  0  0  0  0  0  0  0
   37.9520   24.0830   38.5600 C   0  0  0  0  0  0  0  0  0  0  0  0
   37.5230   24.2630   37.1410 C   0  0  0  0  0  0  0  0  0  0  0  0
   38.8550   24.1230   36.3860 C   0  0  2  0  0  0  0  0  0  0  0  0
   38.4740   23.8300   34.9940 C   0  0  0  0  0  0  0  0  0  0  0  0
   37.9530   22.5600   34.6960 C   0  0  0  0  0  0  0  0  0  0  0  0
   37.6580   22.7050   32.9150 S   0  0  0  0  0  0  0  0  0  0  0  0
   38.2920   24.4760   32.8590 C   0  0  0  0  0  0  0  0  0  0  0  0
   38.6180   24.7320   34.0470 N   0  0  0  0  0  0  0  0  0  0  0  0
   38.2850   25.1540   31.5600 N   0  0  0  0  0  0  0  0  0  0  0  0
   37.1710   25.8920   31.1360 C   0  0  0  0  0  0  0  0  0  0  0  0
   36.0180   25.7120   31.6870 N   0  0  0  0  0  0  0  0  0  0  0  0
   37.4560   26.8200   30.0750 N   0  0  0  0  0  0  0  0  0  0  0  0
   35.2310   26.3120   31.3060 H   0  0  0  0  0  0  0  0  0  0  0  0
   41.5920   23.5440   36.0240 C   0  0  0  0  0  0  0  0  0  0  0  0
   40.8340   22.6190   36.7580 C   0  0  0  0  0  0  0  0  0  0  0  0
   41.4270   21.4330   37.2060 C   0  0  0  0  0  0  0  0  0  0  0  0
   42.7310   21.2430   36.8960 N   0  0  0  0  0  0  0  0  0  0  0  0
   43.4650   22.1400   36.1840 C   0  0  0  0  0  0  0  0  0  0  0  0
   42.8860   23.3050   35.7440 N   0  0  0  0  0  0  0  0  0  0  0  0
   38.9447   22.0146   36.6764 H   0  0  0  0  0  0  0  0  0  0  0  0
   39.0770   22.3343   39.1025 H   0  0  0  0  0  0  0  0  0  0  0  0
   40.0620   23.7937   38.9532 H   0  0  0  0  0  0  0  0  0  0  0  0
   37.1703   23.5606   39.1310 H   0  0  0  0  0  0  0  0  0  0  0  0
   38.1266   25.0516   39.0512 H   0  0  0  0  0  0  0  0  0  0  0  0
   36.8076   23.4845   36.8376 H   0  0  0  0  0  0  0  0  0  0  0  0
   37.0027   25.2135   36.9514 H   0  0  0  0  0  0  0  0  0  0  0  0
   39.5456   24.9792   36.3933 H   0  0  0  0  0  0  0  0  0  0  0  0
   37.7725   21.7059   35.3653 H   0  0  0  0  0  0  0  0  0  0  0  0
   39.1114   25.0873   30.9489 H   0  0  0  0  0  0  0  0  0  0  0  0
   36.7043   27.4108   29.6917 H   0  0  0  0  0  0  0  0  0  0  0  0
   38.4118   26.8939   29.6983 H   0  0  0  0  0  0  0  0  0  0  0  0
   41.1228   24.4752   35.6735 H   0  0  0  0  0  0  0  0  0  0  0  0
   40.8592   20.6889   37.7839 H   0  0  0  0  0  0  0  0  0  0  0  0
   44.5219   21.9323   35.9607 H   0  0  0  0  0  0  0  0  0  0  0  0
  1  2  1  0
  2  3  1  0
  4  3  1  0
  5  1  1  0
  5  4  1  0
  6  5  1  0
  7  6  2  0
  8  7  1  0
  9  8  1  0
  9 10  2  0
 10  6  1  0
 11  9  1  0
 12 11  1  0
 12 13  2  0
 14 12  1  0
 15 13  1  0
 16 17  2  0
 17  1  1  0
 17 18  1  0
 19 18  2  0
 20 19  1  0
 21 16  1  0
 21 20  2  0
  1 22  1  6
  2 23  1  0
  2 24  1  0
  3 25  1  0
  3 26  1  0
  4 27  1  0
  4 28  1  0
  5 29  1  6
  7 30  1  0
 11 31  1  0
 14 32  1  0
 14 33  1  0
 16 34  1  0
 18 35  1  0
 20 36  1  0
M  ISO  8  22  13  23  13  24  13  25  13  26  13  27  13  28  13  29  13
M  ISO  4  30  14  34  14  35  14  36  14
M  END
>  <minimizedAffinity>  (1) 
-5.30216551

>  <minimizedRMSD>  (1) 
0.8533656

$$$$
