
     RDKit          3D

 41 43  0  0  1  0  0  0  0  0999 V2000
   39.3720   22.8950   37.1220 C   0  0  1  0  0  0  0  0  0  0  0  0
   39.2470   23.4070   38.5490 C   0  0  0  0  0  0  0  0  0  0  0  0
   37.9850   24.2220   38.5680 C   0  0  0  0  0  0  0  0  0  0  0  0
   37.4250   24.1690   37.1870 C   0  0  0  0  0  0  0  0  0  0  0  0
   38.6860   23.9430   36.3500 C   0  0  2  0  0  0  0  0  0  0  0  0
   41.4560   23.5090   35.9300 C   0  0  0  0  0  0  0  0  0  0  0  0
   40.7760   22.6050   36.7610 C   0  0  0  0  0  0  0  0  0  0  0  0
   41.4230   21.4550   37.2380 C   0  0  0  0  0  0  0  0  0  0  0  0
   42.7080   21.2750   36.8600 N   0  0  0  0  0  0  0  0  0  0  0  0
   43.3670   22.1550   36.0500 C   0  0  0  0  0  0  0  0  0  0  0  0
   42.7350   23.2810   35.5830 N   0  0  0  0  0  0  0  0  0  0  0  0
   38.2200   23.4440   35.0550 C   0  0  0  0  0  0  0  0  0  0  0  0
   37.9640   22.0710   34.9330 C   0  0  0  0  0  0  0  0  0  0  0  0
   37.4340   21.9470   33.2040 S   0  0  0  0  0  0  0  0  0  0  0  0
   37.6450   23.7970   32.9120 C   0  0  0  0  0  0  0  0  0  0  0  0
   38.0430   24.2370   34.0240 N   0  0  0  0  0  0  0  0  0  0  0  0
   37.3230   24.3130   31.5430 C   0  0  0  0  0  0  0  0  0  0  0  0
   35.8220   24.3000   31.3120 C   0  0  0  0  0  0  0  0  0  0  0  0
   37.9910   23.5130   30.4760 C   0  0  0  0  0  0  0  0  0  0  0  0
   37.7690   25.7520   31.3890 C   0  0  0  0  0  0  0  0  0  0  0  0
   38.9110   21.9154   36.9276 H   0  0  0  0  0  0  0  0  0  0  0  0
   39.1737   22.5666   39.2550 H   0  0  0  0  0  0  0  0  0  0  0  0
   40.1230   24.0000   38.8504 H   0  0  0  0  0  0  0  0  0  0  0  0
   37.2682   23.7956   39.2852 H   0  0  0  0  0  0  0  0  0  0  0  0
   38.1860   25.2587   38.8759 H   0  0  0  0  0  0  0  0  0  0  0  0
   36.7142   23.3371   37.0741 H   0  0  0  0  0  0  0  0  0  0  0  0
   36.8541   25.0649   36.9017 H   0  0  0  0  0  0  0  0  0  0  0  0
   39.3353   24.8126   36.1704 H   0  0  0  0  0  0  0  0  0  0  0  0
   40.9404   24.4079   35.5610 H   0  0  0  0  0  0  0  0  0  0  0  0
   40.9082   20.7334   37.8894 H   0  0  0  0  0  0  0  0  0  0  0  0
   44.4126   21.9602   35.7694 H   0  0  0  0  0  0  0  0  0  0  0  0
   38.0597   21.2772   35.6884 H   0  0  0  0  0  0  0  0  0  0  0  0
   35.3019   24.2955   32.2813 H   0  0  0  0  0  0  0  0  0  0  0  0
   35.5307   25.1957   30.7437 H   0  0  0  0  0  0  0  0  0  0  0  0
   35.5463   23.3994   30.7437 H   0  0  0  0  0  0  0  0  0  0  0  0
   38.6307   22.7469   30.9384 H   0  0  0  0  0  0  0  0  0  0  0  0
   37.2281   23.0254   29.8514 H   0  0  0  0  0  0  0  0  0  0  0  0
   38.6069   24.1767   29.8514 H   0  0  0  0  0  0  0  0  0  0  0  0
   37.9082   26.2011   32.3834 H   0  0  0  0  0  0  0  0  0  0  0  0
   38.7193   25.7842   30.8359 H   0  0  0  0  0  0  0  0  0  0  0  0
   37.0035   26.3159   30.8359 H   0  0  0  0  0  0  0  0  0  0  0  0
  1  2  1  0
  2  3  1  0
  4  3  1  0
  5  1  1  0
  5  4  1  0
  6  7  2  0
  7  1  1  0
  7  8  1  0
  9  8  2  0
 10  9  1  0
 11  6  1  0
 11 10  2  0
 12  5  1  0
 13 12  2  0
 14 13  1  0
 15 14  1  0
 15 16  2  0
 16 12  1  0
 17 15  1  0
 18 17  1  0
 19 17  1  0
 20 17  1  0
  1 21  1  1
  2 22  1  0
  2 23  1  0
  3 24  1  0
  3 25  1  0
  4 26  1  0
  4 27  1  0
  5 28  1  6
  6 29  1  0
  8 30  1  0
 10 31  1  0
 13 32  1  0
 18 33  1  0
 18 34  1  0
 18 35  1  0
 19 36  1  0
 19 37  1  0
 19 38  1  0
 20 39  1  0
 20 40  1  0
 20 41  1  0
M  ISO  8  21  13  22  13  23  13  24  13  25  13  26  13  27  13  28  13
M  ISO  8  29  14  30  14  31  14  32  14  33   8  34   8  35   8  36   8
M  ISO  5  37   8  38   8  39   8  40   8  41   8
M  END
>  <minimizedAffinity>  (1) 
-5.22106075

>  <minimizedRMSD>  (1) 
0.678999901

$$$$
