
     RDKit          3D

 34 35  0  0  1  0  0  0  0  0999 V2000
   38.7510   25.6370   34.9430 C   0  0  2  0  0  0  0  0  0  0  0  0
   39.6350   22.9310   37.2410 C   0  0  0  0  0  0  0  0  0  0  0  0
   38.8170   23.1920   38.3840 C   0  0  0  0  0  0  0  0  0  0  0  0
   37.9580   24.3130   38.3420 C   0  0  0  0  0  0  0  0  0  0  0  0
   37.9930   25.0520   37.1930 N   0  0  0  0  0  0  0  0  0  0  0  0
   38.7640   24.7910   36.1400 C   0  0  0  0  0  0  0  0  0  0  0  0
   39.5770   23.7310   36.1760 N   0  0  0  0  0  0  0  0  0  0  0  0
   39.7000   26.7940   35.1650 C   0  0  0  0  0  0  0  0  0  0  0  0
   37.3880   26.2190   34.6360 C   0  0  0  0  0  0  0  0  0  0  0  0
   36.9620   25.9200   33.2810 N   0  0  0  0  0  0  0  0  0  0  0  0
   36.7260   27.1080   32.5130 C   0  0  0  0  0  0  0  0  0  0  0  0
   37.9820   27.7220   31.9310 C   0  0  0  0  0  0  0  0  0  0  0  0
   38.6560   26.7520   31.0030 C   0  0  0  0  0  0  0  0  0  0  0  0
   37.9530   25.4180   31.1150 C   0  0  0  0  0  0  0  0  0  0  0  0
   37.8760   25.0680   32.5870 C   0  0  0  0  0  0  0  0  0  0  0  0
   39.0454   24.9998   34.0961 H   0  0  0  0  0  0  0  0  0  0  0  0
   40.3151   22.0665   37.2402 H   0  0  0  0  0  0  0  0  0  0  0  0
   38.8552   22.5400   39.2691 H   0  0  0  0  0  0  0  0  0  0  0  0
   37.3004   24.5752   39.1839 H   0  0  0  0  0  0  0  0  0  0  0  0
   39.8335   26.9568   36.2447 H   0  0  0  0  0  0  0  0  0  0  0  0
   40.6727   26.5637   34.7059 H   0  0  0  0  0  0  0  0  0  0  0  0
   39.2838   27.7029   34.7059 H   0  0  0  0  0  0  0  0  0  0  0  0
   36.6552   25.7977   35.3399 H   0  0  0  0  0  0  0  0  0  0  0  0
   37.4544   27.3122   34.7380 H   0  0  0  0  0  0  0  0  0  0  0  0
   36.0478   26.8558   31.6845 H   0  0  0  0  0  0  0  0  0  0  0  0
   36.2956   27.8518   33.1996 H   0  0  0  0  0  0  0  0  0  0  0  0
   37.7160   28.6322   31.3735 H   0  0  0  0  0  0  0  0  0  0  0  0
   38.6717   27.9699   32.7512 H   0  0  0  0  0  0  0  0  0  0  0  0
   39.7130   26.6400   31.2863 H   0  0  0  0  0  0  0  0  0  0  0  0
   38.6045   27.1209   29.9680 H   0  0  0  0  0  0  0  0  0  0  0  0
   36.9400   25.4903   30.6923 H   0  0  0  0  0  0  0  0  0  0  0  0
   38.5011   24.6426   30.5598 H   0  0  0  0  0  0  0  0  0  0  0  0
   37.5408   24.0253   32.6894 H   0  0  0  0  0  0  0  0  0  0  0  0
   38.8753   25.2031   33.0265 H   0  0  0  0  0  0  0  0  0  0  0  0
  1  8  1  0
  1  6  1  0
  2  3  2  0
  4  3  1  0
  5  4  2  0
  6  7  2  0
  6  5  1  0
  7  2  1  0
  9  1  1  0
 10  9  1  0
 11 10  1  0
 12 11  1  0
 13 14  1  0
 13 12  1  0
 14 15  1  0
 15 10  1  0
  1 16  1  6
  2 17  1  0
  3 18  1  0
  4 19  1  0
  8 20  1  0
  8 21  1  0
  8 22  1  0
  9 23  1  0
  9 24  1  0
 11 25  1  0
 11 26  1  0
 12 27  1  0
 12 28  1  0
 13 29  1  0
 13 30  1  0
 14 31  1  0
 14 32  1  0
 15 33  1  0
 15 34  1  0
M  ISO  8  16   8  17  14  18  14  19  14  20   8  21   8  22   8  23   8
M  ISO  8  24   8  25  13  26  13  27  13  28  13  29  13  30  13  31  13
M  ISO  3  32  13  33  13  34  13
M  END
>  <minimizedAffinity>  (1) 
-4.10661221

>  <minimizedRMSD>  (1) 
2.34977698

$$$$
