
     RDKit          3D

 39 42  0  0  1  0  0  0  0  0999 V2000
   39.4220   23.0360   37.0000 C   0  0  1  0  0  0  0  0  0  0  0  0
   39.1340   23.1670   38.4910 C   0  0  0  0  0  0  0  0  0  0  0  0
   37.9360   24.0650   38.5870 C   0  0  0  0  0  0  0  0  0  0  0  0
   37.5860   24.4530   37.1880 C   0  0  0  0  0  0  0  0  0  0  0  0
   38.9430   24.3330   36.4840 C   0  0  2  0  0  0  0  0  0  0  0  0
   41.6190   23.5940   36.0170 C   0  0  0  0  0  0  0  0  0  0  0  0
   40.8260   22.6870   36.7370 C   0  0  0  0  0  0  0  0  0  0  0  0
   41.3820   21.4870   37.1920 C   0  0  0  0  0  0  0  0  0  0  0  0
   42.6840   21.2610   36.9070 N   0  0  0  0  0  0  0  0  0  0  0  0
   43.4540   22.1460   36.2070 C   0  0  0  0  0  0  0  0  0  0  0  0
   42.9100   23.3200   35.7610 N   0  0  0  0  0  0  0  0  0  0  0  0
   38.6260   24.2550   35.0480 C   0  0  0  0  0  0  0  0  0  0  0  0
   38.1200   23.0430   34.5480 C   0  0  0  0  0  0  0  0  0  0  0  0
   37.9110   23.4510   32.7930 S   0  0  0  0  0  0  0  0  0  0  0  0
   38.5460   25.2050   33.0260 C   0  0  0  0  0  0  0  0  0  0  0  0
   38.8160   25.2840   34.2510 N   0  0  0  0  0  0  0  0  0  0  0  0
   38.6080   26.0900   31.8270 C   0  0  0  0  0  0  0  0  0  0  0  0
   39.3240   25.7390   30.7060 C   0  0  0  0  0  0  0  0  0  0  0  0
   39.2850   26.6640   29.6760 C   0  0  0  0  0  0  0  0  0  0  0  0
   38.5580   27.8520   29.8140 C   0  0  0  0  0  0  0  0  0  0  0  0
   37.8610   28.1490   30.9620 C   0  0  0  0  0  0  0  0  0  0  0  0
   37.8790   27.2360   32.0220 C   0  0  0  0  0  0  0  0  0  0  0  0
   38.9176   22.2045   36.4860 H   0  0  0  0  0  0  0  0  0  0  0  0
   38.9130   22.1822   38.9284 H   0  0  0  0  0  0  0  0  0  0  0  0
   39.9958   23.5739   39.0403 H   0  0  0  0  0  0  0  0  0  0  0  0
   37.0963   23.5301   39.0547 H   0  0  0  0  0  0  0  0  0  0  0  0
   38.1497   24.9500   39.2044 H   0  0  0  0  0  0  0  0  0  0  0  0
   36.8466   23.7640   36.7538 H   0  0  0  0  0  0  0  0  0  0  0  0
   37.1247   25.4480   37.1024 H   0  0  0  0  0  0  0  0  0  0  0  0
   39.6752   25.1388   36.6411 H   0  0  0  0  0  0  0  0  0  0  0  0
   41.1804   24.5372   35.6591 H   0  0  0  0  0  0  0  0  0  0  0  0
   40.7846   20.7573   37.7583 H   0  0  0  0  0  0  0  0  0  0  0  0
   44.5098   21.9154   36.0021 H   0  0  0  0  0  0  0  0  0  0  0  0
   37.9082   22.1023   35.0773 H   0  0  0  0  0  0  0  0  0  0  0  0
   39.8848   24.7955   30.6333 H   0  0  0  0  0  0  0  0  0  0  0  0
   39.8299   26.4633   28.7417 H   0  0  0  0  0  0  0  0  0  0  0  0
   38.5436   28.5691   28.9800 H   0  0  0  0  0  0  0  0  0  0  0  0
   37.2979   29.0902   31.0454 H   0  0  0  0  0  0  0  0  0  0  0  0
   37.3381   27.4265   32.9607 H   0  0  0  0  0  0  0  0  0  0  0  0
  1  2  1  0
  2  3  1  0
  4  3  1  0
  5  1  1  0
  5  4  1  0
  6  7  2  0
  7  1  1  0
  7  8  1  0
  9  8  2  0
 10  9  1  0
 11  6  1  0
 11 10  2  0
 12  5  1  0
 13 12  2  0
 14 15  1  0
 14 13  1  0
 15 16  2  0
 16 12  1  0
 17 22  1  0
 17 15  1  0
 18 17  2  0
 19 20  2  0
 19 18  1  0
 20 21  1  0
 21 22  2  0
  1 23  1  6
  2 24  1  0
  2 25  1  0
  3 26  1  0
  3 27  1  0
  4 28  1  0
  4 29  1  0
  5 30  1  6
  6 31  1  0
  8 32  1  0
 10 33  1  0
 13 34  1  0
 18 35  1  0
 19 36  1  0
 20 37  1  0
 21 38  1  0
 22 39  1  0
M  ISO  8  23  13  24  13  25  13  26  13  27  13  28  13  29  13  30  13
M  ISO  8  31  14  32  14  33  14  34  14  35  14  36  14  37  14  38  14
M  ISO  1  39  14
M  END
>  <minimizedAffinity>  (1) 
-5.14825249

>  <minimizedRMSD>  (1) 
1.83352649

$$$$
