
     RDKit          3D

 37 40  0  0  1  0  0  0  0  0999 V2000
   39.4690   22.9800   36.9230 C   0  0  1  0  0  0  0  0  0  0  0  0
   39.1490   23.1780   38.3980 C   0  0  0  0  0  0  0  0  0  0  0  0
   37.9530   24.0870   38.4330 C   0  0  0  0  0  0  0  0  0  0  0  0
   37.6030   24.3700   37.0090 C   0  0  0  0  0  0  0  0  0  0  0  0
   38.9760   24.2390   36.3310 C   0  0  2  0  0  0  0  0  0  0  0  0
   41.6970   23.5740   36.0370 C   0  0  0  0  0  0  0  0  0  0  0  0
   40.8870   22.6460   36.7030 C   0  0  0  0  0  0  0  0  0  0  0  0
   41.4280   21.4340   37.1480 C   0  0  0  0  0  0  0  0  0  0  0  0
   42.7420   21.2280   36.9000 N   0  0  0  0  0  0  0  0  0  0  0  0
   43.5290   22.1290   36.2530 C   0  0  0  0  0  0  0  0  0  0  0  0
   42.9980   23.3170   35.8160 N   0  0  0  0  0  0  0  0  0  0  0  0
   38.6810   24.0730   34.8970 C   0  0  0  0  0  0  0  0  0  0  0  0
   38.0150   22.9060   34.4870 C   0  0  0  0  0  0  0  0  0  0  0  0
   37.9000   23.1830   32.6950 S   0  0  0  0  0  0  0  0  0  0  0  0
   38.7790   24.8420   32.7950 C   0  0  0  0  0  0  0  0  0  0  0  0
   39.0300   24.9870   34.0200 N   0  0  0  0  0  0  0  0  0  0  0  0
   38.9860   25.5860   31.5440 C   0  0  0  0  0  0  0  0  0  0  0  0
   38.7440   26.9290   31.4160 C   0  0  0  0  0  0  0  0  0  0  0  0
   38.9970   27.4560   30.1590 C   0  0  0  0  0  0  0  0  0  0  0  0
   39.4490   26.6700   29.1580 N   0  0  0  0  0  0  0  0  0  0  0  0
   39.6770   25.3350   29.3250 C   0  0  0  0  0  0  0  0  0  0  0  0
   39.4280   24.8210   30.5630 N   0  0  0  0  0  0  0  0  0  0  0  0
   38.9899   22.1136   36.4435 H   0  0  0  0  0  0  0  0  0  0  0  0
   38.9128   22.2141   38.8725 H   0  0  0  0  0  0  0  0  0  0  0  0
   40.0017   23.6056   38.9459 H   0  0  0  0  0  0  0  0  0  0  0  0
   37.1124   23.5918   38.9411 H   0  0  0  0  0  0  0  0  0  0  0  0
   38.1699   25.0138   38.9843 H   0  0  0  0  0  0  0  0  0  0  0  0
   36.8875   23.6328   36.6158 H   0  0  0  0  0  0  0  0  0  0  0  0
   37.1123   25.3415   36.8497 H   0  0  0  0  0  0  0  0  0  0  0  0
   39.6900   25.0666   36.4542 H   0  0  0  0  0  0  0  0  0  0  0  0
   41.2639   24.5240   35.6907 H   0  0  0  0  0  0  0  0  0  0  0  0
   40.8153   20.6864   37.6731 H   0  0  0  0  0  0  0  0  0  0  0  0
   44.5920   21.9055   36.0797 H   0  0  0  0  0  0  0  0  0  0  0  0
   37.6597   22.0557   35.0876 H   0  0  0  0  0  0  0  0  0  0  0  0
   38.3757   27.5441   32.2503 H   0  0  0  0  0  0  0  0  0  0  0  0
   38.8276   28.5271   29.9747 H   0  0  0  0  0  0  0  0  0  0  0  0
   40.0436   24.7047   28.5014 H   0  0  0  0  0  0  0  0  0  0  0  0
  1  2  1  0
  2  3  1  0
  4  3  1  0
  5  1  1  0
  5  4  1  0
  6  7  2  0
  7  1  1  0
  7  8  1  0
  9  8  2  0
 10  9  1  0
 11  6  1  0
 11 10  2  0
 12  5  1  0
 13 12  2  0
 14 15  1  0
 14 13  1  0
 15 16  2  0
 16 12  1  0
 17 15  1  0
 18 17  2  0
 19 18  1  0
 20 21  1  0
 20 19  2  0
 21 22  2  0
 22 17  1  0
  1 23  1  6
  2 24  1  0
  2 25  1  0
  3 26  1  0
  3 27  1  0
  4 28  1  0
  4 29  1  0
  5 30  1  6
  6 31  1  0
  8 32  1  0
 10 33  1  0
 13 34  1  0
 18 35  1  0
 19 36  1  0
 21 37  1  0
M  ISO  8  23  13  24  13  25  13  26  13  27  13  28  13  29  13  30  13
M  ISO  7  31  14  32  14  33  14  34  14  35  14  36  14  37  14
M  END
>  <minimizedAffinity>  (1) 
-4.93568039

>  <minimizedRMSD>  (1) 
1.49722993

$$$$
