
     RDKit          3D

 35 37  0  0  1  0  0  0  0  0999 V2000
   39.3810   22.8500   37.2130 C   0  0  1  0  0  0  0  0  0  0  0  0
   39.2530   23.4510   38.6090 C   0  0  0  0  0  0  0  0  0  0  0  0
   37.9780   24.2450   38.5800 C   0  0  0  0  0  0  0  0  0  0  0  0
   37.4370   24.1370   37.1970 C   0  0  0  0  0  0  0  0  0  0  0  0
   38.7060   23.8660   36.3840 C   0  0  2  0  0  0  0  0  0  0  0  0
   41.5040   23.4400   36.0820 C   0  0  0  0  0  0  0  0  0  0  0  0
   40.7840   22.5360   36.8780 C   0  0  0  0  0  0  0  0  0  0  0  0
   41.3980   21.3690   37.3460 C   0  0  0  0  0  0  0  0  0  0  0  0
   42.6910   21.1820   36.9850 N   0  0  0  0  0  0  0  0  0  0  0  0
   43.3870   22.0520   36.2180 C   0  0  0  0  0  0  0  0  0  0  0  0
   42.7860   23.1980   35.7590 N   0  0  0  0  0  0  0  0  0  0  0  0
   38.2450   23.3000   35.1130 C   0  0  0  0  0  0  0  0  0  0  0  0
   37.7000   22.0070   35.1230 C   0  0  0  0  0  0  0  0  0  0  0  0
   37.2920   21.7580   33.3790 S   0  0  0  0  0  0  0  0  0  0  0  0
   37.9350   23.4800   32.8910 C   0  0  0  0  0  0  0  0  0  0  0  0
   38.3290   23.9660   33.9820 N   0  0  0  0  0  0  0  0  0  0  0  0
   37.9400   24.0680   31.4860 C   0  0  0  0  0  0  0  0  0  0  0  0
   36.5420   23.9550   30.9890 C   0  0  0  0  0  0  0  0  0  0  0  0
   38.9173   21.8629   37.0698 H   0  0  0  0  0  0  0  0  0  0  0  0
   39.1955   22.6563   39.3674 H   0  0  0  0  0  0  0  0  0  0  0  0
   40.1205   24.0753   38.8692 H   0  0  0  0  0  0  0  0  0  0  0  0
   37.2580   23.8321   39.3019 H   0  0  0  0  0  0  0  0  0  0  0  0
   38.1600   25.2951   38.8524 H   0  0  0  0  0  0  0  0  0  0  0  0
   36.7212   23.3063   37.1108 H   0  0  0  0  0  0  0  0  0  0  0  0
   36.8779   25.0250   36.8670 H   0  0  0  0  0  0  0  0  0  0  0  0
   39.3605   24.7234   36.1684 H   0  0  0  0  0  0  0  0  0  0  0  0
   41.0144   24.3556   35.7188 H   0  0  0  0  0  0  0  0  0  0  0  0
   40.8603   20.6425   37.9730 H   0  0  0  0  0  0  0  0  0  0  0  0
   44.4357   21.8411   35.9617 H   0  0  0  0  0  0  0  0  0  0  0  0
   37.5578   21.3221   35.9720 H   0  0  0  0  0  0  0  0  0  0  0  0
   38.2515   25.1226   31.5141 H   0  0  0  0  0  0  0  0  0  0  0  0
   38.6451   23.5370   30.8296 H   0  0  0  0  0  0  0  0  0  0  0  0
   35.8523   23.8992   31.8441 H   0  0  0  0  0  0  0  0  0  0  0  0
   36.2978   24.8363   30.3778 H   0  0  0  0  0  0  0  0  0  0  0  0
   36.4425   23.0459   30.3778 H   0  0  0  0  0  0  0  0  0  0  0  0
  1  2  1  0
  3  2  1  0
  4  3  1  0
  5  4  1  0
  5  1  1  0
  6  7  2  0
  7  1  1  0
  7  8  1  0
  9  8  2  0
 10  9  1  0
 11  6  1  0
 11 10  2  0
 12 13  2  0
 12  5  1  0
 14 13  1  0
 15 14  1  0
 15 16  2  0
 16 12  1  0
 17 15  1  0
 18 17  1  0
  1 19  1  1
  2 20  1  0
  2 21  1  0
  3 22  1  0
  3 23  1  0
  4 24  1  0
  4 25  1  0
  5 26  1  6
  6 27  1  0
  8 28  1  0
 10 29  1  0
 13 30  1  0
 17 31  1  0
 17 32  1  0
 18 33  1  0
 18 34  1  0
 18 35  1  0
M  ISO  8  19  13  20  13  21  13  22  13  23  13  24  13  25  13  26  13
M  ISO  8  27  14  28  14  29  14  30  14  31   8  32   8  33   8  34   8
M  ISO  1  35   8
M  END
>  <minimizedAffinity>  (1) 
-4.69277906

>  <minimizedRMSD>  (1) 
0.293688327

$$$$
