
     RDKit          3D

 31 33  0  0  1  0  0  0  0  0999 V2000
   39.4150   22.8470   37.1980 C   0  0  1  0  0  0  0  0  0  0  0  0
   39.2390   23.4130   38.5910 C   0  0  0  0  0  0  0  0  0  0  0  0
   37.9930   24.2510   38.5410 C   0  0  0  0  0  0  0  0  0  0  0  0
   37.4360   24.0830   37.1620 C   0  0  0  0  0  0  0  0  0  0  0  0
   38.7200   23.8420   36.3570 C   0  0  2  0  0  0  0  0  0  0  0  0
   41.5420   23.5210   36.1450 C   0  0  0  0  0  0  0  0  0  0  0  0
   40.8210   22.5630   36.8760 C   0  0  0  0  0  0  0  0  0  0  0  0
   41.4430   21.3780   37.2850 C   0  0  0  0  0  0  0  0  0  0  0  0
   42.7420   21.2190   36.9430 N   0  0  0  0  0  0  0  0  0  0  0  0
   43.4440   22.1470   36.2340 C   0  0  0  0  0  0  0  0  0  0  0  0
   42.8340   23.3090   35.8330 N   0  0  0  0  0  0  0  0  0  0  0  0
   38.2750   23.2460   35.0950 C   0  0  0  0  0  0  0  0  0  0  0  0
   37.6630   21.9840   35.1260 C   0  0  0  0  0  0  0  0  0  0  0  0
   37.3050   21.6920   33.3840 S   0  0  0  0  0  0  0  0  0  0  0  0
   38.0510   23.3540   32.8520 C   0  0  0  0  0  0  0  0  0  0  0  0
   38.4310   23.8580   33.9400 N   0  0  0  0  0  0  0  0  0  0  0  0
   38.1320   23.8540   31.5310 N   0  0  0  0  0  0  0  0  0  0  0  0
   38.9828   21.8473   37.0441 H   0  0  0  0  0  0  0  0  0  0  0  0
   39.1239   22.5997   39.3227 H   0  0  0  0  0  0  0  0  0  0  0  0
   40.1125   24.0064   38.8990 H   0  0  0  0  0  0  0  0  0  0  0  0
   37.2678   23.9022   39.2909 H   0  0  0  0  0  0  0  0  0  0  0  0
   38.2092   25.3067   38.7617 H   0  0  0  0  0  0  0  0  0  0  0  0
   36.7545   23.2216   37.1035 H   0  0  0  0  0  0  0  0  0  0  0  0
   36.8317   24.9320   36.8097 H   0  0  0  0  0  0  0  0  0  0  0  0
   39.3528   24.7145   36.1372 H   0  0  0  0  0  0  0  0  0  0  0  0
   41.0479   24.4504   35.8254 H   0  0  0  0  0  0  0  0  0  0  0  0
   40.9007   20.6114   37.8580 H   0  0  0  0  0  0  0  0  0  0  0  0
   44.4994   21.9648   35.9831 H   0  0  0  0  0  0  0  0  0  0  0  0
   37.4549   21.3381   35.9918 H   0  0  0  0  0  0  0  0  0  0  0  0
   38.5596   24.7742   31.3539 H   0  0  0  0  0  0  0  0  0  0  0  0
   37.7634   23.2978   30.7463 H   0  0  0  0  0  0  0  0  0  0  0  0
  1  2  1  0
  3  2  1  0
  4  3  1  0
  5  4  1  0
  5  1  1  0
  6  7  2  0
  7  1  1  0
  7  8  1  0
  9  8  2  0
 10  9  1  0
 11  6  1  0
 11 10  2  0
 12 13  2  0
 12  5  1  0
 14 13  1  0
 15 14  1  0
 15 16  2  0
 16 12  1  0
 17 15  1  0
  1 18  1  1
  2 19  1  0
  2 20  1  0
  3 21  1  0
  3 22  1  0
  4 23  1  0
  4 24  1  0
  5 25  1  6
  6 26  1  0
  8 27  1  0
 10 28  1  0
 13 29  1  0
 17 30  1  0
 17 31  1  0
M  ISO  8  18  13  19  13  20  13  21  13  22  13  23  13  24  13  25  13
M  ISO  4  26  14  27  14  28  14  29  14
M  END
>  <minimizedAffinity>  (1) 
-4.56155729

>  <minimizedRMSD>  (1) 
0.0590393245

$$$$
