
     RDKit          3D

 30 32  0  0  1  0  0  0  0  0999 V2000
   39.3970   22.8330   37.1990 C   0  0  1  0  0  0  0  0  0  0  0  0
   39.2570   23.4510   38.5880 C   0  0  0  0  0  0  0  0  0  0  0  0
   37.9770   24.2340   38.5450 C   0  0  0  0  0  0  0  0  0  0  0  0
   37.4340   24.0870   37.1640 C   0  0  0  0  0  0  0  0  0  0  0  0
   38.7170   23.8390   36.3560 C   0  0  2  0  0  0  0  0  0  0  0  0
   41.5240   23.4380   36.0950 C   0  0  0  0  0  0  0  0  0  0  0  0
   40.7970   22.5260   36.8740 C   0  0  0  0  0  0  0  0  0  0  0  0
   41.4120   21.3550   37.3310 C   0  0  0  0  0  0  0  0  0  0  0  0
   42.7080   21.1720   36.9810 N   0  0  0  0  0  0  0  0  0  0  0  0
   43.4120   22.0500   36.2300 C   0  0  0  0  0  0  0  0  0  0  0  0
   42.8110   23.1990   35.7820 N   0  0  0  0  0  0  0  0  0  0  0  0
   38.2610   23.2490   35.0930 C   0  0  0  0  0  0  0  0  0  0  0  0
   37.6530   21.9840   35.1210 C   0  0  0  0  0  0  0  0  0  0  0  0
   37.2800   21.7040   33.3760 S   0  0  0  0  0  0  0  0  0  0  0  0
   38.0200   23.3800   32.8540 C   0  0  0  0  0  0  0  0  0  0  0  0
   38.4080   23.8740   33.9440 N   0  0  0  0  0  0  0  0  0  0  0  0
   38.0940   23.8920   31.5690 O   0  0  0  0  0  0  0  0  0  0  0  0
   38.9429   21.8401   37.0649 H   0  0  0  0  0  0  0  0  0  0  0  0
   39.2025   22.6652   39.3558 H   0  0  0  0  0  0  0  0  0  0  0  0
   40.1182   24.0859   38.8435 H   0  0  0  0  0  0  0  0  0  0  0  0
   37.2620   23.8332   39.2786 H   0  0  0  0  0  0  0  0  0  0  0  0
   38.1504   25.2916   38.7926 H   0  0  0  0  0  0  0  0  0  0  0  0
   36.7428   23.2343   37.0925 H   0  0  0  0  0  0  0  0  0  0  0  0
   36.8460   24.9502   36.8187 H   0  0  0  0  0  0  0  0  0  0  0  0
   39.3605   24.7034   36.1355 H   0  0  0  0  0  0  0  0  0  0  0  0
   41.0378   24.3573   35.7365 H   0  0  0  0  0  0  0  0  0  0  0  0
   40.8701   20.6197   37.9439 H   0  0  0  0  0  0  0  0  0  0  0  0
   44.4629   21.8432   35.9794 H   0  0  0  0  0  0  0  0  0  0  0  0
   37.4547   21.3311   35.9838 H   0  0  0  0  0  0  0  0  0  0  0  0
   38.5024   24.7802   31.4128 H   0  0  0  0  0  0  0  0  0  0  0  0
  1  2  1  0
  3  2  1  0
  4  3  1  0
  5  4  1  0
  5  1  1  0
  6  7  2  0
  7  1  1  0
  7  8  1  0
  9  8  2  0
 10  9  1  0
 11  6  1  0
 11 10  2  0
 12 13  2  0
 12  5  1  0
 14 13  1  0
 15 14  1  0
 15 16  2  0
 16 12  1  0
 17 15  1  0
  1 18  1  1
  2 19  1  0
  2 20  1  0
  3 21  1  0
  3 22  1  0
  4 23  1  0
  4 24  1  0
  5 25  1  6
  6 26  1  0
  8 27  1  0
 10 28  1  0
 13 29  1  0
 17 30  1  0
M  ISO  8  18  13  19  13  20  13  21  13  22  13  23  13  24  13  25  13
M  ISO  5  26  14  27  14  28  14  29  14  30   3
M  END
>  <minimizedAffinity>  (1) 
-4.55603743

>  <minimizedRMSD>  (1) 
0.0283718668

$$$$
