
     RDKit          3D

 40 43  0  0  1  0  0  0  0  0999 V2000
   39.5610   23.0790   36.8360 C   0  0  1  0  0  0  0  0  0  0  0  0
   39.1940   23.1450   38.3300 C   0  0  0  0  0  0  0  0  0  0  0  0
   38.0140   24.0520   38.3950 C   0  0  0  0  0  0  0  0  0  0  0  0
   37.8390   24.6510   37.0480 C   0  0  0  0  0  0  0  0  0  0  0  0
   39.1840   24.3920   36.3920 C   0  0  2  0  0  0  0  0  0  0  0  0
   41.8500   23.5290   36.0330 C   0  0  0  0  0  0  0  0  0  0  0  0
   40.9710   22.6650   36.6430 C   0  0  0  0  0  0  0  0  0  0  0  0
   41.3810   21.3900   37.0920 C   0  0  0  0  0  0  0  0  0  0  0  0
   42.6660   21.0610   36.8950 N   0  0  0  0  0  0  0  0  0  0  0  0
   43.5500   21.9200   36.2850 C   0  0  0  0  0  0  0  0  0  0  0  0
   43.1300   23.1670   35.8520 N   0  0  0  0  0  0  0  0  0  0  0  0
   39.0050   24.5460   34.9610 C   0  0  0  0  0  0  0  0  0  0  0  0
   38.2530   23.6160   34.3470 C   0  0  0  0  0  0  0  0  0  0  0  0
   38.3520   24.1870   32.6170 S   0  0  0  0  0  0  0  0  0  0  0  0
   39.4450   25.6720   33.0500 C   0  0  0  0  0  0  0  0  0  0  0  0
   39.5550   25.5230   34.2710 N   0  0  0  0  0  0  0  0  0  0  0  0
   37.4140   22.4570   34.4310 C   0  0  0  0  0  0  0  0  0  0  0  0
   36.9150   21.8040   33.3210 C   0  0  0  0  0  0  0  0  0  0  0  0
   36.0330   20.7480   33.3690 C   0  0  0  0  0  0  0  0  0  0  0  0
   35.6280   20.3200   34.5670 N   0  0  0  0  0  0  0  0  0  0  0  0
   36.0630   20.8980   35.6870 C   0  0  0  0  0  0  0  0  0  0  0  0
   36.8980   21.8900   35.5240 N   0  0  0  0  0  0  0  0  0  0  0  0
   39.9300   26.6870   32.0610 C   0  0  0  0  0  0  0  0  0  0  0  0
   38.8820   27.5770   31.7540 F   0  0  0  0  0  0  0  0  0  0  0  0
   40.8960   27.4970   32.6450 F   0  0  0  0  0  0  0  0  0  0  0  0
   40.3750   26.1000   30.9300 F   0  0  0  0  0  0  0  0  0  0  0  0
   39.0509   22.3118   36.2349 H   0  0  0  0  0  0  0  0  0  0  0  0
   38.9353   22.1455   38.7095 H   0  0  0  0  0  0  0  0  0  0  0  0
   40.0298   23.5080   38.9461 H   0  0  0  0  0  0  0  0  0  0  0  0
   37.1157   23.4808   38.6719 H   0  0  0  0  0  0  0  0  0  0  0  0
   38.1681   24.8358   39.1513 H   0  0  0  0  0  0  0  0  0  0  0  0
   37.0263   24.1561   36.4961 H   0  0  0  0  0  0  0  0  0  0  0  0
   37.5638   25.7157   37.0754 H   0  0  0  0  0  0  0  0  0  0  0  0
   39.9956   25.0849   36.6590 H   0  0  0  0  0  0  0  0  0  0  0  0
   41.5043   24.5165   35.6934 H   0  0  0  0  0  0  0  0  0  0  0  0
   40.6786   20.6988   37.5807 H   0  0  0  0  0  0  0  0  0  0  0  0
   44.5969   21.6150   36.1401 H   0  0  0  0  0  0  0  0  0  0  0  0
   37.2449   22.1514   32.3308 H   0  0  0  0  0  0  0  0  0  0  0  0
   35.6721   20.2703   32.4462 H   0  0  0  0  0  0  0  0  0  0  0  0
   35.7401   20.5618   36.6833 H   0  0  0  0  0  0  0  0  0  0  0  0
  1  2  1  0
  2  3  1  0
  4  3  1  0
  5  1  1  0
  5  4  1  0
  6  7  2  0
  7  1  1  0
  7  8  1  0
  9  8  2  0
 10  9  1  0
 11  6  1  0
 11 10  2  0
 12  5  1  0
 13 17  1  0
 13 12  2  0
 14 15  1  0
 14 13  1  0
 15 16  2  0
 16 12  1  0
 17 22  2  0
 18 19  2  0
 18 17  1  0
 19 20  1  0
 20 21  2  0
 22 21  1  0
 23 25  1  0
 23 15  1  0
 24 23  1  0
 26 23  1  0
  1 27  1  6
  2 28  1  0
  2 29  1  0
  3 30  1  0
  3 31  1  0
  4 32  1  0
  4 33  1  0
  5 34  1  1
  6 35  1  0
  8 36  1  0
 10 37  1  0
 18 38  1  0
 19 39  1  0
 21 40  1  0
M  ISO  8  27  13  28  13  29  13  30  13  31  13  32  13  33  13  34  13
M  ISO  6  35  14  36  14  37  14  38  14  39  14  40  14
M  END
>  <minimizedAffinity>  (1) 
-5.39578009

>  <minimizedRMSD>  (1) 
2.48915768

$$$$
