
     RDKit          3D

 39 42  0  0  1  0  0  0  0  0999 V2000
   39.5420   23.0050   36.8750 C   0  0  1  0  0  0  0  0  0  0  0  0
   39.2500   23.2790   38.3630 C   0  0  0  0  0  0  0  0  0  0  0  0
   38.0080   24.1110   38.3580 C   0  0  0  0  0  0  0  0  0  0  0  0
   37.7670   24.5400   36.9560 C   0  0  0  0  0  0  0  0  0  0  0  0
   39.1040   24.2340   36.2830 C   0  0  2  0  0  0  0  0  0  0  0  0
   41.8240   23.4930   36.0630 C   0  0  0  0  0  0  0  0  0  0  0  0
   40.9570   22.6120   36.6740 C   0  0  0  0  0  0  0  0  0  0  0  0
   41.3880   21.3420   37.1160 C   0  0  0  0  0  0  0  0  0  0  0  0
   42.6830   21.0420   36.9110 N   0  0  0  0  0  0  0  0  0  0  0  0
   43.5480   21.9050   36.3070 C   0  0  0  0  0  0  0  0  0  0  0  0
   43.1090   23.1450   35.8800 N   0  0  0  0  0  0  0  0  0  0  0  0
   38.8700   24.2030   34.8500 C   0  0  0  0  0  0  0  0  0  0  0  0
   38.1040   23.2070   34.3890 C   0  0  0  0  0  0  0  0  0  0  0  0
   38.1290   23.5590   32.5980 S   0  0  0  0  0  0  0  0  0  0  0  0
   39.2270   25.0850   32.8010 C   0  0  0  0  0  0  0  0  0  0  0  0
   39.3860   25.0850   34.0260 N   0  0  0  0  0  0  0  0  0  0  0  0
   37.2100   22.1390   34.6640 C   0  0  0  0  0  0  0  0  0  0  0  0
   36.6710   21.6430   35.8740 C   0  0  0  0  0  0  0  0  0  0  0  0
   35.7750   20.6600   35.6940 N   0  0  0  0  0  0  0  0  0  0  0  0
   35.6760   20.4580   34.3690 C   0  0  0  0  0  0  0  0  0  0  0  0
   36.5130   21.3260   33.8020 N   0  0  0  0  0  0  0  0  0  0  0  0
   39.6780   25.9670   31.6740 C   0  0  0  0  0  0  0  0  0  0  0  0
   38.6750   26.0210   30.6940 F   0  0  0  0  0  0  0  0  0  0  0  0
   39.8010   27.2780   32.1130 F   0  0  0  0  0  0  0  0  0  0  0  0
   40.8280   25.5160   31.1250 F   0  0  0  0  0  0  0  0  0  0  0  0
   39.0311   22.1482   36.4114 H   0  0  0  0  0  0  0  0  0  0  0  0
   39.0838   22.3368   38.9058 H   0  0  0  0  0  0  0  0  0  0  0  0
   40.0878   23.7842   38.8658 H   0  0  0  0  0  0  0  0  0  0  0  0
   37.1562   23.5174   38.7214 H   0  0  0  0  0  0  0  0  0  0  0  0
   38.1223   24.9840   39.0174 H   0  0  0  0  0  0  0  0  0  0  0  0
   36.9501   23.9627   36.4983 H   0  0  0  0  0  0  0  0  0  0  0  0
   37.4610   25.5927   36.8656 H   0  0  0  0  0  0  0  0  0  0  0  0
   39.9027   24.9762   36.4284 H   0  0  0  0  0  0  0  0  0  0  0  0
   41.4652   24.4769   35.7266 H   0  0  0  0  0  0  0  0  0  0  0  0
   40.7003   20.6347   37.6027 H   0  0  0  0  0  0  0  0  0  0  0  0
   44.5985   21.6143   36.1587 H   0  0  0  0  0  0  0  0  0  0  0  0
   36.9578   22.0252   36.8648 H   0  0  0  0  0  0  0  0  0  0  0  0
   35.0347   19.7255   33.8570 H   0  0  0  0  0  0  0  0  0  0  0  0
   36.6306   21.3843   32.7804 H   0  0  0  0  0  0  0  0  0  0  0  0
  1  2  1  0
  3  2  1  0
  4  3  1  0
  5  1  1  0
  5  4  1  0
  6  7  2  0
  7  1  1  0
  7  8  1  0
  9  8  2  0
 10  9  1  0
 11  6  1  0
 11 10  2  0
 12  5  1  0
 13 17  1  0
 13 12  2  0
 14 15  1  0
 14 13  1  0
 15 16  2  0
 16 12  1  0
 17 18  2  0
 19 18  1  0
 20 19  2  0
 21 20  1  0
 21 17  1  0
 22 24  1  0
 22 15  1  0
 23 22  1  0
 25 22  1  0
  1 26  1  6
  2 27  1  0
  2 28  1  0
  3 29  1  0
  3 30  1  0
  4 31  1  0
  4 32  1  0
  5 33  1  6
  6 34  1  0
  8 35  1  0
 10 36  1  0
 18 37  1  0
 20 38  1  0
 21 39  1  0
M  ISO  8  26  13  27  13  28  13  29  13  30  13  31  13  32  13  33  13
M  ISO  6  34  14  35  14  36  14  37  14  38  14  39   9
M  END
>  <minimizedAffinity>  (1) 
-5.2617178

>  <minimizedRMSD>  (1) 
1.92669868

$$$$
