
     RDKit          3D

 35 37  0  0  1  0  0  0  0  0999 V2000
   39.4150   22.8370   37.1830 C   0  0  1  0  0  0  0  0  0  0  0  0
   39.2640   23.5100   38.5580 C   0  0  0  0  0  0  0  0  0  0  0  0
   37.9760   24.2570   38.4870 C   0  0  0  0  0  0  0  0  0  0  0  0
   37.4590   24.1090   37.0950 C   0  0  0  0  0  0  0  0  0  0  0  0
   38.7550   23.7840   36.3280 C   0  0  2  0  0  0  0  0  0  0  0  0
   41.5880   23.4370   36.1940 C   0  0  0  0  0  0  0  0  0  0  0  0
   40.8250   22.5100   36.8940 C   0  0  0  0  0  0  0  0  0  0  0  0
   41.3730   21.2880   37.3330 C   0  0  0  0  0  0  0  0  0  0  0  0
   42.6690   21.0690   37.0370 N   0  0  0  0  0  0  0  0  0  0  0  0
   43.4320   21.9810   36.3450 C   0  0  0  0  0  0  0  0  0  0  0  0
   42.8800   23.1780   35.9190 N   0  0  0  0  0  0  0  0  0  0  0  0
   38.3500   23.2710   35.0400 C   0  0  0  0  0  0  0  0  0  0  0  0
   37.4510   22.2610   35.0250 C   0  0  0  0  0  0  0  0  0  0  0  0
   37.2490   21.9290   33.2610 S   0  0  0  0  0  0  0  0  0  0  0  0
   38.4780   23.2900   32.7810 C   0  0  0  0  0  0  0  0  0  0  0  0
   38.7920   23.7050   33.9000 N   0  0  0  0  0  0  0  0  0  0  0  0
   38.8640   23.6590   31.3760 C   0  0  0  0  0  0  0  0  0  0  0  0
   37.7200   23.5770   30.5560 F   0  0  0  0  0  0  0  0  0  0  0  0
   39.2460   24.9820   31.3110 F   0  0  0  0  0  0  0  0  0  0  0  0
   39.8150   22.8310   30.8880 F   0  0  0  0  0  0  0  0  0  0  0  0
   36.6260   21.4230   35.7510 C   0  0  0  0  0  0  0  0  0  0  0  0
   35.6250   20.7030   35.4660 O   0  0  0  0  0  0  0  0  0  0  0  0
   36.0510   20.7200   36.7410 O   0  0  0  0  0  0  0  0  0  0  0  0
   38.9625   21.8412   37.0660 H   0  0  0  0  0  0  0  0  0  0  0  0
   39.2280   22.7537   39.3560 H   0  0  0  0  0  0  0  0  0  0  0  0
   40.1118   24.1723   38.7874 H   0  0  0  0  0  0  0  0  0  0  0  0
   37.2556   23.8360   39.2038 H   0  0  0  0  0  0  0  0  0  0  0  0
   38.1241   25.3175   38.7389 H   0  0  0  0  0  0  0  0  0  0  0  0
   36.7300   23.2886   37.0207 H   0  0  0  0  0  0  0  0  0  0  0  0
   36.9196   24.9902   36.7174 H   0  0  0  0  0  0  0  0  0  0  0  0
   39.4419   24.6174   36.1192 H   0  0  0  0  0  0  0  0  0  0  0  0
   41.1354   24.3838   35.8642 H   0  0  0  0  0  0  0  0  0  0  0  0
   40.7738   20.5514   37.8884 H   0  0  0  0  0  0  0  0  0  0  0  0
   44.4872   21.7582   36.1286 H   0  0  0  0  0  0  0  0  0  0  0  0
   35.2700   20.1427   36.5492 H   0  0  0  0  0  0  0  0  0  0  0  0
  1  2  1  0
  3  2  1  0
  4  3  1  0
  5  4  1  0
  5  1  1  0
  6  7  2  0
  7  1  1  0
  7  8  1  0
  9  8  2  0
 10  9  1  0
 11  6  1  0
 11 10  2  0
 12  5  1  0
 13 12  2  0
 13 21  1  0
 14 13  1  0
 15 14  1  0
 15 16  2  0
 16 12  1  0
 17 15  1  0
 18 17  1  0
 19 17  1  0
 20 17  1  0
 21 23  1  0
 22 21  2  0
  1 24  1  1
  2 25  1  0
  2 26  1  0
  3 27  1  0
  3 28  1  0
  4 29  1  0
  4 30  1  0
  5 31  1  6
  6 32  1  0
  8 33  1  0
 10 34  1  0
 23 35  1  0
M  ISO  8  24  13  25  13  26  13  27  13  28  13  29  13  30  13  31  13
M  ISO  4  32  14  33  14  34  14  35   3
M  END
>  <minimizedAffinity>  (1) 
-5.17184162

>  <minimizedRMSD>  (1) 
0.938453138

$$$$
