
     RDKit          3D

 37 40  0  0  1  0  0  0  0  0999 V2000
   39.4870   23.0230   36.8460 C   0  0  1  0  0  0  0  0  0  0  0  0
   39.1270   23.2760   38.3190 C   0  0  0  0  0  0  0  0  0  0  0  0
   37.9340   24.1700   38.2760 C   0  0  0  0  0  0  0  0  0  0  0  0
   37.7110   24.5310   36.8580 C   0  0  0  0  0  0  0  0  0  0  0  0
   39.0900   24.2620   36.2360 C   0  0  2  0  0  0  0  0  0  0  0  0
   41.7840   23.4740   36.0900 C   0  0  0  0  0  0  0  0  0  0  0  0
   40.8850   22.5900   36.6960 C   0  0  0  0  0  0  0  0  0  0  0  0
   41.3050   21.3340   37.1570 C   0  0  0  0  0  0  0  0  0  0  0  0
   42.6080   21.0290   36.9850 N   0  0  0  0  0  0  0  0  0  0  0  0
   43.4960   21.8860   36.3940 C   0  0  0  0  0  0  0  0  0  0  0  0
   43.0770   23.1240   35.9410 N   0  0  0  0  0  0  0  0  0  0  0  0
   38.9000   24.2070   34.8010 C   0  0  0  0  0  0  0  0  0  0  0  0
   38.0460   23.2470   34.3250 C   0  0  0  0  0  0  0  0  0  0  0  0
   38.1110   23.5350   32.5400 S   0  0  0  0  0  0  0  0  0  0  0  0
   39.3480   24.9900   32.7340 C   0  0  0  0  0  0  0  0  0  0  0  0
   39.4950   25.0180   33.9680 N   0  0  0  0  0  0  0  0  0  0  0  0
   37.1860   22.1890   34.6580 C   0  0  0  0  0  0  0  0  0  0  0  0
   36.8980   21.7240   35.8900 N   0  0  0  0  0  0  0  0  0  0  0  0
   36.0610   20.7400   35.7550 O   0  0  0  0  0  0  0  0  0  0  0  0
   35.7630   20.5120   34.5010 C   0  0  0  0  0  0  0  0  0  0  0  0
   36.4590   21.4110   33.7910 N   0  0  0  0  0  0  0  0  0  0  0  0
   39.9130   25.8070   31.6080 C   0  0  0  0  0  0  0  0  0  0  0  0
   38.9590   25.8660   30.5720 F   0  0  0  0  0  0  0  0  0  0  0  0
   40.0820   27.1080   31.9910 F   0  0  0  0  0  0  0  0  0  0  0  0
   41.0420   25.2500   31.1130 F   0  0  0  0  0  0  0  0  0  0  0  0
   38.9816   22.1813   36.3499 H   0  0  0  0  0  0  0  0  0  0  0  0
   38.8836   22.3304   38.8256 H   0  0  0  0  0  0  0  0  0  0  0  0
   39.9612   23.7262   38.8771 H   0  0  0  0  0  0  0  0  0  0  0  0
   37.0538   23.6440   38.6743 H   0  0  0  0  0  0  0  0  0  0  0  0
   38.0968   25.0695   38.8879 H   0  0  0  0  0  0  0  0  0  0  0  0
   36.9367   23.8968   36.4017 H   0  0  0  0  0  0  0  0  0  0  0  0
   37.3546   25.5617   36.7147 H   0  0  0  0  0  0  0  0  0  0  0  0
   39.8727   25.0164   36.4038 H   0  0  0  0  0  0  0  0  0  0  0  0
   41.4355   24.4551   35.7350 H   0  0  0  0  0  0  0  0  0  0  0  0
   40.6064   20.6318   37.6354 H   0  0  0  0  0  0  0  0  0  0  0  0
   44.5488   21.5889   36.2785 H   0  0  0  0  0  0  0  0  0  0  0  0
   35.0819   19.7416   34.1104 H   0  0  0  0  0  0  0  0  0  0  0  0
  1  2  1  0
  3  2  1  0
  4  3  1  0
  5  1  1  0
  5  4  1  0
  6  7  2  0
  7  1  1  0
  7  8  1  0
  9  8  2  0
 10  9  1  0
 11  6  1  0
 11 10  2  0
 12  5  1  0
 13 17  1  0
 13 12  2  0
 14 15  1  0
 14 13  1  0
 15 16  2  0
 16 12  1  0
 17 18  2  0
 19 18  1  0
 20 19  1  0
 21 20  2  0
 21 17  1  0
 22 24  1  0
 22 15  1  0
 23 22  1  0
 25 22  1  0
  1 26  1  6
  2 27  1  0
  2 28  1  0
  3 29  1  0
  3 30  1  0
  4 31  1  0
  4 32  1  0
  5 33  1  6
  6 34  1  0
  8 35  1  0
 10 36  1  0
 20 37  1  0
M  ISO  8  26  13  27  13  28  13  29  13  30  13  31  13  32  13  33  13
M  ISO  4  34  14  35  14  36  14  37  14
M  END
>  <minimizedAffinity>  (1) 
-5.16054201

>  <minimizedRMSD>  (1) 
2.00240278

$$$$
