
     RDKit          3D

 23 24  0  0  0  0  0  0  0  0999 V2000
   40.4590   22.3920   37.7140 C   0  0  0  0  0  0  0  0  0  0  0  0
   39.2950   23.1280   37.4420 C   0  0  0  0  0  0  0  0  0  0  0  0
   38.9710   23.3450   36.1150 C   0  0  0  0  0  0  0  0  0  0  0  0
   39.7820   22.8440   35.1430 N   0  0  0  0  0  0  0  0  0  0  0  0
   40.8980   22.1380   35.4530 C   0  0  0  0  0  0  0  0  0  0  0  0
   41.2170   21.9250   36.7330 N   0  0  0  0  0  0  0  0  0  0  0  0
   38.4090   23.6750   38.5080 C   0  0  0  0  0  0  0  0  0  0  0  0
   39.1980   23.8670   39.6300 F   0  0  0  0  0  0  0  0  0  0  0  0
   37.3900   22.8490   38.8380 F   0  0  0  0  0  0  0  0  0  0  0  0
   37.9910   24.9810   38.1650 F   0  0  0  0  0  0  0  0  0  0  0  0
   41.8860   21.5300   34.0940 S   0  0  0  0  0  0  0  0  0  0  0  0
   43.2880   22.6180   33.8170 C   0  0  0  0  0  0  0  0  0  0  0  0
   43.2270   23.9070   34.3680 C   0  0  0  0  0  0  0  0  0  0  0  0
   44.8730   24.6500   33.8270 S   0  0  0  0  0  0  0  0  0  0  0  0
   45.2980   23.0240   32.9550 C   0  0  0  0  0  0  0  0  0  0  0  0
   44.3940   22.4270   33.1760 N   0  0  0  0  0  0  0  0  0  0  0  0
   46.5920   22.8170   32.2110 C   0  0  0  0  0  0  0  0  0  0  0  0
   40.7463   22.2000   38.7583 H   0  0  0  0  0  0  0  0  0  0  0  0
   38.0691   23.9154   35.8482 H   0  0  0  0  0  0  0  0  0  0  0  0
   42.4242   24.3664   34.9633 H   0  0  0  0  0  0  0  0  0  0  0  0
   47.4125   22.6858   32.9318 H   0  0  0  0  0  0  0  0  0  0  0  0
   46.5122   21.9202   31.5790 H   0  0  0  0  0  0  0  0  0  0  0  0
   46.7959   23.6939   31.5790 H   0  0  0  0  0  0  0  0  0  0  0  0
  2  1  2  0
  2  7  1  0
  3  2  1  0
  4  5  1  0
  4  3  2  0
  5  6  2  0
  6  1  1  0
  7  9  1  0
  7  8  1  0
 10  7  1  0
 11  5  1  0
 12 11  1  0
 12 13  2  0
 14 13  1  0
 15 16  2  0
 15 14  1  0
 16 12  1  0
 17 15  1  0
  1 18  1  0
  3 19  1  0
 13 20  1  0
 17 21  1  0
 17 22  1  0
 17 23  1  0
M  ISO  6  18  14  19  14  20  14  21   8  22   8  23   8
M  END
>  <minimizedAffinity>  (1) 
-3.78678465

>  <minimizedRMSD>  (1) 
0.033591684

$$$$
