
     RDKit          3D

 33 35  0  0  1  0  0  0  0  0999 V2000
   39.4000   22.8930   37.2660 C   0  0  1  0  0  0  0  0  0  0  0  0
   39.2620   23.5300   38.6540 C   0  0  0  0  0  0  0  0  0  0  0  0
   38.0110   24.3500   38.5920 C   0  0  0  0  0  0  0  0  0  0  0  0
   37.4440   24.1590   37.2330 C   0  0  0  0  0  0  0  0  0  0  0  0
   38.7270   23.8550   36.4200 C   0  0  2  0  0  0  0  0  0  0  0  0
   41.5410   23.4650   36.1990 C   0  0  0  0  0  0  0  0  0  0  0  0
   40.7980   22.5520   36.9440 C   0  0  0  0  0  0  0  0  0  0  0  0
   41.3550   21.3370   37.3900 C   0  0  0  0  0  0  0  0  0  0  0  0
   42.6480   21.1150   37.0520 N   0  0  0  0  0  0  0  0  0  0  0  0
   43.3860   22.0130   36.3170 C   0  0  0  0  0  0  0  0  0  0  0  0
   42.8220   23.2030   35.8870 N   0  0  0  0  0  0  0  0  0  0  0  0
   38.2780   23.3140   35.1510 C   0  0  0  0  0  0  0  0  0  0  0  0
   37.5350   22.1540   35.1870 C   0  0  0  0  0  0  0  0  0  0  0  0
   37.1910   21.8380   33.4470 S   0  0  0  0  0  0  0  0  0  0  0  0
   38.1520   23.4080   32.9020 C   0  0  0  0  0  0  0  0  0  0  0  0
   38.5330   23.8600   33.9980 N   0  0  0  0  0  0  0  0  0  0  0  0
   38.3250   23.8620   31.4840 C   0  0  0  0  0  0  0  0  0  0  0  0
   37.2490   23.3810   30.7110 F   0  0  0  0  0  0  0  0  0  0  0  0
   38.2260   25.2360   31.4000 F   0  0  0  0  0  0  0  0  0  0  0  0
   39.4810   23.4020   30.9490 F   0  0  0  0  0  0  0  0  0  0  0  0
   36.9900   21.2000   36.0140 O   0  0  0  0  0  0  0  0  0  0  0  0
   38.9406   21.9007   37.1466 H   0  0  0  0  0  0  0  0  0  0  0  0
   39.1748   22.7526   39.4274 H   0  0  0  0  0  0  0  0  0  0  0  0
   40.1393   24.1409   38.9130 H   0  0  0  0  0  0  0  0  0  0  0  0
   37.2948   24.0075   39.3534 H   0  0  0  0  0  0  0  0  0  0  0  0
   38.2231   25.4116   38.7872 H   0  0  0  0  0  0  0  0  0  0  0  0
   36.7379   23.3160   37.2043 H   0  0  0  0  0  0  0  0  0  0  0  0
   36.8614   25.0140   36.8595 H   0  0  0  0  0  0  0  0  0  0  0  0
   39.3981   24.6945   36.1858 H   0  0  0  0  0  0  0  0  0  0  0  0
   41.0773   24.4047   35.8645 H   0  0  0  0  0  0  0  0  0  0  0  0
   40.7741   20.6113   37.9781 H   0  0  0  0  0  0  0  0  0  0  0  0
   44.4329   21.7845   36.0685 H   0  0  0  0  0  0  0  0  0  0  0  0
   36.4743   20.4476   35.6293 H   0  0  0  0  0  0  0  0  0  0  0  0
  1  2  1  0
  3  2  1  0
  4  3  1  0
  5  4  1  0
  5  1  1  0
  6  7  2  0
  7  1  1  0
  7  8  1  0
  9  8  2  0
 10  9  1  0
 11  6  1  0
 11 10  2  0
 12 13  2  0
 12  5  1  0
 13 21  1  0
 14 13  1  0
 15 14  1  0
 15 16  2  0
 16 12  1  0
 17 15  1  0
 18 17  1  0
 19 17  1  0
 20 17  1  0
  1 22  1  1
  2 23  1  0
  2 24  1  0
  3 25  1  0
  3 26  1  0
  4 27  1  0
  4 28  1  0
  5 29  1  6
  6 30  1  0
  8 31  1  0
 10 32  1  0
 21 33  1  0
M  ISO  8  22  13  23  13  24  13  25  13  26  13  27  13  28  13  29  13
M  ISO  4  30  14  31  14  32  14  33   3
M  END
>  <minimizedAffinity>  (1) 
-4.97652578

>  <minimizedRMSD>  (1) 
0.488491088

$$$$
