
     RDKit          3D

 43 46  0  0  1  0  0  0  0  0999 V2000
   39.6090   22.6880   34.9120 C   0  0  1  0  0  0  0  0  0  0  0  0
   39.7350   22.2740   36.3860 C   0  0  0  0  0  0  0  0  0  0  0  0
   38.5290   22.8350   37.0510 C   0  0  0  0  0  0  0  0  0  0  0  0
   37.8470   23.7080   36.0570 C   0  0  0  0  0  0  0  0  0  0  0  0
   38.9310   23.9530   35.0200 C   0  0  2  0  0  0  0  0  0  0  0  0
   41.7380   23.7700   34.3320 C   0  0  0  0  0  0  0  0  0  0  0  0
   40.9080   22.6520   34.2250 C   0  0  0  0  0  0  0  0  0  0  0  0
   41.3080   21.5200   33.4960 C   0  0  0  0  0  0  0  0  0  0  0  0
   42.5290   21.5820   32.9120 N   0  0  0  0  0  0  0  0  0  0  0  0
   43.3470   22.6760   33.0110 C   0  0  0  0  0  0  0  0  0  0  0  0
   42.9440   23.7780   33.7300 N   0  0  0  0  0  0  0  0  0  0  0  0
   38.2780   24.4020   33.8020 C   0  0  0  0  0  0  0  0  0  0  0  0
   37.5500   23.4780   33.1210 C   0  0  0  0  0  0  0  0  0  0  0  0
   36.9390   24.4490   31.7180 S   0  0  0  0  0  0  0  0  0  0  0  0
   37.8230   26.0400   32.3260 C   0  0  0  0  0  0  0  0  0  0  0  0
   38.3690   25.6290   33.3600 N   0  0  0  0  0  0  0  0  0  0  0  0
   37.0850   22.1900   33.0150 N   0  0  0  0  0  0  0  0  0  0  0  0
   36.0900   21.5560   33.6770 C   0  0  0  0  0  0  0  0  0  0  0  0
   35.6800   20.2650   33.5000 C   0  0  0  0  0  0  0  0  0  0  0  0
   36.3710   19.5590   32.5390 C   0  0  0  0  0  0  0  0  0  0  0  0
   36.0170   18.2050   32.2810 N   0  0  0  0  0  0  0  0  0  0  0  0
   37.3770   20.1030   31.8260 N   0  0  0  0  0  0  0  0  0  0  0  0
   37.7170   21.4020   32.0730 C   0  0  0  0  0  0  0  0  0  0  0  0
   38.6750   21.8080   31.3460 O   0  0  0  0  0  0  0  0  0  0  0  0
   37.7790   27.3770   31.6360 C   0  0  0  0  0  0  0  0  0  0  0  0
   37.2520   28.3270   32.5350 F   0  0  0  0  0  0  0  0  0  0  0  0
   39.0430   27.8230   31.3720 F   0  0  0  0  0  0  0  0  0  0  0  0
   36.9830   27.3420   30.5430 F   0  0  0  0  0  0  0  0  0  0  0  0
   39.0381   22.0130   34.2575 H   0  0  0  0  0  0  0  0  0  0  0  0
   39.7526   21.1781   36.4791 H   0  0  0  0  0  0  0  0  0  0  0  0
   40.6658   22.6450   36.8399 H   0  0  0  0  0  0  0  0  0  0  0  0
   37.8572   22.0216   37.3625 H   0  0  0  0  0  0  0  0  0  0  0  0
   38.8073   23.4070   37.9484 H   0  0  0  0  0  0  0  0  0  0  0  0
   36.9806   23.1979   35.6109 H   0  0  0  0  0  0  0  0  0  0  0  0
   37.4471   24.6346   36.4947 H   0  0  0  0  0  0  0  0  0  0  0  0
   39.6677   24.7319   35.2661 H   0  0  0  0  0  0  0  0  0  0  0  0
   41.4068   24.6461   34.9089 H   0  0  0  0  0  0  0  0  0  0  0  0
   40.6653   20.6320   33.4043 H   0  0  0  0  0  0  0  0  0  0  0  0
   44.3286   22.6738   32.5145 H   0  0  0  0  0  0  0  0  0  0  0  0
   35.5544   22.1421   34.4384 H   0  0  0  0  0  0  0  0  0  0  0  0
   34.8586   19.8215   34.0818 H   0  0  0  0  0  0  0  0  0  0  0  0
   36.5261   17.6670   31.5652 H   0  0  0  0  0  0  0  0  0  0  0  0
   35.2517   17.7630   32.8100 H   0  0  0  0  0  0  0  0  0  0  0  0
  1  5  1  0
  1  2  1  0
  2  3  1  0
  4  3  1  0
  5  4  1  0
  7  6  2  0
  7  1  1  0
  8  7  1  0
  9 10  1  0
  9  8  2  0
 10 11  2  0
 11  6  1  0
 12  5  1  0
 13 12  2  0
 14 15  1  0
 14 13  1  0
 15 16  2  0
 16 12  1  0
 17 13  1  0
 17 18  1  0
 19 18  2  0
 20 19  1  0
 21 20  1  0
 22 23  1  0
 22 20  2  0
 23 17  1  0
 24 23  2  0
 25 15  1  0
 25 26  1  0
 27 25  1  0
 28 25  1  0
  1 29  1  6
  2 30  1  0
  2 31  1  0
  3 32  1  0
  3 33  1  0
  4 34  1  0
  4 35  1  0
  5 36  1  1
  6 37  1  0
  8 38  1  0
 10 39  1  0
 18 40  1  0
 19 41  1  0
 21 42  1  0
 21 43  1  0
M  ISO  8  29  13  30  13  31  13  32  13  33  13  34  13  35  13  36  13
M  ISO  5  37  14  38  14  39  14  40  14  41  14
M  END
>  <minimizedAffinity>  (1) 
-4.52327299

>  <minimizedRMSD>  (1) 
3.51976228

$$$$
