
     RDKit          3D

 21 22  0  0  0  0  0  0  0  0999 V2000
   40.4530   22.3900   37.7200 C   0  0  0  0  0  0  0  0  0  0  0  0
   39.2830   23.1270   37.4360 C   0  0  0  0  0  0  0  0  0  0  0  0
   38.9680   23.3330   36.1210 C   0  0  0  0  0  0  0  0  0  0  0  0
   39.7640   22.8370   35.1270 N   0  0  0  0  0  0  0  0  0  0  0  0
   40.8900   22.1250   35.4550 C   0  0  0  0  0  0  0  0  0  0  0  0
   41.2090   21.9180   36.7260 N   0  0  0  0  0  0  0  0  0  0  0  0
   38.4040   23.6760   38.5080 C   0  0  0  0  0  0  0  0  0  0  0  0
   39.2090   23.8680   39.6280 F   0  0  0  0  0  0  0  0  0  0  0  0
   37.3770   22.8730   38.8280 F   0  0  0  0  0  0  0  0  0  0  0  0
   37.9960   24.9840   38.1680 F   0  0  0  0  0  0  0  0  0  0  0  0
   41.8630   21.5160   34.0970 S   0  0  0  0  0  0  0  0  0  0  0  0
   43.2570   22.5910   33.7920 C   0  0  0  0  0  0  0  0  0  0  0  0
   43.2000   23.8870   34.3800 C   0  0  0  0  0  0  0  0  0  0  0  0
   44.8300   24.6680   33.8150 S   0  0  0  0  0  0  0  0  0  0  0  0
   45.2390   23.0800   32.9110 C   0  0  0  0  0  0  0  0  0  0  0  0
   44.3580   22.4480   33.1250 N   0  0  0  0  0  0  0  0  0  0  0  0
   46.7540   22.5720   31.8600 S   0  0  0  0  0  0  0  0  0  0  0  0
   40.7430   22.2038   38.7646 H   0  0  0  0  0  0  0  0  0  0  0  0
   38.0645   23.9039   35.8608 H   0  0  0  0  0  0  0  0  0  0  0  0
   42.4079   24.3245   35.0054 H   0  0  0  0  0  0  0  0  0  0  0  0
   47.7887   22.2250   32.6882 H   0  0  0  0  0  0  0  0  0  0  0  0
  2  1  2  0
  2  7  1  0
  3  2  1  0
  4  5  1  0
  4  3  2  0
  5  6  2  0
  6  1  1  0
  7  9  1  0
  7  8  1  0
 10  7  1  0
 11  5  1  0
 12 11  1  0
 12 13  2  0
 14 13  1  0
 15 16  2  0
 15 14  1  0
 16 12  1  0
 17 15  1  0
  1 18  1  0
  3 19  1  0
 13 20  1  0
 17 21  1  0
M  ISO  4  18  14  19  14  20  14  21  11
M  END
>  <minimizedAffinity>  (1) 
-3.78459406

>  <minimizedRMSD>  (1) 
0.0234717261

$$$$
