
     RDKit          3D

 37 41  0  0  0  0  0  0  0  0999 V2000
   37.5980   25.1660   34.5640 C   0  0  0  0  0  0  0  0  0  0  0  0
   38.1870   25.4820   35.7820 C   0  0  0  0  0  0  0  0  0  0  0  0
   38.2930   26.8170   36.1150 C   0  0  0  0  0  0  0  0  0  0  0  0
   37.8270   27.7570   35.2600 N   0  0  0  0  0  0  0  0  0  0  0  0
   37.2620   27.4390   34.0910 C   0  0  0  0  0  0  0  0  0  0  0  0
   37.1560   26.1660   33.7630 N   0  0  0  0  0  0  0  0  0  0  0  0
   38.6650   24.4750   36.6290 N   0  0  0  0  0  0  0  0  0  0  0  0
   38.1670   24.1380   37.8200 C   0  0  0  0  0  0  0  0  0  0  0  0
   38.8610   23.1280   38.3790 N   0  0  0  0  0  0  0  0  0  0  0  0
   39.8350   22.8100   37.5140 C   0  0  0  0  0  0  0  0  0  0  0  0
   40.8460   21.8820   37.5150 C   0  0  0  0  0  0  0  0  0  0  0  0
   41.7260   21.7390   36.5180 N   0  0  0  0  0  0  0  0  0  0  0  0
   41.5770   22.5850   35.4580 C   0  0  0  0  0  0  0  0  0  0  0  0
   40.5950   23.4850   35.4590 N   0  0  0  0  0  0  0  0  0  0  0  0
   39.7070   23.6560   36.4230 C   0  0  0  0  0  0  0  0  0  0  0  0
   36.7080   28.2930   33.0450 C   0  0  0  0  0  0  0  0  0  0  0  0
   36.9970   28.1620   31.6820 C   0  0  0  0  0  0  0  0  0  0  0  0
   36.4910   28.9460   30.6900 C   0  0  0  0  0  0  0  0  0  0  0  0
   35.6260   29.9610   30.9980 C   0  0  0  0  0  0  0  0  0  0  0  0
   35.2900   30.1580   32.3160 C   0  0  0  0  0  0  0  0  0  0  0  0
   34.4170   31.1900   32.5710 C   0  0  0  0  0  0  0  0  0  0  0  0
   34.0320   31.4520   33.8680 C   0  0  0  0  0  0  0  0  0  0  0  0
   34.5490   30.6520   34.8640 C   0  0  0  0  0  0  0  0  0  0  0  0
   35.4180   29.6350   34.5420 C   0  0  0  0  0  0  0  0  0  0  0  0
   35.8350   29.3310   33.2690 C   0  0  0  0  0  0  0  0  0  0  0  0
   37.4916   24.1162   34.2533 H   0  0  0  0  0  0  0  0  0  0  0  0
   38.7530   27.1151   37.0687 H   0  0  0  0  0  0  0  0  0  0  0  0
   37.2980   24.6244   38.2872 H   0  0  0  0  0  0  0  0  0  0  0  0
   40.9380   21.2171   38.3865 H   0  0  0  0  0  0  0  0  0  0  0  0
   42.2670   22.5239   34.6035 H   0  0  0  0  0  0  0  0  0  0  0  0
   37.6898   27.3599   31.3877 H   0  0  0  0  0  0  0  0  0  0  0  0
   36.7769   28.7639   29.6435 H   0  0  0  0  0  0  0  0  0  0  0  0
   35.2094   30.6042   30.2089 H   0  0  0  0  0  0  0  0  0  0  0  0
   34.0284   31.8027   31.7442 H   0  0  0  0  0  0  0  0  0  0  0  0
   33.3360   32.2715   34.1003 H   0  0  0  0  0  0  0  0  0  0  0  0
   34.2678   30.8260   35.9131 H   0  0  0  0  0  0  0  0  0  0  0  0
   35.8081   29.0192   35.3658 H   0  0  0  0  0  0  0  0  0  0  0  0
  1  2  2  0
  2  3  1  0
  2  7  1  0
  4  3  2  0
  5  4  1  0
  6  5  2  0
  6  1  1  0
  7  8  1  0
  8  9  2  0
 10 11  2  0
 10  9  1  0
 12 11  1  0
 13 14  1  0
 13 12  2  0
 14 15  2  0
 15  7  1  0
 15 10  1  0
 16 25  1  0
 16  5  1  0
 17 16  2  0
 18 19  2  0
 18 17  1  0
 19 20  1  0
 20 21  1  0
 20 25  2  0
 21 22  2  0
 22 23  1  0
 24 23  2  0
 25 24  1  0
  1 26  1  0
  3 27  1  0
  8 28  1  0
 11 29  1  0
 13 30  1  0
 17 31  1  0
 18 32  1  0
 19 33  1  0
 21 34  1  0
 22 35  1  0
 23 36  1  0
 24 37  1  0
M  ISO  8  26  14  27  14  28  14  29  14  30  14  31  14  32  14  33  14
M  ISO  4  34  14  35  14  36  14  37  14
M  END
>  <minimizedAffinity>  (1) 
-6.50460911

>  <minimizedRMSD>  (1) 
0.0699203387

$$$$
