
     RDKit          3D

 34 37  0  0  0  0  0  0  0  0999 V2000
   37.8400   25.0590   34.3930 C   0  0  0  0  0  0  0  0  0  0  0  0
   38.2190   25.3930   35.6890 C   0  0  0  0  0  0  0  0  0  0  0  0
   38.1020   26.7120   36.0830 C   0  0  0  0  0  0  0  0  0  0  0  0
   37.6200   27.6220   35.1860 N   0  0  0  0  0  0  0  0  0  0  0  0
   37.2600   27.2670   33.9340 C   0  0  0  0  0  0  0  0  0  0  0  0
   37.3700   25.9980   33.5490 N   0  0  0  0  0  0  0  0  0  0  0  0
   36.7630   28.2530   33.0380 N   0  0  0  0  0  0  0  0  0  0  0  0
   37.1470   28.2370   31.7480 C   0  0  0  0  0  0  0  0  0  0  0  0
   36.7360   29.1310   30.8040 C   0  0  0  0  0  0  0  0  0  0  0  0
   37.2320   29.0070   29.4100 C   0  0  0  0  0  0  0  0  0  0  0  0
   35.8660   30.1070   31.2310 C   0  0  0  0  0  0  0  0  0  0  0  0
   35.4560   30.9580   30.4000 O   0  0  0  0  0  0  0  0  0  0  0  0
   35.4780   30.1260   32.5310 N   0  0  0  0  0  0  0  0  0  0  0  0
   35.9150   29.2110   33.4410 C   0  0  0  0  0  0  0  0  0  0  0  0
   35.5220   29.2750   34.6350 O   0  0  0  0  0  0  0  0  0  0  0  0
   38.7060   24.4070   36.5580 N   0  0  0  0  0  0  0  0  0  0  0  0
   38.1840   24.0820   37.7570 C   0  0  0  0  0  0  0  0  0  0  0  0
   38.8750   23.0970   38.3520 N   0  0  0  0  0  0  0  0  0  0  0  0
   39.8750   22.7810   37.5080 C   0  0  0  0  0  0  0  0  0  0  0  0
   40.9070   21.8680   37.5410 C   0  0  0  0  0  0  0  0  0  0  0  0
   41.8080   21.7230   36.5630 N   0  0  0  0  0  0  0  0  0  0  0  0
   41.6620   22.5480   35.4870 C   0  0  0  0  0  0  0  0  0  0  0  0
   40.6600   23.4300   35.4630 N   0  0  0  0  0  0  0  0  0  0  0  0
   39.7540   23.6020   36.4050 C   0  0  0  0  0  0  0  0  0  0  0  0
   37.9250   24.0162   34.0533 H   0  0  0  0  0  0  0  0  0  0  0  0
   38.3910   27.0227   37.0979 H   0  0  0  0  0  0  0  0  0  0  0  0
   37.8427   27.4455   31.4325 H   0  0  0  0  0  0  0  0  0  0  0  0
   38.2991   28.7402   29.4229 H   0  0  0  0  0  0  0  0  0  0  0  0
   36.6644   28.2231   28.8872 H   0  0  0  0  0  0  0  0  0  0  0  0
   37.1000   29.9658   28.8872 H   0  0  0  0  0  0  0  0  0  0  0  0
   34.8273   30.8613   32.8423 H   0  0  0  0  0  0  0  0  0  0  0  0
   37.2985   24.5655   38.1953 H   0  0  0  0  0  0  0  0  0  0  0  0
   40.9950   21.2194   38.4250 H   0  0  0  0  0  0  0  0  0  0  0  0
   42.3657   22.4871   34.6437 H   0  0  0  0  0  0  0  0  0  0  0  0
  1  2  2  0
  2  3  1  0
  2 16  1  0
  4  3  2  0
  5  4  1  0
  6  5  2  0
  6  1  1  0
  7 14  1  0
  7  5  1  0
  8  7  1  0
  9 11  1  0
  9  8  2  0
 10  9  1  0
 11 13  1  0
 12 11  2  0
 13 14  1  0
 14 15  2  0
 16 17  1  0
 17 18  2  0
 19 20  2  0
 19 18  1  0
 21 20  1  0
 22 21  2  0
 23 22  1  0
 23 24  2  0
 24 16  1  0
 24 19  1  0
  1 25  1  0
  3 26  1  0
  8 27  1  0
 10 28  1  0
 10 29  1  0
 10 30  1  0
 13 31  1  0
 17 32  1  0
 20 33  1  0
 22 34  1  0
M  ISO  8  25  14  26  14  27  14  28   8  29   8  30   8  31   9  32  14
M  ISO  2  33  14  34  14
M  END
>  <minimizedAffinity>  (1) 
-6.17262459

>  <minimizedRMSD>  (1) 
0.275886059

$$$$
