
     RDKit          3D

 35 39  0  0  0  0  0  0  0  0999 V2000
   37.6490   25.0190   34.4830 C   0  0  0  0  0  0  0  0  0  0  0  0
   38.1870   25.3950   35.7310 C   0  0  0  0  0  0  0  0  0  0  0  0
   38.1970   26.7330   36.0610 C   0  0  0  0  0  0  0  0  0  0  0  0
   37.6940   27.6440   35.1910 N   0  0  0  0  0  0  0  0  0  0  0  0
   37.1770   27.2560   33.9870 C   0  0  0  0  0  0  0  0  0  0  0  0
   37.1570   25.9570   33.6420 N   0  0  0  0  0  0  0  0  0  0  0  0
   38.6910   24.4190   36.5890 N   0  0  0  0  0  0  0  0  0  0  0  0
   38.1950   24.1070   37.8030 C   0  0  0  0  0  0  0  0  0  0  0  0
   38.8940   23.1220   38.3920 N   0  0  0  0  0  0  0  0  0  0  0  0
   39.8760   22.7880   37.5250 C   0  0  0  0  0  0  0  0  0  0  0  0
   40.9020   21.8740   37.5330 C   0  0  0  0  0  0  0  0  0  0  0  0
   41.7780   21.7150   36.5360 N   0  0  0  0  0  0  0  0  0  0  0  0
   41.6070   22.5280   35.4660 C   0  0  0  0  0  0  0  0  0  0  0  0
   40.6190   23.4150   35.4490 N   0  0  0  0  0  0  0  0  0  0  0  0
   39.7240   23.6090   36.4160 C   0  0  0  0  0  0  0  0  0  0  0  0
   36.6320   28.2280   33.0380 C   0  0  0  0  0  0  0  0  0  0  0  0
   35.5290   29.0510   33.2100 C   0  0  0  0  0  0  0  0  0  0  0  0
   35.3780   29.7850   32.0920 N   0  0  0  0  0  0  0  0  0  0  0  0
   36.3490   29.4510   31.2280 C   0  0  0  0  0  0  0  0  0  0  0  0
   36.6700   29.8830   29.9460 C   0  0  0  0  0  0  0  0  0  0  0  0
   37.7280   29.4040   29.2130 C   0  0  0  0  0  0  0  0  0  0  0  0
   38.5300   28.4270   29.7810 C   0  0  0  0  0  0  0  0  0  0  0  0
   38.2370   27.9750   31.0550 C   0  0  0  0  0  0  0  0  0  0  0  0
   37.1760   28.4660   31.7720 C   0  0  0  0  0  0  0  0  0  0  0  0
   37.6294   23.9583   34.1922 H   0  0  0  0  0  0  0  0  0  0  0  0
   38.6112   27.0608   37.0259 H   0  0  0  0  0  0  0  0  0  0  0  0
   37.3226   24.5997   38.2571 H   0  0  0  0  0  0  0  0  0  0  0  0
   41.0096   21.2305   38.4186 H   0  0  0  0  0  0  0  0  0  0  0  0
   42.2900   22.4530   34.6070 H   0  0  0  0  0  0  0  0  0  0  0  0
   34.8894   29.0960   34.1038 H   0  0  0  0  0  0  0  0  0  0  0  0
   34.6410   30.4854   31.9272 H   0  0  0  0  0  0  0  0  0  0  0  0
   36.0362   30.6577   29.4898 H   0  0  0  0  0  0  0  0  0  0  0  0
   37.9333   29.7857   28.2020 H   0  0  0  0  0  0  0  0  0  0  0  0
   39.3871   28.0169   29.2268 H   0  0  0  0  0  0  0  0  0  0  0  0
   38.8733   27.1994   31.5061 H   0  0  0  0  0  0  0  0  0  0  0  0
  1  2  2  0
  2  3  1  0
  2  7  1  0
  4  3  2  0
  5  4  1  0
  6  5  2  0
  6  1  1  0
  7  8  1  0
  8  9  2  0
 10 11  2  0
 10  9  1  0
 12 11  1  0
 13 12  2  0
 14 13  1  0
 14 15  2  0
 15  7  1  0
 15 10  1  0
 16 17  2  0
 16  5  1  0
 18 17  1  0
 19 24  2  0
 19 18  1  0
 20 19  1  0
 21 22  1  0
 21 20  2  0
 22 23  2  0
 23 24  1  0
 24 16  1  0
  1 25  1  0
  3 26  1  0
  8 27  1  0
 11 28  1  0
 13 29  1  0
 17 30  1  0
 18 31  1  0
 20 32  1  0
 21 33  1  0
 22 34  1  0
 23 35  1  0
M  ISO  8  25  14  26  14  27  14  28  14  29  14  30  14  31   9  32  14
M  ISO  3  33  14  34  14  35  14
M  END
>  <minimizedAffinity>  (1) 
-6.09999704

>  <minimizedRMSD>  (1) 
0.336697936

$$$$
