
     RDKit          3D

 28 30  0  0  0  0  0  0  0  0999 V2000
   37.8050   25.0530   33.5940 C   0  0  0  0  0  0  0  0  0  0  0  0
   37.8560   25.4470   34.9260 C   0  0  0  0  0  0  0  0  0  0  0  0
   37.5200   26.7580   35.2450 C   0  0  0  0  0  0  0  0  0  0  0  0
   37.1560   27.5910   34.2380 N   0  0  0  0  0  0  0  0  0  0  0  0
   37.1100   27.1980   32.9520 C   0  0  0  0  0  0  0  0  0  0  0  0
   37.4320   25.9390   32.6390 N   0  0  0  0  0  0  0  0  0  0  0  0
   36.7310   28.0580   31.8870 N   0  0  0  0  0  0  0  0  0  0  0  0
   36.3990   27.5120   30.6380 C   0  0  0  0  0  0  0  0  0  0  0  0
   35.7300   26.4180   30.5310 N   0  0  0  0  0  0  0  0  0  0  0  0
   36.7910   28.1550   29.4070 N   0  0  0  0  0  0  0  0  0  0  0  0
   35.3740   25.8410   31.3130 H   0  0  0  0  0  0  0  0  0  0  0  0
   38.2400   24.5350   35.9150 N   0  0  0  0  0  0  0  0  0  0  0  0
   37.4390   24.0560   36.8980 C   0  0  0  0  0  0  0  0  0  0  0  0
   38.0910   23.1970   37.6970 N   0  0  0  0  0  0  0  0  0  0  0  0
   39.3510   23.1200   37.2100 C   0  0  0  0  0  0  0  0  0  0  0  0
   40.4780   22.4280   37.5760 C   0  0  0  0  0  0  0  0  0  0  0  0
   41.6520   22.5080   36.9320 N   0  0  0  0  0  0  0  0  0  0  0  0
   41.6790   23.3380   35.8560 C   0  0  0  0  0  0  0  0  0  0  0  0
   40.5850   24.0130   35.4990 N   0  0  0  0  0  0  0  0  0  0  0  0
   39.4170   23.9540   36.1150 C   0  0  0  0  0  0  0  0  0  0  0  0
   38.0675   24.0218   33.3151 H   0  0  0  0  0  0  0  0  0  0  0  0
   37.5486   27.1105   36.2866 H   0  0  0  0  0  0  0  0  0  0  0  0
   36.7001   29.0774   32.0309 H   0  0  0  0  0  0  0  0  0  0  0  0
   36.5353   27.7345   28.5022 H   0  0  0  0  0  0  0  0  0  0  0  0
   37.3265   29.0345   29.4332 H   0  0  0  0  0  0  0  0  0  0  0  0
   36.3832   24.3371   37.0254 H   0  0  0  0  0  0  0  0  0  0  0  0
   40.4148   21.7662   38.4524 H   0  0  0  0  0  0  0  0  0  0  0  0
   42.6071   23.4537   35.2769 H   0  0  0  0  0  0  0  0  0  0  0  0
  1  2  2  0
  2  3  1  0
  2 12  1  0
  4  3  2  0
  5  4  1  0
  6  5  2  0
  6  1  1  0
  7  5  1  0
  8  7  1  0
  9  8  2  0
  9 11  1  0
 10  8  1  0
 12 20  1  0
 12 13  1  0
 13 14  2  0
 15 16  2  0
 15 14  1  0
 17 16  1  0
 18 17  2  0
 19 18  1  0
 19 20  2  0
 20 15  1  0
  1 21  1  0
  3 22  1  0
  7 23  1  0
 10 24  1  0
 10 25  1  0
 13 26  1  0
 16 27  1  0
 18 28  1  0
M  ISO  5  21  14  22  14  26  14  27  14  28  14
M  END
>  <minimizedAffinity>  (1) 
-5.77620649

>  <minimizedRMSD>  (1) 
1.11436307

$$$$
