
     RDKit          3D

 31 34  0  0  0  0  0  0  0  0999 V2000
   37.6840   25.0490   34.4470 C   0  0  0  0  0  0  0  0  0  0  0  0
   38.1760   25.4070   35.7110 C   0  0  0  0  0  0  0  0  0  0  0  0
   38.1540   26.7480   36.0650 C   0  0  0  0  0  0  0  0  0  0  0  0
   37.6600   27.6610   35.1840 N   0  0  0  0  0  0  0  0  0  0  0  0
   37.1900   27.2740   33.9650 C   0  0  0  0  0  0  0  0  0  0  0  0
   37.2020   25.9910   33.6040 N   0  0  0  0  0  0  0  0  0  0  0  0
   38.6730   24.4300   36.5790 N   0  0  0  0  0  0  0  0  0  0  0  0
   38.1850   24.1140   37.7840 C   0  0  0  0  0  0  0  0  0  0  0  0
   38.8830   23.1350   38.3700 N   0  0  0  0  0  0  0  0  0  0  0  0
   39.8600   22.8100   37.5040 C   0  0  0  0  0  0  0  0  0  0  0  0
   40.8870   21.8920   37.5230 C   0  0  0  0  0  0  0  0  0  0  0  0
   41.7730   21.7320   36.5190 N   0  0  0  0  0  0  0  0  0  0  0  0
   41.5960   22.5520   35.4490 C   0  0  0  0  0  0  0  0  0  0  0  0
   40.6050   23.4380   35.4290 N   0  0  0  0  0  0  0  0  0  0  0  0
   39.7170   23.6220   36.3990 C   0  0  0  0  0  0  0  0  0  0  0  0
   36.6570   28.2440   33.0100 C   0  0  0  0  0  0  0  0  0  0  0  0
   35.7650   29.2040   33.4840 C   0  0  0  0  0  0  0  0  0  0  0  0
   35.2460   30.1390   32.5850 C   0  0  0  0  0  0  0  0  0  0  0  0
   35.6270   30.0830   31.2760 C   0  0  0  0  0  0  0  0  0  0  0  0
   36.5060   29.1530   30.7620 C   0  0  0  0  0  0  0  0  0  0  0  0
   37.0110   28.2330   31.6710 C   0  0  0  0  0  0  0  0  0  0  0  0
   37.6902   23.9931   34.1386 H   0  0  0  0  0  0  0  0  0  0  0  0
   38.5315   27.0702   37.0467 H   0  0  0  0  0  0  0  0  0  0  0  0
   37.3112   24.6026   38.2399 H   0  0  0  0  0  0  0  0  0  0  0  0
   40.9906   21.2508   38.4107 H   0  0  0  0  0  0  0  0  0  0  0  0
   42.2802   22.4816   34.5906 H   0  0  0  0  0  0  0  0  0  0  0  0
   35.4753   29.2252   34.5450 H   0  0  0  0  0  0  0  0  0  0  0  0
   34.5399   30.9097   32.9277 H   0  0  0  0  0  0  0  0  0  0  0  0
   35.2055   30.8284   30.5856 H   0  0  0  0  0  0  0  0  0  0  0  0
   36.7891   29.1408   29.6991 H   0  0  0  0  0  0  0  0  0  0  0  0
   37.7172   27.4684   31.3152 H   0  0  0  0  0  0  0  0  0  0  0  0
  1  2  2  0
  2  3  1  0
  2  7  1  0
  4  3  2  0
  5  4  1  0
  6  5  2  0
  6  1  1  0
  7  8  1  0
  8  9  2  0
 10 11  2  0
 10  9  1  0
 12 11  1  0
 13 12  2  0
 14 13  1  0
 14 15  2  0
 15  7  1  0
 15 10  1  0
 16 17  2  0
 16  5  1  0
 18 17  1  0
 19 18  2  0
 20 19  1  0
 20 21  2  0
 21 16  1  0
  1 22  1  0
  3 23  1  0
  8 24  1  0
 11 25  1  0
 13 26  1  0
 17 27  1  0
 18 28  1  0
 19 29  1  0
 20 30  1  0
 21 31  1  0
M  ISO  8  22  14  23  14  24  14  25  14  26  14  27  14  28  14  29  14
M  ISO  2  30  14  31  14
M  END
>  <minimizedAffinity>  (1) 
-5.65875769

>  <minimizedRMSD>  (1) 
0.540254533

$$$$
