
     RDKit          3D

 34 37  0  0  0  0  0  0  0  0999 V2000
   37.6980   25.0510   34.5980 C   0  0  0  0  0  0  0  0  0  0  0  0
   38.2920   25.3040   35.8290 C   0  0  0  0  0  0  0  0  0  0  0  0
   38.2960   26.6100   36.3030 C   0  0  0  0  0  0  0  0  0  0  0  0
   37.7230   27.5860   35.5510 N   0  0  0  0  0  0  0  0  0  0  0  0
   37.1530   27.3040   34.3570 C   0  0  0  0  0  0  0  0  0  0  0  0
   37.1400   26.0590   33.8880 N   0  0  0  0  0  0  0  0  0  0  0  0
   38.8730   24.2690   36.5730 N   0  0  0  0  0  0  0  0  0  0  0  0
   38.4820   23.8340   37.7760 C   0  0  0  0  0  0  0  0  0  0  0  0
   39.2530   22.8230   38.2200 N   0  0  0  0  0  0  0  0  0  0  0  0
   40.1700   22.6060   37.2620 C   0  0  0  0  0  0  0  0  0  0  0  0
   41.2060   21.7230   37.1390 C   0  0  0  0  0  0  0  0  0  0  0  0
   42.0210   21.6810   36.0610 N   0  0  0  0  0  0  0  0  0  0  0  0
   41.7570   22.5790   35.0780 C   0  0  0  0  0  0  0  0  0  0  0  0
   40.7430   23.4340   35.2120 N   0  0  0  0  0  0  0  0  0  0  0  0
   39.9240   23.5110   36.2450 C   0  0  0  0  0  0  0  0  0  0  0  0
   35.3990   30.4390   32.1730 C   0  0  0  0  0  0  0  0  0  0  0  0
   35.2070   30.3860   33.5310 C   0  0  0  0  0  0  0  0  0  0  0  0
   35.7970   29.3450   34.2140 C   0  0  0  0  0  0  0  0  0  0  0  0
   36.5490   28.3870   33.5860 C   0  0  0  0  0  0  0  0  0  0  0  0
   36.7390   28.4460   32.2130 C   0  0  0  0  0  0  0  0  0  0  0  0
   36.1550   29.4890   31.4950 C   0  0  0  0  0  0  0  0  0  0  0  0
   34.6140   31.8000   31.3660 S   0  0  0  0  0  0  0  0  0  0  0  0
   33.2600   31.3550   30.9340 O   0  0  0  0  0  0  0  0  0  0  0  0
   35.3820   32.2020   30.1370 O   0  0  0  0  0  0  0  0  0  0  0  0
   37.6814   24.0261   34.1989 H   0  0  0  0  0  0  0  0  0  0  0  0
   38.7562   26.8504   37.2727 H   0  0  0  0  0  0  0  0  0  0  0  0
   37.6323   24.2521   38.3357 H   0  0  0  0  0  0  0  0  0  0  0  0
   41.3857   21.0109   37.9580 H   0  0  0  0  0  0  0  0  0  0  0  0
   42.3794   22.6012   34.1713 H   0  0  0  0  0  0  0  0  0  0  0  0
   34.6058   31.1447   34.0534 H   0  0  0  0  0  0  0  0  0  0  0  0
   35.6593   29.2806   35.3034 H   0  0  0  0  0  0  0  0  0  0  0  0
   37.3408   27.6821   31.6989 H   0  0  0  0  0  0  0  0  0  0  0  0
   36.2907   29.5594   30.4057 H   0  0  0  0  0  0  0  0  0  0  0  0
   34.5531   32.8631   32.2280 H   0  0  0  0  0  0  0  0  0  0  0  0
  1  2  2  0
  2  3  1  0
  2  7  1  0
  4  3  2  0
  5  4  1  0
  6  5  2  0
  6  1  1  0
  7  8  1  0
  8  9  2  0
 10  9  1  0
 11 10  2  0
 12 11  1  0
 13 14  1  0
 13 12  2  0
 14 15  2  0
 15  7  1  0
 15 10  1  0
 16 17  2  0
 17 18  1  0
 19 18  2  0
 19  5  1  0
 20 19  1  0
 21 16  1  0
 21 20  2  0
 22 16  1  0
 23 22  2  0
 24 22  2  0
  1 25  1  0
  3 26  1  0
  8 27  1  0
 11 28  1  0
 13 29  1  0
 17 30  1  0
 18 31  1  0
 20 32  1  0
 21 33  1  0
 22 34  1  0
M  ISO  8  25  14  26  14  27  14  28  14  29  14  30  14  31  14  32  14
M  ISO  2  33  14  34  11
M  END
>  <minimizedAffinity>  (1) 
-5.46996641

>  <minimizedRMSD>  (1) 
0.850342155

$$$$
