
     RDKit          3D

 29 32  0  0  0  0  0  0  0  0999 V2000
   37.6630   24.9990   34.2960 C   0  0  0  0  0  0  0  0  0  0  0  0
   38.1000   25.4020   35.5540 C   0  0  0  0  0  0  0  0  0  0  0  0
   38.0370   26.7500   35.8710 C   0  0  0  0  0  0  0  0  0  0  0  0
   37.5500   27.6130   34.9310 N   0  0  0  0  0  0  0  0  0  0  0  0
   37.1330   27.1910   33.7170 C   0  0  0  0  0  0  0  0  0  0  0  0
   37.1920   25.8970   33.4110 N   0  0  0  0  0  0  0  0  0  0  0  0
   38.5920   24.4640   36.4780 N   0  0  0  0  0  0  0  0  0  0  0  0
   38.0790   24.2140   37.7000 C   0  0  0  0  0  0  0  0  0  0  0  0
   38.7860   23.2580   38.3330 N   0  0  0  0  0  0  0  0  0  0  0  0
   39.7730   22.8910   37.4920 C   0  0  0  0  0  0  0  0  0  0  0  0
   40.7870   21.9820   37.5770 C   0  0  0  0  0  0  0  0  0  0  0  0
   41.6890   21.7720   36.5870 N   0  0  0  0  0  0  0  0  0  0  0  0
   41.5250   22.5370   35.4710 C   0  0  0  0  0  0  0  0  0  0  0  0
   40.5300   23.4220   35.4030 N   0  0  0  0  0  0  0  0  0  0  0  0
   39.6380   23.6510   36.3430 C   0  0  0  0  0  0  0  0  0  0  0  0
   36.6210   28.1550   32.7500 C   0  0  0  0  0  0  0  0  0  0  0  0
   35.5820   28.9870   33.0920 C   0  0  0  0  0  0  0  0  0  0  0  0
   35.0410   29.9320   32.2180 C   0  0  0  0  0  0  0  0  0  0  0  0
   35.5950   30.0000   30.9860 N   0  0  0  0  0  0  0  0  0  0  0  0
   36.6250   29.1720   30.6490 C   0  0  0  0  0  0  0  0  0  0  0  0
   37.1420   28.2530   31.5150 N   0  0  0  0  0  0  0  0  0  0  0  0
   37.7029   23.9345   34.0217 H   0  0  0  0  0  0  0  0  0  0  0  0
   38.3704   27.1150   36.8536 H   0  0  0  0  0  0  0  0  0  0  0  0
   37.2004   24.7229   38.1233 H   0  0  0  0  0  0  0  0  0  0  0  0
   40.8774   21.3877   38.4982 H   0  0  0  0  0  0  0  0  0  0  0  0
   42.2163   22.4239   34.6229 H   0  0  0  0  0  0  0  0  0  0  0  0
   35.1561   28.9045   34.1029 H   0  0  0  0  0  0  0  0  0  0  0  0
   34.2084   30.5864   32.5156 H   0  0  0  0  0  0  0  0  0  0  0  0
   37.0557   29.2480   29.6397 H   0  0  0  0  0  0  0  0  0  0  0  0
  1  2  2  0
  2  3  1  0
  2  7  1  0
  4  3  2  0
  5  4  1  0
  6  5  2  0
  6  1  1  0
  7  8  1  0
  8  9  2  0
 10 11  2  0
 10  9  1  0
 12 11  1  0
 13 12  2  0
 14 13  1  0
 14 15  2  0
 15  7  1  0
 15 10  1  0
 16 17  2  0
 16  5  1  0
 18 17  1  0
 19 18  2  0
 20 19  1  0
 20 21  2  0
 21 16  1  0
  1 22  1  0
  3 23  1  0
  8 24  1  0
 11 25  1  0
 13 26  1  0
 17 27  1  0
 18 28  1  0
 20 29  1  0
M  ISO  8  22  14  23  14  24  14  25  14  26  14  27  14  28  14  29  14
M  END
>  <minimizedAffinity>  (1) 
-5.33401728

>  <minimizedRMSD>  (1) 
0.499365538

$$$$
