
     RDKit          3D

 28 31  0  0  0  0  0  0  0  0999 V2000
   37.6890   25.0410   34.3720 C   0  0  0  0  0  0  0  0  0  0  0  0
   38.1570   25.4230   35.6440 C   0  0  0  0  0  0  0  0  0  0  0  0
   38.1170   26.7720   35.9650 C   0  0  0  0  0  0  0  0  0  0  0  0
   37.6390   27.6720   35.0730 N   0  0  0  0  0  0  0  0  0  0  0  0
   37.1930   27.2670   33.8510 C   0  0  0  0  0  0  0  0  0  0  0  0
   37.2210   25.9780   33.5170 N   0  0  0  0  0  0  0  0  0  0  0  0
   38.6410   24.4610   36.5300 N   0  0  0  0  0  0  0  0  0  0  0  0
   38.1260   24.1720   37.7350 C   0  0  0  0  0  0  0  0  0  0  0  0
   38.8210   23.1930   38.3470 N   0  0  0  0  0  0  0  0  0  0  0  0
   39.8140   22.8490   37.4960 C   0  0  0  0  0  0  0  0  0  0  0  0
   40.8350   21.9320   37.5450 C   0  0  0  0  0  0  0  0  0  0  0  0
   41.7290   21.7550   36.5630 N   0  0  0  0  0  0  0  0  0  0  0  0
   41.5760   22.5530   35.4740 C   0  0  0  0  0  0  0  0  0  0  0  0
   40.5890   23.4390   35.4300 N   0  0  0  0  0  0  0  0  0  0  0  0
   39.6870   23.6520   36.3650 C   0  0  0  0  0  0  0  0  0  0  0  0
   36.6630   28.1660   32.8310 C   0  0  0  0  0  0  0  0  0  0  0  0
   37.0960   28.5350   31.5650 C   0  0  0  0  0  0  0  0  0  0  0  0
   36.1290   29.4320   31.1210 C   0  0  0  0  0  0  0  0  0  0  0  0
   35.1730   29.5630   32.1200 C   0  0  0  0  0  0  0  0  0  0  0  0
   35.5370   28.7830   33.1250 O   0  0  0  0  0  0  0  0  0  0  0  0
   37.7041   23.9821   34.0745 H   0  0  0  0  0  0  0  0  0  0  0  0
   38.4750   27.1120   36.9480 H   0  0  0  0  0  0  0  0  0  0  0  0
   37.2471   24.6714   38.1687 H   0  0  0  0  0  0  0  0  0  0  0  0
   40.9242   21.3052   38.4445 H   0  0  0  0  0  0  0  0  0  0  0  0
   42.2720   22.4644   34.6268 H   0  0  0  0  0  0  0  0  0  0  0  0
   37.9976   28.1959   31.0339 H   0  0  0  0  0  0  0  0  0  0  0  0
   36.1229   29.9471   30.1491 H   0  0  0  0  0  0  0  0  0  0  0  0
   34.2765   30.1993   32.0825 H   0  0  0  0  0  0  0  0  0  0  0  0
  1  2  2  0
  2  3  1  0
  2  7  1  0
  4  3  2  0
  5  4  1  0
  6  5  2  0
  6  1  1  0
  7  8  1  0
  8  9  2  0
 10 11  2  0
 10  9  1  0
 12 11  1  0
 13 12  2  0
 14 13  1  0
 14 15  2  0
 15  7  1  0
 15 10  1  0
 16 20  1  0
 16  5  1  0
 17 16  2  0
 18 17  1  0
 18 19  2  0
 19 20  1  0
  1 21  1  0
  3 22  1  0
  8 23  1  0
 11 24  1  0
 13 25  1  0
 17 26  1  0
 18 27  1  0
 19 28  1  0
M  ISO  8  21  14  22  14  23  14  24  14  25  14  26  14  27  14  28  14
M  END
>  <minimizedAffinity>  (1) 
-5.16929722

>  <minimizedRMSD>  (1) 
0.341231704

$$$$
