
     RDKit          3D

 28 31  0  0  0  0  0  0  0  0999 V2000
   37.6750   25.0060   34.2760 C   0  0  0  0  0  0  0  0  0  0  0  0
   38.0990   25.3980   35.5400 C   0  0  0  0  0  0  0  0  0  0  0  0
   38.0380   26.7610   35.8530 C   0  0  0  0  0  0  0  0  0  0  0  0
   37.5750   27.6370   34.9290 N   0  0  0  0  0  0  0  0  0  0  0  0
   37.1660   27.2130   33.6940 C   0  0  0  0  0  0  0  0  0  0  0  0
   37.2180   25.9030   33.3760 N   0  0  0  0  0  0  0  0  0  0  0  0
   38.5700   24.4640   36.4650 N   0  0  0  0  0  0  0  0  0  0  0  0
   38.0430   24.1980   37.6620 C   0  0  0  0  0  0  0  0  0  0  0  0
   38.7520   23.2380   38.2990 N   0  0  0  0  0  0  0  0  0  0  0  0
   39.7490   22.8890   37.4850 C   0  0  0  0  0  0  0  0  0  0  0  0
   40.7680   21.9860   37.5870 C   0  0  0  0  0  0  0  0  0  0  0  0
   41.6950   21.7880   36.6170 N   0  0  0  0  0  0  0  0  0  0  0  0
   41.5460   22.5640   35.5000 C   0  0  0  0  0  0  0  0  0  0  0  0
   40.5520   23.4370   35.4170 N   0  0  0  0  0  0  0  0  0  0  0  0
   39.6260   23.6590   36.3470 C   0  0  0  0  0  0  0  0  0  0  0  0
   36.6670   28.1540   32.6980 C   0  0  0  0  0  0  0  0  0  0  0  0
   35.4440   28.8190   32.7980 C   0  0  0  0  0  0  0  0  0  0  0  0
   35.2870   29.6160   31.7050 N   0  0  0  0  0  0  0  0  0  0  0  0
   36.3820   29.4530   30.9450 C   0  0  0  0  0  0  0  0  0  0  0  0
   37.2170   28.5640   31.5490 N   0  0  0  0  0  0  0  0  0  0  0  0
   37.7125   23.9412   34.0025 H   0  0  0  0  0  0  0  0  0  0  0  0
   38.3634   27.1180   36.8413 H   0  0  0  0  0  0  0  0  0  0  0  0
   37.1517   24.6930   38.0751 H   0  0  0  0  0  0  0  0  0  0  0  0
   40.8411   21.3863   38.5062 H   0  0  0  0  0  0  0  0  0  0  0  0
   42.2556   22.4628   34.6656 H   0  0  0  0  0  0  0  0  0  0  0  0
   34.7250   28.7162   33.6241 H   0  0  0  0  0  0  0  0  0  0  0  0
   36.5737   29.9577   29.9866 H   0  0  0  0  0  0  0  0  0  0  0  0
   38.1279   28.2556   31.1802 H   0  0  0  0  0  0  0  0  0  0  0  0
  1  2  2  0
  2  3  1  0
  2  7  1  0
  4  3  2  0
  5  4  1  0
  6  5  2  0
  6  1  1  0
  7  8  1  0
  8  9  2  0
 10 11  2  0
 10  9  1  0
 12 11  1  0
 13 12  2  0
 14 13  1  0
 14 15  2  0
 15  7  1  0
 15 10  1  0
 16 17  2  0
 16  5  1  0
 18 17  1  0
 19 20  1  0
 19 18  2  0
 20 16  1  0
  1 21  1  0
  3 22  1  0
  8 23  1  0
 11 24  1  0
 13 25  1  0
 17 26  1  0
 19 27  1  0
 20 28  1  0
M  ISO  8  21  14  22  14  23  14  24  14  25  14  26  14  27  14  28   9
M  END
>  <minimizedAffinity>  (1) 
-5.06089735

>  <minimizedRMSD>  (1) 
0.493168861

$$$$
