
     RDKit          3D

 27 30  0  0  0  0  0  0  0  0999 V2000
   37.6770   24.9690   34.2460 C   0  0  0  0  0  0  0  0  0  0  0  0
   38.0920   25.3990   35.5110 C   0  0  0  0  0  0  0  0  0  0  0  0
   38.0070   26.7410   35.8220 C   0  0  0  0  0  0  0  0  0  0  0  0
   37.5270   27.6050   34.8950 N   0  0  0  0  0  0  0  0  0  0  0  0
   37.1280   27.1690   33.6700 C   0  0  0  0  0  0  0  0  0  0  0  0
   37.2020   25.8660   33.3470 N   0  0  0  0  0  0  0  0  0  0  0  0
   38.5790   24.4640   36.4280 N   0  0  0  0  0  0  0  0  0  0  0  0
   38.0480   24.1920   37.6420 C   0  0  0  0  0  0  0  0  0  0  0  0
   38.7330   23.2460   38.3010 N   0  0  0  0  0  0  0  0  0  0  0  0
   39.7480   22.8910   37.4820 C   0  0  0  0  0  0  0  0  0  0  0  0
   40.7780   21.9890   37.5780 C   0  0  0  0  0  0  0  0  0  0  0  0
   41.6990   21.8030   36.6060 N   0  0  0  0  0  0  0  0  0  0  0  0
   41.5520   22.5660   35.5020 C   0  0  0  0  0  0  0  0  0  0  0  0
   40.5530   23.4410   35.4100 N   0  0  0  0  0  0  0  0  0  0  0  0
   39.6260   23.6600   36.3370 C   0  0  0  0  0  0  0  0  0  0  0  0
   36.6340   28.2140   32.7810 C   0  0  0  0  0  0  0  0  0  0  0  0
   35.4930   29.0620   33.1040 C   0  0  0  0  0  0  0  0  0  0  0  0
   35.4360   30.1440   31.5450 S   0  0  0  0  0  0  0  0  0  0  0  0
   36.9350   29.2300   30.8190 C   0  0  0  0  0  0  0  0  0  0  0  0
   37.2230   28.4450   31.6010 N   0  0  0  0  0  0  0  0  0  0  0  0
   37.7361   23.9031   33.9807 H   0  0  0  0  0  0  0  0  0  0  0  0
   38.3250   27.1047   36.8102 H   0  0  0  0  0  0  0  0  0  0  0  0
   37.1539   24.6911   38.0439 H   0  0  0  0  0  0  0  0  0  0  0  0
   40.8584   21.3856   38.4942 H   0  0  0  0  0  0  0  0  0  0  0  0
   42.2647   22.4637   34.6704 H   0  0  0  0  0  0  0  0  0  0  0  0
   34.8492   29.0721   33.9959 H   0  0  0  0  0  0  0  0  0  0  0  0
   37.4234   29.4159   29.8511 H   0  0  0  0  0  0  0  0  0  0  0  0
  1  2  2  0
  2  3  1  0
  2  7  1  0
  4  3  2  0
  5  4  1  0
  6  5  2  0
  6  1  1  0
  7  8  1  0
  8  9  2  0
 10 11  2  0
 10  9  1  0
 12 11  1  0
 13 12  2  0
 14 13  1  0
 14 15  2  0
 15  7  1  0
 15 10  1  0
 16 17  2  0
 16  5  1  0
 18 17  1  0
 19 18  1  0
 19 20  2  0
 20 16  1  0
  1 21  1  0
  3 22  1  0
  8 23  1  0
 11 24  1  0
 13 25  1  0
 17 26  1  0
 19 27  1  0
M  ISO  7  21  14  22  14  23  14  24  14  25  14  26  14  27  14
M  END
>  <minimizedAffinity>  (1) 
-5.02849483

>  <minimizedRMSD>  (1) 
0.487395883

$$$$
