
     RDKit          3D

 30 32  0  0  0  0  0  0  0  0999 V2000
   38.6550   24.4510   36.5660 N   0  0  0  0  0  0  0  0  0  0  0  0
   38.1650   24.1360   37.7800 C   0  0  0  0  0  0  0  0  0  0  0  0
   38.8740   23.1520   38.3620 N   0  0  0  0  0  0  0  0  0  0  0  0
   39.8510   22.8210   37.4950 C   0  0  0  0  0  0  0  0  0  0  0  0
   40.8660   21.9100   37.5180 C   0  0  0  0  0  0  0  0  0  0  0  0
   41.7550   21.7460   36.5090 N   0  0  0  0  0  0  0  0  0  0  0  0
   41.5810   22.5620   35.4320 C   0  0  0  0  0  0  0  0  0  0  0  0
   40.5830   23.4490   35.4240 N   0  0  0  0  0  0  0  0  0  0  0  0
   39.7010   23.6350   36.3880 C   0  0  0  0  0  0  0  0  0  0  0  0
   37.6530   25.0780   34.4500 C   0  0  0  0  0  0  0  0  0  0  0  0
   38.1560   25.4260   35.6980 C   0  0  0  0  0  0  0  0  0  0  0  0
   38.1470   26.7680   36.0570 C   0  0  0  0  0  0  0  0  0  0  0  0
   37.6580   27.6920   35.1940 N   0  0  0  0  0  0  0  0  0  0  0  0
   37.1720   27.3060   33.9740 C   0  0  0  0  0  0  0  0  0  0  0  0
   37.1720   26.0240   33.6140 N   0  0  0  0  0  0  0  0  0  0  0  0
   36.6170   28.2520   32.9690 C   0  0  0  0  0  0  0  0  0  0  0  0
   35.9440   27.4390   31.8680 C   0  0  0  0  0  0  0  0  0  0  0  0
   35.6900   29.2680   33.5540 C   0  0  0  0  0  0  0  0  0  0  0  0
   37.2923   24.6233   38.2393 H   0  0  0  0  0  0  0  0  0  0  0  0
   40.9687   21.2713   38.4077 H   0  0  0  0  0  0  0  0  0  0  0  0
   42.2614   22.4903   34.5707 H   0  0  0  0  0  0  0  0  0  0  0  0
   37.6465   24.0226   34.1401 H   0  0  0  0  0  0  0  0  0  0  0  0
   38.5352   27.0797   37.0379 H   0  0  0  0  0  0  0  0  0  0  0  0
   37.4470   28.8418   32.5529 H   0  0  0  0  0  0  0  0  0  0  0  0
   35.3048   26.6668   32.3210 H   0  0  0  0  0  0  0  0  0  0  0  0
   35.3290   28.1046   31.2445 H   0  0  0  0  0  0  0  0  0  0  0  0
   36.7128   26.9592   31.2445 H   0  0  0  0  0  0  0  0  0  0  0  0
   35.7362   29.2174   34.6519 H   0  0  0  0  0  0  0  0  0  0  0  0
   35.9893   30.2725   33.2203 H   0  0  0  0  0  0  0  0  0  0  0  0
   34.6623   29.0618   33.2203 H   0  0  0  0  0  0  0  0  0  0  0  0
  1  2  1  0
  2  3  2  0
  4  5  2  0
  4  3  1  0
  6  5  1  0
  7  6  2  0
  8  7  1  0
  8  9  2  0
  9  1  1  0
  9  4  1  0
 10 11  2  0
 11 12  1  0
 11  1  1  0
 13 12  2  0
 14 13  1  0
 15 14  2  0
 15 10  1  0
 16 18  1  0
 16 14  1  0
 17 16  1  0
  2 19  1  0
  5 20  1  0
  7 21  1  0
 10 22  1  0
 12 23  1  0
 16 24  1  0
 17 25  1  0
 17 26  1  0
 17 27  1  0
 18 28  1  0
 18 29  1  0
 18 30  1  0
M  ISO  8  19  14  20  14  21  14  22  14  23  14  24   8  25   8  26   8
M  ISO  4  27   8  28   8  29   8  30   8
M  END
>  <minimizedAffinity>  (1) 
-4.84611511

>  <minimizedRMSD>  (1) 
0.417518348

$$$$
