
     RDKit          3D

 25 27  0  0  0  0  0  0  0  0999 V2000
   41.9930   21.5370   34.1590 S   0  0  0  0  0  0  0  0  0  0  0  0
   40.4640   22.4010   37.7320 C   0  0  0  0  0  0  0  0  0  0  0  0
   39.3040   23.1330   37.4420 C   0  0  0  0  0  0  0  0  0  0  0  0
   39.0230   23.3420   36.1180 C   0  0  0  0  0  0  0  0  0  0  0  0
   39.8450   22.8540   35.1360 N   0  0  0  0  0  0  0  0  0  0  0  0
   40.9600   22.1480   35.4830 C   0  0  0  0  0  0  0  0  0  0  0  0
   41.2410   21.9400   36.7590 N   0  0  0  0  0  0  0  0  0  0  0  0
   38.3870   23.6790   38.4760 C   0  0  0  0  0  0  0  0  0  0  0  0
   39.1670   23.8930   39.6190 F   0  0  0  0  0  0  0  0  0  0  0  0
   37.3760   22.8390   38.7970 F   0  0  0  0  0  0  0  0  0  0  0  0
   37.9510   24.9710   38.1200 F   0  0  0  0  0  0  0  0  0  0  0  0
   43.5560   22.4240   34.1450 C   0  0  0  0  0  0  0  0  0  0  0  0
   43.5110   23.8150   34.3480 C   0  0  0  0  0  0  0  0  0  0  0  0
   45.3390   24.2930   34.2510 S   0  0  0  0  0  0  0  0  0  0  0  0
   45.7740   22.4850   33.9530 C   0  0  0  0  0  0  0  0  0  0  0  0
   44.7720   22.0200   33.9760 N   0  0  0  0  0  0  0  0  0  0  0  0
   47.1620   22.0340   33.7620 C   0  0  0  0  0  0  0  0  0  0  0  0
   48.2290   22.7560   34.1690 N   0  0  0  0  0  0  0  0  0  0  0  0
   49.3110   22.1130   33.8700 O   0  0  0  0  0  0  0  0  0  0  0  0
   49.0080   20.9800   33.2740 C   0  0  0  0  0  0  0  0  0  0  0  0
   47.6450   20.9260   33.2030 N   0  0  0  0  0  0  0  0  0  0  0  0
   40.7342   22.2059   38.7803 H   0  0  0  0  0  0  0  0  0  0  0  0
   38.1236   23.9103   35.8385 H   0  0  0  0  0  0  0  0  0  0  0  0
   42.6366   24.4600   34.5193 H   0  0  0  0  0  0  0  0  0  0  0  0
   49.7152   20.2229   32.9045 H   0  0  0  0  0  0  0  0  0  0  0  0
  1  6  1  0
  3  2  2  0
  3  8  1  0
  4  3  1  0
  5  6  1  0
  5  4  2  0
  6  7  2  0
  7  2  1  0
  8 10  1  0
  8  9  1  0
 11  8  1  0
 12  1  1  0
 12 13  2  0
 14 13  1  0
 15 16  2  0
 15 14  1  0
 16 12  1  0
 17 15  1  0
 17 18  2  0
 19 18  1  0
 20 19  1  0
 21 20  2  0
 21 17  1  0
  2 22  1  0
  4 23  1  0
 13 24  1  0
 20 25  1  0
M  ISO  4  22  14  23  14  24  14  25  14
M  END
>  <minimizedAffinity>  (1) 
-3.67761159

>  <minimizedRMSD>  (1) 
1.25632417

$$$$
