
     RDKit          3D

 33 37  0  0  0  0  0  0  0  0999 V2000
   37.9090   23.6050   33.7440 C   0  0  0  0  0  0  0  0  0  0  0  0
   38.2140   24.3640   34.8940 C   0  0  0  0  0  0  0  0  0  0  0  0
   37.8940   25.6990   34.9010 C   0  0  0  0  0  0  0  0  0  0  0  0
   37.2980   26.2330   33.8020 N   0  0  0  0  0  0  0  0  0  0  0  0
   37.0170   25.4890   32.7140 C   0  0  0  0  0  0  0  0  0  0  0  0
   37.3160   24.1850   32.6790 N   0  0  0  0  0  0  0  0  0  0  0  0
   38.8240   23.7380   35.9760 N   0  0  0  0  0  0  0  0  0  0  0  0
   38.4080   23.8190   37.2730 C   0  0  0  0  0  0  0  0  0  0  0  0
   39.1930   23.1100   38.1020 N   0  0  0  0  0  0  0  0  0  0  0  0
   40.1430   22.5580   37.3040 C   0  0  0  0  0  0  0  0  0  0  0  0
   41.2110   21.7380   37.5750 C   0  0  0  0  0  0  0  0  0  0  0  0
   42.0500   21.2930   36.6140 N   0  0  0  0  0  0  0  0  0  0  0  0
   41.7730   21.7080   35.3510 C   0  0  0  0  0  0  0  0  0  0  0  0
   40.7370   22.5020   35.0980 N   0  0  0  0  0  0  0  0  0  0  0  0
   39.8990   22.9540   36.0080 C   0  0  0  0  0  0  0  0  0  0  0  0
   36.2350   26.1490   31.2480 S   0  0  0  0  0  0  0  0  0  0  0  0
   36.7950   30.7450   29.5280 N   0  0  0  0  0  0  0  0  0  0  0  0
   37.4260   29.7550   28.8410 C   0  0  0  0  0  0  0  0  0  0  0  0
   37.1870   28.5680   29.4180 N   0  0  0  0  0  0  0  0  0  0  0  0
   36.4020   28.7790   30.4790 C   0  0  0  0  0  0  0  0  0  0  0  0
   35.8780   27.8930   31.3970 C   0  0  0  0  0  0  0  0  0  0  0  0
   35.1120   28.4360   32.3640 N   0  0  0  0  0  0  0  0  0  0  0  0
   34.8730   29.7620   32.4320 C   0  0  0  0  0  0  0  0  0  0  0  0
   35.3910   30.6250   31.5270 N   0  0  0  0  0  0  0  0  0  0  0  0
   36.1550   30.1380   30.5500 C   0  0  0  0  0  0  0  0  0  0  0  0
   38.1562   22.5335   33.7153 H   0  0  0  0  0  0  0  0  0  0  0  0
   38.1155   26.3242   35.7785 H   0  0  0  0  0  0  0  0  0  0  0  0
   37.5320   24.3974   37.6018 H   0  0  0  0  0  0  0  0  0  0  0  0
   41.3904   21.4313   38.6160 H   0  0  0  0  0  0  0  0  0  0  0  0
   42.4177   21.3812   34.5218 H   0  0  0  0  0  0  0  0  0  0  0  0
   36.8037   31.7522   29.3125 H   0  0  0  0  0  0  0  0  0  0  0  0
   38.0427   29.9059   27.9427 H   0  0  0  0  0  0  0  0  0  0  0  0
   34.2410   30.1518   33.2436 H   0  0  0  0  0  0  0  0  0  0  0  0
  1  2  2  0
  2  3  1  0
  2  7  1  0
  4  3  2  0
  5  4  1  0
  6  5  2  0
  6  1  1  0
  7 15  1  0
  7  8  1  0
  8  9  2  0
 10 11  2  0
 10  9  1  0
 12 11  1  0
 13 12  2  0
 14 13  1  0
 14 15  2  0
 15 10  1  0
 16 21  1  0
 16  5  1  0
 17 25  1  0
 18 19  2  0
 18 17  1  0
 19 20  1  0
 20 25  2  0
 20 21  1  0
 21 22  2  0
 22 23  1  0
 24 23  2  0
 25 24  1  0
  1 26  1  0
  3 27  1  0
  8 28  1  0
 11 29  1  0
 13 30  1  0
 17 31  1  0
 18 32  1  0
 23 33  1  0
M  ISO  8  26  14  27  14  28  14  29  14  30  14  31   9  32  14  33  14
M  END
>  <minimizedAffinity>  (1) 
-5.66115999

>  <minimizedRMSD>  (1) 
2.78187561

$$$$
