
     RDKit          3D

 31 34  0  0  0  0  0  0  0  0999 V2000
   37.6770   24.9930   34.3260 C   0  0  0  0  0  0  0  0  0  0  0  0
   38.1420   25.4100   35.5830 C   0  0  0  0  0  0  0  0  0  0  0  0
   38.1020   26.7540   35.8720 C   0  0  0  0  0  0  0  0  0  0  0  0
   37.6200   27.6120   34.9380 N   0  0  0  0  0  0  0  0  0  0  0  0
   37.1790   27.1870   33.7350 C   0  0  0  0  0  0  0  0  0  0  0  0
   37.2060   25.8790   33.4250 N   0  0  0  0  0  0  0  0  0  0  0  0
   38.6200   24.4700   36.4850 N   0  0  0  0  0  0  0  0  0  0  0  0
   38.0870   24.2050   37.7130 C   0  0  0  0  0  0  0  0  0  0  0  0
   38.7550   23.2490   38.3640 N   0  0  0  0  0  0  0  0  0  0  0  0
   39.7530   22.8830   37.5350 C   0  0  0  0  0  0  0  0  0  0  0  0
   40.7720   21.9530   37.6300 C   0  0  0  0  0  0  0  0  0  0  0  0
   41.6800   21.7500   36.6500 N   0  0  0  0  0  0  0  0  0  0  0  0
   41.5420   22.5220   35.5400 C   0  0  0  0  0  0  0  0  0  0  0  0
   40.5560   23.4170   35.4550 N   0  0  0  0  0  0  0  0  0  0  0  0
   39.6470   23.6410   36.3990 C   0  0  0  0  0  0  0  0  0  0  0  0
   36.5410   28.2810   32.4880 S   0  0  0  0  0  0  0  0  0  0  0  0
   37.5620   28.2970   31.0160 C   0  0  0  0  0  0  0  0  0  0  0  0
   38.8460   27.7880   30.8620 C   0  0  0  0  0  0  0  0  0  0  0  0
   39.4450   27.9140   29.6260 C   0  0  0  0  0  0  0  0  0  0  0  0
   38.7870   28.5300   28.5700 C   0  0  0  0  0  0  0  0  0  0  0  0
   37.5110   29.0230   28.7640 C   0  0  0  0  0  0  0  0  0  0  0  0
   36.9200   28.9000   29.9820 N   0  0  0  0  0  0  0  0  0  0  0  0
   37.6972   23.9232   34.0710 H   0  0  0  0  0  0  0  0  0  0  0  0
   38.4551   27.1273   36.8446 H   0  0  0  0  0  0  0  0  0  0  0  0
   37.2055   24.7212   38.1212 H   0  0  0  0  0  0  0  0  0  0  0  0
   40.8470   21.3498   38.5468 H   0  0  0  0  0  0  0  0  0  0  0  0
   42.2489   22.4081   34.7049 H   0  0  0  0  0  0  0  0  0  0  0  0
   39.3677   27.3004   31.6987 H   0  0  0  0  0  0  0  0  0  0  0  0
   40.4608   27.5200   29.4744 H   0  0  0  0  0  0  0  0  0  0  0  0
   39.2763   28.6245   27.5894 H   0  0  0  0  0  0  0  0  0  0  0  0
   36.9760   29.5126   27.9370 H   0  0  0  0  0  0  0  0  0  0  0  0
  1  2  2  0
  2  3  1  0
  2  7  1  0
  4  3  2  0
  5  4  1  0
  6  5  2  0
  6  1  1  0
  7  8  1  0
  8  9  2  0
 10 11  2  0
 10  9  1  0
 12 11  1  0
 13 12  2  0
 14 13  1  0
 14 15  2  0
 15  7  1  0
 15 10  1  0
 16  5  1  0
 17 16  1  0
 18 17  2  0
 19 18  1  0
 20 21  1  0
 20 19  2  0
 21 22  2  0
 22 17  1  0
  1 23  1  0
  3 24  1  0
  8 25  1  0
 11 26  1  0
 13 27  1  0
 18 28  1  0
 19 29  1  0
 20 30  1  0
 21 31  1  0
M  ISO  8  23  14  24  14  25  14  26  14  27  14  28  14  29  14  30  14
M  ISO  1  31  14
M  END
>  <minimizedAffinity>  (1) 
-5.22174835

>  <minimizedRMSD>  (1) 
0.891031921

$$$$
