
     RDKit          3D

 32 35  0  0  0  0  0  0  0  0999 V2000
   37.5570   25.0400   34.4290 C   0  0  0  0  0  0  0  0  0  0  0  0
   38.1250   25.4280   35.6590 C   0  0  0  0  0  0  0  0  0  0  0  0
   38.1550   26.7800   35.9720 C   0  0  0  0  0  0  0  0  0  0  0  0
   37.6410   27.6640   35.0870 N   0  0  0  0  0  0  0  0  0  0  0  0
   37.1020   27.2800   33.9150 C   0  0  0  0  0  0  0  0  0  0  0  0
   37.0570   25.9660   33.5810 N   0  0  0  0  0  0  0  0  0  0  0  0
   38.6360   24.4700   36.5230 N   0  0  0  0  0  0  0  0  0  0  0  0
   38.1680   24.1700   37.7480 C   0  0  0  0  0  0  0  0  0  0  0  0
   38.8600   23.2030   38.3490 N   0  0  0  0  0  0  0  0  0  0  0  0
   39.8350   22.8540   37.4670 C   0  0  0  0  0  0  0  0  0  0  0  0
   40.8530   21.9350   37.4930 C   0  0  0  0  0  0  0  0  0  0  0  0
   41.7170   21.7620   36.4720 N   0  0  0  0  0  0  0  0  0  0  0  0
   41.5290   22.5570   35.3990 C   0  0  0  0  0  0  0  0  0  0  0  0
   40.5400   23.4500   35.3760 N   0  0  0  0  0  0  0  0  0  0  0  0
   39.6740   23.6440   36.3590 C   0  0  0  0  0  0  0  0  0  0  0  0
   36.4090   28.3650   32.6910 S   0  0  0  0  0  0  0  0  0  0  0  0
   37.4940   28.2530   31.2560 C   0  0  0  0  0  0  0  0  0  0  0  0
   38.7660   27.7200   31.3550 C   0  0  0  0  0  0  0  0  0  0  0  0
   39.5910   27.6390   30.2510 C   0  0  0  0  0  0  0  0  0  0  0  0
   39.1440   28.0990   29.0120 C   0  0  0  0  0  0  0  0  0  0  0  0
   37.8710   28.6240   28.9550 C   0  0  0  0  0  0  0  0  0  0  0  0
   37.0140   28.7240   30.0300 C   0  0  0  0  0  0  0  0  0  0  0  0
   37.5203   23.9748   34.1569 H   0  0  0  0  0  0  0  0  0  0  0  0
   38.5887   27.1258   36.9219 H   0  0  0  0  0  0  0  0  0  0  0  0
   37.3029   24.6715   38.2064 H   0  0  0  0  0  0  0  0  0  0  0  0
   40.9703   21.3090   38.3898 H   0  0  0  0  0  0  0  0  0  0  0  0
   42.2002   22.4673   34.5321 H   0  0  0  0  0  0  0  0  0  0  0  0
   39.1261   27.3550   32.3282 H   0  0  0  0  0  0  0  0  0  0  0  0
   40.6001   27.2121   30.3482 H   0  0  0  0  0  0  0  0  0  0  0  0
   39.7815   28.0449   28.1172 H   0  0  0  0  0  0  0  0  0  0  0  0
   37.5130   28.9896   27.9813 H   0  0  0  0  0  0  0  0  0  0  0  0
   36.0057   29.1518   29.9288 H   0  0  0  0  0  0  0  0  0  0  0  0
  1  2  2  0
  2  3  1  0
  2  7  1  0
  4  3  2  0
  5  4  1  0
  6  5  2  0
  6  1  1  0
  7  8  1  0
  8  9  2  0
 10 11  2  0
 10  9  1  0
 12 11  1  0
 13 12  2  0
 14 13  1  0
 14 15  2  0
 15  7  1  0
 15 10  1  0
 16  5  1  0
 17 18  2  0
 17 16  1  0
 19 18  1  0
 20 19  2  0
 21 20  1  0
 21 22  2  0
 22 17  1  0
  1 23  1  0
  3 24  1  0
  8 25  1  0
 11 26  1  0
 13 27  1  0
 18 28  1  0
 19 29  1  0
 20 30  1  0
 21 31  1  0
 22 32  1  0
M  ISO  8  23  14  24  14  25  14  26  14  27  14  28  14  29  14  30  14
M  ISO  2  31  14  32  14
M  END
>  <minimizedAffinity>  (1) 
-5.19239473

>  <minimizedRMSD>  (1) 
0.832580805

$$$$
