
     RDKit          3D

 29 32  0  0  0  0  0  0  0  0999 V2000
   37.6700   25.0400   34.4010 C   0  0  0  0  0  0  0  0  0  0  0  0
   38.1960   25.4200   35.6560 C   0  0  0  0  0  0  0  0  0  0  0  0
   38.1830   26.7570   35.9650 C   0  0  0  0  0  0  0  0  0  0  0  0
   37.6800   27.6510   35.0820 N   0  0  0  0  0  0  0  0  0  0  0  0
   37.1830   27.2540   33.8890 C   0  0  0  0  0  0  0  0  0  0  0  0
   37.1740   25.9530   33.5420 N   0  0  0  0  0  0  0  0  0  0  0  0
   38.6920   24.4530   36.5040 N   0  0  0  0  0  0  0  0  0  0  0  0
   38.1780   24.1410   37.7290 C   0  0  0  0  0  0  0  0  0  0  0  0
   38.8660   23.1570   38.3310 N   0  0  0  0  0  0  0  0  0  0  0  0
   39.8440   22.8280   37.4750 C   0  0  0  0  0  0  0  0  0  0  0  0
   40.8620   21.9040   37.5190 C   0  0  0  0  0  0  0  0  0  0  0  0
   41.7530   21.7420   36.5210 N   0  0  0  0  0  0  0  0  0  0  0  0
   41.5990   22.5460   35.4520 C   0  0  0  0  0  0  0  0  0  0  0  0
   40.6180   23.4450   35.3990 N   0  0  0  0  0  0  0  0  0  0  0  0
   39.7250   23.6260   36.3680 C   0  0  0  0  0  0  0  0  0  0  0  0
   36.5030   28.3820   32.6850 S   0  0  0  0  0  0  0  0  0  0  0  0
   34.9530   29.0620   33.2040 C   0  0  0  0  0  0  0  0  0  0  0  0
   34.9890   29.8090   34.3830 C   0  0  0  0  0  0  0  0  0  0  0  0
   33.6940   30.2680   34.6490 C   0  0  0  0  0  0  0  0  0  0  0  0
   32.9430   29.7550   33.5840 C   0  0  0  0  0  0  0  0  0  0  0  0
   33.7230   29.0820   32.8040 O   0  0  0  0  0  0  0  0  0  0  0  0
   37.6651   23.9768   34.1188 H   0  0  0  0  0  0  0  0  0  0  0  0
   38.5814   27.1022   36.9305 H   0  0  0  0  0  0  0  0  0  0  0  0
   37.3021   24.6376   38.1719 H   0  0  0  0  0  0  0  0  0  0  0  0
   40.9532   21.2670   38.4112 H   0  0  0  0  0  0  0  0  0  0  0  0
   42.2969   22.4586   34.6062 H   0  0  0  0  0  0  0  0  0  0  0  0
   35.8810   30.0032   34.9967 H   0  0  0  0  0  0  0  0  0  0  0  0
   33.3487   30.8840   35.4924 H   0  0  0  0  0  0  0  0  0  0  0  0
   31.8630   29.9014   33.4354 H   0  0  0  0  0  0  0  0  0  0  0  0
  1  2  2  0
  2  3  1  0
  2  7  1  0
  4  3  2  0
  5  4  1  0
  6  5  2  0
  6  1  1  0
  7  8  1  0
  8  9  2  0
 10 11  2  0
 10  9  1  0
 12 11  1  0
 13 12  2  0
 14 13  1  0
 14 15  2  0
 15  7  1  0
 15 10  1  0
 16 17  1  0
 16  5  1  0
 17 18  2  0
 18 19  1  0
 20 19  2  0
 21 17  1  0
 21 20  1  0
  1 22  1  0
  3 23  1  0
  8 24  1  0
 11 25  1  0
 13 26  1  0
 18 27  1  0
 19 28  1  0
 20 29  1  0
M  ISO  8  22  14  23  14  24  14  25  14  26  14  27  14  28  14  29  14
M  END
>  <minimizedAffinity>  (1) 
-5.0725832

>  <minimizedRMSD>  (1) 
1.62717855

$$$$
