
     RDKit          3D

 22 23  0  0  0  0  0  0  0  0999 V2000
   40.4600   22.3950   37.7130 C   0  0  0  0  0  0  0  0  0  0  0  0
   39.2990   23.1380   37.4340 C   0  0  0  0  0  0  0  0  0  0  0  0
   39.0070   23.3700   36.1170 C   0  0  0  0  0  0  0  0  0  0  0  0
   39.8240   22.8900   35.1410 N   0  0  0  0  0  0  0  0  0  0  0  0
   40.9500   22.1680   35.4650 C   0  0  0  0  0  0  0  0  0  0  0  0
   41.2360   21.9420   36.7340 N   0  0  0  0  0  0  0  0  0  0  0  0
   38.4110   23.6590   38.5020 C   0  0  0  0  0  0  0  0  0  0  0  0
   39.1980   23.8680   39.6320 F   0  0  0  0  0  0  0  0  0  0  0  0
   37.3930   22.8420   38.8200 F   0  0  0  0  0  0  0  0  0  0  0  0
   37.9840   24.9730   38.1810 F   0  0  0  0  0  0  0  0  0  0  0  0
   41.9170   21.6080   34.0740 S   0  0  0  0  0  0  0  0  0  0  0  0
   43.3600   22.6400   33.8730 C   0  0  0  0  0  0  0  0  0  0  0  0
   43.2870   23.9500   34.4190 C   0  0  0  0  0  0  0  0  0  0  0  0
   44.9960   24.6470   33.9750 S   0  0  0  0  0  0  0  0  0  0  0  0
   45.4280   23.0200   33.1530 C   0  0  0  0  0  0  0  0  0  0  0  0
   44.5060   22.4310   33.3100 N   0  0  0  0  0  0  0  0  0  0  0  0
   46.8020   22.9610   32.5530 C   0  0  0  0  0  0  0  0  0  0  0  0
   47.8150   22.8350   33.3200 O   0  0  0  0  0  0  0  0  0  0  0  0
   40.7301   22.1854   38.7585 H   0  0  0  0  0  0  0  0  0  0  0  0
   38.1095   23.9460   35.8472 H   0  0  0  0  0  0  0  0  0  0  0  0
   42.4582   24.4330   34.9573 H   0  0  0  0  0  0  0  0  0  0  0  0
   46.9353   23.0257   31.4630 H   0  0  0  0  0  0  0  0  0  0  0  0
  2  1  2  0
  2  7  1  0
  3  2  1  0
  4  5  1  0
  4  3  2  0
  5  6  2  0
  6  1  1  0
  7  9  1  0
  7  8  1  0
 10  7  1  0
 11  5  1  0
 12 11  1  0
 12 13  2  0
 14 13  1  0
 15 16  2  0
 15 14  1  0
 16 12  1  0
 17 15  1  0
 17 18  2  0
  1 19  1  0
  3 20  1  0
 13 21  1  0
 17 22  1  0
M  ISO  4  19  14  20  14  21  14  22   6
M  END
>  <minimizedAffinity>  (1) 
-3.62520766

>  <minimizedRMSD>  (1) 
0.180652842

$$$$
