
     RDKit          3D

 36 39  0  0  1  0  0  0  0  0999 V2000
   37.6020   25.0450   34.4370 C   0  0  0  0  0  0  0  0  0  0  0  0
   38.1540   25.4300   35.6650 C   0  0  0  0  0  0  0  0  0  0  0  0
   38.1770   26.7680   35.9740 C   0  0  0  0  0  0  0  0  0  0  0  0
   37.6680   27.6660   35.0900 N   0  0  0  0  0  0  0  0  0  0  0  0
   37.1410   27.2530   33.9080 C   0  0  0  0  0  0  0  0  0  0  0  0
   37.1020   25.9500   33.5730 N   0  0  0  0  0  0  0  0  0  0  0  0
   38.6600   24.4610   36.5290 N   0  0  0  0  0  0  0  0  0  0  0  0
   38.1570   24.1670   37.7530 C   0  0  0  0  0  0  0  0  0  0  0  0
   38.8520   23.1860   38.3570 N   0  0  0  0  0  0  0  0  0  0  0  0
   39.8380   22.8400   37.4850 C   0  0  0  0  0  0  0  0  0  0  0  0
   40.8400   21.9210   37.5370 C   0  0  0  0  0  0  0  0  0  0  0  0
   41.7210   21.7540   36.5190 N   0  0  0  0  0  0  0  0  0  0  0  0
   41.5550   22.5550   35.4380 C   0  0  0  0  0  0  0  0  0  0  0  0
   40.5670   23.4520   35.4030 N   0  0  0  0  0  0  0  0  0  0  0  0
   39.6970   23.6370   36.3710 C   0  0  0  0  0  0  0  0  0  0  0  0
   36.4600   28.4070   32.7160 S   0  0  0  0  0  0  0  0  0  0  0  0
   37.0590   27.9800   31.0650 C   0  0  1  0  0  0  0  0  0  0  0  0
   36.7100   29.1690   30.1650 C   0  0  0  0  0  0  0  0  0  0  0  0
   38.5620   27.7930   31.0810 C   0  0  0  0  0  0  0  0  0  0  0  0
   38.8760   26.5340   30.3590 C   0  0  0  0  0  0  0  0  0  0  0  0
   38.5270   25.2260   30.4540 N   0  0  0  0  0  0  0  0  0  0  0  0
   39.1250   24.5480   29.5300 O   0  0  0  0  0  0  0  0  0  0  0  0
   39.8690   25.3280   28.8020 C   0  0  0  0  0  0  0  0  0  0  0  0
   39.7270   26.5740   29.3040 N   0  0  0  0  0  0  0  0  0  0  0  0
   37.5759   23.9779   34.1713 H   0  0  0  0  0  0  0  0  0  0  0  0
   38.6036   27.1098   36.9286 H   0  0  0  0  0  0  0  0  0  0  0  0
   37.2859   24.6697   38.1985 H   0  0  0  0  0  0  0  0  0  0  0  0
   40.9390   21.2925   38.4343 H   0  0  0  0  0  0  0  0  0  0  0  0
   42.2403   22.4650   34.5823 H   0  0  0  0  0  0  0  0  0  0  0  0
   36.6030   27.0437   30.7108 H   0  0  0  0  0  0  0  0  0  0  0  0
   36.4548   30.0384   30.7887 H   0  0  0  0  0  0  0  0  0  0  0  0
   37.5741   29.4142   29.5300 H   0  0  0  0  0  0  0  0  0  0  0  0
   35.8505   28.9083   29.5300 H   0  0  0  0  0  0  0  0  0  0  0  0
   39.0491   28.6422   30.5795 H   0  0  0  0  0  0  0  0  0  0  0  0
   38.9294   27.7412   32.1165 H   0  0  0  0  0  0  0  0  0  0  0  0
   40.4919   25.0311   27.9453 H   0  0  0  0  0  0  0  0  0  0  0  0
  1  2  2  0
  2  3  1  0
  2  7  1  0
  4  3  2  0
  5  4  1  0
  6  5  2  0
  6  1  1  0
  7  8  1  0
  8  9  2  0
 10 11  2  0
 10  9  1  0
 12 11  1  0
 13 12  2  0
 14 13  1  0
 14 15  2  0
 15  7  1  0
 15 10  1  0
 16  5  1  0
 17 19  1  0
 17 16  1  0
 18 17  1  0
 20 21  2  0
 20 19  1  0
 22 21  1  0
 23 24  2  0
 23 22  1  0
 24 20  1  0
  1 25  1  0
  3 26  1  0
  8 27  1  0
 11 28  1  0
 13 29  1  0
 17 30  1  6
 18 31  1  0
 18 32  1  0
 18 33  1  0
 19 34  1  0
 19 35  1  0
 23 36  1  0
M  ISO  8  25  14  26  14  27  14  28  14  29  14  30   8  31   8  32   8
M  ISO  4  33   8  34   8  35   8  36  14
M  END
>  <minimizedAffinity>  (1) 
-4.86502028

>  <minimizedRMSD>  (1) 
1.05099404

$$$$
