
     RDKit          3D

 44 47  0  0  1  0  0  0  0  0999 V2000
   37.6180   25.0230   34.4220 C   0  0  0  0  0  0  0  0  0  0  0  0
   38.1600   25.4140   35.6650 C   0  0  0  0  0  0  0  0  0  0  0  0
   38.1640   26.7600   35.9820 C   0  0  0  0  0  0  0  0  0  0  0  0
   37.6450   27.6370   35.0810 N   0  0  0  0  0  0  0  0  0  0  0  0
   37.1300   27.2280   33.8920 C   0  0  0  0  0  0  0  0  0  0  0  0
   37.1160   25.9400   33.5690 N   0  0  0  0  0  0  0  0  0  0  0  0
   38.6690   24.4530   36.5220 N   0  0  0  0  0  0  0  0  0  0  0  0
   38.1670   24.1570   37.7530 C   0  0  0  0  0  0  0  0  0  0  0  0
   38.8640   23.1790   38.3610 N   0  0  0  0  0  0  0  0  0  0  0  0
   39.8440   22.8390   37.4900 C   0  0  0  0  0  0  0  0  0  0  0  0
   40.8520   21.9210   37.5460 C   0  0  0  0  0  0  0  0  0  0  0  0
   41.7310   21.7530   36.5350 N   0  0  0  0  0  0  0  0  0  0  0  0
   41.5680   22.5470   35.4480 C   0  0  0  0  0  0  0  0  0  0  0  0
   40.5730   23.4430   35.4120 N   0  0  0  0  0  0  0  0  0  0  0  0
   39.7090   23.6310   36.3690 C   0  0  0  0  0  0  0  0  0  0  0  0
   36.4420   28.3510   32.6910 S   0  0  0  0  0  0  0  0  0  0  0  0
   37.1160   27.9930   31.0700 C   0  0  1  0  0  0  0  0  0  0  0  0
   36.7450   29.1450   30.1370 C   0  0  0  0  0  0  0  0  0  0  0  0
   38.6070   27.8260   31.1080 C   0  0  0  0  0  0  0  0  0  0  0  0
   39.2360   27.7120   29.7460 C   0  0  0  0  0  0  0  0  0  0  0  0
   40.5930   28.4230   29.8240 C   0  0  0  0  0  0  0  0  0  0  0  0
   41.5050   27.5900   28.9480 C   0  0  0  0  0  0  0  0  0  0  0  0
   41.0340   26.1880   29.1840 C   0  0  0  0  0  0  0  0  0  0  0  0
   39.5690   26.2640   29.4710 C   0  0  0  0  0  0  0  0  0  0  0  0
   37.6047   23.9584   34.1454 H   0  0  0  0  0  0  0  0  0  0  0  0
   38.5765   27.1127   36.9388 H   0  0  0  0  0  0  0  0  0  0  0  0
   37.2947   24.6581   38.1980 H   0  0  0  0  0  0  0  0  0  0  0  0
   40.9519   21.2963   38.4459 H   0  0  0  0  0  0  0  0  0  0  0  0
   42.2546   22.4551   34.5936 H   0  0  0  0  0  0  0  0  0  0  0  0
   36.6938   27.0433   30.7098 H   0  0  0  0  0  0  0  0  0  0  0  0
   36.4619   30.0241   30.7345 H   0  0  0  0  0  0  0  0  0  0  0  0
   37.6079   29.3954   29.5025 H   0  0  0  0  0  0  0  0  0  0  0  0
   35.8981   28.8447   29.5025 H   0  0  0  0  0  0  0  0  0  0  0  0
   39.0415   28.6974   31.6197 H   0  0  0  0  0  0  0  0  0  0  0  0
   38.8123   26.8840   31.6376 H   0  0  0  0  0  0  0  0  0  0  0  0
   38.5592   28.1248   28.9834 H   0  0  0  0  0  0  0  0  0  0  0  0
   40.5166   29.4509   29.4399 H   0  0  0  0  0  0  0  0  0  0  0  0
   40.9641   28.5064   30.8561 H   0  0  0  0  0  0  0  0  0  0  0  0
   42.5559   27.7077   29.2509 H   0  0  0  0  0  0  0  0  0  0  0  0
   41.4645   27.8823   27.8883 H   0  0  0  0  0  0  0  0  0  0  0  0
   41.2127   25.5734   28.2894 H   0  0  0  0  0  0  0  0  0  0  0  0
   41.5759   25.7268   30.0228 H   0  0  0  0  0  0  0  0  0  0  0  0
   38.9968   25.9051   28.6028 H   0  0  0  0  0  0  0  0  0  0  0  0
   39.3099   25.6353   30.3356 H   0  0  0  0  0  0  0  0  0  0  0  0
  1  2  2  0
  2  3  1  0
  2  7  1  0
  4  3  2  0
  5  4  1  0
  6  5  2  0
  6  1  1  0
  7  8  1  0
  8  9  2  0
 10 11  2  0
 10  9  1  0
 12 11  1  0
 13 12  2  0
 14 13  1  0
 14 15  2  0
 15  7  1  0
 15 10  1  0
 16  5  1  0
 17 19  1  0
 17 16  1  0
 18 17  1  0
 20 21  1  0
 20 19  1  0
 22 23  1  0
 22 21  1  0
 23 24  1  0
 24 20  1  0
  1 25  1  0
  3 26  1  0
  8 27  1  0
 11 28  1  0
 13 29  1  0
 17 30  1  6
 18 31  1  0
 18 32  1  0
 18 33  1  0
 19 34  1  0
 19 35  1  0
 20 36  1  0
 21 37  1  0
 21 38  1  0
 22 39  1  0
 22 40  1  0
 23 41  1  0
 23 42  1  0
 24 43  1  0
 24 44  1  0
M  ISO  8  25  14  26  14  27  14  28  14  29  14  30   8  31   8  32   8
M  ISO  8  33   8  34   8  35   8  36  13  37  13  38  13  39  13  40  13
M  ISO  4  41  13  42  13  43  13  44  13
M  END
>  <minimizedAffinity>  (1) 
-4.81961346

>  <minimizedRMSD>  (1) 
0.26404953

$$$$
