
     RDKit          3D

 16 16  0  0  0  0  0  0  0  0999 V2000
   38.2000   22.0780   35.6700 C   0  0  0  0  0  0  0  0  0  0  0  0
   38.3100   23.2720   36.3830 C   0  0  0  0  0  0  0  0  0  0  0  0
   38.2370   24.4810   35.6960 C   0  0  0  0  0  0  0  0  0  0  0  0
   38.0590   24.4220   34.3490 N   0  0  0  0  0  0  0  0  0  0  0  0
   37.9540   23.2570   33.6740 C   0  0  0  0  0  0  0  0  0  0  0  0
   38.0260   22.0880   34.3460 N   0  0  0  0  0  0  0  0  0  0  0  0
   38.3490   25.7850   36.4080 C   0  0  0  0  0  0  0  0  0  0  0  0
   38.4970   23.2370   37.8130 C   0  0  0  0  0  0  0  0  0  0  0  0
   37.6320   23.6930   38.6030 O   0  0  0  0  0  0  0  0  0  0  0  0
   39.6520   22.6910   38.3580 O   0  0  0  0  0  0  0  0  0  0  0  0
   38.2572   21.1181   36.2041 H   0  0  0  0  0  0  0  0  0  0  0  0
   37.8107   23.2604   32.5834 H   0  0  0  0  0  0  0  0  0  0  0  0
   38.3342   25.6121   37.4942 H   0  0  0  0  0  0  0  0  0  0  0  0
   39.2926   26.2759   36.1277 H   0  0  0  0  0  0  0  0  0  0  0  0
   37.5029   26.4297   36.1277 H   0  0  0  0  0  0  0  0  0  0  0  0
   39.7739   22.6702   39.3402 H   0  0  0  0  0  0  0  0  0  0  0  0
  1  2  2  0
  2  8  1  0
  3  2  1  0
  3  7  1  0
  4  3  2  0
  5  6  2  0
  5  4  1  0
  6  1  1  0
  8 10  1  0
  8  9  2  0
  1 11  1  0
  5 12  1  0
  7 13  1  0
  7 14  1  0
  7 15  1  0
 10 16  1  0
M  ISO  6  11  14  12  14  13   8  14   8  15   8  16   3
M  END
>  <minimizedAffinity>  (1) 
-3.47178531

>  <minimizedRMSD>  (1) 
2.72459483

$$$$
