
     RDKit          3D

 20 20  0  0  0  0  0  0  0  0999 V2000
   39.6230   23.6000   35.1950 C   0  0  0  0  0  0  0  0  0  0  0  0
   39.6920   24.9810   35.0300 C   0  0  0  0  0  0  0  0  0  0  0  0
   38.7680   25.7330   35.7880 C   0  0  0  0  0  0  0  0  0  0  0  0
   37.9070   25.0640   36.5970 N   0  0  0  0  0  0  0  0  0  0  0  0
   37.8830   23.7330   36.7180 C   0  0  0  0  0  0  0  0  0  0  0  0
   38.7470   22.9990   36.0120 N   0  0  0  0  0  0  0  0  0  0  0  0
   40.6170   25.6340   34.1740 N   0  0  0  0  0  0  0  0  0  0  0  0
   41.9200   26.0540   34.5540 C   0  0  0  0  0  0  0  0  0  0  0  0
   42.5730   25.1610   35.2610 N   0  0  0  0  0  0  0  0  0  0  0  0
   42.3490   27.3640   34.1270 N   0  0  0  0  0  0  0  0  0  0  0  0
   43.5390   25.3440   35.6030 H   0  0  0  0  0  0  0  0  0  0  0  0
   38.7440   27.2410   35.6950 C   0  0  0  0  0  0  0  0  0  0  0  0
   40.3230   22.9705   34.6259 H   0  0  0  0  0  0  0  0  0  0  0  0
   37.1604   23.2481   37.3909 H   0  0  0  0  0  0  0  0  0  0  0  0
   40.3214   25.8171   33.2045 H   0  0  0  0  0  0  0  0  0  0  0  0
   43.2863   27.7072   34.3810 H   0  0  0  0  0  0  0  0  0  0  0  0
   41.7179   27.9559   33.5682 H   0  0  0  0  0  0  0  0  0  0  0  0
   38.7372   27.6707   36.7076 H   0  0  0  0  0  0  0  0  0  0  0  0
   39.6367   27.5893   35.1549 H   0  0  0  0  0  0  0  0  0  0  0  0
   37.8407   27.5607   35.1549 H   0  0  0  0  0  0  0  0  0  0  0  0
  1  6  2  0
  2  1  1  0
  2  3  2  0
  3  4  1  0
  4  5  2  0
  6  5  1  0
  7  8  1  0
  7  2  1  0
  8  9  2  0
  9 11  1  0
 10  8  1  0
 12  3  1  0
  1 13  1  0
  5 14  1  0
  7 15  1  0
 10 16  1  0
 10 17  1  0
 12 18  1  0
 12 19  1  0
 12 20  1  0
M  ISO  5  13  14  14  14  18   8  19   8  20   8
M  END
>  <minimizedAffinity>  (1) 
-3.33283257

>  <minimizedRMSD>  (1) 
4.42143488

$$$$
