
     RDKit          3D

 20 21  0  0  0  0  0  0  0  0999 V2000
   40.1710   26.5700   34.8890 C   0  0  0  0  0  0  0  0  0  0  0  0
   39.3730   25.4240   34.8510 C   0  0  0  0  0  0  0  0  0  0  0  0
   38.8140   25.0450   33.6280 C   0  0  0  0  0  0  0  0  0  0  0  0
   39.0860   25.8250   32.5360 N   0  0  0  0  0  0  0  0  0  0  0  0
   39.8550   26.9180   32.6040 C   0  0  0  0  0  0  0  0  0  0  0  0
   40.3940   27.2830   33.7910 N   0  0  0  0  0  0  0  0  0  0  0  0
   39.0790   24.5890   36.0110 C   0  0  0  0  0  0  0  0  0  0  0  0
   38.0490   24.9320   36.8940 C   0  0  0  0  0  0  0  0  0  0  0  0
   37.9980   23.9670   37.8940 C   0  0  0  0  0  0  0  0  0  0  0  0
   39.0120   23.0900   37.5470 C   0  0  0  0  0  0  0  0  0  0  0  0
   39.6160   23.4830   36.4500 O   0  0  0  0  0  0  0  0  0  0  0  0
   37.9510   23.8300   33.5240 C   0  0  0  0  0  0  0  0  0  0  0  0
   40.6209   26.8862   35.8417 H   0  0  0  0  0  0  0  0  0  0  0  0
   40.0479   27.5161   31.7012 H   0  0  0  0  0  0  0  0  0  0  0  0
   37.3938   25.8117   36.8115 H   0  0  0  0  0  0  0  0  0  0  0  0
   37.3154   23.9132   38.7549 H   0  0  0  0  0  0  0  0  0  0  0  0
   39.2758   22.1854   38.1146 H   0  0  0  0  0  0  0  0  0  0  0  0
   37.6974   23.4729   34.5330 H   0  0  0  0  0  0  0  0  0  0  0  0
   37.0279   24.0813   32.9812 H   0  0  0  0  0  0  0  0  0  0  0  0
   38.4923   23.0411   32.9812 H   0  0  0  0  0  0  0  0  0  0  0  0
  2  1  2  0
  2  7  1  0
  3  2  1  0
  4  5  1  0
  4  3  2  0
  5  6  2  0
  6  1  1  0
  7 11  1  0
  7  8  2  0
  8  9  1  0
 10  9  2  0
 11 10  1  0
 12  3  1  0
  1 13  1  0
  5 14  1  0
  8 15  1  0
  9 16  1  0
 10 17  1  0
 12 18  1  0
 12 19  1  0
 12 20  1  0
M  ISO  8  13  14  14  14  15  14  16  14  17  14  18   8  19   8  20   8
M  END
>  <minimizedAffinity>  (1) 
-3.29282045

>  <minimizedRMSD>  (1) 
4.80057764

$$$$
