
     RDKit          3D

 15 15  0  0  0  0  0  0  0  0999 V2000
   40.7080   22.1300   37.5260 C   0  0  0  0  0  0  0  0  0  0  0  0
   39.5820   22.9270   37.7600 C   0  0  0  0  0  0  0  0  0  0  0  0
   38.8340   23.3940   36.6800 C   0  0  0  0  0  0  0  0  0  0  0  0
   39.2460   23.0440   35.4340 N   0  0  0  0  0  0  0  0  0  0  0  0
   40.3440   22.2690   35.2380 C   0  0  0  0  0  0  0  0  0  0  0  0
   41.0540   21.8250   36.2780 N   0  0  0  0  0  0  0  0  0  0  0  0
   37.6270   24.2470   36.9000 C   0  0  0  0  0  0  0  0  0  0  0  0
   39.1650   23.2820   39.0710 N   0  0  0  0  0  0  0  0  0  0  0  0
   41.3052   21.7568   38.3711 H   0  0  0  0  0  0  0  0  0  0  0  0
   40.6506   22.0052   34.2151 H   0  0  0  0  0  0  0  0  0  0  0  0
   37.4555   24.3682   37.9798 H   0  0  0  0  0  0  0  0  0  0  0  0
   37.7868   25.2338   36.4411 H   0  0  0  0  0  0  0  0  0  0  0  0
   36.7501   23.7669   36.4411 H   0  0  0  0  0  0  0  0  0  0  0  0
   38.3304   23.8708   39.2042 H   0  0  0  0  0  0  0  0  0  0  0  0
   39.6973   22.9506   39.8882 H   0  0  0  0  0  0  0  0  0  0  0  0
  1  2  2  0
  2  8  1  0
  3  7  1  0
  3  2  1  0
  4  3  2  0
  5  4  1  0
  5  6  2  0
  6  1  1  0
  1  9  1  0
  5 10  1  0
  7 11  1  0
  7 12  1  0
  7 13  1  0
  8 14  1  0
  8 15  1  0
M  ISO  5   9  14  10  14  11   8  12   8  13   8
M  END
>  <minimizedAffinity>  (1) 
-2.9727354

>  <minimizedRMSD>  (1) 
1.22265947

$$$$
