
     RDKit          3D

 40 44  0  0  0  0  0  0  0  0999 V2000
   40.0560   24.9970   32.3250 C   0  0  0  0  0  0  0  0  0  0  0  0
   40.8910   25.7770   33.1510 C   0  0  0  0  0  0  0  0  0  0  0  0
   41.0720   27.3450   32.1490 S   0  0  0  0  0  0  0  0  0  0  0  0
   39.9690   26.6200   30.7980 C   0  0  0  0  0  0  0  0  0  0  0  0
   39.7580   25.6430   31.2480 N   0  0  0  0  0  0  0  0  0  0  0  0
   39.5690   27.2590   29.5480 N   0  0  0  0  0  0  0  0  0  0  0  0
   40.3500   26.9550   28.4990 C   0  0  0  0  0  0  0  0  0  0  0  0
   39.8280   27.6420   27.4130 C   0  0  0  0  0  0  0  0  0  0  0  0
   38.7540   28.3260   27.8750 N   0  0  0  0  0  0  0  0  0  0  0  0
   38.5840   28.0990   29.1860 C   0  0  0  0  0  0  0  0  0  0  0  0
   37.7150   28.4720   30.2250 N   0  0  0  0  0  0  0  0  0  0  0  0
   36.7230   29.3580   29.9920 C   0  0  0  0  0  0  0  0  0  0  0  0
   36.0250   29.5550   31.1440 N   0  0  0  0  0  0  0  0  0  0  0  0
   36.5640   28.8030   32.1070 C   0  0  0  0  0  0  0  0  0  0  0  0
   36.3670   28.5270   33.4520 C   0  0  0  0  0  0  0  0  0  0  0  0
   37.1260   27.6810   34.1470 N   0  0  0  0  0  0  0  0  0  0  0  0
   38.1430   27.0500   33.5310 C   0  0  0  0  0  0  0  0  0  0  0  0
   38.3850   27.2790   32.2140 N   0  0  0  0  0  0  0  0  0  0  0  0
   37.6160   28.1330   31.5210 C   0  0  0  0  0  0  0  0  0  0  0  0
   35.2670   29.2250   34.0680 N   0  0  0  0  0  0  0  0  0  0  0  0
   39.6040   23.3530   32.9080 S   0  0  0  0  0  0  0  0  0  0  0  0
   39.6370   22.7540   36.8400 C   0  0  0  0  0  0  0  0  0  0  0  0
   38.5760   23.5480   37.3130 C   0  0  0  0  0  0  0  0  0  0  0  0
   37.8540   24.2720   36.3650 C   0  0  0  0  0  0  0  0  0  0  0  0
   38.1900   24.1900   35.0510 N   0  0  0  0  0  0  0  0  0  0  0  0
   39.2320   23.4040   34.6390 C   0  0  0  0  0  0  0  0  0  0  0  0
   39.9330   22.7040   35.5360 N   0  0  0  0  0  0  0  0  0  0  0  0
   38.1910   23.6510   38.7440 C   0  0  0  0  0  0  0  0  0  0  0  0
   39.3790   23.6200   39.4680 F   0  0  0  0  0  0  0  0  0  0  0  0
   37.3880   22.6490   39.1540 F   0  0  0  0  0  0  0  0  0  0  0  0
   37.6780   24.9420   39.0230 F   0  0  0  0  0  0  0  0  0  0  0  0
   41.3238   25.5276   34.1310 H   0  0  0  0  0  0  0  0  0  0  0  0
   41.2286   26.2931   28.5006 H   0  0  0  0  0  0  0  0  0  0  0  0
   40.2102   27.6331   26.3816 H   0  0  0  0  0  0  0  0  0  0  0  0
   36.5128   29.8424   29.0270 H   0  0  0  0  0  0  0  0  0  0  0  0
   38.7776   26.3495   34.0936 H   0  0  0  0  0  0  0  0  0  0  0  0
   35.0549   29.0745   35.0646 H   0  0  0  0  0  0  0  0  0  0  0  0
   34.6929   29.8744   33.5117 H   0  0  0  0  0  0  0  0  0  0  0  0
   40.2324   22.1652   37.5533 H   0  0  0  0  0  0  0  0  0  0  0  0
   37.0140   24.9084   36.6803 H   0  0  0  0  0  0  0  0  0  0  0  0
  1 21  1  0
  1  2  2  0
  3  2  1  0
  4  5  2  0
  4  3  1  0
  5  1  1  0
  6  4  1  0
  7  6  1  0
  8  9  1  0
  8  7  2  0
  9 10  2  0
 10  6  1  0
 10 11  1  0
 11 19  1  0
 12 11  1  0
 12 13  2  0
 13 14  1  0
 14 15  2  0
 15 20  1  0
 15 16  1  0
 17 16  2  0
 18 17  1  0
 19 14  1  0
 19 18  2  0
 21 26  1  0
 22 23  2  0
 23 28  1  0
 24 23  1  0
 25 24  2  0
 26 25  1  0
 26 27  2  0
 27 22  1  0
 28 31  1  0
 28 30  1  0
 28 29  1  0
  2 32  1  0
  7 33  1  0
  8 34  1  0
 12 35  1  0
 17 36  1  0
 20 37  1  0
 20 38  1  0
 22 39  1  0
 24 40  1  0
M  ISO  7  32  14  33  14  34  14  35  14  36  14  39  14  40  14
M  END
>  <minimizedAffinity>  (1) 
-6.64288425

>  <minimizedRMSD>  (1) 
7.13388491

$$$$
