
     RDKit          3D

 33 35  0  0  0  0  0  0  0  0999 V2000
   41.9820   24.5210   34.9220 C   0  0  0  0  0  0  0  0  0  0  0  0
   43.3200   24.0500   35.1420 N   0  0  0  0  0  0  0  0  0  0  0  0
   43.9850   23.1560   34.3860 C   0  0  0  0  0  0  0  0  0  0  0  0
   45.2120   22.9720   34.9100 N   0  0  0  0  0  0  0  0  0  0  0  0
   45.3440   23.7400   36.0020 C   0  0  0  0  0  0  0  0  0  0  0  0
   46.4160   23.8790   36.8560 C   0  0  0  0  0  0  0  0  0  0  0  0
   47.4690   23.2260   36.6580 O   0  0  0  0  0  0  0  0  0  0  0  0
   46.2480   24.7360   37.8760 N   0  0  0  0  0  0  0  0  0  0  0  0
   45.1050   25.4030   38.0360 C   0  0  0  0  0  0  0  0  0  0  0  0
   45.0080   26.2960   39.1480 N   0  0  0  0  0  0  0  0  0  0  0  0
   44.0520   25.2590   37.1890 N   0  0  0  0  0  0  0  0  0  0  0  0
   44.1500   24.4140   36.1390 C   0  0  0  0  0  0  0  0  0  0  0  0
   41.0210   23.4100   35.1170 C   0  0  0  0  0  0  0  0  0  0  0  0
   38.9210   24.5270   35.9620 C   0  0  0  0  0  0  0  0  0  0  0  0
   39.9680   23.6120   36.1170 C   0  0  0  0  0  0  0  0  0  0  0  0
   39.9890   22.8700   37.2900 C   0  0  0  0  0  0  0  0  0  0  0  0
   39.0120   23.0690   38.2030 N   0  0  0  0  0  0  0  0  0  0  0  0
   38.0270   23.9500   38.0250 C   0  0  0  0  0  0  0  0  0  0  0  0
   37.9710   24.6830   36.9110 N   0  0  0  0  0  0  0  0  0  0  0  0
   41.0910   21.8650   37.5170 C   0  0  0  0  0  0  0  0  0  0  0  0
   41.8939   24.9041   33.8946 H   0  0  0  0  0  0  0  0  0  0  0  0
   41.7576   25.3255   35.6378 H   0  0  0  0  0  0  0  0  0  0  0  0
   43.5909   22.6578   33.4880 H   0  0  0  0  0  0  0  0  0  0  0  0
   47.0161   24.8806   38.5468 H   0  0  0  0  0  0  0  0  0  0  0  0
   44.1413   26.8296   39.3059 H   0  0  0  0  0  0  0  0  0  0  0  0
   45.8048   26.4058   39.7913 H   0  0  0  0  0  0  0  0  0  0  0  0
   40.5301   23.2217   34.1508 H   0  0  0  0  0  0  0  0  0  0  0  0
   41.6237   22.5733   35.5000 H   0  0  0  0  0  0  0  0  0  0  0  0
   38.8696   25.1340   35.0460 H   0  0  0  0  0  0  0  0  0  0  0  0
   37.2565   24.0733   38.8004 H   0  0  0  0  0  0  0  0  0  0  0  0
   41.2435   21.7259   38.5975 H   0  0  0  0  0  0  0  0  0  0  0  0
   40.8113   20.9045   37.0595 H   0  0  0  0  0  0  0  0  0  0  0  0
   42.0217   22.2318   37.0595 H   0  0  0  0  0  0  0  0  0  0  0  0
  1 13  1  0
  1  2  1  0
  2 12  1  0
  3  4  2  0
  3  2  1  0
  4  5  1  0
  5 12  2  0
  5  6  1  0
  6  8  1  0
  7  6  2  0
  8  9  1  0
  9 10  1  0
 11  9  2  0
 12 11  1  0
 13 15  1  0
 14 15  2  0
 14 19  1  0
 15 16  1  0
 16 20  1  0
 16 17  2  0
 18 17  1  0
 19 18  2  0
  1 21  1  0
  1 22  1  0
  3 23  1  0
  8 24  1  0
 10 25  1  0
 10 26  1  0
 13 27  1  0
 13 28  1  0
 14 29  1  0
 18 30  1  0
 20 31  1  0
 20 32  1  0
 20 33  1  0
M  ISO  8  21   8  22   8  23  14  24   9  27   8  28   8  29  14  30  14
M  ISO  3  31   8  32   8  33   8
M  END
>  <minimizedAffinity>  (1) 
-4.80130291

>  <minimizedRMSD>  (1) 
4.32456541

$$$$
