
     RDKit          3D

 29 30  0  0  0  0  0  0  0  0999 V2000
   38.3730   22.9840   34.6960 C   0  0  0  0  0  0  0  0  0  0  0  0
   37.5570   23.9270   36.8670 C   0  0  0  0  0  0  0  0  0  0  0  0
   38.5010   23.2260   36.1300 C   0  0  0  0  0  0  0  0  0  0  0  0
   39.6110   22.7390   36.8260 C   0  0  0  0  0  0  0  0  0  0  0  0
   39.7060   22.9710   38.1530 N   0  0  0  0  0  0  0  0  0  0  0  0
   38.7770   23.6510   38.8380 C   0  0  0  0  0  0  0  0  0  0  0  0
   37.6900   24.1360   38.1940 N   0  0  0  0  0  0  0  0  0  0  0  0
   40.6620   21.9720   36.0530 C   0  0  0  0  0  0  0  0  0  0  0  0
   38.4910   24.1110   33.7760 C   0  0  0  0  0  0  0  0  0  0  0  0
   37.4070   24.2840   32.8480 N   0  0  0  0  0  0  0  0  0  0  0  0
   36.7420   23.3080   32.1960 C   0  0  0  0  0  0  0  0  0  0  0  0
   35.7140   23.6330   31.3270 C   0  0  0  0  0  0  0  0  0  0  0  0
   35.3490   24.9520   31.1090 C   0  0  0  0  0  0  0  0  0  0  0  0
   34.4030   25.2100   30.3090 O   0  0  0  0  0  0  0  0  0  0  0  0
   36.0450   25.8710   31.7840 N   0  0  0  0  0  0  0  0  0  0  0  0
   37.0360   25.5640   32.6210 C   0  0  0  0  0  0  0  0  0  0  0  0
   37.5850   26.5300   33.1710 O   0  0  0  0  0  0  0  0  0  0  0  0
   39.1533   22.2594   34.4202 H   0  0  0  0  0  0  0  0  0  0  0  0
   37.3310   22.6526   34.5758 H   0  0  0  0  0  0  0  0  0  0  0  0
   36.6703   24.3259   36.3525 H   0  0  0  0  0  0  0  0  0  0  0  0
   38.8972   23.8144   39.9191 H   0  0  0  0  0  0  0  0  0  0  0  0
   41.3445   21.4739   36.7573 H   0  0  0  0  0  0  0  0  0  0  0  0
   40.1732   21.2168   35.4199 H   0  0  0  0  0  0  0  0  0  0  0  0
   41.2321   22.6678   35.4199 H   0  0  0  0  0  0  0  0  0  0  0  0
   38.5691   25.0290   34.3769 H   0  0  0  0  0  0  0  0  0  0  0  0
   39.3773   23.8989   33.1600 H   0  0  0  0  0  0  0  0  0  0  0  0
   37.0162   22.2546   32.3546 H   0  0  0  0  0  0  0  0  0  0  0  0
   35.1776   22.8299   30.8004 H   0  0  0  0  0  0  0  0  0  0  0  0
   35.8045   26.8637   31.6514 H   0  0  0  0  0  0  0  0  0  0  0  0
  1  3  1  0
  2  7  2  0
  3  4  2  0
  3  2  1  0
  4  5  1  0
  5  6  2  0
  7  6  1  0
  8  4  1  0
  9  1  1  0
 10  9  1  0
 11 10  1  0
 12 11  2  0
 13 12  1  0
 13 15  1  0
 14 13  2  0
 15 16  1  0
 16 10  1  0
 16 17  2  0
  1 18  1  0
  1 19  1  0
  2 20  1  0
  6 21  1  0
  8 22  1  0
  8 23  1  0
  8 24  1  0
  9 25  1  0
  9 26  1  0
 11 27  1  0
 12 28  1  0
 15 29  1  0
M  ISO  8  18   8  19   8  20  14  21  14  22   8  23   8  24   8  25   8
M  ISO  4  26   8  27  14  28  14  29   9
M  END
>  <minimizedAffinity>  (1) 
-4.61884785

>  <minimizedRMSD>  (1) 
4.32461548

$$$$
