
     RDKit          3D

 29 30  0  0  0  0  0  0  0  0999 V2000
   38.7210   22.1090   34.6360 C   0  0  0  0  0  0  0  0  0  0  0  0
   37.6060   23.0490   36.6820 C   0  0  0  0  0  0  0  0  0  0  0  0
   38.7220   22.5550   36.0250 C   0  0  0  0  0  0  0  0  0  0  0  0
   39.8990   22.4910   36.7700 C   0  0  0  0  0  0  0  0  0  0  0  0
   39.8960   22.9010   38.0560 N   0  0  0  0  0  0  0  0  0  0  0  0
   38.8070   23.3720   38.6640 C   0  0  0  0  0  0  0  0  0  0  0  0
   37.6560   23.4490   37.9780 N   0  0  0  0  0  0  0  0  0  0  0  0
   41.1580   21.9610   36.1170 C   0  0  0  0  0  0  0  0  0  0  0  0
   37.9170   22.8600   33.6760 C   0  0  0  0  0  0  0  0  0  0  0  0
   36.8800   22.0320   33.0100 C   0  0  0  0  0  0  0  0  0  0  0  0
   36.3080   20.9850   33.7370 C   0  0  0  0  0  0  0  0  0  0  0  0
   35.3340   20.1670   33.1850 C   0  0  0  0  0  0  0  0  0  0  0  0
   34.9210   20.4010   31.8720 C   0  0  0  0  0  0  0  0  0  0  0  0
   35.4780   21.4270   31.1520 C   0  0  0  0  0  0  0  0  0  0  0  0
   36.4450   22.2320   31.7130 C   0  0  0  0  0  0  0  0  0  0  0  0
   39.7624   22.1363   34.2828 H   0  0  0  0  0  0  0  0  0  0  0  0
   38.2536   21.1137   34.6671 H   0  0  0  0  0  0  0  0  0  0  0  0
   36.6527   23.1188   36.1376 H   0  0  0  0  0  0  0  0  0  0  0  0
   38.8513   23.6936   39.7150 H   0  0  0  0  0  0  0  0  0  0  0  0
   41.8751   21.6591   36.8945 H   0  0  0  0  0  0  0  0  0  0  0  0
   40.9083   21.0916   35.4910 H   0  0  0  0  0  0  0  0  0  0  0  0
   41.6052   22.7472   35.4910 H   0  0  0  0  0  0  0  0  0  0  0  0
   37.4188   23.6850   34.2063 H   0  0  0  0  0  0  0  0  0  0  0  0
   38.5978   23.2250   32.8929 H   0  0  0  0  0  0  0  0  0  0  0  0
   36.6379   20.8055   34.7709 H   0  0  0  0  0  0  0  0  0  0  0  0
   34.8940   19.3473   33.7718 H   0  0  0  0  0  0  0  0  0  0  0  0
   34.1498   19.7632   31.4155 H   0  0  0  0  0  0  0  0  0  0  0  0
   35.1498   21.6086   30.1179 H   0  0  0  0  0  0  0  0  0  0  0  0
   36.8791   23.0490   31.1180 H   0  0  0  0  0  0  0  0  0  0  0  0
  1  3  1  0
  2  7  2  0
  3  2  1  0
  3  4  2  0
  4  5  1  0
  5  6  2  0
  7  6  1  0
  8  4  1  0
  9  1  1  0
 10  9  1  0
 10 11  2  0
 12 11  1  0
 13 12  2  0
 14 15  2  0
 14 13  1  0
 15 10  1  0
  1 16  1  0
  1 17  1  0
  2 18  1  0
  6 19  1  0
  8 20  1  0
  8 21  1  0
  8 22  1  0
  9 23  1  0
  9 24  1  0
 11 25  1  0
 12 26  1  0
 13 27  1  0
 14 28  1  0
 15 29  1  0
M  ISO  8  16   8  17   8  18  14  19  14  20   8  21   8  22   8  23   8
M  ISO  6  24   8  25  14  26  14  27  14  28  14  29  14
M  END
>  <minimizedAffinity>  (1) 
-4.4843154

>  <minimizedRMSD>  (1) 
4.00743532

$$$$
