
     RDKit          3D

 32 33  0  0  0  0  0  0  0  0999 V2000
   40.1260   23.1850   34.8840 C   0  0  0  0  0  0  0  0  0  0  0  0
   38.3610   24.4060   36.1970 C   0  0  0  0  0  0  0  0  0  0  0  0
   39.4110   23.5020   36.1170 C   0  0  0  0  0  0  0  0  0  0  0  0
   39.7830   22.8710   37.3150 C   0  0  0  0  0  0  0  0  0  0  0  0
   39.1190   23.1650   38.4580 N   0  0  0  0  0  0  0  0  0  0  0  0
   38.1130   24.0410   38.4960 C   0  0  0  0  0  0  0  0  0  0  0  0
   37.7240   24.6710   37.3630 N   0  0  0  0  0  0  0  0  0  0  0  0
   40.9220   21.8750   37.2880 C   0  0  0  0  0  0  0  0  0  0  0  0
   39.5040   23.5490   33.6130 C   0  0  0  0  0  0  0  0  0  0  0  0
   36.9220   20.4450   32.2370 C   0  0  0  0  0  0  0  0  0  0  0  0
   38.2910   20.2120   32.2410 C   0  0  0  0  0  0  0  0  0  0  0  0
   39.1700   21.1800   32.6740 C   0  0  0  0  0  0  0  0  0  0  0  0
   38.6950   22.4000   33.1130 C   0  0  0  0  0  0  0  0  0  0  0  0
   37.3170   22.5900   33.0940 C   0  0  0  0  0  0  0  0  0  0  0  0
   36.4010   21.6410   32.6650 C   0  0  0  0  0  0  0  0  0  0  0  0
   35.7650   19.2410   31.6940 S   0  0  0  0  0  0  0  0  0  0  0  0
   34.3550   19.6980   31.9350 O   0  0  0  0  0  0  0  0  0  0  0  0
   36.0850   17.9700   32.4440 O   0  0  0  0  0  0  0  0  0  0  0  0
   41.0985   23.6971   34.9299 H   0  0  0  0  0  0  0  0  0  0  0  0
   40.1630   22.0858   34.8648 H   0  0  0  0  0  0  0  0  0  0  0  0
   38.0351   24.9246   35.2833 H   0  0  0  0  0  0  0  0  0  0  0  0
   37.6007   24.2507   39.4466 H   0  0  0  0  0  0  0  0  0  0  0  0
   41.2119   21.6215   38.3184 H   0  0  0  0  0  0  0  0  0  0  0  0
   40.5998   20.9637   36.7630 H   0  0  0  0  0  0  0  0  0  0  0  0
   41.7822   22.3159   36.7630 H   0  0  0  0  0  0  0  0  0  0  0  0
   38.8509   24.4218   33.7602 H   0  0  0  0  0  0  0  0  0  0  0  0
   40.2844   23.7973   32.8787 H   0  0  0  0  0  0  0  0  0  0  0  0
   38.6781   19.2426   31.8941 H   0  0  0  0  0  0  0  0  0  0  0  0
   40.2518   20.9809   32.6701 H   0  0  0  0  0  0  0  0  0  0  0  0
   36.9277   23.5579   33.4426 H   0  0  0  0  0  0  0  0  0  0  0  0
   35.3183   21.8356   32.6675 H   0  0  0  0  0  0  0  0  0  0  0  0
   35.8602   19.0336   30.3431 H   0  0  0  0  0  0  0  0  0  0  0  0
  1  3  1  0
  2  7  2  0
  3  2  1  0
  3  4  2  0
  4  5  1  0
  5  6  2  0
  7  6  1  0
  8  4  1  0
  9  1  1  0
 10 11  2  0
 10 15  1  0
 11 12  1  0
 12 13  2  0
 13  9  1  0
 14 13  1  0
 15 14  2  0
 16 17  2  0
 16 10  1  0
 16 18  2  0
  1 19  1  0
  1 20  1  0
  2 21  1  0
  6 22  1  0
  8 23  1  0
  8 24  1  0
  8 25  1  0
  9 26  1  0
  9 27  1  0
 11 28  1  0
 12 29  1  0
 14 30  1  0
 15 31  1  0
 16 32  1  0
M  ISO  8  19   8  20   8  21  14  22  14  23   8  24   8  25   8  26   8
M  ISO  6  27   8  28  14  29  14  30  14  31  14  32  11
M  END
>  <minimizedAffinity>  (1) 
-4.23694324

>  <minimizedRMSD>  (1) 
4.36959314

$$$$
