
     RDKit          3D

 27 28  0  0  0  0  0  0  0  0999 V2000
   38.2500   23.6500   34.5660 C   0  0  0  0  0  0  0  0  0  0  0  0
   37.5850   24.2730   36.9090 C   0  0  0  0  0  0  0  0  0  0  0  0
   38.4240   23.6240   36.0170 C   0  0  0  0  0  0  0  0  0  0  0  0
   39.4960   22.9060   36.5700 C   0  0  0  0  0  0  0  0  0  0  0  0
   39.6650   22.8740   37.9070 N   0  0  0  0  0  0  0  0  0  0  0  0
   38.8250   23.5210   38.7470 C   0  0  0  0  0  0  0  0  0  0  0  0
   37.7870   24.2190   38.2510 N   0  0  0  0  0  0  0  0  0  0  0  0
   40.4400   22.1820   35.6360 C   0  0  0  0  0  0  0  0  0  0  0  0
   38.2430   24.9480   33.8970 C   0  0  0  0  0  0  0  0  0  0  0  0
   37.2160   25.0200   32.8080 C   0  0  0  0  0  0  0  0  0  0  0  0
   36.7960   23.8400   32.2350 C   0  0  0  0  0  0  0  0  0  0  0  0
   35.8580   23.8840   31.2360 C   0  0  0  0  0  0  0  0  0  0  0  0
   35.3690   25.0640   30.8370 N   0  0  0  0  0  0  0  0  0  0  0  0
   35.7690   26.2130   31.3870 C   0  0  0  0  0  0  0  0  0  0  0  0
   36.6950   26.1600   32.3700 N   0  0  0  0  0  0  0  0  0  0  0  0
   39.0697   23.0614   34.1282 H   0  0  0  0  0  0  0  0  0  0  0  0
   37.2366   23.2538   34.4049 H   0  0  0  0  0  0  0  0  0  0  0  0
   36.7319   24.8477   36.5193 H   0  0  0  0  0  0  0  0  0  0  0  0
   38.9902   23.4766   39.8336 H   0  0  0  0  0  0  0  0  0  0  0  0
   41.1770   21.6167   36.2253 H   0  0  0  0  0  0  0  0  0  0  0  0
   39.8682   21.4887   35.0017 H   0  0  0  0  0  0  0  0  0  0  0  0
   40.9613   22.9140   35.0017 H   0  0  0  0  0  0  0  0  0  0  0  0
   38.0253   25.7284   34.6410 H   0  0  0  0  0  0  0  0  0  0  0  0
   39.2317   25.0958   33.4380 H   0  0  0  0  0  0  0  0  0  0  0  0
   37.2067   22.8774   32.5736 H   0  0  0  0  0  0  0  0  0  0  0  0
   35.5090   22.9535   30.7646 H   0  0  0  0  0  0  0  0  0  0  0  0
   35.3566   27.1754   31.0497 H   0  0  0  0  0  0  0  0  0  0  0  0
  1  3  1  0
  2  7  2  0
  3  4  2  0
  3  2  1  0
  4  5  1  0
  5  6  2  0
  7  6  1  0
  8  4  1  0
  9  1  1  0
 10  9  1  0
 11 10  2  0
 12 11  1  0
 13 12  2  0
 13 14  1  0
 14 15  2  0
 15 10  1  0
  1 16  1  0
  1 17  1  0
  2 18  1  0
  6 19  1  0
  8 20  1  0
  8 21  1  0
  8 22  1  0
  9 23  1  0
  9 24  1  0
 11 25  1  0
 12 26  1  0
 14 27  1  0
M  ISO  8  16   8  17   8  18  14  19  14  20   8  21   8  22   8  23   8
M  ISO  4  24   8  25  14  26  14  27  14
M  END
>  <minimizedAffinity>  (1) 
-4.11552477

>  <minimizedRMSD>  (1) 
4.14714241

$$$$
