
     RDKit          3D

 25 26  0  0  0  0  0  0  0  0999 V2000
   37.6070   24.1620   36.8640 C   0  0  0  0  0  0  0  0  0  0  0  0
   38.5130   23.5030   36.0470 C   0  0  0  0  0  0  0  0  0  0  0  0
   39.5830   22.8660   36.6940 C   0  0  0  0  0  0  0  0  0  0  0  0
   39.6710   22.9270   38.0350 N   0  0  0  0  0  0  0  0  0  0  0  0
   38.7860   23.5670   38.7970 C   0  0  0  0  0  0  0  0  0  0  0  0
   37.7400   24.1940   38.2120 N   0  0  0  0  0  0  0  0  0  0  0  0
   40.6130   22.1260   35.8700 C   0  0  0  0  0  0  0  0  0  0  0  0
   38.4170   23.4310   34.5940 C   0  0  0  0  0  0  0  0  0  0  0  0
   38.1740   24.6680   33.8550 C   0  0  0  0  0  0  0  0  0  0  0  0
   37.1920   24.4140   32.7900 N   0  0  0  0  0  0  0  0  0  0  0  0
   36.4780   25.2880   32.0480 C   0  0  0  0  0  0  0  0  0  0  0  0
   35.7000   24.5850   31.1880 N   0  0  0  0  0  0  0  0  0  0  0  0
   35.9320   23.2660   31.3970 C   0  0  0  0  0  0  0  0  0  0  0  0
   36.8510   23.1810   32.3820 N   0  0  0  0  0  0  0  0  0  0  0  0
   36.7513   24.6762   36.4021 H   0  0  0  0  0  0  0  0  0  0  0  0
   38.9044   23.5855   39.8905 H   0  0  0  0  0  0  0  0  0  0  0  0
   41.3216   21.6169   36.5399 H   0  0  0  0  0  0  0  0  0  0  0  0
   40.1092   21.3820   35.2354 H   0  0  0  0  0  0  0  0  0  0  0  0
   41.1573   22.8408   35.2354 H   0  0  0  0  0  0  0  0  0  0  0  0
   39.3647   23.0117   34.2251 H   0  0  0  0  0  0  0  0  0  0  0  0
   37.5186   22.8234   34.4104 H   0  0  0  0  0  0  0  0  0  0  0  0
   37.7827   25.4344   34.5402 H   0  0  0  0  0  0  0  0  0  0  0  0
   39.1157   25.0223   33.4105 H   0  0  0  0  0  0  0  0  0  0  0  0
   36.5204   26.3843   32.1278 H   0  0  0  0  0  0  0  0  0  0  0  0
   35.4614   22.4257   30.8656 H   0  0  0  0  0  0  0  0  0  0  0  0
  1  6  2  0
  2  3  2  0
  2  1  1  0
  3  4  1  0
  4  5  2  0
  6  5  1  0
  7  3  1  0
  8  2  1  0
  9  8  1  0
 10  9  1  0
 11 10  1  0
 12 13  1  0
 12 11  2  0
 13 14  2  0
 14 10  1  0
  1 15  1  0
  5 16  1  0
  7 17  1  0
  7 18  1  0
  7 19  1  0
  8 20  1  0
  8 21  1  0
  9 22  1  0
  9 23  1  0
 11 24  1  0
 13 25  1  0
M  ISO  8  15  14  16  14  17   8  18   8  19   8  20   8  21   8  22   8
M  ISO  3  23   8  24  14  25  14
M  END
>  <minimizedAffinity>  (1) 
-3.75952339

>  <minimizedRMSD>  (1) 
3.54929638

$$$$
