
     RDKit          3D

 26 27  0  0  0  0  0  0  0  0999 V2000
   37.9470   24.4980   36.7980 C   0  0  0  0  0  0  0  0  0  0  0  0
   38.8710   23.7960   36.0430 C   0  0  0  0  0  0  0  0  0  0  0  0
   39.7270   22.9580   36.7640 C   0  0  0  0  0  0  0  0  0  0  0  0
   39.6010   22.8880   38.1040 N   0  0  0  0  0  0  0  0  0  0  0  0
   38.6970   23.5820   38.7960 C   0  0  0  0  0  0  0  0  0  0  0  0
   37.8660   24.3910   38.1390 N   0  0  0  0  0  0  0  0  0  0  0  0
   40.7660   22.1490   36.0350 C   0  0  0  0  0  0  0  0  0  0  0  0
   39.0070   23.8670   34.5900 C   0  0  0  0  0  0  0  0  0  0  0  0
   39.6780   25.0510   34.0380 C   0  0  0  0  0  0  0  0  0  0  0  0
   38.6740   25.9440   33.3800 C   0  0  0  0  0  0  0  0  0  0  0  0
   38.8190   27.2060   32.8000 C   0  0  0  0  0  0  0  0  0  0  0  0
   37.5910   27.5940   32.3370 C   0  0  0  0  0  0  0  0  0  0  0  0
   36.7320   26.5780   32.6390 C   0  0  0  0  0  0  0  0  0  0  0  0
   37.4020   25.6490   33.2400 O   0  0  0  0  0  0  0  0  0  0  0  0
   37.2486   25.1724   36.2809 H   0  0  0  0  0  0  0  0  0  0  0  0
   38.6380   23.4885   39.8904 H   0  0  0  0  0  0  0  0  0  0  0  0
   41.4154   21.6433   36.7647 H   0  0  0  0  0  0  0  0  0  0  0  0
   40.2692   21.3976   35.4037 H   0  0  0  0  0  0  0  0  0  0  0  0
   41.3727   22.8149   35.4037 H   0  0  0  0  0  0  0  0  0  0  0  0
   39.5760   22.9828   34.2668 H   0  0  0  0  0  0  0  0  0  0  0  0
   37.9761   23.9210   34.2100 H   0  0  0  0  0  0  0  0  0  0  0  0
   40.1771   25.5995   34.8504 H   0  0  0  0  0  0  0  0  0  0  0  0
   40.4221   24.7317   33.2934 H   0  0  0  0  0  0  0  0  0  0  0  0
   39.7521   27.7841   32.7282 H   0  0  0  0  0  0  0  0  0  0  0  0
   37.3458   28.5358   31.8243 H   0  0  0  0  0  0  0  0  0  0  0  0
   35.6562   26.5532   32.4109 H   0  0  0  0  0  0  0  0  0  0  0  0
  1  6  2  0
  2  3  2  0
  2  1  1  0
  3  4  1  0
  4  5  2  0
  6  5  1  0
  7  3  1  0
  8  2  1  0
  9  8  1  0
 10  9  1  0
 11 10  2  0
 12 13  2  0
 12 11  1  0
 13 14  1  0
 14 10  1  0
  1 15  1  0
  5 16  1  0
  7 17  1  0
  7 18  1  0
  7 19  1  0
  8 20  1  0
  8 21  1  0
  9 22  1  0
  9 23  1  0
 11 24  1  0
 12 25  1  0
 13 26  1  0
M  ISO  8  15  14  16  14  17   8  18   8  19   8  20   8  21   8  22   8
M  ISO  4  23   8  24  14  25  14  26  14
M  END
>  <minimizedAffinity>  (1) 
-3.65348482

>  <minimizedRMSD>  (1) 
3.71191192

$$$$
