
     RDKit          3D

 35 37  0  0  0  0  0  0  0  0999 V2000
   41.7760   24.4030   34.9320 C   0  0  0  0  0  0  0  0  0  0  0  0
   43.0430   24.2270   35.6590 C   0  0  0  0  0  0  0  0  0  0  0  0
   43.6870   23.3730   36.4560 N   0  0  0  0  0  0  0  0  0  0  0  0
   44.8470   23.8070   36.7940 O   0  0  0  0  0  0  0  0  0  0  0  0
   45.0180   24.9690   36.2330 C   0  0  0  0  0  0  0  0  0  0  0  0
   43.9310   25.2520   35.5320 N   0  0  0  0  0  0  0  0  0  0  0  0
   46.2110   25.7650   36.3870 N   0  0  0  0  0  0  0  0  0  0  0  0
   46.6330   26.5460   35.3740 C   0  0  0  0  0  0  0  0  0  0  0  0
   47.7830   27.3140   35.5170 C   0  0  0  0  0  0  0  0  0  0  0  0
   48.4650   27.2530   36.7070 C   0  0  0  0  0  0  0  0  0  0  0  0
   49.6390   28.0500   36.8290 N   0  0  0  0  0  0  0  0  0  0  0  0
   48.0050   26.4600   37.6880 N   0  0  0  0  0  0  0  0  0  0  0  0
   46.8870   25.7120   37.5530 C   0  0  0  0  0  0  0  0  0  0  0  0
   46.4520   24.9660   38.4700 O   0  0  0  0  0  0  0  0  0  0  0  0
   40.7520   23.3920   35.1490 C   0  0  0  0  0  0  0  0  0  0  0  0
   38.7430   24.5480   36.1040 C   0  0  0  0  0  0  0  0  0  0  0  0
   39.7710   23.6150   36.1930 C   0  0  0  0  0  0  0  0  0  0  0  0
   39.8290   22.8710   37.3790 C   0  0  0  0  0  0  0  0  0  0  0  0
   38.8820   23.1320   38.3160 N   0  0  0  0  0  0  0  0  0  0  0  0
   37.9190   24.0260   38.1980 C   0  0  0  0  0  0  0  0  0  0  0  0
   37.8430   24.7470   37.0760 N   0  0  0  0  0  0  0  0  0  0  0  0
   40.8880   21.8480   37.5680 C   0  0  0  0  0  0  0  0  0  0  0  0
   42.0079   24.4171   33.8568 H   0  0  0  0  0  0  0  0  0  0  0  0
   41.3465   25.3377   35.3218 H   0  0  0  0  0  0  0  0  0  0  0  0
   46.0665   26.5762   34.4316 H   0  0  0  0  0  0  0  0  0  0  0  0
   48.1379   27.9550   34.6966 H   0  0  0  0  0  0  0  0  0  0  0  0
   50.1825   28.0358   37.7038 H   0  0  0  0  0  0  0  0  0  0  0  0
   49.9446   28.6406   36.0424 H   0  0  0  0  0  0  0  0  0  0  0  0
   40.2007   23.2799   34.2038 H   0  0  0  0  0  0  0  0  0  0  0  0
   41.3127   22.5092   35.4900 H   0  0  0  0  0  0  0  0  0  0  0  0
   38.6652   25.1532   35.1888 H   0  0  0  0  0  0  0  0  0  0  0  0
   37.1914   24.1751   39.0094 H   0  0  0  0  0  0  0  0  0  0  0  0
   41.0546   21.6871   38.6433 H   0  0  0  0  0  0  0  0  0  0  0  0
   40.5730   20.9035   37.1004 H   0  0  0  0  0  0  0  0  0  0  0  0
   41.8211   22.1954   37.1004 H   0  0  0  0  0  0  0  0  0  0  0  0
  1 15  1  0
  1  2  1  0
  2  3  2  0
  3  4  1  0
  5  7  1  0
  5  4  1  0
  6  2  1  0
  6  5  2  0
  7 13  1  0
  8  9  2  0
  8  7  1  0
  9 10  1  0
 10 11  1  0
 10 12  2  0
 13 12  1  0
 13 14  2  0
 15 17  1  0
 16 17  2  0
 16 21  1  0
 17 18  1  0
 18 22  1  0
 18 19  2  0
 20 19  1  0
 21 20  2  0
  1 23  1  0
  1 24  1  0
  8 25  1  0
  9 26  1  0
 11 27  1  0
 11 28  1  0
 15 29  1  0
 15 30  1  0
 16 31  1  0
 20 32  1  0
 22 33  1  0
 22 34  1  0
 22 35  1  0
M  ISO  8  23   8  24   8  25  14  26  14  29   8  30   8  31  14  32  14
M  ISO  3  33   8  34   8  35   8
M  END
>  <minimizedAffinity>  (1) 
-5.18987322

>  <minimizedRMSD>  (1) 
0.672995985

$$$$
