
     RDKit          3D

 32 34  0  0  0  0  0  0  0  0999 V2000
   40.2250   23.2590   34.9930 C   0  0  0  0  0  0  0  0  0  0  0  0
   38.3910   24.4050   36.2580 C   0  0  0  0  0  0  0  0  0  0  0  0
   39.4670   23.5260   36.2060 C   0  0  0  0  0  0  0  0  0  0  0  0
   39.8150   22.8850   37.3860 C   0  0  0  0  0  0  0  0  0  0  0  0
   39.0700   23.1780   38.4930 N   0  0  0  0  0  0  0  0  0  0  0  0
   38.0520   24.0180   38.5110 C   0  0  0  0  0  0  0  0  0  0  0  0
   37.7010   24.6420   37.3910 N   0  0  0  0  0  0  0  0  0  0  0  0
   40.9470   21.9250   37.4320 C   0  0  0  0  0  0  0  0  0  0  0  0
   41.0170   24.3330   34.4140 C   0  0  0  0  0  0  0  0  0  0  0  0
   42.4760   24.2390   34.5670 C   0  0  0  0  0  0  0  0  0  0  0  0
   43.5830   23.9620   33.8840 N   0  0  0  0  0  0  0  0  0  0  0  0
   44.6400   24.0510   34.6070 O   0  0  0  0  0  0  0  0  0  0  0  0
   44.2730   24.3960   35.8090 C   0  0  0  0  0  0  0  0  0  0  0  0
   42.9550   24.5160   35.8030 N   0  0  0  0  0  0  0  0  0  0  0  0
   45.2260   24.5940   36.9140 C   0  0  0  0  0  0  0  0  0  0  0  0
   44.8320   25.3520   37.9980 C   0  0  0  0  0  0  0  0  0  0  0  0
   45.7500   25.5250   39.0280 C   0  0  0  0  0  0  0  0  0  0  0  0
   46.9700   24.9660   38.9510 N   0  0  0  0  0  0  0  0  0  0  0  0
   47.3320   24.2290   37.8830 C   0  0  0  0  0  0  0  0  0  0  0  0
   46.4670   24.0300   36.8440 N   0  0  0  0  0  0  0  0  0  0  0  0
   40.9153   22.4326   35.2178 H   0  0  0  0  0  0  0  0  0  0  0  0
   39.4539   23.0570   34.2350 H   0  0  0  0  0  0  0  0  0  0  0  0
   38.0910   24.9277   35.3378 H   0  0  0  0  0  0  0  0  0  0  0  0
   37.4991   24.2000   39.4444 H   0  0  0  0  0  0  0  0  0  0  0  0
   41.2020   21.7087   38.4800 H   0  0  0  0  0  0  0  0  0  0  0  0
   40.6579   20.9926   36.9251 H   0  0  0  0  0  0  0  0  0  0  0  0
   41.8197   22.3626   36.9251 H   0  0  0  0  0  0  0  0  0  0  0  0
   40.6935   25.2743   34.8822 H   0  0  0  0  0  0  0  0  0  0  0  0
   40.8372   24.2705   33.3306 H   0  0  0  0  0  0  0  0  0  0  0  0
   43.8295   25.8023   38.0454 H   0  0  0  0  0  0  0  0  0  0  0  0
   45.4764   26.1223   39.9103 H   0  0  0  0  0  0  0  0  0  0  0  0
   48.3364   23.7818   37.8469 H   0  0  0  0  0  0  0  0  0  0  0  0
  1  3  1  0
  2  7  2  0
  3  2  1  0
  3  4  2  0
  4  8  1  0
  4  5  1  0
  5  6  2  0
  7  6  1  0
  9 10  1  0
  9  1  1  0
 10 14  1  0
 11 10  2  0
 11 12  1  0
 12 13  1  0
 13 15  1  0
 14 13  2  0
 15 16  2  0
 16 17  1  0
 18 17  2  0
 19 18  1  0
 20 15  1  0
 20 19  2  0
  1 21  1  0
  1 22  1  0
  2 23  1  0
  6 24  1  0
  8 25  1  0
  8 26  1  0
  8 27  1  0
  9 28  1  0
  9 29  1  0
 16 30  1  0
 17 31  1  0
 19 32  1  0
M  ISO  8  21   8  22   8  23  14  24  14  25   8  26   8  27   8  28   8
M  ISO  4  29   8  30  14  31  14  32  14
M  END
>  <minimizedAffinity>  (1) 
-4.8173089

>  <minimizedRMSD>  (1) 
2.18830585

$$$$
