
     RDKit          3D

 37 39  0  0  0  0  0  0  0  0999 V2000
   41.9580   24.5030   34.9170 C   0  0  0  0  0  0  0  0  0  0  0  0
   43.1670   24.4830   35.7560 C   0  0  0  0  0  0  0  0  0  0  0  0
   43.7040   23.8590   36.8070 N   0  0  0  0  0  0  0  0  0  0  0  0
   44.8690   24.3160   37.0930 O   0  0  0  0  0  0  0  0  0  0  0  0
   45.1590   25.2550   36.2550 C   0  0  0  0  0  0  0  0  0  0  0  0
   44.1320   25.3730   35.4310 N   0  0  0  0  0  0  0  0  0  0  0  0
   48.7410   27.5470   36.1020 C   0  0  0  0  0  0  0  0  0  0  0  0
   47.8370   27.6100   35.0370 C   0  0  0  0  0  0  0  0  0  0  0  0
   46.7060   26.8380   35.1680 C   0  0  0  0  0  0  0  0  0  0  0  0
   46.4140   26.0300   36.2500 C   0  0  0  0  0  0  0  0  0  0  0  0
   47.2960   25.9720   37.2830 C   0  0  0  0  0  0  0  0  0  0  0  0
   48.4600   26.7410   37.1910 C   0  0  0  0  0  0  0  0  0  0  0  0
   50.2200   28.4820   36.0610 S   0  0  0  0  0  0  0  0  0  0  0  0
   49.8600   29.9310   36.1650 O   0  0  0  0  0  0  0  0  0  0  0  0
   51.0850   28.0380   37.1830 O   0  0  0  0  0  0  0  0  0  0  0  0
   41.0050   23.4300   35.1330 C   0  0  0  0  0  0  0  0  0  0  0  0
   38.9350   24.5670   35.9850 C   0  0  0  0  0  0  0  0  0  0  0  0
   39.9470   23.6320   36.1250 C   0  0  0  0  0  0  0  0  0  0  0  0
   39.9450   22.8600   37.2730 C   0  0  0  0  0  0  0  0  0  0  0  0
   38.9370   23.0870   38.1770 N   0  0  0  0  0  0  0  0  0  0  0  0
   37.9900   23.9880   38.0090 C   0  0  0  0  0  0  0  0  0  0  0  0
   37.9720   24.7400   36.9160 N   0  0  0  0  0  0  0  0  0  0  0  0
   40.9840   21.8270   37.5180 C   0  0  0  0  0  0  0  0  0  0  0  0
   42.2793   24.4587   33.8659 H   0  0  0  0  0  0  0  0  0  0  0  0
   41.4264   25.4258   35.1923 H   0  0  0  0  0  0  0  0  0  0  0  0
   48.0186   28.2366   34.1514 H   0  0  0  0  0  0  0  0  0  0  0  0
   45.9759   26.8662   34.3457 H   0  0  0  0  0  0  0  0  0  0  0  0
   47.1002   25.3408   38.1623 H   0  0  0  0  0  0  0  0  0  0  0  0
   49.1829   26.7037   38.0193 H   0  0  0  0  0  0  0  0  0  0  0  0
   50.9120   28.2964   34.8933 H   0  0  0  0  0  0  0  0  0  0  0  0
   40.5141   23.2311   34.1689 H   0  0  0  0  0  0  0  0  0  0  0  0
   41.6095   22.6078   35.5436 H   0  0  0  0  0  0  0  0  0  0  0  0
   38.9147   25.1929   35.0806 H   0  0  0  0  0  0  0  0  0  0  0  0
   37.2128   24.1169   38.7766 H   0  0  0  0  0  0  0  0  0  0  0  0
   41.1192   21.6926   38.6014 H   0  0  0  0  0  0  0  0  0  0  0  0
   40.6679   20.8748   37.0670 H   0  0  0  0  0  0  0  0  0  0  0  0
   41.9344   22.1486   37.0670 H   0  0  0  0  0  0  0  0  0  0  0  0
  1 16  1  0
  1  2  1  0
  2  3  2  0
  3  4  1  0
  5  4  1  0
  6  2  1  0
  6  5  2  0
  7 12  2  0
  8  9  2  0
  8  7  1  0
  9 10  1  0
 10  5  1  0
 10 11  2  0
 12 11  1  0
 13  7  1  0
 13 14  2  0
 13 15  2  0
 16 18  1  0
 17 18  2  0
 17 22  1  0
 18 19  1  0
 19 23  1  0
 19 20  2  0
 21 20  1  0
 22 21  2  0
  1 24  1  0
  1 25  1  0
  8 26  1  0
  9 27  1  0
 11 28  1  0
 12 29  1  0
 13 30  1  0
 16 31  1  0
 16 32  1  0
 17 33  1  0
 21 34  1  0
 23 35  1  0
 23 36  1  0
 23 37  1  0
M  ISO  8  24   8  25   8  26  14  27  14  28  14  29  14  30  11  31   8
M  ISO  6  32   8  33  14  34  14  35   8  36   8  37   8
M  END
>  <minimizedAffinity>  (1) 
-4.78419971

>  <minimizedRMSD>  (1) 
0.88457638

$$$$
