
     RDKit          3D

 31 33  0  0  0  0  0  0  0  0999 V2000
   41.0250   23.5750   35.1810 C   0  0  0  0  0  0  0  0  0  0  0  0
   38.8840   24.6290   35.9500 C   0  0  0  0  0  0  0  0  0  0  0  0
   39.9200   23.7160   36.1170 C   0  0  0  0  0  0  0  0  0  0  0  0
   39.8720   22.9150   37.2480 C   0  0  0  0  0  0  0  0  0  0  0  0
   38.8190   23.0880   38.0970 N   0  0  0  0  0  0  0  0  0  0  0  0
   37.8470   23.9620   37.9160 C   0  0  0  0  0  0  0  0  0  0  0  0
   37.8680   24.7480   36.8320 N   0  0  0  0  0  0  0  0  0  0  0  0
   40.9310   21.9050   37.5110 C   0  0  0  0  0  0  0  0  0  0  0  0
   41.9550   24.6880   35.0330 C   0  0  0  0  0  0  0  0  0  0  0  0
   43.2040   24.6080   35.8070 C   0  0  0  0  0  0  0  0  0  0  0  0
   43.7800   23.9310   36.8000 N   0  0  0  0  0  0  0  0  0  0  0  0
   44.9710   24.3560   37.0380 O   0  0  0  0  0  0  0  0  0  0  0  0
   45.2290   25.3250   36.2190 C   0  0  0  0  0  0  0  0  0  0  0  0
   44.1680   25.4980   35.4570 N   0  0  0  0  0  0  0  0  0  0  0  0
   46.4950   26.0180   36.2340 N   0  0  0  0  0  0  0  0  0  0  0  0
   47.1550   25.9310   37.4000 N   0  0  0  0  0  0  0  0  0  0  0  0
   48.2900   26.6130   37.2560 C   0  0  0  0  0  0  0  0  0  0  0  0
   48.3530   27.1380   35.9850 C   0  0  0  0  0  0  0  0  0  0  0  0
   47.1870   26.7460   35.3360 C   0  0  0  0  0  0  0  0  0  0  0  0
   41.6119   22.7011   35.5001 H   0  0  0  0  0  0  0  0  0  0  0  0
   40.5380   23.4972   34.1977 H   0  0  0  0  0  0  0  0  0  0  0  0
   38.8925   25.2805   35.0637 H   0  0  0  0  0  0  0  0  0  0  0  0
   37.0291   24.0439   38.6470 H   0  0  0  0  0  0  0  0  0  0  0  0
   41.0594   21.7825   38.5966 H   0  0  0  0  0  0  0  0  0  0  0  0
   40.6387   20.9427   37.0655 H   0  0  0  0  0  0  0  0  0  0  0  0
   41.8784   22.2426   37.0655 H   0  0  0  0  0  0  0  0  0  0  0  0
   42.2252   24.7584   33.9690 H   0  0  0  0  0  0  0  0  0  0  0  0
   41.4233   25.5659   35.4287 H   0  0  0  0  0  0  0  0  0  0  0  0
   49.0586   26.7375   38.0330 H   0  0  0  0  0  0  0  0  0  0  0  0
   49.1662   27.7481   35.5649 H   0  0  0  0  0  0  0  0  0  0  0  0
   46.8910   26.9816   34.3031 H   0  0  0  0  0  0  0  0  0  0  0  0
  1  3  1  0
  2  3  2  0
  2  7  1  0
  3  4  1  0
  4  8  1  0
  4  5  2  0
  6  5  1  0
  7  6  2  0
  9  1  1  0
  9 10  1  0
 10 11  2  0
 11 12  1  0
 13 15  1  0
 13 12  1  0
 14 10  1  0
 14 13  2  0
 15 16  1  0
 17 16  2  0
 18 17  1  0
 19 18  2  0
 19 15  1  0
  1 20  1  0
  1 21  1  0
  2 22  1  0
  6 23  1  0
  8 24  1  0
  8 25  1  0
  8 26  1  0
  9 27  1  0
  9 28  1  0
 17 29  1  0
 18 30  1  0
 19 31  1  0
M  ISO  8  20   8  21   8  22  14  23  14  24   8  25   8  26   8  27   8
M  ISO  4  28   8  29  14  30  14  31  14
M  END
>  <minimizedAffinity>  (1) 
-4.6899004

>  <minimizedRMSD>  (1) 
0.551411748

$$$$
