
     RDKit          3D

 38 40  0  0  0  0  0  0  0  0999 V2000
   40.2630   23.0840   34.9980 C   0  0  0  0  0  0  0  0  0  0  0  0
   38.3910   24.2510   36.1980 C   0  0  0  0  0  0  0  0  0  0  0  0
   39.4790   23.4180   36.1700 C   0  0  0  0  0  0  0  0  0  0  0  0
   39.8420   22.8420   37.3740 C   0  0  0  0  0  0  0  0  0  0  0  0
   39.1000   23.1380   38.4980 N   0  0  0  0  0  0  0  0  0  0  0  0
   38.0420   23.9630   38.4620 C   0  0  0  0  0  0  0  0  0  0  0  0
   37.6870   24.5230   37.3010 N   0  0  0  0  0  0  0  0  0  0  0  0
   40.9690   21.9170   37.5260 C   0  0  0  0  0  0  0  0  0  0  0  0
   41.1940   24.0850   34.4850 C   0  0  0  0  0  0  0  0  0  0  0  0
   40.8990   24.6120   33.1460 C   0  0  0  0  0  0  0  0  0  0  0  0
   41.3960   24.6750   31.9030 N   0  0  0  0  0  0  0  0  0  0  0  0
   40.6090   25.3300   31.1090 O   0  0  0  0  0  0  0  0  0  0  0  0
   39.5900   25.7110   31.7920 C   0  0  0  0  0  0  0  0  0  0  0  0
   39.7190   25.3000   33.0350 N   0  0  0  0  0  0  0  0  0  0  0  0
   38.4950   26.4730   31.2370 N   0  0  0  0  0  0  0  0  0  0  0  0
   37.2110   25.8300   30.9640 C   0  0  0  0  0  0  0  0  0  0  0  0
   36.0890   26.8360   30.9890 C   0  0  0  0  0  0  0  0  0  0  0  0
   36.3430   27.8690   30.0320 N   0  0  0  0  0  0  0  0  0  0  0  0
   37.7150   28.1150   29.7290 C   0  0  0  0  0  0  0  0  0  0  0  0
   38.6200   27.8800   30.9380 C   0  0  0  0  0  0  0  0  0  0  0  0
   40.8504   22.1868   35.2428 H   0  0  0  0  0  0  0  0  0  0  0  0
   39.5194   22.9656   34.1961 H   0  0  0  0  0  0  0  0  0  0  0  0
   38.0783   24.7244   35.2556 H   0  0  0  0  0  0  0  0  0  0  0  0
   37.4726   24.1763   39.3786 H   0  0  0  0  0  0  0  0  0  0  0  0
   41.1678   21.7539   38.5955 H   0  0  0  0  0  0  0  0  0  0  0  0
   40.7226   20.9573   37.0483 H   0  0  0  0  0  0  0  0  0  0  0  0
   41.8623   22.3458   37.0483 H   0  0  0  0  0  0  0  0  0  0  0  0
   41.1979   24.9320   35.1868 H   0  0  0  0  0  0  0  0  0  0  0  0
   42.1623   23.5709   34.3948 H   0  0  0  0  0  0  0  0  0  0  0  0
   37.0231   25.0620   31.7288 H   0  0  0  0  0  0  0  0  0  0  0  0
   37.2520   25.3744   29.9636 H   0  0  0  0  0  0  0  0  0  0  0  0
   35.1423   26.3335   30.7414 H   0  0  0  0  0  0  0  0  0  0  0  0
   36.0213   27.2798   31.9932 H   0  0  0  0  0  0  0  0  0  0  0  0
   35.8678   27.6107   29.1554 H   0  0  0  0  0  0  0  0  0  0  0  0
   38.0255   27.4413   28.9168 H   0  0  0  0  0  0  0  0  0  0  0  0
   37.8132   29.1694   29.4312 H   0  0  0  0  0  0  0  0  0  0  0  0
   39.6627   28.1313   30.6939 H   0  0  0  0  0  0  0  0  0  0  0  0
   38.3341   28.5091   31.7939 H   0  0  0  0  0  0  0  0  0  0  0  0
  1  3  1  0
  2  7  2  0
  3  2  1  0
  3  4  2  0
  4  8  1  0
  4  5  1  0
  6  5  2  0
  7  6  1  0
  9  1  1  0
 10  9  1  0
 11 10  2  0
 12 13  1  0
 12 11  1  0
 13 14  2  0
 14 10  1  0
 15 13  1  0
 16 17  1  0
 16 15  1  0
 18 17  1  0
 19 18  1  0
 19 20  1  0
 20 15  1  0
  1 21  1  0
  1 22  1  0
  2 23  1  0
  6 24  1  0
  8 25  1  0
  8 26  1  0
  8 27  1  0
  9 28  1  0
  9 29  1  0
 16 30  1  0
 16 31  1  0
 17 32  1  0
 17 33  1  0
 18 34  1  0
 19 35  1  0
 19 36  1  0
 20 37  1  0
 20 38  1  0
M  ISO  8  21   8  22   8  23  14  24  14  25   8  26   8  27   8  28   8
M  ISO  8  29   8  30  13  31  13  32  13  33  13  34   5  35  13  36  13
M  ISO  2  37  13  38  13
M  END
>  <minimizedAffinity>  (1) 
-4.68699169

>  <minimizedRMSD>  (1) 
7.01895905

$$$$
