
     RDKit          3D

 31 33  0  0  0  0  0  0  0  0999 V2000
   41.1000   23.6090   35.1730 C   0  0  0  0  0  0  0  0  0  0  0  0
   38.9270   24.6440   35.8950 C   0  0  0  0  0  0  0  0  0  0  0  0
   39.9630   23.7350   36.0780 C   0  0  0  0  0  0  0  0  0  0  0  0
   39.8890   22.9170   37.1930 C   0  0  0  0  0  0  0  0  0  0  0  0
   38.8100   23.0730   38.0140 N   0  0  0  0  0  0  0  0  0  0  0  0
   37.8370   23.9460   37.8170 C   0  0  0  0  0  0  0  0  0  0  0  0
   37.8920   24.7490   36.7390 N   0  0  0  0  0  0  0  0  0  0  0  0
   40.9400   21.9070   37.4790 C   0  0  0  0  0  0  0  0  0  0  0  0
   42.0470   24.7080   35.1020 C   0  0  0  0  0  0  0  0  0  0  0  0
   43.3010   24.5460   35.8530 C   0  0  0  0  0  0  0  0  0  0  0  0
   43.8800   23.7560   36.7550 N   0  0  0  0  0  0  0  0  0  0  0  0
   45.0660   24.1380   37.0530 O   0  0  0  0  0  0  0  0  0  0  0  0
   45.3300   25.2080   36.3570 C   0  0  0  0  0  0  0  0  0  0  0  0
   44.2590   25.4710   35.6170 N   0  0  0  0  0  0  0  0  0  0  0  0
   46.5660   25.9440   36.4060 N   0  0  0  0  0  0  0  0  0  0  0  0
   47.1310   26.6290   35.4000 C   0  0  0  0  0  0  0  0  0  0  0  0
   48.3140   27.1820   35.8950 C   0  0  0  0  0  0  0  0  0  0  0  0
   48.4370   26.8170   37.1890 N   0  0  0  0  0  0  0  0  0  0  0  0
   47.3580   26.0590   37.4900 C   0  0  0  0  0  0  0  0  0  0  0  0
   41.6618   22.7138   35.4781 H   0  0  0  0  0  0  0  0  0  0  0  0
   40.6476   23.5745   34.1709 H   0  0  0  0  0  0  0  0  0  0  0  0
   38.9586   25.3068   35.0177 H   0  0  0  0  0  0  0  0  0  0  0  0
   36.9962   24.0147   38.5229 H   0  0  0  0  0  0  0  0  0  0  0  0
   41.0555   21.7960   38.5673 H   0  0  0  0  0  0  0  0  0  0  0  0
   40.6491   20.9409   37.0408 H   0  0  0  0  0  0  0  0  0  0  0  0
   41.8937   22.2361   37.0408 H   0  0  0  0  0  0  0  0  0  0  0  0
   42.3084   24.8555   34.0437 H   0  0  0  0  0  0  0  0  0  0  0  0
   41.5362   25.5619   35.5710 H   0  0  0  0  0  0  0  0  0  0  0  0
   46.7369   26.7349   34.3785 H   0  0  0  0  0  0  0  0  0  0  0  0
   49.0218   27.8059   35.3295 H   0  0  0  0  0  0  0  0  0  0  0  0
   47.1573   25.6049   38.4716 H   0  0  0  0  0  0  0  0  0  0  0  0
  1  3  1  0
  2  3  2  0
  2  7  1  0
  3  4  1  0
  4  8  1  0
  4  5  2  0
  6  5  1  0
  7  6  2  0
  9  1  1  0
  9 10  1  0
 10 11  2  0
 11 12  1  0
 13 15  1  0
 13 12  1  0
 14 10  1  0
 14 13  2  0
 15 19  1  0
 16 17  2  0
 16 15  1  0
 17 18  1  0
 18 19  2  0
  1 20  1  0
  1 21  1  0
  2 22  1  0
  6 23  1  0
  8 24  1  0
  8 25  1  0
  8 26  1  0
  9 27  1  0
  9 28  1  0
 16 29  1  0
 17 30  1  0
 19 31  1  0
M  ISO  8  20   8  21   8  22  14  23  14  24   8  25   8  26   8  27   8
M  ISO  4  28   8  29  14  30  14  31  14
M  END
>  <minimizedAffinity>  (1) 
-4.65080929

>  <minimizedRMSD>  (1) 
0.588580549

$$$$
