
     RDKit          3D

 31 33  0  0  0  0  0  0  0  0999 V2000
   41.0740   23.5610   35.1760 C   0  0  0  0  0  0  0  0  0  0  0  0
   38.9340   24.6360   35.9880 C   0  0  0  0  0  0  0  0  0  0  0  0
   39.9770   23.7340   36.1020 C   0  0  0  0  0  0  0  0  0  0  0  0
   39.9440   22.9170   37.2220 C   0  0  0  0  0  0  0  0  0  0  0  0
   38.8910   23.0730   38.1060 N   0  0  0  0  0  0  0  0  0  0  0  0
   37.9220   23.9550   37.9440 C   0  0  0  0  0  0  0  0  0  0  0  0
   37.9360   24.7580   36.8640 N   0  0  0  0  0  0  0  0  0  0  0  0
   40.9590   21.8780   37.4800 C   0  0  0  0  0  0  0  0  0  0  0  0
   42.0210   24.6600   35.0330 C   0  0  0  0  0  0  0  0  0  0  0  0
   43.2470   24.5520   35.8400 C   0  0  0  0  0  0  0  0  0  0  0  0
   43.7970   23.8480   36.8290 N   0  0  0  0  0  0  0  0  0  0  0  0
   44.9730   24.2540   37.1210 O   0  0  0  0  0  0  0  0  0  0  0  0
   45.2540   25.2500   36.3340 C   0  0  0  0  0  0  0  0  0  0  0  0
   44.2190   25.4500   35.5470 N   0  0  0  0  0  0  0  0  0  0  0  0
   46.5370   25.9920   36.3690 C   0  0  0  0  0  0  0  0  0  0  0  0
   47.4300   25.9900   37.4250 C   0  0  0  0  0  0  0  0  0  0  0  0
   48.5120   26.7980   37.0920 C   0  0  0  0  0  0  0  0  0  0  0  0
   48.2290   27.2570   35.8520 N   0  0  0  0  0  0  0  0  0  0  0  0
   47.0510   26.7710   35.4300 N   0  0  0  0  0  0  0  0  0  0  0  0
   41.6428   22.6778   35.5022 H   0  0  0  0  0  0  0  0  0  0  0  0
   40.5942   23.4780   34.1897 H   0  0  0  0  0  0  0  0  0  0  0  0
   38.9276   25.3005   35.1114 H   0  0  0  0  0  0  0  0  0  0  0  0
   37.1118   24.0327   38.6839 H   0  0  0  0  0  0  0  0  0  0  0  0
   41.0845   21.7495   38.5652 H   0  0  0  0  0  0  0  0  0  0  0  0
   40.6322   20.9273   37.0336 H   0  0  0  0  0  0  0  0  0  0  0  0
   41.9171   22.1825   37.0336 H   0  0  0  0  0  0  0  0  0  0  0  0
   42.3162   24.7168   33.9749 H   0  0  0  0  0  0  0  0  0  0  0  0
   41.4987   25.5567   35.3978 H   0  0  0  0  0  0  0  0  0  0  0  0
   47.3054   25.4412   38.3701 H   0  0  0  0  0  0  0  0  0  0  0  0
   49.4010   27.0155   37.7022 H   0  0  0  0  0  0  0  0  0  0  0  0
   48.8322   27.8903   35.3080 H   0  0  0  0  0  0  0  0  0  0  0  0
  1  3  1  0
  2  3  2  0
  2  7  1  0
  3  4  1  0
  4  8  1  0
  4  5  2  0
  6  5  1  0
  7  6  2  0
  9  1  1  0
  9 10  1  0
 10 11  2  0
 11 12  1  0
 13 15  1  0
 13 12  1  0
 14 10  1  0
 14 13  2  0
 15 16  1  0
 17 16  2  0
 18 17  1  0
 19 18  1  0
 19 15  2  0
  1 20  1  0
  1 21  1  0
  2 22  1  0
  6 23  1  0
  8 24  1  0
  8 25  1  0
  8 26  1  0
  9 27  1  0
  9 28  1  0
 16 29  1  0
 17 30  1  0
 18 31  1  0
M  ISO  8  20   8  21   8  22  14  23  14  24   8  25   8  26   8  27   8
M  ISO  4  28   8  29  14  30  14  31   9
M  END
>  <minimizedAffinity>  (1) 
-4.51346397

>  <minimizedRMSD>  (1) 
0.631138921

$$$$
