
     RDKit          3D

 36 39  0  0  0  0  0  0  0  0999 V2000
   42.1040   22.7710   32.8950 C   0  0  0  0  0  0  0  0  0  0  0  0
   43.0560   23.8010   33.0620 C   0  0  0  0  0  0  0  0  0  0  0  0
   42.8440   24.8190   31.5030 S   0  0  0  0  0  0  0  0  0  0  0  0
   41.4800   23.6200   30.9220 C   0  0  0  0  0  0  0  0  0  0  0  0
   41.4650   22.9040   31.7750 N   0  0  0  0  0  0  0  0  0  0  0  0
   40.7150   23.6850   29.6920 N   0  0  0  0  0  0  0  0  0  0  0  0
   41.2050   22.9680   28.6860 C   0  0  0  0  0  0  0  0  0  0  0  0
   40.3600   23.1440   27.6010 C   0  0  0  0  0  0  0  0  0  0  0  0
   39.3830   23.9790   28.0310 N   0  0  0  0  0  0  0  0  0  0  0  0
   39.5970   24.3130   29.3110 C   0  0  0  0  0  0  0  0  0  0  0  0
   38.8700   25.1670   30.2460 C   0  0  0  0  0  0  0  0  0  0  0  0
   37.7220   24.5700   30.7690 C   0  0  0  0  0  0  0  0  0  0  0  0
   36.9740   25.3220   31.6680 C   0  0  0  0  0  0  0  0  0  0  0  0
   37.3550   26.5880   32.0170 C   0  0  0  0  0  0  0  0  0  0  0  0
   38.5110   27.1510   31.4720 C   0  0  0  0  0  0  0  0  0  0  0  0
   39.2240   26.4100   30.6040 N   0  0  0  0  0  0  0  0  0  0  0  0
   41.9670   21.5400   34.1950 S   0  0  0  0  0  0  0  0  0  0  0  0
   40.4610   22.4030   37.7750 C   0  0  0  0  0  0  0  0  0  0  0  0
   39.3040   23.1380   37.4900 C   0  0  0  0  0  0  0  0  0  0  0  0
   39.0110   23.3540   36.1570 C   0  0  0  0  0  0  0  0  0  0  0  0
   39.8280   22.8650   35.1630 N   0  0  0  0  0  0  0  0  0  0  0  0
   40.9470   22.1510   35.5080 C   0  0  0  0  0  0  0  0  0  0  0  0
   41.2430   21.9340   36.7980 N   0  0  0  0  0  0  0  0  0  0  0  0
   38.3930   23.6860   38.5270 C   0  0  0  0  0  0  0  0  0  0  0  0
   39.1690   23.8910   39.6500 F   0  0  0  0  0  0  0  0  0  0  0  0
   37.3790   22.8330   38.8430 F   0  0  0  0  0  0  0  0  0  0  0  0
   37.9460   24.9660   38.1590 F   0  0  0  0  0  0  0  0  0  0  0  0
   43.7499   23.9650   33.8996 H   0  0  0  0  0  0  0  0  0  0  0  0
   42.1138   22.3488   28.7098 H   0  0  0  0  0  0  0  0  0  0  0  0
   40.4614   22.6989   26.6002 H   0  0  0  0  0  0  0  0  0  0  0  0
   37.4226   23.5509   30.4830 H   0  0  0  0  0  0  0  0  0  0  0  0
   36.0611   24.8916   32.1055 H   0  0  0  0  0  0  0  0  0  0  0  0
   36.7484   27.1655   32.7301 H   0  0  0  0  0  0  0  0  0  0  0  0
   38.8288   28.1684   31.7438 H   0  0  0  0  0  0  0  0  0  0  0  0
   40.7316   22.2078   38.8232 H   0  0  0  0  0  0  0  0  0  0  0  0
   38.1110   23.9255   35.8860 H   0  0  0  0  0  0  0  0  0  0  0  0
  1  2  2  0
  1 17  1  0
  3  2  1  0
  4  3  1  0
  4  5  2  0
  5  1  1  0
  6  4  1  0
  7  6  1  0
  8  9  1  0
  8  7  2  0
  9 10  2  0
 10  6  1  0
 10 11  1  0
 11 16  1  0
 11 12  2  0
 12 13  1  0
 13 14  2  0
 15 14  1  0
 16 15  2  0
 17 22  1  0
 19 18  2  0
 19 24  1  0
 20 19  1  0
 21 22  1  0
 21 20  2  0
 22 23  2  0
 23 18  1  0
 24 26  1  0
 24 25  1  0
 27 24  1  0
  2 28  1  0
  7 29  1  0
  8 30  1  0
 12 31  1  0
 13 32  1  0
 14 33  1  0
 15 34  1  0
 18 35  1  0
 20 36  1  0
M  ISO  8  28  14  29  14  30  14  31  14  32  14  33  14  34  14  35  14
M  ISO  1  36  14
M  END
>  <minimizedAffinity>  (1) 
-4.95911312

>  <minimizedRMSD>  (1) 
5.40895128

$$$$
