
     RDKit          3D

 25 26  0  0  0  0  0  0  0  0999 V2000
   40.9480   23.4240   35.1370 C   0  0  0  0  0  0  0  0  0  0  0  0
   38.8870   24.5640   36.0060 C   0  0  0  0  0  0  0  0  0  0  0  0
   39.9020   23.6350   36.1330 C   0  0  0  0  0  0  0  0  0  0  0  0
   39.9150   22.8680   37.2860 C   0  0  0  0  0  0  0  0  0  0  0  0
   38.9200   23.0960   38.2030 N   0  0  0  0  0  0  0  0  0  0  0  0
   37.9650   23.9950   38.0440 C   0  0  0  0  0  0  0  0  0  0  0  0
   37.9350   24.7410   36.9460 N   0  0  0  0  0  0  0  0  0  0  0  0
   40.9560   21.8340   37.5230 C   0  0  0  0  0  0  0  0  0  0  0  0
   41.8880   24.5030   34.8930 C   0  0  0  0  0  0  0  0  0  0  0  0
   43.1160   24.4930   35.7190 C   0  0  0  0  0  0  0  0  0  0  0  0
   43.6520   23.9260   36.7980 N   0  0  0  0  0  0  0  0  0  0  0  0
   44.8360   24.3670   37.0240 O   0  0  0  0  0  0  0  0  0  0  0  0
   45.1260   25.2370   36.1090 C   0  0  0  0  0  0  0  0  0  0  0  0
   44.1030   25.3450   35.2920 N   0  0  0  0  0  0  0  0  0  0  0  0
   46.7080   26.1130   36.0460 S   0  0  0  0  0  0  0  0  0  0  0  0
   41.5319   22.5484   35.4571 H   0  0  0  0  0  0  0  0  0  0  0  0
   40.4035   23.3157   34.1874 H   0  0  0  0  0  0  0  0  0  0  0  0
   38.8535   25.1862   35.0995 H   0  0  0  0  0  0  0  0  0  0  0  0
   37.1961   24.1252   38.8198 H   0  0  0  0  0  0  0  0  0  0  0  0
   41.0955   21.6955   38.6053 H   0  0  0  0  0  0  0  0  0  0  0  0
   40.6385   20.8834   37.0696 H   0  0  0  0  0  0  0  0  0  0  0  0
   41.9044   22.1579   37.0696 H   0  0  0  0  0  0  0  0  0  0  0  0
   42.1922   24.4520   33.8371 H   0  0  0  0  0  0  0  0  0  0  0  0
   41.3559   25.4268   35.1640 H   0  0  0  0  0  0  0  0  0  0  0  0
   47.1466   26.3559   37.3210 H   0  0  0  0  0  0  0  0  0  0  0  0
  1  3  1  0
  2  3  2  0
  2  7  1  0
  3  4  1  0
  4  8  1  0
  4  5  2  0
  6  5  1  0
  7  6  2  0
  9  1  1  0
  9 10  1  0
 10 11  2  0
 11 12  1  0
 13 12  1  0
 14 10  1  0
 14 13  2  0
 15 13  1  0
  1 16  1  0
  1 17  1  0
  2 18  1  0
  6 19  1  0
  8 20  1  0
  8 21  1  0
  8 22  1  0
  9 23  1  0
  9 24  1  0
 15 25  1  0
M  ISO  8  16   8  17   8  18  14  19  14  20   8  21   8  22   8  23   8
M  ISO  2  24   8  25  11
M  END
>  <minimizedAffinity>  (1) 
-3.86701155

>  <minimizedRMSD>  (1) 
0.303193986

$$$$
