
     RDKit          3D

 34 37  0  0  0  0  0  0  0  0999 V2000
   41.9990   23.3830   32.8240 C   0  0  0  0  0  0  0  0  0  0  0  0
   42.8320   24.4100   33.2630 C   0  0  0  0  0  0  0  0  0  0  0  0
   42.7370   25.6390   31.8530 S   0  0  0  0  0  0  0  0  0  0  0  0
   41.5580   24.4880   30.9290 C   0  0  0  0  0  0  0  0  0  0  0  0
   41.4910   23.6510   31.6560 N   0  0  0  0  0  0  0  0  0  0  0  0
   40.9540   24.7170   29.6320 N   0  0  0  0  0  0  0  0  0  0  0  0
   41.6120   24.1610   28.6030 C   0  0  0  0  0  0  0  0  0  0  0  0
   40.9040   24.4750   27.4520 C   0  0  0  0  0  0  0  0  0  0  0  0
   39.8490   25.2110   27.8560 N   0  0  0  0  0  0  0  0  0  0  0  0
   39.8720   25.3630   29.1880 C   0  0  0  0  0  0  0  0  0  0  0  0
   39.0030   26.0450   30.1220 C   0  0  0  0  0  0  0  0  0  0  0  0
   37.9940   25.6650   30.9000 C   0  0  0  0  0  0  0  0  0  0  0  0
   37.3260   26.5470   31.7110 C   0  0  0  0  0  0  0  0  0  0  0  0
   37.7900   27.8900   31.6580 C   0  0  0  0  0  0  0  0  0  0  0  0
   39.1750   27.8050   30.4320 S   0  0  0  0  0  0  0  0  0  0  0  0
   41.7830   21.9500   33.8900 S   0  0  0  0  0  0  0  0  0  0  0  0
   40.4080   22.3970   37.6140 C   0  0  0  0  0  0  0  0  0  0  0  0
   39.2730   23.2280   37.4390 C   0  0  0  0  0  0  0  0  0  0  0  0
   38.9720   23.6230   36.1510 C   0  0  0  0  0  0  0  0  0  0  0  0
   39.7490   23.2210   35.1050 N   0  0  0  0  0  0  0  0  0  0  0  0
   40.8380   22.4170   35.3280 C   0  0  0  0  0  0  0  0  0  0  0  0
   41.1450   22.0220   36.5740 N   0  0  0  0  0  0  0  0  0  0  0  0
   38.4120   23.6780   38.5620 C   0  0  0  0  0  0  0  0  0  0  0  0
   39.2460   23.8330   39.6560 F   0  0  0  0  0  0  0  0  0  0  0  0
   37.4270   22.8020   38.8740 F   0  0  0  0  0  0  0  0  0  0  0  0
   37.9420   24.9840   38.3270 F   0  0  0  0  0  0  0  0  0  0  0  0
   43.4018   24.4810   34.2012 H   0  0  0  0  0  0  0  0  0  0  0  0
   42.5371   23.5687   28.6611 H   0  0  0  0  0  0  0  0  0  0  0  0
   41.1525   24.1833   26.4209 H   0  0  0  0  0  0  0  0  0  0  0  0
   37.6849   24.6093   30.8931 H   0  0  0  0  0  0  0  0  0  0  0  0
   36.4908   26.2373   32.3564 H   0  0  0  0  0  0  0  0  0  0  0  0
   37.4173   28.7653   32.2102 H   0  0  0  0  0  0  0  0  0  0  0  0
   40.6822   22.0582   38.6240 H   0  0  0  0  0  0  0  0  0  0  0  0
   38.0991   24.2666   35.9671 H   0  0  0  0  0  0  0  0  0  0  0  0
  1  2  2  0
  1 16  1  0
  3  2  1  0
  4  5  2  0
  4  3  1  0
  5  1  1  0
  6  4  1  0
  7  6  1  0
  8  9  1  0
  8  7  2  0
  9 10  2  0
 10  6  1  0
 10 11  1  0
 11 15  1  0
 11 12  2  0
 12 13  1  0
 14 13  2  0
 15 14  1  0
 16 21  1  0
 18 17  2  0
 18 23  1  0
 19 18  1  0
 20 21  1  0
 20 19  2  0
 21 22  2  0
 22 17  1  0
 23 25  1  0
 23 24  1  0
 26 23  1  0
  2 27  1  0
  7 28  1  0
  8 29  1  0
 12 30  1  0
 13 31  1  0
 14 32  1  0
 17 33  1  0
 19 34  1  0
M  ISO  8  27  14  28  14  29  14  30  14  31  14  32  14  33  14  34  14
M  END
>  <minimizedAffinity>  (1) 
-4.76837111

>  <minimizedRMSD>  (1) 
5.37693167

$$$$
