
     RDKit          3D

 43 45  0  0  1  0  0  0  0  0999 V2000
   42.6640   23.6980   35.2220 C   0  0  0  0  0  0  0  0  0  0  0  0
   43.5520   22.7390   35.3830 N   0  0  0  0  0  0  0  0  0  0  0  0
   44.5660   23.0930   36.0990 O   0  0  0  0  0  0  0  0  0  0  0  0
   44.3920   24.3060   36.4410 C   0  0  0  0  0  0  0  0  0  0  0  0
   43.2520   24.6860   35.9220 N   0  0  0  0  0  0  0  0  0  0  0  0
   45.1520   25.2270   37.2170 N   0  0  0  0  0  0  0  0  0  0  0  0
   45.2170   25.4370   38.6610 C   0  0  0  0  0  0  0  0  0  0  0  0
   46.7020   25.2440   38.9720 C   0  0  0  0  0  0  0  0  0  0  0  0
   47.3460   25.6630   37.6360 C   0  0  0  0  0  0  0  0  0  0  0  0
   46.1380   26.2980   36.9490 C   0  0  1  0  0  0  0  0  0  0  0  0
   46.4080   26.3400   35.5300 N   0  0  0  0  0  0  0  0  0  0  0  0
   45.7750   27.2730   34.6860 C   0  0  0  0  0  0  0  0  0  0  0  0
   44.6230   27.7330   34.9990 N   0  0  0  0  0  0  0  0  0  0  0  0
   46.4230   27.6920   33.5020 N   0  0  0  0  0  0  0  0  0  0  0  0
   44.1570   27.4070   35.8900 H   0  0  0  0  0  0  0  0  0  0  0  0
   41.3780   23.9380   34.5610 C   0  0  0  0  0  0  0  0  0  0  0  0
   40.2690   23.0800   34.9540 C   0  0  0  0  0  0  0  0  0  0  0  0
   38.4570   24.4170   36.1120 C   0  0  0  0  0  0  0  0  0  0  0  0
   39.4840   23.4630   36.1360 C   0  0  0  0  0  0  0  0  0  0  0  0
   39.7430   22.8700   37.3470 C   0  0  0  0  0  0  0  0  0  0  0  0
   38.9760   23.2650   38.4140 N   0  0  0  0  0  0  0  0  0  0  0  0
   38.0180   24.1620   38.3670 C   0  0  0  0  0  0  0  0  0  0  0  0
   37.7490   24.7550   37.1900 N   0  0  0  0  0  0  0  0  0  0  0  0
   40.8230   21.8380   37.4750 C   0  0  0  0  0  0  0  0  0  0  0  0
   44.8861   26.4515   38.9280 H   0  0  0  0  0  0  0  0  0  0  0  0
   44.5642   24.7563   39.2272 H   0  0  0  0  0  0  0  0  0  0  0  0
   47.0284   25.8933   39.7977 H   0  0  0  0  0  0  0  0  0  0  0  0
   46.9656   24.2278   39.3005 H   0  0  0  0  0  0  0  0  0  0  0  0
   48.1596   26.3883   37.7844 H   0  0  0  0  0  0  0  0  0  0  0  0
   47.8229   24.8462   37.0744 H   0  0  0  0  0  0  0  0  0  0  0  0
   45.8538   27.3111   37.2696 H   0  0  0  0  0  0  0  0  0  0  0  0
   47.0795   25.6715   35.1261 H   0  0  0  0  0  0  0  0  0  0  0  0
   47.3504   27.3142   33.2612 H   0  0  0  0  0  0  0  0  0  0  0  0
   45.9678   28.3752   32.8799 H   0  0  0  0  0  0  0  0  0  0  0  0
   41.5307   23.8104   33.4791 H   0  0  0  0  0  0  0  0  0  0  0  0
   41.0810   24.9518   34.8674 H   0  0  0  0  0  0  0  0  0  0  0  0
   39.5748   23.0323   34.1020 H   0  0  0  0  0  0  0  0  0  0  0  0
   40.7447   22.1295   35.2371 H   0  0  0  0  0  0  0  0  0  0  0  0
   38.2239   24.9108   35.1571 H   0  0  0  0  0  0  0  0  0  0  0  0
   37.4478   24.4228   39.2708 H   0  0  0  0  0  0  0  0  0  0  0  0
   41.0231   21.6468   38.5396 H   0  0  0  0  0  0  0  0  0  0  0  0
   40.4986   20.9057   36.9897 H   0  0  0  0  0  0  0  0  0  0  0  0
   41.7396   22.2044   36.9897 H   0  0  0  0  0  0  0  0  0  0  0  0
  1  2  2  0
  1  5  1  0
  2  3  1  0
  3  4  1  0
  4  6  1  0
  5  4  2  0
  6  7  1  0
  7  8  1  0
  9  8  1  0
 10  6  1  0
 10  9  1  0
 11 10  1  0
 12 13  2  0
 12 11  1  0
 13 15  1  0
 14 12  1  0
 16 17  1  0
 16  1  1  0
 17 19  1  0
 18 19  2  0
 18 23  1  0
 19 20  1  0
 20 24  1  0
 20 21  2  0
 22 21  1  0
 23 22  2  0
  7 25  1  0
  7 26  1  0
  8 27  1  0
  8 28  1  0
  9 29  1  0
  9 30  1  0
 10 31  1  1
 11 32  1  0
 14 33  1  0
 14 34  1  0
 16 35  1  0
 16 36  1  0
 17 37  1  0
 17 38  1  0
 18 39  1  0
 22 40  1  0
 24 41  1  0
 24 42  1  0
 24 43  1  0
M  ISO  8  25  13  26  13  27  13  28  13  29  13  30  13  31  13  35   8
M  ISO  8  36   8  37   8  38   8  39  14  40  14  41   8  42   8  43   8
M  END
>  <minimizedAffinity>  (1) 
-5.55514765

>  <minimizedRMSD>  (1) 
0.814097703

$$$$
