
     RDKit          3D

 50 54  0  0  1  0  0  0  0  0999 V2000
   43.1600   23.9770   35.6410 C   0  0  0  0  0  0  0  0  0  0  0  0
   43.8960   22.8870   35.6650 N   0  0  0  0  0  0  0  0  0  0  0  0
   45.0180   23.0330   36.2890 O   0  0  0  0  0  0  0  0  0  0  0  0
   45.0610   24.2540   36.7080 C   0  0  0  0  0  0  0  0  0  0  0  0
   43.9480   24.8300   36.3240 N   0  0  0  0  0  0  0  0  0  0  0  0
   46.0330   24.9840   37.4430 N   0  0  0  0  0  0  0  0  0  0  0  0
   46.2570   25.0220   38.9070 C   0  0  0  0  0  0  0  0  0  0  0  0
   47.7180   24.6000   39.0360 C   0  0  0  0  0  0  0  0  0  0  0  0
   48.2860   25.0330   37.6700 C   0  0  0  0  0  0  0  0  0  0  0  0
   47.1270   25.9110   37.1870 C   0  0  1  0  0  0  0  0  0  0  0  0
   47.2790   26.1420   35.7580 C   0  0  0  0  0  0  0  0  0  0  0  0
   46.8610   25.6250   34.5560 C   0  0  0  0  0  0  0  0  0  0  0  0
   47.3500   26.2870   33.5010 N   0  0  0  0  0  0  0  0  0  0  0  0
   48.1180   27.2770   33.9730 C   0  0  0  0  0  0  0  0  0  0  0  0
   48.8120   28.2000   33.2360 C   0  0  0  0  0  0  0  0  0  0  0  0
   49.5500   29.1460   33.9010 C   0  0  0  0  0  0  0  0  0  0  0  0
   49.5630   29.1290   35.2730 C   0  0  0  0  0  0  0  0  0  0  0  0
   48.8650   28.2040   35.9890 C   0  0  0  0  0  0  0  0  0  0  0  0
   48.0950   27.2140   35.3700 C   0  0  0  0  0  0  0  0  0  0  0  0
   41.8750   24.4620   35.1300 C   0  0  0  0  0  0  0  0  0  0  0  0
   40.7620   23.5220   35.1720 C   0  0  0  0  0  0  0  0  0  0  0  0
   38.7060   24.6080   36.1730 C   0  0  0  0  0  0  0  0  0  0  0  0
   39.7610   23.6860   36.2330 C   0  0  0  0  0  0  0  0  0  0  0  0
   39.8310   22.9040   37.3600 C   0  0  0  0  0  0  0  0  0  0  0  0
   38.8750   23.0910   38.3130 N   0  0  0  0  0  0  0  0  0  0  0  0
   37.8810   23.9740   38.2340 C   0  0  0  0  0  0  0  0  0  0  0  0
   37.8010   24.7390   37.1480 N   0  0  0  0  0  0  0  0  0  0  0  0
   40.9170   21.8920   37.5190 C   0  0  0  0  0  0  0  0  0  0  0  0
   46.1004   26.0352   39.3057 H   0  0  0  0  0  0  0  0  0  0  0  0
   45.5660   24.3777   39.4704 H   0  0  0  0  0  0  0  0  0  0  0  0
   48.2165   25.1263   39.8633 H   0  0  0  0  0  0  0  0  0  0  0  0
   47.8578   23.5324   39.2613 H   0  0  0  0  0  0  0  0  0  0  0  0
   49.2193   25.6055   37.7756 H   0  0  0  0  0  0  0  0  0  0  0  0
   48.5658   24.2106   36.9951 H   0  0  0  0  0  0  0  0  0  0  0  0
   47.0233   26.9032   37.6504 H   0  0  0  0  0  0  0  0  0  0  0  0
   46.1926   24.7556   34.4696 H   0  0  0  0  0  0  0  0  0  0  0  0
   47.1691   26.0744   32.5095 H   0  0  0  0  0  0  0  0  0  0  0  0
   48.7783   28.1830   32.1366 H   0  0  0  0  0  0  0  0  0  0  0  0
   50.1208   29.9041   33.3447 H   0  0  0  0  0  0  0  0  0  0  0  0
   50.1546   29.8847   35.8106 H   0  0  0  0  0  0  0  0  0  0  0  0
   48.9083   28.2366   37.0877 H   0  0  0  0  0  0  0  0  0  0  0  0
   42.0228   24.7583   34.0810 H   0  0  0  0  0  0  0  0  0  0  0  0
   41.5867   25.2847   35.8008 H   0  0  0  0  0  0  0  0  0  0  0  0
   40.2341   23.5970   34.2099 H   0  0  0  0  0  0  0  0  0  0  0  0
   41.2312   22.5501   35.3849 H   0  0  0  0  0  0  0  0  0  0  0  0
   38.6195   25.2514   35.2850 H   0  0  0  0  0  0  0  0  0  0  0  0
   37.1448   24.0685   39.0459 H   0  0  0  0  0  0  0  0  0  0  0  0
   41.1029   21.7188   38.5892 H   0  0  0  0  0  0  0  0  0  0  0  0
   40.6118   20.9487   37.0425 H   0  0  0  0  0  0  0  0  0  0  0  0
   41.8364   22.2629   37.0425 H   0  0  0  0  0  0  0  0  0  0  0  0
  1  2  2  0
  1  5  1  0
  2  3  1  0
  3  4  1  0
  4  6  1  0
  5  4  2  0
  6  7  1  0
  7  8  1  0
  9  8  1  0
 10  6  1  0
 10  9  1  0
 11 10  1  0
 12 11  2  0
 13 14  1  0
 13 12  1  0
 14 19  2  0
 15 16  2  0
 15 14  1  0
 16 17  1  0
 17 18  2  0
 19 11  1  0
 19 18  1  0
 20 21  1  0
 20  1  1  0
 21 23  1  0
 22 23  2  0
 22 27  1  0
 23 24  1  0
 24 28  1  0
 24 25  2  0
 26 25  1  0
 27 26  2  0
  7 29  1  0
  7 30  1  0
  8 31  1  0
  8 32  1  0
  9 33  1  0
  9 34  1  0
 10 35  1  1
 12 36  1  0
 13 37  1  0
 15 38  1  0
 16 39  1  0
 17 40  1  0
 18 41  1  0
 20 42  1  0
 20 43  1  0
 21 44  1  0
 21 45  1  0
 22 46  1  0
 26 47  1  0
 28 48  1  0
 28 49  1  0
 28 50  1  0
M  ISO  8  29  13  30  13  31  13  32  13  33  13  34  13  35  13  36  14
M  ISO  8  37   9  38  14  39  14  40  14  41  14  42   8  43   8  44   8
M  ISO  6  45   8  46  14  47  14  48   8  49   8  50   8
M  END
>  <minimizedAffinity>  (1) 
-5.42468834

>  <minimizedRMSD>  (1) 
1.06324649

$$$$
