
     RDKit          3D

 50 53  0  0  1  0  0  0  0  0999 V2000
   42.5370   23.4330   35.1180 C   0  0  0  0  0  0  0  0  0  0  0  0
   43.5130   22.5730   35.2990 N   0  0  0  0  0  0  0  0  0  0  0  0
   44.4840   23.0320   36.0230 O   0  0  0  0  0  0  0  0  0  0  0  0
   44.1790   24.2260   36.3490 C   0  0  0  0  0  0  0  0  0  0  0  0
   43.0120   24.4820   35.8140 N   0  0  0  0  0  0  0  0  0  0  0  0
   44.8350   25.2230   37.1220 N   0  0  0  0  0  0  0  0  0  0  0  0
   44.8680   25.4740   38.5530 C   0  0  0  0  0  0  0  0  0  0  0  0
   46.3590   25.4320   38.8840 C   0  0  0  0  0  0  0  0  0  0  0  0
   46.9770   25.8580   37.5540 C   0  0  0  0  0  0  0  0  0  0  0  0
   45.7220   26.3780   36.8270 C   0  0  1  0  0  0  0  0  0  0  0  0
   45.8860   26.3720   35.4150 N   0  0  0  0  0  0  0  0  0  0  0  0
   45.1740   27.4020   34.7360 C   0  0  0  0  0  0  0  0  0  0  0  0
   46.1890   28.3890   34.1760 C   0  0  0  0  0  0  0  0  0  0  0  0
   47.0380   27.7230   33.2330 N   0  0  0  0  0  0  0  0  0  0  0  0
   47.1060   26.2900   33.3930 C   0  0  0  0  0  0  0  0  0  0  0  0
   47.1650   26.0290   34.9050 C   0  0  0  0  0  0  0  0  0  0  0  0
   41.2410   23.5330   34.4410 C   0  0  0  0  0  0  0  0  0  0  0  0
   40.1580   22.7170   34.9720 C   0  0  0  0  0  0  0  0  0  0  0  0
   38.3570   24.1380   36.0430 C   0  0  0  0  0  0  0  0  0  0  0  0
   39.4120   23.2210   36.1270 C   0  0  0  0  0  0  0  0  0  0  0  0
   39.7420   22.7850   37.3900 C   0  0  0  0  0  0  0  0  0  0  0  0
   39.0070   23.2900   38.4300 N   0  0  0  0  0  0  0  0  0  0  0  0
   38.0180   24.1520   38.3240 C   0  0  0  0  0  0  0  0  0  0  0  0
   37.6820   24.5890   37.1030 N   0  0  0  0  0  0  0  0  0  0  0  0
   40.8510   21.8050   37.5940 C   0  0  0  0  0  0  0  0  0  0  0  0
   44.4395   26.4590   38.7901 H   0  0  0  0  0  0  0  0  0  0  0  0
   44.2786   24.7469   39.1308 H   0  0  0  0  0  0  0  0  0  0  0  0
   46.6121   26.1374   39.6892 H   0  0  0  0  0  0  0  0  0  0  0  0
   46.7103   24.4560   39.2501 H   0  0  0  0  0  0  0  0  0  0  0  0
   47.7280   26.6504   37.6885 H   0  0  0  0  0  0  0  0  0  0  0  0
   47.5234   25.0646   37.0230 H   0  0  0  0  0  0  0  0  0  0  0  0
   45.4197   27.3942   37.1202 H   0  0  0  0  0  0  0  0  0  0  0  0
   44.5836   26.9684   33.9153 H   0  0  0  0  0  0  0  0  0  0  0  0
   44.4889   27.9121   35.4291 H   0  0  0  0  0  0  0  0  0  0  0  0
   45.6602   29.2128   33.6743 H   0  0  0  0  0  0  0  0  0  0  0  0
   46.8002   28.7900   34.9979 H   0  0  0  0  0  0  0  0  0  0  0  0
   47.9900   28.1030   33.3336 H   0  0  0  0  0  0  0  0  0  0  0  0
   46.2138   25.8153   32.9588 H   0  0  0  0  0  0  0  0  0  0  0  0
   47.9841   25.8710   32.8798 H   0  0  0  0  0  0  0  0  0  0  0  0
   47.3820   24.9686   35.1009 H   0  0  0  0  0  0  0  0  0  0  0  0
   47.9596   26.6202   35.3836 H   0  0  0  0  0  0  0  0  0  0  0  0
   41.3912   23.2438   33.3904 H   0  0  0  0  0  0  0  0  0  0  0  0
   40.9175   24.5736   34.5910 H   0  0  0  0  0  0  0  0  0  0  0  0
   39.4344   22.5659   34.1574 H   0  0  0  0  0  0  0  0  0  0  0  0
   40.6581   21.8113   35.3456 H   0  0  0  0  0  0  0  0  0  0  0  0
   38.0682   24.5075   35.0480 H   0  0  0  0  0  0  0  0  0  0  0  0
   37.4804   24.5050   39.2164 H   0  0  0  0  0  0  0  0  0  0  0  0
   41.0171   21.6583   38.6714 H   0  0  0  0  0  0  0  0  0  0  0  0
   40.5815   20.8446   37.1304 H   0  0  0  0  0  0  0  0  0  0  0  0
   41.7710   22.1906   37.1304 H   0  0  0  0  0  0  0  0  0  0  0  0
  1  2  2  0
  1  5  1  0
  2  3  1  0
  3  4  1  0
  4  6  1  0
  5  4  2  0
  6  7  1  0
  7  8  1  0
  9  8  1  0
 10  6  1  0
 10  9  1  0
 11 10  1  0
 12 11  1  0
 13 12  1  0
 14 15  1  0
 14 13  1  0
 15 16  1  0
 16 11  1  0
 17 18  1  0
 17  1  1  0
 18 20  1  0
 19 20  2  0
 19 24  1  0
 20 21  1  0
 21 25  1  0
 21 22  2  0
 23 22  1  0
 24 23  2  0
  7 26  1  0
  7 27  1  0
  8 28  1  0
  8 29  1  0
  9 30  1  0
  9 31  1  0
 10 32  1  1
 12 33  1  0
 12 34  1  0
 13 35  1  0
 13 36  1  0
 14 37  1  0
 15 38  1  0
 15 39  1  0
 16 40  1  0
 16 41  1  0
 17 42  1  0
 17 43  1  0
 18 44  1  0
 18 45  1  0
 19 46  1  0
 23 47  1  0
 25 48  1  0
 25 49  1  0
 25 50  1  0
M  ISO  8  26  13  27  13  28  13  29  13  30  13  31  13  32  13  33  13
M  ISO  8  34  13  35  13  36  13  37   5  38  13  39  13  40  13  41  13
M  ISO  8  42   8  43   8  44   8  45   8  46  14  47  14  48   8  49   8
M  ISO  1  50   8
M  END
>  <minimizedAffinity>  (1) 
-5.33188343

>  <minimizedRMSD>  (1) 
1.20642447

$$$$
