
     RDKit          3D

 45 48  0  0  1  0  0  0  0  0999 V2000
   43.0220   23.9010   35.5320 C   0  0  0  0  0  0  0  0  0  0  0  0
   43.7880   22.8340   35.5890 N   0  0  0  0  0  0  0  0  0  0  0  0
   44.8860   23.0160   36.2340 O   0  0  0  0  0  0  0  0  0  0  0  0
   44.8960   24.2310   36.6380 C   0  0  0  0  0  0  0  0  0  0  0  0
   43.7790   24.7750   36.2240 N   0  0  0  0  0  0  0  0  0  0  0  0
   45.8230   25.0090   37.3870 N   0  0  0  0  0  0  0  0  0  0  0  0
   46.0040   25.1060   38.8480 C   0  0  0  0  0  0  0  0  0  0  0  0
   47.4630   24.7350   39.0460 C   0  0  0  0  0  0  0  0  0  0  0  0
   48.0640   25.1230   37.7020 C   0  0  0  0  0  0  0  0  0  0  0  0
   46.9090   25.9670   37.1080 C   0  0  1  0  0  0  0  0  0  0  0  0
   47.1510   26.1510   35.6750 C   0  0  0  0  0  0  0  0  0  0  0  0
   48.0470   25.4120   34.9570 C   0  0  0  0  0  0  0  0  0  0  0  0
   48.2890   25.5740   33.5880 C   0  0  0  0  0  0  0  0  0  0  0  0
   47.5390   26.5670   32.9710 C   0  0  0  0  0  0  0  0  0  0  0  0
   46.6340   27.3120   33.7070 C   0  0  0  0  0  0  0  0  0  0  0  0
   46.4480   27.1060   35.0230 N   0  0  0  0  0  0  0  0  0  0  0  0
   41.7330   24.3420   34.9890 C   0  0  0  0  0  0  0  0  0  0  0  0
   40.6180   23.4120   35.1360 C   0  0  0  0  0  0  0  0  0  0  0  0
   38.6380   24.5710   36.1910 C   0  0  0  0  0  0  0  0  0  0  0  0
   39.6810   23.6350   36.2380 C   0  0  0  0  0  0  0  0  0  0  0  0
   39.8050   22.8980   37.3920 C   0  0  0  0  0  0  0  0  0  0  0  0
   38.9070   23.1390   38.3900 N   0  0  0  0  0  0  0  0  0  0  0  0
   37.9270   24.0280   38.3290 C   0  0  0  0  0  0  0  0  0  0  0  0
   37.7900   24.7570   37.2090 N   0  0  0  0  0  0  0  0  0  0  0  0
   40.8890   21.8770   37.5370 C   0  0  0  0  0  0  0  0  0  0  0  0
   45.8060   26.1284   39.2023 H   0  0  0  0  0  0  0  0  0  0  0  0
   45.3155   24.4582   39.4104 H   0  0  0  0  0  0  0  0  0  0  0  0
   47.9149   25.3091   39.8683 H   0  0  0  0  0  0  0  0  0  0  0  0
   47.6232   23.6818   39.3200 H   0  0  0  0  0  0  0  0  0  0  0  0
   48.9808   25.7185   37.8241 H   0  0  0  0  0  0  0  0  0  0  0  0
   48.3778   24.2731   37.0782 H   0  0  0  0  0  0  0  0  0  0  0  0
   46.7430   26.9837   37.4938 H   0  0  0  0  0  0  0  0  0  0  0  0
   48.6170   24.6371   35.4905 H   0  0  0  0  0  0  0  0  0  0  0  0
   49.0195   24.9600   33.0409 H   0  0  0  0  0  0  0  0  0  0  0  0
   47.6645   26.7617   31.8957 H   0  0  0  0  0  0  0  0  0  0  0  0
   46.0501   28.0950   33.2011 H   0  0  0  0  0  0  0  0  0  0  0  0
   41.8699   24.5342   33.9146 H   0  0  0  0  0  0  0  0  0  0  0  0
   41.4548   25.2292   35.5768 H   0  0  0  0  0  0  0  0  0  0  0  0
   40.0386   23.4450   34.2016 H   0  0  0  0  0  0  0  0  0  0  0  0
   41.0924   22.4471   35.3682 H   0  0  0  0  0  0  0  0  0  0  0  0
   38.5120   25.1763   35.2812 H   0  0  0  0  0  0  0  0  0  0  0  0
   37.2402   24.1663   39.1771 H   0  0  0  0  0  0  0  0  0  0  0  0
   41.0815   21.6957   38.6047 H   0  0  0  0  0  0  0  0  0  0  0  0
   40.5754   20.9385   37.0564 H   0  0  0  0  0  0  0  0  0  0  0  0
   41.8070   22.2461   37.0564 H   0  0  0  0  0  0  0  0  0  0  0  0
  1  2  2  0
  1  5  1  0
  2  3  1  0
  3  4  1  0
  4  6  1  0
  5  4  2  0
  6  7  1  0
  7  8  1  0
  9  8  1  0
 10  6  1  0
 10  9  1  0
 11 10  1  0
 12 11  2  0
 13 12  1  0
 14 13  2  0
 14 15  1  0
 15 16  2  0
 16 11  1  0
 17 18  1  0
 17  1  1  0
 18 20  1  0
 19 20  2  0
 19 24  1  0
 20 21  1  0
 21 25  1  0
 21 22  2  0
 23 22  1  0
 24 23  2  0
  7 26  1  0
  7 27  1  0
  8 28  1  0
  8 29  1  0
  9 30  1  0
  9 31  1  0
 10 32  1  1
 12 33  1  0
 13 34  1  0
 14 35  1  0
 15 36  1  0
 17 37  1  0
 17 38  1  0
 18 39  1  0
 18 40  1  0
 19 41  1  0
 23 42  1  0
 25 43  1  0
 25 44  1  0
 25 45  1  0
M  ISO  8  26  13  27  13  28  13  29  13  30  13  31  13  32  13  33  14
M  ISO  8  34  14  35  14  36  14  37   8  38   8  39   8  40   8  41  14
M  ISO  4  42  14  43   8  44   8  45   8
M  END
>  <minimizedAffinity>  (1) 
-5.16200733

>  <minimizedRMSD>  (1) 
0.248055443

$$$$
