
     RDKit          3D

 37 40  0  0  0  0  0  0  0  0999 V2000
   43.2360   23.9870   33.8770 C   0  0  0  0  0  0  0  0  0  0  0  0
   43.4390   24.8120   34.9940 C   0  0  0  0  0  0  0  0  0  0  0  0
   44.7100   26.0400   34.3710 S   0  0  0  0  0  0  0  0  0  0  0  0
   44.7070   25.1590   32.6810 C   0  0  0  0  0  0  0  0  0  0  0  0
   43.9680   24.3580   32.8730 N   0  0  0  0  0  0  0  0  0  0  0  0
   45.4970   25.5200   31.5200 N   0  0  0  0  0  0  0  0  0  0  0  0
   46.6500   24.8390   31.4020 C   0  0  0  0  0  0  0  0  0  0  0  0
   47.2850   25.2840   30.2630 C   0  0  0  0  0  0  0  0  0  0  0  0
   46.4790   26.2230   29.7420 N   0  0  0  0  0  0  0  0  0  0  0  0
   45.3810   26.3760   30.5000 C   0  0  0  0  0  0  0  0  0  0  0  0
   44.1960   27.2240   30.4270 C   0  0  0  0  0  0  0  0  0  0  0  0
   44.1280   28.4450   31.0640 C   0  0  0  0  0  0  0  0  0  0  0  0
   43.0100   29.2580   31.0020 C   0  0  0  0  0  0  0  0  0  0  0  0
   41.9220   28.8210   30.2720 C   0  0  0  0  0  0  0  0  0  0  0  0
   41.9200   27.6070   29.6080 C   0  0  0  0  0  0  0  0  0  0  0  0
   43.0690   26.8500   29.7140 C   0  0  0  0  0  0  0  0  0  0  0  0
   42.0630   22.6390   34.0340 S   0  0  0  0  0  0  0  0  0  0  0  0
   40.4320   22.5790   37.6610 C   0  0  0  0  0  0  0  0  0  0  0  0
   39.3050   23.3950   37.5310 C   0  0  0  0  0  0  0  0  0  0  0  0
   39.0570   23.9680   36.2900 C   0  0  0  0  0  0  0  0  0  0  0  0
   39.9140   23.7170   35.2530 N   0  0  0  0  0  0  0  0  0  0  0  0
   41.0040   22.9110   35.4330 C   0  0  0  0  0  0  0  0  0  0  0  0
   41.2390   22.3620   36.6250 N   0  0  0  0  0  0  0  0  0  0  0  0
   38.3670   23.6730   38.6560 C   0  0  0  0  0  0  0  0  0  0  0  0
   39.1420   23.8650   39.7790 F   0  0  0  0  0  0  0  0  0  0  0  0
   37.4840   22.6740   38.8770 F   0  0  0  0  0  0  0  0  0  0  0  0
   37.7350   24.9260   38.4560 F   0  0  0  0  0  0  0  0  0  0  0  0
   42.9694   24.7526   35.9870 H   0  0  0  0  0  0  0  0  0  0  0  0
   47.0201   24.0655   32.0910 H   0  0  0  0  0  0  0  0  0  0  0  0
   48.2510   24.9414   29.8637 H   0  0  0  0  0  0  0  0  0  0  0  0
   44.9975   28.7865   31.6448 H   0  0  0  0  0  0  0  0  0  0  0  0
   42.9883   30.2277   31.5209 H   0  0  0  0  0  0  0  0  0  0  0  0
   41.0277   29.4590   30.2166 H   0  0  0  0  0  0  0  0  0  0  0  0
   41.0506   27.2643   29.0277 H   0  0  0  0  0  0  0  0  0  0  0  0
   43.0914   25.8803   29.1952 H   0  0  0  0  0  0  0  0  0  0  0  0
   40.6548   22.1105   38.6310 H   0  0  0  0  0  0  0  0  0  0  0  0
   38.1810   24.6167   36.1424 H   0  0  0  0  0  0  0  0  0  0  0  0
  1 17  1  0
  1  2  2  0
  3  2  1  0
  4  5  2  0
  4  3  1  0
  5  1  1  0
  6  4  1  0
  7  6  1  0
  8  7  2  0
  9  8  1  0
  9 10  2  0
 10  6  1  0
 11 10  1  0
 11 12  2  0
 13 12  1  0
 14 13  2  0
 15 16  2  0
 15 14  1  0
 16 11  1  0
 17 22  1  0
 19 18  2  0
 19 24  1  0
 20 19  1  0
 21 22  1  0
 21 20  2  0
 22 23  2  0
 23 18  1  0
 24 26  1  0
 24 25  1  0
 27 24  1  0
  2 28  1  0
  7 29  1  0
  8 30  1  0
 12 31  1  0
 13 32  1  0
 14 33  1  0
 15 34  1  0
 16 35  1  0
 18 36  1  0
 20 37  1  0
M  ISO  8  28  14  29  14  30  14  31  14  32  14  33  14  34  14  35  14
M  ISO  2  36  14  37  14
M  END
>  <minimizedAffinity>  (1) 
-4.24857092

>  <minimizedRMSD>  (1) 
3.02378702

$$$$
