
     RDKit          3D

 49 52  0  0  1  0  0  0  0  0999 V2000
   42.5210   23.6080   35.1480 C   0  0  0  0  0  0  0  0  0  0  0  0
   43.4350   22.6740   35.3010 N   0  0  0  0  0  0  0  0  0  0  0  0
   44.4500   23.0610   35.9940 O   0  0  0  0  0  0  0  0  0  0  0  0
   44.2520   24.2740   36.3330 C   0  0  0  0  0  0  0  0  0  0  0  0
   43.0920   24.6180   35.8310 N   0  0  0  0  0  0  0  0  0  0  0  0
   45.0080   25.2110   37.0880 N   0  0  0  0  0  0  0  0  0  0  0  0
   45.0930   25.3800   38.5540 C   0  0  0  0  0  0  0  0  0  0  0  0
   46.5880   25.2590   38.8320 C   0  0  0  0  0  0  0  0  0  0  0  0
   47.1810   25.7080   37.4990 C   0  0  0  0  0  0  0  0  0  0  0  0
   45.9390   26.3120   36.8460 C   0  0  1  0  0  0  0  0  0  0  0  0
   46.0950   27.0230   32.6210 C   0  0  0  0  0  0  0  0  0  0  0  0
   45.2420   27.6910   33.4440 C   0  0  0  0  0  0  0  0  0  0  0  0
   45.2480   27.4080   34.7820 C   0  0  0  0  0  0  0  0  0  0  0  0
   46.0820   26.4620   35.3950 C   0  0  0  0  0  0  0  0  0  0  0  0
   46.9280   25.8080   34.5390 C   0  0  0  0  0  0  0  0  0  0  0  0
   46.9350   26.0830   33.1750 C   0  0  0  0  0  0  0  0  0  0  0  0
   46.1880   27.2880   30.8940 S   0  0  0  0  0  0  0  0  0  0  0  0
   44.7770   27.3960   30.3910 O   0  0  0  0  0  0  0  0  0  0  0  0
   46.8900   28.6030   30.6120 O   0  0  0  0  0  0  0  0  0  0  0  0
   41.2170   23.8260   34.5140 C   0  0  0  0  0  0  0  0  0  0  0  0
   40.1200   22.9920   34.9900 C   0  0  0  0  0  0  0  0  0  0  0  0
   38.3430   24.3790   36.1350 C   0  0  0  0  0  0  0  0  0  0  0  0
   39.3730   23.4290   36.1660 C   0  0  0  0  0  0  0  0  0  0  0  0
   39.6720   22.8920   37.3980 C   0  0  0  0  0  0  0  0  0  0  0  0
   38.9510   23.3180   38.4760 N   0  0  0  0  0  0  0  0  0  0  0  0
   37.9760   24.2240   38.4070 C   0  0  0  0  0  0  0  0  0  0  0  0
   37.6670   24.7630   37.2210 N   0  0  0  0  0  0  0  0  0  0  0  0
   40.7570   21.8680   37.5420 C   0  0  0  0  0  0  0  0  0  0  0  0
   44.7133   26.3659   38.8602 H   0  0  0  0  0  0  0  0  0  0  0  0
   44.4900   24.6461   39.1088 H   0  0  0  0  0  0  0  0  0  0  0  0
   46.8990   25.9208   39.6538 H   0  0  0  0  0  0  0  0  0  0  0  0
   46.9060   24.2550   39.1496 H   0  0  0  0  0  0  0  0  0  0  0  0
   47.9748   26.4569   37.6369 H   0  0  0  0  0  0  0  0  0  0  0  0
   47.6694   24.9120   36.9177 H   0  0  0  0  0  0  0  0  0  0  0  0
   45.6776   27.3110   37.2251 H   0  0  0  0  0  0  0  0  0  0  0  0
   44.5561   28.4492   33.0383 H   0  0  0  0  0  0  0  0  0  0  0  0
   44.5478   27.9627   35.4239 H   0  0  0  0  0  0  0  0  0  0  0  0
   47.6167   25.0490   34.9385 H   0  0  0  0  0  0  0  0  0  0  0  0
   47.6300   25.5349   32.5219 H   0  0  0  0  0  0  0  0  0  0  0  0
   46.8746   26.2680   30.2899 H   0  0  0  0  0  0  0  0  0  0  0  0
   41.3338   23.6428   33.4357 H   0  0  0  0  0  0  0  0  0  0  0  0
   40.9344   24.8574   34.7714 H   0  0  0  0  0  0  0  0  0  0  0  0
   39.3999   22.8996   34.1636 H   0  0  0  0  0  0  0  0  0  0  0  0
   40.6093   22.0610   35.3121 H   0  0  0  0  0  0  0  0  0  0  0  0
   38.0781   24.8310   35.1678 H   0  0  0  0  0  0  0  0  0  0  0  0
   37.4314   24.5255   39.3140 H   0  0  0  0  0  0  0  0  0  0  0  0
   40.9500   21.6859   38.6095 H   0  0  0  0  0  0  0  0  0  0  0  0
   40.4422   20.9301   37.0611 H   0  0  0  0  0  0  0  0  0  0  0  0
   41.6751   22.2365   37.0611 H   0  0  0  0  0  0  0  0  0  0  0  0
  1  2  2  0
  1  5  1  0
  2  3  1  0
  3  4  1  0
  4  6  1  0
  5  4  2  0
  6  7  1  0
  7  8  1  0
  9  8  1  0
 10  6  1  0
 10  9  1  0
 11 16  2  0
 11 12  1  0
 12 13  2  0
 13 14  1  0
 14 10  1  0
 15 14  2  0
 16 15  1  0
 17 11  1  0
 18 17  2  0
 19 17  2  0
 20 21  1  0
 20  1  1  0
 21 23  1  0
 22 23  2  0
 22 27  1  0
 23 24  1  0
 24 28  1  0
 24 25  2  0
 26 25  1  0
 27 26  2  0
  7 29  1  0
  7 30  1  0
  8 31  1  0
  8 32  1  0
  9 33  1  0
  9 34  1  0
 10 35  1  1
 12 36  1  0
 13 37  1  0
 15 38  1  0
 16 39  1  0
 17 40  1  0
 20 41  1  0
 20 42  1  0
 21 43  1  0
 21 44  1  0
 22 45  1  0
 26 46  1  0
 28 47  1  0
 28 48  1  0
 28 49  1  0
M  ISO  8  29  13  30  13  31  13  32  13  33  13  34  13  35  13  36  14
M  ISO  8  37  14  38  14  39  14  40  11  41   8  42   8  43   8  44   8
M  ISO  5  45  14  46  14  47   8  48   8  49   8
M  END
>  <minimizedAffinity>  (1) 
-5.11485386

>  <minimizedRMSD>  (1) 
1.17052972

$$$$
