
     RDKit          3D

 38 40  0  0  1  0  0  0  0  0999 V2000
   43.0390   23.9080   35.5420 C   0  0  0  0  0  0  0  0  0  0  0  0
   43.8100   22.8450   35.5920 N   0  0  0  0  0  0  0  0  0  0  0  0
   44.9040   23.0290   36.2430 O   0  0  0  0  0  0  0  0  0  0  0  0
   44.9100   24.2320   36.6600 C   0  0  0  0  0  0  0  0  0  0  0  0
   43.7930   24.7740   36.2440 N   0  0  0  0  0  0  0  0  0  0  0  0
   45.8270   25.0110   37.4190 N   0  0  0  0  0  0  0  0  0  0  0  0
   46.0150   25.1240   38.8650 C   0  0  0  0  0  0  0  0  0  0  0  0
   47.4890   24.7370   39.0430 C   0  0  0  0  0  0  0  0  0  0  0  0
   48.0860   25.1300   37.6850 C   0  0  0  0  0  0  0  0  0  0  0  0
   46.9150   25.9760   37.1300 C   0  0  1  0  0  0  0  0  0  0  0  0
   41.7520   24.3450   34.9930 C   0  0  0  0  0  0  0  0  0  0  0  0
   40.6390   23.4150   35.1310 C   0  0  0  0  0  0  0  0  0  0  0  0
   38.6490   24.5670   36.1900 C   0  0  0  0  0  0  0  0  0  0  0  0
   39.6930   23.6330   36.2380 C   0  0  0  0  0  0  0  0  0  0  0  0
   39.8130   22.8950   37.3900 C   0  0  0  0  0  0  0  0  0  0  0  0
   38.9060   23.1410   38.3770 N   0  0  0  0  0  0  0  0  0  0  0  0
   37.9290   24.0200   38.3200 C   0  0  0  0  0  0  0  0  0  0  0  0
   37.7960   24.7520   37.2030 N   0  0  0  0  0  0  0  0  0  0  0  0
   40.8990   21.8760   37.5310 C   0  0  0  0  0  0  0  0  0  0  0  0
   47.1000   26.1310   35.6990 N   0  0  0  0  0  0  0  0  0  0  0  0
   45.8300   26.1519   39.2102 H   0  0  0  0  0  0  0  0  0  0  0  0
   45.3246   24.4950   39.4461 H   0  0  0  0  0  0  0  0  0  0  0  0
   47.9548   25.3025   39.8635 H   0  0  0  0  0  0  0  0  0  0  0  0
   47.6422   23.6801   39.3066 H   0  0  0  0  0  0  0  0  0  0  0  0
   49.0051   25.7239   37.7967 H   0  0  0  0  0  0  0  0  0  0  0  0
   48.4000   24.2890   37.0493 H   0  0  0  0  0  0  0  0  0  0  0  0
   46.7752   26.9902   37.5322 H   0  0  0  0  0  0  0  0  0  0  0  0
   41.8947   24.5391   33.9197 H   0  0  0  0  0  0  0  0  0  0  0  0
   41.4683   25.2294   35.5824 H   0  0  0  0  0  0  0  0  0  0  0  0
   40.0624   23.4528   34.1950 H   0  0  0  0  0  0  0  0  0  0  0  0
   41.1131   22.4490   35.3591 H   0  0  0  0  0  0  0  0  0  0  0  0
   38.5262   25.1735   35.2805 H   0  0  0  0  0  0  0  0  0  0  0  0
   37.2387   24.1517   39.1662 H   0  0  0  0  0  0  0  0  0  0  0  0
   41.0939   21.6931   38.5980 H   0  0  0  0  0  0  0  0  0  0  0  0
   40.5863   20.9378   37.0493 H   0  0  0  0  0  0  0  0  0  0  0  0
   41.8154   22.2477   37.0493 H   0  0  0  0  0  0  0  0  0  0  0  0
   47.8778   26.7826   35.5220 H   0  0  0  0  0  0  0  0  0  0  0  0
   47.3169   25.2155   35.2797 H   0  0  0  0  0  0  0  0  0  0  0  0
  1  2  2  0
  1  5  1  0
  2  3  1  0
  3  4  1  0
  4  6  1  0
  5  4  2  0
  6  7  1  0
  7  8  1  0
  9  8  1  0
 10  6  1  0
 10  9  1  0
 11 12  1  0
 11  1  1  0
 12 14  1  0
 13 14  2  0
 13 18  1  0
 14 15  1  0
 15 19  1  0
 15 16  2  0
 17 16  1  0
 18 17  2  0
 20 10  1  0
  7 21  1  0
  7 22  1  0
  8 23  1  0
  8 24  1  0
  9 25  1  0
  9 26  1  0
 10 27  1  1
 11 28  1  0
 11 29  1  0
 12 30  1  0
 12 31  1  0
 13 32  1  0
 17 33  1  0
 19 34  1  0
 19 35  1  0
 19 36  1  0
 20 37  1  0
 20 38  1  0
M  ISO  8  21  13  22  13  23  13  24  13  25  13  26  13  27  13  28   8
M  ISO  8  29   8  30   8  31   8  32  14  33  14  34   8  35   8  36   8
M  ISO  2  37   5  38   5
M  END
>  <minimizedAffinity>  (1) 
-4.99045134

>  <minimizedRMSD>  (1) 
0.041644603

$$$$
