
     RDKit          3D

 27 29  0  0  1  0  0  0  0  0999 V2000
   38.3790   25.7970   35.1560 C   0  0  2  0  0  0  0  0  0  0  0  0
   39.2090   27.1010   35.3170 C   0  0  0  0  0  0  0  0  0  0  0  0
   37.7280   27.0720   35.3480 C   0  0  1  0  0  0  0  0  0  0  0  0
   38.1100   23.9600   38.4460 C   0  0  0  0  0  0  0  0  0  0  0  0
   37.8620   24.8990   37.4380 C   0  0  0  0  0  0  0  0  0  0  0  0
   38.6000   24.8250   36.2300 C   0  0  0  0  0  0  0  0  0  0  0  0
   39.5130   23.8430   36.1110 N   0  0  0  0  0  0  0  0  0  0  0  0
   39.7400   22.9410   37.0990 C   0  0  0  0  0  0  0  0  0  0  0  0
   39.0410   22.9970   38.2640 N   0  0  0  0  0  0  0  0  0  0  0  0
   36.9000   27.6770   34.2820 C   0  0  0  0  0  0  0  0  0  0  0  0
   36.1410   28.8150   34.5470 C   0  0  0  0  0  0  0  0  0  0  0  0
   35.3460   29.4270   33.5910 C   0  0  0  0  0  0  0  0  0  0  0  0
   35.3010   28.8870   32.3150 C   0  0  0  0  0  0  0  0  0  0  0  0
   36.0480   27.7560   32.0310 C   0  0  0  0  0  0  0  0  0  0  0  0
   36.8330   27.1710   33.0170 C   0  0  0  0  0  0  0  0  0  0  0  0
   38.2019   24.9964   34.4227 H   0  0  0  0  0  0  0  0  0  0  0  0
   39.7836   27.2877   36.2362 H   0  0  0  0  0  0  0  0  0  0  0  0
   39.9833   27.6284   34.7405 H   0  0  0  0  0  0  0  0  0  0  0  0
   36.9905   27.4481   36.0723 H   0  0  0  0  0  0  0  0  0  0  0  0
   37.5456   24.0059   39.3891 H   0  0  0  0  0  0  0  0  0  0  0  0
   37.1046   25.6838   37.5813 H   0  0  0  0  0  0  0  0  0  0  0  0
   40.4974   22.1563   36.9560 H   0  0  0  0  0  0  0  0  0  0  0  0
   36.1742   29.2462   35.5584 H   0  0  0  0  0  0  0  0  0  0  0  0
   34.7614   30.3249   33.8401 H   0  0  0  0  0  0  0  0  0  0  0  0
   34.6785   29.3520   31.5363 H   0  0  0  0  0  0  0  0  0  0  0  0
   36.0198   27.3194   31.0217 H   0  0  0  0  0  0  0  0  0  0  0  0
   37.4180   26.2728   32.7701 H   0  0  0  0  0  0  0  0  0  0  0  0
  1  2  1  0
  1  3  1  0
  1  6  1  0
  2  3  1  0
  5  4  2  0
  6  5  1  0
  7  6  2  0
  7  8  1  0
  8  9  2  0
  9  4  1  0
 10 11  2  0
 10  3  1  0
 12 11  1  0
 13 12  2  0
 14 13  1  0
 14 15  2  0
 15 10  1  0
  1 16  1  6
  2 17  1  0
  2 18  1  0
  3 19  1  1
  4 20  1  0
  5 21  1  0
  8 22  1  0
 11 23  1  0
 12 24  1  0
 13 25  1  0
 14 26  1  0
 15 27  1  0
M  ISO  8  16  13  17  13  18  13  19  13  20  14  21  14  22  14  23  14
M  ISO  4  24  14  25  14  26  14  27  14
M  END
>  <minimizedAffinity>  (1) 
-4.91787577

>  <minimizedRMSD>  (1) 
1.11375678

$$$$
