
     RDKit          3D

 20 21  0  0  1  0  0  0  0  0999 V2000
   38.5930   25.6250   35.0660 C   0  0  2  0  0  0  0  0  0  0  0  0
   39.3810   26.9560   35.1980 C   0  0  0  0  0  0  0  0  0  0  0  0
   37.9130   26.9000   35.0540 C   0  0  1  0  0  0  0  0  0  0  0  0
   37.9940   24.0910   38.4590 C   0  0  0  0  0  0  0  0  0  0  0  0
   37.8670   24.9460   37.3680 C   0  0  0  0  0  0  0  0  0  0  0  0
   38.6870   24.7450   36.2290 C   0  0  0  0  0  0  0  0  0  0  0  0
   39.5590   23.7190   36.2690 N   0  0  0  0  0  0  0  0  0  0  0  0
   39.6710   22.9010   37.3300 C   0  0  0  0  0  0  0  0  0  0  0  0
   38.8930   23.0780   38.4300 N   0  0  0  0  0  0  0  0  0  0  0  0
   37.1850   27.2740   33.7990 C   0  0  0  0  0  0  0  0  0  0  0  0
   36.2690   28.2660   34.1720 F   0  0  0  0  0  0  0  0  0  0  0  0
   38.0070   27.8660   32.8540 F   0  0  0  0  0  0  0  0  0  0  0  0
   36.5550   26.2310   33.1720 F   0  0  0  0  0  0  0  0  0  0  0  0
   38.5154   24.7543   34.3982 H   0  0  0  0  0  0  0  0  0  0  0  0
   39.8374   27.2418   36.1572 H   0  0  0  0  0  0  0  0  0  0  0  0
   40.2140   27.4429   34.6698 H   0  0  0  0  0  0  0  0  0  0  0  0
   37.1207   27.3813   35.6461 H   0  0  0  0  0  0  0  0  0  0  0  0
   37.3624   24.2383   39.3475 H   0  0  0  0  0  0  0  0  0  0  0  0
   37.1378   25.7693   37.3893 H   0  0  0  0  0  0  0  0  0  0  0  0
   40.4012   22.0786   37.3074 H   0  0  0  0  0  0  0  0  0  0  0  0
  1  2  1  0
  1  6  1  0
  3  1  1  0
  3  2  1  0
  5  4  2  0
  6  7  2  0
  6  5  1  0
  7  8  1  0
  8  9  2  0
  9  4  1  0
 10 11  1  0
 10  3  1  0
 12 10  1  0
 13 10  1  0
  1 14  1  6
  2 15  1  0
  2 16  1  0
  3 17  1  1
  4 18  1  0
  5 19  1  0
  8 20  1  0
M  ISO  7  14  13  15  13  16  13  17  13  18  14  19  14  20  14
M  END
>  <minimizedAffinity>  (1) 
-4.08791113

>  <minimizedRMSD>  (1) 
1.1187247

$$$$
