
     RDKit          3D

 26 27  0  0  1  0  0  0  0  0999 V2000
   38.4200   25.6180   35.1020 C   0  0  2  0  0  0  0  0  0  0  0  0
   39.0510   27.0230   35.2880 C   0  0  0  0  0  0  0  0  0  0  0  0
   37.5900   26.8020   35.1710 C   0  0  1  0  0  0  0  0  0  0  0  0
   38.1210   23.9970   38.4970 C   0  0  0  0  0  0  0  0  0  0  0  0
   37.8700   24.8560   37.4300 C   0  0  0  0  0  0  0  0  0  0  0  0
   38.6380   24.7240   36.2460 C   0  0  0  0  0  0  0  0  0  0  0  0
   39.5820   23.7560   36.2230 N   0  0  0  0  0  0  0  0  0  0  0  0
   39.8110   22.9360   37.2610 C   0  0  0  0  0  0  0  0  0  0  0  0
   39.0840   23.0500   38.4040 N   0  0  0  0  0  0  0  0  0  0  0  0
   36.8090   27.3540   34.0290 C   0  0  0  0  0  0  0  0  0  0  0  0
   36.1900   28.7060   34.3620 C   0  0  0  0  0  0  0  0  0  0  0  0
   37.6570   27.5800   32.7810 C   0  0  0  0  0  0  0  0  0  0  0  0
   38.4336   24.7797   34.3899 H   0  0  0  0  0  0  0  0  0  0  0  0
   39.4965   27.3118   36.2514 H   0  0  0  0  0  0  0  0  0  0  0  0
   39.8076   27.6300   34.7693 H   0  0  0  0  0  0  0  0  0  0  0  0
   36.7171   27.0536   35.7914 H   0  0  0  0  0  0  0  0  0  0  0  0
   37.5326   24.0886   39.4219 H   0  0  0  0  0  0  0  0  0  0  0  0
   37.0875   25.6254   37.5049 H   0  0  0  0  0  0  0  0  0  0  0  0
   40.5929   22.1659   37.1860 H   0  0  0  0  0  0  0  0  0  0  0  0
   36.0379   26.5933   33.8377 H   0  0  0  0  0  0  0  0  0  0  0  0
   36.1354   28.8253   35.4542 H   0  0  0  0  0  0  0  0  0  0  0  0
   36.8105   29.5082   33.9361 H   0  0  0  0  0  0  0  0  0  0  0  0
   35.1773   28.7605   33.9361 H   0  0  0  0  0  0  0  0  0  0  0  0
   38.6805   27.8528   33.0776 H   0  0  0  0  0  0  0  0  0  0  0  0
   37.6822   26.6572   32.1828 H   0  0  0  0  0  0  0  0  0  0  0  0
   37.2196   28.3929   32.1828 H   0  0  0  0  0  0  0  0  0  0  0  0
  1  3  1  0
  1  2  1  0
  1  6  1  0
  3  2  1  0
  5  4  2  0
  6  5  1  0
  7  6  2  0
  7  8  1  0
  8  9  2  0
  9  4  1  0
 10 11  1  0
 10  3  1  0
 12 10  1  0
  1 13  1  6
  2 14  1  0
  2 15  1  0
  3 16  1  1
  4 17  1  0
  5 18  1  0
  8 19  1  0
 10 20  1  0
 11 21  1  0
 11 22  1  0
 11 23  1  0
 12 24  1  0
 12 25  1  0
 12 26  1  0
M  ISO  8  13  13  14  13  15  13  16  13  17  14  18  14  19  14  20   8
M  ISO  6  21   8  22   8  23   8  24   8  25   8  26   8
M  END
>  <minimizedAffinity>  (1) 
-4.033741

>  <minimizedRMSD>  (1) 
1.05321705

$$$$
