
     RDKit          3D

 24 26  0  0  1  0  0  0  0  0999 V2000
   38.1410   22.9740   34.6830 C   0  0  2  0  0  0  0  0  0  0  0  0
   39.2510   23.4420   33.7190 C   0  0  0  0  0  0  0  0  0  0  0  0
   37.9750   24.1480   33.8440 C   0  0  2  0  0  0  0  0  0  0  0  0
   37.8950   23.4470   38.4050 C   0  0  0  0  0  0  0  0  0  0  0  0
   37.5180   23.4140   37.0420 C   0  0  0  0  0  0  0  0  0  0  0  0
   38.5000   23.0140   36.1020 C   0  0  0  0  0  0  0  0  0  0  0  0
   39.7270   22.6870   36.5440 N   0  0  0  0  0  0  0  0  0  0  0  0
   40.0540   22.7320   37.8670 C   0  0  0  0  0  0  0  0  0  0  0  0
   39.1340   23.1110   38.7760 N   0  0  0  0  0  0  0  0  0  0  0  0
   38.1030   25.5220   34.4230 C   0  0  0  0  0  0  0  0  0  0  0  0
   39.2860   26.1900   34.7590 C   0  0  0  0  0  0  0  0  0  0  0  0
   39.0510   27.4000   35.2560 N   0  0  0  0  0  0  0  0  0  0  0  0
   37.7150   27.5410   35.2540 C   0  0  0  0  0  0  0  0  0  0  0  0
   37.1420   26.4300   34.7600 N   0  0  0  0  0  0  0  0  0  0  0  0
   37.4916   22.1042   34.8612 H   0  0  0  0  0  0  0  0  0  0  0  0
   39.4802   22.8636   32.8118 H   0  0  0  0  0  0  0  0  0  0  0  0
   40.3145   23.7087   33.8070 H   0  0  0  0  0  0  0  0  0  0  0  0
   37.1537   24.4335   33.1702 H   0  0  0  0  0  0  0  0  0  0  0  0
   37.1618   23.7519   39.1662 H   0  0  0  0  0  0  0  0  0  0  0  0
   36.5014   23.6884   36.7239 H   0  0  0  0  0  0  0  0  0  0  0  0
   41.0687   22.4590   38.1924 H   0  0  0  0  0  0  0  0  0  0  0  0
   40.2915   25.7639   34.6273 H   0  0  0  0  0  0  0  0  0  0  0  0
   37.1719   28.4313   35.6039 H   0  0  0  0  0  0  0  0  0  0  0  0
   36.1279   26.2855   34.6519 H   0  0  0  0  0  0  0  0  0  0  0  0
  1  6  1  0
  2  3  1  0
  2  1  1  0
  3 10  1  0
  3  1  1  0
  4  9  2  0
  5  4  1  0
  6  7  1  0
  6  5  2  0
  7  8  2  0
  8  9  1  0
 10 11  2  0
 10 14  1  0
 11 12  1  0
 13 12  2  0
 14 13  1  0
  1 15  1  6
  2 16  1  0
  2 17  1  0
  3 18  1  6
  4 19  1  0
  5 20  1  0
  8 21  1  0
 11 22  1  0
 13 23  1  0
 14 24  1  0
M  ISO  8  15  13  16  13  17  13  18  13  19  14  20  14  21  14  22  14
M  ISO  2  23  14  24   9
M  END
>  <minimizedAffinity>  (1) 
-3.78344655

>  <minimizedRMSD>  (1) 
2.94528556

$$$$
