
     RDKit          3D

 22 24  0  0  1  0  0  0  0  0999 V2000
   38.5990   27.0890   34.3500 C   0  0  2  0  0  0  0  0  0  0  0  0
   40.0320   26.7880   34.8740 C   0  0  0  0  0  0  0  0  0  0  0  0
   38.8110   26.5190   35.6530 C   0  0  2  0  0  0  0  0  0  0  0  0
   36.6350   25.0960   31.8400 C   0  0  0  0  0  0  0  0  0  0  0  0
   36.9630   25.8010   33.0230 C   0  0  0  0  0  0  0  0  0  0  0  0
   38.2390   26.3620   33.1330 C   0  0  0  0  0  0  0  0  0  0  0  0
   39.1040   26.2110   32.1150 N   0  0  0  0  0  0  0  0  0  0  0  0
   38.7730   25.5290   30.9820 C   0  0  0  0  0  0  0  0  0  0  0  0
   37.5430   24.9750   30.8470 N   0  0  0  0  0  0  0  0  0  0  0  0
   38.6490   25.0710   35.9950 C   0  0  0  0  0  0  0  0  0  0  0  0
   37.5870   24.5430   36.6740 N   0  0  0  0  0  0  0  0  0  0  0  0
   37.8130   23.2700   36.7690 O   0  0  0  0  0  0  0  0  0  0  0  0
   38.9440   22.9230   36.2020 C   0  0  0  0  0  0  0  0  0  0  0  0
   39.4690   24.0350   35.7190 N   0  0  0  0  0  0  0  0  0  0  0  0
   37.9634   27.9288   34.0325 H   0  0  0  0  0  0  0  0  0  0  0  0
   40.6194   25.9596   34.4513 H   0  0  0  0  0  0  0  0  0  0  0  0
   40.9625   27.3558   35.0212 H   0  0  0  0  0  0  0  0  0  0  0  0
   38.3577   26.8262   36.6070 H   0  0  0  0  0  0  0  0  0  0  0  0
   35.6377   24.6453   31.7290 H   0  0  0  0  0  0  0  0  0  0  0  0
   36.2307   25.9051   33.8372 H   0  0  0  0  0  0  0  0  0  0  0  0
   39.5094   25.4274   30.1712 H   0  0  0  0  0  0  0  0  0  0  0  0
   39.3694   21.9104   36.1410 H   0  0  0  0  0  0  0  0  0  0  0  0
  1  2  1  0
  1  3  1  0
  2  3  1  0
  3 10  1  0
  4  5  2  0
  5  6  1  0
  6  1  1  0
  7  6  2  0
  8  7  1  0
  9  8  2  0
  9  4  1  0
 10 11  2  0
 11 12  1  0
 13 12  1  0
 14 10  1  0
 14 13  2  0
  1 15  1  1
  2 16  1  0
  2 17  1  0
  3 18  1  1
  4 19  1  0
  5 20  1  0
  8 21  1  0
 13 22  1  0
M  ISO  8  15  13  16  13  17  13  18  13  19  14  20  14  21  14  22  14
M  END
>  <minimizedAffinity>  (1) 
-3.68622637

>  <minimizedRMSD>  (1) 
4.79769897

$$$$
