
     RDKit          3D

 27 29  0  0  1  0  0  0  0  0999 V2000
   38.8080   23.5540   34.7390 C   0  0  2  0  0  0  0  0  0  0  0  0
   39.4690   22.1690   34.5480 C   0  0  0  0  0  0  0  0  0  0  0  0
   40.1410   23.4140   34.1940 C   0  0  2  0  0  0  0  0  0  0  0  0
   37.9450   25.5320   37.8190 C   0  0  0  0  0  0  0  0  0  0  0  0
   38.1940   25.2430   36.4790 C   0  0  0  0  0  0  0  0  0  0  0  0
   38.5210   23.9090   36.1350 C   0  0  0  0  0  0  0  0  0  0  0  0
   38.5760   22.9720   37.1220 N   0  0  0  0  0  0  0  0  0  0  0  0
   38.3280   23.2990   38.4100 C   0  0  0  0  0  0  0  0  0  0  0  0
   38.0150   24.5740   38.7450 N   0  0  0  0  0  0  0  0  0  0  0  0
   41.3710   23.7010   34.9730 C   0  0  0  0  0  0  0  0  0  0  0  0
   42.0610   24.8810   34.9540 C   0  0  0  0  0  0  0  0  0  0  0  0
   43.2040   25.1260   35.6810 C   0  0  0  0  0  0  0  0  0  0  0  0
   43.7170   24.1550   36.4880 C   0  0  0  0  0  0  0  0  0  0  0  0
   43.0830   22.9320   36.5670 C   0  0  0  0  0  0  0  0  0  0  0  0
   41.9450   22.7440   35.8190 C   0  0  0  0  0  0  0  0  0  0  0  0
   37.9318   24.1243   34.3969 H   0  0  0  0  0  0  0  0  0  0  0  0
   39.8008   21.5854   35.4194 H   0  0  0  0  0  0  0  0  0  0  0  0
   39.2117   21.2328   34.0310 H   0  0  0  0  0  0  0  0  0  0  0  0
   40.5787   23.8598   33.2886 H   0  0  0  0  0  0  0  0  0  0  0  0
   37.6883   26.5595   38.1163 H   0  0  0  0  0  0  0  0  0  0  0  0
   38.1382   26.0283   35.7107 H   0  0  0  0  0  0  0  0  0  0  0  0
   38.3806   22.5256   39.1905 H   0  0  0  0  0  0  0  0  0  0  0  0
   41.6769   25.6894   34.3145 H   0  0  0  0  0  0  0  0  0  0  0  0
   43.7025   26.1040   35.6107 H   0  0  0  0  0  0  0  0  0  0  0  0
   44.6296   24.3448   37.0720 H   0  0  0  0  0  0  0  0  0  0  0  0
   43.4767   22.1308   37.2098 H   0  0  0  0  0  0  0  0  0  0  0  0
   41.4466   21.7660   35.8906 H   0  0  0  0  0  0  0  0  0  0  0  0
  1  6  1  0
  2  1  1  0
  3  2  1  0
  3  1  1  0
  3 10  1  0
  4  9  2  0
  5  4  1  0
  6  5  2  0
  6  7  1  0
  7  8  2  0
  8  9  1  0
 10 15  1  0
 11 10  2  0
 11 12  1  0
 12 13  2  0
 13 14  1  0
 15 14  2  0
  1 16  1  6
  2 17  1  0
  2 18  1  0
  3 19  1  6
  4 20  1  0
  5 21  1  0
  8 22  1  0
 11 23  1  0
 12 24  1  0
 13 25  1  0
 14 26  1  0
 15 27  1  0
M  ISO  8  16  13  17  13  18  13  19  13  20  14  21  14  22  14  23  14
M  ISO  4  24  14  25  14  26  14  27  14
M  END
>  <minimizedAffinity>  (1) 
-3.63633537

>  <minimizedRMSD>  (1) 
4.77600908

$$$$
