
     RDKit          3D

 44 49  0  0  1  0  0  0  0  0999 V2000
   37.0550   27.7780   34.4390 N   0  0  0  0  0  0  0  0  0  0  0  0
   36.3240   28.9030   34.6790 C   0  0  0  0  0  0  0  0  0  0  0  0
   35.8770   29.3670   33.5160 N   0  0  0  0  0  0  0  0  0  0  0  0
   36.3180   28.5480   32.5350 C   0  0  0  0  0  0  0  0  0  0  0  0
   36.1820   28.5160   31.1840 C   0  0  0  0  0  0  0  0  0  0  0  0
   36.7660   27.5320   30.5170 N   0  0  0  0  0  0  0  0  0  0  0  0
   37.4880   26.5570   31.0670 C   0  0  0  0  0  0  0  0  0  0  0  0
   37.6220   26.5950   32.4240 N   0  0  0  0  0  0  0  0  0  0  0  0
   37.0500   27.5640   33.1310 C   0  0  0  0  0  0  0  0  0  0  0  0
   35.4400   29.5330   30.5430 N   0  0  0  0  0  0  0  0  0  0  0  0
   38.1890   25.4090   30.4850 C   0  0  0  0  0  0  0  0  0  0  0  0
   39.2930   25.5260   29.7340 N   0  0  0  0  0  0  0  0  0  0  0  0
   39.9370   24.4870   29.2020 C   0  0  0  0  0  0  0  0  0  0  0  0
   39.5450   23.2150   29.3640 N   0  0  0  0  0  0  0  0  0  0  0  0
   38.4390   23.0050   30.1080 C   0  0  0  0  0  0  0  0  0  0  0  0
   38.0100   21.7140   30.2960 C   0  0  0  0  0  0  0  0  0  0  0  0
   36.8860   21.4440   31.0480 C   0  0  0  0  0  0  0  0  0  0  0  0
   36.2110   22.5260   31.6060 C   0  0  0  0  0  0  0  0  0  0  0  0
   36.6930   23.7950   31.3800 C   0  0  0  0  0  0  0  0  0  0  0  0
   37.8020   24.1030   30.6400 C   0  0  0  0  0  0  0  0  0  0  0  0
   38.4350   25.8590   35.3580 C   0  0  2  0  0  0  0  0  0  0  0  0
   39.1170   27.2170   35.7410 C   0  0  0  0  0  0  0  0  0  0  0  0
   37.6670   27.0580   35.5230 C   0  0  1  0  0  0  0  0  0  0  0  0
   37.9270   23.8380   38.5010 C   0  0  0  0  0  0  0  0  0  0  0  0
   37.7460   24.8420   37.5540 C   0  0  0  0  0  0  0  0  0  0  0  0
   38.5590   24.8220   36.4090 C   0  0  0  0  0  0  0  0  0  0  0  0
   39.4780   23.8300   36.2830 N   0  0  0  0  0  0  0  0  0  0  0  0
   39.6310   22.8730   37.2150 C   0  0  0  0  0  0  0  0  0  0  0  0
   38.8590   22.8780   38.3190 N   0  0  0  0  0  0  0  0  0  0  0  0
   36.1360   29.3505   35.6661 H   0  0  0  0  0  0  0  0  0  0  0  0
   35.3285   29.5217   29.5191 H   0  0  0  0  0  0  0  0  0  0  0  0
   35.0106   30.2858   31.0995 H   0  0  0  0  0  0  0  0  0  0  0  0
   40.8360   24.6833   28.5993 H   0  0  0  0  0  0  0  0  0  0  0  0
   38.5704   20.8842   29.8407 H   0  0  0  0  0  0  0  0  0  0  0  0
   36.5360   20.4125   31.2011 H   0  0  0  0  0  0  0  0  0  0  0  0
   35.3092   22.3696   32.2162 H   0  0  0  0  0  0  0  0  0  0  0  0
   36.1405   24.6319   31.8321 H   0  0  0  0  0  0  0  0  0  0  0  0
   38.4477   25.1063   34.5560 H   0  0  0  0  0  0  0  0  0  0  0  0
   39.5173   27.3773   36.7530 H   0  0  0  0  0  0  0  0  0  0  0  0
   39.9218   27.8495   35.3382 H   0  0  0  0  0  0  0  0  0  0  0  0
   36.7623   27.2466   36.1197 H   0  0  0  0  0  0  0  0  0  0  0  0
   37.3040   23.8265   39.4075 H   0  0  0  0  0  0  0  0  0  0  0  0
   36.9892   25.6272   37.6981 H   0  0  0  0  0  0  0  0  0  0  0  0
   40.3867   22.0858   37.0760 H   0  0  0  0  0  0  0  0  0  0  0  0
  1  2  1  0
  1 23  1  0
  3  2  2  0
  4  9  2  0
  4  3  1  0
  5  4  1  0
  6  7  1  0
  6  5  2  0
  7  8  2  0
  8  9  1  0
  9  1  1  0
 10  5  1  0
 11 20  1  0
 11  7  1  0
 12 11  2  0
 13 14  2  0
 13 12  1  0
 14 15  1  0
 15 16  1  0
 15 20  2  0
 16 17  2  0
 17 18  1  0
 19 18  2  0
 20 19  1  0
 21 23  1  0
 21 22  1  0
 21 26  1  0
 23 22  1  0
 25 24  2  0
 26 25  1  0
 27 26  2  0
 27 28  1  0
 28 29  2  0
 29 24  1  0
  2 30  1  0
 10 31  1  0
 10 32  1  0
 13 33  1  0
 16 34  1  0
 17 35  1  0
 18 36  1  0
 19 37  1  0
 21 38  1  6
 22 39  1  0
 22 40  1  0
 23 41  1  1
 24 42  1  0
 25 43  1  0
 28 44  1  0
M  ISO  8  30  14  33  14  34  14  35  14  36  14  37  14  38  13  39  13
M  ISO  5  40  13  41  13  42  14  43  14  44  14
M  END
>  <minimizedAffinity>  (1) 
-6.39946938

>  <minimizedRMSD>  (1) 
1.78629756

$$$$
