
     RDKit          3D

 41 45  0  0  1  0  0  0  0  0999 V2000
   37.1080   27.7750   34.3920 N   0  0  0  0  0  0  0  0  0  0  0  0
   36.2660   28.8130   34.6640 C   0  0  0  0  0  0  0  0  0  0  0  0
   35.8140   29.3050   33.5130 N   0  0  0  0  0  0  0  0  0  0  0  0
   36.3610   28.5890   32.5030 C   0  0  0  0  0  0  0  0  0  0  0  0
   36.2730   28.6320   31.1530 C   0  0  0  0  0  0  0  0  0  0  0  0
   36.9720   27.7490   30.4400 N   0  0  0  0  0  0  0  0  0  0  0  0
   37.7600   26.8170   30.9760 C   0  0  0  0  0  0  0  0  0  0  0  0
   37.8530   26.7680   32.3270 N   0  0  0  0  0  0  0  0  0  0  0  0
   37.1630   27.6430   33.0750 C   0  0  0  0  0  0  0  0  0  0  0  0
   35.4450   29.6360   30.5710 N   0  0  0  0  0  0  0  0  0  0  0  0
   38.5110   25.8680   30.2220 N   0  0  0  0  0  0  0  0  0  0  0  0
   39.5410   26.1690   29.3940 C   0  0  0  0  0  0  0  0  0  0  0  0
   40.1780   25.1640   28.7280 C   0  0  0  0  0  0  0  0  0  0  0  0
   39.7800   23.8680   28.8950 C   0  0  0  0  0  0  0  0  0  0  0  0
   40.5070   22.8900   28.1570 N   0  0  0  0  0  0  0  0  0  0  0  0
   38.7700   23.5810   29.7080 N   0  0  0  0  0  0  0  0  0  0  0  0
   38.1200   24.5710   30.3830 C   0  0  0  0  0  0  0  0  0  0  0  0
   37.1760   24.2590   31.1360 O   0  0  0  0  0  0  0  0  0  0  0  0
   38.4220   25.8000   35.2790 C   0  0  2  0  0  0  0  0  0  0  0  0
   39.2190   27.1210   35.5580 C   0  0  0  0  0  0  0  0  0  0  0  0
   37.7450   27.0500   35.4470 C   0  0  1  0  0  0  0  0  0  0  0  0
   37.9610   23.8480   38.4670 C   0  0  0  0  0  0  0  0  0  0  0  0
   37.7650   24.8390   37.5010 C   0  0  0  0  0  0  0  0  0  0  0  0
   38.5620   24.7930   36.3480 C   0  0  0  0  0  0  0  0  0  0  0  0
   39.4740   23.7970   36.2340 N   0  0  0  0  0  0  0  0  0  0  0  0
   39.6450   22.8560   37.1750 C   0  0  0  0  0  0  0  0  0  0  0  0
   38.8860   22.8860   38.2870 N   0  0  0  0  0  0  0  0  0  0  0  0
   36.0044   29.1817   35.6668 H   0  0  0  0  0  0  0  0  0  0  0  0
   35.3541   29.6987   29.5469 H   0  0  0  0  0  0  0  0  0  0  0  0
   34.9376   30.2987   31.1746 H   0  0  0  0  0  0  0  0  0  0  0  0
   39.8598   27.2133   29.2606 H   0  0  0  0  0  0  0  0  0  0  0  0
   41.0153   25.3977   28.0539 H   0  0  0  0  0  0  0  0  0  0  0  0
   40.2579   21.8938   28.2376 H   0  0  0  0  0  0  0  0  0  0  0  0
   41.2817   23.1791   27.5429 H   0  0  0  0  0  0  0  0  0  0  0  0
   38.3237   25.0203   34.5093 H   0  0  0  0  0  0  0  0  0  0  0  0
   39.7006   27.2904   36.5324 H   0  0  0  0  0  0  0  0  0  0  0  0
   40.0324   27.6827   35.0754 H   0  0  0  0  0  0  0  0  0  0  0  0
   36.8958   27.3140   36.0944 H   0  0  0  0  0  0  0  0  0  0  0  0
   37.3533   23.8540   39.3839 H   0  0  0  0  0  0  0  0  0  0  0  0
   37.0113   25.6280   37.6404 H   0  0  0  0  0  0  0  0  0  0  0  0
   40.3989   22.0666   37.0393 H   0  0  0  0  0  0  0  0  0  0  0  0
  1  2  1  0
  1 21  1  0
  3  2  2  0
  4  9  2  0
  4  3  1  0
  5  4  1  0
  6  7  1  0
  6  5  2  0
  7  8  2  0
  8  9  1  0
  9  1  1  0
 10  5  1  0
 11 17  1  0
 11  7  1  0
 12 11  1  0
 13 14  1  0
 13 12  2  0
 14 16  2  0
 15 14  1  0
 16 17  1  0
 17 18  2  0
 19 21  1  0
 19 20  1  0
 19 24  1  0
 21 20  1  0
 23 22  2  0
 24 23  1  0
 25 24  2  0
 25 26  1  0
 26 27  2  0
 27 22  1  0
  2 28  1  0
 10 29  1  0
 10 30  1  0
 12 31  1  0
 13 32  1  0
 15 33  1  0
 15 34  1  0
 19 35  1  6
 20 36  1  0
 20 37  1  0
 21 38  1  1
 22 39  1  0
 23 40  1  0
 26 41  1  0
M  ISO  8  28  14  31  14  32  14  35  13  36  13  37  13  38  13  39  14
M  ISO  2  40  14  41  14
M  END
>  <minimizedAffinity>  (1) 
-6.17110538

>  <minimizedRMSD>  (1) 
0.640761793

$$$$
