
     RDKit          3D

 40 44  0  0  1  0  0  0  0  0999 V2000
   37.1130   27.7460   34.3640 N   0  0  0  0  0  0  0  0  0  0  0  0
   36.2640   28.7680   34.6420 C   0  0  0  0  0  0  0  0  0  0  0  0
   35.8230   29.2700   33.4980 N   0  0  0  0  0  0  0  0  0  0  0  0
   36.3770   28.5850   32.4820 C   0  0  0  0  0  0  0  0  0  0  0  0
   36.3020   28.6420   31.1240 C   0  0  0  0  0  0  0  0  0  0  0  0
   37.0150   27.7690   30.4110 N   0  0  0  0  0  0  0  0  0  0  0  0
   37.8160   26.8210   30.9560 C   0  0  0  0  0  0  0  0  0  0  0  0
   37.8880   26.7680   32.3000 N   0  0  0  0  0  0  0  0  0  0  0  0
   37.1840   27.6300   33.0490 C   0  0  0  0  0  0  0  0  0  0  0  0
   35.4680   29.6260   30.5510 N   0  0  0  0  0  0  0  0  0  0  0  0
   38.5580   25.9110   30.1740 N   0  0  0  0  0  0  0  0  0  0  0  0
   39.5840   26.2960   29.3810 C   0  0  0  0  0  0  0  0  0  0  0  0
   40.3020   25.3900   28.6210 C   0  0  0  0  0  0  0  0  0  0  0  0
   39.9550   24.0520   28.6800 C   0  0  0  0  0  0  0  0  0  0  0  0
   40.6020   23.2030   27.9900 O   0  0  0  0  0  0  0  0  0  0  0  0
   38.9270   23.6520   29.4740 N   0  0  0  0  0  0  0  0  0  0  0  0
   38.2700   24.5900   30.1870 C   0  0  0  0  0  0  0  0  0  0  0  0
   37.3200   24.1580   30.9100 O   0  0  0  0  0  0  0  0  0  0  0  0
   38.4400   25.7850   35.2500 C   0  0  2  0  0  0  0  0  0  0  0  0
   39.2150   27.1140   35.5680 C   0  0  0  0  0  0  0  0  0  0  0  0
   37.7320   27.0210   35.4250 C   0  0  1  0  0  0  0  0  0  0  0  0
   37.9600   23.8670   38.4690 C   0  0  0  0  0  0  0  0  0  0  0  0
   37.7900   24.8210   37.4760 C   0  0  0  0  0  0  0  0  0  0  0  0
   38.5840   24.7750   36.3150 C   0  0  0  0  0  0  0  0  0  0  0  0
   39.5010   23.7790   36.2140 N   0  0  0  0  0  0  0  0  0  0  0  0
   39.6510   22.8640   37.1850 C   0  0  0  0  0  0  0  0  0  0  0  0
   38.8960   22.8980   38.3030 N   0  0  0  0  0  0  0  0  0  0  0  0
   35.9887   29.1199   35.6472 H   0  0  0  0  0  0  0  0  0  0  0  0
   35.3863   29.6991   29.5268 H   0  0  0  0  0  0  0  0  0  0  0  0
   34.9411   30.2710   31.1570 H   0  0  0  0  0  0  0  0  0  0  0  0
   39.8555   27.3611   29.3392 H   0  0  0  0  0  0  0  0  0  0  0  0
   41.1321   25.7267   27.9826 H   0  0  0  0  0  0  0  0  0  0  0  0
   38.6569   22.6596   29.5298 H   0  0  0  0  0  0  0  0  0  0  0  0
   38.3668   25.0180   34.4649 H   0  0  0  0  0  0  0  0  0  0  0  0
   39.6749   27.2733   36.5545 H   0  0  0  0  0  0  0  0  0  0  0  0
   40.0295   27.6958   35.1118 H   0  0  0  0  0  0  0  0  0  0  0  0
   36.8654   27.2603   36.0588 H   0  0  0  0  0  0  0  0  0  0  0  0
   37.3438   23.8955   39.3797 H   0  0  0  0  0  0  0  0  0  0  0  0
   37.0355   25.6124   37.5961 H   0  0  0  0  0  0  0  0  0  0  0  0
   40.4041   22.0710   37.0669 H   0  0  0  0  0  0  0  0  0  0  0  0
  1  2  1  0
  1 21  1  0
  3  2  2  0
  4  9  2  0
  4  3  1  0
  5  4  1  0
  6  7  1  0
  6  5  2  0
  7  8  2  0
  8  9  1  0
  9  1  1  0
 10  5  1  0
 11 17  1  0
 11  7  1  0
 12 11  1  0
 13 14  1  0
 13 12  2  0
 14 16  1  0
 15 14  2  0
 16 17  1  0
 17 18  2  0
 19 21  1  0
 19 20  1  0
 19 24  1  0
 21 20  1  0
 23 22  2  0
 24 23  1  0
 25 24  2  0
 25 26  1  0
 26 27  2  0
 27 22  1  0
  2 28  1  0
 10 29  1  0
 10 30  1  0
 12 31  1  0
 13 32  1  0
 16 33  1  0
 19 34  1  6
 20 35  1  0
 20 36  1  0
 21 37  1  1
 22 38  1  0
 23 39  1  0
 26 40  1  0
M  ISO  8  28  14  31  14  32  14  33   9  34  13  35  13  36  13  37  13
M  ISO  3  38  14  39  14  40  14
M  END
>  <minimizedAffinity>  (1) 
-6.15169048

>  <minimizedRMSD>  (1) 
0.572082639

$$$$
