
     RDKit          3D

 37 40  0  0  1  0  0  0  0  0999 V2000
   37.0480   27.8720   34.3640 N   0  0  0  0  0  0  0  0  0  0  0  0
   36.1350   28.8100   34.7290 C   0  0  0  0  0  0  0  0  0  0  0  0
   35.6310   29.3620   33.6270 N   0  0  0  0  0  0  0  0  0  0  0  0
   36.2130   28.7840   32.5580 C   0  0  0  0  0  0  0  0  0  0  0  0
   36.1100   28.9270   31.2140 C   0  0  0  0  0  0  0  0  0  0  0  0
   36.8690   28.1610   30.4270 N   0  0  0  0  0  0  0  0  0  0  0  0
   37.7320   27.2540   30.8830 C   0  0  0  0  0  0  0  0  0  0  0  0
   37.8410   27.1070   32.2260 N   0  0  0  0  0  0  0  0  0  0  0  0
   37.0970   27.8570   33.0470 C   0  0  0  0  0  0  0  0  0  0  0  0
   35.2000   29.8920   30.7090 N   0  0  0  0  0  0  0  0  0  0  0  0
   38.5490   26.4280   30.0650 N   0  0  0  0  0  0  0  0  0  0  0  0
   38.6600   25.0500   30.3700 C   0  0  0  0  0  0  0  0  0  0  0  0
   38.7520   24.6260   31.5620 N   0  0  0  0  0  0  0  0  0  0  0  0
   38.6740   24.0880   29.2930 N   0  0  0  0  0  0  0  0  0  0  0  0
   38.7480   25.2790   32.3580 H   0  0  0  0  0  0  0  0  0  0  0  0
   38.3450   25.8390   35.1290 C   0  0  2  0  0  0  0  0  0  0  0  0
   39.2350   27.1190   35.3220 C   0  0  0  0  0  0  0  0  0  0  0  0
   37.7460   27.1210   35.3580 C   0  0  1  0  0  0  0  0  0  0  0  0
   38.0470   23.9300   38.3670 C   0  0  0  0  0  0  0  0  0  0  0  0
   37.8210   24.8850   37.3910 C   0  0  0  0  0  0  0  0  0  0  0  0
   38.5460   24.8270   36.1880 C   0  0  0  0  0  0  0  0  0  0  0  0
   39.4490   23.8270   36.0250 N   0  0  0  0  0  0  0  0  0  0  0  0
   39.6450   22.9100   36.9990 C   0  0  0  0  0  0  0  0  0  0  0  0
   38.9560   22.9550   38.1560 N   0  0  0  0  0  0  0  0  0  0  0  0
   35.8587   29.0697   35.7616 H   0  0  0  0  0  0  0  0  0  0  0  0
   35.1001   30.0232   29.6923 H   0  0  0  0  0  0  0  0  0  0  0  0
   34.6395   30.4612   31.3592 H   0  0  0  0  0  0  0  0  0  0  0  0
   39.0539   26.8266   29.2606 H   0  0  0  0  0  0  0  0  0  0  0  0
   38.7543   23.0825   29.5016 H   0  0  0  0  0  0  0  0  0  0  0  0
   38.6037   24.4073   28.3163 H   0  0  0  0  0  0  0  0  0  0  0  0
   38.1304   25.0665   34.3759 H   0  0  0  0  0  0  0  0  0  0  0  0
   39.8189   27.2630   36.2430 H   0  0  0  0  0  0  0  0  0  0  0  0
   40.0241   27.6392   34.7591 H   0  0  0  0  0  0  0  0  0  0  0  0
   36.9789   27.4264   36.0848 H   0  0  0  0  0  0  0  0  0  0  0  0
   37.4867   23.9656   39.3130 H   0  0  0  0  0  0  0  0  0  0  0  0
   37.0809   25.6820   37.5551 H   0  0  0  0  0  0  0  0  0  0  0  0
   40.3833   22.1095   36.8434 H   0  0  0  0  0  0  0  0  0  0  0  0
  1  2  1  0
  1 18  1  0
  3  2  2  0
  4  9  2  0
  4  3  1  0
  5  4  1  0
  6  7  1  0
  6  5  2  0
  7  8  2  0
  8  9  1  0
  9  1  1  0
 10  5  1  0
 11 12  1  0
 11  7  1  0
 12 13  2  0
 13 15  1  0
 14 12  1  0
 16 17  1  0
 16 18  1  0
 16 21  1  0
 17 18  1  0
 20 19  2  0
 21 20  1  0
 22 21  2  0
 22 23  1  0
 23 24  2  0
 24 19  1  0
  2 25  1  0
 10 26  1  0
 10 27  1  0
 11 28  1  0
 14 29  1  0
 14 30  1  0
 16 31  1  6
 17 32  1  0
 17 33  1  0
 18 34  1  1
 19 35  1  0
 20 36  1  0
 23 37  1  0
M  ISO  8  25  14  31  13  32  13  33  13  34  13  35  14  36  14  37  14
M  END
>  <minimizedAffinity>  (1) 
-6.08161831

>  <minimizedRMSD>  (1) 
0.412587285

$$$$
