
     RDKit          3D

 43 47  0  0  1  0  0  0  0  0999 V2000
   37.1960   27.7020   34.2640 N   0  0  0  0  0  0  0  0  0  0  0  0
   36.2350   28.6380   34.4870 C   0  0  0  0  0  0  0  0  0  0  0  0
   35.8440   29.1390   33.3170 N   0  0  0  0  0  0  0  0  0  0  0  0
   36.5470   28.5310   32.3360 C   0  0  0  0  0  0  0  0  0  0  0  0
   36.5800   28.6230   30.9870 C   0  0  0  0  0  0  0  0  0  0  0  0
   37.4270   27.8430   30.3150 N   0  0  0  0  0  0  0  0  0  0  0  0
   38.2510   26.9680   30.8970 C   0  0  0  0  0  0  0  0  0  0  0  0
   38.2230   26.8700   32.2470 N   0  0  0  0  0  0  0  0  0  0  0  0
   37.3870   27.6370   32.9580 C   0  0  0  0  0  0  0  0  0  0  0  0
   35.7030   29.5540   30.3670 N   0  0  0  0  0  0  0  0  0  0  0  0
   39.1560   26.1330   30.1850 N   0  0  0  0  0  0  0  0  0  0  0  0
   39.5430   24.8270   30.6880 C   0  0  0  0  0  0  0  0  0  0  0  0
   39.0270   23.8160   29.6860 C   0  0  0  0  0  0  0  0  0  0  0  0
   39.2510   24.2370   28.4010 O   0  0  0  0  0  0  0  0  0  0  0  0
   40.1740   25.2420   28.2450 C   0  0  0  0  0  0  0  0  0  0  0  0
   39.7420   26.5360   28.9210 C   0  0  0  0  0  0  0  0  0  0  0  0
   38.5090   25.7640   35.2210 C   0  0  2  0  0  0  0  0  0  0  0  0
   39.2610   27.1070   35.5330 C   0  0  0  0  0  0  0  0  0  0  0  0
   37.7950   27.0010   35.3480 C   0  0  1  0  0  0  0  0  0  0  0  0
   37.9420   23.8750   38.4350 C   0  0  0  0  0  0  0  0  0  0  0  0
   37.7910   24.8350   37.4400 C   0  0  0  0  0  0  0  0  0  0  0  0
   38.6160   24.7650   36.3020 C   0  0  0  0  0  0  0  0  0  0  0  0
   39.5270   23.7650   36.2220 N   0  0  0  0  0  0  0  0  0  0  0  0
   39.6610   22.8440   37.1950 C   0  0  0  0  0  0  0  0  0  0  0  0
   38.8700   22.8970   38.3020 N   0  0  0  0  0  0  0  0  0  0  0  0
   35.8447   28.9328   35.4723 H   0  0  0  0  0  0  0  0  0  0  0  0
   35.6985   29.6533   29.3418 H   0  0  0  0  0  0  0  0  0  0  0  0
   35.0719   30.1293   30.9429 H   0  0  0  0  0  0  0  0  0  0  0  0
   40.6379   24.7589   30.7684 H   0  0  0  0  0  0  0  0  0  0  0  0
   39.1272   24.6451   31.6900 H   0  0  0  0  0  0  0  0  0  0  0  0
   39.5423   22.8572   29.8450 H   0  0  0  0  0  0  0  0  0  0  0  0
   37.9429   23.7009   29.8322 H   0  0  0  0  0  0  0  0  0  0  0  0
   41.1288   24.9160   28.6833 H   0  0  0  0  0  0  0  0  0  0  0  0
   40.2729   25.4427   27.1680 H   0  0  0  0  0  0  0  0  0  0  0  0
   40.6100   27.1902   29.0903 H   0  0  0  0  0  0  0  0  0  0  0  0
   39.0307   27.1030   28.3025 H   0  0  0  0  0  0  0  0  0  0  0  0
   38.4687   24.9788   34.4517 H   0  0  0  0  0  0  0  0  0  0  0  0
   39.6886   27.2919   36.5295 H   0  0  0  0  0  0  0  0  0  0  0  0
   40.0844   27.6856   35.0889 H   0  0  0  0  0  0  0  0  0  0  0  0
   36.9088   27.2490   35.9507 H   0  0  0  0  0  0  0  0  0  0  0  0
   37.3064   23.9099   39.3321 H   0  0  0  0  0  0  0  0  0  0  0  0
   37.0412   25.6336   37.5406 H   0  0  0  0  0  0  0  0  0  0  0  0
   40.4118   22.0463   37.0953 H   0  0  0  0  0  0  0  0  0  0  0  0
  1  2  1  0
  1 19  1  0
  3  2  2  0
  4  9  2  0
  4  3  1  0
  5  4  1  0
  6  7  1  0
  6  5  2  0
  7  8  2  0
  8  9  1  0
  9  1  1  0
 10  5  1  0
 11 12  1  0
 11  7  1  0
 13 12  1  0
 14 13  1  0
 15 14  1  0
 15 16  1  0
 16 11  1  0
 17 19  1  0
 17 18  1  0
 17 22  1  0
 19 18  1  0
 21 20  2  0
 22 21  1  0
 23 22  2  0
 23 24  1  0
 24 25  2  0
 25 20  1  0
  2 26  1  0
 10 27  1  0
 10 28  1  0
 12 29  1  0
 12 30  1  0
 13 31  1  0
 13 32  1  0
 15 33  1  0
 15 34  1  0
 16 35  1  0
 16 36  1  0
 17 37  1  6
 18 38  1  0
 18 39  1  0
 19 40  1  1
 20 41  1  0
 21 42  1  0
 24 43  1  0
M  ISO  8  26  14  29  13  30  13  31  13  32  13  33  13  34  13  35  13
M  ISO  8  36  13  37  13  38  13  39  13  40  13  41  14  42  14  43  14
M  END
>  <minimizedAffinity>  (1) 
-5.95895243

>  <minimizedRMSD>  (1) 
0.149498984

$$$$
