
     RDKit          3D

 46 50  0  0  1  0  0  0  0  0999 V2000
   37.1680   27.6590   34.1920 N   0  0  0  0  0  0  0  0  0  0  0  0
   36.1090   28.5010   34.3340 C   0  0  0  0  0  0  0  0  0  0  0  0
   35.8100   29.0110   33.1390 N   0  0  0  0  0  0  0  0  0  0  0  0
   36.6780   28.4960   32.2320 C   0  0  0  0  0  0  0  0  0  0  0  0
   36.8480   28.6500   30.8990 C   0  0  0  0  0  0  0  0  0  0  0  0
   37.8310   27.9680   30.3070 N   0  0  0  0  0  0  0  0  0  0  0  0
   38.6580   27.1430   30.9510 C   0  0  0  0  0  0  0  0  0  0  0  0
   38.4900   26.9880   32.2870 N   0  0  0  0  0  0  0  0  0  0  0  0
   37.5130   27.6560   32.9180 C   0  0  0  0  0  0  0  0  0  0  0  0
   35.9660   29.5400   30.2120 N   0  0  0  0  0  0  0  0  0  0  0  0
   38.5470   25.8140   35.2460 C   0  0  2  0  0  0  0  0  0  0  0  0
   39.1250   27.2100   35.6820 C   0  0  0  0  0  0  0  0  0  0  0  0
   37.7030   26.9690   35.3200 C   0  0  1  0  0  0  0  0  0  0  0  0
   37.9060   23.8680   38.4080 C   0  0  0  0  0  0  0  0  0  0  0  0
   37.7900   24.8380   37.4300 C   0  0  0  0  0  0  0  0  0  0  0  0
   38.6340   24.7930   36.3010 C   0  0  0  0  0  0  0  0  0  0  0  0
   39.5410   23.7890   36.2180 N   0  0  0  0  0  0  0  0  0  0  0  0
   39.6350   22.8520   37.1880 C   0  0  0  0  0  0  0  0  0  0  0  0
   38.8320   22.8860   38.2700 N   0  0  0  0  0  0  0  0  0  0  0  0
   39.7510   26.3870   30.2810 C   0  0  0  0  0  0  0  0  0  0  0  0
   39.6230   26.4460   28.7720 C   0  0  0  0  0  0  0  0  0  0  0  0
   40.5080   25.3270   28.2230 C   0  0  0  0  0  0  0  0  0  0  0  0
   39.7340   24.0320   28.3600 C   0  0  0  0  0  0  0  0  0  0  0  0
   38.8940   24.1470   29.6160 C   0  0  0  0  0  0  0  0  0  0  0  0
   39.6070   24.9350   30.6880 C   0  0  0  0  0  0  0  0  0  0  0  0
   35.5871   28.7236   35.2764 H   0  0  0  0  0  0  0  0  0  0  0  0
   36.0658   29.6821   29.1967 H   0  0  0  0  0  0  0  0  0  0  0  0
   35.2305   30.0394   30.7321 H   0  0  0  0  0  0  0  0  0  0  0  0
   38.6698   25.0588   34.4557 H   0  0  0  0  0  0  0  0  0  0  0  0
   39.4145   27.3962   36.7267 H   0  0  0  0  0  0  0  0  0  0  0  0
   39.9331   27.8809   35.3551 H   0  0  0  0  0  0  0  0  0  0  0  0
   36.7310   27.1023   35.8174 H   0  0  0  0  0  0  0  0  0  0  0  0
   37.2520   23.8921   39.2921 H   0  0  0  0  0  0  0  0  0  0  0  0
   37.0440   25.6400   37.5317 H   0  0  0  0  0  0  0  0  0  0  0  0
   40.3796   22.0480   37.0926 H   0  0  0  0  0  0  0  0  0  0  0  0
   40.7178   26.8225   30.5738 H   0  0  0  0  0  0  0  0  0  0  0  0
   38.5769   26.2864   28.4718 H   0  0  0  0  0  0  0  0  0  0  0  0
   39.9312   27.4274   28.3824 H   0  0  0  0  0  0  0  0  0  0  0  0
   41.4430   25.2694   28.7995 H   0  0  0  0  0  0  0  0  0  0  0  0
   40.7672   25.5163   27.1709 H   0  0  0  0  0  0  0  0  0  0  0  0
   39.0851   23.8855   27.4839 H   0  0  0  0  0  0  0  0  0  0  0  0
   40.4169   23.1719   28.4226 H   0  0  0  0  0  0  0  0  0  0  0  0
   37.9491   24.6532   29.3690 H   0  0  0  0  0  0  0  0  0  0  0  0
   38.7064   23.1333   29.9998 H   0  0  0  0  0  0  0  0  0  0  0  0
   40.6065   24.5043   30.8479 H   0  0  0  0  0  0  0  0  0  0  0  0
   39.0163   24.8850   31.6146 H   0  0  0  0  0  0  0  0  0  0  0  0
  1  2  1  0
  1 13  1  0
  3  2  2  0
  4  9  2  0
  4  3  1  0
  5  4  1  0
  6  5  2  0
  6  7  1  0
  7  8  2  0
  8  9  1  0
  9  1  1  0
 10  5  1  0
 11 13  1  0
 11 12  1  0
 11 16  1  0
 13 12  1  0
 15 14  2  0
 16 15  1  0
 17 16  2  0
 17 18  1  0
 18 19  2  0
 19 14  1  0
 20 25  1  0
 20  7  1  0
 21 20  1  0
 22 23  1  0
 22 21  1  0
 23 24  1  0
 24 25  1  0
  2 26  1  0
 10 27  1  0
 10 28  1  0
 11 29  1  6
 12 30  1  0
 12 31  1  0
 13 32  1  1
 14 33  1  0
 15 34  1  0
 18 35  1  0
 20 36  1  0
 21 37  1  0
 21 38  1  0
 22 39  1  0
 22 40  1  0
 23 41  1  0
 23 42  1  0
 24 43  1  0
 24 44  1  0
 25 45  1  0
 25 46  1  0
M  ISO  8  26  14  29  13  30  13  31  13  32  13  33  14  34  14  35  14
M  ISO  8  36  13  37  13  38  13  39  13  40  13  41  13  42  13  43  13
M  ISO  3  44  13  45  13  46  13
M  END
>  <minimizedAffinity>  (1) 
-5.6788373

>  <minimizedRMSD>  (1) 
0.559020579

$$$$
