
     RDKit          3D

 40 44  0  0  1  0  0  0  0  0999 V2000
   37.1200   27.7340   34.3500 N   0  0  0  0  0  0  0  0  0  0  0  0
   36.2480   28.7430   34.6240 C   0  0  0  0  0  0  0  0  0  0  0  0
   35.8180   29.2490   33.4680 N   0  0  0  0  0  0  0  0  0  0  0  0
   36.4030   28.5720   32.4650 C   0  0  0  0  0  0  0  0  0  0  0  0
   36.3550   28.6350   31.1090 C   0  0  0  0  0  0  0  0  0  0  0  0
   37.0880   27.7860   30.3990 N   0  0  0  0  0  0  0  0  0  0  0  0
   37.8950   26.8470   30.9480 C   0  0  0  0  0  0  0  0  0  0  0  0
   37.9480   26.7810   32.2960 N   0  0  0  0  0  0  0  0  0  0  0  0
   37.2180   27.6250   33.0400 C   0  0  0  0  0  0  0  0  0  0  0  0
   35.5090   29.6100   30.5230 N   0  0  0  0  0  0  0  0  0  0  0  0
   38.6820   25.9380   30.1230 C   0  0  0  0  0  0  0  0  0  0  0  0
   38.4710   24.5790   30.2690 C   0  0  0  0  0  0  0  0  0  0  0  0
   39.1810   23.6590   29.5200 C   0  0  0  0  0  0  0  0  0  0  0  0
   40.1060   24.1890   28.6270 C   0  0  0  0  0  0  0  0  0  0  0  0
   40.3360   25.5270   28.4620 C   0  0  0  0  0  0  0  0  0  0  0  0
   39.6110   26.4160   29.2240 C   0  0  0  0  0  0  0  0  0  0  0  0
   38.4610   25.7830   35.2610 C   0  0  2  0  0  0  0  0  0  0  0  0
   39.2180   27.1190   35.5630 C   0  0  0  0  0  0  0  0  0  0  0  0
   37.7390   27.0120   35.4160 C   0  0  1  0  0  0  0  0  0  0  0  0
   37.9570   23.8570   38.4660 C   0  0  0  0  0  0  0  0  0  0  0  0
   37.7890   24.8260   37.4810 C   0  0  0  0  0  0  0  0  0  0  0  0
   38.5930   24.7790   36.3280 C   0  0  0  0  0  0  0  0  0  0  0  0
   39.5080   23.7820   36.2200 N   0  0  0  0  0  0  0  0  0  0  0  0
   39.6530   22.8510   37.1920 C   0  0  0  0  0  0  0  0  0  0  0  0
   38.8840   22.8880   38.3050 N   0  0  0  0  0  0  0  0  0  0  0  0
   35.9495   29.0824   35.6269 H   0  0  0  0  0  0  0  0  0  0  0  0
   35.4461   29.6881   29.4979 H   0  0  0  0  0  0  0  0  0  0  0  0
   34.9572   30.2402   31.1223 H   0  0  0  0  0  0  0  0  0  0  0  0
   37.7245   24.2235   30.9945 H   0  0  0  0  0  0  0  0  0  0  0  0
   39.0240   22.5752   29.6240 H   0  0  0  0  0  0  0  0  0  0  0  0
   40.6902   23.4869   28.0140 H   0  0  0  0  0  0  0  0  0  0  0  0
   41.0826   25.8847   27.7376 H   0  0  0  0  0  0  0  0  0  0  0  0
   39.7720   27.4988   29.1160 H   0  0  0  0  0  0  0  0  0  0  0  0
   38.4082   25.0054   34.4848 H   0  0  0  0  0  0  0  0  0  0  0  0
   39.6724   27.2958   36.5490 H   0  0  0  0  0  0  0  0  0  0  0  0
   40.0287   27.7022   35.1018 H   0  0  0  0  0  0  0  0  0  0  0  0
   36.8625   27.2429   36.0392 H   0  0  0  0  0  0  0  0  0  0  0  0
   37.3361   23.8804   39.3737 H   0  0  0  0  0  0  0  0  0  0  0  0
   37.0365   25.6190   37.6029 H   0  0  0  0  0  0  0  0  0  0  0  0
   40.4041   22.0557   37.0759 H   0  0  0  0  0  0  0  0  0  0  0  0
  1  2  1  0
  1 19  1  0
  3  2  2  0
  4  9  2  0
  4  3  1  0
  5  4  1  0
  6  7  1  0
  6  5  2  0
  7  8  2  0
  8  9  1  0
  9  1  1  0
 10  5  1  0
 11 12  2  0
 11  7  1  0
 13 12  1  0
 14 13  2  0
 15 14  1  0
 15 16  2  0
 16 11  1  0
 17 19  1  0
 17 18  1  0
 17 22  1  0
 19 18  1  0
 21 20  2  0
 22 21  1  0
 23 22  2  0
 23 24  1  0
 24 25  2  0
 25 20  1  0
  2 26  1  0
 10 27  1  0
 10 28  1  0
 12 29  1  0
 13 30  1  0
 14 31  1  0
 15 32  1  0
 16 33  1  0
 17 34  1  6
 18 35  1  0
 18 36  1  0
 19 37  1  1
 20 38  1  0
 21 39  1  0
 24 40  1  0
M  ISO  8  26  14  29  14  30  14  31  14  32  14  33  14  34  13  35  13
M  ISO  5  36  13  37  13  38  14  39  14  40  14
M  END
>  <minimizedAffinity>  (1) 
-5.66604233

>  <minimizedRMSD>  (1) 
0.580526531

$$$$
