
     RDKit          3D

 38 42  0  0  1  0  0  0  0  0999 V2000
   37.1200   27.7440   34.3630 N   0  0  0  0  0  0  0  0  0  0  0  0
   36.2520   28.7500   34.6300 C   0  0  0  0  0  0  0  0  0  0  0  0
   35.8140   29.2500   33.4740 N   0  0  0  0  0  0  0  0  0  0  0  0
   36.4000   28.5640   32.4710 C   0  0  0  0  0  0  0  0  0  0  0  0
   36.3430   28.6240   31.1160 C   0  0  0  0  0  0  0  0  0  0  0  0
   37.0810   27.7670   30.4090 N   0  0  0  0  0  0  0  0  0  0  0  0
   37.8790   26.8480   30.9550 C   0  0  0  0  0  0  0  0  0  0  0  0
   37.9400   26.7840   32.3060 N   0  0  0  0  0  0  0  0  0  0  0  0
   37.2090   27.6310   33.0480 C   0  0  0  0  0  0  0  0  0  0  0  0
   35.4910   29.6120   30.5320 N   0  0  0  0  0  0  0  0  0  0  0  0
   38.4530   25.7830   35.2600 C   0  0  2  0  0  0  0  0  0  0  0  0
   39.2250   27.1150   35.5660 C   0  0  0  0  0  0  0  0  0  0  0  0
   37.7480   27.0210   35.4240 C   0  0  1  0  0  0  0  0  0  0  0  0
   37.9630   23.8600   38.4640 C   0  0  0  0  0  0  0  0  0  0  0  0
   37.7870   24.8210   37.4880 C   0  0  0  0  0  0  0  0  0  0  0  0
   38.5930   24.7710   36.3260 C   0  0  0  0  0  0  0  0  0  0  0  0
   39.5080   23.7760   36.2170 N   0  0  0  0  0  0  0  0  0  0  0  0
   39.6490   22.8540   37.1940 C   0  0  0  0  0  0  0  0  0  0  0  0
   38.8870   22.8940   38.3040 N   0  0  0  0  0  0  0  0  0  0  0  0
   38.6670   25.9340   30.1360 C   0  0  0  0  0  0  0  0  0  0  0  0
   38.4980   24.5730   30.2770 C   0  0  0  0  0  0  0  0  0  0  0  0
   39.2810   23.7820   29.4640 C   0  0  0  0  0  0  0  0  0  0  0  0
   40.1680   24.2870   28.5770 N   0  0  0  0  0  0  0  0  0  0  0  0
   40.3000   25.6200   28.4710 C   0  0  0  0  0  0  0  0  0  0  0  0
   39.5440   26.4400   29.2570 N   0  0  0  0  0  0  0  0  0  0  0  0
   35.9582   29.0960   35.6320 H   0  0  0  0  0  0  0  0  0  0  0  0
   35.4198   29.6900   29.5074 H   0  0  0  0  0  0  0  0  0  0  0  0
   34.9483   30.2459   31.1357 H   0  0  0  0  0  0  0  0  0  0  0  0
   38.3813   25.0087   34.4820 H   0  0  0  0  0  0  0  0  0  0  0  0
   39.6843   27.2836   36.5512 H   0  0  0  0  0  0  0  0  0  0  0  0
   40.0390   27.6933   35.1046 H   0  0  0  0  0  0  0  0  0  0  0  0
   36.8808   27.2650   36.0553 H   0  0  0  0  0  0  0  0  0  0  0  0
   37.3465   23.8839   39.3747 H   0  0  0  0  0  0  0  0  0  0  0  0
   37.0328   25.6121   37.6118 H   0  0  0  0  0  0  0  0  0  0  0  0
   40.3988   22.0570   37.0813 H   0  0  0  0  0  0  0  0  0  0  0  0
   37.7823   24.1447   30.9942 H   0  0  0  0  0  0  0  0  0  0  0  0
   39.1797   22.6893   29.5402 H   0  0  0  0  0  0  0  0  0  0  0  0
   41.0149   26.0486   27.7532 H   0  0  0  0  0  0  0  0  0  0  0  0
  1  2  1  0
  1 13  1  0
  3  2  2  0
  4  9  2  0
  4  3  1  0
  5  4  1  0
  6  7  1  0
  6  5  2  0
  7  8  2  0
  8  9  1  0
  9  1  1  0
 10  5  1  0
 11 13  1  0
 11 12  1  0
 11 16  1  0
 13 12  1  0
 15 14  2  0
 16 15  1  0
 17 16  2  0
 17 18  1  0
 18 19  2  0
 19 14  1  0
 20 21  2  0
 20  7  1  0
 22 21  1  0
 23 22  2  0
 24 23  1  0
 24 25  2  0
 25 20  1  0
  2 26  1  0
 10 27  1  0
 10 28  1  0
 11 29  1  6
 12 30  1  0
 12 31  1  0
 13 32  1  1
 14 33  1  0
 15 34  1  0
 18 35  1  0
 21 36  1  0
 22 37  1  0
 24 38  1  0
M  ISO  8  26  14  29  13  30  13  31  13  32  13  33  14  34  14  35  14
M  ISO  3  36  14  37  14  38  14
M  END
>  <minimizedAffinity>  (1) 
-5.59832764

>  <minimizedRMSD>  (1) 
0.483637601

$$$$
