
     RDKit          3D

 37 41  0  0  1  0  0  0  0  0999 V2000
   37.1420   27.7430   34.3230 N   0  0  0  0  0  0  0  0  0  0  0  0
   36.2330   28.7190   34.5920 C   0  0  0  0  0  0  0  0  0  0  0  0
   35.8050   29.2290   33.4390 N   0  0  0  0  0  0  0  0  0  0  0  0
   36.4360   28.5810   32.4270 C   0  0  0  0  0  0  0  0  0  0  0  0
   36.4030   28.6730   31.0810 C   0  0  0  0  0  0  0  0  0  0  0  0
   37.1830   27.8570   30.3700 N   0  0  0  0  0  0  0  0  0  0  0  0
   37.9980   26.9510   30.9150 C   0  0  0  0  0  0  0  0  0  0  0  0
   38.0380   26.8510   32.2640 N   0  0  0  0  0  0  0  0  0  0  0  0
   37.2640   27.6590   33.0050 C   0  0  0  0  0  0  0  0  0  0  0  0
   35.5410   29.6380   30.4910 N   0  0  0  0  0  0  0  0  0  0  0  0
   38.4580   25.7770   35.2240 C   0  0  2  0  0  0  0  0  0  0  0  0
   39.2500   27.1020   35.5080 C   0  0  0  0  0  0  0  0  0  0  0  0
   37.7670   27.0210   35.3820 C   0  0  1  0  0  0  0  0  0  0  0  0
   37.9700   23.8770   38.4430 C   0  0  0  0  0  0  0  0  0  0  0  0
   37.7960   24.8360   37.4540 C   0  0  0  0  0  0  0  0  0  0  0  0
   38.5940   24.7740   36.2970 C   0  0  0  0  0  0  0  0  0  0  0  0
   39.5030   23.7760   36.1980 N   0  0  0  0  0  0  0  0  0  0  0  0
   39.6500   22.8570   37.1750 C   0  0  0  0  0  0  0  0  0  0  0  0
   38.8900   22.9090   38.2870 N   0  0  0  0  0  0  0  0  0  0  0  0
   38.8440   26.0700   30.0900 C   0  0  0  0  0  0  0  0  0  0  0  0
   38.7890   24.6700   30.1150 C   0  0  0  0  0  0  0  0  0  0  0  0
   39.6370   23.9760   29.2920 C   0  0  0  0  0  0  0  0  0  0  0  0
   40.5340   24.6230   28.4480 C   0  0  0  0  0  0  0  0  0  0  0  0
   40.1720   26.4490   28.8300 S   0  0  0  0  0  0  0  0  0  0  0  0
   35.9064   29.0339   35.5941 H   0  0  0  0  0  0  0  0  0  0  0  0
   35.4958   29.7300   29.4661 H   0  0  0  0  0  0  0  0  0  0  0  0
   34.9619   30.2450   31.0886 H   0  0  0  0  0  0  0  0  0  0  0  0
   38.3717   24.9962   34.4540 H   0  0  0  0  0  0  0  0  0  0  0  0
   39.7217   27.2754   36.4865 H   0  0  0  0  0  0  0  0  0  0  0  0
   40.0657   27.6664   35.0326 H   0  0  0  0  0  0  0  0  0  0  0  0
   36.9067   27.2761   36.0182 H   0  0  0  0  0  0  0  0  0  0  0  0
   37.3550   23.9092   39.3544 H   0  0  0  0  0  0  0  0  0  0  0  0
   37.0460   25.6317   37.5733 H   0  0  0  0  0  0  0  0  0  0  0  0
   40.3973   22.0576   37.0629 H   0  0  0  0  0  0  0  0  0  0  0  0
   38.0853   24.1432   30.7763 H   0  0  0  0  0  0  0  0  0  0  0  0
   39.6076   22.8764   29.2989 H   0  0  0  0  0  0  0  0  0  0  0  0
   41.2613   24.1912   27.7447 H   0  0  0  0  0  0  0  0  0  0  0  0
  1  2  1  0
  1 13  1  0
  3  2  2  0
  4  9  2  0
  4  3  1  0
  5  4  1  0
  6  7  1  0
  6  5  2  0
  7  8  2  0
  8  9  1  0
  9  1  1  0
 10  5  1  0
 11 13  1  0
 11 12  1  0
 11 16  1  0
 13 12  1  0
 15 14  2  0
 16 15  1  0
 17 16  2  0
 17 18  1  0
 18 19  2  0
 19 14  1  0
 20 21  2  0
 20  7  1  0
 22 21  1  0
 23 24  1  0
 23 22  2  0
 24 20  1  0
  2 25  1  0
 10 26  1  0
 10 27  1  0
 11 28  1  6
 12 29  1  0
 12 30  1  0
 13 31  1  1
 14 32  1  0
 15 33  1  0
 18 34  1  0
 21 35  1  0
 22 36  1  0
 23 37  1  0
M  ISO  8  25  14  28  13  29  13  30  13  31  13  32  14  33  14  34  14
M  ISO  3  35  14  36  14  37  14
M  END
>  <minimizedAffinity>  (1) 
-5.52411842

>  <minimizedRMSD>  (1) 
0.292147487

$$$$
