
     RDKit          3D

 33 36  0  0  0  0  0  0  0  0999 V2000
   43.3550   22.6530   33.8810 C   0  0  0  0  0  0  0  0  0  0  0  0
   43.3110   23.9440   34.4560 C   0  0  0  0  0  0  0  0  0  0  0  0
   44.9930   24.6510   34.0050 S   0  0  0  0  0  0  0  0  0  0  0  0
   45.4150   23.0190   33.1150 C   0  0  0  0  0  0  0  0  0  0  0  0
   44.4890   22.4630   33.2910 N   0  0  0  0  0  0  0  0  0  0  0  0
   46.6600   22.7200   32.4280 N   0  0  0  0  0  0  0  0  0  0  0  0
   47.5530   22.0470   33.1770 C   0  0  0  0  0  0  0  0  0  0  0  0
   48.6700   21.8400   32.3960 C   0  0  0  0  0  0  0  0  0  0  0  0
   48.3910   22.4040   31.1980 N   0  0  0  0  0  0  0  0  0  0  0  0
   47.1610   22.9460   31.2110 C   0  0  0  0  0  0  0  0  0  0  0  0
   46.3810   23.6410   30.2600 N   0  0  0  0  0  0  0  0  0  0  0  0
   45.4740   24.5920   30.6030 C   0  0  0  0  0  0  0  0  0  0  0  0
   44.8610   25.1050   29.5000 N   0  0  0  0  0  0  0  0  0  0  0  0
   45.4270   24.4330   28.4560 C   0  0  0  0  0  0  0  0  0  0  0  0
   46.3250   23.5720   28.9520 N   0  0  0  0  0  0  0  0  0  0  0  0
   41.9160   21.6190   34.0810 S   0  0  0  0  0  0  0  0  0  0  0  0
   40.4650   22.3840   37.7210 C   0  0  0  0  0  0  0  0  0  0  0  0
   39.3020   23.1380   37.4530 C   0  0  0  0  0  0  0  0  0  0  0  0
   39.0050   23.3870   36.1250 C   0  0  0  0  0  0  0  0  0  0  0  0
   39.8120   22.9160   35.1220 N   0  0  0  0  0  0  0  0  0  0  0  0
   40.9320   22.1860   35.4530 C   0  0  0  0  0  0  0  0  0  0  0  0
   41.2330   21.9380   36.7270 N   0  0  0  0  0  0  0  0  0  0  0  0
   38.4070   23.6620   38.5140 C   0  0  0  0  0  0  0  0  0  0  0  0
   39.1990   23.8700   39.6370 F   0  0  0  0  0  0  0  0  0  0  0  0
   37.3860   22.8310   38.8170 F   0  0  0  0  0  0  0  0  0  0  0  0
   37.9780   24.9720   38.1730 F   0  0  0  0  0  0  0  0  0  0  0  0
   42.4964   24.4162   35.0248 H   0  0  0  0  0  0  0  0  0  0  0  0
   47.4168   21.7223   34.2191 H   0  0  0  0  0  0  0  0  0  0  0  0
   49.5965   21.3232   32.6866 H   0  0  0  0  0  0  0  0  0  0  0  0
   45.2623   24.9066   31.6356 H   0  0  0  0  0  0  0  0  0  0  0  0
   45.1873   24.5740   27.3917 H   0  0  0  0  0  0  0  0  0  0  0  0
   40.7407   22.1619   38.7625 H   0  0  0  0  0  0  0  0  0  0  0  0
   38.1085   23.9713   35.8703 H   0  0  0  0  0  0  0  0  0  0  0  0
  1 16  1  0
  1  2  2  0
  3  2  1  0
  4  5  2  0
  4  3  1  0
  5  1  1  0
  6  4  1  0
  6  7  1  0
  8  7  2  0
  9 10  2  0
  9  8  1  0
 10  6  1  0
 11 12  1  0
 11 10  1  0
 13 12  2  0
 14 15  2  0
 14 13  1  0
 15 11  1  0
 16 21  1  0
 18 17  2  0
 18 23  1  0
 19 18  1  0
 20 21  1  0
 20 19  2  0
 21 22  2  0
 22 17  1  0
 23 25  1  0
 23 24  1  0
 26 23  1  0
  2 27  1  0
  7 28  1  0
  8 29  1  0
 12 30  1  0
 14 31  1  0
 17 32  1  0
 19 33  1  0
M  ISO  7  27  14  28  14  29  14  30  14  31  14  32  14  33  14
M  END
>  <minimizedAffinity>  (1) 
-3.81803417

>  <minimizedRMSD>  (1) 
0.061956238

$$$$
