
     RDKit          3D

 52 57  0  0  1  0  0  0  0  0999 V2000
   37.0660   27.8110   34.3400 N   0  0  0  0  0  0  0  0  0  0  0  0
   36.1390   28.7520   34.6490 C   0  0  0  0  0  0  0  0  0  0  0  0
   35.6800   29.2950   33.5350 N   0  0  0  0  0  0  0  0  0  0  0  0
   36.3220   28.6940   32.4910 C   0  0  0  0  0  0  0  0  0  0  0  0
   36.2680   28.8340   31.1480 C   0  0  0  0  0  0  0  0  0  0  0  0
   37.0620   28.0590   30.4010 N   0  0  0  0  0  0  0  0  0  0  0  0
   37.9120   27.1470   30.9090 C   0  0  0  0  0  0  0  0  0  0  0  0
   37.9590   27.0170   32.2510 N   0  0  0  0  0  0  0  0  0  0  0  0
   37.1730   27.7810   33.0390 C   0  0  0  0  0  0  0  0  0  0  0  0
   35.3650   29.8010   30.6100 N   0  0  0  0  0  0  0  0  0  0  0  0
   38.7570   26.3250   30.0540 C   0  0  0  0  0  0  0  0  0  0  0  0
   38.8540   24.9740   30.3180 C   0  0  0  0  0  0  0  0  0  0  0  0
   39.6520   24.1540   29.5230 C   0  0  0  0  0  0  0  0  0  0  0  0
   40.3070   24.7780   28.4940 C   0  0  0  0  0  0  0  0  0  0  0  0
   40.2020   26.1190   28.2420 C   0  0  0  0  0  0  0  0  0  0  0  0
   39.4170   26.8670   29.0430 N   0  0  0  0  0  0  0  0  0  0  0  0
   40.8490   26.8360   27.1980 N   0  0  0  0  0  0  0  0  0  0  0  0
   40.9320   26.3960   25.8180 C   0  0  0  0  0  0  0  0  0  0  0  0
   40.5230   27.4400   24.8320 C   0  0  0  0  0  0  0  0  0  0  0  0
   40.9610   28.7040   25.1360 O   0  0  0  0  0  0  0  0  0  0  0  0
   40.7460   29.0780   26.4460 C   0  0  0  0  0  0  0  0  0  0  0  0
   41.5210   28.1110   27.3510 C   0  0  0  0  0  0  0  0  0  0  0  0
   38.3770   25.8240   35.1850 C   0  0  2  0  0  0  0  0  0  0  0  0
   39.2180   27.1420   35.4350 C   0  0  0  0  0  0  0  0  0  0  0  0
   37.7190   27.0710   35.3730 C   0  0  1  0  0  0  0  0  0  0  0  0
   38.0200   23.9060   38.4020 C   0  0  0  0  0  0  0  0  0  0  0  0
   37.8200   24.8630   37.4180 C   0  0  0  0  0  0  0  0  0  0  0  0
   38.5670   24.8100   36.2340 C   0  0  0  0  0  0  0  0  0  0  0  0
   39.4600   23.8140   36.1030 N   0  0  0  0  0  0  0  0  0  0  0  0
   39.6380   22.8910   37.0720 C   0  0  0  0  0  0  0  0  0  0  0  0
   38.9250   22.9330   38.2180 N   0  0  0  0  0  0  0  0  0  0  0  0
   35.8196   29.0208   35.6667 H   0  0  0  0  0  0  0  0  0  0  0  0
   35.2991   29.9330   29.5906 H   0  0  0  0  0  0  0  0  0  0  0  0
   34.7797   30.3664   31.2414 H   0  0  0  0  0  0  0  0  0  0  0  0
   38.2972   24.5413   31.1623 H   0  0  0  0  0  0  0  0  0  0  0  0
   39.7499   23.0744   29.7096 H   0  0  0  0  0  0  0  0  0  0  0  0
   40.9488   24.1713   27.8382 H   0  0  0  0  0  0  0  0  0  0  0  0
   41.9722   26.1070   25.6071 H   0  0  0  0  0  0  0  0  0  0  0  0
   40.2328   25.5543   25.7052 H   0  0  0  0  0  0  0  0  0  0  0  0
   39.4242   27.4579   24.7846 H   0  0  0  0  0  0  0  0  0  0  0  0
   40.9870   27.1673   23.8727 H   0  0  0  0  0  0  0  0  0  0  0  0
   41.1052   30.1056   26.6042 H   0  0  0  0  0  0  0  0  0  0  0  0
   39.6720   29.0423   26.6812 H   0  0  0  0  0  0  0  0  0  0  0  0
   41.4819   28.4457   28.3981 H   0  0  0  0  0  0  0  0  0  0  0  0
   42.5853   28.0530   27.0791 H   0  0  0  0  0  0  0  0  0  0  0  0
   38.2264   25.0471   34.4210 H   0  0  0  0  0  0  0  0  0  0  0  0
   39.7355   27.3076   36.3914 H   0  0  0  0  0  0  0  0  0  0  0  0
   40.0213   27.6952   34.9264 H   0  0  0  0  0  0  0  0  0  0  0  0
   36.8885   27.3287   36.0466 H   0  0  0  0  0  0  0  0  0  0  0  0
   37.4363   23.9449   39.3335 H   0  0  0  0  0  0  0  0  0  0  0  0
   37.0774   25.6608   37.5668 H   0  0  0  0  0  0  0  0  0  0  0  0
   40.3775   22.0900   36.9253 H   0  0  0  0  0  0  0  0  0  0  0  0
  1  2  1  0
  1 25  1  0
  3  2  2  0
  4  9  2  0
  4  3  1  0
  5  4  1  0
  6  7  1  0
  6  5  2  0
  7  8  2  0
  8  9  1  0
  9  1  1  0
 10  5  1  0
 11 12  2  0
 11  7  1  0
 13 12  1  0
 14 13  2  0
 15 14  1  0
 15 16  2  0
 16 11  1  0
 17 22  1  0
 17 15  1  0
 18 17  1  0
 19 20  1  0
 19 18  1  0
 20 21  1  0
 21 22  1  0
 23 25  1  0
 23 24  1  0
 23 28  1  0
 25 24  1  0
 27 26  2  0
 28 27  1  0
 29 28  2  0
 29 30  1  0
 30 31  2  0
 31 26  1  0
  2 32  1  0
 10 33  1  0
 10 34  1  0
 12 35  1  0
 13 36  1  0
 14 37  1  0
 18 38  1  0
 18 39  1  0
 19 40  1  0
 19 41  1  0
 21 42  1  0
 21 43  1  0
 22 44  1  0
 22 45  1  0
 23 46  1  6
 24 47  1  0
 24 48  1  0
 25 49  1  1
 26 50  1  0
 27 51  1  0
 30 52  1  0
M  ISO  8  32  14  35  14  36  14  37  14  38  13  39  13  40  13  41  13
M  ISO  8  42  13  43  13  44  13  45  13  46  13  47  13  48  13  49  13
M  ISO  3  50  14  51  14  52  14
M  END
>  <minimizedAffinity>  (1) 
-6.2059474

>  <minimizedRMSD>  (1) 
0.571311474

$$$$
