
     RDKit          3D

 51 56  0  0  1  0  0  0  0  0999 V2000
   37.0400   27.8500   34.4100 N   0  0  0  0  0  0  0  0  0  0  0  0
   36.1290   28.8000   34.7270 C   0  0  0  0  0  0  0  0  0  0  0  0
   35.6530   29.3510   33.6260 N   0  0  0  0  0  0  0  0  0  0  0  0
   36.2640   28.7490   32.5690 C   0  0  0  0  0  0  0  0  0  0  0  0
   36.1810   28.8950   31.2260 C   0  0  0  0  0  0  0  0  0  0  0  0
   36.9490   28.1130   30.4580 N   0  0  0  0  0  0  0  0  0  0  0  0
   37.7930   27.1990   30.9440 C   0  0  0  0  0  0  0  0  0  0  0  0
   37.8720   27.0590   32.2850 N   0  0  0  0  0  0  0  0  0  0  0  0
   37.1160   27.8260   33.0940 C   0  0  0  0  0  0  0  0  0  0  0  0
   35.2700   29.8820   30.7170 N   0  0  0  0  0  0  0  0  0  0  0  0
   38.6130   26.3670   30.0660 C   0  0  0  0  0  0  0  0  0  0  0  0
   38.7100   25.0120   30.3290 C   0  0  0  0  0  0  0  0  0  0  0  0
   39.4840   24.1880   29.5140 C   0  0  0  0  0  0  0  0  0  0  0  0
   40.1260   24.8210   28.4550 C   0  0  0  0  0  0  0  0  0  0  0  0
   40.0120   26.1830   28.2110 C   0  0  0  0  0  0  0  0  0  0  0  0
   39.2510   26.9250   29.0330 N   0  0  0  0  0  0  0  0  0  0  0  0
   40.6910   26.7540   27.1180 N   0  0  0  0  0  0  0  0  0  0  0  0
   41.2240   28.1050   26.9640 C   0  0  0  0  0  0  0  0  0  0  0  0
   40.5880   28.5180   25.6570 C   0  0  0  0  0  0  0  0  0  0  0  0
   40.6270   27.2190   24.8580 C   0  0  0  0  0  0  0  0  0  0  0  0
   41.0350   26.1540   25.8650 C   0  0  0  0  0  0  0  0  0  0  0  0
   38.3410   25.8380   35.2100 C   0  0  2  0  0  0  0  0  0  0  0  0
   39.2160   27.1430   35.4190 C   0  0  0  0  0  0  0  0  0  0  0  0
   37.7140   27.0950   35.4140 C   0  0  1  0  0  0  0  0  0  0  0  0
   38.0420   23.9070   38.4160 C   0  0  0  0  0  0  0  0  0  0  0  0
   37.8210   24.8730   37.4390 C   0  0  0  0  0  0  0  0  0  0  0  0
   38.5520   24.8280   36.2450 C   0  0  0  0  0  0  0  0  0  0  0  0
   39.4450   23.8340   36.1010 N   0  0  0  0  0  0  0  0  0  0  0  0
   39.6450   22.9070   37.0600 C   0  0  0  0  0  0  0  0  0  0  0  0
   38.9500   22.9370   38.2140 N   0  0  0  0  0  0  0  0  0  0  0  0
   35.8299   29.0722   35.7500 H   0  0  0  0  0  0  0  0  0  0  0  0
   35.1785   30.0229   29.7008 H   0  0  0  0  0  0  0  0  0  0  0  0
   34.7083   30.4488   31.3682 H   0  0  0  0  0  0  0  0  0  0  0  0
   38.1725   24.5823   31.1872 H   0  0  0  0  0  0  0  0  0  0  0  0
   39.5808   23.1076   29.6964 H   0  0  0  0  0  0  0  0  0  0  0  0
   40.7512   24.2163   27.7816 H   0  0  0  0  0  0  0  0  0  0  0  0
   40.9106   28.7597   27.7905 H   0  0  0  0  0  0  0  0  0  0  0  0
   42.3224   28.1630   26.9723 H   0  0  0  0  0  0  0  0  0  0  0  0
   39.5545   28.8633   25.8074 H   0  0  0  0  0  0  0  0  0  0  0  0
   41.0984   29.3574   25.1622 H   0  0  0  0  0  0  0  0  0  0  0  0
   39.6364   26.9939   24.4362 H   0  0  0  0  0  0  0  0  0  0  0  0
   41.3237   27.2753   24.0086 H   0  0  0  0  0  0  0  0  0  0  0  0
   40.4738   25.2216   25.7049 H   0  0  0  0  0  0  0  0  0  0  0  0
   42.0957   25.8712   25.7942 H   0  0  0  0  0  0  0  0  0  0  0  0
   38.1462   25.0596   34.4576 H   0  0  0  0  0  0  0  0  0  0  0  0
   39.7722   27.3056   36.3540 H   0  0  0  0  0  0  0  0  0  0  0  0
   40.0089   27.6793   34.8771 H   0  0  0  0  0  0  0  0  0  0  0  0
   36.9102   27.3639   36.1151 H   0  0  0  0  0  0  0  0  0  0  0  0
   37.4719   23.9374   39.3562 H   0  0  0  0  0  0  0  0  0  0  0  0
   37.0772   25.6666   37.6033 H   0  0  0  0  0  0  0  0  0  0  0  0
   40.3884   22.1127   36.8973 H   0  0  0  0  0  0  0  0  0  0  0  0
  1  2  1  0
  1 24  1  0
  3  2  2  0
  4  9  2  0
  4  3  1  0
  5  4  1  0
  6  7  1  0
  6  5  2  0
  7  8  2  0
  8  9  1  0
  9  1  1  0
 10  5  1  0
 11 12  2  0
 11  7  1  0
 13 12  1  0
 14 13  2  0
 15 14  1  0
 15 16  2  0
 16 11  1  0
 17 15  1  0
 18 17  1  0
 19 18  1  0
 20 19  1  0
 20 21  1  0
 21 17  1  0
 22 24  1  0
 22 23  1  0
 22 27  1  0
 24 23  1  0
 26 25  2  0
 27 26  1  0
 28 27  2  0
 28 29  1  0
 29 30  2  0
 30 25  1  0
  2 31  1  0
 10 32  1  0
 10 33  1  0
 12 34  1  0
 13 35  1  0
 14 36  1  0
 18 37  1  0
 18 38  1  0
 19 39  1  0
 19 40  1  0
 20 41  1  0
 20 42  1  0
 21 43  1  0
 21 44  1  0
 22 45  1  6
 23 46  1  0
 23 47  1  0
 24 48  1  1
 25 49  1  0
 26 50  1  0
 29 51  1  0
M  ISO  8  31  14  34  14  35  14  36  14  37  13  38  13  39  13  40  13
M  ISO  8  41  13  42  13  43  13  44  13  45  13  46  13  47  13  48  13
M  ISO  3  49  14  50  14  51  14
M  END
>  <minimizedAffinity>  (1) 
-6.19211197

>  <minimizedRMSD>  (1) 
0.612550259

$$$$
