
     RDKit          3D

 46 51  0  0  1  0  0  0  0  0999 V2000
   37.0240   27.8410   34.3970 N   0  0  0  0  0  0  0  0  0  0  0  0
   36.0890   28.7570   34.7260 C   0  0  0  0  0  0  0  0  0  0  0  0
   35.6080   29.3110   33.6260 N   0  0  0  0  0  0  0  0  0  0  0  0
   36.2470   28.7390   32.5660 C   0  0  0  0  0  0  0  0  0  0  0  0
   36.1740   28.8990   31.2260 C   0  0  0  0  0  0  0  0  0  0  0  0
   36.9730   28.1480   30.4550 N   0  0  0  0  0  0  0  0  0  0  0  0
   37.8370   27.2510   30.9380 C   0  0  0  0  0  0  0  0  0  0  0  0
   37.9070   27.0940   32.2760 N   0  0  0  0  0  0  0  0  0  0  0  0
   37.1200   27.8300   33.0890 C   0  0  0  0  0  0  0  0  0  0  0  0
   35.2460   29.8640   30.7160 N   0  0  0  0  0  0  0  0  0  0  0  0
   38.6930   26.4510   30.0620 C   0  0  0  0  0  0  0  0  0  0  0  0
   38.7690   25.0940   30.2590 C   0  0  0  0  0  0  0  0  0  0  0  0
   39.5790   24.3100   29.4370 C   0  0  0  0  0  0  0  0  0  0  0  0
   40.2660   24.9850   28.4540 C   0  0  0  0  0  0  0  0  0  0  0  0
   40.1840   26.3520   28.2610 C   0  0  0  0  0  0  0  0  0  0  0  0
   39.3870   27.0580   29.0850 N   0  0  0  0  0  0  0  0  0  0  0  0
   40.9380   26.9490   27.2140 N   0  0  0  0  0  0  0  0  0  0  0  0
   40.1890   27.5210   26.2580 N   0  0  0  0  0  0  0  0  0  0  0  0
   41.0150   28.0550   25.3130 C   0  0  0  0  0  0  0  0  0  0  0  0
   42.3130   27.7990   25.7100 C   0  0  0  0  0  0  0  0  0  0  0  0
   42.2340   27.1060   26.9010 C   0  0  0  0  0  0  0  0  0  0  0  0
   38.3400   25.8340   35.1940 C   0  0  2  0  0  0  0  0  0  0  0  0
   39.2050   27.1440   35.4120 C   0  0  0  0  0  0  0  0  0  0  0  0
   37.7050   27.0900   35.4030 C   0  0  1  0  0  0  0  0  0  0  0  0
   38.0510   23.9060   38.4120 C   0  0  0  0  0  0  0  0  0  0  0  0
   37.8300   24.8630   37.4300 C   0  0  0  0  0  0  0  0  0  0  0  0
   38.5620   24.8170   36.2370 C   0  0  0  0  0  0  0  0  0  0  0  0
   39.4650   23.8330   36.0870 N   0  0  0  0  0  0  0  0  0  0  0  0
   39.6620   22.9130   37.0580 C   0  0  0  0  0  0  0  0  0  0  0  0
   38.9650   22.9470   38.2080 N   0  0  0  0  0  0  0  0  0  0  0  0
   35.7755   29.0045   35.7509 H   0  0  0  0  0  0  0  0  0  0  0  0
   35.1636   30.0125   29.7001 H   0  0  0  0  0  0  0  0  0  0  0  0
   34.6612   30.4093   31.3653 H   0  0  0  0  0  0  0  0  0  0  0  0
   38.1896   24.6239   31.0672 H   0  0  0  0  0  0  0  0  0  0  0  0
   39.6632   23.2209   29.5665 H   0  0  0  0  0  0  0  0  0  0  0  0
   40.9171   24.4045   27.7839 H   0  0  0  0  0  0  0  0  0  0  0  0
   40.7050   28.5903   24.4034 H   0  0  0  0  0  0  0  0  0  0  0  0
   43.2315   28.0908   25.1798 H   0  0  0  0  0  0  0  0  0  0  0  0
   43.0876   26.7440   27.4929 H   0  0  0  0  0  0  0  0  0  0  0  0
   38.1495   25.0578   34.4383 H   0  0  0  0  0  0  0  0  0  0  0  0
   39.7577   27.3051   36.3493 H   0  0  0  0  0  0  0  0  0  0  0  0
   39.9961   27.6873   34.8744 H   0  0  0  0  0  0  0  0  0  0  0  0
   36.9008   27.3564   36.1046 H   0  0  0  0  0  0  0  0  0  0  0  0
   37.4795   23.9349   39.3514 H   0  0  0  0  0  0  0  0  0  0  0  0
   37.0826   25.6543   37.5888 H   0  0  0  0  0  0  0  0  0  0  0  0
   40.4083   22.1196   36.9043 H   0  0  0  0  0  0  0  0  0  0  0  0
  1  2  1  0
  1 24  1  0
  3  2  2  0
  4  9  2  0
  4  3  1  0
  5  4  1  0
  6  7  1  0
  6  5  2  0
  7  8  2  0
  8  9  1  0
  9  1  1  0
 10  5  1  0
 11 12  2  0
 11  7  1  0
 13 12  1  0
 14 13  2  0
 15 14  1  0
 15 16  2  0
 16 11  1  0
 17 15  1  0
 18 17  1  0
 19 20  1  0
 19 18  2  0
 20 21  2  0
 21 17  1  0
 22 24  1  0
 22 23  1  0
 22 27  1  0
 24 23  1  0
 26 25  2  0
 27 26  1  0
 28 27  2  0
 28 29  1  0
 29 30  2  0
 30 25  1  0
  2 31  1  0
 10 32  1  0
 10 33  1  0
 12 34  1  0
 13 35  1  0
 14 36  1  0
 19 37  1  0
 20 38  1  0
 21 39  1  0
 22 40  1  6
 23 41  1  0
 23 42  1  0
 24 43  1  1
 25 44  1  0
 26 45  1  0
 29 46  1  0
M  ISO  8  31  14  34  14  35  14  36  14  37  14  38  14  39  14  40  13
M  ISO  6  41  13  42  13  43  13  44  14  45  14  46  14
M  END
>  <minimizedAffinity>  (1) 
-6.11523771

>  <minimizedRMSD>  (1) 
0.640866399

$$$$
