
     RDKit          3D

 45 50  0  0  1  0  0  0  0  0999 V2000
   37.0270   27.8240   34.3960 N   0  0  0  0  0  0  0  0  0  0  0  0
   36.0970   28.7700   34.7000 C   0  0  0  0  0  0  0  0  0  0  0  0
   35.6370   29.3150   33.5920 N   0  0  0  0  0  0  0  0  0  0  0  0
   36.2700   28.7230   32.5450 C   0  0  0  0  0  0  0  0  0  0  0  0
   36.2070   28.8710   31.2020 C   0  0  0  0  0  0  0  0  0  0  0  0
   36.9970   28.0980   30.4450 N   0  0  0  0  0  0  0  0  0  0  0  0
   37.8430   27.1880   30.9410 C   0  0  0  0  0  0  0  0  0  0  0  0
   37.9040   27.0440   32.2800 N   0  0  0  0  0  0  0  0  0  0  0  0
   37.1250   27.8020   33.0810 C   0  0  0  0  0  0  0  0  0  0  0  0
   35.3030   29.8470   30.6780 N   0  0  0  0  0  0  0  0  0  0  0  0
   38.6840   26.3690   30.0730 C   0  0  0  0  0  0  0  0  0  0  0  0
   38.7290   24.9950   30.2830 C   0  0  0  0  0  0  0  0  0  0  0  0
   39.5200   24.1800   29.4740 C   0  0  0  0  0  0  0  0  0  0  0  0
   40.2260   24.8400   28.4830 C   0  0  0  0  0  0  0  0  0  0  0  0
   40.1710   26.2120   28.2850 C   0  0  0  0  0  0  0  0  0  0  0  0
   39.3890   26.9460   29.0990 N   0  0  0  0  0  0  0  0  0  0  0  0
   40.9260   26.8210   27.2440 N   0  0  0  0  0  0  0  0  0  0  0  0
   40.2980   27.5660   26.2980 C   0  0  0  0  0  0  0  0  0  0  0  0
   41.1640   28.0750   25.3790 N   0  0  0  0  0  0  0  0  0  0  0  0
   42.3740   27.6070   25.8030 C   0  0  0  0  0  0  0  0  0  0  0  0
   42.2120   26.8560   26.9260 N   0  0  0  0  0  0  0  0  0  0  0  0
   38.3440   25.8290   35.2030 C   0  0  2  0  0  0  0  0  0  0  0  0
   39.1940   27.1480   35.4320 C   0  0  0  0  0  0  0  0  0  0  0  0
   37.6940   27.0750   35.4070 C   0  0  1  0  0  0  0  0  0  0  0  0
   38.0500   23.9020   38.4160 C   0  0  0  0  0  0  0  0  0  0  0  0
   37.8210   24.8650   37.4390 C   0  0  0  0  0  0  0  0  0  0  0  0
   38.5620   24.8180   36.2380 C   0  0  0  0  0  0  0  0  0  0  0  0
   39.4640   23.8320   36.0970 N   0  0  0  0  0  0  0  0  0  0  0  0
   39.6640   22.9100   37.0660 C   0  0  0  0  0  0  0  0  0  0  0  0
   38.9630   22.9410   38.2190 N   0  0  0  0  0  0  0  0  0  0  0  0
   35.7774   29.0391   35.7176 H   0  0  0  0  0  0  0  0  0  0  0  0
   35.2291   29.9865   29.6602 H   0  0  0  0  0  0  0  0  0  0  0  0
   34.7257   30.4106   31.3183 H   0  0  0  0  0  0  0  0  0  0  0  0
   38.1357   24.5474   31.0940 H   0  0  0  0  0  0  0  0  0  0  0  0
   39.5788   23.0904   29.6134 H   0  0  0  0  0  0  0  0  0  0  0  0
   40.8658   24.2438   27.8158 H   0  0  0  0  0  0  0  0  0  0  0  0
   39.2119   27.7388   26.2767 H   0  0  0  0  0  0  0  0  0  0  0  0
   43.3368   27.8072   25.3102 H   0  0  0  0  0  0  0  0  0  0  0  0
   38.1706   25.0523   34.4436 H   0  0  0  0  0  0  0  0  0  0  0  0
   39.7351   27.3138   36.3753 H   0  0  0  0  0  0  0  0  0  0  0  0
   39.9846   27.7012   34.9040 H   0  0  0  0  0  0  0  0  0  0  0  0
   36.8767   27.3255   36.0993 H   0  0  0  0  0  0  0  0  0  0  0  0
   37.4786   23.9293   39.3555 H   0  0  0  0  0  0  0  0  0  0  0  0
   37.0715   25.6539   37.6000 H   0  0  0  0  0  0  0  0  0  0  0  0
   40.4128   22.1192   36.9114 H   0  0  0  0  0  0  0  0  0  0  0  0
  1  2  1  0
  1 24  1  0
  3  2  2  0
  4  9  2  0
  4  3  1  0
  5  4  1  0
  6  7  1  0
  6  5  2  0
  7  8  2  0
  8  9  1  0
  9  1  1  0
 10  5  1  0
 11 12  2  0
 11  7  1  0
 13 12  1  0
 14 13  2  0
 15 14  1  0
 15 16  2  0
 16 11  1  0
 17 15  1  0
 18 17  1  0
 19 20  1  0
 19 18  2  0
 20 21  2  0
 21 17  1  0
 22 24  1  0
 22 23  1  0
 22 27  1  0
 24 23  1  0
 26 25  2  0
 27 26  1  0
 28 27  2  0
 28 29  1  0
 29 30  2  0
 30 25  1  0
  2 31  1  0
 10 32  1  0
 10 33  1  0
 12 34  1  0
 13 35  1  0
 14 36  1  0
 18 37  1  0
 20 38  1  0
 22 39  1  6
 23 40  1  0
 23 41  1  0
 24 42  1  1
 25 43  1  0
 26 44  1  0
 29 45  1  0
M  ISO  8  31  14  34  14  35  14  36  14  37  14  38  14  39  13  40  13
M  ISO  5  41  13  42  13  43  14  44  14  45  14
M  END
>  <minimizedAffinity>  (1) 
-6.10326147

>  <minimizedRMSD>  (1) 
0.555753469

$$$$
