
     RDKit          3D

 52 57  0  0  1  0  0  0  0  0999 V2000
   37.1050   27.7430   34.3690 N   0  0  0  0  0  0  0  0  0  0  0  0
   36.2520   28.7590   34.6350 C   0  0  0  0  0  0  0  0  0  0  0  0
   35.8090   29.2760   33.5050 N   0  0  0  0  0  0  0  0  0  0  0  0
   36.3870   28.5800   32.4820 C   0  0  0  0  0  0  0  0  0  0  0  0
   36.3150   28.6530   31.1330 C   0  0  0  0  0  0  0  0  0  0  0  0
   37.0380   27.7890   30.4080 N   0  0  0  0  0  0  0  0  0  0  0  0
   37.8260   26.8570   30.9520 C   0  0  0  0  0  0  0  0  0  0  0  0
   37.8910   26.7900   32.2990 N   0  0  0  0  0  0  0  0  0  0  0  0
   37.1810   27.6410   33.0620 C   0  0  0  0  0  0  0  0  0  0  0  0
   35.4650   29.6600   30.5630 N   0  0  0  0  0  0  0  0  0  0  0  0
   38.6020   25.9300   30.1280 C   0  0  0  0  0  0  0  0  0  0  0  0
   38.4560   24.5810   30.3110 C   0  0  0  0  0  0  0  0  0  0  0  0
   39.1800   23.6730   29.5450 C   0  0  0  0  0  0  0  0  0  0  0  0
   40.0270   24.2220   28.6170 C   0  0  0  0  0  0  0  0  0  0  0  0
   40.1700   25.5770   28.4380 C   0  0  0  0  0  0  0  0  0  0  0  0
   39.4420   26.4000   29.2110 N   0  0  0  0  0  0  0  0  0  0  0  0
   41.0980   26.1840   27.4210 C   0  0  0  0  0  0  0  0  0  0  0  0
   41.1300   27.6770   27.4840 C   0  0  0  0  0  0  0  0  0  0  0  0
   40.4660   28.1970   26.2300 C   0  0  0  0  0  0  0  0  0  0  0  0
   40.5230   27.0710   25.2270 C   0  0  0  0  0  0  0  0  0  0  0  0
   40.6790   25.7960   26.0210 C   0  0  0  0  0  0  0  0  0  0  0  0
   38.4160   25.7750   35.2540 C   0  0  2  0  0  0  0  0  0  0  0  0
   39.2150   27.1130   35.5360 C   0  0  0  0  0  0  0  0  0  0  0  0
   37.7270   27.0110   35.4190 C   0  0  1  0  0  0  0  0  0  0  0  0
   37.9800   23.8700   38.4690 C   0  0  0  0  0  0  0  0  0  0  0  0
   37.8080   24.8140   37.4710 C   0  0  0  0  0  0  0  0  0  0  0  0
   38.5900   24.7640   36.3090 C   0  0  0  0  0  0  0  0  0  0  0  0
   39.4980   23.7800   36.2040 N   0  0  0  0  0  0  0  0  0  0  0  0
   39.6530   22.8660   37.1870 C   0  0  0  0  0  0  0  0  0  0  0  0
   38.9010   22.9070   38.3140 N   0  0  0  0  0  0  0  0  0  0  0  0
   35.9704   29.1021   35.6415 H   0  0  0  0  0  0  0  0  0  0  0  0
   35.3840   29.7468   29.5399 H   0  0  0  0  0  0  0  0  0  0  0  0
   34.9362   30.2956   31.1772 H   0  0  0  0  0  0  0  0  0  0  0  0
   37.7564   24.2099   31.0744 H   0  0  0  0  0  0  0  0  0  0  0  0
   39.0795   22.5854   29.6753 H   0  0  0  0  0  0  0  0  0  0  0  0
   40.6208   23.5451   27.9852 H   0  0  0  0  0  0  0  0  0  0  0  0
   42.0990   25.7952   27.6595 H   0  0  0  0  0  0  0  0  0  0  0  0
   40.5833   28.0276   28.3718 H   0  0  0  0  0  0  0  0  0  0  0  0
   42.1658   28.0405   27.5541 H   0  0  0  0  0  0  0  0  0  0  0  0
   39.4210   28.4709   26.4371 H   0  0  0  0  0  0  0  0  0  0  0  0
   40.9721   29.0974   25.8517 H   0  0  0  0  0  0  0  0  0  0  0  0
   41.3815   27.2060   24.5527 H   0  0  0  0  0  0  0  0  0  0  0  0
   39.6147   27.0446   24.6071 H   0  0  0  0  0  0  0  0  0  0  0  0
   39.7230   25.2527   26.0516 H   0  0  0  0  0  0  0  0  0  0  0  0
   41.4307   25.1397   25.5583 H   0  0  0  0  0  0  0  0  0  0  0  0
   38.3102   24.9953   34.4853 H   0  0  0  0  0  0  0  0  0  0  0  0
   39.6926   27.2890   36.5112 H   0  0  0  0  0  0  0  0  0  0  0  0
   40.0237   27.6848   35.0574 H   0  0  0  0  0  0  0  0  0  0  0  0
   36.8653   27.2469   36.0608 H   0  0  0  0  0  0  0  0  0  0  0  0
   37.3667   23.9093   39.3813 H   0  0  0  0  0  0  0  0  0  0  0  0
   37.0545   25.6065   37.5905 H   0  0  0  0  0  0  0  0  0  0  0  0
   40.4052   22.0720   37.0702 H   0  0  0  0  0  0  0  0  0  0  0  0
  1  2  1  0
  1 24  1  0
  3  2  2  0
  4  9  2  0
  4  3  1  0
  5  4  1  0
  6  7  1  0
  6  5  2  0
  7  8  2  0
  8  9  1  0
  9  1  1  0
 10  5  1  0
 11 12  2  0
 11  7  1  0
 13 12  1  0
 14 13  2  0
 15 14  1  0
 15 16  2  0
 16 11  1  0
 17 18  1  0
 17 15  1  0
 19 18  1  0
 20 21  1  0
 20 19  1  0
 21 17  1  0
 22 24  1  0
 22 23  1  0
 22 27  1  0
 24 23  1  0
 26 25  2  0
 27 26  1  0
 28 27  2  0
 28 29  1  0
 29 30  2  0
 30 25  1  0
  2 31  1  0
 10 32  1  0
 10 33  1  0
 12 34  1  0
 13 35  1  0
 14 36  1  0
 17 37  1  0
 18 38  1  0
 18 39  1  0
 19 40  1  0
 19 41  1  0
 20 42  1  0
 20 43  1  0
 21 44  1  0
 21 45  1  0
 22 46  1  6
 23 47  1  0
 23 48  1  0
 24 49  1  1
 25 50  1  0
 26 51  1  0
 29 52  1  0
M  ISO  8  31  14  34  14  35  14  36  14  37  13  38  13  39  13  40  13
M  ISO  8  41  13  42  13  43  13  44  13  45  13  46  13  47  13  48  13
M  ISO  4  49  13  50  14  51  14  52  14
M  END
>  <minimizedAffinity>  (1) 
-6.00950146

>  <minimizedRMSD>  (1) 
0.175806746

$$$$
