
     RDKit          3D

 48 53  0  0  1  0  0  0  0  0999 V2000
   37.0390   27.8160   34.3700 N   0  0  0  0  0  0  0  0  0  0  0  0
   36.1310   28.7600   34.6820 C   0  0  0  0  0  0  0  0  0  0  0  0
   35.6730   29.3070   33.5670 N   0  0  0  0  0  0  0  0  0  0  0  0
   36.2960   28.7040   32.5230 C   0  0  0  0  0  0  0  0  0  0  0  0
   36.2360   28.8410   31.1800 C   0  0  0  0  0  0  0  0  0  0  0  0
   37.0180   28.0540   30.4260 N   0  0  0  0  0  0  0  0  0  0  0  0
   37.8570   27.1360   30.9300 C   0  0  0  0  0  0  0  0  0  0  0  0
   37.9120   27.0040   32.2680 N   0  0  0  0  0  0  0  0  0  0  0  0
   37.1450   27.7750   33.0640 C   0  0  0  0  0  0  0  0  0  0  0  0
   35.3420   29.8220   30.6530 N   0  0  0  0  0  0  0  0  0  0  0  0
   38.6950   26.2950   30.0690 C   0  0  0  0  0  0  0  0  0  0  0  0
   38.7640   24.9510   30.3160 C   0  0  0  0  0  0  0  0  0  0  0  0
   39.5550   24.1290   29.5120 C   0  0  0  0  0  0  0  0  0  0  0  0
   40.2310   24.7640   28.4920 C   0  0  0  0  0  0  0  0  0  0  0  0
   40.1480   26.1170   28.2610 C   0  0  0  0  0  0  0  0  0  0  0  0
   39.3720   26.8710   29.0630 N   0  0  0  0  0  0  0  0  0  0  0  0
   40.8910   26.7250   27.1620 C   0  0  0  0  0  0  0  0  0  0  0  0
   40.2410   27.6110   26.3160 C   0  0  0  0  0  0  0  0  0  0  0  0
   40.9970   28.1520   25.2970 C   0  0  0  0  0  0  0  0  0  0  0  0
   42.3270   27.8130   25.1500 C   0  0  0  0  0  0  0  0  0  0  0  0
   42.9500   26.9240   26.0110 C   0  0  0  0  0  0  0  0  0  0  0  0
   42.1890   26.4120   26.9970 N   0  0  0  0  0  0  0  0  0  0  0  0
   38.3660   25.8230   35.1980 C   0  0  2  0  0  0  0  0  0  0  0  0
   39.1960   27.1490   35.4450 C   0  0  0  0  0  0  0  0  0  0  0  0
   37.6980   27.0650   35.3960 C   0  0  1  0  0  0  0  0  0  0  0  0
   38.0270   23.9060   38.4170 C   0  0  0  0  0  0  0  0  0  0  0  0
   37.8220   24.8600   37.4300 C   0  0  0  0  0  0  0  0  0  0  0  0
   38.5680   24.8090   36.2440 C   0  0  0  0  0  0  0  0  0  0  0  0
   39.4670   23.8210   36.1090 N   0  0  0  0  0  0  0  0  0  0  0  0
   39.6510   22.9020   37.0850 C   0  0  0  0  0  0  0  0  0  0  0  0
   38.9410   22.9370   38.2310 N   0  0  0  0  0  0  0  0  0  0  0  0
   35.8195   29.0331   35.7010 H   0  0  0  0  0  0  0  0  0  0  0  0
   35.2675   29.9567   29.6346 H   0  0  0  0  0  0  0  0  0  0  0  0
   34.7716   30.3948   31.2913 H   0  0  0  0  0  0  0  0  0  0  0  0
   38.1942   24.5170   31.1509 H   0  0  0  0  0  0  0  0  0  0  0  0
   39.6339   23.0450   29.6812 H   0  0  0  0  0  0  0  0  0  0  0  0
   40.8681   24.1586   27.8304 H   0  0  0  0  0  0  0  0  0  0  0  0
   39.1800   27.8684   26.4503 H   0  0  0  0  0  0  0  0  0  0  0  0
   40.5352   28.8610   24.5941 H   0  0  0  0  0  0  0  0  0  0  0  0
   42.9067   28.2598   24.3288 H   0  0  0  0  0  0  0  0  0  0  0  0
   44.0093   26.6511   25.8954 H   0  0  0  0  0  0  0  0  0  0  0  0
   38.2196   25.0469   34.4324 H   0  0  0  0  0  0  0  0  0  0  0  0
   39.7202   27.3166   36.3974 H   0  0  0  0  0  0  0  0  0  0  0  0
   39.9895   27.7113   34.9310 H   0  0  0  0  0  0  0  0  0  0  0  0
   36.8669   27.3059   36.0752 H   0  0  0  0  0  0  0  0  0  0  0  0
   37.4436   23.9423   39.3488 H   0  0  0  0  0  0  0  0  0  0  0  0
   37.0758   25.6545   37.5779 H   0  0  0  0  0  0  0  0  0  0  0  0
   40.3976   22.1073   36.9402 H   0  0  0  0  0  0  0  0  0  0  0  0
  1  2  1  0
  1 25  1  0
  3  2  2  0
  4  9  2  0
  4  3  1  0
  5  4  1  0
  6  7  1  0
  6  5  2  0
  7  8  2  0
  8  9  1  0
  9  1  1  0
 10  5  1  0
 11 12  2  0
 11  7  1  0
 13 12  1  0
 14 13  2  0
 15 14  1  0
 15 16  2  0
 16 11  1  0
 17 15  1  0
 18 17  2  0
 19 18  1  0
 20 19  2  0
 20 21  1  0
 21 22  2  0
 22 17  1  0
 23 25  1  0
 23 24  1  0
 23 28  1  0
 25 24  1  0
 27 26  2  0
 28 27  1  0
 29 28  2  0
 29 30  1  0
 30 31  2  0
 31 26  1  0
  2 32  1  0
 10 33  1  0
 10 34  1  0
 12 35  1  0
 13 36  1  0
 14 37  1  0
 18 38  1  0
 19 39  1  0
 20 40  1  0
 21 41  1  0
 23 42  1  6
 24 43  1  0
 24 44  1  0
 25 45  1  1
 26 46  1  0
 27 47  1  0
 30 48  1  0
M  ISO  8  32  14  35  14  36  14  37  14  38  14  39  14  40  14  41  14
M  ISO  7  42  13  43  13  44  13  45  13  46  14  47  14  48  14
M  END
>  <minimizedAffinity>  (1) 
-5.89010668

>  <minimizedRMSD>  (1) 
0.578579128

$$$$
