
     RDKit          3D

 47 52  0  0  1  0  0  0  0  0999 V2000
   37.0310   27.8240   34.3800 N   0  0  0  0  0  0  0  0  0  0  0  0
   36.1110   28.7610   34.6980 C   0  0  0  0  0  0  0  0  0  0  0  0
   35.6470   29.3110   33.5900 N   0  0  0  0  0  0  0  0  0  0  0  0
   36.2750   28.7200   32.5380 C   0  0  0  0  0  0  0  0  0  0  0  0
   36.2110   28.8680   31.1960 C   0  0  0  0  0  0  0  0  0  0  0  0
   36.9980   28.0960   30.4380 N   0  0  0  0  0  0  0  0  0  0  0  0
   37.8470   27.1830   30.9280 C   0  0  0  0  0  0  0  0  0  0  0  0
   37.9000   27.0460   32.2690 N   0  0  0  0  0  0  0  0  0  0  0  0
   37.1300   27.8000   33.0710 C   0  0  0  0  0  0  0  0  0  0  0  0
   35.3030   29.8480   30.6760 N   0  0  0  0  0  0  0  0  0  0  0  0
   38.6840   26.3640   30.0630 C   0  0  0  0  0  0  0  0  0  0  0  0
   38.7860   25.0100   30.3180 C   0  0  0  0  0  0  0  0  0  0  0  0
   39.5800   24.2020   29.5050 C   0  0  0  0  0  0  0  0  0  0  0  0
   40.2280   24.8480   28.4680 C   0  0  0  0  0  0  0  0  0  0  0  0
   40.1140   26.2060   28.2270 C   0  0  0  0  0  0  0  0  0  0  0  0
   39.3340   26.9390   29.0430 N   0  0  0  0  0  0  0  0  0  0  0  0
   40.8430   26.7780   27.1030 C   0  0  0  0  0  0  0  0  0  0  0  0
   42.1680   26.4650   26.8790 C   0  0  0  0  0  0  0  0  0  0  0  0
   42.7450   27.0710   25.7850 C   0  0  0  0  0  0  0  0  0  0  0  0
   42.0750   27.9090   24.9850 N   0  0  0  0  0  0  0  0  0  0  0  0
   40.7650   28.2040   25.2250 C   0  0  0  0  0  0  0  0  0  0  0  0
   40.1740   27.6210   26.2960 N   0  0  0  0  0  0  0  0  0  0  0  0
   38.3540   25.8260   35.1930 C   0  0  2  0  0  0  0  0  0  0  0  0
   39.2030   27.1430   35.4220 C   0  0  0  0  0  0  0  0  0  0  0  0
   37.6960   27.0710   35.3960 C   0  0  1  0  0  0  0  0  0  0  0  0
   38.0470   23.9030   38.4100 C   0  0  0  0  0  0  0  0  0  0  0  0
   37.8280   24.8630   37.4270 C   0  0  0  0  0  0  0  0  0  0  0  0
   38.5650   24.8160   36.2380 C   0  0  0  0  0  0  0  0  0  0  0  0
   39.4670   23.8300   36.0960 N   0  0  0  0  0  0  0  0  0  0  0  0
   39.6630   22.9080   37.0630 C   0  0  0  0  0  0  0  0  0  0  0  0
   38.9610   22.9390   38.2160 N   0  0  0  0  0  0  0  0  0  0  0  0
   35.7976   29.0245   35.7189 H   0  0  0  0  0  0  0  0  0  0  0  0
   35.2258   29.9901   29.6588 H   0  0  0  0  0  0  0  0  0  0  0  0
   34.7278   30.4100   31.3196 H   0  0  0  0  0  0  0  0  0  0  0  0
   38.2396   24.5683   31.1644 H   0  0  0  0  0  0  0  0  0  0  0  0
   39.6842   23.1206   29.6773 H   0  0  0  0  0  0  0  0  0  0  0  0
   40.8671   24.2516   27.8002 H   0  0  0  0  0  0  0  0  0  0  0  0
   42.7265   25.7771   27.5309 H   0  0  0  0  0  0  0  0  0  0  0  0
   43.8002   26.8574   25.5595 H   0  0  0  0  0  0  0  0  0  0  0  0
   40.2076   28.8914   24.5717 H   0  0  0  0  0  0  0  0  0  0  0  0
   38.1884   25.0494   34.4317 H   0  0  0  0  0  0  0  0  0  0  0  0
   39.7436   27.3087   36.3656 H   0  0  0  0  0  0  0  0  0  0  0  0
   39.9942   27.6956   34.8942 H   0  0  0  0  0  0  0  0  0  0  0  0
   36.8754   27.3185   36.0854 H   0  0  0  0  0  0  0  0  0  0  0  0
   37.4709   23.9339   39.3466 H   0  0  0  0  0  0  0  0  0  0  0  0
   37.0800   25.6543   37.5834 H   0  0  0  0  0  0  0  0  0  0  0  0
   40.4099   22.1154   36.9082 H   0  0  0  0  0  0  0  0  0  0  0  0
  1  2  1  0
  1 25  1  0
  3  2  2  0
  4  9  2  0
  4  3  1  0
  5  4  1  0
  6  7  1  0
  6  5  2  0
  7  8  2  0
  8  9  1  0
  9  1  1  0
 10  5  1  0
 11 12  2  0
 11  7  1  0
 13 12  1  0
 14 13  2  0
 15 14  1  0
 15 16  2  0
 16 11  1  0
 17 15  1  0
 18 17  2  0
 19 18  1  0
 20 21  1  0
 20 19  2  0
 21 22  2  0
 22 17  1  0
 23 25  1  0
 23 24  1  0
 23 28  1  0
 25 24  1  0
 27 26  2  0
 28 27  1  0
 29 28  2  0
 29 30  1  0
 30 31  2  0
 31 26  1  0
  2 32  1  0
 10 33  1  0
 10 34  1  0
 12 35  1  0
 13 36  1  0
 14 37  1  0
 18 38  1  0
 19 39  1  0
 21 40  1  0
 23 41  1  6
 24 42  1  0
 24 43  1  0
 25 44  1  1
 26 45  1  0
 27 46  1  0
 30 47  1  0
M  ISO  8  32  14  35  14  36  14  37  14  38  14  39  14  40  14  41  13
M  ISO  6  42  13  43  13  44  13  45  14  46  14  47  14
M  END
>  <minimizedAffinity>  (1) 
-5.88045931

>  <minimizedRMSD>  (1) 
0.655158579

$$$$
