
     RDKit          3D

 51 55  0  0  1  0  0  0  0  0999 V2000
   37.0890   27.7780   34.3700 N   0  0  0  0  0  0  0  0  0  0  0  0
   36.2100   28.7680   34.6530 C   0  0  0  0  0  0  0  0  0  0  0  0
   35.7650   29.2980   33.5290 N   0  0  0  0  0  0  0  0  0  0  0  0
   36.3670   28.6380   32.4980 C   0  0  0  0  0  0  0  0  0  0  0  0
   36.3000   28.7430   31.1530 C   0  0  0  0  0  0  0  0  0  0  0  0
   37.0500   27.9080   30.4150 N   0  0  0  0  0  0  0  0  0  0  0  0
   37.8580   26.9800   30.9410 C   0  0  0  0  0  0  0  0  0  0  0  0
   37.9150   26.8860   32.2830 N   0  0  0  0  0  0  0  0  0  0  0  0
   37.1780   27.7050   33.0620 C   0  0  0  0  0  0  0  0  0  0  0  0
   35.4340   29.7410   30.5970 N   0  0  0  0  0  0  0  0  0  0  0  0
   38.6560   26.0940   30.1000 C   0  0  0  0  0  0  0  0  0  0  0  0
   38.6980   24.7440   30.4060 C   0  0  0  0  0  0  0  0  0  0  0  0
   39.4500   23.8690   29.6240 C   0  0  0  0  0  0  0  0  0  0  0  0
   40.1210   24.4430   28.5610 C   0  0  0  0  0  0  0  0  0  0  0  0
   40.0670   25.7960   28.2720 C   0  0  0  0  0  0  0  0  0  0  0  0
   39.3250   26.5900   29.0620 N   0  0  0  0  0  0  0  0  0  0  0  0
   40.7870   26.4190   27.1300 C   0  0  0  0  0  0  0  0  0  0  0  0
   40.6360   25.5040   25.9120 C   0  0  0  0  0  0  0  0  0  0  0  0
   40.0630   27.7110   26.7700 C   0  0  0  0  0  0  0  0  0  0  0  0
   42.2450   26.6530   27.4030 C   0  0  0  0  0  0  0  0  0  0  0  0
   38.3930   25.7930   35.2340 C   0  0  2  0  0  0  0  0  0  0  0  0
   39.2260   27.1180   35.4870 C   0  0  0  0  0  0  0  0  0  0  0  0
   37.7250   27.0360   35.4090 C   0  0  1  0  0  0  0  0  0  0  0  0
   37.9920   23.8920   38.4530 C   0  0  0  0  0  0  0  0  0  0  0  0
   37.8060   24.8400   37.4570 C   0  0  0  0  0  0  0  0  0  0  0  0
   38.5740   24.7880   36.2890 C   0  0  0  0  0  0  0  0  0  0  0  0
   39.4790   23.8010   36.1770 N   0  0  0  0  0  0  0  0  0  0  0  0
   39.6450   22.8870   37.1580 C   0  0  0  0  0  0  0  0  0  0  0  0
   38.9170   22.9210   38.2870 N   0  0  0  0  0  0  0  0  0  0  0  0
   35.9124   29.0824   35.6642 H   0  0  0  0  0  0  0  0  0  0  0  0
   35.3599   29.8472   29.5752 H   0  0  0  0  0  0  0  0  0  0  0  0
   34.8859   30.3519   31.2193 H   0  0  0  0  0  0  0  0  0  0  0  0
   38.1354   24.3606   31.2700 H   0  0  0  0  0  0  0  0  0  0  0  0
   39.5057   22.7917   29.8390 H   0  0  0  0  0  0  0  0  0  0  0  0
   40.7276   23.7933   27.9129 H   0  0  0  0  0  0  0  0  0  0  0  0
   40.4655   24.4707   26.2485 H   0  0  0  0  0  0  0  0  0  0  0  0
   39.7809   25.8381   25.3061 H   0  0  0  0  0  0  0  0  0  0  0  0
   41.5532   25.5457   25.3061 H   0  0  0  0  0  0  0  0  0  0  0  0
   39.7691   28.2355   27.6911 H   0  0  0  0  0  0  0  0  0  0  0  0
   40.7322   28.3540   26.1795 H   0  0  0  0  0  0  0  0  0  0  0  0
   39.1652   27.4759   26.1795 H   0  0  0  0  0  0  0  0  0  0  0  0
   42.4148   26.6803   28.4895 H   0  0  0  0  0  0  0  0  0  0  0  0
   42.8364   25.8383   26.9598 H   0  0  0  0  0  0  0  0  0  0  0  0
   42.5518   27.6119   26.9598 H   0  0  0  0  0  0  0  0  0  0  0  0
   38.2567   25.0120   34.4715 H   0  0  0  0  0  0  0  0  0  0  0  0
   39.7323   27.2911   36.4481 H   0  0  0  0  0  0  0  0  0  0  0  0
   40.0316   27.6737   34.9848 H   0  0  0  0  0  0  0  0  0  0  0  0
   36.8812   27.2835   36.0698 H   0  0  0  0  0  0  0  0  0  0  0  0
   37.3898   23.9307   39.3727 H   0  0  0  0  0  0  0  0  0  0  0  0
   37.0543   25.6327   37.5859 H   0  0  0  0  0  0  0  0  0  0  0  0
   40.3962   22.0938   37.0291 H   0  0  0  0  0  0  0  0  0  0  0  0
  1  2  1  0
  1 23  1  0
  3  2  2  0
  4  9  2  0
  4  3  1  0
  5  4  1  0
  6  7  1  0
  6  5  2  0
  7  8  2  0
  8  9  1  0
  9  1  1  0
 10  5  1  0
 11 12  2  0
 11  7  1  0
 13 12  1  0
 14 13  2  0
 15 14  1  0
 15 16  2  0
 16 11  1  0
 17 20  1  0
 17 15  1  0
 18 17  1  0
 19 17  1  0
 21 23  1  0
 21 22  1  0
 21 26  1  0
 23 22  1  0
 25 24  2  0
 26 25  1  0
 27 26  2  0
 27 28  1  0
 28 29  2  0
 29 24  1  0
  2 30  1  0
 10 31  1  0
 10 32  1  0
 12 33  1  0
 13 34  1  0
 14 35  1  0
 18 36  1  0
 18 37  1  0
 18 38  1  0
 19 39  1  0
 19 40  1  0
 19 41  1  0
 20 42  1  0
 20 43  1  0
 20 44  1  0
 21 45  1  6
 22 46  1  0
 22 47  1  0
 23 48  1  1
 24 49  1  0
 25 50  1  0
 28 51  1  0
M  ISO  8  30  14  33  14  34  14  35  14  36   8  37   8  38   8  39   8
M  ISO  8  40   8  41   8  42   8  43   8  44   8  45  13  46  13  47  13
M  ISO  4  48  13  49  14  50  14  51  14
M  END
>  <minimizedAffinity>  (1) 
-5.84171534

>  <minimizedRMSD>  (1) 
0.346420884

$$$$
