
     RDKit          3D

 44 49  0  0  1  0  0  0  0  0999 V2000
   37.0390   27.8260   34.3840 N   0  0  0  0  0  0  0  0  0  0  0  0
   36.1310   28.7860   34.7000 C   0  0  0  0  0  0  0  0  0  0  0  0
   35.6750   29.3290   33.5860 N   0  0  0  0  0  0  0  0  0  0  0  0
   36.2860   28.7220   32.5380 C   0  0  0  0  0  0  0  0  0  0  0  0
   36.2240   28.8530   31.1880 C   0  0  0  0  0  0  0  0  0  0  0  0
   36.9930   28.0620   30.4380 N   0  0  0  0  0  0  0  0  0  0  0  0
   37.8360   27.1340   30.9370 C   0  0  0  0  0  0  0  0  0  0  0  0
   37.8930   27.0100   32.2770 N   0  0  0  0  0  0  0  0  0  0  0  0
   37.1340   27.7870   33.0750 C   0  0  0  0  0  0  0  0  0  0  0  0
   35.3290   29.8420   30.6720 N   0  0  0  0  0  0  0  0  0  0  0  0
   38.6500   26.2960   30.0740 C   0  0  0  0  0  0  0  0  0  0  0  0
   38.7370   24.9370   30.3520 C   0  0  0  0  0  0  0  0  0  0  0  0
   39.5050   24.0970   29.5530 C   0  0  0  0  0  0  0  0  0  0  0  0
   40.1540   24.7190   28.4920 C   0  0  0  0  0  0  0  0  0  0  0  0
   40.0560   26.0790   28.2290 C   0  0  0  0  0  0  0  0  0  0  0  0
   39.2950   26.8330   29.0430 N   0  0  0  0  0  0  0  0  0  0  0  0
   40.7830   26.6200   27.0850 C   0  0  0  0  0  0  0  0  0  0  0  0
   41.9480   26.4540   26.4770 N   0  0  0  0  0  0  0  0  0  0  0  0
   42.0040   27.2690   25.4690 O   0  0  0  0  0  0  0  0  0  0  0  0
   40.8980   27.9910   25.3750 C   0  0  0  0  0  0  0  0  0  0  0  0
   40.1180   27.5750   26.4070 N   0  0  0  0  0  0  0  0  0  0  0  0
   38.3600   25.8330   35.2040 C   0  0  2  0  0  0  0  0  0  0  0  0
   39.2040   27.1490   35.4430 C   0  0  0  0  0  0  0  0  0  0  0  0
   37.6970   27.0770   35.4030 C   0  0  1  0  0  0  0  0  0  0  0  0
   38.0230   23.9080   38.4210 C   0  0  0  0  0  0  0  0  0  0  0  0
   37.8170   24.8700   37.4350 C   0  0  0  0  0  0  0  0  0  0  0  0
   38.5600   24.8220   36.2510 C   0  0  0  0  0  0  0  0  0  0  0  0
   39.4550   23.8280   36.1230 N   0  0  0  0  0  0  0  0  0  0  0  0
   39.6430   22.9030   37.0860 C   0  0  0  0  0  0  0  0  0  0  0  0
   38.9300   22.9400   38.2350 N   0  0  0  0  0  0  0  0  0  0  0  0
   35.8252   29.0657   35.7190 H   0  0  0  0  0  0  0  0  0  0  0  0
   35.2455   29.9804   29.6548 H   0  0  0  0  0  0  0  0  0  0  0  0
   34.7680   30.4159   31.3176 H   0  0  0  0  0  0  0  0  0  0  0  0
   38.1927   24.5216   31.2129 H   0  0  0  0  0  0  0  0  0  0  0  0
   39.5928   23.0177   29.7464 H   0  0  0  0  0  0  0  0  0  0  0  0
   40.7767   24.1023   27.8272 H   0  0  0  0  0  0  0  0  0  0  0  0
   40.6620   28.7601   24.6248 H   0  0  0  0  0  0  0  0  0  0  0  0
   38.2045   25.0576   34.4394 H   0  0  0  0  0  0  0  0  0  0  0  0
   39.7357   27.3133   36.3919 H   0  0  0  0  0  0  0  0  0  0  0  0
   39.9996   27.7031   34.9234 H   0  0  0  0  0  0  0  0  0  0  0  0
   36.8707   27.3248   36.0854 H   0  0  0  0  0  0  0  0  0  0  0  0
   37.4403   23.9432   39.3533 H   0  0  0  0  0  0  0  0  0  0  0  0
   37.0722   25.6651   37.5870 H   0  0  0  0  0  0  0  0  0  0  0  0
   40.3869   22.1068   36.9351 H   0  0  0  0  0  0  0  0  0  0  0  0
  1  2  1  0
  1 24  1  0
  3  2  2  0
  4  9  2  0
  4  3  1  0
  5  4  1  0
  6  7  1  0
  6  5  2  0
  7  8  2  0
  8  9  1  0
  9  1  1  0
 10  5  1  0
 11 12  2  0
 11  7  1  0
 13 12  1  0
 14 13  2  0
 15 14  1  0
 15 16  2  0
 16 11  1  0
 17 15  1  0
 18 17  2  0
 19 18  1  0
 20 19  1  0
 20 21  2  0
 21 17  1  0
 22 24  1  0
 22 23  1  0
 22 27  1  0
 24 23  1  0
 26 25  2  0
 27 26  1  0
 28 27  2  0
 28 29  1  0
 29 30  2  0
 30 25  1  0
  2 31  1  0
 10 32  1  0
 10 33  1  0
 12 34  1  0
 13 35  1  0
 14 36  1  0
 20 37  1  0
 22 38  1  6
 23 39  1  0
 23 40  1  0
 24 41  1  1
 25 42  1  0
 26 43  1  0
 29 44  1  0
M  ISO  8  31  14  34  14  35  14  36  14  37  14  38  13  39  13  40  13
M  ISO  4  41  13  42  14  43  14  44  14
M  END
>  <minimizedAffinity>  (1) 
-5.83002186

>  <minimizedRMSD>  (1) 
0.699439883

$$$$
