
     RDKit          3D

 46 51  0  0  1  0  0  0  0  0999 V2000
   37.0470   27.8200   34.3740 N   0  0  0  0  0  0  0  0  0  0  0  0
   36.1230   28.7660   34.6820 C   0  0  0  0  0  0  0  0  0  0  0  0
   35.6590   29.3130   33.5740 N   0  0  0  0  0  0  0  0  0  0  0  0
   36.2910   28.7120   32.5280 C   0  0  0  0  0  0  0  0  0  0  0  0
   36.2230   28.8600   31.1870 C   0  0  0  0  0  0  0  0  0  0  0  0
   37.0100   28.0840   30.4280 N   0  0  0  0  0  0  0  0  0  0  0  0
   37.8520   27.1760   30.9220 C   0  0  0  0  0  0  0  0  0  0  0  0
   37.9160   27.0330   32.2630 N   0  0  0  0  0  0  0  0  0  0  0  0
   37.1440   27.7930   33.0610 C   0  0  0  0  0  0  0  0  0  0  0  0
   35.3240   29.8370   30.6560 N   0  0  0  0  0  0  0  0  0  0  0  0
   38.7000   26.3460   30.0560 C   0  0  0  0  0  0  0  0  0  0  0  0
   38.7850   24.9920   30.2980 C   0  0  0  0  0  0  0  0  0  0  0  0
   39.5840   24.1850   29.4900 C   0  0  0  0  0  0  0  0  0  0  0  0
   40.2560   24.8380   28.4680 C   0  0  0  0  0  0  0  0  0  0  0  0
   40.1540   26.1850   28.2490 C   0  0  0  0  0  0  0  0  0  0  0  0
   39.3680   26.9400   29.0530 N   0  0  0  0  0  0  0  0  0  0  0  0
   40.9010   26.7820   27.1460 C   0  0  0  0  0  0  0  0  0  0  0  0
   40.4160   27.3160   25.9690 C   0  0  0  0  0  0  0  0  0  0  0  0
   41.5230   27.7480   25.2660 C   0  0  0  0  0  0  0  0  0  0  0  0
   42.6430   27.4560   26.0530 C   0  0  0  0  0  0  0  0  0  0  0  0
   42.2070   26.8870   27.1490 O   0  0  0  0  0  0  0  0  0  0  0  0
   38.3600   25.8260   35.1940 C   0  0  2  0  0  0  0  0  0  0  0  0
   39.2160   27.1390   35.4150 C   0  0  0  0  0  0  0  0  0  0  0  0
   37.7090   27.0730   35.3910 C   0  0  1  0  0  0  0  0  0  0  0  0
   38.0410   23.9070   38.4030 C   0  0  0  0  0  0  0  0  0  0  0  0
   37.8290   24.8640   37.4270 C   0  0  0  0  0  0  0  0  0  0  0  0
   38.5680   24.8120   36.2360 C   0  0  0  0  0  0  0  0  0  0  0  0
   39.4660   23.8210   36.0870 N   0  0  0  0  0  0  0  0  0  0  0  0
   39.6530   22.8980   37.0610 C   0  0  0  0  0  0  0  0  0  0  0  0
   38.9520   22.9360   38.2050 N   0  0  0  0  0  0  0  0  0  0  0  0
   35.8086   29.0358   35.7010 H   0  0  0  0  0  0  0  0  0  0  0  0
   35.2520   29.9708   29.6373 H   0  0  0  0  0  0  0  0  0  0  0  0
   34.7484   30.4069   31.2922 H   0  0  0  0  0  0  0  0  0  0  0  0
   38.2209   24.5470   31.1309 H   0  0  0  0  0  0  0  0  0  0  0  0
   39.6755   23.1009   29.6525 H   0  0  0  0  0  0  0  0  0  0  0  0
   40.9011   24.2458   27.8023 H   0  0  0  0  0  0  0  0  0  0  0  0
   39.3638   27.3835   25.6556 H   0  0  0  0  0  0  0  0  0  0  0  0
   41.5245   28.2294   24.2769 H   0  0  0  0  0  0  0  0  0  0  0  0
   43.6925   27.6652   25.7986 H   0  0  0  0  0  0  0  0  0  0  0  0
   38.1883   25.0466   34.4370 H   0  0  0  0  0  0  0  0  0  0  0  0
   39.7585   27.3070   36.3571 H   0  0  0  0  0  0  0  0  0  0  0  0
   40.0093   27.6852   34.8837 H   0  0  0  0  0  0  0  0  0  0  0  0
   36.8908   27.3285   36.0804 H   0  0  0  0  0  0  0  0  0  0  0  0
   37.4657   23.9394   39.3400 H   0  0  0  0  0  0  0  0  0  0  0  0
   37.0862   25.6601   37.5838 H   0  0  0  0  0  0  0  0  0  0  0  0
   40.3953   22.1002   36.9110 H   0  0  0  0  0  0  0  0  0  0  0  0
  1  2  1  0
  1 24  1  0
  3  2  2  0
  4  9  2  0
  4  3  1  0
  5  4  1  0
  6  7  1  0
  6  5  2  0
  7  8  2  0
  8  9  1  0
  9  1  1  0
 10  5  1  0
 11 12  2  0
 11  7  1  0
 13 12  1  0
 14 13  2  0
 15 14  1  0
 15 16  2  0
 16 11  1  0
 17 21  1  0
 17 15  1  0
 18 17  2  0
 19 18  1  0
 19 20  2  0
 20 21  1  0
 22 24  1  0
 22 23  1  0
 22 27  1  0
 24 23  1  0
 26 25  2  0
 27 26  1  0
 28 27  2  0
 28 29  1  0
 29 30  2  0
 30 25  1  0
  2 31  1  0
 10 32  1  0
 10 33  1  0
 12 34  1  0
 13 35  1  0
 14 36  1  0
 18 37  1  0
 19 38  1  0
 20 39  1  0
 22 40  1  6
 23 41  1  0
 23 42  1  0
 24 43  1  1
 25 44  1  0
 26 45  1  0
 29 46  1  0
M  ISO  8  31  14  34  14  35  14  36  14  37  14  38  14  39  14  40  13
M  ISO  6  41  13  42  13  43  13  44  14  45  14  46  14
M  END
>  <minimizedAffinity>  (1) 
-5.80586243

>  <minimizedRMSD>  (1) 
0.576761842

$$$$
