
     RDKit          3D

 46 51  0  0  1  0  0  0  0  0999 V2000
   37.0540   27.8230   34.3670 N   0  0  0  0  0  0  0  0  0  0  0  0
   36.1310   28.7640   34.6870 C   0  0  0  0  0  0  0  0  0  0  0  0
   35.6590   29.3130   33.5820 N   0  0  0  0  0  0  0  0  0  0  0  0
   36.2900   28.7140   32.5260 C   0  0  0  0  0  0  0  0  0  0  0  0
   36.2240   28.8540   31.1860 C   0  0  0  0  0  0  0  0  0  0  0  0
   37.0070   28.0830   30.4280 N   0  0  0  0  0  0  0  0  0  0  0  0
   37.8610   27.1710   30.9250 C   0  0  0  0  0  0  0  0  0  0  0  0
   37.9170   27.0400   32.2660 N   0  0  0  0  0  0  0  0  0  0  0  0
   37.1480   27.7950   33.0610 C   0  0  0  0  0  0  0  0  0  0  0  0
   35.3100   29.8280   30.6620 N   0  0  0  0  0  0  0  0  0  0  0  0
   38.6980   26.3500   30.0610 C   0  0  0  0  0  0  0  0  0  0  0  0
   38.8120   25.0090   30.3170 C   0  0  0  0  0  0  0  0  0  0  0  0
   39.6050   24.1960   29.5090 C   0  0  0  0  0  0  0  0  0  0  0  0
   40.2400   24.8260   28.4720 C   0  0  0  0  0  0  0  0  0  0  0  0
   40.1210   26.1630   28.2230 C   0  0  0  0  0  0  0  0  0  0  0  0
   39.3450   26.8860   29.0370 N   0  0  0  0  0  0  0  0  0  0  0  0
   40.8400   26.7510   27.0870 C   0  0  0  0  0  0  0  0  0  0  0  0
   40.3710   27.3880   26.0190 C   0  0  0  0  0  0  0  0  0  0  0  0
   41.2350   27.8610   25.0680 C   0  0  0  0  0  0  0  0  0  0  0  0
   42.6130   27.6230   25.3090 C   0  0  0  0  0  0  0  0  0  0  0  0
   42.5560   26.7040   26.9460 S   0  0  0  0  0  0  0  0  0  0  0  0
   38.3610   25.8250   35.1890 C   0  0  2  0  0  0  0  0  0  0  0  0
   39.2160   27.1370   35.4270 C   0  0  0  0  0  0  0  0  0  0  0  0
   37.7170   27.0800   35.3910 C   0  0  1  0  0  0  0  0  0  0  0  0
   38.0370   23.9030   38.4090 C   0  0  0  0  0  0  0  0  0  0  0  0
   37.8250   24.8620   37.4270 C   0  0  0  0  0  0  0  0  0  0  0  0
   38.5660   24.8110   36.2380 C   0  0  0  0  0  0  0  0  0  0  0  0
   39.4640   23.8190   36.1010 N   0  0  0  0  0  0  0  0  0  0  0  0
   39.6520   22.8980   37.0710 C   0  0  0  0  0  0  0  0  0  0  0  0
   38.9510   22.9350   38.2110 N   0  0  0  0  0  0  0  0  0  0  0  0
   35.8229   29.0292   35.7092 H   0  0  0  0  0  0  0  0  0  0  0  0
   35.2306   29.9646   29.6442 H   0  0  0  0  0  0  0  0  0  0  0  0
   34.7332   30.3906   31.3036 H   0  0  0  0  0  0  0  0  0  0  0  0
   38.2723   24.5695   31.1688 H   0  0  0  0  0  0  0  0  0  0  0  0
   39.7139   23.1169   29.6926 H   0  0  0  0  0  0  0  0  0  0  0  0
   40.8774   24.2250   27.8068 H   0  0  0  0  0  0  0  0  0  0  0  0
   39.2875   27.5354   25.8990 H   0  0  0  0  0  0  0  0  0  0  0  0
   40.8825   28.3929   24.1720 H   0  0  0  0  0  0  0  0  0  0  0  0
   43.4842   27.9028   24.6985 H   0  0  0  0  0  0  0  0  0  0  0  0
   38.1888   25.0505   34.4272 H   0  0  0  0  0  0  0  0  0  0  0  0
   39.7512   27.2966   36.3747 H   0  0  0  0  0  0  0  0  0  0  0  0
   40.0148   27.6845   34.9053 H   0  0  0  0  0  0  0  0  0  0  0  0
   36.9022   27.3464   36.0803 H   0  0  0  0  0  0  0  0  0  0  0  0
   37.4601   23.9344   39.3451 H   0  0  0  0  0  0  0  0  0  0  0  0
   37.0802   25.6567   37.5812 H   0  0  0  0  0  0  0  0  0  0  0  0
   40.3959   22.1017   36.9213 H   0  0  0  0  0  0  0  0  0  0  0  0
  1  2  1  0
  1 24  1  0
  3  2  2  0
  4  9  2  0
  4  3  1  0
  5  4  1  0
  6  7  1  0
  6  5  2  0
  7  8  2  0
  8  9  1  0
  9  1  1  0
 10  5  1  0
 11 12  2  0
 11  7  1  0
 13 12  1  0
 14 13  2  0
 15 14  1  0
 15 16  2  0
 16 11  1  0
 17 15  1  0
 18 17  2  0
 19 20  2  0
 19 18  1  0
 20 21  1  0
 21 17  1  0
 22 24  1  0
 22 23  1  0
 22 27  1  0
 24 23  1  0
 26 25  2  0
 27 26  1  0
 28 27  2  0
 28 29  1  0
 29 30  2  0
 30 25  1  0
  2 31  1  0
 10 32  1  0
 10 33  1  0
 12 34  1  0
 13 35  1  0
 14 36  1  0
 18 37  1  0
 19 38  1  0
 20 39  1  0
 22 40  1  6
 23 41  1  0
 23 42  1  0
 24 43  1  1
 25 44  1  0
 26 45  1  0
 29 46  1  0
M  ISO  8  31  14  34  14  35  14  36  14  37  14  38  14  39  14  40  13
M  ISO  6  41  13  42  13  43  13  44  14  45  14  46  14
M  END
>  <minimizedAffinity>  (1) 
-5.80165291

>  <minimizedRMSD>  (1) 
0.615410149

$$$$
