
     RDKit          3D

 40 44  0  0  1  0  0  0  0  0999 V2000
   37.0900   27.7350   34.3610 N   0  0  0  0  0  0  0  0  0  0  0  0
   36.2390   28.7530   34.6180 C   0  0  0  0  0  0  0  0  0  0  0  0
   35.8100   29.2630   33.4790 N   0  0  0  0  0  0  0  0  0  0  0  0
   36.3940   28.5620   32.4650 C   0  0  0  0  0  0  0  0  0  0  0  0
   36.3330   28.6350   31.1180 C   0  0  0  0  0  0  0  0  0  0  0  0
   37.0630   27.7610   30.4080 N   0  0  0  0  0  0  0  0  0  0  0  0
   37.8510   26.8180   30.9580 C   0  0  0  0  0  0  0  0  0  0  0  0
   37.9010   26.7620   32.3030 N   0  0  0  0  0  0  0  0  0  0  0  0
   37.1830   27.6220   33.0540 C   0  0  0  0  0  0  0  0  0  0  0  0
   35.4990   29.6390   30.5360 N   0  0  0  0  0  0  0  0  0  0  0  0
   38.6200   25.8950   30.1440 C   0  0  0  0  0  0  0  0  0  0  0  0
   38.4220   24.5310   30.3130 C   0  0  0  0  0  0  0  0  0  0  0  0
   39.1440   23.6170   29.5480 C   0  0  0  0  0  0  0  0  0  0  0  0
   40.0360   24.1680   28.6430 C   0  0  0  0  0  0  0  0  0  0  0  0
   40.2200   25.5310   28.4890 C   0  0  0  0  0  0  0  0  0  0  0  0
   39.4960   26.3710   29.2550 N   0  0  0  0  0  0  0  0  0  0  0  0
   41.3760   26.2280   27.3190 S   0  0  0  0  0  0  0  0  0  0  0  0
   38.4210   25.7830   35.2630 C   0  0  2  0  0  0  0  0  0  0  0  0
   39.1950   27.1300   35.5680 C   0  0  0  0  0  0  0  0  0  0  0  0
   37.7070   27.0030   35.4200 C   0  0  1  0  0  0  0  0  0  0  0  0
   37.9770   23.8620   38.4650 C   0  0  0  0  0  0  0  0  0  0  0  0
   37.7990   24.8200   37.4780 C   0  0  0  0  0  0  0  0  0  0  0  0
   38.5880   24.7700   36.3210 C   0  0  0  0  0  0  0  0  0  0  0  0
   39.4970   23.7830   36.2150 N   0  0  0  0  0  0  0  0  0  0  0  0
   39.6480   22.8650   37.1940 C   0  0  0  0  0  0  0  0  0  0  0  0
   38.9020   22.8940   38.3110 N   0  0  0  0  0  0  0  0  0  0  0  0
   35.9492   29.1020   35.6201 H   0  0  0  0  0  0  0  0  0  0  0  0
   35.4304   29.7212   29.5116 H   0  0  0  0  0  0  0  0  0  0  0  0
   34.9665   30.2804   31.1409 H   0  0  0  0  0  0  0  0  0  0  0  0
   37.6926   24.1707   31.0534 H   0  0  0  0  0  0  0  0  0  0  0  0
   39.0141   22.5300   29.6557 H   0  0  0  0  0  0  0  0  0  0  0  0
   40.6287   23.4872   28.0143 H   0  0  0  0  0  0  0  0  0  0  0  0
   42.3960   26.8430   27.9959 H   0  0  0  0  0  0  0  0  0  0  0  0
   38.3449   25.0067   34.4873 H   0  0  0  0  0  0  0  0  0  0  0  0
   39.6504   27.3078   36.5534 H   0  0  0  0  0  0  0  0  0  0  0  0
   40.0042   27.7172   35.1093 H   0  0  0  0  0  0  0  0  0  0  0  0
   36.8275   27.2188   36.0445 H   0  0  0  0  0  0  0  0  0  0  0  0
   37.3614   23.8924   39.3761 H   0  0  0  0  0  0  0  0  0  0  0  0
   37.0455   25.6117   37.6023 H   0  0  0  0  0  0  0  0  0  0  0  0
   40.4016   22.0727   37.0737 H   0  0  0  0  0  0  0  0  0  0  0  0
  1  2  1  0
  1 20  1  0
  3  2  2  0
  4  9  2  0
  4  3  1  0
  5  4  1  0
  6  7  1  0
  6  5  2  0
  7  8  2  0
  8  9  1  0
  9  1  1  0
 10  5  1  0
 11 12  2  0
 11  7  1  0
 13 12  1  0
 14 13  2  0
 15 14  1  0
 15 16  2  0
 16 11  1  0
 17 15  1  0
 18 20  1  0
 18 19  1  0
 18 23  1  0
 20 19  1  0
 22 21  2  0
 23 22  1  0
 24 23  2  0
 24 25  1  0
 25 26  2  0
 26 21  1  0
  2 27  1  0
 10 28  1  0
 10 29  1  0
 12 30  1  0
 13 31  1  0
 14 32  1  0
 17 33  1  0
 18 34  1  6
 19 35  1  0
 19 36  1  0
 20 37  1  1
 21 38  1  0
 22 39  1  0
 25 40  1  0
M  ISO  8  27  14  30  14  31  14  32  14  33  11  34  13  35  13  36  13
M  ISO  4  37  13  38  14  39  14  40  14
M  END
>  <minimizedAffinity>  (1) 
-5.77623177

>  <minimizedRMSD>  (1) 
0.0223505609

$$$$
