
     RDKit          3D

 22 23  0  0  0  0  0  0  0  0999 V2000
   42.6110   21.2170   36.7710 C   0  0  0  0  0  0  0  0  0  0  0  0
   42.5660   22.4190   36.1580 N   0  0  0  0  0  0  0  0  0  0  0  0
   41.5640   23.0960   36.6200 O   0  0  0  0  0  0  0  0  0  0  0  0
   40.9280   22.4040   37.5220 C   0  0  0  0  0  0  0  0  0  0  0  0
   41.5710   21.2420   37.6190 N   0  0  0  0  0  0  0  0  0  0  0  0
   39.7800   22.7290   38.2950 N   0  0  0  0  0  0  0  0  0  0  0  0
   38.5690   23.0190   37.6110 C   0  0  0  0  0  0  0  0  0  0  0  0
   38.2220   22.4140   36.5300 N   0  0  0  0  0  0  0  0  0  0  0  0
   37.6700   24.0170   38.1130 N   0  0  0  0  0  0  0  0  0  0  0  0
   38.8550   21.6870   36.1510 H   0  0  0  0  0  0  0  0  0  0  0  0
   43.8960   17.6850   36.9190 C   0  0  0  0  0  0  0  0  0  0  0  0
   43.0110   18.7600   37.0120 C   0  0  0  0  0  0  0  0  0  0  0  0
   43.4710   20.0370   36.7000 C   0  0  0  0  0  0  0  0  0  0  0  0
   44.7940   20.1700   36.3100 N   0  0  0  0  0  0  0  0  0  0  0  0
   45.6140   19.1140   36.2320 C   0  0  0  0  0  0  0  0  0  0  0  0
   45.1530   17.8810   36.5390 N   0  0  0  0  0  0  0  0  0  0  0  0
   39.8250   22.7536   39.3237 H   0  0  0  0  0  0  0  0  0  0  0  0
   36.7942   24.2207   37.6106 H   0  0  0  0  0  0  0  0  0  0  0  0
   37.9000   24.5301   38.9760 H   0  0  0  0  0  0  0  0  0  0  0  0
   43.5502   16.6694   37.1619 H   0  0  0  0  0  0  0  0  0  0  0  0
   41.9688   18.6016   37.3261 H   0  0  0  0  0  0  0  0  0  0  0  0
   46.6598   19.2497   35.9190 H   0  0  0  0  0  0  0  0  0  0  0  0
  1  5  1  0
  2  3  1  0
  2  1  2  0
  3  4  1  0
  4  5  2  0
  4  6  1  0
  7  9  1  0
  7  6  1  0
  8  7  2  0
 10  8  1  0
 11 12  2  0
 13  1  1  0
 13 12  1  0
 14 13  2  0
 15 14  1  0
 15 16  2  0
 16 11  1  0
  6 17  1  0
  9 18  1  0
  9 19  1  0
 11 20  1  0
 12 21  1  0
 15 22  1  0
M  ISO  3  20  14  21  14  22  14
M  END
>  <minimizedAffinity>  (1) 
-4.03774357

>  <minimizedRMSD>  (1) 
3.90431595

$$$$
