
     RDKit          3D

 18 19  0  0  0  0  0  0  0  0999 V2000
   42.1340   20.9290   37.5930 C   0  0  0  0  0  0  0  0  0  0  0  0
   41.0390   21.7680   37.3650 C   0  0  0  0  0  0  0  0  0  0  0  0
   40.7990   22.1000   36.0150 C   0  0  0  0  0  0  0  0  0  0  0  0
   41.6350   21.5910   35.0370 N   0  0  0  0  0  0  0  0  0  0  0  0
   42.6710   20.7880   35.3370 C   0  0  0  0  0  0  0  0  0  0  0  0
   42.9220   20.4550   36.6230 N   0  0  0  0  0  0  0  0  0  0  0  0
   39.6810   22.9720   35.6410 C   0  0  0  0  0  0  0  0  0  0  0  0
   38.5800   22.8400   34.8670 N   0  0  0  0  0  0  0  0  0  0  0  0
   37.9140   23.9680   34.8920 O   0  0  0  0  0  0  0  0  0  0  0  0
   38.5270   24.8390   35.6480 C   0  0  0  0  0  0  0  0  0  0  0  0
   39.6250   24.2450   36.1230 N   0  0  0  0  0  0  0  0  0  0  0  0
   38.1800   26.2450   35.9930 C   0  0  0  0  0  0  0  0  0  0  0  0
   42.3600   20.6424   38.6307 H   0  0  0  0  0  0  0  0  0  0  0  0
   40.4072   22.1439   38.1832 H   0  0  0  0  0  0  0  0  0  0  0  0
   43.3158   20.4011   34.5341 H   0  0  0  0  0  0  0  0  0  0  0  0
   38.1521   26.3580   37.0868 H   0  0  0  0  0  0  0  0  0  0  0  0
   38.9377   26.9232   35.5735 H   0  0  0  0  0  0  0  0  0  0  0  0
   37.1938   26.4928   35.5735 H   0  0  0  0  0  0  0  0  0  0  0  0
  2  1  2  0
  3  2  1  0
  4  5  1  0
  4  3  2  0
  5  6  2  0
  6  1  1  0
  7  3  1  0
  7 11  1  0
  8  9  1  0
  8  7  2  0
  9 10  1  0
 10 12  1  0
 10 11  2  0
  1 13  1  0
  2 14  1  0
  5 15  1  0
 12 16  1  0
 12 17  1  0
 12 18  1  0
M  ISO  6  13  14  14  14  15  14  16   8  17   8  18   8
M  END
>  <minimizedAffinity>  (1) 
-2.93267298

>  <minimizedRMSD>  (1) 
1.99377584

$$$$
