
     RDKit          3D

 34 37  0  0  0  0  0  0  0  0999 V2000
   36.6220   28.1030   33.4700 C   0  0  0  0  0  0  0  0  0  0  0  0
   37.9670   25.0680   34.9130 C   0  0  0  0  0  0  0  0  0  0  0  0
   37.7590   24.7300   33.6160 N   0  0  0  0  0  0  0  0  0  0  0  0
   37.2680   25.7840   33.0070 O   0  0  0  0  0  0  0  0  0  0  0  0
   37.1470   26.7820   33.8420 C   0  0  0  0  0  0  0  0  0  0  0  0
   37.5700   26.3810   35.0420 N   0  0  0  0  0  0  0  0  0  0  0  0
   38.3280   23.7110   38.3800 C   0  0  0  0  0  0  0  0  0  0  0  0
   37.7850   24.4350   37.3110 C   0  0  0  0  0  0  0  0  0  0  0  0
   38.4740   24.3440   36.0700 C   0  0  0  0  0  0  0  0  0  0  0  0
   39.5960   23.5700   36.0020 N   0  0  0  0  0  0  0  0  0  0  0  0
   40.0620   22.9030   37.0600 C   0  0  0  0  0  0  0  0  0  0  0  0
   39.4310   22.9730   38.2430 N   0  0  0  0  0  0  0  0  0  0  0  0
   35.8100   28.0130   32.2200 C   0  0  0  0  0  0  0  0  0  0  0  0
   36.3770   28.6190   31.0570 N   0  0  0  0  0  0  0  0  0  0  0  0
   37.0370   27.7170   30.2850 C   0  0  0  0  0  0  0  0  0  0  0  0
   37.5510   28.2860   29.1610 N   0  0  0  0  0  0  0  0  0  0  0  0
   37.2350   29.5870   29.1740 C   0  0  0  0  0  0  0  0  0  0  0  0
   37.4120   30.7260   28.4190 C   0  0  0  0  0  0  0  0  0  0  0  0
   36.9080   31.9050   28.8280 N   0  0  0  0  0  0  0  0  0  0  0  0
   36.2220   31.9990   29.9800 C   0  0  0  0  0  0  0  0  0  0  0  0
   36.0310   30.9140   30.7340 N   0  0  0  0  0  0  0  0  0  0  0  0
   36.5230   29.7400   30.3430 C   0  0  0  0  0  0  0  0  0  0  0  0
   38.1460   30.5700   27.2100 N   0  0  0  0  0  0  0  0  0  0  0  0
   35.9893   28.4833   34.2855 H   0  0  0  0  0  0  0  0  0  0  0  0
   37.4677   28.7843   33.2952 H   0  0  0  0  0  0  0  0  0  0  0  0
   37.8309   23.7520   39.3604 H   0  0  0  0  0  0  0  0  0  0  0  0
   36.8744   25.0415   37.4251 H   0  0  0  0  0  0  0  0  0  0  0  0
   40.9706   22.2908   36.9619 H   0  0  0  0  0  0  0  0  0  0  0  0
   35.6497   26.9473   31.9994 H   0  0  0  0  0  0  0  0  0  0  0  0
   34.8873   28.5753   32.4260 H   0  0  0  0  0  0  0  0  0  0  0  0
   37.1434   26.6520   30.5387 H   0  0  0  0  0  0  0  0  0  0  0  0
   35.8178   32.9702   30.3016 H   0  0  0  0  0  0  0  0  0  0  0  0
   38.5098   29.6438   26.9443 H   0  0  0  0  0  0  0  0  0  0  0  0
   38.3135   31.3833   26.6006 H   0  0  0  0  0  0  0  0  0  0  0  0
  1  5  1  0
  2  6  1  0
  2  9  1  0
  3  2  2  0
  4  3  1  0
  4  5  1  0
  5  6  2  0
  8  7  2  0
  9  8  1  0
 10  9  2  0
 10 11  1  0
 11 12  2  0
 12  7  1  0
 13  1  1  0
 14 13  1  0
 15 14  1  0
 16 17  1  0
 16 15  2  0
 17 22  2  0
 18 19  2  0
 18 17  1  0
 19 20  1  0
 20 21  2  0
 22 21  1  0
 22 14  1  0
 23 18  1  0
  1 24  1  0
  1 25  1  0
  7 26  1  0
  8 27  1  0
 11 28  1  0
 13 29  1  0
 13 30  1  0
 15 31  1  0
 20 32  1  0
 23 33  1  0
 23 34  1  0
M  ISO  8  24   8  25   8  26  14  27  14  28  14  29   8  30   8  31  14
M  ISO  1  32  14
M  END
>  <minimizedAffinity>  (1) 
-5.07684231

>  <minimizedRMSD>  (1) 
2.10468554

$$$$
