
     RDKit          3D

 29 31  0  0  0  0  0  0  0  0999 V2000
   37.9200   25.2400   35.0570 C   0  0  0  0  0  0  0  0  0  0  0  0
   37.7440   25.0760   33.7230 N   0  0  0  0  0  0  0  0  0  0  0  0
   37.1700   26.1540   33.2520 O   0  0  0  0  0  0  0  0  0  0  0  0
   36.9570   27.0240   34.2240 C   0  0  0  0  0  0  0  0  0  0  0  0
   37.4140   26.4810   35.3550 N   0  0  0  0  0  0  0  0  0  0  0  0
   38.4920   23.5710   38.3600 C   0  0  0  0  0  0  0  0  0  0  0  0
   37.9010   24.3670   37.3940 C   0  0  0  0  0  0  0  0  0  0  0  0
   38.4900   24.4190   36.1230 C   0  0  0  0  0  0  0  0  0  0  0  0
   39.6360   23.6740   35.8870 N   0  0  0  0  0  0  0  0  0  0  0  0
   40.1680   22.9140   36.8740 C   0  0  0  0  0  0  0  0  0  0  0  0
   39.5910   22.8760   38.0840 N   0  0  0  0  0  0  0  0  0  0  0  0
   36.3250   28.3640   34.0830 C   0  0  0  0  0  0  0  0  0  0  0  0
   36.2760   28.6670   32.5880 C   0  0  0  0  0  0  0  0  0  0  0  0
   35.0350   29.4400   32.3300 C   0  0  0  0  0  0  0  0  0  0  0  0
   33.8710   29.1180   33.0000 C   0  0  0  0  0  0  0  0  0  0  0  0
   32.6750   29.7810   32.8230 C   0  0  0  0  0  0  0  0  0  0  0  0
   32.6960   30.7930   31.9330 N   0  0  0  0  0  0  0  0  0  0  0  0
   33.8160   31.1360   31.2580 C   0  0  0  0  0  0  0  0  0  0  0  0
   34.9550   30.4650   31.4630 N   0  0  0  0  0  0  0  0  0  0  0  0
   38.0483   23.5131   39.3649 H   0  0  0  0  0  0  0  0  0  0  0  0
   36.9919   24.9443   37.6181 H   0  0  0  0  0  0  0  0  0  0  0  0
   41.0773   22.3254   36.6822 H   0  0  0  0  0  0  0  0  0  0  0  0
   35.3076   28.3498   34.5011 H   0  0  0  0  0  0  0  0  0  0  0  0
   36.8967   29.1316   34.6251 H   0  0  0  0  0  0  0  0  0  0  0  0
   37.1553   29.2598   32.2959 H   0  0  0  0  0  0  0  0  0  0  0  0
   36.2807   27.7352   32.0034 H   0  0  0  0  0  0  0  0  0  0  0  0
   33.8997   28.2840   33.7166 H   0  0  0  0  0  0  0  0  0  0  0  0
   31.7635   29.5023   33.3721 H   0  0  0  0  0  0  0  0  0  0  0  0
   33.7907   31.9682   30.5391 H   0  0  0  0  0  0  0  0  0  0  0  0
  1  5  1  0
  1  8  1  0
  2  1  2  0
  3  2  1  0
  3  4  1  0
  4  5  2  0
  7  6  2  0
  8  7  1  0
  9  8  2  0
  9 10  1  0
 10 11  2  0
 11  6  1  0
 12  4  1  0
 13 12  1  0
 14 13  1  0
 14 15  2  0
 16 15  1  0
 17 16  2  0
 18 19  2  0
 18 17  1  0
 19 14  1  0
  6 20  1  0
  7 21  1  0
 10 22  1  0
 12 23  1  0
 12 24  1  0
 13 25  1  0
 13 26  1  0
 15 27  1  0
 16 28  1  0
 18 29  1  0
M  ISO  8  20  14  21  14  22  14  23   8  24   8  25   8  26   8  27  14
M  ISO  2  28  14  29  14
M  END
>  <minimizedAffinity>  (1) 
-4.60898876

>  <minimizedRMSD>  (1) 
1.14440036

$$$$
