
     RDKit          3D

 28 30  0  0  0  0  0  0  0  0999 V2000
   37.9430   25.1820   34.8580 C   0  0  0  0  0  0  0  0  0  0  0  0
   37.8430   24.9510   33.5370 N   0  0  0  0  0  0  0  0  0  0  0  0
   37.2980   26.0080   32.9800 O   0  0  0  0  0  0  0  0  0  0  0  0
   37.0390   26.9220   33.8840 C   0  0  0  0  0  0  0  0  0  0  0  0
   37.4300   26.4340   35.0540 N   0  0  0  0  0  0  0  0  0  0  0  0
   38.3050   23.7170   38.2890 C   0  0  0  0  0  0  0  0  0  0  0  0
   37.7910   24.4550   37.2340 C   0  0  0  0  0  0  0  0  0  0  0  0
   38.4430   24.4210   35.9950 C   0  0  0  0  0  0  0  0  0  0  0  0
   39.5810   23.6420   35.8860 N   0  0  0  0  0  0  0  0  0  0  0  0
   40.0330   22.9510   36.9350 C   0  0  0  0  0  0  0  0  0  0  0  0
   39.4040   22.9880   38.1170 N   0  0  0  0  0  0  0  0  0  0  0  0
   36.4240   28.2350   33.6040 C   0  0  0  0  0  0  0  0  0  0  0  0
   35.6470   28.1620   32.3290 C   0  0  0  0  0  0  0  0  0  0  0  0
   36.2640   28.8340   31.1690 C   0  0  0  0  0  0  0  0  0  0  0  0
   36.4970   30.1050   30.7020 C   0  0  0  0  0  0  0  0  0  0  0  0
   37.1520   30.0960   29.4980 C   0  0  0  0  0  0  0  0  0  0  0  0
   37.3070   28.7610   29.2560 C   0  0  0  0  0  0  0  0  0  0  0  0
   36.7910   28.0580   30.2260 O   0  0  0  0  0  0  0  0  0  0  0  0
   37.8040   23.7344   39.2681 H   0  0  0  0  0  0  0  0  0  0  0  0
   36.8821   25.0599   37.3684 H   0  0  0  0  0  0  0  0  0  0  0  0
   40.9404   22.3388   36.8265 H   0  0  0  0  0  0  0  0  0  0  0  0
   35.7492   28.5068   34.4291 H   0  0  0  0  0  0  0  0  0  0  0  0
   37.2130   28.9955   33.5085 H   0  0  0  0  0  0  0  0  0  0  0  0
   35.5135   27.1003   32.0740 H   0  0  0  0  0  0  0  0  0  0  0  0
   34.7036   28.6946   32.5196 H   0  0  0  0  0  0  0  0  0  0  0  0
   36.1940   31.0205   31.2312 H   0  0  0  0  0  0  0  0  0  0  0  0
   37.4721   30.9492   28.8819 H   0  0  0  0  0  0  0  0  0  0  0  0
   37.7982   28.3377   28.3674 H   0  0  0  0  0  0  0  0  0  0  0  0
  1  5  1  0
  1  8  1  0
  2  1  2  0
  3  2  1  0
  3  4  1  0
  4  5  2  0
  7  6  2  0
  8  7  1  0
  9  8  2  0
  9 10  1  0
 10 11  2  0
 11  6  1  0
 12  4  1  0
 13 12  1  0
 14 13  1  0
 15 14  2  0
 16 15  1  0
 17 16  2  0
 17 18  1  0
 18 14  1  0
  6 19  1  0
  7 20  1  0
 10 21  1  0
 12 22  1  0
 12 23  1  0
 13 24  1  0
 13 25  1  0
 15 26  1  0
 16 27  1  0
 17 28  1  0
M  ISO  8  19  14  20  14  21  14  22   8  23   8  24   8  25   8  26  14
M  ISO  2  27  14  28  14
M  END
>  <minimizedAffinity>  (1) 
-4.55772972

>  <minimizedRMSD>  (1) 
1.38847113

$$$$
