
     RDKit          3D

 40 43  0  0  0  0  0  0  0  0999 V2000
   43.3600   22.6410   33.8850 C   0  0  0  0  0  0  0  0  0  0  0  0
   43.2960   23.9450   34.4230 C   0  0  0  0  0  0  0  0  0  0  0  0
   44.9680   24.6470   33.9600 S   0  0  0  0  0  0  0  0  0  0  0  0
   45.4280   23.0190   33.1210 C   0  0  0  0  0  0  0  0  0  0  0  0
   44.4980   22.4340   33.3020 N   0  0  0  0  0  0  0  0  0  0  0  0
   46.6710   22.7000   32.4490 N   0  0  0  0  0  0  0  0  0  0  0  0
   47.5720   22.0730   33.2060 C   0  0  0  0  0  0  0  0  0  0  0  0
   48.6900   21.8410   32.4260 C   0  0  0  0  0  0  0  0  0  0  0  0
   48.3990   22.3520   31.2090 N   0  0  0  0  0  0  0  0  0  0  0  0
   47.1680   22.8750   31.2220 C   0  0  0  0  0  0  0  0  0  0  0  0
   46.3640   23.5490   30.1860 C   0  0  0  0  0  0  0  0  0  0  0  0
   46.4260   25.0440   30.4850 C   0  0  0  0  0  0  0  0  0  0  0  0
   47.8130   25.4110   30.0020 C   0  0  0  0  0  0  0  0  0  0  0  0
   48.1460   24.4800   28.8810 C   0  0  0  0  0  0  0  0  0  0  0  0
   47.0330   23.4910   28.8370 C   0  0  0  0  0  0  0  0  0  0  0  0
   41.9310   21.5900   34.1050 S   0  0  0  0  0  0  0  0  0  0  0  0
   40.4640   22.3860   37.7140 C   0  0  0  0  0  0  0  0  0  0  0  0
   39.3100   23.1340   37.4520 C   0  0  0  0  0  0  0  0  0  0  0  0
   38.9980   23.3870   36.1150 C   0  0  0  0  0  0  0  0  0  0  0  0
   39.8100   22.9060   35.1210 N   0  0  0  0  0  0  0  0  0  0  0  0
   40.9280   22.1790   35.4370 C   0  0  0  0  0  0  0  0  0  0  0  0
   41.2280   21.9370   36.7140 N   0  0  0  0  0  0  0  0  0  0  0  0
   38.4110   23.6670   38.5040 C   0  0  0  0  0  0  0  0  0  0  0  0
   39.2060   23.8670   39.6320 F   0  0  0  0  0  0  0  0  0  0  0  0
   37.3950   22.8240   38.8210 F   0  0  0  0  0  0  0  0  0  0  0  0
   37.9850   24.9710   38.1870 F   0  0  0  0  0  0  0  0  0  0  0  0
   42.4737   24.4254   34.9735 H   0  0  0  0  0  0  0  0  0  0  0  0
   47.4481   21.7908   34.2619 H   0  0  0  0  0  0  0  0  0  0  0  0
   49.6223   21.3440   32.7323 H   0  0  0  0  0  0  0  0  0  0  0  0
   45.3685   23.0810   30.1827 H   0  0  0  0  0  0  0  0  0  0  0  0
   45.6520   25.5940   29.9296 H   0  0  0  0  0  0  0  0  0  0  0  0
   46.2478   25.2900   31.5422 H   0  0  0  0  0  0  0  0  0  0  0  0
   47.8258   26.4515   29.6454 H   0  0  0  0  0  0  0  0  0  0  0  0
   48.5479   25.3241   30.8159 H   0  0  0  0  0  0  0  0  0  0  0  0
   48.2083   25.0303   27.9306 H   0  0  0  0  0  0  0  0  0  0  0  0
   49.1192   23.9907   29.0340 H   0  0  0  0  0  0  0  0  0  0  0  0
   46.3176   23.7573   28.0450 H   0  0  0  0  0  0  0  0  0  0  0  0
   47.4048   22.4793   28.6177 H   0  0  0  0  0  0  0  0  0  0  0  0
   40.7448   22.1655   38.7544 H   0  0  0  0  0  0  0  0  0  0  0  0
   38.1018   23.9715   35.8596 H   0  0  0  0  0  0  0  0  0  0  0  0
  1 16  1  0
  1  2  2  0
  3  2  1  0
  4  5  2  0
  4  3  1  0
  5  1  1  0
  6  4  1  0
  6  7  1  0
  8  7  2  0
  9 10  2  0
  9  8  1  0
 10  6  1  0
 11 12  1  0
 11 10  1  0
 13 12  1  0
 14 13  1  0
 15 14  1  0
 15 11  1  0
 16 21  1  0
 18 17  2  0
 18 23  1  0
 19 18  1  0
 20 21  1  0
 20 19  2  0
 21 22  2  0
 22 17  1  0
 23 25  1  0
 23 24  1  0
 26 23  1  0
  2 27  1  0
  7 28  1  0
  8 29  1  0
 11 30  1  0
 12 31  1  0
 12 32  1  0
 13 33  1  0
 13 34  1  0
 14 35  1  0
 14 36  1  0
 15 37  1  0
 15 38  1  0
 17 39  1  0
 19 40  1  0
M  ISO  8  27  14  28  14  29  14  30  13  31  13  32  13  33  13  34  13
M  ISO  6  35  13  36  13  37  13  38  13  39  14  40  14
M  END
>  <minimizedAffinity>  (1) 
-3.63393521

>  <minimizedRMSD>  (1) 
0.42625612

$$$$
