
     RDKit          3D

 33 36  0  0  0  0  0  0  0  0999 V2000
   36.5780   27.9730   33.7190 C   0  0  0  0  0  0  0  0  0  0  0  0
   38.0180   24.9450   35.1060 C   0  0  0  0  0  0  0  0  0  0  0  0
   37.8240   24.6350   33.8120 N   0  0  0  0  0  0  0  0  0  0  0  0
   37.2990   25.6840   33.2220 O   0  0  0  0  0  0  0  0  0  0  0  0
   37.1400   26.6680   34.0730 C   0  0  0  0  0  0  0  0  0  0  0  0
   37.5750   26.2400   35.2450 N   0  0  0  0  0  0  0  0  0  0  0  0
   38.5290   23.6770   38.5920 C   0  0  0  0  0  0  0  0  0  0  0  0
   37.9460   24.3830   37.5410 C   0  0  0  0  0  0  0  0  0  0  0  0
   38.5510   24.2470   36.2730 C   0  0  0  0  0  0  0  0  0  0  0  0
   39.6720   23.4330   36.1560 N   0  0  0  0  0  0  0  0  0  0  0  0
   40.1750   22.7910   37.1980 C   0  0  0  0  0  0  0  0  0  0  0  0
   39.6150   22.9070   38.4040 N   0  0  0  0  0  0  0  0  0  0  0  0
   35.9610   27.9460   32.3660 C   0  0  0  0  0  0  0  0  0  0  0  0
   35.9460   29.1950   31.6090 C   0  0  0  0  0  0  0  0  0  0  0  0
   35.1380   30.3130   31.6390 C   0  0  0  0  0  0  0  0  0  0  0  0
   35.5340   31.2220   30.7280 N   0  0  0  0  0  0  0  0  0  0  0  0
   36.5990   30.7230   30.0910 C   0  0  0  0  0  0  0  0  0  0  0  0
   36.8300   29.5210   30.6250 N   0  0  0  0  0  0  0  0  0  0  0  0
   37.9030   28.6700   30.1960 C   0  0  0  0  0  0  0  0  0  0  0  0
   37.9160   27.3150   30.3560 N   0  0  0  0  0  0  0  0  0  0  0  0
   39.0190   26.8140   29.8690 O   0  0  0  0  0  0  0  0  0  0  0  0
   39.7550   27.7950   29.3840 C   0  0  0  0  0  0  0  0  0  0  0  0
   39.0760   28.9400   29.5810 N   0  0  0  0  0  0  0  0  0  0  0  0
   35.8098   28.2448   34.4579 H   0  0  0  0  0  0  0  0  0  0  0  0
   37.3924   28.7124   33.7148 H   0  0  0  0  0  0  0  0  0  0  0  0
   38.0906   23.7515   39.5981 H   0  0  0  0  0  0  0  0  0  0  0  0
   37.0584   25.0149   37.6923 H   0  0  0  0  0  0  0  0  0  0  0  0
   41.0635   22.1554   37.0690 H   0  0  0  0  0  0  0  0  0  0  0  0
   36.5102   27.2041   31.7677 H   0  0  0  0  0  0  0  0  0  0  0  0
   34.9010   27.7128   32.5449 H   0  0  0  0  0  0  0  0  0  0  0  0
   34.2826   30.4445   32.3180 H   0  0  0  0  0  0  0  0  0  0  0  0
   37.1716   31.2071   29.2862 H   0  0  0  0  0  0  0  0  0  0  0  0
   40.7411   27.6957   28.9069 H   0  0  0  0  0  0  0  0  0  0  0  0
  1  5  1  0
  2  6  1  0
  2  9  1  0
  3  2  2  0
  4  3  1  0
  4  5  1  0
  5  6  2  0
  8  7  2  0
  9  8  1  0
 10  9  2  0
 10 11  1  0
 11 12  2  0
 12  7  1  0
 13  1  1  0
 14 15  2  0
 14 13  1  0
 16 15  1  0
 17 18  1  0
 17 16  2  0
 18 14  1  0
 19 20  2  0
 19 18  1  0
 21 20  1  0
 22 23  2  0
 22 21  1  0
 23 19  1  0
  1 24  1  0
  1 25  1  0
  7 26  1  0
  8 27  1  0
 11 28  1  0
 13 29  1  0
 13 30  1  0
 15 31  1  0
 17 32  1  0
 22 33  1  0
M  ISO  8  24   8  25   8  26  14  27  14  28  14  29   8  30   8  31  14
M  ISO  2  32  14  33  14
M  END
>  <minimizedAffinity>  (1) 
-4.95496082

>  <minimizedRMSD>  (1) 
1.9078697

$$$$
