
     RDKit          3D

 34 36  0  0  0  0  0  0  0  0999 V2000
   36.2800   28.4680   34.2610 C   0  0  0  0  0  0  0  0  0  0  0  0
   37.9160   25.3410   35.1150 C   0  0  0  0  0  0  0  0  0  0  0  0
   37.6850   25.2280   33.7800 N   0  0  0  0  0  0  0  0  0  0  0  0
   37.0890   26.3420   33.4120 O   0  0  0  0  0  0  0  0  0  0  0  0
   36.9180   27.1610   34.4030 C   0  0  0  0  0  0  0  0  0  0  0  0
   37.4220   26.5590   35.4560 N   0  0  0  0  0  0  0  0  0  0  0  0
   38.5750   23.4910   38.2940 C   0  0  0  0  0  0  0  0  0  0  0  0
   37.9310   24.3440   37.3990 C   0  0  0  0  0  0  0  0  0  0  0  0
   38.5300   24.4690   36.1050 C   0  0  0  0  0  0  0  0  0  0  0  0
   39.6800   23.7570   35.8250 N   0  0  0  0  0  0  0  0  0  0  0  0
   40.2360   22.9570   36.7440 C   0  0  0  0  0  0  0  0  0  0  0  0
   39.6900   22.8270   37.9610 N   0  0  0  0  0  0  0  0  0  0  0  0
   35.6040   28.5960   32.9290 C   0  0  0  0  0  0  0  0  0  0  0  0
   36.0390   29.7120   32.0810 C   0  0  0  0  0  0  0  0  0  0  0  0
   36.0250   31.1010   32.2140 C   0  0  0  0  0  0  0  0  0  0  0  0
   36.5660   31.6970   31.1490 N   0  0  0  0  0  0  0  0  0  0  0  0
   36.9370   30.7090   30.3120 C   0  0  0  0  0  0  0  0  0  0  0  0
   36.6180   29.5230   30.8770 N   0  0  0  0  0  0  0  0  0  0  0  0
   36.9390   28.3780   30.0430 C   0  0  0  0  0  0  0  0  0  0  0  0
   37.6520   28.8250   28.7650 C   0  0  0  0  0  0  0  0  0  0  0  0
   35.5312   28.5908   35.0573 H   0  0  0  0  0  0  0  0  0  0  0  0
   37.0547   29.2453   34.3361 H   0  0  0  0  0  0  0  0  0  0  0  0
   38.1557   23.3593   39.3024 H   0  0  0  0  0  0  0  0  0  0  0  0
   37.0155   24.8895   37.6715 H   0  0  0  0  0  0  0  0  0  0  0  0
   41.1518   22.4000   36.4970 H   0  0  0  0  0  0  0  0  0  0  0  0
   35.7817   27.6639   32.3726 H   0  0  0  0  0  0  0  0  0  0  0  0
   34.5465   28.7965   33.1561 H   0  0  0  0  0  0  0  0  0  0  0  0
   35.6199   31.6365   33.0853 H   0  0  0  0  0  0  0  0  0  0  0  0
   37.4189   30.8445   29.3325 H   0  0  0  0  0  0  0  0  0  0  0  0
   37.5951   27.6955   30.6031 H   0  0  0  0  0  0  0  0  0  0  0  0
   36.0046   27.8672   29.7674 H   0  0  0  0  0  0  0  0  0  0  0  0
   38.5567   29.3922   29.0291 H   0  0  0  0  0  0  0  0  0  0  0  0
   37.9330   27.9411   28.1736 H   0  0  0  0  0  0  0  0  0  0  0  0
   36.9788   29.4630   28.1736 H   0  0  0  0  0  0  0  0  0  0  0  0
  1  5  1  0
  2  6  1  0
  2  9  1  0
  3  2  2  0
  4  3  1  0
  4  5  1  0
  5  6  2  0
  8  7  2  0
  9  8  1  0
 10  9  2  0
 10 11  1  0
 11 12  2  0
 12  7  1  0
 13  1  1  0
 14 15  2  0
 14 13  1  0
 16 15  1  0
 17 18  1  0
 17 16  2  0
 18 14  1  0
 19 18  1  0
 20 19  1  0
  1 21  1  0
  1 22  1  0
  7 23  1  0
  8 24  1  0
 11 25  1  0
 13 26  1  0
 13 27  1  0
 15 28  1  0
 17 29  1  0
 19 30  1  0
 19 31  1  0
 20 32  1  0
 20 33  1  0
 20 34  1  0
M  ISO  8  21   8  22   8  23  14  24  14  25  14  26   8  27   8  28  14
M  ISO  6  29  14  30   8  31   8  32   8  33   8  34   8
M  END
>  <minimizedAffinity>  (1) 
-4.60256004

>  <minimizedRMSD>  (1) 
1.51588726

$$$$
