
     RDKit          3D

 43 47  0  0  0  0  0  0  0  0999 V2000
   36.1180   29.7500   32.3300 C   0  0  0  0  0  0  0  0  0  0  0  0
   36.7260   30.1610   31.1670 C   0  0  0  0  0  0  0  0  0  0  0  0
   36.6660   31.4920   31.0380 N   0  0  0  0  0  0  0  0  0  0  0  0
   36.0240   31.9690   32.1050 C   0  0  0  0  0  0  0  0  0  0  0  0
   35.6940   30.9350   32.8800 N   0  0  0  0  0  0  0  0  0  0  0  0
   34.9940   31.0720   34.1120 C   0  0  0  0  0  0  0  0  0  0  0  0
   35.6610   31.7030   35.1660 C   0  0  0  0  0  0  0  0  0  0  0  0
   35.0780   31.8920   36.4110 C   0  0  0  0  0  0  0  0  0  0  0  0
   33.8030   31.4470   36.6230 N   0  0  0  0  0  0  0  0  0  0  0  0
   33.1960   30.8450   35.5830 C   0  0  0  0  0  0  0  0  0  0  0  0
   33.7410   30.6470   34.3550 N   0  0  0  0  0  0  0  0  0  0  0  0
   31.8660   30.3630   35.7540 N   0  0  0  0  0  0  0  0  0  0  0  0
   30.9580   30.5170   36.7030 N   0  0  0  0  0  0  0  0  0  0  0  0
   29.8330   29.8450   36.3900 C   0  0  0  0  0  0  0  0  0  0  0  0
   30.0440   29.2220   35.1550 C   0  0  0  0  0  0  0  0  0  0  0  0
   31.3450   29.5700   34.7760 C   0  0  0  0  0  0  0  0  0  0  0  0
   35.9070   28.4330   32.9430 C   0  0  0  0  0  0  0  0  0  0  0  0
   36.4340   28.2340   34.3160 C   0  0  0  0  0  0  0  0  0  0  0  0
   38.0680   25.1220   35.2020 C   0  0  0  0  0  0  0  0  0  0  0  0
   37.7480   24.9500   33.8790 N   0  0  0  0  0  0  0  0  0  0  0  0
   37.1460   26.0460   33.4810 O   0  0  0  0  0  0  0  0  0  0  0  0
   37.0550   26.9160   34.4560 C   0  0  0  0  0  0  0  0  0  0  0  0
   37.6140   26.3710   35.5190 N   0  0  0  0  0  0  0  0  0  0  0  0
   38.8360   23.3190   38.3760 C   0  0  0  0  0  0  0  0  0  0  0  0
   38.1540   24.1450   37.4800 C   0  0  0  0  0  0  0  0  0  0  0  0
   38.7290   24.2800   36.1720 C   0  0  0  0  0  0  0  0  0  0  0  0
   39.8840   23.6030   35.8960 N   0  0  0  0  0  0  0  0  0  0  0  0
   40.4820   22.8270   36.8090 C   0  0  0  0  0  0  0  0  0  0  0  0
   39.9760   22.6850   38.0190 N   0  0  0  0  0  0  0  0  0  0  0  0
   37.1990   29.4854   30.4391 H   0  0  0  0  0  0  0  0  0  0  0  0
   35.8054   33.0275   32.3096 H   0  0  0  0  0  0  0  0  0  0  0  0
   36.6873   32.0635   35.0023 H   0  0  0  0  0  0  0  0  0  0  0  0
   35.6345   32.3933   37.2166 H   0  0  0  0  0  0  0  0  0  0  0  0
   28.9157   29.7952   36.9951 H   0  0  0  0  0  0  0  0  0  0  0  0
   29.3354   28.5908   34.5986 H   0  0  0  0  0  0  0  0  0  0  0  0
   31.8562   29.2589   33.8530 H   0  0  0  0  0  0  0  0  0  0  0  0
   34.8224   28.2523   32.9750 H   0  0  0  0  0  0  0  0  0  0  0  0
   36.4770   27.7323   32.3151 H   0  0  0  0  0  0  0  0  0  0  0  0
   37.1848   29.0093   34.5286 H   0  0  0  0  0  0  0  0  0  0  0  0
   35.5960   28.3026   35.0253 H   0  0  0  0  0  0  0  0  0  0  0  0
   38.4381   23.1813   39.3922 H   0  0  0  0  0  0  0  0  0  0  0  0
   37.2260   24.6642   37.7616 H   0  0  0  0  0  0  0  0  0  0  0  0
   41.4105   22.2992   36.5456 H   0  0  0  0  0  0  0  0  0  0  0  0
  1  5  1  0
  1 17  1  0
  2  1  2  0
  3  2  1  0
  3  4  2  0
  4  5  1  0
  5  6  1  0
  6 11  1  0
  6  7  2  0
  7  8  1  0
  8  9  2  0
 10 12  1  0
 10  9  1  0
 11 10  2  0
 12 13  1  0
 14 13  2  0
 15 14  1  0
 16 15  2  0
 16 12  1  0
 17 18  1  0
 18 22  1  0
 19 23  1  0
 19 26  1  0
 20 19  2  0
 21 20  1  0
 21 22  1  0
 22 23  2  0
 25 24  2  0
 26 25  1  0
 27 26  2  0
 27 28  1  0
 28 29  2  0
 29 24  1  0
  2 30  1  0
  4 31  1  0
  7 32  1  0
  8 33  1  0
 14 34  1  0
 15 35  1  0
 16 36  1  0
 17 37  1  0
 17 38  1  0
 18 39  1  0
 18 40  1  0
 24 41  1  0
 25 42  1  0
 28 43  1  0
M  ISO  8  30  14  31  14  32  14  33  14  34  14  35  14  36  14  37   8
M  ISO  6  38   8  39   8  40   8  41  14  42  14  43  14
M  END
>  <minimizedAffinity>  (1) 
-6.15078735

>  <minimizedRMSD>  (1) 
0.48723498

$$$$
