
     RDKit          3D

 42 46  0  0  0  0  0  0  0  0999 V2000
   35.7880   28.6960   33.3420 C   0  0  0  0  0  0  0  0  0  0  0  0
   35.9000   30.0170   32.7350 C   0  0  0  0  0  0  0  0  0  0  0  0
   36.4210   30.4780   31.5570 C   0  0  0  0  0  0  0  0  0  0  0  0
   36.2800   31.8120   31.4540 N   0  0  0  0  0  0  0  0  0  0  0  0
   35.6700   32.2340   32.5560 C   0  0  0  0  0  0  0  0  0  0  0  0
   35.4400   31.1730   33.3230 N   0  0  0  0  0  0  0  0  0  0  0  0
   34.7980   31.2580   34.5870 C   0  0  0  0  0  0  0  0  0  0  0  0
   35.4480   31.9590   35.6060 C   0  0  0  0  0  0  0  0  0  0  0  0
   34.9080   32.1050   36.8850 C   0  0  0  0  0  0  0  0  0  0  0  0
   33.7020   31.5440   37.1540 N   0  0  0  0  0  0  0  0  0  0  0  0
   33.0960   30.8740   36.1570 C   0  0  0  0  0  0  0  0  0  0  0  0
   33.6110   30.7320   34.9260 N   0  0  0  0  0  0  0  0  0  0  0  0
   31.8310   30.2840   36.4340 N   0  0  0  0  0  0  0  0  0  0  0  0
   31.5920   29.1330   37.1180 C   0  0  0  0  0  0  0  0  0  0  0  0
   30.2660   28.8760   37.1880 N   0  0  0  0  0  0  0  0  0  0  0  0
   29.6670   29.8720   36.5450 C   0  0  0  0  0  0  0  0  0  0  0  0
   30.6240   30.7090   36.0980 N   0  0  0  0  0  0  0  0  0  0  0  0
   36.5140   28.4480   34.6150 C   0  0  0  0  0  0  0  0  0  0  0  0
   38.0710   25.2540   35.2680 C   0  0  0  0  0  0  0  0  0  0  0  0
   37.6760   25.1490   33.9590 N   0  0  0  0  0  0  0  0  0  0  0  0
   37.0980   26.2840   33.6490 O   0  0  0  0  0  0  0  0  0  0  0  0
   37.0920   27.0990   34.6540 C   0  0  0  0  0  0  0  0  0  0  0  0
   37.6850   26.4980   35.6710 N   0  0  0  0  0  0  0  0  0  0  0  0
   38.9410   23.2350   38.2740 C   0  0  0  0  0  0  0  0  0  0  0  0
   38.2310   24.1250   37.4670 C   0  0  0  0  0  0  0  0  0  0  0  0
   38.7520   24.3430   36.1640 C   0  0  0  0  0  0  0  0  0  0  0  0
   39.8900   23.6730   35.8070 N   0  0  0  0  0  0  0  0  0  0  0  0
   40.5160   22.8360   36.6310 C   0  0  0  0  0  0  0  0  0  0  0  0
   40.0500   22.6170   37.8510 N   0  0  0  0  0  0  0  0  0  0  0  0
   36.1582   27.9661   32.6070 H   0  0  0  0  0  0  0  0  0  0  0  0
   34.7250   28.6069   33.6107 H   0  0  0  0  0  0  0  0  0  0  0  0
   36.8932   29.8415   30.7942 H   0  0  0  0  0  0  0  0  0  0  0  0
   35.4031   33.2748   32.7916 H   0  0  0  0  0  0  0  0  0  0  0  0
   36.4259   32.4148   35.3915 H   0  0  0  0  0  0  0  0  0  0  0  0
   35.4505   32.6649   37.6610 H   0  0  0  0  0  0  0  0  0  0  0  0
   32.3738   28.4954   37.5564 H   0  0  0  0  0  0  0  0  0  0  0  0
   28.5829   29.9922   36.4027 H   0  0  0  0  0  0  0  0  0  0  0  0
   37.3236   29.1861   34.7138 H   0  0  0  0  0  0  0  0  0  0  0  0
   35.7962   28.5386   35.4435 H   0  0  0  0  0  0  0  0  0  0  0  0
   38.5767   23.0347   39.2924 H   0  0  0  0  0  0  0  0  0  0  0  0
   37.3194   24.6292   37.8202 H   0  0  0  0  0  0  0  0  0  0  0  0
   41.4286   22.3216   36.2956 H   0  0  0  0  0  0  0  0  0  0  0  0
  1 18  1  0
  2  6  1  0
  2  1  1  0
  3  2  2  0
  4  3  1  0
  4  5  2  0
  5  6  1  0
  6  7  1  0
  7 12  1  0
  7  8  2  0
  8  9  1  0
  9 10  2  0
 11 13  1  0
 11 10  1  0
 12 11  2  0
 13 14  1  0
 14 15  2  0
 16 15  1  0
 17 13  1  0
 17 16  2  0
 18 22  1  0
 19 23  1  0
 19 26  1  0
 20 19  2  0
 21 20  1  0
 21 22  1  0
 22 23  2  0
 25 24  2  0
 26 25  1  0
 27 26  2  0
 27 28  1  0
 28 29  2  0
 29 24  1  0
  1 30  1  0
  1 31  1  0
  3 32  1  0
  5 33  1  0
  8 34  1  0
  9 35  1  0
 14 36  1  0
 16 37  1  0
 18 38  1  0
 18 39  1  0
 24 40  1  0
 25 41  1  0
 28 42  1  0
M  ISO  8  30   8  31   8  32  14  33  14  34  14  35  14  36  14  37  14
M  ISO  5  38   8  39   8  40  14  41  14  42  14
M  END
>  <minimizedAffinity>  (1) 
-6.14361811

>  <minimizedRMSD>  (1) 
0.291943848

$$$$
