
     RDKit          3D

 43 47  0  0  0  0  0  0  0  0999 V2000
   35.8020   28.6050   33.3080 C   0  0  0  0  0  0  0  0  0  0  0  0
   35.8970   29.9330   32.7090 C   0  0  0  0  0  0  0  0  0  0  0  0
   36.4380   30.3880   31.5400 C   0  0  0  0  0  0  0  0  0  0  0  0
   36.2840   31.7190   31.4080 N   0  0  0  0  0  0  0  0  0  0  0  0
   35.6380   32.1490   32.4920 C   0  0  0  0  0  0  0  0  0  0  0  0
   35.4050   31.0790   33.2730 N   0  0  0  0  0  0  0  0  0  0  0  0
   34.7290   31.1660   34.5220 C   0  0  0  0  0  0  0  0  0  0  0  0
   35.3910   31.8400   35.5550 C   0  0  0  0  0  0  0  0  0  0  0  0
   34.8360   31.9940   36.8240 C   0  0  0  0  0  0  0  0  0  0  0  0
   33.5960   31.4650   37.0680 N   0  0  0  0  0  0  0  0  0  0  0  0
   32.9940   30.8230   36.0410 C   0  0  0  0  0  0  0  0  0  0  0  0
   33.5130   30.6650   34.8100 N   0  0  0  0  0  0  0  0  0  0  0  0
   31.7210   30.3080   36.3680 N   0  0  0  0  0  0  0  0  0  0  0  0
   30.4670   30.8350   36.2650 C   0  0  0  0  0  0  0  0  0  0  0  0
   29.6020   29.8750   36.7380 C   0  0  0  0  0  0  0  0  0  0  0  0
   30.2790   28.7890   37.1240 N   0  0  0  0  0  0  0  0  0  0  0  0
   31.5740   29.0650   36.8930 C   0  0  0  0  0  0  0  0  0  0  0  0
   36.5280   28.3890   34.5930 C   0  0  0  0  0  0  0  0  0  0  0  0
   38.0990   25.1950   35.2640 C   0  0  0  0  0  0  0  0  0  0  0  0
   37.7120   25.0870   33.9680 N   0  0  0  0  0  0  0  0  0  0  0  0
   37.1250   26.2230   33.6450 O   0  0  0  0  0  0  0  0  0  0  0  0
   37.1130   27.0480   34.6510 C   0  0  0  0  0  0  0  0  0  0  0  0
   37.7070   26.4400   35.6630 N   0  0  0  0  0  0  0  0  0  0  0  0
   38.9640   23.2190   38.3170 C   0  0  0  0  0  0  0  0  0  0  0  0
   38.2400   24.0920   37.4920 C   0  0  0  0  0  0  0  0  0  0  0  0
   38.7830   24.3050   36.1880 C   0  0  0  0  0  0  0  0  0  0  0  0
   39.9560   23.6550   35.8320 N   0  0  0  0  0  0  0  0  0  0  0  0
   40.5740   22.8400   36.6890 C   0  0  0  0  0  0  0  0  0  0  0  0
   40.0890   22.6260   37.9070 N   0  0  0  0  0  0  0  0  0  0  0  0
   36.1966   27.8827   32.5783 H   0  0  0  0  0  0  0  0  0  0  0  0
   34.7378   28.4786   33.5560 H   0  0  0  0  0  0  0  0  0  0  0  0
   36.9373   29.7467   30.7988 H   0  0  0  0  0  0  0  0  0  0  0  0
   35.3487   33.1880   32.7080 H   0  0  0  0  0  0  0  0  0  0  0  0
   36.3866   32.2640   35.3577 H   0  0  0  0  0  0  0  0  0  0  0  0
   35.3827   32.5297   37.6141 H   0  0  0  0  0  0  0  0  0  0  0  0
   30.2001   31.8303   35.8801 H   0  0  0  0  0  0  0  0  0  0  0  0
   28.5089   29.9856   36.7909 H   0  0  0  0  0  0  0  0  0  0  0  0
   32.4047   28.3749   37.1018 H   0  0  0  0  0  0  0  0  0  0  0  0
   37.3314   29.1352   34.6812 H   0  0  0  0  0  0  0  0  0  0  0  0
   35.8105   28.4924   35.4204 H   0  0  0  0  0  0  0  0  0  0  0  0
   38.5943   23.0162   39.3330 H   0  0  0  0  0  0  0  0  0  0  0  0
   37.3136   24.5812   37.8275 H   0  0  0  0  0  0  0  0  0  0  0  0
   41.5021   22.3361   36.3812 H   0  0  0  0  0  0  0  0  0  0  0  0
  1 18  1  0
  2  6  1  0
  2  1  1  0
  3  2  2  0
  4  3  1  0
  4  5  2  0
  5  6  1  0
  6  7  1  0
  7 12  1  0
  7  8  2  0
  8  9  1  0
  9 10  2  0
 11 13  1  0
 11 10  1  0
 12 11  2  0
 13 17  1  0
 14 13  1  0
 14 15  2  0
 15 16  1  0
 17 16  2  0
 18 22  1  0
 19 23  1  0
 19 26  1  0
 20 19  2  0
 21 20  1  0
 21 22  1  0
 22 23  2  0
 25 24  2  0
 26 25  1  0
 27 26  2  0
 27 28  1  0
 28 29  2  0
 29 24  1  0
  1 30  1  0
  1 31  1  0
  3 32  1  0
  5 33  1  0
  8 34  1  0
  9 35  1  0
 14 36  1  0
 15 37  1  0
 17 38  1  0
 18 39  1  0
 18 40  1  0
 24 41  1  0
 25 42  1  0
 28 43  1  0
M  ISO  8  30   8  31   8  32  14  33  14  34  14  35  14  36  14  37  14
M  ISO  6  38  14  39   8  40   8  41  14  42  14  43  14
M  END
>  <minimizedAffinity>  (1) 
-6.13234806

>  <minimizedRMSD>  (1) 
0.262153506

$$$$
