
     RDKit          3D

 48 51  0  0  0  0  0  0  0  0999 V2000
   35.8420   28.4570   33.1760 C   0  0  0  0  0  0  0  0  0  0  0  0
   36.0570   29.7470   32.5260 C   0  0  0  0  0  0  0  0  0  0  0  0
   36.6250   30.1190   31.3370 C   0  0  0  0  0  0  0  0  0  0  0  0
   36.5890   31.4530   31.1770 N   0  0  0  0  0  0  0  0  0  0  0  0
   36.0000   31.9620   32.2570 C   0  0  0  0  0  0  0  0  0  0  0  0
   35.6820   30.9520   33.0620 N   0  0  0  0  0  0  0  0  0  0  0  0
   35.0300   31.1340   34.3210 C   0  0  0  0  0  0  0  0  0  0  0  0
   35.7400   31.7370   35.3470 C   0  0  0  0  0  0  0  0  0  0  0  0
   35.2290   31.9730   36.6140 C   0  0  0  0  0  0  0  0  0  0  0  0
   33.9490   31.5880   36.8690 N   0  0  0  0  0  0  0  0  0  0  0  0
   33.2810   31.0060   35.8560 C   0  0  0  0  0  0  0  0  0  0  0  0
   33.7690   30.7740   34.6260 N   0  0  0  0  0  0  0  0  0  0  0  0
   31.8600   30.5620   36.0900 C   0  0  0  0  0  0  0  0  0  0  0  0
   31.7590   29.4780   37.1200 C   0  0  0  0  0  0  0  0  0  0  0  0
   31.0100   31.7240   36.5510 C   0  0  0  0  0  0  0  0  0  0  0  0
   31.2650   30.0430   34.7960 C   0  0  0  0  0  0  0  0  0  0  0  0
   36.4960   28.2330   34.4970 C   0  0  0  0  0  0  0  0  0  0  0  0
   38.1370   25.0900   35.2170 C   0  0  0  0  0  0  0  0  0  0  0  0
   37.7510   24.9490   33.9250 N   0  0  0  0  0  0  0  0  0  0  0  0
   37.1380   26.0630   33.5780 O   0  0  0  0  0  0  0  0  0  0  0  0
   37.1070   26.9040   34.5640 C   0  0  0  0  0  0  0  0  0  0  0  0
   37.7200   26.3310   35.5980 N   0  0  0  0  0  0  0  0  0  0  0  0
   39.0260   23.1850   38.2970 C   0  0  0  0  0  0  0  0  0  0  0  0
   38.3000   24.0270   37.4530 C   0  0  0  0  0  0  0  0  0  0  0  0
   38.8410   24.2270   36.1440 C   0  0  0  0  0  0  0  0  0  0  0  0
   40.0130   23.5870   35.8150 N   0  0  0  0  0  0  0  0  0  0  0  0
   40.6480   22.7960   36.6820 C   0  0  0  0  0  0  0  0  0  0  0  0
   40.1750   22.5920   37.8970 N   0  0  0  0  0  0  0  0  0  0  0  0
   36.2082   27.6781   32.4910 H   0  0  0  0  0  0  0  0  0  0  0  0
   34.7633   28.4277   33.3894 H   0  0  0  0  0  0  0  0  0  0  0  0
   37.0550   29.4171   30.6073 H   0  0  0  0  0  0  0  0  0  0  0  0
   35.8101   33.0283   32.4494 H   0  0  0  0  0  0  0  0  0  0  0  0
   36.7752   32.0483   35.1431 H   0  0  0  0  0  0  0  0  0  0  0  0
   35.8401   32.4571   37.3900 H   0  0  0  0  0  0  0  0  0  0  0  0
   31.8004   29.9225   38.1254 H   0  0  0  0  0  0  0  0  0  0  0  0
   30.8070   28.9413   36.9953 H   0  0  0  0  0  0  0  0  0  0  0  0
   32.5955   28.7746   36.9953 H   0  0  0  0  0  0  0  0  0  0  0  0
   30.9906   31.7506   37.6505 H   0  0  0  0  0  0  0  0  0  0  0  0
   31.4354   32.6637   36.1690 H   0  0  0  0  0  0  0  0  0  0  0  0
   29.9856   31.6032   36.1690 H   0  0  0  0  0  0  0  0  0  0  0  0
   30.4539   29.3355   35.0232 H   0  0  0  0  0  0  0  0  0  0  0  0
   30.8643   30.8853   34.2129 H   0  0  0  0  0  0  0  0  0  0  0  0
   32.0450   29.5316   34.2129 H   0  0  0  0  0  0  0  0  0  0  0  0
   37.2755   28.9947   34.6457 H   0  0  0  0  0  0  0  0  0  0  0  0
   35.7298   28.3054   35.2830 H   0  0  0  0  0  0  0  0  0  0  0  0
   38.6541   22.9983   39.3152 H   0  0  0  0  0  0  0  0  0  0  0  0
   37.3655   24.5091   37.7760 H   0  0  0  0  0  0  0  0  0  0  0  0
   41.5839   22.3044   36.3781 H   0  0  0  0  0  0  0  0  0  0  0  0
  1 17  1  0
  2  6  1  0
  2  1  1  0
  3  2  2  0
  4  3  1  0
  4  5  2  0
  5  6  1  0
  6  7  1  0
  7 12  1  0
  7  8  2  0
  8  9  1  0
  9 10  2  0
 11 13  1  0
 11 10  1  0
 12 11  2  0
 13 15  1  0
 13 14  1  0
 16 13  1  0
 17 21  1  0
 18 22  1  0
 18 25  1  0
 19 18  2  0
 20 19  1  0
 20 21  1  0
 21 22  2  0
 24 23  2  0
 25 24  1  0
 26 25  2  0
 26 27  1  0
 27 28  2  0
 28 23  1  0
  1 29  1  0
  1 30  1  0
  3 31  1  0
  5 32  1  0
  8 33  1  0
  9 34  1  0
 14 35  1  0
 14 36  1  0
 14 37  1  0
 15 38  1  0
 15 39  1  0
 15 40  1  0
 16 41  1  0
 16 42  1  0
 16 43  1  0
 17 44  1  0
 17 45  1  0
 23 46  1  0
 24 47  1  0
 27 48  1  0
M  ISO  8  29   8  30   8  31  14  32  14  33  14  34  14  35   8  36   8
M  ISO  8  37   8  38   8  39   8  40   8  41   8  42   8  43   8  44   8
M  ISO  4  45   8  46  14  47  14  48  14
M  END
>  <minimizedAffinity>  (1) 
-5.9294529

>  <minimizedRMSD>  (1) 
0.300694525

$$$$
