
     RDKit          3D

 42 45  0  0  0  0  0  0  0  0999 V2000
   35.7540   28.6060   33.3730 C   0  0  0  0  0  0  0  0  0  0  0  0
   35.8950   29.8990   32.7020 C   0  0  0  0  0  0  0  0  0  0  0  0
   36.3900   30.2720   31.4770 C   0  0  0  0  0  0  0  0  0  0  0  0
   36.3070   31.6050   31.3020 N   0  0  0  0  0  0  0  0  0  0  0  0
   35.7640   32.1070   32.3950 C   0  0  0  0  0  0  0  0  0  0  0  0
   35.5130   31.1020   33.2370 N   0  0  0  0  0  0  0  0  0  0  0  0
   34.9270   31.2840   34.5140 C   0  0  0  0  0  0  0  0  0  0  0  0
   35.6260   32.0360   35.4610 C   0  0  0  0  0  0  0  0  0  0  0  0
   35.1450   32.2720   36.7350 C   0  0  0  0  0  0  0  0  0  0  0  0
   33.9410   31.7630   37.1060 N   0  0  0  0  0  0  0  0  0  0  0  0
   33.2820   31.0360   36.1650 C   0  0  0  0  0  0  0  0  0  0  0  0
   33.7280   30.7950   34.9290 N   0  0  0  0  0  0  0  0  0  0  0  0
   31.9550   30.4120   36.4160 C   0  0  0  0  0  0  0  0  0  0  0  0
   32.0100   28.9960   35.8990 C   0  0  0  0  0  0  0  0  0  0  0  0
   36.5320   28.4120   34.6230 C   0  0  0  0  0  0  0  0  0  0  0  0
   38.1020   25.2120   35.2720 C   0  0  0  0  0  0  0  0  0  0  0  0
   37.7160   25.1050   33.9730 N   0  0  0  0  0  0  0  0  0  0  0  0
   37.1310   26.2410   33.6580 O   0  0  0  0  0  0  0  0  0  0  0  0
   37.1200   27.0650   34.6760 C   0  0  0  0  0  0  0  0  0  0  0  0
   37.7150   26.4560   35.6920 N   0  0  0  0  0  0  0  0  0  0  0  0
   38.9790   23.2150   38.3060 C   0  0  0  0  0  0  0  0  0  0  0  0
   38.2560   24.0960   37.4890 C   0  0  0  0  0  0  0  0  0  0  0  0
   38.7880   24.3120   36.1880 C   0  0  0  0  0  0  0  0  0  0  0  0
   39.9460   23.6590   35.8240 N   0  0  0  0  0  0  0  0  0  0  0  0
   40.5700   22.8300   36.6780 C   0  0  0  0  0  0  0  0  0  0  0  0
   40.0980   22.6140   37.8890 N   0  0  0  0  0  0  0  0  0  0  0  0
   36.0661   27.8265   32.6624 H   0  0  0  0  0  0  0  0  0  0  0  0
   34.6989   28.5544   33.6797 H   0  0  0  0  0  0  0  0  0  0  0  0
   36.8013   29.5726   30.7343 H   0  0  0  0  0  0  0  0  0  0  0  0
   35.5543   33.1708   32.5804 H   0  0  0  0  0  0  0  0  0  0  0  0
   36.6020   32.4589   35.1806 H   0  0  0  0  0  0  0  0  0  0  0  0
   35.7346   32.8696   37.4459 H   0  0  0  0  0  0  0  0  0  0  0  0
   31.7402   30.4090   37.4948 H   0  0  0  0  0  0  0  0  0  0  0  0
   31.1604   30.9777   35.9074 H   0  0  0  0  0  0  0  0  0  0  0  0
   32.0372   28.2966   36.7476 H   0  0  0  0  0  0  0  0  0  0  0  0
   31.1190   28.7945   35.2862 H   0  0  0  0  0  0  0  0  0  0  0  0
   32.9139   28.8643   35.2862 H   0  0  0  0  0  0  0  0  0  0  0  0
   37.3391   29.1583   34.6635 H   0  0  0  0  0  0  0  0  0  0  0  0
   35.8526   28.5310   35.4799 H   0  0  0  0  0  0  0  0  0  0  0  0
   38.6134   23.0118   39.3234 H   0  0  0  0  0  0  0  0  0  0  0  0
   37.3349   24.5892   37.8330 H   0  0  0  0  0  0  0  0  0  0  0  0
   41.4924   22.3221   36.3599 H   0  0  0  0  0  0  0  0  0  0  0  0
  1 15  1  0
  2  6  1  0
  2  1  1  0
  3  2  2  0
  4  3  1  0
  4  5  2  0
  5  6  1  0
  6  7  1  0
  7 12  1  0
  7  8  2  0
  8  9  1  0
  9 10  2  0
 11 13  1  0
 11 10  1  0
 12 11  2  0
 14 13  1  0
 15 19  1  0
 16 20  1  0
 16 23  1  0
 17 16  2  0
 18 17  1  0
 18 19  1  0
 19 20  2  0
 22 21  2  0
 23 22  1  0
 24 23  2  0
 24 25  1  0
 25 26  2  0
 26 21  1  0
  1 27  1  0
  1 28  1  0
  3 29  1  0
  5 30  1  0
  8 31  1  0
  9 32  1  0
 13 33  1  0
 13 34  1  0
 14 35  1  0
 14 36  1  0
 14 37  1  0
 15 38  1  0
 15 39  1  0
 21 40  1  0
 22 41  1  0
 25 42  1  0
M  ISO  8  27   8  28   8  29  14  30  14  31  14  32  14  33   8  34   8
M  ISO  8  35   8  36   8  37   8  38   8  39   8  40  14  41  14  42  14
M  END
>  <minimizedAffinity>  (1) 
-5.55429363

>  <minimizedRMSD>  (1) 
0.312594116

$$$$
