
     RDKit          3D

 37 40  0  0  0  0  0  0  0  0999 V2000
   35.7360   28.6800   33.4670 C   0  0  0  0  0  0  0  0  0  0  0  0
   35.8300   29.9680   32.8090 C   0  0  0  0  0  0  0  0  0  0  0  0
   36.3430   30.3640   31.5910 C   0  0  0  0  0  0  0  0  0  0  0  0
   36.1940   31.6950   31.4250 N   0  0  0  0  0  0  0  0  0  0  0  0
   35.5970   32.1740   32.5040 C   0  0  0  0  0  0  0  0  0  0  0  0
   35.3740   31.1500   33.3390 N   0  0  0  0  0  0  0  0  0  0  0  0
   34.7460   31.3020   34.6000 C   0  0  0  0  0  0  0  0  0  0  0  0
   35.4720   31.9080   35.6210 C   0  0  0  0  0  0  0  0  0  0  0  0
   34.9820   32.1180   36.9000 C   0  0  0  0  0  0  0  0  0  0  0  0
   33.7100   31.7080   37.1760 N   0  0  0  0  0  0  0  0  0  0  0  0
   33.0190   31.1200   36.1670 C   0  0  0  0  0  0  0  0  0  0  0  0
   33.5060   30.9180   34.9230 N   0  0  0  0  0  0  0  0  0  0  0  0
   31.7290   30.7200   36.5000 O   0  0  0  0  0  0  0  0  0  0  0  0
   36.5740   28.4650   34.6880 C   0  0  0  0  0  0  0  0  0  0  0  0
   38.1050   25.2410   35.2930 C   0  0  0  0  0  0  0  0  0  0  0  0
   37.6820   25.1490   34.0000 N   0  0  0  0  0  0  0  0  0  0  0  0
   37.1090   26.2890   33.6950 O   0  0  0  0  0  0  0  0  0  0  0  0
   37.1340   27.1070   34.7040 C   0  0  0  0  0  0  0  0  0  0  0  0
   37.7430   26.4900   35.7090 N   0  0  0  0  0  0  0  0  0  0  0  0
   38.9740   23.1980   38.2790 C   0  0  0  0  0  0  0  0  0  0  0  0
   38.2610   24.0980   37.4830 C   0  0  0  0  0  0  0  0  0  0  0  0
   38.7880   24.3260   36.1670 C   0  0  0  0  0  0  0  0  0  0  0  0
   39.9280   23.6570   35.8020 N   0  0  0  0  0  0  0  0  0  0  0  0
   40.5560   22.8120   36.6180 C   0  0  0  0  0  0  0  0  0  0  0  0
   40.0910   22.5800   37.8420 N   0  0  0  0  0  0  0  0  0  0  0  0
   36.0217   27.9130   32.7321 H   0  0  0  0  0  0  0  0  0  0  0  0
   34.6978   28.6240   33.8263 H   0  0  0  0  0  0  0  0  0  0  0  0
   36.8085   29.6891   30.8576 H   0  0  0  0  0  0  0  0  0  0  0  0
   35.3309   33.2261   32.6838 H   0  0  0  0  0  0  0  0  0  0  0  0
   36.4969   32.2404   35.3993 H   0  0  0  0  0  0  0  0  0  0  0  0
   35.6005   32.6013   37.6706 H   0  0  0  0  0  0  0  0  0  0  0  0
   31.1559   30.2822   35.8218 H   0  0  0  0  0  0  0  0  0  0  0  0
   37.3972   29.1946   34.6935 H   0  0  0  0  0  0  0  0  0  0  0  0
   35.9406   28.5956   35.5778 H   0  0  0  0  0  0  0  0  0  0  0  0
   38.6126   22.9861   39.2961 H   0  0  0  0  0  0  0  0  0  0  0  0
   37.3514   24.6012   37.8426 H   0  0  0  0  0  0  0  0  0  0  0  0
   41.4682   22.3011   36.2760 H   0  0  0  0  0  0  0  0  0  0  0  0
  1 14  1  0
  2  6  1  0
  2  1  1  0
  3  2  2  0
  4  3  1  0
  4  5  2  0
  5  6  1  0
  6  7  1  0
  7 12  1  0
  7  8  2  0
  8  9  1  0
  9 10  2  0
 11 13  1  0
 11 10  1  0
 12 11  2  0
 14 18  1  0
 15 19  1  0
 15 22  1  0
 16 15  2  0
 17 16  1  0
 17 18  1  0
 18 19  2  0
 21 20  2  0
 22 21  1  0
 23 22  2  0
 23 24  1  0
 24 25  2  0
 25 20  1  0
  1 26  1  0
  1 27  1  0
  3 28  1  0
  5 29  1  0
  8 30  1  0
  9 31  1  0
 13 32  1  0
 14 33  1  0
 14 34  1  0
 20 35  1  0
 21 36  1  0
 24 37  1  0
M  ISO  8  26   8  27   8  28  14  29  14  30  14  31  14  32   3  33   8
M  ISO  4  34   8  35  14  36  14  37  14
M  END
>  <minimizedAffinity>  (1) 
-5.44782686

>  <minimizedRMSD>  (1) 
0.0584055968

$$$$
