
     RDKit          3D

 22 24  0  0  0  0  0  0  0  0999 V2000
   40.8330   21.8560   37.6570 O   0  0  0  0  0  0  0  0  0  0  0  0
   44.6870   19.9250   36.0770 N   0  0  0  0  0  0  0  0  0  0  0  0
   43.8380   19.0720   36.7060 C   0  0  0  0  0  0  0  0  0  0  0  0
   42.7350   19.7000   37.1430 N   0  0  0  0  0  0  0  0  0  0  0  0
   42.8510   20.9950   36.7970 C   0  0  0  0  0  0  0  0  0  0  0  0
   42.0080   22.0810   36.9970 C   0  0  0  0  0  0  0  0  0  0  0  0
   42.3510   23.2980   36.5520 N   0  0  0  0  0  0  0  0  0  0  0  0
   43.5430   23.3840   35.9130 C   0  0  0  0  0  0  0  0  0  0  0  0
   44.3870   22.3670   35.6970 N   0  0  0  0  0  0  0  0  0  0  0  0
   44.0730   21.1200   36.1330 C   0  0  0  0  0  0  0  0  0  0  0  0
   39.6790   22.5500   37.4440 C   0  0  0  0  0  0  0  0  0  0  0  0
   39.2100   23.3470   38.5100 C   0  0  0  0  0  0  0  0  0  0  0  0
   38.0250   24.0660   38.3060 C   0  0  0  0  0  0  0  0  0  0  0  0
   37.3930   23.9680   37.1200 N   0  0  0  0  0  0  0  0  0  0  0  0
   37.8830   23.1850   36.1190 C   0  0  0  0  0  0  0  0  0  0  0  0
   39.0070   22.4830   36.2690 N   0  0  0  0  0  0  0  0  0  0  0  0
   45.5989   19.7054   35.6514 H   0  0  0  0  0  0  0  0  0  0  0  0
   44.0306   17.9974   36.8410 H   0  0  0  0  0  0  0  0  0  0  0  0
   43.8430   24.3743   35.5397 H   0  0  0  0  0  0  0  0  0  0  0  0
   39.7540   23.4016   39.4645 H   0  0  0  0  0  0  0  0  0  0  0  0
   37.6156   24.7027   39.1042 H   0  0  0  0  0  0  0  0  0  0  0  0
   37.3389   23.1304   35.1645 H   0  0  0  0  0  0  0  0  0  0  0  0
  2 10  1  0
  2  3  1  0
  3  4  2  0
  5  6  2  0
  5  4  1  0
  6  1  1  0
  7  6  1  0
  8  7  2  0
  9  8  1  0
  9 10  2  0
 10  5  1  0
 11  1  1  0
 11 12  2  0
 13 12  1  0
 14 13  2  0
 15 16  2  0
 15 14  1  0
 16 11  1  0
  2 17  1  0
  3 18  1  0
  8 19  1  0
 12 20  1  0
 13 21  1  0
 15 22  1  0
M  ISO  6  17   9  18  14  19  14  20  14  21  14  22  14
M  END
>  <minimizedAffinity>  (1) 
-3.86836982

>  <minimizedRMSD>  (1) 
1.53632176

$$$$
