
     RDKit          3D

 18 19  0  0  0  0  0  0  0  0999 V2000
   39.8730   22.7680   37.1680 C   0  0  0  0  0  0  0  0  0  0  0  0
   39.2200   23.2840   38.3030 C   0  0  0  0  0  0  0  0  0  0  0  0
   37.8210   23.3640   38.2370 C   0  0  0  0  0  0  0  0  0  0  0  0
   37.1670   22.9500   37.1100 N   0  0  0  0  0  0  0  0  0  0  0  0
   37.8570   22.4620   36.0500 C   0  0  0  0  0  0  0  0  0  0  0  0
   39.1810   22.3740   36.0820 N   0  0  0  0  0  0  0  0  0  0  0  0
   41.2370   22.6930   37.2380 O   0  0  0  0  0  0  0  0  0  0  0  0
   42.7700   19.6130   37.6050 N   0  0  0  0  0  0  0  0  0  0  0  0
   42.0830   20.6660   37.9970 N   0  0  0  0  0  0  0  0  0  0  0  0
   41.9470   21.5340   36.9510 C   0  0  0  0  0  0  0  0  0  0  0  0
   42.5960   20.9490   35.8810 C   0  0  0  0  0  0  0  0  0  0  0  0
   43.1150   19.7380   36.2910 C   0  0  0  0  0  0  0  0  0  0  0  0
   39.7771   23.6074   39.1946 H   0  0  0  0  0  0  0  0  0  0  0  0
   37.2510   23.7592   39.0908 H   0  0  0  0  0  0  0  0  0  0  0  0
   37.3126   22.1348   35.1519 H   0  0  0  0  0  0  0  0  0  0  0  0
   43.0119   18.8108   38.2040 H   0  0  0  0  0  0  0  0  0  0  0  0
   42.6842   21.3768   34.8715 H   0  0  0  0  0  0  0  0  0  0  0  0
   43.6882   19.0217   35.6841 H   0  0  0  0  0  0  0  0  0  0  0  0
  1  7  1  0
  1  2  2  0
  3  2  1  0
  4  3  2  0
  5  6  2  0
  5  4  1  0
  6  1  1  0
  8  9  1  0
 10  7  1  0
 10  9  2  0
 11 12  2  0
 11 10  1  0
 12  8  1  0
  2 13  1  0
  3 14  1  0
  5 15  1  0
  8 16  1  0
 11 17  1  0
 12 18  1  0
M  ISO  6  13  14  14  14  15  14  16   9  17  14  18  14
M  END
>  <minimizedAffinity>  (1) 
-3.66474032

>  <minimizedRMSD>  (1) 
0.84985745

$$$$
