
     RDKit          3D

 18 19  0  0  0  0  0  0  0  0999 V2000
   39.6140   22.7170   37.4620 C   0  0  0  0  0  0  0  0  0  0  0  0
   39.0820   23.3690   38.5840 C   0  0  0  0  0  0  0  0  0  0  0  0
   37.9360   24.1460   38.3400 C   0  0  0  0  0  0  0  0  0  0  0  0
   37.4070   24.2330   37.0840 N   0  0  0  0  0  0  0  0  0  0  0  0
   37.9790   23.5740   36.0510 C   0  0  0  0  0  0  0  0  0  0  0  0
   39.0750   22.8200   36.2320 N   0  0  0  0  0  0  0  0  0  0  0  0
   40.7410   21.9510   37.6870 O   0  0  0  0  0  0  0  0  0  0  0  0
   41.9080   22.0290   37.0720 C   0  0  0  0  0  0  0  0  0  0  0  0
   42.6760   23.0100   36.5840 C   0  0  0  0  0  0  0  0  0  0  0  0
   43.8710   22.7040   35.9890 C   0  0  0  0  0  0  0  0  0  0  0  0
   44.2500   21.3320   35.9140 C   0  0  0  0  0  0  0  0  0  0  0  0
   42.8780   20.4650   36.7070 S   0  0  0  0  0  0  0  0  0  0  0  0
   39.5299   23.2788   39.5846 H   0  0  0  0  0  0  0  0  0  0  0  0
   37.4604   24.6896   39.1696 H   0  0  0  0  0  0  0  0  0  0  0  0
   37.5392   23.6570   35.0462 H   0  0  0  0  0  0  0  0  0  0  0  0
   42.3491   24.0575   36.6604 H   0  0  0  0  0  0  0  0  0  0  0  0
   44.5191   23.4937   35.5811 H   0  0  0  0  0  0  0  0  0  0  0  0
   45.1631   20.9023   35.4762 H   0  0  0  0  0  0  0  0  0  0  0  0
  1  7  1  0
  1  2  2  0
  3  2  1  0
  4  3  2  0
  5  6  2  0
  5  4  1  0
  6  1  1  0
  8  7  1  0
  9  8  2  0
 10  9  1  0
 11 10  2  0
 11 12  1  0
 12  8  1  0
  2 13  1  0
  3 14  1  0
  5 15  1  0
  9 16  1  0
 10 17  1  0
 11 18  1  0
M  ISO  6  13  14  14  14  15  14  16  14  17  14  18  14
M  END
>  <minimizedAffinity>  (1) 
-3.61486769

>  <minimizedRMSD>  (1) 
1.26709664

$$$$
