
     RDKit          3D

 18 19  0  0  0  0  0  0  0  0999 V2000
   39.6220   22.7830   37.4550 C   0  0  0  0  0  0  0  0  0  0  0  0
   38.9750   23.3470   38.5670 C   0  0  0  0  0  0  0  0  0  0  0  0
   37.8870   24.1840   38.2960 C   0  0  0  0  0  0  0  0  0  0  0  0
   37.5160   24.4100   37.0210 N   0  0  0  0  0  0  0  0  0  0  0  0
   38.1680   23.8480   35.9800 C   0  0  0  0  0  0  0  0  0  0  0  0
   39.2110   23.0430   36.1980 N   0  0  0  0  0  0  0  0  0  0  0  0
   40.6980   21.9560   37.7150 O   0  0  0  0  0  0  0  0  0  0  0  0
   41.9150   22.1080   37.0840 C   0  0  0  0  0  0  0  0  0  0  0  0
   42.6200   20.9650   36.7020 C   0  0  0  0  0  0  0  0  0  0  0  0
   43.7870   21.4070   36.1010 C   0  0  0  0  0  0  0  0  0  0  0  0
   43.7310   22.7850   36.1490 C   0  0  0  0  0  0  0  0  0  0  0  0
   42.6100   23.1890   36.7370 O   0  0  0  0  0  0  0  0  0  0  0  0
   39.3060   23.1416   39.5957 H   0  0  0  0  0  0  0  0  0  0  0  0
   37.3358   24.6565   39.1224 H   0  0  0  0  0  0  0  0  0  0  0  0
   37.8392   24.0538   34.9507 H   0  0  0  0  0  0  0  0  0  0  0  0
   42.3099   19.9199   36.8492 H   0  0  0  0  0  0  0  0  0  0  0  0
   44.5906   20.7887   35.6745 H   0  0  0  0  0  0  0  0  0  0  0  0
   44.5077   23.4567   35.7546 H   0  0  0  0  0  0  0  0  0  0  0  0
  1  7  1  0
  1  2  2  0
  3  2  1  0
  4  3  2  0
  5  6  2  0
  5  4  1  0
  6  1  1  0
  8  7  1  0
  9  8  2  0
 10 11  2  0
 10  9  1  0
 11 12  1  0
 12  8  1  0
  2 13  1  0
  3 14  1  0
  5 15  1  0
  9 16  1  0
 10 17  1  0
 11 18  1  0
M  ISO  6  13  14  14  14  15  14  16  14  17  14  18  14
M  END
>  <minimizedAffinity>  (1) 
-3.59047771

>  <minimizedRMSD>  (1) 
1.37430751

$$$$
