
     RDKit          3D

 18 19  0  0  0  0  0  0  0  0999 V2000
   39.6180   22.7200   37.4930 C   0  0  0  0  0  0  0  0  0  0  0  0
   39.0290   23.3900   38.5810 C   0  0  0  0  0  0  0  0  0  0  0  0
   37.9000   24.1700   38.3460 C   0  0  0  0  0  0  0  0  0  0  0  0
   37.4140   24.2520   37.0720 N   0  0  0  0  0  0  0  0  0  0  0  0
   38.0100   23.5930   36.0570 C   0  0  0  0  0  0  0  0  0  0  0  0
   39.0930   22.8380   36.2590 N   0  0  0  0  0  0  0  0  0  0  0  0
   40.7280   21.9580   37.7450 O   0  0  0  0  0  0  0  0  0  0  0  0
   41.9190   22.1880   37.0630 C   0  0  0  0  0  0  0  0  0  0  0  0
   42.6280   21.0280   36.7390 C   0  0  0  0  0  0  0  0  0  0  0  0
   43.7860   21.4170   36.0640 C   0  0  0  0  0  0  0  0  0  0  0  0
   43.7200   22.7600   36.0160 N   0  0  0  0  0  0  0  0  0  0  0  0
   42.6150   23.2330   36.6060 N   0  0  0  0  0  0  0  0  0  0  0  0
   39.4504   23.2997   39.5930 H   0  0  0  0  0  0  0  0  0  0  0  0
   37.4093   24.7093   39.1696 H   0  0  0  0  0  0  0  0  0  0  0  0
   37.5954   23.6793   35.0418 H   0  0  0  0  0  0  0  0  0  0  0  0
   42.3279   19.9960   36.9734 H   0  0  0  0  0  0  0  0  0  0  0  0
   44.5778   20.7688   35.6604 H   0  0  0  0  0  0  0  0  0  0  0  0
   44.4364   23.3553   35.5764 H   0  0  0  0  0  0  0  0  0  0  0  0
  1  7  1  0
  1  2  2  0
  3  2  1  0
  4  3  2  0
  5  6  2  0
  5  4  1  0
  6  1  1  0
  8  7  1  0
  9  8  1  0
 10  9  2  0
 11 10  1  0
 11 12  1  0
 12  8  2  0
  2 13  1  0
  3 14  1  0
  5 15  1  0
  9 16  1  0
 10 17  1  0
 11 18  1  0
M  ISO  6  13  14  14  14  15  14  16  14  17  14  18   9
M  END
>  <minimizedAffinity>  (1) 
-3.4966259

>  <minimizedRMSD>  (1) 
1.4828949

$$$$
