
     RDKit          3D

 20 20  0  0  0  0  0  0  0  0999 V2000
   39.6890   22.7510   37.5600 C   0  0  0  0  0  0  0  0  0  0  0  0
   39.0700   23.4460   38.6360 C   0  0  0  0  0  0  0  0  0  0  0  0
   37.9150   24.1570   38.3530 C   0  0  0  0  0  0  0  0  0  0  0  0
   37.4330   24.1610   37.0860 N   0  0  0  0  0  0  0  0  0  0  0  0
   38.0430   23.4900   36.0790 C   0  0  0  0  0  0  0  0  0  0  0  0
   39.1550   22.7940   36.3100 N   0  0  0  0  0  0  0  0  0  0  0  0
   40.8250   22.0490   37.8320 O   0  0  0  0  0  0  0  0  0  0  0  0
   41.7580   21.8220   36.7970 C   0  0  0  0  0  0  0  0  0  0  0  0
   42.6700   23.0200   36.5880 C   0  0  0  0  0  0  0  0  0  0  0  0
   42.5600   20.5740   37.1300 C   0  0  0  0  0  0  0  0  0  0  0  0
   39.4914   23.4199   39.6517 H   0  0  0  0  0  0  0  0  0  0  0  0
   37.3949   24.7121   39.1476 H   0  0  0  0  0  0  0  0  0  0  0  0
   37.6175   23.5203   35.0651 H   0  0  0  0  0  0  0  0  0  0  0  0
   41.2163   21.6733   35.8513 H   0  0  0  0  0  0  0  0  0  0  0  0
   42.9764   23.4224   37.5648 H   0  0  0  0  0  0  0  0  0  0  0  0
   43.5614   22.7082   36.0240 H   0  0  0  0  0  0  0  0  0  0  0  0
   42.1322   23.7963   36.0240 H   0  0  0  0  0  0  0  0  0  0  0  0
   42.6306   20.4641   38.2222 H   0  0  0  0  0  0  0  0  0  0  0  0
   42.0592   19.6919   36.7044 H   0  0  0  0  0  0  0  0  0  0  0  0
   43.5704   20.6630   36.7044 H   0  0  0  0  0  0  0  0  0  0  0  0
  1  7  1  0
  1  2  2  0
  3  2  1  0
  4  3  2  0
  5  6  2  0
  5  4  1  0
  6  1  1  0
  8 10  1  0
  8  7  1  0
  9  8  1  0
  2 11  1  0
  3 12  1  0
  5 13  1  0
  8 14  1  0
  9 15  1  0
  9 16  1  0
  9 17  1  0
 10 18  1  0
 10 19  1  0
 10 20  1  0
M  ISO  8  11  14  12  14  13  14  14   8  15   8  16   8  17   8  18   8
M  ISO  2  19   8  20   8
M  END
>  <minimizedAffinity>  (1) 
-3.43914056

>  <minimizedRMSD>  (1) 
0.761968672

$$$$
