
     RDKit          3D

 17 17  0  0  0  0  0  0  0  0999 V2000
   39.6790   22.7680   37.5590 C   0  0  0  0  0  0  0  0  0  0  0  0
   39.0230   23.3910   38.6550 C   0  0  0  0  0  0  0  0  0  0  0  0
   37.8770   24.1200   38.3730 C   0  0  0  0  0  0  0  0  0  0  0  0
   37.4360   24.2110   37.1010 N   0  0  0  0  0  0  0  0  0  0  0  0
   38.0860   23.6040   36.0830 C   0  0  0  0  0  0  0  0  0  0  0  0
   39.1870   22.8980   36.3130 N   0  0  0  0  0  0  0  0  0  0  0  0
   40.8080   22.0500   37.8370 O   0  0  0  0  0  0  0  0  0  0  0  0
   41.5450   21.5130   36.7520 C   0  0  0  0  0  0  0  0  0  0  0  0
   42.5950   20.5330   37.2230 C   0  0  0  0  0  0  0  0  0  0  0  0
   39.4071   23.2992   39.6817 H   0  0  0  0  0  0  0  0  0  0  0  0
   37.3294   24.6224   39.1840 H   0  0  0  0  0  0  0  0  0  0  0  0
   37.7003   23.6955   35.0569 H   0  0  0  0  0  0  0  0  0  0  0  0
   42.0399   22.3355   36.2148 H   0  0  0  0  0  0  0  0  0  0  0  0
   40.8458   20.9776   36.0929 H   0  0  0  0  0  0  0  0  0  0  0  0
   42.6135   20.5158   38.3227 H   0  0  0  0  0  0  0  0  0  0  0  0
   42.3550   19.5284   36.8445 H   0  0  0  0  0  0  0  0  0  0  0  0
   43.5807   20.8416   36.8445 H   0  0  0  0  0  0  0  0  0  0  0  0
  1  7  1  0
  1  2  2  0
  3  2  1  0
  4  3  2  0
  5  6  2  0
  5  4  1  0
  6  1  1  0
  8  9  1  0
  8  7  1  0
  2 10  1  0
  3 11  1  0
  5 12  1  0
  8 13  1  0
  8 14  1  0
  9 15  1  0
  9 16  1  0
  9 17  1  0
M  ISO  8  10  14  11  14  12  14  13   8  14   8  15   8  16   8  17   8
M  END
>  <minimizedAffinity>  (1) 
-3.14355612

>  <minimizedRMSD>  (1) 
0.914666533

$$$$
