
     RDKit          3D

 28 30  0  0  0  0  0  0  0  0999 V2000
   41.9160   22.1220   37.0610 C   0  0  0  0  0  0  0  0  0  0  0  0
   42.5490   20.9210   36.7270 C   0  0  0  0  0  0  0  0  0  0  0  0
   43.9870   21.5130   35.7930 S   0  0  0  0  0  0  0  0  0  0  0  0
   43.4760   23.3100   36.0200 C   0  0  0  0  0  0  0  0  0  0  0  0
   42.5120   23.2200   36.6290 N   0  0  0  0  0  0  0  0  0  0  0  0
   44.0220   24.7540   35.6010 N   0  0  0  0  0  0  0  0  0  0  0  0
   43.3300   25.3000   34.5690 C   0  0  0  0  0  0  0  0  0  0  0  0
   43.8100   26.5450   34.2090 C   0  0  0  0  0  0  0  0  0  0  0  0
   44.8700   27.0630   34.8940 C   0  0  0  0  0  0  0  0  0  0  0  0
   45.3430   28.3680   34.4880 N   0  0  0  0  0  0  0  0  0  0  0  0
   45.4620   26.4210   35.8940 N   0  0  0  0  0  0  0  0  0  0  0  0
   45.0490   25.2220   36.2880 C   0  0  0  0  0  0  0  0  0  0  0  0
   45.5280   24.5170   37.2200 O   0  0  0  0  0  0  0  0  0  0  0  0
   40.7390   21.9380   37.8100 O   0  0  0  0  0  0  0  0  0  0  0  0
   39.6540   22.7080   37.5310 C   0  0  0  0  0  0  0  0  0  0  0  0
   39.0300   23.4140   38.5600 C   0  0  0  0  0  0  0  0  0  0  0  0
   37.9240   24.2020   38.2900 C   0  0  0  0  0  0  0  0  0  0  0  0
   37.4800   24.2580   36.9970 N   0  0  0  0  0  0  0  0  0  0  0  0
   38.1050   23.5620   36.0090 C   0  0  0  0  0  0  0  0  0  0  0  0
   39.1720   22.8030   36.2810 N   0  0  0  0  0  0  0  0  0  0  0  0
   42.2531   19.8891   36.9672 H   0  0  0  0  0  0  0  0  0  0  0  0
   42.4809   24.8062   34.0738 H   0  0  0  0  0  0  0  0  0  0  0  0
   43.3460   27.1077   33.3855 H   0  0  0  0  0  0  0  0  0  0  0  0
   46.1407   28.8011   34.9748 H   0  0  0  0  0  0  0  0  0  0  0  0
   44.8822   28.8643   33.7120 H   0  0  0  0  0  0  0  0  0  0  0  0
   39.4173   23.3445   39.5872 H   0  0  0  0  0  0  0  0  0  0  0  0
   37.4188   24.7646   39.0889 H   0  0  0  0  0  0  0  0  0  0  0  0
   37.7292   23.6242   34.9770 H   0  0  0  0  0  0  0  0  0  0  0  0
  1 14  1  0
  2  1  2  0
  3  4  1  0
  3  2  1  0
  4  5  2  0
  5  1  1  0
  6  4  1  0
  6 12  1  0
  7  6  1  0
  8  7  2  0
  8  9  1  0
  9 11  2  0
 10  9  1  0
 11 12  1  0
 12 13  2  0
 15 14  1  0
 15 16  2  0
 17 16  1  0
 18 17  2  0
 19 20  2  0
 19 18  1  0
 20 15  1  0
  2 21  1  0
  7 22  1  0
  8 23  1  0
 10 24  1  0
 10 25  1  0
 16 26  1  0
 17 27  1  0
 19 28  1  0
M  ISO  6  21  14  22  14  23  14  26  14  27  14  28  14
M  END
>  <minimizedAffinity>  (1) 
-5.26582289

>  <minimizedRMSD>  (1) 
0.401652664

$$$$
