
     RDKit          3D

 27 29  0  0  0  0  0  0  0  0999 V2000
   41.8070   23.7790   35.4930 C   0  0  0  0  0  0  0  0  0  0  0  0
   41.9620   24.5910   34.3620 C   0  0  0  0  0  0  0  0  0  0  0  0
   43.5690   25.3620   34.6830 S   0  0  0  0  0  0  0  0  0  0  0  0
   43.7710   24.4410   36.3240 C   0  0  0  0  0  0  0  0  0  0  0  0
   42.7990   23.8270   36.3640 N   0  0  0  0  0  0  0  0  0  0  0  0
   44.9720   24.6310   37.1700 C   0  0  0  0  0  0  0  0  0  0  0  0
   44.9530   25.4130   38.2990 C   0  0  0  0  0  0  0  0  0  0  0  0
   46.1220   25.5240   39.0130 C   0  0  0  0  0  0  0  0  0  0  0  0
   47.2930   24.8930   38.6470 C   0  0  0  0  0  0  0  0  0  0  0  0
   47.3300   24.1030   37.5160 C   0  0  0  0  0  0  0  0  0  0  0  0
   46.1580   23.9900   36.7950 C   0  0  0  0  0  0  0  0  0  0  0  0
   40.6000   23.0380   35.5090 O   0  0  0  0  0  0  0  0  0  0  0  0
   39.6150   23.4100   36.3780 C   0  0  0  0  0  0  0  0  0  0  0  0
   39.6830   22.9200   37.7000 C   0  0  0  0  0  0  0  0  0  0  0  0
   38.6770   23.3000   38.5900 C   0  0  0  0  0  0  0  0  0  0  0  0
   37.6960   24.1160   38.1320 N   0  0  0  0  0  0  0  0  0  0  0  0
   37.6480   24.5730   36.8690 C   0  0  0  0  0  0  0  0  0  0  0  0
   38.6060   24.2210   35.9930 N   0  0  0  0  0  0  0  0  0  0  0  0
   41.2858   24.7250   33.5048 H   0  0  0  0  0  0  0  0  0  0  0  0
   44.0369   25.9308   38.6195 H   0  0  0  0  0  0  0  0  0  0  0  0
   46.1241   26.1461   39.9202 H   0  0  0  0  0  0  0  0  0  0  0  0
   48.1990   25.0198   39.2579 H   0  0  0  0  0  0  0  0  0  0  0  0
   48.2502   23.5875   37.2036 H   0  0  0  0  0  0  0  0  0  0  0  0
   46.1565   23.3694   35.8868 H   0  0  0  0  0  0  0  0  0  0  0  0
   40.5029   22.2596   38.0188 H   0  0  0  0  0  0  0  0  0  0  0  0
   38.6801   22.9478   39.6321 H   0  0  0  0  0  0  0  0  0  0  0  0
   36.8272   25.2333   36.5525 H   0  0  0  0  0  0  0  0  0  0  0  0
  1 12  1  0
  1  5  1  0
  2  3  1  0
  2  1  2  0
  3  4  1  0
  4  5  2  0
  4  6  1  0
  6  7  2  0
  7  8  1  0
  9  8  2  0
 10  9  1  0
 11  6  1  0
 11 10  2  0
 12 13  1  0
 13 14  2  0
 14 15  1  0
 16 15  2  0
 17 16  1  0
 18 13  1  0
 18 17  2  0
  2 19  1  0
  7 20  1  0
  8 21  1  0
  9 22  1  0
 10 23  1  0
 11 24  1  0
 14 25  1  0
 15 26  1  0
 17 27  1  0
M  ISO  8  19  14  20  14  21  14  22  14  23  14  24  14  25  14  26  14
M  ISO  1  27  14
M  END
>  <minimizedAffinity>  (1) 
-5.17978382

>  <minimizedRMSD>  (1) 
2.47078609

$$$$
