
     RDKit          3D

 28 31  0  0  0  0  0  0  0  0999 V2000
   41.8470   21.9850   37.0340 C   0  0  0  0  0  0  0  0  0  0  0  0
   42.3870   20.8300   36.4950 C   0  0  0  0  0  0  0  0  0  0  0  0
   43.9690   21.4110   35.8320 S   0  0  0  0  0  0  0  0  0  0  0  0
   43.6400   23.1850   36.4090 C   0  0  0  0  0  0  0  0  0  0  0  0
   42.6090   23.0580   36.8990 N   0  0  0  0  0  0  0  0  0  0  0  0
   44.4180   24.4340   36.3070 N   0  0  0  0  0  0  0  0  0  0  0  0
   45.3350   24.8420   37.1840 C   0  0  0  0  0  0  0  0  0  0  0  0
   45.8260   26.0180   36.7570 N   0  0  0  0  0  0  0  0  0  0  0  0
   45.1670   26.2740   35.6130 C   0  0  0  0  0  0  0  0  0  0  0  0
   45.3260   27.3890   34.7880 C   0  0  0  0  0  0  0  0  0  0  0  0
   44.5660   27.4800   33.6580 N   0  0  0  0  0  0  0  0  0  0  0  0
   43.6780   26.4800   33.3770 C   0  0  0  0  0  0  0  0  0  0  0  0
   43.5120   25.3900   34.1690 N   0  0  0  0  0  0  0  0  0  0  0  0
   44.2580   25.2920   35.2840 C   0  0  0  0  0  0  0  0  0  0  0  0
   40.5860   21.8490   37.6380 O   0  0  0  0  0  0  0  0  0  0  0  0
   39.6060   22.7410   37.3760 C   0  0  0  0  0  0  0  0  0  0  0  0
   38.9400   23.3390   38.4450 C   0  0  0  0  0  0  0  0  0  0  0  0
   37.9290   24.2600   38.1670 C   0  0  0  0  0  0  0  0  0  0  0  0
   37.6330   24.5380   36.8660 N   0  0  0  0  0  0  0  0  0  0  0  0
   38.3000   23.9370   35.8420 C   0  0  0  0  0  0  0  0  0  0  0  0
   39.2670   23.0580   36.1150 N   0  0  0  0  0  0  0  0  0  0  0  0
   41.9624   19.8154   36.4745 H   0  0  0  0  0  0  0  0  0  0  0  0
   45.6372   24.3093   38.0977 H   0  0  0  0  0  0  0  0  0  0  0  0
   46.0488   28.1778   35.0434 H   0  0  0  0  0  0  0  0  0  0  0  0
   43.0683   26.5622   32.4651 H   0  0  0  0  0  0  0  0  0  0  0  0
   39.2052   23.0907   39.4833 H   0  0  0  0  0  0  0  0  0  0  0  0
   37.3808   24.7528   38.9834 H   0  0  0  0  0  0  0  0  0  0  0  0
   38.0441   24.1738   34.7987 H   0  0  0  0  0  0  0  0  0  0  0  0
  1 15  1  0
  2  1  2  0
  3  4  1  0
  3  2  1  0
  4  5  2  0
  5  1  1  0
  6  4  1  0
  6  7  1  0
  8  7  2  0
  9  8  1  0
 10  9  2  0
 11 10  1  0
 12 11  2  0
 12 13  1  0
 13 14  2  0
 14  9  1  0
 14  6  1  0
 16 15  1  0
 16 17  2  0
 18 17  1  0
 19 18  2  0
 20 21  2  0
 20 19  1  0
 21 16  1  0
  2 22  1  0
  7 23  1  0
 10 24  1  0
 12 25  1  0
 17 26  1  0
 18 27  1  0
 20 28  1  0
M  ISO  7  22  14  23  14  24  14  25  14  26  14  27  14  28  14
M  END
>  <minimizedAffinity>  (1) 
-5.02200794

>  <minimizedRMSD>  (1) 
0.502920926

$$$$
