
     RDKit          3D

 23 25  0  0  0  0  0  0  0  0999 V2000
   41.8540   22.0210   36.9580 C   0  0  0  0  0  0  0  0  0  0  0  0
   42.4090   20.9240   36.3210 C   0  0  0  0  0  0  0  0  0  0  0  0
   43.9950   21.5690   35.7530 S   0  0  0  0  0  0  0  0  0  0  0  0
   43.6540   23.2720   36.4840 C   0  0  0  0  0  0  0  0  0  0  0  0
   42.6290   23.0890   36.9290 N   0  0  0  0  0  0  0  0  0  0  0  0
   44.4840   24.4530   36.4660 N   0  0  0  0  0  0  0  0  0  0  0  0
   44.4360   25.4960   35.6410 C   0  0  0  0  0  0  0  0  0  0  0  0
   45.4220   26.3260   36.0440 N   0  0  0  0  0  0  0  0  0  0  0  0
   46.0710   25.8210   37.0910 C   0  0  0  0  0  0  0  0  0  0  0  0
   45.4700   24.6260   37.3570 N   0  0  0  0  0  0  0  0  0  0  0  0
   40.5760   21.8150   37.5210 O   0  0  0  0  0  0  0  0  0  0  0  0
   39.5980   22.7280   37.2860 C   0  0  0  0  0  0  0  0  0  0  0  0
   38.9620   23.2990   38.3870 C   0  0  0  0  0  0  0  0  0  0  0  0
   37.9490   24.2450   38.1760 C   0  0  0  0  0  0  0  0  0  0  0  0
   37.6440   24.5520   36.8800 N   0  0  0  0  0  0  0  0  0  0  0  0
   38.2760   23.9840   35.8400 C   0  0  0  0  0  0  0  0  0  0  0  0
   39.2380   23.0860   36.0440 N   0  0  0  0  0  0  0  0  0  0  0  0
   41.9893   19.9152   36.1936 H   0  0  0  0  0  0  0  0  0  0  0  0
   43.7383   25.6500   34.8047 H   0  0  0  0  0  0  0  0  0  0  0  0
   46.9165   26.2737   37.6297 H   0  0  0  0  0  0  0  0  0  0  0  0
   39.2512   23.0111   39.4085 H   0  0  0  0  0  0  0  0  0  0  0  0
   37.4226   24.7195   39.0173 H   0  0  0  0  0  0  0  0  0  0  0  0
   37.9972   24.2623   34.8130 H   0  0  0  0  0  0  0  0  0  0  0  0
  1 11  1  0
  2  1  2  0
  3  2  1  0
  3  4  1  0
  4  5  2  0
  5  1  1  0
  6  4  1  0
  6 10  1  0
  7  8  2  0
  7  6  1  0
  8  9  1  0
  9 10  2  0
 12 11  1  0
 12 13  2  0
 14 13  1  0
 15 14  2  0
 16 17  2  0
 16 15  1  0
 17 12  1  0
  2 18  1  0
  7 19  1  0
  9 20  1  0
 13 21  1  0
 14 22  1  0
 16 23  1  0
M  ISO  6  18  14  19  14  20  14  21  14  22  14  23  14
M  END
>  <minimizedAffinity>  (1) 
-4.4060359

>  <minimizedRMSD>  (1) 
0.546562433

$$$$
