
     RDKit          3D

 26 27  0  0  1  0  0  0  0  0999 V2000
   39.1460   25.1480   34.7980 C   0  0  2  0  0  0  0  0  0  0  0  0
   39.7280   22.8500   37.5920 C   0  0  0  0  0  0  0  0  0  0  0  0
   38.7740   23.2680   38.5710 C   0  0  0  0  0  0  0  0  0  0  0  0
   37.9450   24.3390   38.2440 C   0  0  0  0  0  0  0  0  0  0  0  0
   38.0980   24.9220   37.0070 N   0  0  0  0  0  0  0  0  0  0  0  0
   39.0110   24.4970   36.1110 C   0  0  0  0  0  0  0  0  0  0  0  0
   39.8260   23.4690   36.3910 N   0  0  0  0  0  0  0  0  0  0  0  0
   39.5460   26.5880   35.0180 C   0  0  0  0  0  0  0  0  0  0  0  0
   37.8700   25.1400   33.9890 C   0  0  0  0  0  0  0  0  0  0  0  0
   37.3190   26.4560   33.8130 N   0  0  0  0  0  0  0  0  0  0  0  0
   36.7090   27.1380   34.7940 N   0  0  0  0  0  0  0  0  0  0  0  0
   36.2930   28.3390   34.3450 C   0  0  0  0  0  0  0  0  0  0  0  0
   36.6440   28.4540   33.0130 C   0  0  0  0  0  0  0  0  0  0  0  0
   37.2890   27.2510   32.7040 C   0  0  0  0  0  0  0  0  0  0  0  0
   39.9003   24.5800   34.2337 H   0  0  0  0  0  0  0  0  0  0  0  0
   40.3974   22.0071   37.8188 H   0  0  0  0  0  0  0  0  0  0  0  0
   38.6973   22.7633   39.5454 H   0  0  0  0  0  0  0  0  0  0  0  0
   37.1901   24.7078   38.9540 H   0  0  0  0  0  0  0  0  0  0  0  0
   39.6027   26.7920   36.0974 H   0  0  0  0  0  0  0  0  0  0  0  0
   40.5287   26.7699   34.5584 H   0  0  0  0  0  0  0  0  0  0  0  0
   38.7979   27.2507   34.5584 H   0  0  0  0  0  0  0  0  0  0  0  0
   38.0835   24.7121   32.9984 H   0  0  0  0  0  0  0  0  0  0  0  0
   37.1303   24.5399   34.5392 H   0  0  0  0  0  0  0  0  0  0  0  0
   35.7637   29.0991   34.9383 H   0  0  0  0  0  0  0  0  0  0  0  0
   36.4571   29.3054   32.3421 H   0  0  0  0  0  0  0  0  0  0  0  0
   37.7065   26.9874   31.7210 H   0  0  0  0  0  0  0  0  0  0  0  0
  1  8  1  0
  1  6  1  0
  2  3  2  0
  4  3  1  0
  5  4  2  0
  6  7  2  0
  6  5  1  0
  7  2  1  0
  9  1  1  0
 10  9  1  0
 10 11  1  0
 12 11  2  0
 13 12  1  0
 14 13  2  0
 14 10  1  0
  1 15  1  6
  2 16  1  0
  3 17  1  0
  4 18  1  0
  8 19  1  0
  8 20  1  0
  8 21  1  0
  9 22  1  0
  9 23  1  0
 12 24  1  0
 13 25  1  0
 14 26  1  0
M  ISO  8  15   8  16  14  17  14  18  14  19   8  20   8  21   8  22   8
M  ISO  4  23   8  24  14  25  14  26  14
M  END
>  <minimizedAffinity>  (1) 
-3.98505354

>  <minimizedRMSD>  (1) 
1.70575202

$$$$
