
     RDKit          3D

 40 43  0  0  0  0  0  0  0  0999 V2000
   40.3750   22.5100   37.6320 C   0  0  0  0  0  0  0  0  0  0  0  0
   39.3730   23.3110   37.0420 C   0  0  0  0  0  0  0  0  0  0  0  0
   39.7530   24.1600   36.0160 C   0  0  0  0  0  0  0  0  0  0  0  0
   41.0740   24.1890   35.6190 N   0  0  0  0  0  0  0  0  0  0  0  0
   42.0010   23.3970   36.2190 C   0  0  0  0  0  0  0  0  0  0  0  0
   41.6340   22.5800   37.2070 N   0  0  0  0  0  0  0  0  0  0  0  0
   38.9260   25.0950   35.2670 C   0  0  0  0  0  0  0  0  0  0  0  0
   39.0000   26.4230   35.7160 C   0  0  0  0  0  0  0  0  0  0  0  0
   38.3060   27.4940   35.1500 C   0  0  0  0  0  0  0  0  0  0  0  0
   37.4880   27.2340   34.0730 C   0  0  0  0  0  0  0  0  0  0  0  0
   37.3940   25.9400   33.6090 C   0  0  0  0  0  0  0  0  0  0  0  0
   38.0930   24.9100   34.1910 C   0  0  0  0  0  0  0  0  0  0  0  0
   37.9570   23.3000   37.4550 C   0  0  0  0  0  0  0  0  0  0  0  0
   37.9140   22.6150   38.6890 F   0  0  0  0  0  0  0  0  0  0  0  0
   37.1360   22.6680   36.5990 F   0  0  0  0  0  0  0  0  0  0  0  0
   37.5280   24.5910   37.8140 F   0  0  0  0  0  0  0  0  0  0  0  0
   43.6770   23.5050   35.6390 S   0  0  0  0  0  0  0  0  0  0  0  0
   44.6860   24.3860   36.8180 C   0  0  0  0  0  0  0  0  0  0  0  0
   44.0290   25.2030   37.7640 C   0  0  0  0  0  0  0  0  0  0  0  0
   45.4470   25.9030   38.7580 S   0  0  0  0  0  0  0  0  0  0  0  0
   46.6770   24.9420   37.6870 C   0  0  0  0  0  0  0  0  0  0  0  0
   45.9630   24.4370   36.9990 N   0  0  0  0  0  0  0  0  0  0  0  0
   48.1150   24.9280   37.8040 N   0  0  0  0  0  0  0  0  0  0  0  0
   48.5960   23.8950   38.5340 C   0  0  0  0  0  0  0  0  0  0  0  0
   49.9700   24.0210   38.5510 C   0  0  0  0  0  0  0  0  0  0  0  0
   50.2580   25.1330   37.8260 N   0  0  0  0  0  0  0  0  0  0  0  0
   49.1260   25.6780   37.3760 C   0  0  0  0  0  0  0  0  0  0  0  0
   48.8650   26.8510   36.5690 C   0  0  0  0  0  0  0  0  0  0  0  0
   48.3940   26.7440   35.4150 O   0  0  0  0  0  0  0  0  0  0  0  0
   49.1580   28.0790   37.1310 O   0  0  0  0  0  0  0  0  0  0  0  0
   40.1127   21.8225   38.4496 H   0  0  0  0  0  0  0  0  0  0  0  0
   39.6521   26.6351   36.5761 H   0  0  0  0  0  0  0  0  0  0  0  0
   38.4092   28.5129   35.5514 H   0  0  0  0  0  0  0  0  0  0  0  0
   36.9203   28.0442   33.5922 H   0  0  0  0  0  0  0  0  0  0  0  0
   36.7418   25.7257   32.7495 H   0  0  0  0  0  0  0  0  0  0  0  0
   37.9808   23.8965   33.7784 H   0  0  0  0  0  0  0  0  0  0  0  0
   42.9505   25.3825   37.8853 H   0  0  0  0  0  0  0  0  0  0  0  0
   48.0046   23.1056   39.0209 H   0  0  0  0  0  0  0  0  0  0  0  0
   50.6881   23.3546   39.0513 H   0  0  0  0  0  0  0  0  0  0  0  0
   48.9964   28.9097   36.6173 H   0  0  0  0  0  0  0  0  0  0  0  0
  2 13  1  0
  2  1  2  0
  3  2  1  0
  4  3  2  0
  4  5  1  0
  5  6  2  0
  6  1  1  0
  7  8  2  0
  7  3  1  0
  9  8  1  0
 10  9  2  0
 11 10  1  0
 11 12  2  0
 12  7  1  0
 13 16  1  0
 13 14  1  0
 15 13  1  0
 17  5  1  0
 17 18  1  0
 18 22  1  0
 18 19  2  0
 19 20  1  0
 21 23  1  0
 21 20  1  0
 22 21  2  0
 23 24  1  0
 24 25  2  0
 26 25  1  0
 27 23  1  0
 27 26  2  0
 28 30  1  0
 28 27  1  0
 29 28  2  0
  1 31  1  0
  8 32  1  0
  9 33  1  0
 10 34  1  0
 11 35  1  0
 12 36  1  0
 19 37  1  0
 24 38  1  0
 25 39  1  0
 30 40  1  0
M  ISO  8  31  14  32  14  33  14  34  14  35  14  36  14  37  14  38  14
M  ISO  2  39  14  40   3
M  END
>  <minimizedAffinity>  (1) 
-6.15984774

>  <minimizedRMSD>  (1) 
4.17986774

$$$$
