
     RDKit          3D

 24 26  0  0  0  0  0  0  0  0999 V2000
   41.8480   22.0380   36.9540 C   0  0  0  0  0  0  0  0  0  0  0  0
   42.3430   20.9370   36.2650 C   0  0  0  0  0  0  0  0  0  0  0  0
   43.9180   21.5780   35.6330 S   0  0  0  0  0  0  0  0  0  0  0  0
   43.6280   23.2730   36.4290 C   0  0  0  0  0  0  0  0  0  0  0  0
   42.6260   23.1100   36.9230 N   0  0  0  0  0  0  0  0  0  0  0  0
   44.4330   24.5550   36.4650 N   0  0  0  0  0  0  0  0  0  0  0  0
   44.7330   25.1940   35.3420 C   0  0  0  0  0  0  0  0  0  0  0  0
   45.4530   26.2790   35.7900 C   0  0  0  0  0  0  0  0  0  0  0  0
   45.5150   26.1920   37.1310 N   0  0  0  0  0  0  0  0  0  0  0  0
   44.8730   25.1020   37.5870 C   0  0  0  0  0  0  0  0  0  0  0  0
   40.5880   21.8270   37.5720 O   0  0  0  0  0  0  0  0  0  0  0  0
   39.5950   22.7210   37.3490 C   0  0  0  0  0  0  0  0  0  0  0  0
   38.9700   23.2880   38.4720 C   0  0  0  0  0  0  0  0  0  0  0  0
   37.9410   24.2170   38.2600 C   0  0  0  0  0  0  0  0  0  0  0  0
   37.5900   24.5300   36.9950 N   0  0  0  0  0  0  0  0  0  0  0  0
   38.2230   23.9560   35.9340 C   0  0  0  0  0  0  0  0  0  0  0  0
   39.2030   23.0720   36.0910 N   0  0  0  0  0  0  0  0  0  0  0  0
   41.8971   19.9396   36.1367 H   0  0  0  0  0  0  0  0  0  0  0  0
   44.4713   24.9239   34.3083 H   0  0  0  0  0  0  0  0  0  0  0  0
   45.8954   27.0702   35.1669 H   0  0  0  0  0  0  0  0  0  0  0  0
   44.7464   24.7551   38.6232 H   0  0  0  0  0  0  0  0  0  0  0  0
   39.2794   23.0107   39.4905 H   0  0  0  0  0  0  0  0  0  0  0  0
   37.4271   24.6841   39.1130 H   0  0  0  0  0  0  0  0  0  0  0  0
   37.9133   24.2328   34.9154 H   0  0  0  0  0  0  0  0  0  0  0  0
  1 11  1  0
  2  1  2  0
  3  2  1  0
  3  4  1  0
  4  6  1  0
  4  5  2  0
  5  1  1  0
  6 10  1  0
  7  8  2  0
  7  6  1  0
  8  9  1  0
  9 10  2  0
 12 11  1  0
 12 13  2  0
 14 13  1  0
 15 14  2  0
 16 17  2  0
 16 15  1  0
 17 12  1  0
  2 18  1  0
  7 19  1  0
  8 20  1  0
 10 21  1  0
 13 22  1  0
 14 23  1  0
 16 24  1  0
M  ISO  7  18  14  19  14  20  14  21  14  22  14  23  14  24  14
M  END
>  <minimizedAffinity>  (1) 
-4.39384127

>  <minimizedRMSD>  (1) 
0.520714521

$$$$
