
     RDKit          3D

 24 26  0  0  0  0  0  0  0  0999 V2000
   41.8460   22.0870   36.8320 C   0  0  0  0  0  0  0  0  0  0  0  0
   42.5610   21.0210   36.2790 C   0  0  0  0  0  0  0  0  0  0  0  0
   44.1240   21.8430   35.8640 S   0  0  0  0  0  0  0  0  0  0  0  0
   43.5230   23.5100   36.5220 C   0  0  0  0  0  0  0  0  0  0  0  0
   42.4820   23.2420   36.8680 N   0  0  0  0  0  0  0  0  0  0  0  0
   44.4970   24.6280   36.4160 C   0  0  0  0  0  0  0  0  0  0  0  0
   45.7500   24.7820   36.9660 C   0  0  0  0  0  0  0  0  0  0  0  0
   46.1300   26.0400   36.4840 C   0  0  0  0  0  0  0  0  0  0  0  0
   45.1490   26.5680   35.7070 N   0  0  0  0  0  0  0  0  0  0  0  0
   44.1370   25.6850   35.6690 N   0  0  0  0  0  0  0  0  0  0  0  0
   40.5490   21.7400   37.2610 O   0  0  0  0  0  0  0  0  0  0  0  0
   39.5430   22.6520   37.1850 C   0  0  0  0  0  0  0  0  0  0  0  0
   39.0490   23.2020   38.3690 C   0  0  0  0  0  0  0  0  0  0  0  0
   38.0120   24.1420   38.2690 C   0  0  0  0  0  0  0  0  0  0  0  0
   37.5380   24.4720   37.0510 N   0  0  0  0  0  0  0  0  0  0  0  0
   38.0440   23.9150   35.9160 C   0  0  0  0  0  0  0  0  0  0  0  0
   39.0370   23.0150   35.9940 N   0  0  0  0  0  0  0  0  0  0  0  0
   42.2593   19.9730   36.1351 H   0  0  0  0  0  0  0  0  0  0  0  0
   46.3087   24.0934   37.6169 H   0  0  0  0  0  0  0  0  0  0  0  0
   47.0889   26.5321   36.7037 H   0  0  0  0  0  0  0  0  0  0  0  0
   45.1760   27.4816   35.2320 H   0  0  0  0  0  0  0  0  0  0  0  0
   39.4586   22.9086   39.3468 H   0  0  0  0  0  0  0  0  0  0  0  0
   37.5908   24.6042   39.1740 H   0  0  0  0  0  0  0  0  0  0  0  0
   37.6388   24.2027   34.9347 H   0  0  0  0  0  0  0  0  0  0  0  0
  1  5  1  0
  1 11  1  0
  2  1  2  0
  3  2  1  0
  3  4  1  0
  4  5  2  0
  6  4  1  0
  6  7  1  0
  8  7  2  0
  9  8  1  0
 10  9  1  0
 10  6  2  0
 12 11  1  0
 12 13  2  0
 14 13  1  0
 15 14  2  0
 16 17  2  0
 16 15  1  0
 17 12  1  0
  2 18  1  0
  7 19  1  0
  8 20  1  0
  9 21  1  0
 13 22  1  0
 14 23  1  0
 16 24  1  0
M  ISO  7  18  14  19  14  20  14  21   9  22  14  23  14  24  14
M  END
>  <minimizedAffinity>  (1) 
-4.28597736

>  <minimizedRMSD>  (1) 
0.583778799

$$$$
