
     RDKit          3D

 24 26  0  0  0  0  0  0  0  0999 V2000
   41.7900   22.0820   36.7820 C   0  0  0  0  0  0  0  0  0  0  0  0
   42.4590   21.0130   36.1700 C   0  0  0  0  0  0  0  0  0  0  0  0
   44.0730   21.7740   35.8340 S   0  0  0  0  0  0  0  0  0  0  0  0
   43.5510   23.4230   36.5860 C   0  0  0  0  0  0  0  0  0  0  0  0
   42.4890   23.1970   36.9020 N   0  0  0  0  0  0  0  0  0  0  0  0
   44.5730   24.4880   36.5710 C   0  0  0  0  0  0  0  0  0  0  0  0
   45.6690   24.7000   37.3760 C   0  0  0  0  0  0  0  0  0  0  0  0
   46.2250   25.8520   36.8590 C   0  0  0  0  0  0  0  0  0  0  0  0
   45.4570   26.2850   35.7820 C   0  0  0  0  0  0  0  0  0  0  0  0
   44.4780   25.4220   35.6590 O   0  0  0  0  0  0  0  0  0  0  0  0
   40.4600   21.7920   37.1740 O   0  0  0  0  0  0  0  0  0  0  0  0
   39.5130   22.7640   37.0970 C   0  0  0  0  0  0  0  0  0  0  0  0
   38.9780   23.2270   38.2990 C   0  0  0  0  0  0  0  0  0  0  0  0
   37.9990   24.2300   38.2420 C   0  0  0  0  0  0  0  0  0  0  0  0
   37.6220   24.6980   37.0190 N   0  0  0  0  0  0  0  0  0  0  0  0
   38.1720   24.2160   35.8720 C   0  0  0  0  0  0  0  0  0  0  0  0
   39.1080   23.2590   35.9160 N   0  0  0  0  0  0  0  0  0  0  0  0
   42.1043   19.9946   35.9532 H   0  0  0  0  0  0  0  0  0  0  0  0
   46.0177   24.0963   38.2268 H   0  0  0  0  0  0  0  0  0  0  0  0
   47.1305   26.3488   37.2375 H   0  0  0  0  0  0  0  0  0  0  0  0
   45.6358   27.1736   35.1588 H   0  0  0  0  0  0  0  0  0  0  0  0
   39.3139   22.8177   39.2632 H   0  0  0  0  0  0  0  0  0  0  0  0
   37.5467   24.6289   39.1619 H   0  0  0  0  0  0  0  0  0  0  0  0
   37.8454   24.6154   34.9005 H   0  0  0  0  0  0  0  0  0  0  0  0
  1  5  1  0
  1 11  1  0
  2  1  2  0
  3  2  1  0
  3  4  1  0
  4  5  2  0
  6  4  1  0
  6  7  2  0
  8  7  1  0
  9  8  2  0
 10  9  1  0
 10  6  1  0
 12 11  1  0
 12 13  2  0
 14 13  1  0
 15 14  2  0
 16 17  2  0
 16 15  1  0
 17 12  1  0
  2 18  1  0
  7 19  1  0
  8 20  1  0
  9 21  1  0
 13 22  1  0
 14 23  1  0
 16 24  1  0
M  ISO  7  18  14  19  14  20  14  21  14  22  14  23  14  24  14
M  END
>  <minimizedAffinity>  (1) 
-4.24600315

>  <minimizedRMSD>  (1) 
0.772031009

$$$$
