
     RDKit          3D

 19 20  0  0  0  0  0  0  0  0999 V2000
   40.7150   21.8620   37.6460 O   0  0  0  0  0  0  0  0  0  0  0  0
   39.6360   22.6500   37.4550 C   0  0  0  0  0  0  0  0  0  0  0  0
   39.0960   23.3310   38.5490 C   0  0  0  0  0  0  0  0  0  0  0  0
   37.9790   24.1400   38.3340 C   0  0  0  0  0  0  0  0  0  0  0  0
   37.4670   24.2280   37.0700 N   0  0  0  0  0  0  0  0  0  0  0  0
   38.0090   23.5610   36.0380 C   0  0  0  0  0  0  0  0  0  0  0  0
   39.0810   22.7840   36.2400 N   0  0  0  0  0  0  0  0  0  0  0  0
   41.9360   22.1610   36.9990 C   0  0  0  0  0  0  0  0  0  0  0  0
   42.6120   21.0450   36.4970 C   0  0  0  0  0  0  0  0  0  0  0  0
   44.0800   21.8210   35.7670 S   0  0  0  0  0  0  0  0  0  0  0  0
   43.5100   23.5520   36.2790 C   0  0  0  0  0  0  0  0  0  0  0  0
   42.5320   23.3230   36.7980 N   0  0  0  0  0  0  0  0  0  0  0  0
   44.4380   24.6530   35.8860 C   0  0  0  0  0  0  0  0  0  0  0  0
   44.6690   25.6430   36.6370 O   0  0  0  0  0  0  0  0  0  0  0  0
   39.5385   23.2324   39.5512 H   0  0  0  0  0  0  0  0  0  0  0  0
   37.5201   24.6955   39.1652 H   0  0  0  0  0  0  0  0  0  0  0  0
   37.5745   23.6524   35.0316 H   0  0  0  0  0  0  0  0  0  0  0  0
   42.3297   19.9825   36.5346 H   0  0  0  0  0  0  0  0  0  0  0  0
   44.9387   24.6009   34.9079 H   0  0  0  0  0  0  0  0  0  0  0  0
  2  1  1  0
  2  3  2  0
  4  3  1  0
  5  4  2  0
  6  7  2  0
  6  5  1  0
  7  2  1  0
  8  1  1  0
  9  8  2  0
 10 11  1  0
 10  9  1  0
 11 12  2  0
 12  8  1  0
 13 11  1  0
 13 14  2  0
  3 15  1  0
  4 16  1  0
  6 17  1  0
  9 18  1  0
 13 19  1  0
M  ISO  5  15  14  16  14  17  14  18  14  19   6
M  END
>  <minimizedAffinity>  (1) 
-3.63610721

>  <minimizedRMSD>  (1) 
0.204959229

$$$$
