
     RDKit          3D

 43 46  0  0  0  0  0  0  0  0999 V2000
   43.9230   23.2960   35.6720 S   0  0  0  0  0  0  0  0  0  0  0  0
   44.8860   24.2630   36.8470 C   0  0  0  0  0  0  0  0  0  0  0  0
   44.1890   25.1370   37.7090 C   0  0  0  0  0  0  0  0  0  0  0  0
   45.5710   25.8920   38.7060 S   0  0  0  0  0  0  0  0  0  0  0  0
   46.8440   24.8640   37.7500 C   0  0  0  0  0  0  0  0  0  0  0  0
   46.1510   24.3250   37.0740 N   0  0  0  0  0  0  0  0  0  0  0  0
   48.2740   24.8560   37.9220 N   0  0  0  0  0  0  0  0  0  0  0  0
   48.7260   23.8760   38.7340 C   0  0  0  0  0  0  0  0  0  0  0  0
   50.0990   24.0010   38.7970 C   0  0  0  0  0  0  0  0  0  0  0  0
   50.4150   25.0660   38.0090 N   0  0  0  0  0  0  0  0  0  0  0  0
   49.3080   25.5780   37.4840 C   0  0  0  0  0  0  0  0  0  0  0  0
   49.0790   26.6920   36.5940 C   0  0  0  0  0  0  0  0  0  0  0  0
   48.8520   26.5240   35.3790 O   0  0  0  0  0  0  0  0  0  0  0  0
   49.1250   27.9680   37.1520 O   0  0  0  0  0  0  0  0  0  0  0  0
   40.4720   22.5290   37.5290 C   0  0  0  0  0  0  0  0  0  0  0  0
   39.5430   23.3270   36.8540 C   0  0  0  0  0  0  0  0  0  0  0  0
   40.0260   24.1030   35.8120 C   0  0  0  0  0  0  0  0  0  0  0  0
   41.3520   24.0790   35.4710 N   0  0  0  0  0  0  0  0  0  0  0  0
   42.2120   23.2830   36.1640 C   0  0  0  0  0  0  0  0  0  0  0  0
   41.7530   22.5330   37.1690 N   0  0  0  0  0  0  0  0  0  0  0  0
   39.2230   24.9700   35.0200 N   0  0  0  0  0  0  0  0  0  0  0  0
   38.2530   24.7620   33.9520 C   0  0  0  0  0  0  0  0  0  0  0  0
   38.6580   25.6600   32.7950 C   0  0  0  0  0  0  0  0  0  0  0  0
   39.9480   26.1570   32.9460 O   0  0  0  0  0  0  0  0  0  0  0  0
   40.1250   26.9410   34.0720 C   0  0  0  0  0  0  0  0  0  0  0  0
   39.3340   26.4160   35.2660 C   0  0  0  0  0  0  0  0  0  0  0  0
   38.1040   23.3950   37.1740 C   0  0  0  0  0  0  0  0  0  0  0  0
   37.9660   22.8220   38.4520 F   0  0  0  0  0  0  0  0  0  0  0  0
   37.3160   22.7310   36.3030 F   0  0  0  0  0  0  0  0  0  0  0  0
   37.6970   24.7260   37.3960 F   0  0  0  0  0  0  0  0  0  0  0  0
   43.1071   25.3245   37.7753 H   0  0  0  0  0  0  0  0  0  0  0  0
   48.1146   23.1201   39.2485 H   0  0  0  0  0  0  0  0  0  0  0  0
   50.7960   23.3693   39.3673 H   0  0  0  0  0  0  0  0  0  0  0  0
   48.9743   28.7633   36.5820 H   0  0  0  0  0  0  0  0  0  0  0  0
   40.1414   21.8933   38.3636 H   0  0  0  0  0  0  0  0  0  0  0  0
   38.2634   23.7092   33.6333 H   0  0  0  0  0  0  0  0  0  0  0  0
   37.2364   25.0033   34.2958 H   0  0  0  0  0  0  0  0  0  0  0  0
   37.9563   26.5053   32.7395 H   0  0  0  0  0  0  0  0  0  0  0  0
   38.6319   25.0589   31.8741 H   0  0  0  0  0  0  0  0  0  0  0  0
   41.1938   26.9526   34.3318 H   0  0  0  0  0  0  0  0  0  0  0  0
   39.7596   27.9526   33.8416 H   0  0  0  0  0  0  0  0  0  0  0  0
   38.3383   26.8816   35.3091 H   0  0  0  0  0  0  0  0  0  0  0  0
   39.8210   26.6432   36.2258 H   0  0  0  0  0  0  0  0  0  0  0  0
  1 19  1  0
  1  2  1  0
  2  6  1  0
  2  3  2  0
  3  4  1  0
  5  7  1  0
  5  4  1  0
  6  5  2  0
  7  8  1  0
  8  9  2  0
 10  9  1  0
 11  7  1  0
 11 10  2  0
 12 14  1  0
 12 11  1  0
 13 12  2  0
 16 27  1  0
 16 15  2  0
 17 16  1  0
 18 17  2  0
 18 19  1  0
 19 20  2  0
 20 15  1  0
 21 26  1  0
 21 17  1  0
 22 21  1  0
 23 24  1  0
 23 22  1  0
 24 25  1  0
 25 26  1  0
 27 30  1  0
 27 28  1  0
 29 27  1  0
  3 31  1  0
  8 32  1  0
  9 33  1  0
 14 34  1  0
 15 35  1  0
 22 36  1  0
 22 37  1  0
 23 38  1  0
 23 39  1  0
 25 40  1  0
 25 41  1  0
 26 42  1  0
 26 43  1  0
M  ISO  8  31  14  32  14  33  14  34   3  35  14  36  13  37  13  38  13
M  ISO  5  39  13  40  13  41  13  42  13  43  13
M  END
>  <minimizedAffinity>  (1) 
-6.02916288

>  <minimizedRMSD>  (1) 
4.33281755

$$$$
