
     RDKit          3D

 38 42  0  0  1  0  0  0  0  0999 V2000
   44.1650   24.9430   35.9400 C   0  0  2  0  0  0  0  0  0  0  0  0
   44.5650   25.2850   34.5690 C   0  0  0  0  0  0  0  0  0  0  0  0
   45.5870   24.9140   35.4790 C   0  0  1  0  0  0  0  0  0  0  0  0
   46.7570   25.4430   36.0920 C   0  0  0  0  0  0  0  0  0  0  0  0
   47.4770   24.8390   37.0770 N   0  0  0  0  0  0  0  0  0  0  0  0
   48.5930   25.2960   37.6270 C   0  0  0  0  0  0  0  0  0  0  0  0
   49.1590   26.4530   37.2570 N   0  0  0  0  0  0  0  0  0  0  0  0
   48.5440   27.1520   36.2890 C   0  0  0  0  0  0  0  0  0  0  0  0
   49.1110   28.3490   35.9150 C   0  0  0  0  0  0  0  0  0  0  0  0
   48.5040   29.1060   34.9380 C   0  0  0  0  0  0  0  0  0  0  0  0
   47.3350   28.6480   34.3520 C   0  0  0  0  0  0  0  0  0  0  0  0
   46.8470   27.4540   34.7860 C   0  0  0  0  0  0  0  0  0  0  0  0
   47.3840   26.6280   35.7530 C   0  0  0  0  0  0  0  0  0  0  0  0
   41.9830   22.1700   36.9870 C   0  0  0  0  0  0  0  0  0  0  0  0
   42.7440   21.1180   36.5240 C   0  0  0  0  0  0  0  0  0  0  0  0
   44.1480   21.9880   35.7910 S   0  0  0  0  0  0  0  0  0  0  0  0
   43.4590   23.6630   36.2420 C   0  0  0  0  0  0  0  0  0  0  0  0
   42.4950   23.3660   36.7580 N   0  0  0  0  0  0  0  0  0  0  0  0
   40.7810   21.8050   37.6320 O   0  0  0  0  0  0  0  0  0  0  0  0
   39.6590   22.5390   37.4440 C   0  0  0  0  0  0  0  0  0  0  0  0
   39.1900   23.3220   38.5070 C   0  0  0  0  0  0  0  0  0  0  0  0
   38.0220   24.0760   38.2890 C   0  0  0  0  0  0  0  0  0  0  0  0
   37.4040   24.0170   37.0770 N   0  0  0  0  0  0  0  0  0  0  0  0
   37.9070   23.2320   36.0690 C   0  0  0  0  0  0  0  0  0  0  0  0
   39.0100   22.5070   36.2460 N   0  0  0  0  0  0  0  0  0  0  0  0
   43.5897   25.4367   36.7370 H   0  0  0  0  0  0  0  0  0  0  0  0
   44.4947   26.3280   34.2267 H   0  0  0  0  0  0  0  0  0  0  0  0
   44.2623   24.9278   33.5736 H   0  0  0  0  0  0  0  0  0  0  0  0
   46.4557   24.2465   35.3795 H   0  0  0  0  0  0  0  0  0  0  0  0
   49.0736   24.7021   38.4184 H   0  0  0  0  0  0  0  0  0  0  0  0
   50.0392   28.6973   36.3915 H   0  0  0  0  0  0  0  0  0  0  0  0
   48.9429   30.0651   34.6258 H   0  0  0  0  0  0  0  0  0  0  0  0
   46.8226   29.2255   33.5685 H   0  0  0  0  0  0  0  0  0  0  0  0
   45.9173   27.1070   34.3114 H   0  0  0  0  0  0  0  0  0  0  0  0
   42.5487   20.0372   36.5846 H   0  0  0  0  0  0  0  0  0  0  0  0
   39.7141   23.3464   39.4738 H   0  0  0  0  0  0  0  0  0  0  0  0
   37.6117   24.7076   39.0907 H   0  0  0  0  0  0  0  0  0  0  0  0
   37.3900   23.2014   35.0985 H   0  0  0  0  0  0  0  0  0  0  0  0
  1 17  1  0
  2  3  1  0
  2  1  1  0
  3  1  1  0
  3  4  1  0
  4  5  2  0
  5  6  1  0
  7  6  2  0
  8  7  1  0
  9  8  2  0
 10  9  1  0
 11 12  1  0
 11 10  2  0
 12 13  2  0
 13  4  1  0
 13  8  1  0
 14 19  1  0
 15 14  2  0
 16 17  1  0
 16 15  1  0
 17 18  2  0
 18 14  1  0
 20 19  1  0
 20 21  2  0
 22 21  1  0
 23 22  2  0
 24 25  2  0
 24 23  1  0
 25 20  1  0
  1 26  1  1
  2 27  1  0
  2 28  1  0
  3 29  1  6
  6 30  1  0
  9 31  1  0
 10 32  1  0
 11 33  1  0
 12 34  1  0
 15 35  1  0
 21 36  1  0
 22 37  1  0
 24 38  1  0
M  ISO  8  26  13  27  13  28  13  29  13  30  14  31  14  32  14  33  14
M  ISO  5  34  14  35  14  36  14  37  14  38  14
M  END
>  <minimizedAffinity>  (1) 
-5.06721354

>  <minimizedRMSD>  (1) 
4.4251833

$$$$
