
     RDKit          3D

 33 35  0  0  1  0  0  0  0  0999 V2000
   41.8730   22.0000   36.9800 C   0  0  0  0  0  0  0  0  0  0  0  0
   42.3560   20.8440   36.4130 C   0  0  0  0  0  0  0  0  0  0  0  0
   43.9420   21.4100   35.7390 S   0  0  0  0  0  0  0  0  0  0  0  0
   43.6700   23.1810   36.3620 C   0  0  0  0  0  0  0  0  0  0  0  0
   42.6570   23.0440   36.8540 N   0  0  0  0  0  0  0  0  0  0  0  0
   44.6840   24.2380   36.1290 C   0  0  2  0  0  0  0  0  0  0  0  0
   46.0620   23.9150   35.7420 C   0  0  0  0  0  0  0  0  0  0  0  0
   45.8380   24.3240   37.1380 C   0  0  1  0  0  0  0  0  0  0  0  0
   46.1040   25.7360   37.6130 C   0  0  0  0  0  0  0  0  0  0  0  0
   45.6180   25.9550   39.0280 C   0  0  0  0  0  0  0  0  0  0  0  0
   47.5470   26.1460   37.4900 C   0  0  0  0  0  0  0  0  0  0  0  0
   40.6170   21.8760   37.6040 O   0  0  0  0  0  0  0  0  0  0  0  0
   39.6630   22.8310   37.4110 C   0  0  0  0  0  0  0  0  0  0  0  0
   38.9520   23.2850   38.5210 C   0  0  0  0  0  0  0  0  0  0  0  0
   37.9710   24.2710   38.3150 C   0  0  0  0  0  0  0  0  0  0  0  0
   37.7610   24.7360   37.0450 N   0  0  0  0  0  0  0  0  0  0  0  0
   38.4910   24.2500   35.9970 C   0  0  0  0  0  0  0  0  0  0  0  0
   39.4210   23.3210   36.1600 N   0  0  0  0  0  0  0  0  0  0  0  0
   41.9016   19.8429   36.3776 H   0  0  0  0  0  0  0  0  0  0  0  0
   43.9170   24.9058   35.7097 H   0  0  0  0  0  0  0  0  0  0  0  0
   46.3318   22.8720   35.5199 H   0  0  0  0  0  0  0  0  0  0  0  0
   46.7303   24.2706   34.9439 H   0  0  0  0  0  0  0  0  0  0  0  0
   46.1517   23.8804   38.0945 H   0  0  0  0  0  0  0  0  0  0  0  0
   45.5258   26.3822   36.9362 H   0  0  0  0  0  0  0  0  0  0  0  0
   46.3850   25.6094   39.7367 H   0  0  0  0  0  0  0  0  0  0  0  0
   45.4267   27.0263   39.1883 H   0  0  0  0  0  0  0  0  0  0  0  0
   44.6887   25.3886   39.1883 H   0  0  0  0  0  0  0  0  0  0  0  0
   47.9800   26.2690   38.4937 H   0  0  0  0  0  0  0  0  0  0  0  0
   48.1032   25.3703   36.9432 H   0  0  0  0  0  0  0  0  0  0  0  0
   47.6123   27.0982   36.9432 H   0  0  0  0  0  0  0  0  0  0  0  0
   39.1521   22.8846   39.5258 H   0  0  0  0  0  0  0  0  0  0  0  0
   37.3832   24.6614   39.1589 H   0  0  0  0  0  0  0  0  0  0  0  0
   38.3005   24.6423   34.9871 H   0  0  0  0  0  0  0  0  0  0  0  0
  1 12  1  0
  2  1  2  0
  3  4  1  0
  3  2  1  0
  4  5  2  0
  5  1  1  0
  6  4  1  0
  6  8  1  0
  7  6  1  0
  7  8  1  0
  8  9  1  0
  9 10  1  0
 11  9  1  0
 13 12  1  0
 13 14  2  0
 15 14  1  0
 16 15  2  0
 17 18  2  0
 17 16  1  0
 18 13  1  0
  2 19  1  0
  6 20  1  6
  7 21  1  0
  7 22  1  0
  8 23  1  1
  9 24  1  0
 10 25  1  0
 10 26  1  0
 10 27  1  0
 11 28  1  0
 11 29  1  0
 11 30  1  0
 14 31  1  0
 15 32  1  0
 17 33  1  0
M  ISO  8  19  14  20  13  21  13  22  13  23  13  24   8  25   8  26   8
M  ISO  7  27   8  28   8  29   8  30   8  31  14  32  14  33  14
M  END
>  <minimizedAffinity>  (1) 
-4.87283707

>  <minimizedRMSD>  (1) 
1.13907254

$$$$
