
     RDKit          3D

 38 41  0  0  1  0  0  0  0  0999 V2000
   41.8450   22.0530   37.0430 C   0  0  0  0  0  0  0  0  0  0  0  0
   42.4280   20.8590   36.6810 C   0  0  0  0  0  0  0  0  0  0  0  0
   43.8410   21.4290   35.7070 S   0  0  0  0  0  0  0  0  0  0  0  0
   43.3940   23.2560   35.9580 C   0  0  0  0  0  0  0  0  0  0  0  0
   42.4600   23.1180   36.5950 N   0  0  0  0  0  0  0  0  0  0  0  0
   44.2120   24.3580   35.3890 C   0  0  2  0  0  0  0  0  0  0  0  0
   45.3970   24.1010   34.5720 C   0  0  0  0  0  0  0  0  0  0  0  0
   45.6310   24.5170   35.9660 C   0  0  1  0  0  0  0  0  0  0  0  0
   46.0860   25.7790   36.3700 N   0  0  0  0  0  0  0  0  0  0  0  0
   46.5100   26.7230   35.4110 C   0  0  0  0  0  0  0  0  0  0  0  0
   48.0260   26.7480   35.2330 C   0  0  0  0  0  0  0  0  0  0  0  0
   48.6690   26.8550   36.5010 N   0  0  0  0  0  0  0  0  0  0  0  0
   48.2260   25.9630   37.5180 C   0  0  0  0  0  0  0  0  0  0  0  0
   46.7190   25.8800   37.6270 C   0  0  0  0  0  0  0  0  0  0  0  0
   40.6870   21.9380   37.8340 O   0  0  0  0  0  0  0  0  0  0  0  0
   39.5940   22.7010   37.5690 C   0  0  0  0  0  0  0  0  0  0  0  0
   39.0230   23.4160   38.6310 C   0  0  0  0  0  0  0  0  0  0  0  0
   37.8970   24.1990   38.3440 C   0  0  0  0  0  0  0  0  0  0  0  0
   37.4150   24.2310   37.0770 N   0  0  0  0  0  0  0  0  0  0  0  0
   38.0130   23.5110   36.0720 C   0  0  0  0  0  0  0  0  0  0  0  0
   39.0850   22.7570   36.3120 N   0  0  0  0  0  0  0  0  0  0  0  0
   42.1168   19.8315   36.9207 H   0  0  0  0  0  0  0  0  0  0  0  0
   43.3149   24.9764   35.2380 H   0  0  0  0  0  0  0  0  0  0  0  0
   45.6315   23.0699   34.2688 H   0  0  0  0  0  0  0  0  0  0  0  0
   45.7439   24.4802   33.5994 H   0  0  0  0  0  0  0  0  0  0  0  0
   46.2336   24.1061   36.7894 H   0  0  0  0  0  0  0  0  0  0  0  0
   46.0471   26.4741   34.4447 H   0  0  0  0  0  0  0  0  0  0  0  0
   46.2027   27.7172   35.7676 H   0  0  0  0  0  0  0  0  0  0  0  0
   48.3492   25.8199   34.7389 H   0  0  0  0  0  0  0  0  0  0  0  0
   48.3007   27.6168   34.6168 H   0  0  0  0  0  0  0  0  0  0  0  0
   49.6751   26.6887   36.3561 H   0  0  0  0  0  0  0  0  0  0  0  0
   48.6157   24.9587   37.2955 H   0  0  0  0  0  0  0  0  0  0  0  0
   48.6010   26.3503   38.4768 H   0  0  0  0  0  0  0  0  0  0  0  0
   46.3526   26.7850   38.1336 H   0  0  0  0  0  0  0  0  0  0  0  0
   46.4770   24.9693   38.1945 H   0  0  0  0  0  0  0  0  0  0  0  0
   39.4414   23.3645   39.6470 H   0  0  0  0  0  0  0  0  0  0  0  0
   37.4088   24.7821   39.1388 H   0  0  0  0  0  0  0  0  0  0  0  0
   37.6006   23.5575   35.0533 H   0  0  0  0  0  0  0  0  0  0  0  0
  1 15  1  0
  2  1  2  0
  3  4  1  0
  3  2  1  0
  4  5  2  0
  5  1  1  0
  6  4  1  0
  6  8  1  0
  7  6  1  0
  7  8  1  0
  8  9  1  0
  9 14  1  0
 10  9  1  0
 11 10  1  0
 11 12  1  0
 12 13  1  0
 13 14  1  0
 16 15  1  0
 16 17  2  0
 18 17  1  0
 19 18  2  0
 20 21  2  0
 20 19  1  0
 21 16  1  0
  2 22  1  0
  6 23  1  6
  7 24  1  0
  7 25  1  0
  8 26  1  1
 10 27  1  0
 10 28  1  0
 11 29  1  0
 11 30  1  0
 12 31  1  0
 13 32  1  0
 13 33  1  0
 14 34  1  0
 14 35  1  0
 17 36  1  0
 18 37  1  0
 20 38  1  0
M  ISO  8  22  14  23  13  24  13  25  13  26  13  27  13  28  13  29  13
M  ISO  8  30  13  31   5  32  13  33  13  34  13  35  13  36  14  37  14
M  ISO  1  38  14
M  END
>  <minimizedAffinity>  (1) 
-4.43055725

>  <minimizedRMSD>  (1) 
2.63606286

$$$$
