
     RDKit          3D

 30 33  0  0  1  0  0  0  0  0999 V2000
   41.7380   22.0440   36.5770 C   0  0  0  0  0  0  0  0  0  0  0  0
   42.4610   21.0160   36.0200 C   0  0  0  0  0  0  0  0  0  0  0  0
   44.1060   21.7600   35.8960 S   0  0  0  0  0  0  0  0  0  0  0  0
   43.5190   23.4050   36.6480 C   0  0  0  0  0  0  0  0  0  0  0  0
   42.4310   23.1290   36.8100 N   0  0  0  0  0  0  0  0  0  0  0  0
   44.4460   24.5420   36.8510 C   0  0  2  0  0  0  0  0  0  0  0  0
   44.5830   25.6200   35.8720 C   0  0  0  0  0  0  0  0  0  0  0  0
   45.6610   24.6140   35.9090 C   0  0  1  0  0  0  0  0  0  0  0  0
   46.9650   24.9900   36.5670 C   0  0  0  0  0  0  0  0  0  0  0  0
   47.7830   23.9410   37.1600 C   0  0  0  0  0  0  0  0  0  0  0  0
   49.1890   24.9560   37.7830 S   0  0  0  0  0  0  0  0  0  0  0  0
   48.4440   26.5630   37.1510 C   0  0  0  0  0  0  0  0  0  0  0  0
   47.3660   26.2530   36.6080 N   0  0  0  0  0  0  0  0  0  0  0  0
   40.3780   21.7680   36.8060 O   0  0  0  0  0  0  0  0  0  0  0  0
   39.4760   22.7770   36.8950 C   0  0  0  0  0  0  0  0  0  0  0  0
   39.0220   23.1180   38.1830 C   0  0  0  0  0  0  0  0  0  0  0  0
   38.0870   24.1630   38.2710 C   0  0  0  0  0  0  0  0  0  0  0  0
   37.6720   24.7870   37.1360 N   0  0  0  0  0  0  0  0  0  0  0  0
   38.1530   24.4070   35.9070 C   0  0  0  0  0  0  0  0  0  0  0  0
   39.0410   23.4180   35.7890 N   0  0  0  0  0  0  0  0  0  0  0  0
   42.1282   20.0092   35.7275 H   0  0  0  0  0  0  0  0  0  0  0  0
   44.2498   24.5297   37.9333 H   0  0  0  0  0  0  0  0  0  0  0  0
   44.7863   26.6437   36.2195 H   0  0  0  0  0  0  0  0  0  0  0  0
   43.9330   26.0063   35.0731 H   0  0  0  0  0  0  0  0  0  0  0  0
   46.1408   23.9667   35.1602 H   0  0  0  0  0  0  0  0  0  0  0  0
   47.6111   22.8561   37.2189 H   0  0  0  0  0  0  0  0  0  0  0  0
   48.8728   27.5719   37.2421 H   0  0  0  0  0  0  0  0  0  0  0  0
   39.3824   22.5910   39.0787 H   0  0  0  0  0  0  0  0  0  0  0  0
   37.6937   24.4740   39.2501 H   0  0  0  0  0  0  0  0  0  0  0  0
   37.8001   24.9270   35.0042 H   0  0  0  0  0  0  0  0  0  0  0  0
  1 14  1  0
  1  5  1  0
  2  1  2  0
  3  2  1  0
  3  4  1  0
  4  5  2  0
  4  6  1  0
  7  8  1  0
  7  6  1  0
  8  9  1  0
  8  6  1  0
  9 13  1  0
  9 10  2  0
 10 11  1  0
 12 11  1  0
 13 12  2  0
 14 15  1  0
 15 16  2  0
 16 17  1  0
 18 17  2  0
 19 18  1  0
 20 19  2  0
 20 15  1  0
  2 21  1  0
  6 22  1  1
  7 23  1  0
  7 24  1  0
  8 25  1  6
 10 26  1  0
 12 27  1  0
 16 28  1  0
 17 29  1  0
 19 30  1  0
M  ISO  8  21  14  22  13  23  13  24  13  25  13  26  14  27  14  28  14
M  ISO  2  29  14  30  14
M  END
>  <minimizedAffinity>  (1) 
-4.40719891

>  <minimizedRMSD>  (1) 
2.46949387

$$$$
