
     RDKit          3D

 26 28  0  0  1  0  0  0  0  0999 V2000
   41.9220   22.1910   37.0460 C   0  0  0  0  0  0  0  0  0  0  0  0
   42.6480   21.0700   36.7020 C   0  0  0  0  0  0  0  0  0  0  0  0
   44.0700   21.8090   35.8560 S   0  0  0  0  0  0  0  0  0  0  0  0
   43.4230   23.5710   36.1200 C   0  0  0  0  0  0  0  0  0  0  0  0
   42.4580   23.3290   36.6780 N   0  0  0  0  0  0  0  0  0  0  0  0
   44.1770   24.7460   35.6350 C   0  0  2  0  0  0  0  0  0  0  0  0
   45.6390   24.8150   35.6950 C   0  0  0  0  0  0  0  0  0  0  0  0
   44.8840   25.6080   36.6790 C   0  0  2  0  0  0  0  0  0  0  0  0
   44.8790   25.1920   38.0500 N   0  0  0  0  0  0  0  0  0  0  0  0
   40.7250   21.9360   37.7360 O   0  0  0  0  0  0  0  0  0  0  0  0
   39.6220   22.6980   37.5090 C   0  0  0  0  0  0  0  0  0  0  0  0
   39.0610   23.3930   38.5940 C   0  0  0  0  0  0  0  0  0  0  0  0
   37.9220   24.1720   38.3270 C   0  0  0  0  0  0  0  0  0  0  0  0
   37.4260   24.2200   37.0720 N   0  0  0  0  0  0  0  0  0  0  0  0
   38.0110   23.5220   36.0430 C   0  0  0  0  0  0  0  0  0  0  0  0
   39.0940   22.7720   36.2590 N   0  0  0  0  0  0  0  0  0  0  0  0
   42.4237   20.0098   36.8908 H   0  0  0  0  0  0  0  0  0  0  0  0
   43.4458   24.8872   34.8254 H   0  0  0  0  0  0  0  0  0  0  0  0
   46.2102   23.9366   36.0297 H   0  0  0  0  0  0  0  0  0  0  0  0
   46.4210   25.0571   34.9602 H   0  0  0  0  0  0  0  0  0  0  0  0
   44.8487   26.6657   36.9789 H   0  0  0  0  0  0  0  0  0  0  0  0
   44.8890   26.0215   38.6605 H   0  0  0  0  0  0  0  0  0  0  0  0
   44.0313   24.6378   38.2376 H   0  0  0  0  0  0  0  0  0  0  0  0
   39.4926   23.3303   39.6038 H   0  0  0  0  0  0  0  0  0  0  0  0
   37.4376   24.7391   39.1355 H   0  0  0  0  0  0  0  0  0  0  0  0
   37.5828   23.5818   35.0316 H   0  0  0  0  0  0  0  0  0  0  0  0
  1 10  1  0
  2  1  2  0
  3  4  1  0
  3  2  1  0
  4  5  2  0
  5  1  1  0
  6  7  1  0
  6  4  1  0
  6  8  1  0
  7  8  1  0
  8  9  1  0
 11 10  1  0
 11 12  2  0
 13 12  1  0
 14 13  2  0
 15 16  2  0
 15 14  1  0
 16 11  1  0
  2 17  1  0
  6 18  1  6
  7 19  1  0
  7 20  1  0
  8 21  1  1
  9 22  1  0
  9 23  1  0
 12 24  1  0
 13 25  1  0
 15 26  1  0
M  ISO  8  17  14  18  13  19  13  20  13  21  13  22   5  23   5  24  14
M  ISO  2  25  14  26  14
M  END
>  <minimizedAffinity>  (1) 
-4.14587307

>  <minimizedRMSD>  (1) 
0.671667755

$$$$
