
     RDKit          3D

 39 42  0  0  0  0  0  0  0  0999 V2000
   42.9550   22.9680   34.7960 S   0  0  0  0  0  0  0  0  0  0  0  0
   44.1890   24.1750   35.2530 C   0  0  0  0  0  0  0  0  0  0  0  0
   43.9720   25.5060   34.8790 C   0  0  0  0  0  0  0  0  0  0  0  0
   45.4820   26.3780   35.5550 S   0  0  0  0  0  0  0  0  0  0  0  0
   46.1290   24.7270   36.2310 C   0  0  0  0  0  0  0  0  0  0  0  0
   45.3050   24.0600   35.8970 N   0  0  0  0  0  0  0  0  0  0  0  0
   47.3550   24.4960   36.9580 N   0  0  0  0  0  0  0  0  0  0  0  0
   47.2030   24.4960   38.3020 C   0  0  0  0  0  0  0  0  0  0  0  0
   48.4530   24.2640   38.8410 C   0  0  0  0  0  0  0  0  0  0  0  0
   49.3050   24.1360   37.7940 N   0  0  0  0  0  0  0  0  0  0  0  0
   48.6330   24.2770   36.6450 C   0  0  0  0  0  0  0  0  0  0  0  0
   49.0450   24.2330   35.2670 C   0  0  0  0  0  0  0  0  0  0  0  0
   49.1930   23.1320   34.6770 O   0  0  0  0  0  0  0  0  0  0  0  0
   49.2680   25.4410   34.6310 O   0  0  0  0  0  0  0  0  0  0  0  0
   40.1200   22.5880   37.5690 C   0  0  0  0  0  0  0  0  0  0  0  0
   39.1910   23.6000   37.2420 C   0  0  0  0  0  0  0  0  0  0  0  0
   39.4740   24.3970   36.1390 C   0  0  0  0  0  0  0  0  0  0  0  0
   40.6320   24.1700   35.4240 N   0  0  0  0  0  0  0  0  0  0  0  0
   41.4930   23.1840   35.7780 C   0  0  0  0  0  0  0  0  0  0  0  0
   41.2180   22.4210   36.8380 N   0  0  0  0  0  0  0  0  0  0  0  0
   38.6950   25.5120   35.6180 C   0  0  0  0  0  0  0  0  0  0  0  0
   38.5540   26.8110   36.0430 C   0  0  0  0  0  0  0  0  0  0  0  0
   37.7800   27.7310   35.4010 C   0  0  0  0  0  0  0  0  0  0  0  0
   37.0750   27.4140   34.2600 C   0  0  0  0  0  0  0  0  0  0  0  0
   37.2240   26.1240   33.8520 C   0  0  0  0  0  0  0  0  0  0  0  0
   37.9810   25.2350   34.4850 N   0  0  0  0  0  0  0  0  0  0  0  0
   37.9530   23.8610   37.9950 C   0  0  0  0  0  0  0  0  0  0  0  0
   37.8390   22.8160   38.9370 F   0  0  0  0  0  0  0  0  0  0  0  0
   36.8400   23.8720   37.2410 F   0  0  0  0  0  0  0  0  0  0  0  0
   38.0960   24.9920   38.8210 F   0  0  0  0  0  0  0  0  0  0  0  0
   43.1234   25.9334   34.3247 H   0  0  0  0  0  0  0  0  0  0  0  0
   46.2662   24.6507   38.8574 H   0  0  0  0  0  0  0  0  0  0  0  0
   48.7074   24.1964   39.9090 H   0  0  0  0  0  0  0  0  0  0  0  0
   49.5527   25.4561   33.6829 H   0  0  0  0  0  0  0  0  0  0  0  0
   39.9342   21.9339   38.4337 H   0  0  0  0  0  0  0  0  0  0  0  0
   39.0939   27.1248   36.9486 H   0  0  0  0  0  0  0  0  0  0  0  0
   37.7164   28.7526   35.8038 H   0  0  0  0  0  0  0  0  0  0  0  0
   36.4461   28.1409   33.7251 H   0  0  0  0  0  0  0  0  0  0  0  0
   36.6877   25.7998   32.9479 H   0  0  0  0  0  0  0  0  0  0  0  0
  1  2  1  0
  1 19  1  0
  2  6  1  0
  3  2  2  0
  3  4  1  0
  4  5  1  0
  5  7  1  0
  6  5  2  0
  7  8  1  0
  8  9  2  0
 10  9  1  0
 11  7  1  0
 11 10  2  0
 12 11  1  0
 13 12  2  0
 14 12  1  0
 16 15  2  0
 16 27  1  0
 17 16  1  0
 18 19  1  0
 18 17  2  0
 19 20  2  0
 20 15  1  0
 21 22  2  0
 21 17  1  0
 23 22  1  0
 24 23  2  0
 25 24  1  0
 25 26  2  0
 26 21  1  0
 27 30  1  0
 27 28  1  0
 29 27  1  0
  3 31  1  0
  8 32  1  0
  9 33  1  0
 14 34  1  0
 15 35  1  0
 22 36  1  0
 23 37  1  0
 24 38  1  0
 25 39  1  0
M  ISO  8  31  14  32  14  33  14  34   3  35  14  36  14  37  14  38  14
M  ISO  1  39  14
M  END
>  <minimizedAffinity>  (1) 
-5.92871237

>  <minimizedRMSD>  (1) 
3.4625113

$$$$
