
     RDKit          3D

 43 47  0  0  1  0  0  0  0  0999 V2000
   40.5860   21.8830   37.2860 O   0  0  0  0  0  0  0  0  0  0  0  0
   39.5950   22.7980   37.2250 C   0  0  0  0  0  0  0  0  0  0  0  0
   38.9920   23.2300   38.4030 C   0  0  0  0  0  0  0  0  0  0  0  0
   37.9710   24.1730   38.2710 C   0  0  0  0  0  0  0  0  0  0  0  0
   37.6100   24.6230   37.0540 N   0  0  0  0  0  0  0  0  0  0  0  0
   38.2240   24.1770   35.9210 C   0  0  0  0  0  0  0  0  0  0  0  0
   39.1880   23.2870   36.0380 N   0  0  0  0  0  0  0  0  0  0  0  0
   37.9530   24.5580   34.5380 C   0  0  0  0  0  0  0  0  0  0  0  0
   38.1620   23.6570   33.5160 C   0  0  0  0  0  0  0  0  0  0  0  0
   37.9350   23.9320   32.1870 C   0  0  0  0  0  0  0  0  0  0  0  0
   37.4730   25.1570   31.8020 C   0  0  0  0  0  0  0  0  0  0  0  0
   37.2470   26.0920   32.7870 C   0  0  0  0  0  0  0  0  0  0  0  0
   36.7830   27.3300   32.3980 C   0  0  0  0  0  0  0  0  0  0  0  0
   36.5340   28.3260   33.3290 C   0  0  0  0  0  0  0  0  0  0  0  0
   36.7830   27.9930   34.6580 C   0  0  0  0  0  0  0  0  0  0  0  0
   37.2450   26.7460   34.9970 C   0  0  0  0  0  0  0  0  0  0  0  0
   37.4910   25.7650   34.0950 C   0  0  0  0  0  0  0  0  0  0  0  0
   41.8670   22.1740   36.7840 C   0  0  0  0  0  0  0  0  0  0  0  0
   42.4470   21.1820   36.0430 C   0  0  0  0  0  0  0  0  0  0  0  0
   44.0260   21.9320   35.6090 S   0  0  0  0  0  0  0  0  0  0  0  0
   43.6280   23.5510   36.5460 C   0  0  0  0  0  0  0  0  0  0  0  0
   42.6010   23.2450   36.9110 N   0  0  0  0  0  0  0  0  0  0  0  0
   44.6100   24.6730   36.5930 C   0  0  2  0  0  0  0  0  0  0  0  0
   46.0100   24.4250   36.2700 C   0  0  0  0  0  0  0  0  0  0  0  0
   45.7450   24.4790   37.6890 C   0  0  1  0  0  0  0  0  0  0  0  0
   46.2350   25.7740   38.3060 C   0  0  0  0  0  0  0  0  0  0  0  0
   47.2720   26.3890   37.8040 O   0  0  0  0  0  0  0  0  0  0  0  0
   45.5940   26.3450   39.4120 O   0  0  0  0  0  0  0  0  0  0  0  0
   39.3037   22.8483   39.3864 H   0  0  0  0  0  0  0  0  0  0  0  0
   37.4577   24.5512   39.1674 H   0  0  0  0  0  0  0  0  0  0  0  0
   38.5334   22.6556   33.7793 H   0  0  0  0  0  0  0  0  0  0  0  0
   38.1274   23.1584   31.4290 H   0  0  0  0  0  0  0  0  0  0  0  0
   37.2878   25.3890   30.7428 H   0  0  0  0  0  0  0  0  0  0  0  0
   36.6074   27.5310   31.3309 H   0  0  0  0  0  0  0  0  0  0  0  0
   36.1624   29.3190   33.0360 H   0  0  0  0  0  0  0  0  0  0  0  0
   36.6070   28.7394   35.4466 H   0  0  0  0  0  0  0  0  0  0  0  0
   37.4258   26.5307   36.0605 H   0  0  0  0  0  0  0  0  0  0  0  0
   42.0534   20.1887   35.7812 H   0  0  0  0  0  0  0  0  0  0  0  0
   43.8752   25.4283   36.2774 H   0  0  0  0  0  0  0  0  0  0  0  0
   46.2884   23.4617   35.8177 H   0  0  0  0  0  0  0  0  0  0  0  0
   46.7267   24.9628   35.6320 H   0  0  0  0  0  0  0  0  0  0  0  0
   45.8885   23.8289   38.5647 H   0  0  0  0  0  0  0  0  0  0  0  0
   45.9325   27.1916   39.7977 H   0  0  0  0  0  0  0  0  0  0  0  0
  2  1  1  0
  2  3  2  0
  4  3  1  0
  5  4  2  0
  6  7  2  0
  6  5  1  0
  7  2  1  0
  8  6  1  0
  9  8  2  0
 10  9  1  0
 11 10  2  0
 11 12  1  0
 12 17  2  0
 13 12  1  0
 13 14  2  0
 14 15  1  0
 15 16  2  0
 17  8  1  0
 17 16  1  0
 18 22  1  0
 18  1  1  0
 19 18  2  0
 20 19  1  0
 20 21  1  0
 21 23  1  0
 21 22  2  0
 23 25  1  0
 24 23  1  0
 24 25  1  0
 25 26  1  0
 26 28  1  0
 27 26  2  0
  3 29  1  0
  4 30  1  0
  9 31  1  0
 10 32  1  0
 11 33  1  0
 13 34  1  0
 14 35  1  0
 15 36  1  0
 16 37  1  0
 19 38  1  0
 23 39  1  6
 24 40  1  0
 24 41  1  0
 25 42  1  1
 28 43  1  0
M  ISO  8  29  14  30  14  31  14  32  14  33  14  34  14  35  14  36  14
M  ISO  7  37  14  38  14  39  13  40  13  41  13  42  13  43   3
M  END
>  <minimizedAffinity>  (1) 
-6.51230955

>  <minimizedRMSD>  (1) 
0.303458035

$$$$
