
     RDKit          3D

 34 36  0  0  1  0  0  0  0  0999 V2000
   41.7030   22.2240   36.7110 C   0  0  0  0  0  0  0  0  0  0  0  0
   42.3480   21.1720   36.1130 C   0  0  0  0  0  0  0  0  0  0  0  0
   43.9700   21.8800   35.7900 S   0  0  0  0  0  0  0  0  0  0  0  0
   43.4960   23.5710   36.5530 C   0  0  0  0  0  0  0  0  0  0  0  0
   42.4350   23.2970   36.8310 N   0  0  0  0  0  0  0  0  0  0  0  0
   44.4830   24.6900   36.6140 C   0  0  2  0  0  0  0  0  0  0  0  0
   45.8800   24.4440   36.2820 C   0  0  0  0  0  0  0  0  0  0  0  0
   45.6220   24.4700   37.7030 C   0  0  1  0  0  0  0  0  0  0  0  0
   46.1180   25.7530   38.3420 C   0  0  0  0  0  0  0  0  0  0  0  0
   47.1660   26.3610   37.8550 O   0  0  0  0  0  0  0  0  0  0  0  0
   45.4710   26.3150   39.4480 O   0  0  0  0  0  0  0  0  0  0  0  0
   40.3760   21.9750   37.0950 O   0  0  0  0  0  0  0  0  0  0  0  0
   39.5060   22.9900   37.2350 C   0  0  0  0  0  0  0  0  0  0  0  0
   38.9740   23.2260   38.5170 C   0  0  0  0  0  0  0  0  0  0  0  0
   38.0760   24.2730   38.6640 C   0  0  0  0  0  0  0  0  0  0  0  0
   37.7430   25.0230   37.5950 N   0  0  0  0  0  0  0  0  0  0  0  0
   38.2910   24.7550   36.3590 C   0  0  0  0  0  0  0  0  0  0  0  0
   39.1530   23.7620   36.1790 N   0  0  0  0  0  0  0  0  0  0  0  0
   37.8980   25.5870   35.2720 N   0  0  0  0  0  0  0  0  0  0  0  0
   37.8430   27.0170   35.4290 C   0  0  0  0  0  0  0  0  0  0  0  0
   38.6860   27.5650   36.2610 N   0  0  0  0  0  0  0  0  0  0  0  0
   36.8480   27.7020   34.6420 N   0  0  0  0  0  0  0  0  0  0  0  0
   38.6590   28.6210   36.3900 H   0  0  0  0  0  0  0  0  0  0  0  0
   41.9729   20.1623   35.8898 H   0  0  0  0  0  0  0  0  0  0  0  0
   43.7503   25.4535   36.3136 H   0  0  0  0  0  0  0  0  0  0  0  0
   46.1533   23.4891   35.8093 H   0  0  0  0  0  0  0  0  0  0  0  0
   46.5960   24.9926   35.6524 H   0  0  0  0  0  0  0  0  0  0  0  0
   45.7673   23.8021   38.5649 H   0  0  0  0  0  0  0  0  0  0  0  0
   45.8131   27.1533   39.8483 H   0  0  0  0  0  0  0  0  0  0  0  0
   39.2613   22.6001   39.3747 H   0  0  0  0  0  0  0  0  0  0  0  0
   37.6375   24.4902   39.6492 H   0  0  0  0  0  0  0  0  0  0  0  0
   37.6512   25.1624   34.3666 H   0  0  0  0  0  0  0  0  0  0  0  0
   36.7552   28.7258   34.7069 H   0  0  0  0  0  0  0  0  0  0  0  0
   36.2299   27.1676   34.0149 H   0  0  0  0  0  0  0  0  0  0  0  0
  1  5  1  0
  1 12  1  0
  2  1  2  0
  3  2  1  0
  3  4  1  0
  4  6  1  0
  4  5  2  0
  6  8  1  0
  7  6  1  0
  7  8  1  0
  8  9  1  0
  9 11  1  0
 10  9  2  0
 12 13  1  0
 13 14  2  0
 14 15  1  0
 16 15  2  0
 17 16  1  0
 18 17  2  0
 18 13  1  0
 19 20  1  0
 19 17  1  0
 20 21  2  0
 21 23  1  0
 22 20  1  0
  2 24  1  0
  6 25  1  1
  7 26  1  0
  7 27  1  0
  8 28  1  1
 11 29  1  0
 14 30  1  0
 15 31  1  0
 19 32  1  0
 22 33  1  0
 22 34  1  0
M  ISO  8  24  14  25  13  26  13  27  13  28  13  29   3  30  14  31  14
M  END
>  <minimizedAffinity>  (1) 
-5.95111465

>  <minimizedRMSD>  (1) 
0.642446756

$$$$
