
     RDKit          3D

 37 40  0  0  1  0  0  0  0  0999 V2000
   41.7780   22.2010   36.7250 C   0  0  0  0  0  0  0  0  0  0  0  0
   42.4140   21.1590   36.0970 C   0  0  0  0  0  0  0  0  0  0  0  0
   44.0270   21.8810   35.7500 S   0  0  0  0  0  0  0  0  0  0  0  0
   43.5610   23.5580   36.5480 C   0  0  0  0  0  0  0  0  0  0  0  0
   42.5070   23.2750   36.8440 N   0  0  0  0  0  0  0  0  0  0  0  0
   44.5430   24.6800   36.6040 C   0  0  2  0  0  0  0  0  0  0  0  0
   45.9450   24.4340   36.2800 C   0  0  0  0  0  0  0  0  0  0  0  0
   45.6790   24.4730   37.6990 C   0  0  1  0  0  0  0  0  0  0  0  0
   46.1700   25.7630   38.3280 C   0  0  0  0  0  0  0  0  0  0  0  0
   47.2120   26.3800   37.8360 O   0  0  0  0  0  0  0  0  0  0  0  0
   45.5190   26.3240   39.4350 O   0  0  0  0  0  0  0  0  0  0  0  0
   40.4600   21.9380   37.1320 O   0  0  0  0  0  0  0  0  0  0  0  0
   39.5640   22.9380   37.2160 C   0  0  0  0  0  0  0  0  0  0  0  0
   38.9980   23.2020   38.4800 C   0  0  0  0  0  0  0  0  0  0  0  0
   38.0720   24.2320   38.5730 C   0  0  0  0  0  0  0  0  0  0  0  0
   37.7480   24.9370   37.4710 N   0  0  0  0  0  0  0  0  0  0  0  0
   38.3290   24.6420   36.2560 C   0  0  0  0  0  0  0  0  0  0  0  0
   39.2180   23.6650   36.1280 N   0  0  0  0  0  0  0  0  0  0  0  0
   37.9060   25.4680   35.1330 C   0  0  0  0  0  0  0  0  0  0  0  0
   37.8730   24.9530   33.8530 C   0  0  0  0  0  0  0  0  0  0  0  0
   37.4710   25.7280   32.7640 C   0  0  0  0  0  0  0  0  0  0  0  0
   37.1130   27.0420   33.0750 C   0  0  0  0  0  0  0  0  0  0  0  0
   37.1230   27.6150   34.3310 C   0  0  0  0  0  0  0  0  0  0  0  0
   37.5340   26.7790   35.3510 C   0  0  0  0  0  0  0  0  0  0  0  0
   42.0383   20.1511   35.8669 H   0  0  0  0  0  0  0  0  0  0  0  0
   43.8092   25.4387   36.2944 H   0  0  0  0  0  0  0  0  0  0  0  0
   46.2231   23.4754   35.8178 H   0  0  0  0  0  0  0  0  0  0  0  0
   46.6628   24.9782   35.6487 H   0  0  0  0  0  0  0  0  0  0  0  0
   45.8215   23.8135   38.5677 H   0  0  0  0  0  0  0  0  0  0  0  0
   45.8544   27.1667   39.8318 H   0  0  0  0  0  0  0  0  0  0  0  0
   39.2809   22.6111   39.3636 H   0  0  0  0  0  0  0  0  0  0  0  0
   37.6056   24.4713   39.5401 H   0  0  0  0  0  0  0  0  0  0  0  0
   38.1705   23.9071   33.6871 H   0  0  0  0  0  0  0  0  0  0  0  0
   37.4385   25.3336   31.7376 H   0  0  0  0  0  0  0  0  0  0  0  0
   36.7925   27.6813   32.2392 H   0  0  0  0  0  0  0  0  0  0  0  0
   36.8258   28.6595   34.5064 H   0  0  0  0  0  0  0  0  0  0  0  0
   37.5660   27.1737   36.3772 H   0  0  0  0  0  0  0  0  0  0  0  0
  1  5  1  0
  1 12  1  0
  2  1  2  0
  3  2  1  0
  3  4  1  0
  4  6  1  0
  4  5  2  0
  6  8  1  0
  7  6  1  0
  7  8  1  0
  8  9  1  0
  9 11  1  0
 10  9  2  0
 12 13  1  0
 13 14  2  0
 14 15  1  0
 16 15  2  0
 17 16  1  0
 18 17  2  0
 18 13  1  0
 19 24  1  0
 19 17  1  0
 20 19  2  0
 21 22  2  0
 21 20  1  0
 22 23  1  0
 23 24  2  0
  2 25  1  0
  6 26  1  1
  7 27  1  0
  7 28  1  0
  8 29  1  1
 11 30  1  0
 14 31  1  0
 15 32  1  0
 20 33  1  0
 21 34  1  0
 22 35  1  0
 23 36  1  0
 24 37  1  0
M  ISO  8  25  14  26  13  27  13  28  13  29  13  30   3  31  14  32  14
M  ISO  5  33  14  34  14  35  14  36  14  37  14
M  END
>  <minimizedAffinity>  (1) 
-5.79799032

>  <minimizedRMSD>  (1) 
0.699831843

$$$$
