
     RDKit          3D

 43 46  0  0  1  0  0  0  0  0999 V2000
   41.8100   22.1880   36.7670 C   0  0  0  0  0  0  0  0  0  0  0  0
   42.4200   21.1150   36.1650 C   0  0  0  0  0  0  0  0  0  0  0  0
   44.0540   21.7890   35.8070 S   0  0  0  0  0  0  0  0  0  0  0  0
   43.6240   23.4930   36.5640 C   0  0  0  0  0  0  0  0  0  0  0  0
   42.5640   23.2540   36.8670 N   0  0  0  0  0  0  0  0  0  0  0  0
   44.6390   24.5890   36.5980 C   0  0  2  0  0  0  0  0  0  0  0  0
   46.0480   24.2870   36.3880 C   0  0  0  0  0  0  0  0  0  0  0  0
   45.6890   24.4480   37.7810 C   0  0  1  0  0  0  0  0  0  0  0  0
   46.1820   25.7700   38.3350 C   0  0  0  0  0  0  0  0  0  0  0  0
   47.2200   26.3570   37.8080 O   0  0  0  0  0  0  0  0  0  0  0  0
   45.5340   26.3900   39.4120 O   0  0  0  0  0  0  0  0  0  0  0  0
   40.4850   21.9650   37.1750 O   0  0  0  0  0  0  0  0  0  0  0  0
   39.6120   22.9930   37.2390 C   0  0  0  0  0  0  0  0  0  0  0  0
   38.8760   23.1600   38.4170 C   0  0  0  0  0  0  0  0  0  0  0  0
   37.9780   24.2170   38.4840 C   0  0  0  0  0  0  0  0  0  0  0  0
   37.8400   25.0550   37.4140 N   0  0  0  0  0  0  0  0  0  0  0  0
   38.5920   24.8380   36.2850 C   0  0  0  0  0  0  0  0  0  0  0  0
   39.4560   23.8490   36.1740 N   0  0  0  0  0  0  0  0  0  0  0  0
   38.3530   25.8280   35.1720 C   0  0  0  0  0  0  0  0  0  0  0  0
   37.9190   25.0070   33.9610 C   0  0  0  0  0  0  0  0  0  0  0  0
   37.9430   25.8030   32.6880 C   0  0  0  0  0  0  0  0  0  0  0  0
   39.4190   26.1580   32.4620 C   0  0  0  0  0  0  0  0  0  0  0  0
   39.7260   27.1840   33.5420 C   0  0  0  0  0  0  0  0  0  0  0  0
   39.5730   26.6500   34.9240 C   0  0  0  0  0  0  0  0  0  0  0  0
   42.0190   20.1121   35.9567 H   0  0  0  0  0  0  0  0  0  0  0  0
   43.9497   25.3365   36.1784 H   0  0  0  0  0  0  0  0  0  0  0  0
   46.3290   23.2880   36.0234 H   0  0  0  0  0  0  0  0  0  0  0  0
   46.8203   24.7613   35.7645 H   0  0  0  0  0  0  0  0  0  0  0  0
   45.7498   23.8604   38.7089 H   0  0  0  0  0  0  0  0  0  0  0  0
   45.8697   27.2534   39.7611 H   0  0  0  0  0  0  0  0  0  0  0  0
   39.0051   22.4731   39.2664 H   0  0  0  0  0  0  0  0  0  0  0  0
   37.3810   24.3787   39.3937 H   0  0  0  0  0  0  0  0  0  0  0  0
   37.5688   26.5571   35.4237 H   0  0  0  0  0  0  0  0  0  0  0  0
   38.5997   24.1496   33.8538 H   0  0  0  0  0  0  0  0  0  0  0  0
   36.8823   24.6815   34.1321 H   0  0  0  0  0  0  0  0  0  0  0  0
   37.5582   25.2026   31.8505 H   0  0  0  0  0  0  0  0  0  0  0  0
   37.3100   26.7003   32.7526 H   0  0  0  0  0  0  0  0  0  0  0  0
   40.0561   25.2686   32.5765 H   0  0  0  0  0  0  0  0  0  0  0  0
   39.6093   26.5428   31.4492 H   0  0  0  0  0  0  0  0  0  0  0  0
   40.7633   27.5265   33.4131 H   0  0  0  0  0  0  0  0  0  0  0  0
   39.0011   28.0034   33.4278 H   0  0  0  0  0  0  0  0  0  0  0  0
   40.4512   26.0249   35.1432 H   0  0  0  0  0  0  0  0  0  0  0  0
   39.4765   27.5312   35.5753 H   0  0  0  0  0  0  0  0  0  0  0  0
  1  5  1  0
  1 12  1  0
  2  1  2  0
  3  2  1  0
  3  4  1  0
  4  6  1  0
  4  5  2  0
  6  8  1  0
  7  6  1  0
  7  8  1  0
  8  9  1  0
  9 11  1  0
 10  9  2  0
 12 13  1  0
 13 14  2  0
 14 15  1  0
 16 15  2  0
 17 16  1  0
 18 17  2  0
 18 13  1  0
 19 17  1  0
 20 19  1  0
 21 20  1  0
 22 21  1  0
 22 23  1  0
 23 24  1  0
 24 19  1  0
  2 25  1  0
  6 26  1  6
  7 27  1  0
  7 28  1  0
  8 29  1  1
 11 30  1  0
 14 31  1  0
 15 32  1  0
 19 33  1  0
 20 34  1  0
 20 35  1  0
 21 36  1  0
 21 37  1  0
 22 38  1  0
 22 39  1  0
 23 40  1  0
 23 41  1  0
 24 42  1  0
 24 43  1  0
M  ISO  8  25  14  26  13  27  13  28  13  29  13  30   3  31  14  32  14
M  ISO  8  33  13  34  13  35  13  36  13  37  13  38  13  39  13  40  13
M  ISO  3  41  13  42  13  43  13
M  END
>  <minimizedAffinity>  (1) 
-5.60474014

>  <minimizedRMSD>  (1) 
1.43329096

$$$$
