
     RDKit          3D

 34 37  0  0  1  0  0  0  0  0999 V2000
   41.7860   22.1860   36.7480 C   0  0  0  0  0  0  0  0  0  0  0  0
   42.4180   21.1520   36.1030 C   0  0  0  0  0  0  0  0  0  0  0  0
   44.0240   21.8900   35.7360 S   0  0  0  0  0  0  0  0  0  0  0  0
   43.5530   23.5560   36.5520 C   0  0  0  0  0  0  0  0  0  0  0  0
   42.5080   23.2730   36.8660 N   0  0  0  0  0  0  0  0  0  0  0  0
   44.5360   24.6810   36.6040 C   0  0  2  0  0  0  0  0  0  0  0  0
   45.9320   24.4510   36.2600 C   0  0  0  0  0  0  0  0  0  0  0  0
   45.6810   24.4770   37.6830 C   0  0  1  0  0  0  0  0  0  0  0  0
   46.1730   25.7620   38.3210 C   0  0  0  0  0  0  0  0  0  0  0  0
   47.2170   26.3800   37.8330 O   0  0  0  0  0  0  0  0  0  0  0  0
   45.5260   26.3150   39.4350 O   0  0  0  0  0  0  0  0  0  0  0  0
   40.4770   21.9120   37.1740 O   0  0  0  0  0  0  0  0  0  0  0  0
   39.5620   22.9000   37.2390 C   0  0  0  0  0  0  0  0  0  0  0  0
   39.0140   23.2070   38.4960 C   0  0  0  0  0  0  0  0  0  0  0  0
   38.0720   24.2240   38.5630 C   0  0  0  0  0  0  0  0  0  0  0  0
   37.7160   24.8780   37.4360 N   0  0  0  0  0  0  0  0  0  0  0  0
   38.2820   24.5410   36.2270 C   0  0  0  0  0  0  0  0  0  0  0  0
   39.1830   23.5800   36.1200 N   0  0  0  0  0  0  0  0  0  0  0  0
   37.8850   25.2650   34.9990 C   0  0  0  0  0  0  0  0  0  0  0  0
   37.3060   26.5080   34.9840 C   0  0  0  0  0  0  0  0  0  0  0  0
   37.0920   26.8300   33.6980 N   0  0  0  0  0  0  0  0  0  0  0  0
   37.5290   25.8090   32.9150 C   0  0  0  0  0  0  0  0  0  0  0  0
   38.0200   24.8350   33.7160 N   0  0  0  0  0  0  0  0  0  0  0  0
   42.0453   20.1432   35.8716 H   0  0  0  0  0  0  0  0  0  0  0  0
   43.7930   25.4358   36.3069 H   0  0  0  0  0  0  0  0  0  0  0  0
   46.2131   23.4985   35.7870 H   0  0  0  0  0  0  0  0  0  0  0  0
   46.6373   25.0059   35.6239 H   0  0  0  0  0  0  0  0  0  0  0  0
   45.8361   23.8127   38.5459 H   0  0  0  0  0  0  0  0  0  0  0  0
   45.8630   27.1547   39.8368 H   0  0  0  0  0  0  0  0  0  0  0  0
   39.3219   22.6585   39.3984 H   0  0  0  0  0  0  0  0  0  0  0  0
   37.6183   24.4957   39.5275 H   0  0  0  0  0  0  0  0  0  0  0  0
   37.0625   27.1256   35.8611 H   0  0  0  0  0  0  0  0  0  0  0  0
   37.4902   25.7792   31.8161 H   0  0  0  0  0  0  0  0  0  0  0  0
   38.4208   23.9365   33.4111 H   0  0  0  0  0  0  0  0  0  0  0  0
  1  5  1  0
  1 12  1  0
  2  1  2  0
  3  2  1  0
  3  4  1  0
  4  6  1  0
  4  5  2  0
  6  8  1  0
  7  6  1  0
  7  8  1  0
  8  9  1  0
  9 11  1  0
 10  9  2  0
 12 13  1  0
 13 14  2  0
 14 15  1  0
 16 15  2  0
 17 16  1  0
 18 17  2  0
 18 13  1  0
 19 17  1  0
 20 19  2  0
 21 20  1  0
 22 21  2  0
 22 23  1  0
 23 19  1  0
  2 24  1  0
  6 25  1  1
  7 26  1  0
  7 27  1  0
  8 28  1  1
 11 29  1  0
 14 30  1  0
 15 31  1  0
 20 32  1  0
 22 33  1  0
 23 34  1  0
M  ISO  8  24  14  25  13  26  13  27  13  28  13  29   3  30  14  31  14
M  ISO  3  32  14  33  14  34   9
M  END
>  <minimizedAffinity>  (1) 
-5.35228062

>  <minimizedRMSD>  (1) 
0.542450428

$$$$
