
     RDKit          3D

 45 49  0  0  1  0  0  0  0  0999 V2000
   39.5360   22.9200   37.2510 C   0  0  0  0  0  0  0  0  0  0  0  0
   38.9910   23.2760   38.4940 C   0  0  0  0  0  0  0  0  0  0  0  0
   38.0620   24.2990   38.5200 C   0  0  0  0  0  0  0  0  0  0  0  0
   37.7120   24.9140   37.3850 N   0  0  0  0  0  0  0  0  0  0  0  0
   38.2730   24.5350   36.1740 C   0  0  0  0  0  0  0  0  0  0  0  0
   39.1630   23.5580   36.1250 N   0  0  0  0  0  0  0  0  0  0  0  0
   37.8580   25.2280   35.0220 N   0  0  0  0  0  0  0  0  0  0  0  0
   37.3990   26.4780   35.2750 C   0  0  0  0  0  0  0  0  0  0  0  0
   37.0130   27.0350   34.0410 C   0  0  0  0  0  0  0  0  0  0  0  0
   37.2530   26.1080   33.1080 N   0  0  0  0  0  0  0  0  0  0  0  0
   37.7650   25.0150   33.6950 C   0  0  0  0  0  0  0  0  0  0  0  0
   38.2200   23.7280   33.2910 N   0  0  0  0  0  0  0  0  0  0  0  0
   39.4090   23.3650   33.8010 C   0  0  0  0  0  0  0  0  0  0  0  0
   39.9030   22.1350   33.4500 C   0  0  0  0  0  0  0  0  0  0  0  0
   39.1200   21.3890   32.6010 C   0  0  0  0  0  0  0  0  0  0  0  0
   39.5220   20.1110   32.1720 N   0  0  0  0  0  0  0  0  0  0  0  0
   37.9430   21.8170   32.1330 N   0  0  0  0  0  0  0  0  0  0  0  0
   37.4310   23.0250   32.4610 C   0  0  0  0  0  0  0  0  0  0  0  0
   36.3430   23.5120   32.0750 O   0  0  0  0  0  0  0  0  0  0  0  0
   40.4410   21.9220   37.2300 O   0  0  0  0  0  0  0  0  0  0  0  0
   41.7550   22.1710   36.8030 C   0  0  0  0  0  0  0  0  0  0  0  0
   42.3780   21.1150   36.1890 C   0  0  0  0  0  0  0  0  0  0  0  0
   43.9820   21.8220   35.8100 S   0  0  0  0  0  0  0  0  0  0  0  0
   43.5470   23.5090   36.5720 C   0  0  0  0  0  0  0  0  0  0  0  0
   42.4890   23.2500   36.8950 N   0  0  0  0  0  0  0  0  0  0  0  0
   44.5460   24.6380   36.5840 C   0  0  2  0  0  0  0  0  0  0  0  0
   45.9400   24.3320   36.3560 C   0  0  0  0  0  0  0  0  0  0  0  0
   45.6660   24.4220   37.7380 C   0  0  1  0  0  0  0  0  0  0  0  0
   46.1630   25.7530   38.3210 C   0  0  0  0  0  0  0  0  0  0  0  0
   47.2110   26.3650   37.7790 O   0  0  0  0  0  0  0  0  0  0  0  0
   45.4980   26.3220   39.4280 O   0  0  0  0  0  0  0  0  0  0  0  0
   39.2929   22.7584   39.4165 H   0  0  0  0  0  0  0  0  0  0  0  0
   37.6104   24.6075   39.4744 H   0  0  0  0  0  0  0  0  0  0  0  0
   37.3393   26.9655   36.2593 H   0  0  0  0  0  0  0  0  0  0  0  0
   36.5947   28.0390   33.8763 H   0  0  0  0  0  0  0  0  0  0  0  0
   39.9663   24.0310   34.4762 H   0  0  0  0  0  0  0  0  0  0  0  0
   40.8691   21.7667   33.8256 H   0  0  0  0  0  0  0  0  0  0  0  0
   38.9205   19.5685   31.5357 H   0  0  0  0  0  0  0  0  0  0  0  0
   40.4178   19.7178   32.4942 H   0  0  0  0  0  0  0  0  0  0  0  0
   41.9959   20.1041   35.9837 H   0  0  0  0  0  0  0  0  0  0  0  0
   43.8527   25.4023   36.2028 H   0  0  0  0  0  0  0  0  0  0  0  0
   46.1975   23.3480   35.9371 H   0  0  0  0  0  0  0  0  0  0  0  0
   46.6961   24.8383   35.7379 H   0  0  0  0  0  0  0  0  0  0  0  0
   45.7832   23.7863   38.6280 H   0  0  0  0  0  0  0  0  0  0  0  0
   45.8140   27.1798   39.8079 H   0  0  0  0  0  0  0  0  0  0  0  0
  1  2  2  0
  2  3  1  0
  4  3  2  0
  5  4  1  0
  6  5  2  0
  6  1  1  0
  7  8  1  0
  7  5  1  0
  9  8  2  0
 10 11  2  0
 10  9  1  0
 11  7  1  0
 12 11  1  0
 12 13  1  0
 14 13  2  0
 15 14  1  0
 16 15  1  0
 17 18  1  0
 17 15  2  0
 18 12  1  0
 19 18  2  0
 20  1  1  0
 21 25  1  0
 21 20  1  0
 22 21  2  0
 23 22  1  0
 23 24  1  0
 24 26  1  0
 24 25  2  0
 26 28  1  0
 27 26  1  0
 27 28  1  0
 28 29  1  0
 29 31  1  0
 30 29  2  0
  2 32  1  0
  3 33  1  0
  8 34  1  0
  9 35  1  0
 13 36  1  0
 14 37  1  0
 16 38  1  0
 16 39  1  0
 22 40  1  0
 26 41  1  6
 27 42  1  0
 27 43  1  0
 28 44  1  1
 31 45  1  0
M  ISO  8  32  14  33  14  34  14  35  14  36  14  37  14  40  14  41  13
M  ISO  4  42  13  43  13  44  13  45   3
M  END
>  <minimizedAffinity>  (1) 
-6.72895908

>  <minimizedRMSD>  (1) 
0.204702511

$$$$
