
     RDKit          3D

 49 53  0  0  1  0  0  0  0  0999 V2000
   39.5200   22.9420   37.1950 C   0  0  0  0  0  0  0  0  0  0  0  0
   38.9820   23.2620   38.4540 C   0  0  0  0  0  0  0  0  0  0  0  0
   38.0620   24.2910   38.5250 C   0  0  0  0  0  0  0  0  0  0  0  0
   37.7100   24.9510   37.4050 N   0  0  0  0  0  0  0  0  0  0  0  0
   38.2650   24.6040   36.1770 C   0  0  0  0  0  0  0  0  0  0  0  0
   39.1510   23.6180   36.0880 N   0  0  0  0  0  0  0  0  0  0  0  0
   37.8510   25.3420   35.0510 N   0  0  0  0  0  0  0  0  0  0  0  0
   37.4010   26.5830   35.3530 C   0  0  0  0  0  0  0  0  0  0  0  0
   37.0130   27.1910   34.1450 C   0  0  0  0  0  0  0  0  0  0  0  0
   37.2430   26.2990   33.1700 N   0  0  0  0  0  0  0  0  0  0  0  0
   37.7550   25.1700   33.7270 C   0  0  0  0  0  0  0  0  0  0  0  0
   38.1950   23.8940   33.2100 N   0  0  0  0  0  0  0  0  0  0  0  0
   39.2140   22.9960   33.6500 C   0  0  0  0  0  0  0  0  0  0  0  0
   38.8420   21.6030   33.1870 C   0  0  0  0  0  0  0  0  0  0  0  0
   37.3710   21.3170   33.3300 C   0  0  0  0  0  0  0  0  0  0  0  0
   36.6000   22.2240   32.4150 C   0  0  0  0  0  0  0  0  0  0  0  0
   37.4930   23.3940   32.0180 C   0  0  0  0  0  0  0  0  0  0  0  0
   40.4150   21.9380   37.1340 O   0  0  0  0  0  0  0  0  0  0  0  0
   41.7340   22.1950   36.7350 C   0  0  0  0  0  0  0  0  0  0  0  0
   42.3720   21.1450   36.1310 C   0  0  0  0  0  0  0  0  0  0  0  0
   43.9880   21.8600   35.7850 S   0  0  0  0  0  0  0  0  0  0  0  0
   43.5250   23.5400   36.5440 C   0  0  0  0  0  0  0  0  0  0  0  0
   42.4630   23.2760   36.8440 N   0  0  0  0  0  0  0  0  0  0  0  0
   44.5130   24.6800   36.5810 C   0  0  2  0  0  0  0  0  0  0  0  0
   45.9070   24.3890   36.3160 C   0  0  0  0  0  0  0  0  0  0  0  0
   45.6580   24.4320   37.7020 C   0  0  1  0  0  0  0  0  0  0  0  0
   46.1520   25.7420   38.3280 C   0  0  0  0  0  0  0  0  0  0  0  0
   47.2020   26.3710   37.8100 O   0  0  0  0  0  0  0  0  0  0  0  0
   45.4850   26.2790   39.4490 O   0  0  0  0  0  0  0  0  0  0  0  0
   39.2844   22.7097   39.3559 H   0  0  0  0  0  0  0  0  0  0  0  0
   37.6190   24.5698   39.4925 H   0  0  0  0  0  0  0  0  0  0  0  0
   37.3486   27.0320   36.3558 H   0  0  0  0  0  0  0  0  0  0  0  0
   36.6003   28.2034   34.0235 H   0  0  0  0  0  0  0  0  0  0  0  0
   40.1816   23.2877   33.2157 H   0  0  0  0  0  0  0  0  0  0  0  0
   39.3006   23.0239   34.7462 H   0  0  0  0  0  0  0  0  0  0  0  0
   39.4028   20.8712   33.7870 H   0  0  0  0  0  0  0  0  0  0  0  0
   39.0924   21.5300   32.1184 H   0  0  0  0  0  0  0  0  0  0  0  0
   37.1723   20.2688   33.0620 H   0  0  0  0  0  0  0  0  0  0  0  0
   37.0603   21.4913   34.3707 H   0  0  0  0  0  0  0  0  0  0  0  0
   36.2951   21.6695   31.5153 H   0  0  0  0  0  0  0  0  0  0  0  0
   35.7010   22.5966   32.9278 H   0  0  0  0  0  0  0  0  0  0  0  0
   38.2283   23.0587   31.2718 H   0  0  0  0  0  0  0  0  0  0  0  0
   36.8783   24.1981   31.5872 H   0  0  0  0  0  0  0  0  0  0  0  0
   41.9972   20.1337   35.9147 H   0  0  0  0  0  0  0  0  0  0  0  0
   43.8066   25.4529   36.2439 H   0  0  0  0  0  0  0  0  0  0  0  0
   46.1617   23.4208   35.8602 H   0  0  0  0  0  0  0  0  0  0  0  0
   46.6489   24.9193   35.7010 H   0  0  0  0  0  0  0  0  0  0  0  0
   45.7994   23.7660   38.5660 H   0  0  0  0  0  0  0  0  0  0  0  0
   45.8016   27.1245   39.8553 H   0  0  0  0  0  0  0  0  0  0  0  0
  1  2  2  0
  2  3  1  0
  4  3  2  0
  5  4  1  0
  6  5  2  0
  6  1  1  0
  7  8  1  0
  7  5  1  0
  9  8  2  0
 10 11  2  0
 10  9  1  0
 11  7  1  0
 12 13  1  0
 12 11  1  0
 14 15  1  0
 14 13  1  0
 16 15  1  0
 17 16  1  0
 17 12  1  0
 18  1  1  0
 19 23  1  0
 19 18  1  0
 20 19  2  0
 21 20  1  0
 21 22  1  0
 22 24  1  0
 22 23  2  0
 24 26  1  0
 25 24  1  0
 25 26  1  0
 26 27  1  0
 27 29  1  0
 28 27  2  0
  2 30  1  0
  3 31  1  0
  8 32  1  0
  9 33  1  0
 13 34  1  0
 13 35  1  0
 14 36  1  0
 14 37  1  0
 15 38  1  0
 15 39  1  0
 16 40  1  0
 16 41  1  0
 17 42  1  0
 17 43  1  0
 20 44  1  0
 24 45  1  1
 25 46  1  0
 25 47  1  0
 26 48  1  1
 29 49  1  0
M  ISO  8  30  14  31  14  32  14  33  14  34  13  35  13  36  13  37  13
M  ISO  8  38  13  39  13  40  13  41  13  42  13  43  13  44  14  45  13
M  ISO  4  46  13  47  13  48  13  49   3
M  END
>  <minimizedAffinity>  (1) 
-6.58390045

>  <minimizedRMSD>  (1) 
0.279772907

$$$$
