
     RDKit          3D

 43 47  0  0  1  0  0  0  0  0999 V2000
   39.5280   22.9310   37.2170 C   0  0  0  0  0  0  0  0  0  0  0  0
   38.9540   23.2520   38.4620 C   0  0  0  0  0  0  0  0  0  0  0  0
   38.0150   24.2680   38.5000 C   0  0  0  0  0  0  0  0  0  0  0  0
   37.6850   24.9060   37.3670 N   0  0  0  0  0  0  0  0  0  0  0  0
   38.2760   24.5600   36.1560 C   0  0  2  0  0  0  0  0  0  0  0  0
   39.1710   23.5980   36.0930 N   0  0  0  0  0  0  0  0  0  0  0  0
   37.8730   25.2940   35.0290 N   0  0  0  0  0  0  0  0  0  0  0  0
   37.4050   26.5310   35.2980 C   0  0  0  0  0  0  0  0  0  0  0  0
   37.0360   27.1250   34.0760 C   0  0  0  0  0  0  0  0  0  0  0  0
   37.2990   26.2130   33.1220 N   0  0  0  0  0  0  0  0  0  0  0  0
   37.8010   25.1140   33.6890 C   0  0  0  0  0  0  0  0  0  0  0  0
   38.2340   23.8830   33.1260 N   0  0  0  0  0  0  0  0  0  0  0  0
   38.3970   22.8160   34.0690 C   0  0  0  0  0  0  0  0  0  0  0  0
   38.2040   22.9190   35.2360 N   0  0  0  0  0  0  0  0  0  0  0  0
   38.8200   21.5450   33.5500 N   0  0  0  0  0  0  0  0  0  0  0  0
   40.4390   21.9440   37.1900 O   0  0  0  0  0  0  0  0  0  0  0  0
   41.7520   22.2060   36.7610 C   0  0  0  0  0  0  0  0  0  0  0  0
   42.3740   21.1680   36.1280 C   0  0  0  0  0  0  0  0  0  0  0  0
   43.9750   21.8890   35.7550 S   0  0  0  0  0  0  0  0  0  0  0  0
   43.5360   23.5630   36.5500 C   0  0  0  0  0  0  0  0  0  0  0  0
   42.4840   23.2790   36.8650 N   0  0  0  0  0  0  0  0  0  0  0  0
   44.5320   24.6890   36.5800 C   0  0  2  0  0  0  0  0  0  0  0  0
   45.9230   24.3950   36.3200 C   0  0  0  0  0  0  0  0  0  0  0  0
   45.6710   24.4460   37.7070 C   0  0  1  0  0  0  0  0  0  0  0  0
   46.1710   25.7590   38.3240 C   0  0  0  0  0  0  0  0  0  0  0  0
   47.2270   26.3760   37.8020 O   0  0  0  0  0  0  0  0  0  0  0  0
   45.5070   26.3080   39.4380 O   0  0  0  0  0  0  0  0  0  0  0  0
   38.4673   22.3419   38.8426 H   0  0  0  0  0  0  0  0  0  0  0  0
   39.7938   23.6302   39.0634 H   0  0  0  0  0  0  0  0  0  0  0  0
   37.5426   24.5504   39.4524 H   0  0  0  0  0  0  0  0  0  0  0  0
   37.3260   26.9924   36.2934 H   0  0  0  0  0  0  0  0  0  0  0  0
   36.6171   28.1317   33.9304 H   0  0  0  0  0  0  0  0  0  0  0  0
   38.4164   23.7667   32.1190 H   0  0  0  0  0  0  0  0  0  0  0  0
   37.3461   22.5260   33.9226 H   0  0  0  0  0  0  0  0  0  0  0  0
   37.2584   22.5450   35.3997 H   0  0  0  0  0  0  0  0  0  0  0  0
   39.0319   20.9084   34.3315 H   0  0  0  0  0  0  0  0  0  0  0  0
   38.0677   21.1421   32.9732 H   0  0  0  0  0  0  0  0  0  0  0  0
   41.9951   20.1595   35.9060 H   0  0  0  0  0  0  0  0  0  0  0  0
   43.8296   25.4611   36.2329 H   0  0  0  0  0  0  0  0  0  0  0  0
   46.1770   23.4239   35.8700 H   0  0  0  0  0  0  0  0  0  0  0  0
   46.6670   24.9208   35.7036 H   0  0  0  0  0  0  0  0  0  0  0  0
   45.8061   23.7858   38.5764 H   0  0  0  0  0  0  0  0  0  0  0  0
   45.8279   27.1550   39.8376 H   0  0  0  0  0  0  0  0  0  0  0  0
  1  2  1  0
  2  3  1  0
  4  3  2  0
  5  6  1  0
  5  4  1  0
  6  1  2  0
  7  8  1  0
  7  5  1  0
  9  8  2  0
 10 11  2  0
 10  9  1  0
 11  7  1  0
 12 11  1  0
 12 13  1  0
 13 15  1  0
 13 14  1  0
  5 14  1  6
 16  1  1  0
 17 21  1  0
 17 16  1  0
 18 17  2  0
 19 18  1  0
 19 20  1  0
 20 22  1  0
 20 21  2  0
 22 24  1  0
 23 22  1  0
 23 24  1  0
 24 25  1  0
 25 27  1  0
 26 25  2  0
  2 28  1  0
  2 29  1  0
  3 30  1  0
  8 31  1  0
  9 32  1  0
 12 33  1  0
 13 34  1  0
 14 35  1  0
 15 36  1  0
 15 37  1  0
 18 38  1  0
 22 39  1  1
 23 40  1  0
 23 41  1  0
 24 42  1  1
 27 43  1  0
M  ISO  8  28  13  29  13  30  13  31  14  32  14  34  13  35   5  36   5
M  ISO  7  37   5  38  14  39  13  40  13  41  13  42  13  43   3
M  END
>  <minimizedAffinity>  (1) 
-6.30285883

>  <minimizedRMSD>  (1) 
0.188508824

$$$$
