
     RDKit          3D

 41 45  0  0  1  0  0  0  0  0999 V2000
   39.5610   22.9010   37.2250 C   0  0  0  0  0  0  0  0  0  0  0  0
   39.0120   23.2410   38.4720 C   0  0  0  0  0  0  0  0  0  0  0  0
   38.0760   24.2630   38.5120 C   0  0  0  0  0  0  0  0  0  0  0  0
   37.7250   24.8910   37.3720 N   0  0  0  0  0  0  0  0  0  0  0  0
   38.2860   24.5300   36.1730 C   0  0  0  0  0  0  0  0  0  0  0  0
   39.1870   23.5550   36.0900 N   0  0  0  0  0  0  0  0  0  0  0  0
   37.8830   25.2310   35.0230 N   0  0  0  0  0  0  0  0  0  0  0  0
   37.4230   26.4880   35.2800 C   0  0  0  0  0  0  0  0  0  0  0  0
   37.0240   27.0640   34.0620 C   0  0  0  0  0  0  0  0  0  0  0  0
   37.2540   26.1430   33.1230 N   0  0  0  0  0  0  0  0  0  0  0  0
   37.7680   25.0410   33.6860 C   0  0  0  0  0  0  0  0  0  0  0  0
   38.1990   23.7750   33.1950 N   0  0  0  0  0  0  0  0  0  0  0  0
   38.1640   22.7750   34.0900 N   0  0  0  0  0  0  0  0  0  0  0  0
   38.5880   21.6430   33.5160 C   0  0  0  0  0  0  0  0  0  0  0  0
   38.9060   21.9480   32.1870 C   0  0  0  0  0  0  0  0  0  0  0  0
   38.6480   23.3090   32.0140 C   0  0  0  0  0  0  0  0  0  0  0  0
   40.4710   21.9070   37.1860 O   0  0  0  0  0  0  0  0  0  0  0  0
   41.7810   22.1740   36.7690 C   0  0  0  0  0  0  0  0  0  0  0  0
   42.4150   21.1290   36.1490 C   0  0  0  0  0  0  0  0  0  0  0  0
   44.0190   21.8530   35.7800 S   0  0  0  0  0  0  0  0  0  0  0  0
   43.5640   23.5270   36.5530 C   0  0  0  0  0  0  0  0  0  0  0  0
   42.5050   23.2600   36.8710 N   0  0  0  0  0  0  0  0  0  0  0  0
   44.5480   24.6690   36.5830 C   0  0  2  0  0  0  0  0  0  0  0  0
   45.9410   24.3900   36.3210 C   0  0  0  0  0  0  0  0  0  0  0  0
   45.6890   24.4360   37.7100 C   0  0  1  0  0  0  0  0  0  0  0  0
   46.1760   25.7570   38.3260 C   0  0  0  0  0  0  0  0  0  0  0  0
   47.2250   26.3830   37.8020 O   0  0  0  0  0  0  0  0  0  0  0  0
   45.5030   26.3000   39.4380 O   0  0  0  0  0  0  0  0  0  0  0  0
   39.3150   22.7131   39.3882 H   0  0  0  0  0  0  0  0  0  0  0  0
   37.6221   24.5599   39.4690 H   0  0  0  0  0  0  0  0  0  0  0  0
   37.3728   26.9679   36.2685 H   0  0  0  0  0  0  0  0  0  0  0  0
   36.6064   28.0706   33.9123 H   0  0  0  0  0  0  0  0  0  0  0  0
   38.6711   20.6577   33.9979 H   0  0  0  0  0  0  0  0  0  0  0  0
   39.2857   21.2501   31.4263 H   0  0  0  0  0  0  0  0  0  0  0  0
   38.7852   23.8897   31.0899 H   0  0  0  0  0  0  0  0  0  0  0  0
   42.0419   20.1167   35.9343 H   0  0  0  0  0  0  0  0  0  0  0  0
   43.8376   25.4344   36.2374 H   0  0  0  0  0  0  0  0  0  0  0  0
   46.2046   23.4224   35.8690 H   0  0  0  0  0  0  0  0  0  0  0  0
   46.6791   24.9245   35.7049 H   0  0  0  0  0  0  0  0  0  0  0  0
   45.8309   23.7762   38.5786 H   0  0  0  0  0  0  0  0  0  0  0  0
   45.8137   27.1508   39.8376 H   0  0  0  0  0  0  0  0  0  0  0  0
  1  2  2  0
  2  3  1  0
  4  3  2  0
  5  4  1  0
  6  5  2  0
  6  1  1  0
  7  8  1  0
  7  5  1  0
  9  8  2  0
 10 11  2  0
 10  9  1  0
 11  7  1  0
 12 11  1  0
 12 13  1  0
 14 13  2  0
 15 14  1  0
 16 15  2  0
 16 12  1  0
 17  1  1  0
 18 22  1  0
 18 17  1  0
 19 18  2  0
 20 19  1  0
 20 21  1  0
 21 23  1  0
 21 22  2  0
 23 25  1  0
 24 23  1  0
 24 25  1  0
 25 26  1  0
 26 28  1  0
 27 26  2  0
  2 29  1  0
  3 30  1  0
  8 31  1  0
  9 32  1  0
 14 33  1  0
 15 34  1  0
 16 35  1  0
 19 36  1  0
 23 37  1  1
 24 38  1  0
 24 39  1  0
 25 40  1  1
 28 41  1  0
M  ISO  8  29  14  30  14  31  14  32  14  33  14  34  14  35  14  36  14
M  ISO  5  37  13  38  13  39  13  40  13  41   3
M  END
>  <minimizedAffinity>  (1) 
-6.29142952

>  <minimizedRMSD>  (1) 
0.174868286

$$$$
