
     RDKit          3D

 43 47  0  0  1  0  0  0  0  0999 V2000
   39.5910   22.8670   37.2450 C   0  0  0  0  0  0  0  0  0  0  0  0
   39.0080   23.2310   38.4670 C   0  0  0  0  0  0  0  0  0  0  0  0
   38.0490   24.2300   38.4590 C   0  0  0  0  0  0  0  0  0  0  0  0
   37.7110   24.8140   37.2940 N   0  0  0  0  0  0  0  0  0  0  0  0
   38.3100   24.4290   36.1040 C   0  0  0  0  0  0  0  0  0  0  0  0
   39.2190   23.4820   36.1050 N   0  0  0  0  0  0  0  0  0  0  0  0
   37.9080   25.0960   34.9400 N   0  0  0  0  0  0  0  0  0  0  0  0
   37.4210   26.3530   35.1500 C   0  0  0  0  0  0  0  0  0  0  0  0
   37.0420   26.8840   33.9110 C   0  0  0  0  0  0  0  0  0  0  0  0
   37.3090   25.9440   33.0070 N   0  0  0  0  0  0  0  0  0  0  0  0
   37.8280   24.8710   33.6180 C   0  0  0  0  0  0  0  0  0  0  0  0
   38.2720   23.6030   33.0650 C   0  0  0  0  0  0  0  0  0  0  0  0
   37.3120   22.6260   32.9570 C   0  0  0  0  0  0  0  0  0  0  0  0
   37.5310   21.3600   32.4610 C   0  0  0  0  0  0  0  0  0  0  0  0
   38.7910   21.0060   32.0280 C   0  0  0  0  0  0  0  0  0  0  0  0
   39.7390   22.0000   32.1450 C   0  0  0  0  0  0  0  0  0  0  0  0
   39.4740   23.2050   32.6310 N   0  0  0  0  0  0  0  0  0  0  0  0
   40.5210   21.8960   37.2570 O   0  0  0  0  0  0  0  0  0  0  0  0
   41.8240   22.1620   36.8090 C   0  0  0  0  0  0  0  0  0  0  0  0
   42.4400   21.1240   36.1650 C   0  0  0  0  0  0  0  0  0  0  0  0
   44.0350   21.8500   35.7670 S   0  0  0  0  0  0  0  0  0  0  0  0
   43.6050   23.5170   36.5660 C   0  0  0  0  0  0  0  0  0  0  0  0
   42.5540   23.2420   36.9040 N   0  0  0  0  0  0  0  0  0  0  0  0
   44.5930   24.6520   36.5830 C   0  0  2  0  0  0  0  0  0  0  0  0
   45.9900   24.3530   36.3550 C   0  0  0  0  0  0  0  0  0  0  0  0
   45.7140   24.4420   37.7380 C   0  0  1  0  0  0  0  0  0  0  0  0
   46.2030   25.7760   38.3220 C   0  0  0  0  0  0  0  0  0  0  0  0
   47.2510   26.3930   37.7860 O   0  0  0  0  0  0  0  0  0  0  0  0
   45.5310   26.3460   39.4220 O   0  0  0  0  0  0  0  0  0  0  0  0
   39.3037   22.7375   39.4046 H   0  0  0  0  0  0  0  0  0  0  0  0
   37.5673   24.5438   39.3968 H   0  0  0  0  0  0  0  0  0  0  0  0
   37.3402   26.8606   36.1225 H   0  0  0  0  0  0  0  0  0  0  0  0
   36.6104   27.8781   33.7225 H   0  0  0  0  0  0  0  0  0  0  0  0
   36.2936   22.8732   33.2913 H   0  0  0  0  0  0  0  0  0  0  0  0
   36.7050   20.6353   32.4106 H   0  0  0  0  0  0  0  0  0  0  0  0
   39.0215   20.0101   31.6217 H   0  0  0  0  0  0  0  0  0  0  0  0
   40.7668   21.7827   31.8189 H   0  0  0  0  0  0  0  0  0  0  0  0
   42.0604   20.1145   35.9486 H   0  0  0  0  0  0  0  0  0  0  0  0
   43.8951   25.4132   36.2041 H   0  0  0  0  0  0  0  0  0  0  0  0
   46.2529   23.3703   35.9364 H   0  0  0  0  0  0  0  0  0  0  0  0
   46.7438   24.8629   35.7371 H   0  0  0  0  0  0  0  0  0  0  0  0
   45.8342   23.8069   38.6281 H   0  0  0  0  0  0  0  0  0  0  0  0
   45.8429   27.2056   39.8014 H   0  0  0  0  0  0  0  0  0  0  0  0
  1 18  1  0
  1  2  2  0
  3  2  1  0
  4  3  2  0
  5  6  2  0
  5  4  1  0
  6  1  1  0
  7  8  1  0
  7  5  1  0
  9  8  2  0
 10 11  2  0
 10  9  1  0
 11  7  1  0
 12 11  1  0
 13 12  2  0
 14 13  1  0
 15 16  1  0
 15 14  2  0
 16 17  2  0
 17 12  1  0
 19 23  1  0
 19 18  1  0
 20 19  2  0
 21 20  1  0
 21 22  1  0
 22 24  1  0
 22 23  2  0
 24 26  1  0
 25 24  1  0
 25 26  1  0
 26 27  1  0
 27 29  1  0
 28 27  2  0
  2 30  1  0
  3 31  1  0
  8 32  1  0
  9 33  1  0
 13 34  1  0
 14 35  1  0
 15 36  1  0
 16 37  1  0
 20 38  1  0
 24 39  1  6
 25 40  1  0
 25 41  1  0
 26 42  1  1
 29 43  1  0
M  ISO  8  30  14  31  14  32  14  33  14  34  14  35  14  36  14  37  14
M  ISO  6  38  14  39  13  40  13  41  13  42  13  43   3
M  END
>  <minimizedAffinity>  (1) 
-6.09568834

>  <minimizedRMSD>  (1) 
0.236431941

$$$$
