
     RDKit          3D

 42 46  0  0  1  0  0  0  0  0999 V2000
   39.5300   22.8670   37.1980 C   0  0  0  0  0  0  0  0  0  0  0  0
   38.9650   23.2410   38.4210 C   0  0  0  0  0  0  0  0  0  0  0  0
   38.0270   24.2590   38.4190 C   0  0  0  0  0  0  0  0  0  0  0  0
   37.6890   24.8530   37.2620 N   0  0  0  0  0  0  0  0  0  0  0  0
   38.2770   24.4510   36.0650 C   0  0  0  0  0  0  0  0  0  0  0  0
   39.1650   23.4880   36.0610 N   0  0  0  0  0  0  0  0  0  0  0  0
   37.8740   25.1310   34.9030 N   0  0  0  0  0  0  0  0  0  0  0  0
   37.4030   26.3870   35.1310 C   0  0  0  0  0  0  0  0  0  0  0  0
   37.0330   26.9270   33.8840 C   0  0  0  0  0  0  0  0  0  0  0  0
   37.2910   25.9890   32.9740 N   0  0  0  0  0  0  0  0  0  0  0  0
   37.7960   24.9120   33.5850 C   0  0  0  0  0  0  0  0  0  0  0  0
   38.2250   23.6490   33.0290 C   0  0  0  0  0  0  0  0  0  0  0  0
   37.2810   22.6460   32.9740 C   0  0  0  0  0  0  0  0  0  0  0  0
   37.5060   21.3780   32.4780 C   0  0  0  0  0  0  0  0  0  0  0  0
   38.7260   21.0590   32.0020 N   0  0  0  0  0  0  0  0  0  0  0  0
   39.6440   22.0320   32.0540 C   0  0  0  0  0  0  0  0  0  0  0  0
   39.4010   23.2380   32.5350 N   0  0  0  0  0  0  0  0  0  0  0  0
   40.4420   21.8750   37.1990 O   0  0  0  0  0  0  0  0  0  0  0  0
   41.7560   22.1240   36.7760 C   0  0  0  0  0  0  0  0  0  0  0  0
   42.3890   21.0580   36.1910 C   0  0  0  0  0  0  0  0  0  0  0  0
   43.9930   21.7680   35.8060 S   0  0  0  0  0  0  0  0  0  0  0  0
   43.5410   23.4690   36.5280 C   0  0  0  0  0  0  0  0  0  0  0  0
   42.4830   23.2090   36.8490 N   0  0  0  0  0  0  0  0  0  0  0  0
   44.5300   24.6030   36.5230 C   0  0  2  0  0  0  0  0  0  0  0  0
   45.9280   24.3060   36.3030 C   0  0  0  0  0  0  0  0  0  0  0  0
   45.6470   24.4230   37.6820 C   0  0  1  0  0  0  0  0  0  0  0  0
   46.1300   25.7700   38.2400 C   0  0  0  0  0  0  0  0  0  0  0  0
   47.2470   26.3200   37.7770 O   0  0  0  0  0  0  0  0  0  0  0  0
   45.3800   26.4180   39.2420 O   0  0  0  0  0  0  0  0  0  0  0  0
   39.2570   22.7414   39.3565 H   0  0  0  0  0  0  0  0  0  0  0  0
   37.5598   24.5807   39.3615 H   0  0  0  0  0  0  0  0  0  0  0  0
   37.3256   26.8875   36.1075 H   0  0  0  0  0  0  0  0  0  0  0  0
   36.6135   27.9267   33.6981 H   0  0  0  0  0  0  0  0  0  0  0  0
   36.2738   22.8731   33.3535 H   0  0  0  0  0  0  0  0  0  0  0  0
   36.6962   20.6336   32.4712 H   0  0  0  0  0  0  0  0  0  0  0  0
   40.6542   21.8157   31.6762 H   0  0  0  0  0  0  0  0  0  0  0  0
   42.0147   20.0402   36.0067 H   0  0  0  0  0  0  0  0  0  0  0  0
   43.8299   25.3528   36.1259 H   0  0  0  0  0  0  0  0  0  0  0  0
   46.1965   23.3160   35.9058 H   0  0  0  0  0  0  0  0  0  0  0  0
   46.6810   24.8058   35.6760 H   0  0  0  0  0  0  0  0  0  0  0  0
   45.7668   23.8073   38.5857 H   0  0  0  0  0  0  0  0  0  0  0  0
   45.6860   27.2864   39.6057 H   0  0  0  0  0  0  0  0  0  0  0  0
  1 18  1  0
  1  2  2  0
  3  2  1  0
  4  3  2  0
  5  4  1  0
  6  5  2  0
  6  1  1  0
  7  8  1  0
  7  5  1  0
  9  8  2  0
 10 11  2  0
 10  9  1  0
 11  7  1  0
 12 11  1  0
 13 12  2  0
 14 13  1  0
 15 16  1  0
 15 14  2  0
 16 17  2  0
 17 12  1  0
 19 23  1  0
 19 18  1  0
 20 19  2  0
 21 20  1  0
 21 22  1  0
 22 23  2  0
 24 22  1  0
 24 26  1  0
 25 24  1  0
 25 26  1  0
 26 27  1  0
 27 29  1  0
 28 27  2  0
  2 30  1  0
  3 31  1  0
  8 32  1  0
  9 33  1  0
 13 34  1  0
 14 35  1  0
 16 36  1  0
 20 37  1  0
 24 38  1  6
 25 39  1  0
 25 40  1  0
 26 41  1  1
 29 42  1  0
M  ISO  8  30  14  31  14  32  14  33  14  34  14  35  14  36  14  37  14
M  ISO  5  38  13  39  13  40  13  41  13  42   3
M  END
>  <minimizedAffinity>  (1) 
-6.08409166

>  <minimizedRMSD>  (1) 
0.377943099

$$$$
