
     RDKit          3D

 41 45  0  0  1  0  0  0  0  0999 V2000
   39.5660   22.8870   37.2020 C   0  0  0  0  0  0  0  0  0  0  0  0
   38.9980   23.2220   38.4390 C   0  0  0  0  0  0  0  0  0  0  0  0
   38.0520   24.2310   38.4640 C   0  0  0  0  0  0  0  0  0  0  0  0
   37.7100   24.8520   37.3210 N   0  0  0  0  0  0  0  0  0  0  0  0
   38.2940   24.4920   36.1200 C   0  0  0  0  0  0  0  0  0  0  0  0
   39.1960   23.5340   36.0810 N   0  0  0  0  0  0  0  0  0  0  0  0
   37.8860   25.1990   34.9730 N   0  0  0  0  0  0  0  0  0  0  0  0
   37.4130   26.4410   35.2370 C   0  0  0  0  0  0  0  0  0  0  0  0
   37.0320   27.0280   34.0090 C   0  0  0  0  0  0  0  0  0  0  0  0
   37.3000   26.1050   33.0710 N   0  0  0  0  0  0  0  0  0  0  0  0
   37.8080   25.0180   33.6510 C   0  0  0  0  0  0  0  0  0  0  0  0
   38.2560   23.7530   33.0910 C   0  0  0  0  0  0  0  0  0  0  0  0
   37.4040   22.6740   32.9740 C   0  0  0  0  0  0  0  0  0  0  0  0
   38.0480   21.5970   32.4190 C   0  0  0  0  0  0  0  0  0  0  0  0
   39.2900   22.0340   32.2060 N   0  0  0  0  0  0  0  0  0  0  0  0
   39.4040   23.2710   32.5930 N   0  0  0  0  0  0  0  0  0  0  0  0
   40.4880   21.9040   37.1770 O   0  0  0  0  0  0  0  0  0  0  0  0
   41.7980   22.1760   36.7590 C   0  0  0  0  0  0  0  0  0  0  0  0
   42.4320   21.1370   36.1320 C   0  0  0  0  0  0  0  0  0  0  0  0
   44.0340   21.8690   35.7660 S   0  0  0  0  0  0  0  0  0  0  0  0
   43.5760   23.5400   36.5500 C   0  0  0  0  0  0  0  0  0  0  0  0
   42.5190   23.2630   36.8680 N   0  0  0  0  0  0  0  0  0  0  0  0
   44.5620   24.6770   36.5780 C   0  0  2  0  0  0  0  0  0  0  0  0
   45.9590   24.3820   36.3330 C   0  0  0  0  0  0  0  0  0  0  0  0
   45.6930   24.4470   37.7180 C   0  0  1  0  0  0  0  0  0  0  0  0
   46.1870   25.7670   38.3260 C   0  0  0  0  0  0  0  0  0  0  0  0
   47.2390   26.3850   37.8010 O   0  0  0  0  0  0  0  0  0  0  0  0
   45.5140   26.3220   39.4340 O   0  0  0  0  0  0  0  0  0  0  0  0
   39.2950   22.6993   39.3602 H   0  0  0  0  0  0  0  0  0  0  0  0
   37.5817   24.5241   39.4142 H   0  0  0  0  0  0  0  0  0  0  0  0
   37.3388   26.9089   36.2298 H   0  0  0  0  0  0  0  0  0  0  0  0
   36.6056   28.0301   33.8541 H   0  0  0  0  0  0  0  0  0  0  0  0
   36.3487   22.6768   33.2844 H   0  0  0  0  0  0  0  0  0  0  0  0
   37.6347   20.6014   32.2000 H   0  0  0  0  0  0  0  0  0  0  0  0
   40.0495   21.4730   31.7944 H   0  0  0  0  0  0  0  0  0  0  0  0
   42.0610   20.1253   35.9111 H   0  0  0  0  0  0  0  0  0  0  0  0
   43.8604   25.4444   36.2190 H   0  0  0  0  0  0  0  0  0  0  0  0
   46.2188   23.4068   35.8954 H   0  0  0  0  0  0  0  0  0  0  0  0
   46.7081   24.9025   35.7182 H   0  0  0  0  0  0  0  0  0  0  0  0
   45.8204   23.7958   38.5954 H   0  0  0  0  0  0  0  0  0  0  0  0
   45.8293   27.1732   39.8292 H   0  0  0  0  0  0  0  0  0  0  0  0
  1  2  2  0
  2  3  1  0
  4  3  2  0
  5  4  1  0
  6  5  2  0
  6  1  1  0
  7  8  1  0
  7  5  1  0
  9  8  2  0
 10 11  2  0
 10  9  1  0
 11  7  1  0
 12 11  1  0
 13 12  1  0
 14 13  2  0
 15 14  1  0
 15 16  1  0
 16 12  2  0
 17  1  1  0
 18 22  1  0
 18 17  1  0
 19 18  2  0
 20 19  1  0
 20 21  1  0
 21 23  1  0
 21 22  2  0
 23 25  1  0
 24 23  1  0
 24 25  1  0
 25 26  1  0
 26 28  1  0
 27 26  2  0
  2 29  1  0
  3 30  1  0
  8 31  1  0
  9 32  1  0
 13 33  1  0
 14 34  1  0
 15 35  1  0
 19 36  1  0
 23 37  1  6
 24 38  1  0
 24 39  1  0
 25 40  1  1
 28 41  1  0
M  ISO  8  29  14  30  14  31  14  32  14  33  14  34  14  35   9  36  14
M  ISO  5  37  13  38  13  39  13  40  13  41   3
M  END
>  <minimizedAffinity>  (1) 
-5.98976088

>  <minimizedRMSD>  (1) 
0.13165535

$$$$
