
     RDKit          3D

 40 44  0  0  1  0  0  0  0  0999 V2000
   39.5860   22.8670   37.2170 C   0  0  0  0  0  0  0  0  0  0  0  0
   39.0040   23.2260   38.4360 C   0  0  0  0  0  0  0  0  0  0  0  0
   38.0480   24.2250   38.4370 C   0  0  0  0  0  0  0  0  0  0  0  0
   37.7110   24.8170   37.2840 N   0  0  0  0  0  0  0  0  0  0  0  0
   38.3080   24.4410   36.0820 C   0  0  0  0  0  0  0  0  0  0  0  0
   39.2140   23.4910   36.0860 N   0  0  0  0  0  0  0  0  0  0  0  0
   37.8970   25.1340   34.9340 N   0  0  0  0  0  0  0  0  0  0  0  0
   37.4120   26.3650   35.1590 C   0  0  0  0  0  0  0  0  0  0  0  0
   37.0300   26.9070   33.9170 C   0  0  0  0  0  0  0  0  0  0  0  0
   37.3040   25.9810   32.9990 N   0  0  0  0  0  0  0  0  0  0  0  0
   37.8350   24.8880   33.5990 C   0  0  0  0  0  0  0  0  0  0  0  0
   38.3000   23.6090   33.0540 C   0  0  0  0  0  0  0  0  0  0  0  0
   37.3180   22.5840   33.0000 C   0  0  0  0  0  0  0  0  0  0  0  0
   38.2410   21.1450   32.2740 S   0  0  0  0  0  0  0  0  0  0  0  0
   39.8150   22.2120   32.1740 C   0  0  0  0  0  0  0  0  0  0  0  0
   39.4660   23.1990   32.5920 N   0  0  0  0  0  0  0  0  0  0  0  0
   40.5120   21.8970   37.2180 O   0  0  0  0  0  0  0  0  0  0  0  0
   41.8210   22.1630   36.7820 C   0  0  0  0  0  0  0  0  0  0  0  0
   42.4450   21.1270   36.1420 C   0  0  0  0  0  0  0  0  0  0  0  0
   44.0400   21.8550   35.7600 S   0  0  0  0  0  0  0  0  0  0  0  0
   43.6000   23.5200   36.5580 C   0  0  0  0  0  0  0  0  0  0  0  0
   42.5470   23.2470   36.8880 N   0  0  0  0  0  0  0  0  0  0  0  0
   44.5850   24.6590   36.5830 C   0  0  2  0  0  0  0  0  0  0  0  0
   45.9830   24.3670   36.3440 C   0  0  0  0  0  0  0  0  0  0  0  0
   45.7110   24.4440   37.7260 C   0  0  1  0  0  0  0  0  0  0  0  0
   46.1990   25.7720   38.3210 C   0  0  0  0  0  0  0  0  0  0  0  0
   47.2480   26.3940   37.7910 O   0  0  0  0  0  0  0  0  0  0  0  0
   45.5240   26.3280   39.4290 O   0  0  0  0  0  0  0  0  0  0  0  0
   39.2989   22.7266   39.3707 H   0  0  0  0  0  0  0  0  0  0  0  0
   37.5678   24.5313   39.3780 H   0  0  0  0  0  0  0  0  0  0  0  0
   37.3281   26.8610   36.1372 H   0  0  0  0  0  0  0  0  0  0  0  0
   36.5914   27.9000   33.7394 H   0  0  0  0  0  0  0  0  0  0  0  0
   36.2645   22.6312   33.3129 H   0  0  0  0  0  0  0  0  0  0  0  0
   40.8126   21.9352   31.8023 H   0  0  0  0  0  0  0  0  0  0  0  0
   42.0691   20.1172   35.9207 H   0  0  0  0  0  0  0  0  0  0  0  0
   43.8814   25.4211   36.2166 H   0  0  0  0  0  0  0  0  0  0  0  0
   46.2478   23.3888   35.9163 H   0  0  0  0  0  0  0  0  0  0  0  0
   46.7324   24.8840   35.7266 H   0  0  0  0  0  0  0  0  0  0  0  0
   45.8368   23.8015   38.6100 H   0  0  0  0  0  0  0  0  0  0  0  0
   45.8330   27.1843   39.8182 H   0  0  0  0  0  0  0  0  0  0  0  0
  1 17  1  0
  1  2  2  0
  2  3  1  0
  4  3  2  0
  5  6  2  0
  5  4  1  0
  6  1  1  0
  7  8  1  0
  7  5  1  0
  9  8  2  0
 10 11  2  0
 10  9  1  0
 11  7  1  0
 12 11  1  0
 13 12  2  0
 14 13  1  0
 15 14  1  0
 15 16  2  0
 16 12  1  0
 18 22  1  0
 18 17  1  0
 19 18  2  0
 20 19  1  0
 20 21  1  0
 21 23  1  0
 21 22  2  0
 23 25  1  0
 24 23  1  0
 24 25  1  0
 25 26  1  0
 26 28  1  0
 27 26  2  0
  2 29  1  0
  3 30  1  0
  8 31  1  0
  9 32  1  0
 13 33  1  0
 15 34  1  0
 19 35  1  0
 23 36  1  6
 24 37  1  0
 24 38  1  0
 25 39  1  1
 28 40  1  0
M  ISO  8  29  14  30  14  31  14  32  14  33  14  34  14  35  14  36  13
M  ISO  4  37  13  38  13  39  13  40   3
M  END
>  <minimizedAffinity>  (1) 
-5.97813511

>  <minimizedRMSD>  (1) 
0.297456652

$$$$
