
     RDKit          3D

 41 45  0  0  1  0  0  0  0  0999 V2000
   40.4920   21.9120   37.1930 O   0  0  0  0  0  0  0  0  0  0  0  0
   39.5690   22.8910   37.2090 C   0  0  0  0  0  0  0  0  0  0  0  0
   38.9910   23.2220   38.4420 C   0  0  0  0  0  0  0  0  0  0  0  0
   38.0400   24.2290   38.4630 C   0  0  0  0  0  0  0  0  0  0  0  0
   37.7050   24.8480   37.3270 N   0  0  0  0  0  0  0  0  0  0  0  0
   38.3010   24.4930   36.1200 C   0  0  0  0  0  0  0  0  0  0  0  0
   39.2100   23.5350   36.0790 N   0  0  0  0  0  0  0  0  0  0  0  0
   37.8980   25.1960   34.9690 N   0  0  0  0  0  0  0  0  0  0  0  0
   37.4130   26.4390   35.2320 C   0  0  0  0  0  0  0  0  0  0  0  0
   37.0390   27.0090   34.0000 C   0  0  0  0  0  0  0  0  0  0  0  0
   37.3140   26.0890   33.0560 N   0  0  0  0  0  0  0  0  0  0  0  0
   37.8280   25.0060   33.6440 C   0  0  0  0  0  0  0  0  0  0  0  0
   38.2920   23.7350   33.0870 C   0  0  0  0  0  0  0  0  0  0  0  0
   37.3770   22.5370   33.0440 C   0  0  0  0  0  0  0  0  0  0  0  0
   37.6240   23.3100   31.7850 C   0  0  0  0  0  0  0  0  0  0  0  0
   41.7990   22.1820   36.7650 C   0  0  0  0  0  0  0  0  0  0  0  0
   42.4270   21.1430   36.1270 C   0  0  0  0  0  0  0  0  0  0  0  0
   44.0270   21.8730   35.7510 S   0  0  0  0  0  0  0  0  0  0  0  0
   43.5810   23.5410   36.5480 C   0  0  0  0  0  0  0  0  0  0  0  0
   42.5290   23.2550   36.8660 N   0  0  0  0  0  0  0  0  0  0  0  0
   44.5680   24.6760   36.5750 C   0  0  2  0  0  0  0  0  0  0  0  0
   45.9620   24.3900   36.3230 C   0  0  0  0  0  0  0  0  0  0  0  0
   45.7010   24.4460   37.7100 C   0  0  1  0  0  0  0  0  0  0  0  0
   46.1900   25.7640   38.3240 C   0  0  0  0  0  0  0  0  0  0  0  0
   47.2420   26.3900   37.8040 O   0  0  0  0  0  0  0  0  0  0  0  0
   45.5170   26.3120   39.4350 O   0  0  0  0  0  0  0  0  0  0  0  0
   39.2833   22.6986   39.3643 H   0  0  0  0  0  0  0  0  0  0  0  0
   37.5625   24.5180   39.4109 H   0  0  0  0  0  0  0  0  0  0  0  0
   37.3287   26.9109   36.2221 H   0  0  0  0  0  0  0  0  0  0  0  0
   36.6075   28.0082   33.8403 H   0  0  0  0  0  0  0  0  0  0  0  0
   39.3140   23.8885   33.4638 H   0  0  0  0  0  0  0  0  0  0  0  0
   37.7941   21.5253   33.1560 H   0  0  0  0  0  0  0  0  0  0  0  0
   36.4777   22.2317   33.5990 H   0  0  0  0  0  0  0  0  0  0  0  0
   38.2251   22.8680   30.9768 H   0  0  0  0  0  0  0  0  0  0  0  0
   36.9866   23.8067   31.0386 H   0  0  0  0  0  0  0  0  0  0  0  0
   42.0522   20.1330   35.9047 H   0  0  0  0  0  0  0  0  0  0  0  0
   43.8628   25.4417   36.2194 H   0  0  0  0  0  0  0  0  0  0  0  0
   46.2248   23.4186   35.8789 H   0  0  0  0  0  0  0  0  0  0  0  0
   46.7060   24.9175   35.7080 H   0  0  0  0  0  0  0  0  0  0  0  0
   45.8344   23.7910   38.5836 H   0  0  0  0  0  0  0  0  0  0  0  0
   45.8302   27.1624   39.8334 H   0  0  0  0  0  0  0  0  0  0  0  0
  1  2  1  0
  2  3  2  0
  3  4  1  0
  5  4  2  0
  6  5  1  0
  7  6  2  0
  7  2  1  0
  8  9  1  0
  8  6  1  0
 10  9  2  0
 11 12  2  0
 11 10  1  0
 12  8  1  0
 13 12  1  0
 14 13  1  0
 15 14  1  0
 15 13  1  0
 16 20  1  0
 16  1  1  0
 17 16  2  0
 18 17  1  0
 18 19  1  0
 19 21  1  0
 19 20  2  0
 21 23  1  0
 22 21  1  0
 22 23  1  0
 23 24  1  0
 24 26  1  0
 25 24  2  0
  3 27  1  0
  4 28  1  0
  9 29  1  0
 10 30  1  0
 13 31  1  0
 14 32  1  0
 14 33  1  0
 15 34  1  0
 15 35  1  0
 17 36  1  0
 21 37  1  6
 22 38  1  0
 22 39  1  0
 23 40  1  1
 26 41  1  0
M  ISO  8  27  14  28  14  29  14  30  14  31  13  32  13  33  13  34  13
M  ISO  7  35  13  36  14  37  13  38  13  39  13  40  13  41   3
M  END
>  <minimizedAffinity>  (1) 
-5.84502935

>  <minimizedRMSD>  (1) 
0.254365832

$$$$
