
     RDKit          3D

 37 40  0  0  1  0  0  0  0  0999 V2000
   40.5500   21.8850   37.2460 O   0  0  0  0  0  0  0  0  0  0  0  0
   39.6140   22.8520   37.2310 C   0  0  0  0  0  0  0  0  0  0  0  0
   39.0190   23.2030   38.4520 C   0  0  0  0  0  0  0  0  0  0  0  0
   38.0560   24.1970   38.4400 C   0  0  0  0  0  0  0  0  0  0  0  0
   37.7190   24.7880   37.2900 N   0  0  0  0  0  0  0  0  0  0  0  0
   38.3290   24.4140   36.1010 C   0  0  0  0  0  0  0  0  0  0  0  0
   39.2560   23.4660   36.0810 N   0  0  0  0  0  0  0  0  0  0  0  0
   37.9300   25.0830   34.9280 N   0  0  0  0  0  0  0  0  0  0  0  0
   37.4180   26.3180   35.1540 C   0  0  0  0  0  0  0  0  0  0  0  0
   37.0520   26.8510   33.9050 C   0  0  0  0  0  0  0  0  0  0  0  0
   37.3540   25.9260   32.9880 N   0  0  0  0  0  0  0  0  0  0  0  0
   37.8850   24.8560   33.6040 C   0  0  0  0  0  0  0  0  0  0  0  0
   38.4050   23.5370   33.1130 C   0  0  0  0  0  0  0  0  0  0  0  0
   41.8520   22.1540   36.7950 C   0  0  0  0  0  0  0  0  0  0  0  0
   42.4670   21.1220   36.1420 C   0  0  0  0  0  0  0  0  0  0  0  0
   44.0580   21.8510   35.7420 S   0  0  0  0  0  0  0  0  0  0  0  0
   43.6250   23.5170   36.5590 C   0  0  0  0  0  0  0  0  0  0  0  0
   42.5820   23.2320   36.8930 N   0  0  0  0  0  0  0  0  0  0  0  0
   44.6160   24.6510   36.5760 C   0  0  2  0  0  0  0  0  0  0  0  0
   46.0140   24.3540   36.3560 C   0  0  0  0  0  0  0  0  0  0  0  0
   45.7300   24.4470   37.7350 C   0  0  1  0  0  0  0  0  0  0  0  0
   46.2140   25.7790   38.3220 C   0  0  0  0  0  0  0  0  0  0  0  0
   47.2610   26.4010   37.7890 O   0  0  0  0  0  0  0  0  0  0  0  0
   45.5360   26.3400   39.4230 O   0  0  0  0  0  0  0  0  0  0  0  0
   39.3085   22.7043   39.3887 H   0  0  0  0  0  0  0  0  0  0  0  0
   37.5678   24.5007   39.3778 H   0  0  0  0  0  0  0  0  0  0  0  0
   37.3092   26.8109   36.1314 H   0  0  0  0  0  0  0  0  0  0  0  0
   36.6039   27.8381   33.7186 H   0  0  0  0  0  0  0  0  0  0  0  0
   38.6565   22.8989   33.9730 H   0  0  0  0  0  0  0  0  0  0  0  0
   37.6343   23.0431   32.5030 H   0  0  0  0  0  0  0  0  0  0  0  0
   39.3054   23.7019   32.5030 H   0  0  0  0  0  0  0  0  0  0  0  0
   42.0878   20.1134   35.9207 H   0  0  0  0  0  0  0  0  0  0  0  0
   43.9191   25.4095   36.1900 H   0  0  0  0  0  0  0  0  0  0  0  0
   46.2810   23.3704   35.9421 H   0  0  0  0  0  0  0  0  0  0  0  0
   46.7703   24.8630   35.7404 H   0  0  0  0  0  0  0  0  0  0  0  0
   45.8463   23.8145   38.6274 H   0  0  0  0  0  0  0  0  0  0  0  0
   45.8423   27.1993   39.8075 H   0  0  0  0  0  0  0  0  0  0  0  0
  2  1  1  0
  2  3  2  0
  4  3  1  0
  5  4  2  0
  6  5  1  0
  7  6  2  0
  7  2  1  0
  8  9  1  0
  8  6  1  0
 10  9  2  0
 11 12  2  0
 11 10  1  0
 12  8  1  0
 13 12  1  0
 14 18  1  0
 14  1  1  0
 15 14  2  0
 16 15  1  0
 16 17  1  0
 17 19  1  0
 17 18  2  0
 19 21  1  0
 20 19  1  0
 20 21  1  0
 21 22  1  0
 22 24  1  0
 23 22  2  0
  3 25  1  0
  4 26  1  0
  9 27  1  0
 10 28  1  0
 13 29  1  0
 13 30  1  0
 13 31  1  0
 15 32  1  0
 19 33  1  6
 20 34  1  0
 20 35  1  0
 21 36  1  1
 24 37  1  0
M  ISO  8  25  14  26  14  27  14  28  14  29   8  30   8  31   8  32  14
M  ISO  5  33  13  34  13  35  13  36  13  37   3
M  END
>  <minimizedAffinity>  (1) 
-5.76837301

>  <minimizedRMSD>  (1) 
0.02425576

$$$$
