
     RDKit          3D

 35 38  0  0  1  0  0  0  0  0999 V2000
   40.5380   21.8940   37.2380 O   0  0  0  0  0  0  0  0  0  0  0  0
   39.6020   22.8620   37.2280 C   0  0  0  0  0  0  0  0  0  0  0  0
   39.0060   23.2070   38.4500 C   0  0  0  0  0  0  0  0  0  0  0  0
   38.0420   24.2030   38.4440 C   0  0  0  0  0  0  0  0  0  0  0  0
   37.7130   24.7980   37.2870 N   0  0  0  0  0  0  0  0  0  0  0  0
   38.3180   24.4350   36.1070 C   0  0  0  0  0  0  0  0  0  0  0  0
   39.2450   23.4830   36.0860 N   0  0  0  0  0  0  0  0  0  0  0  0
   37.9210   25.1080   34.9350 N   0  0  0  0  0  0  0  0  0  0  0  0
   37.4220   26.3450   35.1660 C   0  0  0  0  0  0  0  0  0  0  0  0
   37.0550   26.9030   33.9250 C   0  0  0  0  0  0  0  0  0  0  0  0
   37.3530   25.9680   33.0030 N   0  0  0  0  0  0  0  0  0  0  0  0
   37.8730   24.8910   33.6060 C   0  0  0  0  0  0  0  0  0  0  0  0
   38.3590   23.6440   33.2070 O   0  0  0  0  0  0  0  0  0  0  0  0
   41.8380   22.1660   36.7880 C   0  0  0  0  0  0  0  0  0  0  0  0
   42.4540   21.1350   36.1280 C   0  0  0  0  0  0  0  0  0  0  0  0
   44.0460   21.8670   35.7330 S   0  0  0  0  0  0  0  0  0  0  0  0
   43.6170   23.5250   36.5540 C   0  0  0  0  0  0  0  0  0  0  0  0
   42.5670   23.2480   36.8960 N   0  0  0  0  0  0  0  0  0  0  0  0
   44.6060   24.6620   36.5780 C   0  0  2  0  0  0  0  0  0  0  0  0
   46.0050   24.3600   36.3550 C   0  0  0  0  0  0  0  0  0  0  0  0
   45.7240   24.4460   37.7370 C   0  0  1  0  0  0  0  0  0  0  0  0
   46.2090   25.7800   38.3250 C   0  0  0  0  0  0  0  0  0  0  0  0
   47.2590   26.3970   37.7930 O   0  0  0  0  0  0  0  0  0  0  0  0
   45.5330   26.3470   39.4230 O   0  0  0  0  0  0  0  0  0  0  0  0
   39.2947   22.7028   39.3841 H   0  0  0  0  0  0  0  0  0  0  0  0
   37.5502   24.5035   39.3809 H   0  0  0  0  0  0  0  0  0  0  0  0
   37.3209   26.8290   36.1486 H   0  0  0  0  0  0  0  0  0  0  0  0
   36.6163   27.8959   33.7467 H   0  0  0  0  0  0  0  0  0  0  0  0
   38.7006   23.0065   33.8830 H   0  0  0  0  0  0  0  0  0  0  0  0
   42.0747   20.1278   35.9007 H   0  0  0  0  0  0  0  0  0  0  0  0
   43.9107   25.4257   36.1993 H   0  0  0  0  0  0  0  0  0  0  0  0
   46.2673   23.3778   35.9350 H   0  0  0  0  0  0  0  0  0  0  0  0
   46.7624   24.8699   35.7415 H   0  0  0  0  0  0  0  0  0  0  0  0
   45.8418   23.8078   38.6252 H   0  0  0  0  0  0  0  0  0  0  0  0
   45.8424   27.2064   39.8047 H   0  0  0  0  0  0  0  0  0  0  0  0
  2  1  1  0
  2  3  2  0
  4  3  1  0
  5  4  2  0
  6  5  1  0
  7  6  2  0
  7  2  1  0
  8  9  1  0
  8  6  1  0
 10  9  2  0
 11 12  2  0
 11 10  1  0
 12  8  1  0
 13 12  1  0
 14 18  1  0
 14  1  1  0
 15 14  2  0
 16 15  1  0
 16 17  1  0
 17 19  1  0
 17 18  2  0
 19 21  1  0
 20 19  1  0
 20 21  1  0
 21 22  1  0
 22 24  1  0
 23 22  2  0
  3 25  1  0
  4 26  1  0
  9 27  1  0
 10 28  1  0
 13 29  1  0
 15 30  1  0
 19 31  1  6
 20 32  1  0
 20 33  1  0
 21 34  1  1
 24 35  1  0
M  ISO  8  25  14  26  14  27  14  28  14  29   3  30  14  31  13  32  13
M  ISO  3  33  13  34  13  35   3
M  END
>  <minimizedAffinity>  (1) 
-5.76366663

>  <minimizedRMSD>  (1) 
0.032785207

$$$$
