
     RDKit          3D

 29 31  0  0  0  0  0  0  0  0999 V2000
   41.0090   22.2530   36.3600 C   0  0  0  0  0  0  0  0  0  0  0  0
   40.3080   22.7610   37.4690 C   0  0  0  0  0  0  0  0  0  0  0  0
   38.9670   23.0890   37.3540 C   0  0  0  0  0  0  0  0  0  0  0  0
   38.3910   22.9010   36.1540 N   0  0  0  0  0  0  0  0  0  0  0  0
   39.0560   22.4180   35.0840 C   0  0  0  0  0  0  0  0  0  0  0  0
   40.3470   22.0990   35.1910 N   0  0  0  0  0  0  0  0  0  0  0  0
   42.4080   21.9130   36.2350 C   0  0  0  0  0  0  0  0  0  0  0  0
   42.7760   20.5760   36.1050 C   0  0  0  0  0  0  0  0  0  0  0  0
   44.0500   20.0830   35.9930 C   0  0  0  0  0  0  0  0  0  0  0  0
   45.0850   20.9850   36.0080 C   0  0  0  0  0  0  0  0  0  0  0  0
   44.8180   22.3200   36.1330 C   0  0  0  0  0  0  0  0  0  0  0  0
   45.8620   23.2170   36.1860 C   0  0  0  0  0  0  0  0  0  0  0  0
   45.6620   24.5740   36.3530 C   0  0  0  0  0  0  0  0  0  0  0  0
   44.3300   24.9920   36.4690 C   0  0  0  0  0  0  0  0  0  0  0  0
   43.3170   24.0650   36.4100 C   0  0  0  0  0  0  0  0  0  0  0  0
   43.5120   22.7250   36.2420 C   0  0  0  0  0  0  0  0  0  0  0  0
   38.3390   23.5980   38.5600 C   0  0  0  0  0  0  0  0  0  0  0  0
   37.8330   24.8480   38.3350 F   0  0  0  0  0  0  0  0  0  0  0  0
   39.3160   23.7390   39.5130 F   0  0  0  0  0  0  0  0  0  0  0  0
   37.3010   22.8090   39.0100 F   0  0  0  0  0  0  0  0  0  0  0  0
   40.8260   22.8981   38.4297 H   0  0  0  0  0  0  0  0  0  0  0  0
   38.5343   22.2874   34.1244 H   0  0  0  0  0  0  0  0  0  0  0  0
   41.9594   19.8392   36.0907 H   0  0  0  0  0  0  0  0  0  0  0  0
   44.2365   19.0034   35.8946 H   0  0  0  0  0  0  0  0  0  0  0  0
   46.1242   20.6352   35.9199 H   0  0  0  0  0  0  0  0  0  0  0  0
   46.8910   22.8398   36.0921 H   0  0  0  0  0  0  0  0  0  0  0  0
   46.5004   25.2850   36.3926 H   0  0  0  0  0  0  0  0  0  0  0  0
   44.0958   26.0579   36.6068 H   0  0  0  0  0  0  0  0  0  0  0  0
   42.2824   24.4266   36.5043 H   0  0  0  0  0  0  0  0  0  0  0  0
  1  2  2  0
  3  2  1  0
  3 17  1  0
  4  3  2  0
  5  6  2  0
  5  4  1  0
  6  1  1  0
  7 16  1  0
  7  1  1  0
  8  7  2  0
  9 10  2  0
  9  8  1  0
 10 11  1  0
 11 12  1  0
 11 16  2  0
 12 13  2  0
 13 14  1  0
 15 14  2  0
 16 15  1  0
 17 20  1  0
 17 19  1  0
 18 17  1  0
  2 21  1  0
  5 22  1  0
  8 23  1  0
  9 24  1  0
 10 25  1  0
 12 26  1  0
 13 27  1  0
 14 28  1  0
 15 29  1  0
M  ISO  8  21  14  22  14  23  14  24  14  25  14  26  14  27  14  28  14
M  ISO  1  29  14
M  END
>  <minimizedAffinity>  (1) 
-5.75396204

>  <minimizedRMSD>  (1) 
0.551869988

$$$$
