
     RDKit          3D

 26 28  0  0  0  0  0  0  0  0999 V2000
   38.3870   24.0290   35.6530 C   0  0  0  0  0  0  0  0  0  0  0  0
   39.6210   23.3320   35.7120 C   0  0  0  0  0  0  0  0  0  0  0  0
   40.0160   22.8820   36.9720 C   0  0  0  0  0  0  0  0  0  0  0  0
   39.2120   23.1330   38.0480 N   0  0  0  0  0  0  0  0  0  0  0  0
   38.0430   23.8040   37.9370 C   0  0  0  0  0  0  0  0  0  0  0  0
   37.6350   24.2510   36.7290 N   0  0  0  0  0  0  0  0  0  0  0  0
   37.8910   24.5310   34.4180 N   0  0  0  0  0  0  0  0  0  0  0  0
   37.8740   23.7040   33.3330 C   0  0  0  0  0  0  0  0  0  0  0  0
   37.3660   24.3580   32.2470 N   0  0  0  0  0  0  0  0  0  0  0  0
   37.0700   25.5860   32.6620 C   0  0  0  0  0  0  0  0  0  0  0  0
   36.5360   26.7170   32.0710 C   0  0  0  0  0  0  0  0  0  0  0  0
   36.3590   27.8410   32.7980 N   0  0  0  0  0  0  0  0  0  0  0  0
   36.6940   27.8910   34.1090 C   0  0  0  0  0  0  0  0  0  0  0  0
   37.2240   26.8060   34.7460 N   0  0  0  0  0  0  0  0  0  0  0  0
   37.3870   25.7020   33.9870 C   0  0  0  0  0  0  0  0  0  0  0  0
   36.1940   26.6290   30.6860 N   0  0  0  0  0  0  0  0  0  0  0  0
   41.2880   22.1700   37.0020 C   0  0  0  0  0  0  0  0  0  0  0  0
   42.3280   23.0760   37.1000 F   0  0  0  0  0  0  0  0  0  0  0  0
   41.4390   21.5480   35.7790 F   0  0  0  0  0  0  0  0  0  0  0  0
   41.4150   21.3000   38.0630 F   0  0  0  0  0  0  0  0  0  0  0  0
   40.2322   23.1562   34.8145 H   0  0  0  0  0  0  0  0  0  0  0  0
   37.4253   23.9856   38.8289 H   0  0  0  0  0  0  0  0  0  0  0  0
   38.2200   22.6598   33.3329 H   0  0  0  0  0  0  0  0  0  0  0  0
   36.5362   28.8232   34.6713 H   0  0  0  0  0  0  0  0  0  0  0  0
   35.7932   27.4449   30.2016 H   0  0  0  0  0  0  0  0  0  0  0  0
   36.3483   25.7497   30.1723 H   0  0  0  0  0  0  0  0  0  0  0  0
  1  2  2  0
  1  6  1  0
  2  3  1  0
  3 17  1  0
  3  4  2  0
  5  4  1  0
  6  5  2  0
  7  1  1  0
  8  7  1  0
  9 10  1  0
  9  8  2  0
 10 15  2  0
 11 10  1  0
 11 12  2  0
 12 13  1  0
 13 14  2  0
 15  7  1  0
 15 14  1  0
 16 11  1  0
 17 18  1  0
 17 20  1  0
 19 17  1  0
  2 21  1  0
  5 22  1  0
  8 23  1  0
 13 24  1  0
 16 25  1  0
 16 26  1  0
M  ISO  4  21  14  22  14  23  14  24  14
M  END
>  <minimizedAffinity>  (1) 
-5.5255084

>  <minimizedRMSD>  (1) 
7.59840536

$$$$
