
     RDKit          3D

 27 29  0  0  0  0  0  0  0  0999 V2000
   42.1690   22.0170   36.0040 N   0  0  0  0  0  0  0  0  0  0  0  0
   42.7470   20.8070   35.7630 C   0  0  0  0  0  0  0  0  0  0  0  0
   44.0870   20.9040   35.7820 N   0  0  0  0  0  0  0  0  0  0  0  0
   44.4010   22.1820   36.0350 C   0  0  0  0  0  0  0  0  0  0  0  0
   45.6510   22.7600   36.1490 C   0  0  0  0  0  0  0  0  0  0  0  0
   46.6910   22.0780   36.0130 O   0  0  0  0  0  0  0  0  0  0  0  0
   45.6770   24.0760   36.4100 N   0  0  0  0  0  0  0  0  0  0  0  0
   44.5240   24.7600   36.5460 C   0  0  0  0  0  0  0  0  0  0  0  0
   44.7140   26.1430   36.8210 N   0  0  0  0  0  0  0  0  0  0  0  0
   43.3150   24.1800   36.4320 N   0  0  0  0  0  0  0  0  0  0  0  0
   43.2120   22.8770   36.1740 C   0  0  0  0  0  0  0  0  0  0  0  0
   40.7870   22.3560   36.0720 C   0  0  0  0  0  0  0  0  0  0  0  0
   40.2190   22.8170   37.2960 C   0  0  0  0  0  0  0  0  0  0  0  0
   38.8550   23.1220   37.2540 C   0  0  0  0  0  0  0  0  0  0  0  0
   38.1610   22.9730   36.1000 N   0  0  0  0  0  0  0  0  0  0  0  0
   38.7570   22.5290   34.9620 C   0  0  0  0  0  0  0  0  0  0  0  0
   40.0610   22.2230   34.9550 N   0  0  0  0  0  0  0  0  0  0  0  0
   38.2970   23.5920   38.5190 C   0  0  0  0  0  0  0  0  0  0  0  0
   37.8190   24.8700   38.3840 F   0  0  0  0  0  0  0  0  0  0  0  0
   39.3400   23.6730   39.4260 F   0  0  0  0  0  0  0  0  0  0  0  0
   37.2720   22.8080   38.9950 F   0  0  0  0  0  0  0  0  0  0  0  0
   42.1914   19.8759   35.5778 H   0  0  0  0  0  0  0  0  0  0  0  0
   46.5791   24.5637   36.5065 H   0  0  0  0  0  0  0  0  0  0  0  0
   43.8988   26.7604   36.9438 H   0  0  0  0  0  0  0  0  0  0  0  0
   45.6668   26.5268   36.8973 H   0  0  0  0  0  0  0  0  0  0  0  0
   40.8153   22.9257   38.2139 H   0  0  0  0  0  0  0  0  0  0  0  0
   38.1649   22.4203   34.0413 H   0  0  0  0  0  0  0  0  0  0  0  0
  1 12  1  0
  1 11  1  0
  2  3  2  0
  2  1  1  0
  3  4  1  0
  4  5  1  0
  4 11  2  0
  5  7  1  0
  6  5  2  0
  7  8  1  0
  8  9  1  0
 10  8  2  0
 11 10  1  0
 12 13  2  0
 14 13  1  0
 14 18  1  0
 15 14  2  0
 16 15  1  0
 17 16  2  0
 17 12  1  0
 18 21  1  0
 18 20  1  0
 19 18  1  0
  2 22  1  0
  7 23  1  0
  9 24  1  0
  9 25  1  0
 13 26  1  0
 16 27  1  0
M  ISO  4  22  14  23   9  26  14  27  14
M  END
>  <minimizedAffinity>  (1) 
-5.37271738

>  <minimizedRMSD>  (1) 
1.69560444

$$$$
