
     RDKit          3D

 26 27  0  0  0  0  0  0  0  0999 V2000
   38.5000   24.4070   36.1640 C   0  0  0  0  0  0  0  0  0  0  0  0
   39.6790   23.6460   36.0320 C   0  0  0  0  0  0  0  0  0  0  0  0
   40.1000   22.9140   37.1510 C   0  0  0  0  0  0  0  0  0  0  0  0
   39.3640   22.9710   38.2940 N   0  0  0  0  0  0  0  0  0  0  0  0
   38.2330   23.7190   38.3760 C   0  0  0  0  0  0  0  0  0  0  0  0
   37.8100   24.4270   37.3220 N   0  0  0  0  0  0  0  0  0  0  0  0
   36.9020   26.8340   33.0410 C   0  0  0  0  0  0  0  0  0  0  0  0
   37.0060   27.3010   34.3340 C   0  0  0  0  0  0  0  0  0  0  0  0
   37.5300   26.4840   35.3250 C   0  0  0  0  0  0  0  0  0  0  0  0
   37.9670   25.1980   35.0910 C   0  0  0  0  0  0  0  0  0  0  0  0
   37.8350   24.7970   33.7800 C   0  0  0  0  0  0  0  0  0  0  0  0
   37.3250   25.5540   32.7480 C   0  0  0  0  0  0  0  0  0  0  0  0
   36.2480   27.8280   31.7590 S   0  0  0  0  0  0  0  0  0  0  0  0
   34.9470   28.4100   32.2300 O   0  0  0  0  0  0  0  0  0  0  0  0
   37.2610   28.8760   31.4240 O   0  0  0  0  0  0  0  0  0  0  0  0
   41.3210   22.1440   36.9700 C   0  0  0  0  0  0  0  0  0  0  0  0
   41.4760   21.2510   38.0190 F   0  0  0  0  0  0  0  0  0  0  0  0
   42.3750   23.0180   37.0890 F   0  0  0  0  0  0  0  0  0  0  0  0
   41.3660   21.4350   35.7960 F   0  0  0  0  0  0  0  0  0  0  0  0
   40.2457   23.6272   35.0894 H   0  0  0  0  0  0  0  0  0  0  0  0
   37.6609   23.7429   39.3152 H   0  0  0  0  0  0  0  0  0  0  0  0
   36.6738   28.3205   34.5795 H   0  0  0  0  0  0  0  0  0  0  0  0
   37.6002   26.8821   36.3480 H   0  0  0  0  0  0  0  0  0  0  0  0
   38.1676   23.7777   33.5341 H   0  0  0  0  0  0  0  0  0  0  0  0
   37.2575   25.1519   31.7263 H   0  0  0  0  0  0  0  0  0  0  0  0
   35.9928   27.1087   30.6213 H   0  0  0  0  0  0  0  0  0  0  0  0
  1  6  1  0
  2  1  2  0
  2  3  1  0
  3  4  2  0
  4  5  1  0
  6  5  2  0
  7  8  2  0
  8  9  1  0
 10  9  2  0
 10  1  1  0
 11 10  1  0
 12  7  1  0
 12 11  2  0
 13 14  2  0
 13  7  1  0
 15 13  2  0
 16 18  1  0
 16  3  1  0
 16 17  1  0
 19 16  1  0
  2 20  1  0
  5 21  1  0
  8 22  1  0
  9 23  1  0
 11 24  1  0
 12 25  1  0
 13 26  1  0
M  ISO  7  20  14  21  14  22  14  23  14  24  14  25  14  26  11
M  END
>  <minimizedAffinity>  (1) 
-5.20287085

>  <minimizedRMSD>  (1) 
8.29121208

$$$$
