
     RDKit          3D

 28 29  0  0  0  0  0  0  0  0999 V2000
   38.3570   24.4910   36.1330 C   0  0  0  0  0  0  0  0  0  0  0  0
   39.5500   23.7430   36.0310 C   0  0  0  0  0  0  0  0  0  0  0  0
   39.9280   22.9930   37.1590 C   0  0  0  0  0  0  0  0  0  0  0  0
   39.1570   23.0180   38.2640 N   0  0  0  0  0  0  0  0  0  0  0  0
   38.0130   23.7550   38.3180 C   0  0  0  0  0  0  0  0  0  0  0  0
   37.6270   24.4760   37.2670 N   0  0  0  0  0  0  0  0  0  0  0  0
   37.9430   25.2620   35.0120 N   0  0  0  0  0  0  0  0  0  0  0  0
   37.3480   26.5470   35.2120 C   0  0  0  0  0  0  0  0  0  0  0  0
   37.0340   27.3100   33.9900 C   0  0  0  0  0  0  0  0  0  0  0  0
   37.8860   27.0590   32.7970 C   0  0  0  0  0  0  0  0  0  0  0  0
   38.7780   25.8570   32.8970 C   0  0  0  0  0  0  0  0  0  0  0  0
   38.1340   24.7230   33.6780 C   0  0  0  0  0  0  0  0  0  0  0  0
   41.1750   22.2310   37.0040 C   0  0  0  0  0  0  0  0  0  0  0  0
   42.2460   23.0800   36.9830 F   0  0  0  0  0  0  0  0  0  0  0  0
   41.1360   21.6410   35.7630 F   0  0  0  0  0  0  0  0  0  0  0  0
   41.3790   21.3090   38.0060 F   0  0  0  0  0  0  0  0  0  0  0  0
   40.1553   23.7467   35.1125 H   0  0  0  0  0  0  0  0  0  0  0  0
   37.4047   23.7547   39.2345 H   0  0  0  0  0  0  0  0  0  0  0  0
   36.4102   26.4010   35.7681 H   0  0  0  0  0  0  0  0  0  0  0  0
   38.1010   27.1427   35.7489 H   0  0  0  0  0  0  0  0  0  0  0  0
   35.9960   27.0763   33.7110 H   0  0  0  0  0  0  0  0  0  0  0  0
   37.2187   28.3614   34.2556 H   0  0  0  0  0  0  0  0  0  0  0  0
   38.5211   27.9431   32.6390 H   0  0  0  0  0  0  0  0  0  0  0  0
   37.1967   26.8620   31.9627 H   0  0  0  0  0  0  0  0  0  0  0  0
   39.0073   25.5014   31.8816 H   0  0  0  0  0  0  0  0  0  0  0  0
   39.6899   26.1588   33.4330 H   0  0  0  0  0  0  0  0  0  0  0  0
   37.1692   24.4418   33.2306 H   0  0  0  0  0  0  0  0  0  0  0  0
   38.7518   23.8129   33.6795 H   0  0  0  0  0  0  0  0  0  0  0  0
  1  6  1  0
  2  1  2  0
  2  3  1  0
  3  4  2  0
  4  5  1  0
  6  5  2  0
  7  8  1  0
  7  1  1  0
  9  8  1  0
 10 11  1  0
 10  9  1  0
 11 12  1  0
 12  7  1  0
 13  3  1  0
 13 16  1  0
 14 13  1  0
 15 13  1  0
  2 17  1  0
  5 18  1  0
  8 19  1  0
  8 20  1  0
  9 21  1  0
  9 22  1  0
 10 23  1  0
 10 24  1  0
 11 25  1  0
 11 26  1  0
 12 27  1  0
 12 28  1  0
M  ISO  8  17  14  18  14  19  13  20  13  21  13  22  13  23  13  24  13
M  ISO  4  25  13  26  13  27  13  28  13
M  END
>  <minimizedAffinity>  (1) 
-4.63938284

>  <minimizedRMSD>  (1) 
6.07585192

$$$$
