
     RDKit          3D

 16 16  0  0  0  0  0  0  0  0999 V2000
   41.0580   21.9080   36.6430 C   0  0  0  0  0  0  0  0  0  0  0  0
   40.3190   22.4590   37.7160 C   0  0  0  0  0  0  0  0  0  0  0  0
   39.1200   23.1100   37.3790 C   0  0  0  0  0  0  0  0  0  0  0  0
   38.7490   23.1700   36.0850 N   0  0  0  0  0  0  0  0  0  0  0  0
   39.4820   22.6310   35.0840 C   0  0  0  0  0  0  0  0  0  0  0  0
   40.6390   22.0000   35.3760 N   0  0  0  0  0  0  0  0  0  0  0  0
   38.3860   23.6650   38.5140 C   0  0  0  0  0  0  0  0  0  0  0  0
   37.9530   24.9380   38.2090 F   0  0  0  0  0  0  0  0  0  0  0  0
   39.2970   23.8210   39.5490 F   0  0  0  0  0  0  0  0  0  0  0  0
   37.2860   22.9310   38.8790 F   0  0  0  0  0  0  0  0  0  0  0  0
   42.3400   21.2050   36.9390 C   0  0  0  0  0  0  0  0  0  0  0  0
   42.2870   20.6610   38.1840 F   0  0  0  0  0  0  0  0  0  0  0  0
   43.3580   22.1520   36.8930 F   0  0  0  0  0  0  0  0  0  0  0  0
   42.6110   20.2220   35.9810 F   0  0  0  0  0  0  0  0  0  0  0  0
   40.6641   22.3821   38.7576 H   0  0  0  0  0  0  0  0  0  0  0  0
   39.1384   22.7062   34.0417 H   0  0  0  0  0  0  0  0  0  0  0  0
  1 11  1  0
  1  2  2  0
  3  2  1  0
  3  7  1  0
  4  3  2  0
  5  6  2  0
  5  4  1  0
  6  1  1  0
  7 10  1  0
  7  9  1  0
  8  7  1  0
 11 12  1  0
 13 11  1  0
 14 11  1  0
  2 15  1  0
  5 16  1  0
M  ISO  2  15  14  16  14
M  END
>  <minimizedAffinity>  (1) 
-4.62898922

>  <minimizedRMSD>  (1) 
0.319611162

$$$$
