
     RDKit          3D

 25 25  0  0  0  0  0  0  0  0999 V2000
   40.8320   22.2120   36.2140 C   0  0  0  0  0  0  0  0  0  0  0  0
   40.2160   22.6940   37.3920 C   0  0  0  0  0  0  0  0  0  0  0  0
   38.8940   23.1230   37.2920 C   0  0  0  0  0  0  0  0  0  0  0  0
   38.2860   23.0530   36.0850 N   0  0  0  0  0  0  0  0  0  0  0  0
   38.9070   22.5860   34.9810 C   0  0  0  0  0  0  0  0  0  0  0  0
   40.1700   22.1700   35.0460 N   0  0  0  0  0  0  0  0  0  0  0  0
   38.3060   23.6100   38.5360 C   0  0  0  0  0  0  0  0  0  0  0  0
   37.8270   24.8900   38.3410 F   0  0  0  0  0  0  0  0  0  0  0  0
   39.3250   23.7210   39.4520 F   0  0  0  0  0  0  0  0  0  0  0  0
   37.2690   22.8490   38.9960 F   0  0  0  0  0  0  0  0  0  0  0  0
   42.2630   21.7410   36.2910 C   0  0  0  0  0  0  0  0  0  0  0  0
   42.6470   21.0570   34.9950 C   0  0  0  0  0  0  0  0  0  0  0  0
   43.2190   22.8680   36.5250 C   0  0  0  0  0  0  0  0  0  0  0  0
   42.4200   20.7160   37.4050 C   0  0  0  0  0  0  0  0  0  0  0  0
   40.7583   22.7289   38.3484 H   0  0  0  0  0  0  0  0  0  0  0  0
   38.3670   22.5490   34.0234 H   0  0  0  0  0  0  0  0  0  0  0  0
   43.1743   20.1178   35.2183 H   0  0  0  0  0  0  0  0  0  0  0  0
   41.7396   20.8386   34.4128 H   0  0  0  0  0  0  0  0  0  0  0  0
   43.3059   21.7179   34.4128 H   0  0  0  0  0  0  0  0  0  0  0  0
   43.3484   23.0205   37.6067 H   0  0  0  0  0  0  0  0  0  0  0  0
   44.1906   22.6250   36.0702 H   0  0  0  0  0  0  0  0  0  0  0  0
   42.8208   23.7870   36.0702 H   0  0  0  0  0  0  0  0  0  0  0  0
   42.3429   21.2194   38.3800 H   0  0  0  0  0  0  0  0  0  0  0  0
   41.6275   19.9579   37.3201 H   0  0  0  0  0  0  0  0  0  0  0  0
   43.4031   20.2299   37.3201 H   0  0  0  0  0  0  0  0  0  0  0  0
  1 11  1  0
  1  2  2  0
  3  2  1  0
  3  7  1  0
  4  3  2  0
  5  6  2  0
  5  4  1  0
  6  1  1  0
  7 10  1  0
  7  9  1  0
  8  7  1  0
 11 13  1  0
 11 14  1  0
 12 11  1  0
  2 15  1  0
  5 16  1  0
 12 17  1  0
 12 18  1  0
 12 19  1  0
 13 20  1  0
 13 21  1  0
 13 22  1  0
 14 23  1  0
 14 24  1  0
 14 25  1  0
M  ISO  8  15  14  16  14  17   8  18   8  19   8  20   8  21   8  22   8
M  ISO  3  23   8  24   8  25   8
M  END
>  <minimizedAffinity>  (1) 
-4.51150274

>  <minimizedRMSD>  (1) 
0.586792588

$$$$
