
     RDKit          3D

 21 22  0  0  0  0  0  0  0  0999 V2000
   38.0320   22.3540   35.8750 C   0  0  0  0  0  0  0  0  0  0  0  0
   39.3960   21.9810   35.9190 C   0  0  0  0  0  0  0  0  0  0  0  0
   40.1180   22.3620   37.0630 C   0  0  0  0  0  0  0  0  0  0  0  0
   39.4880   23.0510   38.0470 N   0  0  0  0  0  0  0  0  0  0  0  0
   38.1730   23.3770   37.9420 C   0  0  0  0  0  0  0  0  0  0  0  0
   37.4630   23.0320   36.8720 N   0  0  0  0  0  0  0  0  0  0  0  0
   37.2590   21.9720   34.6980 C   0  0  0  0  0  0  0  0  0  0  0  0
   37.5470   22.5460   33.4830 C   0  0  0  0  0  0  0  0  0  0  0  0
   36.7540   22.1180   32.4180 C   0  0  0  0  0  0  0  0  0  0  0  0
   35.7600   21.2090   32.5000 N   0  0  0  0  0  0  0  0  0  0  0  0
   35.5300   20.6850   33.7210 C   0  0  0  0  0  0  0  0  0  0  0  0
   36.2710   21.0670   34.7850 N   0  0  0  0  0  0  0  0  0  0  0  0
   41.5230   21.9530   37.0650 C   0  0  0  0  0  0  0  0  0  0  0  0
   42.3250   23.0550   37.1690 F   0  0  0  0  0  0  0  0  0  0  0  0
   41.7910   21.3940   35.8390 F   0  0  0  0  0  0  0  0  0  0  0  0
   41.8370   21.0970   38.1010 F   0  0  0  0  0  0  0  0  0  0  0  0
   39.8680   21.4206   35.0985 H   0  0  0  0  0  0  0  0  0  0  0  0
   37.6877   23.9357   38.7559 H   0  0  0  0  0  0  0  0  0  0  0  0
   38.3469   23.2908   33.3589 H   0  0  0  0  0  0  0  0  0  0  0  0
   36.9556   22.5577   31.4301 H   0  0  0  0  0  0  0  0  0  0  0  0
   34.7318   19.9396   33.8524 H   0  0  0  0  0  0  0  0  0  0  0  0
  1  2  2  0
  1  6  1  0
  2  3  1  0
  3 13  1  0
  3  4  2  0
  5  4  1  0
  6  5  2  0
  7 12  1  0
  7  1  1  0
  8  7  2  0
  9 10  2  0
  9  8  1  0
 10 11  1  0
 11 12  2  0
 13 14  1  0
 13 16  1  0
 15 13  1  0
  2 17  1  0
  5 18  1  0
  8 19  1  0
  9 20  1  0
 11 21  1  0
M  ISO  5  17  14  18  14  19  14  20  14  21  14
M  END
>  <minimizedAffinity>  (1) 
-4.39537621

>  <minimizedRMSD>  (1) 
5.95474863

$$$$
