
     RDKit          3D

 20 20  0  0  0  0  0  0  0  0999 V2000
   41.2500   21.9820   36.7430 C   0  0  0  0  0  0  0  0  0  0  0  0
   40.4230   22.5260   37.7660 C   0  0  0  0  0  0  0  0  0  0  0  0
   39.1960   23.0830   37.3630 C   0  0  0  0  0  0  0  0  0  0  0  0
   38.8850   23.0640   36.0510 N   0  0  0  0  0  0  0  0  0  0  0  0
   39.7030   22.5370   35.1150 C   0  0  0  0  0  0  0  0  0  0  0  0
   40.8690   22.0050   35.4730 N   0  0  0  0  0  0  0  0  0  0  0  0
   42.4890   21.4190   37.1940 N   0  0  0  0  0  0  0  0  0  0  0  0
   42.9120   20.1740   36.6560 C   0  0  0  0  0  0  0  0  0  0  0  0
   42.7680   19.9130   35.4100 N   0  0  0  0  0  0  0  0  0  0  0  0
   43.5170   19.1870   37.5200 N   0  0  0  0  0  0  0  0  0  0  0  0
   42.3450   20.5930   34.7540 H   0  0  0  0  0  0  0  0  0  0  0  0
   38.3820   23.6290   38.4490 C   0  0  0  0  0  0  0  0  0  0  0  0
   37.9610   24.9010   38.0930 F   0  0  0  0  0  0  0  0  0  0  0  0
   39.2260   23.8250   39.5240 F   0  0  0  0  0  0  0  0  0  0  0  0
   37.2990   22.8720   38.7610 F   0  0  0  0  0  0  0  0  0  0  0  0
   40.7293   22.5114   38.8224 H   0  0  0  0  0  0  0  0  0  0  0  0
   39.4055   22.5474   34.0561 H   0  0  0  0  0  0  0  0  0  0  0  0
   43.0624   21.9086   37.8957 H   0  0  0  0  0  0  0  0  0  0  0  0
   43.8248   18.2834   37.1332 H   0  0  0  0  0  0  0  0  0  0  0  0
   43.6406   19.3869   38.5228 H   0  0  0  0  0  0  0  0  0  0  0  0
  1  7  1  0
  1  2  2  0
  3  2  1  0
  3 12  1  0
  4  3  2  0
  5  6  2  0
  5  4  1  0
  6  1  1  0
  8  7  1  0
  8 10  1  0
  9  8  2  0
 11  9  1  0
 12 15  1  0
 12 14  1  0
 13 12  1  0
  2 16  1  0
  5 17  1  0
  7 18  1  0
 10 19  1  0
 10 20  1  0
M  ISO  2  16  14  17  14
M  END
>  <minimizedAffinity>  (1) 
-4.39258575

>  <minimizedRMSD>  (1) 
0.817866445

$$$$
