
     RDKit          3D

 21 22  0  0  0  0  0  0  0  0999 V2000
   40.6360   22.4270   36.0540 C   0  0  0  0  0  0  0  0  0  0  0  0
   39.9890   22.6300   37.2980 C   0  0  0  0  0  0  0  0  0  0  0  0
   38.9500   23.5750   37.3070 C   0  0  0  0  0  0  0  0  0  0  0  0
   38.6250   24.2290   36.1640 N   0  0  0  0  0  0  0  0  0  0  0  0
   39.2840   23.9930   34.9970 C   0  0  0  0  0  0  0  0  0  0  0  0
   40.2850   23.0920   34.9580 N   0  0  0  0  0  0  0  0  0  0  0  0
   41.7180   21.4490   36.0200 C   0  0  0  0  0  0  0  0  0  0  0  0
   42.1710   20.8980   37.2000 C   0  0  0  0  0  0  0  0  0  0  0  0
   43.1910   19.9840   37.0870 C   0  0  0  0  0  0  0  0  0  0  0  0
   43.7440   19.6190   35.9240 N   0  0  0  0  0  0  0  0  0  0  0  0
   43.2830   20.1740   34.7740 C   0  0  0  0  0  0  0  0  0  0  0  0
   42.2810   21.0740   34.8570 N   0  0  0  0  0  0  0  0  0  0  0  0
   38.3020   23.7610   38.6080 C   0  0  0  0  0  0  0  0  0  0  0  0
   37.7370   25.0240   38.6680 F   0  0  0  0  0  0  0  0  0  0  0  0
   39.2910   23.7650   39.5650 F   0  0  0  0  0  0  0  0  0  0  0  0
   37.3240   22.8510   38.8740 F   0  0  0  0  0  0  0  0  0  0  0  0
   40.2832   22.0797   38.2038 H   0  0  0  0  0  0  0  0  0  0  0  0
   38.9993   24.5381   34.0850 H   0  0  0  0  0  0  0  0  0  0  0  0
   41.7413   21.1738   38.1743 H   0  0  0  0  0  0  0  0  0  0  0  0
   43.5766   19.5242   38.0089 H   0  0  0  0  0  0  0  0  0  0  0  0
   43.7147   19.8975   33.8007 H   0  0  0  0  0  0  0  0  0  0  0  0
  1  2  2  0
  2  3  1  0
  3 13  1  0
  4  3  2  0
  5  4  1  0
  6  5  2  0
  6  1  1  0
  7  1  1  0
  7  8  2  0
  9  8  1  0
 10  9  2  0
 11 12  2  0
 11 10  1  0
 12  7  1  0
 13 14  1  0
 13 16  1  0
 13 15  1  0
  2 17  1  0
  5 18  1  0
  8 19  1  0
  9 20  1  0
 11 21  1  0
M  ISO  5  17  14  18  14  19  14  20  14  21  14
M  END
>  <minimizedAffinity>  (1) 
-4.38173628

>  <minimizedRMSD>  (1) 
1.38358235

$$$$
