
     RDKit          3D

 15 15  0  0  0  0  0  0  0  0999 V2000
   41.1630   21.9060   36.7350 C   0  0  0  0  0  0  0  0  0  0  0  0
   40.3870   22.4690   37.7830 C   0  0  0  0  0  0  0  0  0  0  0  0
   39.1950   23.0920   37.3900 C   0  0  0  0  0  0  0  0  0  0  0  0
   38.8590   23.1220   36.0850 N   0  0  0  0  0  0  0  0  0  0  0  0
   39.6370   22.5660   35.1180 C   0  0  0  0  0  0  0  0  0  0  0  0
   40.7870   21.9610   35.4550 N   0  0  0  0  0  0  0  0  0  0  0  0
   38.4080   23.6680   38.4860 C   0  0  0  0  0  0  0  0  0  0  0  0
   37.9860   24.9240   38.1500 F   0  0  0  0  0  0  0  0  0  0  0  0
   39.2650   23.8310   39.5540 F   0  0  0  0  0  0  0  0  0  0  0  0
   37.3070   22.9140   38.8210 F   0  0  0  0  0  0  0  0  0  0  0  0
   42.3810   21.2650   37.1010 N   0  0  0  0  0  0  0  0  0  0  0  0
   40.7017   22.4191   38.8359 H   0  0  0  0  0  0  0  0  0  0  0  0
   39.3253   22.6118   34.0641 H   0  0  0  0  0  0  0  0  0  0  0  0
   42.9781   20.8416   36.3764 H   0  0  0  0  0  0  0  0  0  0  0  0
   42.6647   21.2248   38.0903 H   0  0  0  0  0  0  0  0  0  0  0  0
  1 11  1  0
  1  2  2  0
  3  2  1  0
  3  7  1  0
  4  3  2  0
  5  6  2  0
  5  4  1  0
  6  1  1  0
  7 10  1  0
  7  9  1  0
  8  7  1  0
  2 12  1  0
  5 13  1  0
 11 14  1  0
 11 15  1  0
M  ISO  2  12  14  13  14
M  END
>  <minimizedAffinity>  (1) 
-3.99760008

>  <minimizedRMSD>  (1) 
0.198216289

$$$$
