
     RDKit          3D

 28 30  0  0  0  0  0  0  0  0999 V2000
   42.5460   21.7570   36.9270 O   0  0  0  0  0  0  0  0  0  0  0  0
   43.5480   22.0500   36.0440 C   0  0  0  0  0  0  0  0  0  0  0  0
   43.9250   21.1900   35.0570 N   0  0  0  0  0  0  0  0  0  0  0  0
   44.9090   21.4810   34.1910 C   0  0  0  0  0  0  0  0  0  0  0  0
   45.5890   22.6270   34.2310 N   0  0  0  0  0  0  0  0  0  0  0  0
   45.2710   23.5380   35.1880 C   0  0  0  0  0  0  0  0  0  0  0  0
   45.9710   24.7370   35.2400 C   0  0  0  0  0  0  0  0  0  0  0  0
   45.6020   25.6180   36.2340 C   0  0  0  0  0  0  0  0  0  0  0  0
   44.5960   25.3580   37.1430 C   0  0  0  0  0  0  0  0  0  0  0  0
   43.9080   24.1450   37.0680 C   0  0  0  0  0  0  0  0  0  0  0  0
   44.2480   23.2360   36.0890 C   0  0  0  0  0  0  0  0  0  0  0  0
   41.2430   22.1410   36.6620 C   0  0  0  0  0  0  0  0  0  0  0  0
   40.4720   22.6960   37.7050 C   0  0  0  0  0  0  0  0  0  0  0  0
   39.1540   23.0680   37.3770 C   0  0  0  0  0  0  0  0  0  0  0  0
   38.7160   22.8740   36.1080 N   0  0  0  0  0  0  0  0  0  0  0  0
   39.5150   22.3320   35.1490 C   0  0  0  0  0  0  0  0  0  0  0  0
   40.7670   21.9720   35.4350 N   0  0  0  0  0  0  0  0  0  0  0  0
   38.3820   23.6350   38.4630 C   0  0  0  0  0  0  0  0  0  0  0  0
   37.9430   24.9010   38.1300 F   0  0  0  0  0  0  0  0  0  0  0  0
   39.2480   23.8110   39.5370 F   0  0  0  0  0  0  0  0  0  0  0  0
   37.2930   22.8810   38.8230 F   0  0  0  0  0  0  0  0  0  0  0  0
   45.1647   20.7431   33.4163 H   0  0  0  0  0  0  0  0  0  0  0  0
   46.7755   24.9705   34.5271 H   0  0  0  0  0  0  0  0  0  0  0  0
   46.1362   26.5768   36.3066 H   0  0  0  0  0  0  0  0  0  0  0  0
   44.3396   26.0969   37.9165 H   0  0  0  0  0  0  0  0  0  0  0  0
   43.1033   23.9173   37.7826 H   0  0  0  0  0  0  0  0  0  0  0  0
   40.8779   22.8307   38.7184 H   0  0  0  0  0  0  0  0  0  0  0  0
   39.1253   22.1897   34.1302 H   0  0  0  0  0  0  0  0  0  0  0  0
  2 11  1  0
  2  1  1  0
  3  2  2  0
  4  5  2  0
  4  3  1  0
  5  6  1  0
  6  7  1  0
  6 11  2  0
  7  8  2  0
  8  9  1  0
 10  9  2  0
 11 10  1  0
 12  1  1  0
 12 13  2  0
 14 13  1  0
 14 18  1  0
 15 14  2  0
 16 17  2  0
 16 15  1  0
 17 12  1  0
 18 21  1  0
 18 20  1  0
 19 18  1  0
  4 22  1  0
  7 23  1  0
  8 24  1  0
  9 25  1  0
 10 26  1  0
 13 27  1  0
 16 28  1  0
M  ISO  7  22  14  23  14  24  14  25  14  26  14  27  14  28  14
M  END
>  <minimizedAffinity>  (1) 
-5.21962881

>  <minimizedRMSD>  (1) 
2.36159325

$$$$
