
     RDKit          3D

 27 28  0  0  0  0  0  0  0  0999 V2000
   40.7800   22.1560   36.2900 C   0  0  0  0  0  0  0  0  0  0  0  0
   40.1490   22.6090   37.4720 C   0  0  0  0  0  0  0  0  0  0  0  0
   38.8890   23.1860   37.3330 C   0  0  0  0  0  0  0  0  0  0  0  0
   38.3210   23.2940   36.1060 N   0  0  0  0  0  0  0  0  0  0  0  0
   38.9810   22.8370   34.9850 C   0  0  0  0  0  0  0  0  0  0  0  0
   40.1840   22.2810   35.0880 N   0  0  0  0  0  0  0  0  0  0  0  0
   38.2710   23.6390   38.5630 C   0  0  0  0  0  0  0  0  0  0  0  0
   37.7640   24.9180   38.4090 F   0  0  0  0  0  0  0  0  0  0  0  0
   39.2880   23.7580   39.5010 F   0  0  0  0  0  0  0  0  0  0  0  0
   37.2560   22.8380   39.0150 F   0  0  0  0  0  0  0  0  0  0  0  0
   42.0150   21.5830   36.3600 O   0  0  0  0  0  0  0  0  0  0  0  0
   43.2440   22.1030   36.5670 C   0  0  0  0  0  0  0  0  0  0  0  0
   44.3680   21.6770   35.6920 C   0  0  0  0  0  0  0  0  0  0  0  0
   45.4050   22.7530   35.9760 C   0  0  0  0  0  0  0  0  0  0  0  0
   44.6620   23.9570   36.4630 C   0  0  0  0  0  0  0  0  0  0  0  0
   43.2040   23.6150   36.4600 C   0  0  0  0  0  0  0  0  0  0  0  0
   40.6312   22.5102   38.4557 H   0  0  0  0  0  0  0  0  0  0  0  0
   38.5078   22.9334   33.9967 H   0  0  0  0  0  0  0  0  0  0  0  0
   43.4661   21.7022   37.5670 H   0  0  0  0  0  0  0  0  0  0  0  0
   44.0726   21.6746   34.6324 H   0  0  0  0  0  0  0  0  0  0  0  0
   44.7218   20.6537   35.8860 H   0  0  0  0  0  0  0  0  0  0  0  0
   46.1087   22.4057   36.7468 H   0  0  0  0  0  0  0  0  0  0  0  0
   45.9852   22.9883   35.0716 H   0  0  0  0  0  0  0  0  0  0  0  0
   44.9863   24.2119   37.4827 H   0  0  0  0  0  0  0  0  0  0  0  0
   44.8590   24.8235   35.8147 H   0  0  0  0  0  0  0  0  0  0  0  0
   42.6847   24.0644   37.3193 H   0  0  0  0  0  0  0  0  0  0  0  0
   42.6595   23.9866   35.5794 H   0  0  0  0  0  0  0  0  0  0  0  0
  1 11  1  0
  1  2  2  0
  3  2  1  0
  3  7  1  0
  4  3  2  0
  5  6  2  0
  5  4  1  0
  6  1  1  0
  7 10  1  0
  7  9  1  0
  8  7  1  0
 11 12  1  0
 13 14  1  0
 13 12  1  0
 14 15  1  0
 16 15  1  0
 16 12  1  0
  2 17  1  0
  5 18  1  0
 12 19  1  0
 13 20  1  0
 13 21  1  0
 14 22  1  0
 14 23  1  0
 15 24  1  0
 15 25  1  0
 16 26  1  0
 16 27  1  0
M  ISO  8  17  14  18  14  19  13  20  13  21  13  22  13  23  13  24  13
M  ISO  3  25  13  26  13  27  13
M  END
>  <minimizedAffinity>  (1) 
-4.55447865

>  <minimizedRMSD>  (1) 
1.66645837

$$$$
