
     RDKit          3D

 22 23  0  0  0  0  0  0  0  0999 V2000
   41.2020   22.1630   36.6470 C   0  0  0  0  0  0  0  0  0  0  0  0
   40.4190   22.6890   37.6930 C   0  0  0  0  0  0  0  0  0  0  0  0
   39.1050   23.0610   37.3930 C   0  0  0  0  0  0  0  0  0  0  0  0
   38.6630   22.9000   36.1390 N   0  0  0  0  0  0  0  0  0  0  0  0
   39.4470   22.3870   35.1470 C   0  0  0  0  0  0  0  0  0  0  0  0
   40.7130   22.0240   35.4170 N   0  0  0  0  0  0  0  0  0  0  0  0
   38.3390   23.5970   38.4990 C   0  0  0  0  0  0  0  0  0  0  0  0
   37.8380   24.8440   38.1730 F   0  0  0  0  0  0  0  0  0  0  0  0
   39.2320   23.8130   39.5450 F   0  0  0  0  0  0  0  0  0  0  0  0
   37.2980   22.7960   38.8910 F   0  0  0  0  0  0  0  0  0  0  0  0
   42.5060   21.7770   36.8770 O   0  0  0  0  0  0  0  0  0  0  0  0
   43.5230   22.5580   36.3610 C   0  0  0  0  0  0  0  0  0  0  0  0
   43.6420   23.8760   36.7860 C   0  0  0  0  0  0  0  0  0  0  0  0
   44.6260   24.7210   36.3210 C   0  0  0  0  0  0  0  0  0  0  0  0
   45.5200   24.2450   35.4090 N   0  0  0  0  0  0  0  0  0  0  0  0
   45.4020   22.9620   34.9980 C   0  0  0  0  0  0  0  0  0  0  0  0
   44.4330   22.1470   35.4610 N   0  0  0  0  0  0  0  0  0  0  0  0
   40.8262   22.8029   38.7085 H   0  0  0  0  0  0  0  0  0  0  0  0
   39.0446   22.2709   34.1299 H   0  0  0  0  0  0  0  0  0  0  0  0
   42.9216   24.2599   37.5233 H   0  0  0  0  0  0  0  0  0  0  0  0
   44.6888   25.7593   36.6788 H   0  0  0  0  0  0  0  0  0  0  0  0
   46.1199   22.5707   34.2621 H   0  0  0  0  0  0  0  0  0  0  0  0
  1 11  1  0
  1  2  2  0
  3  2  1  0
  3  7  1  0
  4  3  2  0
  5  6  2  0
  5  4  1  0
  6  1  1  0
  7 10  1  0
  7  9  1  0
  8  7  1  0
 12 13  2  0
 12 11  1  0
 14 13  1  0
 15 14  2  0
 16 15  1  0
 16 17  2  0
 17 12  1  0
  2 18  1  0
  5 19  1  0
 13 20  1  0
 14 21  1  0
 16 22  1  0
M  ISO  5  18  14  19  14  20  14  21  14  22  14
M  END
>  <minimizedAffinity>  (1) 
-4.5454483

>  <minimizedRMSD>  (1) 
2.14746332

$$$$
