
     RDKit          3D

 19 20  0  0  0  0  0  0  0  0999 V2000
   41.0380   22.1010   36.5510 C   0  0  0  0  0  0  0  0  0  0  0  0
   40.3190   22.6140   37.6450 C   0  0  0  0  0  0  0  0  0  0  0  0
   39.0330   23.1070   37.3890 C   0  0  0  0  0  0  0  0  0  0  0  0
   38.5540   23.0670   36.1290 N   0  0  0  0  0  0  0  0  0  0  0  0
   39.3030   22.5550   35.1060 C   0  0  0  0  0  0  0  0  0  0  0  0
   40.5210   22.0820   35.3160 N   0  0  0  0  0  0  0  0  0  0  0  0
   38.3300   23.6280   38.5540 C   0  0  0  0  0  0  0  0  0  0  0  0
   37.8380   24.8910   38.2770 F   0  0  0  0  0  0  0  0  0  0  0  0
   39.2590   23.7990   39.5530 F   0  0  0  0  0  0  0  0  0  0  0  0
   37.2810   22.8410   38.9570 F   0  0  0  0  0  0  0  0  0  0  0  0
   42.3200   21.6000   36.7580 O   0  0  0  0  0  0  0  0  0  0  0  0
   43.4110   22.3880   36.4560 C   0  0  0  0  0  0  0  0  0  0  0  0
   44.5700   21.9950   35.8900 N   0  0  0  0  0  0  0  0  0  0  0  0
   45.3720   23.0090   35.7530 O   0  0  0  0  0  0  0  0  0  0  0  0
   44.7720   24.1000   36.2230 C   0  0  0  0  0  0  0  0  0  0  0  0
   43.5500   23.7110   36.6600 N   0  0  0  0  0  0  0  0  0  0  0  0
   40.7477   22.6276   38.6579 H   0  0  0  0  0  0  0  0  0  0  0  0
   38.8850   22.5359   34.0887 H   0  0  0  0  0  0  0  0  0  0  0  0
   45.1870   25.1183   36.2512 H   0  0  0  0  0  0  0  0  0  0  0  0
  1 11  1  0
  1  2  2  0
  3  2  1  0
  3  7  1  0
  4  3  2  0
  5  6  2  0
  5  4  1  0
  6  1  1  0
  7 10  1  0
  7  9  1  0
  8  7  1  0
 12 16  1  0
 12 11  1  0
 13 12  2  0
 14 13  1  0
 14 15  1  0
 15 16  2  0
  2 17  1  0
  5 18  1  0
 15 19  1  0
M  ISO  3  17  14  18  14  19  14
M  END
>  <minimizedAffinity>  (1) 
-4.35864019

>  <minimizedRMSD>  (1) 
1.77939451

$$$$
