
     RDKit          3D

 16 16  0  0  0  0  0  0  0  0999 V2000
   41.1850   22.1880   36.6060 C   0  0  0  0  0  0  0  0  0  0  0  0
   40.4290   22.7270   37.6770 C   0  0  0  0  0  0  0  0  0  0  0  0
   39.1010   23.0700   37.3900 C   0  0  0  0  0  0  0  0  0  0  0  0
   38.6040   22.8820   36.1500 N   0  0  0  0  0  0  0  0  0  0  0  0
   39.3880   22.3560   35.1620 C   0  0  0  0  0  0  0  0  0  0  0  0
   40.6550   22.0150   35.3850 N   0  0  0  0  0  0  0  0  0  0  0  0
   38.3590   23.6230   38.5260 C   0  0  0  0  0  0  0  0  0  0  0  0
   37.8580   24.8530   38.2190 F   0  0  0  0  0  0  0  0  0  0  0  0
   39.2590   23.7990   39.5590 F   0  0  0  0  0  0  0  0  0  0  0  0
   37.2980   22.8120   38.9150 F   0  0  0  0  0  0  0  0  0  0  0  0
   42.5010   21.8210   36.7900 O   0  0  0  0  0  0  0  0  0  0  0  0
   43.5740   22.6320   36.4090 C   0  0  0  0  0  0  0  0  0  0  0  0
   43.7730   23.8390   36.7820 O   0  0  0  0  0  0  0  0  0  0  0  0
   40.8611   22.8683   38.6786 H   0  0  0  0  0  0  0  0  0  0  0  0
   38.9617   22.2110   34.1584 H   0  0  0  0  0  0  0  0  0  0  0  0
   44.3151   22.1916   35.7257 H   0  0  0  0  0  0  0  0  0  0  0  0
  1 11  1  0
  1  2  2  0
  3  2  1  0
  3  7  1  0
  4  3  2  0
  5  6  2  0
  5  4  1  0
  6  1  1  0
  7 10  1  0
  7  9  1  0
  8  7  1  0
 12 13  2  0
 12 11  1  0
  2 14  1  0
  5 15  1  0
 12 16  1  0
M  ISO  3  14  14  15  14  16   6
M  END
>  <minimizedAffinity>  (1) 
-3.93776703

>  <minimizedRMSD>  (1) 
0.469485968

$$$$
