
     RDKit          3D

 23 24  0  0  0  0  0  0  0  0999 V2000
   41.0250   22.4700   36.2870 C   0  0  0  0  0  0  0  0  0  0  0  0
   40.3390   22.9480   37.4190 C   0  0  0  0  0  0  0  0  0  0  0  0
   38.9580   23.0860   37.3220 C   0  0  0  0  0  0  0  0  0  0  0  0
   38.3400   22.7620   36.1750 N   0  0  0  0  0  0  0  0  0  0  0  0
   39.0400   22.3000   35.0980 C   0  0  0  0  0  0  0  0  0  0  0  0
   40.3530   22.1590   35.1600 N   0  0  0  0  0  0  0  0  0  0  0  0
   38.3070   23.5920   38.5280 C   0  0  0  0  0  0  0  0  0  0  0  0
   37.8150   24.8670   38.3030 F   0  0  0  0  0  0  0  0  0  0  0  0
   39.2860   23.7470   39.4930 F   0  0  0  0  0  0  0  0  0  0  0  0
   37.2670   22.8160   38.9640 F   0  0  0  0  0  0  0  0  0  0  0  0
   42.3850   22.3160   36.3230 O   0  0  0  0  0  0  0  0  0  0  0  0
   43.1380   21.2080   36.4990 C   0  0  0  0  0  0  0  0  0  0  0  0
   42.9340   19.9750   37.0810 C   0  0  0  0  0  0  0  0  0  0  0  0
   43.8870   18.9880   37.1320 C   0  0  0  0  0  0  0  0  0  0  0  0
   45.1110   19.2460   36.5690 C   0  0  0  0  0  0  0  0  0  0  0  0
   45.3440   20.4700   35.9790 C   0  0  0  0  0  0  0  0  0  0  0  0
   44.3710   21.4250   35.9500 N   0  0  0  0  0  0  0  0  0  0  0  0
   40.8744   23.2029   38.3455 H   0  0  0  0  0  0  0  0  0  0  0  0
   38.5071   22.0429   34.1707 H   0  0  0  0  0  0  0  0  0  0  0  0
   41.9511   19.7702   37.5304 H   0  0  0  0  0  0  0  0  0  0  0  0
   43.6755   18.0200   37.6097 H   0  0  0  0  0  0  0  0  0  0  0  0
   45.9014   18.4813   36.5882 H   0  0  0  0  0  0  0  0  0  0  0  0
   46.3249   20.6784   35.5270 H   0  0  0  0  0  0  0  0  0  0  0  0
  1 11  1  0
  1  2  2  0
  3  2  1  0
  3  7  1  0
  4  3  2  0
  5  6  2  0
  5  4  1  0
  6  1  1  0
  7 10  1  0
  7  9  1  0
  8  7  1  0
 11 12  1  0
 12 13  2  0
 13 14  1  0
 15 14  2  0
 16 15  1  0
 17 16  2  0
 17 12  1  0
  2 18  1  0
  5 19  1  0
 13 20  1  0
 14 21  1  0
 15 22  1  0
 16 23  1  0
M  ISO  6  18  14  19  14  20  14  21  14  22  14  23  14
M  END
>  <minimizedAffinity>  (1) 
-4.43411827

>  <minimizedRMSD>  (1) 
1.06278265

$$$$
