
     RDKit          3D

 37 40  0  0  0  0  0  0  0  0999 V2000
   43.1420   21.5120   36.3300 C   0  0  0  0  0  0  0  0  0  0  0  0
   43.0170   20.2190   36.8180 C   0  0  0  0  0  0  0  0  0  0  0  0
   44.0510   19.3270   36.9130 C   0  0  0  0  0  0  0  0  0  0  0  0
   45.2810   19.7420   36.5010 C   0  0  0  0  0  0  0  0  0  0  0  0
   45.4420   21.0320   36.0070 C   0  0  0  0  0  0  0  0  0  0  0  0
   44.3750   21.8990   35.9270 N   0  0  0  0  0  0  0  0  0  0  0  0
   46.7880   21.4700   35.5610 C   0  0  0  0  0  0  0  0  0  0  0  0
   47.5220   20.8600   34.5670 C   0  0  0  0  0  0  0  0  0  0  0  0
   48.6790   21.5670   34.4770 N   0  0  0  0  0  0  0  0  0  0  0  0
   48.6450   22.5770   35.3900 C   0  0  0  0  0  0  0  0  0  0  0  0
   49.5720   23.5560   35.6820 C   0  0  0  0  0  0  0  0  0  0  0  0
   49.3540   24.5070   36.6580 C   0  0  0  0  0  0  0  0  0  0  0  0
   48.1580   24.4770   37.3710 C   0  0  0  0  0  0  0  0  0  0  0  0
   47.2290   23.4920   37.0750 C   0  0  0  0  0  0  0  0  0  0  0  0
   47.4610   22.5480   36.0970 C   0  0  0  0  0  0  0  0  0  0  0  0
   42.2690   22.5010   36.1660 O   0  0  0  0  0  0  0  0  0  0  0  0
   40.9170   22.5630   36.2050 C   0  0  0  0  0  0  0  0  0  0  0  0
   40.2570   23.0240   37.3720 C   0  0  0  0  0  0  0  0  0  0  0  0
   38.8690   23.0580   37.3320 C   0  0  0  0  0  0  0  0  0  0  0  0
   38.2160   22.6630   36.2170 N   0  0  0  0  0  0  0  0  0  0  0  0
   38.8940   22.2270   35.1170 C   0  0  0  0  0  0  0  0  0  0  0  0
   40.2130   22.1830   35.1250 N   0  0  0  0  0  0  0  0  0  0  0  0
   38.2350   23.5370   38.5550 C   0  0  0  0  0  0  0  0  0  0  0  0
   37.6620   24.7750   38.3510 F   0  0  0  0  0  0  0  0  0  0  0  0
   39.2290   23.7390   39.4800 F   0  0  0  0  0  0  0  0  0  0  0  0
   37.2520   22.7030   39.0380 F   0  0  0  0  0  0  0  0  0  0  0  0
   42.0216   19.8892   37.1503 H   0  0  0  0  0  0  0  0  0  0  0  0
   43.8942   18.3123   37.3076 H   0  0  0  0  0  0  0  0  0  0  0  0
   46.1425   19.0605   36.5587 H   0  0  0  0  0  0  0  0  0  0  0  0
   47.2316   19.9828   33.9702 H   0  0  0  0  0  0  0  0  0  0  0  0
   49.4531   21.3715   33.8263 H   0  0  0  0  0  0  0  0  0  0  0  0
   50.5162   23.5794   35.1182 H   0  0  0  0  0  0  0  0  0  0  0  0
   50.1120   25.2757   36.8692 H   0  0  0  0  0  0  0  0  0  0  0  0
   47.9544   25.2215   38.1548 H   0  0  0  0  0  0  0  0  0  0  0  0
   46.2824   23.4625   37.6345 H   0  0  0  0  0  0  0  0  0  0  0  0
   40.8165   23.3392   38.2651 H   0  0  0  0  0  0  0  0  0  0  0  0
   38.3400   21.9112   34.2207 H   0  0  0  0  0  0  0  0  0  0  0  0
  1  2  2  0
  2  3  1  0
  4  3  2  0
  5  4  1  0
  6  5  2  0
  6  1  1  0
  7  5  1  0
  7 15  1  0
  8  7  2  0
  9  8  1  0
  9 10  1  0
 10 11  2  0
 10 15  1  0
 11 12  1  0
 12 13  2  0
 14 13  1  0
 15 14  2  0
 16 17  1  0
 16  1  1  0
 17 18  2  0
 19 18  1  0
 19 23  1  0
 20 19  2  0
 21 22  2  0
 21 20  1  0
 22 17  1  0
 23 26  1  0
 23 25  1  0
 24 23  1  0
  2 27  1  0
  3 28  1  0
  4 29  1  0
  8 30  1  0
  9 31  1  0
 11 32  1  0
 12 33  1  0
 13 34  1  0
 14 35  1  0
 18 36  1  0
 21 37  1  0
M  ISO  8  27  14  28  14  29  14  30  14  31   9  32  14  33  14  34  14
M  ISO  3  35  14  36  14  37  14
M  END
>  <minimizedAffinity>  (1) 
-4.89211512

>  <minimizedRMSD>  (1) 
0.982736468

$$$$
