
     RDKit          3D

 33 35  0  0  0  0  0  0  0  0999 V2000
   43.1350   21.2290   36.4720 C   0  0  0  0  0  0  0  0  0  0  0  0
   42.9000   19.9760   37.0230 C   0  0  0  0  0  0  0  0  0  0  0  0
   43.8420   18.9840   37.1110 C   0  0  0  0  0  0  0  0  0  0  0  0
   45.0880   19.2480   36.6260 C   0  0  0  0  0  0  0  0  0  0  0  0
   45.3500   20.4900   36.0700 C   0  0  0  0  0  0  0  0  0  0  0  0
   44.3790   21.4630   35.9990 N   0  0  0  0  0  0  0  0  0  0  0  0
   46.6810   20.6620   35.5940 N   0  0  0  0  0  0  0  0  0  0  0  0
   47.5000   19.8080   34.9950 C   0  0  0  0  0  0  0  0  0  0  0  0
   48.7660   20.2200   34.6200 C   0  0  0  0  0  0  0  0  0  0  0  0
   49.2050   21.5080   34.8540 C   0  0  0  0  0  0  0  0  0  0  0  0
   50.3530   21.8760   34.5130 O   0  0  0  0  0  0  0  0  0  0  0  0
   48.3420   22.3430   35.4640 N   0  0  0  0  0  0  0  0  0  0  0  0
   47.0990   21.9390   35.8320 C   0  0  0  0  0  0  0  0  0  0  0  0
   46.4270   22.8680   36.3950 O   0  0  0  0  0  0  0  0  0  0  0  0
   42.3540   22.2930   36.3060 O   0  0  0  0  0  0  0  0  0  0  0  0
   41.0000   22.4610   36.2740 C   0  0  0  0  0  0  0  0  0  0  0  0
   40.3360   22.9520   37.4140 C   0  0  0  0  0  0  0  0  0  0  0  0
   38.9530   23.1030   37.3230 C   0  0  0  0  0  0  0  0  0  0  0  0
   38.3300   22.7820   36.1790 N   0  0  0  0  0  0  0  0  0  0  0  0
   39.0160   22.3090   35.0980 C   0  0  0  0  0  0  0  0  0  0  0  0
   40.3270   22.1530   35.1470 N   0  0  0  0  0  0  0  0  0  0  0  0
   38.3030   23.6100   38.5180 C   0  0  0  0  0  0  0  0  0  0  0  0
   37.8100   24.8780   38.3070 F   0  0  0  0  0  0  0  0  0  0  0  0
   39.2810   23.7390   39.4910 F   0  0  0  0  0  0  0  0  0  0  0  0
   37.2710   22.8160   38.9680 F   0  0  0  0  0  0  0  0  0  0  0  0
   41.8934   19.7661   37.4139 H   0  0  0  0  0  0  0  0  0  0  0  0
   43.6005   18.0083   37.5578 H   0  0  0  0  0  0  0  0  0  0  0  0
   45.8772   18.4834   36.6754 H   0  0  0  0  0  0  0  0  0  0  0  0
   47.1738   18.7763   34.7972 H   0  0  0  0  0  0  0  0  0  0  0  0
   49.4387   19.5049   34.1238 H   0  0  0  0  0  0  0  0  0  0  0  0
   48.6322   23.3124   35.6562 H   0  0  0  0  0  0  0  0  0  0  0  0
   40.8831   23.2049   38.3342 H   0  0  0  0  0  0  0  0  0  0  0  0
   38.4717   22.0551   34.1765 H   0  0  0  0  0  0  0  0  0  0  0  0
  1  2  2  0
  2  3  1  0
  4  3  2  0
  5  4  1  0
  6  5  2  0
  6  1  1  0
  7 13  1  0
  7  5  1  0
  8  7  1  0
  9 10  1  0
  9  8  2  0
 10 12  1  0
 11 10  2  0
 12 13  1  0
 13 14  2  0
 15  1  1  0
 16 15  1  0
 16 17  2  0
 18 17  1  0
 18 22  1  0
 19 18  2  0
 20 21  2  0
 20 19  1  0
 21 16  1  0
 22 25  1  0
 22 24  1  0
 23 22  1  0
  2 26  1  0
  3 27  1  0
  4 28  1  0
  8 29  1  0
  9 30  1  0
 12 31  1  0
 17 32  1  0
 20 33  1  0
M  ISO  8  26  14  27  14  28  14  29  14  30  14  31   9  32  14  33  14
M  END
>  <minimizedAffinity>  (1) 
-4.80342484

>  <minimizedRMSD>  (1) 
0.182355821

$$$$
