
     RDKit          3D

 37 39  0  0  0  0  0  0  0  0999 V2000
   43.1000   21.2470   36.4320 C   0  0  0  0  0  0  0  0  0  0  0  0
   42.8580   19.9910   36.9790 C   0  0  0  0  0  0  0  0  0  0  0  0
   43.8440   19.0450   37.0670 C   0  0  0  0  0  0  0  0  0  0  0  0
   45.0940   19.3360   36.6080 C   0  0  0  0  0  0  0  0  0  0  0  0
   45.3400   20.5690   36.0670 C   0  0  0  0  0  0  0  0  0  0  0  0
   44.3610   21.5020   35.9830 N   0  0  0  0  0  0  0  0  0  0  0  0
   46.6400   20.8860   35.5830 N   0  0  0  0  0  0  0  0  0  0  0  0
   47.8380   20.8490   36.3870 C   0  0  0  0  0  0  0  0  0  0  0  0
   48.1980   22.3110   36.6540 C   0  0  0  0  0  0  0  0  0  0  0  0
   47.8490   23.0970   35.5100 N   0  0  0  0  0  0  0  0  0  0  0  0
   47.9070   22.3680   34.2500 C   0  0  0  0  0  0  0  0  0  0  0  0
   46.8450   21.2840   34.1980 C   0  0  0  0  0  0  0  0  0  0  0  0
   42.3090   22.3230   36.2400 O   0  0  0  0  0  0  0  0  0  0  0  0
   40.9630   22.4760   36.2290 C   0  0  0  0  0  0  0  0  0  0  0  0
   40.3050   22.9600   37.3880 C   0  0  0  0  0  0  0  0  0  0  0  0
   38.9180   23.0910   37.3010 C   0  0  0  0  0  0  0  0  0  0  0  0
   38.2760   22.7710   36.1760 N   0  0  0  0  0  0  0  0  0  0  0  0
   38.9570   22.3040   35.0760 C   0  0  0  0  0  0  0  0  0  0  0  0
   40.2660   22.1690   35.1270 N   0  0  0  0  0  0  0  0  0  0  0  0
   38.2860   23.5970   38.5280 C   0  0  0  0  0  0  0  0  0  0  0  0
   37.7970   24.8740   38.3180 F   0  0  0  0  0  0  0  0  0  0  0  0
   39.2770   23.7430   39.4800 F   0  0  0  0  0  0  0  0  0  0  0  0
   37.2580   22.8210   38.9780 F   0  0  0  0  0  0  0  0  0  0  0  0
   41.8503   19.7521   37.3497 H   0  0  0  0  0  0  0  0  0  0  0  0
   43.6292   18.0588   37.5043 H   0  0  0  0  0  0  0  0  0  0  0  0
   45.8973   18.5872   36.6717 H   0  0  0  0  0  0  0  0  0  0  0  0
   47.6494   20.3208   37.3333 H   0  0  0  0  0  0  0  0  0  0  0  0
   48.6539   20.3148   35.8781 H   0  0  0  0  0  0  0  0  0  0  0  0
   47.6428   22.6724   37.5322 H   0  0  0  0  0  0  0  0  0  0  0  0
   49.2776   22.3970   36.8467 H   0  0  0  0  0  0  0  0  0  0  0  0
   46.8886   23.4466   35.6380 H   0  0  0  0  0  0  0  0  0  0  0  0
   47.7440   23.0712   33.4200 H   0  0  0  0  0  0  0  0  0  0  0  0
   48.8958   21.8936   34.1653 H   0  0  0  0  0  0  0  0  0  0  0  0
   45.9124   21.6776   33.7674 H   0  0  0  0  0  0  0  0  0  0  0  0
   47.1520   20.4367   33.5672 H   0  0  0  0  0  0  0  0  0  0  0  0
   40.8565   23.2178   38.3042 H   0  0  0  0  0  0  0  0  0  0  0  0
   38.4104   22.0443   34.1574 H   0  0  0  0  0  0  0  0  0  0  0  0
  1  2  2  0
  2  3  1  0
  4  3  2  0
  5  4  1  0
  6  5  2  0
  6  1  1  0
  7  5  1  0
  7  8  1  0
  8  9  1  0
 10  9  1  0
 11 10  1  0
 12 11  1  0
 12  7  1  0
 13  1  1  0
 14 13  1  0
 14 15  2  0
 16 15  1  0
 16 20  1  0
 17 16  2  0
 18 19  2  0
 18 17  1  0
 19 14  1  0
 20 23  1  0
 20 22  1  0
 21 20  1  0
  2 24  1  0
  3 25  1  0
  4 26  1  0
  8 27  1  0
  8 28  1  0
  9 29  1  0
  9 30  1  0
 10 31  1  0
 11 32  1  0
 11 33  1  0
 12 34  1  0
 12 35  1  0
 15 36  1  0
 18 37  1  0
M  ISO  8  24  14  25  14  26  14  27  13  28  13  29  13  30  13  31   5
M  ISO  6  32  13  33  13  34  13  35  13  36  14  37  14
M  END
>  <minimizedAffinity>  (1) 
-4.75859165

>  <minimizedRMSD>  (1) 
0.172021642

$$$$
