
     RDKit          3D

 30 31  0  0  0  0  0  0  0  0999 V2000
   43.1520   21.2170   36.4920 C   0  0  0  0  0  0  0  0  0  0  0  0
   42.9370   19.9830   37.0680 C   0  0  0  0  0  0  0  0  0  0  0  0
   43.8700   18.9820   37.1340 C   0  0  0  0  0  0  0  0  0  0  0  0
   45.0980   19.2340   36.5880 C   0  0  0  0  0  0  0  0  0  0  0  0
   45.3470   20.4710   35.9980 C   0  0  0  0  0  0  0  0  0  0  0  0
   44.3790   21.4280   35.9620 N   0  0  0  0  0  0  0  0  0  0  0  0
   46.6460   20.7400   35.4180 N   0  0  0  0  0  0  0  0  0  0  0  0
   47.1480   22.0830   35.4030 C   0  0  0  0  0  0  0  0  0  0  0  0
   46.7910   22.8280   36.3960 N   0  0  0  0  0  0  0  0  0  0  0  0
   47.9880   22.4210   34.2790 N   0  0  0  0  0  0  0  0  0  0  0  0
   47.0940   23.8230   36.4950 H   0  0  0  0  0  0  0  0  0  0  0  0
   42.3710   22.2940   36.3400 O   0  0  0  0  0  0  0  0  0  0  0  0
   41.0190   22.4550   36.2880 C   0  0  0  0  0  0  0  0  0  0  0  0
   40.3460   22.9370   37.4270 C   0  0  0  0  0  0  0  0  0  0  0  0
   38.9600   23.0840   37.3220 C   0  0  0  0  0  0  0  0  0  0  0  0
   38.3470   22.7720   36.1800 N   0  0  0  0  0  0  0  0  0  0  0  0
   39.0460   22.3060   35.0970 C   0  0  0  0  0  0  0  0  0  0  0  0
   40.3560   22.1510   35.1500 N   0  0  0  0  0  0  0  0  0  0  0  0
   38.3150   23.5870   38.5330 C   0  0  0  0  0  0  0  0  0  0  0  0
   37.8230   24.8690   38.3030 F   0  0  0  0  0  0  0  0  0  0  0  0
   39.2910   23.7470   39.4910 F   0  0  0  0  0  0  0  0  0  0  0  0
   37.2660   22.8140   38.9600 F   0  0  0  0  0  0  0  0  0  0  0  0
   41.9466   19.7885   37.5054 H   0  0  0  0  0  0  0  0  0  0  0  0
   43.6407   18.0156   37.6067 H   0  0  0  0  0  0  0  0  0  0  0  0
   45.8841   18.4650   36.6145 H   0  0  0  0  0  0  0  0  0  0  0  0
   47.2053   19.9725   35.0192 H   0  0  0  0  0  0  0  0  0  0  0  0
   48.3857   23.3678   34.1996 H   0  0  0  0  0  0  0  0  0  0  0  0
   48.1897   21.7154   33.5563 H   0  0  0  0  0  0  0  0  0  0  0  0
   40.8843   23.1855   38.3535 H   0  0  0  0  0  0  0  0  0  0  0  0
   38.5078   22.0576   34.1704 H   0  0  0  0  0  0  0  0  0  0  0  0
  1  2  2  0
  2  3  1  0
  4  3  2  0
  5  4  1  0
  6  5  2  0
  6  1  1  0
  7  5  1  0
  8  7  1  0
  8  9  2  0
  9 11  1  0
 10  8  1  0
 12  1  1  0
 13 12  1  0
 13 14  2  0
 15 14  1  0
 15 19  1  0
 16 15  2  0
 17 18  2  0
 17 16  1  0
 18 13  1  0
 19 22  1  0
 19 21  1  0
 20 19  1  0
  2 23  1  0
  3 24  1  0
  4 25  1  0
  7 26  1  0
 10 27  1  0
 10 28  1  0
 14 29  1  0
 17 30  1  0
M  ISO  5  23  14  24  14  25  14  29  14  30  14
M  END
>  <minimizedAffinity>  (1) 
-4.68844891

>  <minimizedRMSD>  (1) 
0.0336550139

$$$$
