
     RDKit          3D

 30 32  0  0  0  0  0  0  0  0999 V2000
   43.1390   21.1930   36.4770 C   0  0  0  0  0  0  0  0  0  0  0  0
   42.8940   19.9360   37.0200 C   0  0  0  0  0  0  0  0  0  0  0  0
   43.8570   18.9740   37.0970 C   0  0  0  0  0  0  0  0  0  0  0  0
   45.1060   19.2490   36.6250 C   0  0  0  0  0  0  0  0  0  0  0  0
   45.3630   20.4820   36.0870 C   0  0  0  0  0  0  0  0  0  0  0  0
   44.3860   21.4500   36.0130 N   0  0  0  0  0  0  0  0  0  0  0  0
   46.7000   20.6760   35.6210 N   0  0  0  0  0  0  0  0  0  0  0  0
   47.2710   20.1340   34.5550 C   0  0  0  0  0  0  0  0  0  0  0  0
   48.5640   20.6290   34.5300 C   0  0  0  0  0  0  0  0  0  0  0  0
   48.7250   21.4600   35.5950 N   0  0  0  0  0  0  0  0  0  0  0  0
   47.5640   21.4920   36.2770 C   0  0  0  0  0  0  0  0  0  0  0  0
   42.3600   22.2810   36.3000 O   0  0  0  0  0  0  0  0  0  0  0  0
   41.0120   22.4520   36.2790 C   0  0  0  0  0  0  0  0  0  0  0  0
   40.3450   22.9350   37.4280 C   0  0  0  0  0  0  0  0  0  0  0  0
   38.9590   23.0800   37.3190 C   0  0  0  0  0  0  0  0  0  0  0  0
   38.3380   22.7700   36.1720 N   0  0  0  0  0  0  0  0  0  0  0  0
   39.0310   22.3050   35.0820 C   0  0  0  0  0  0  0  0  0  0  0  0
   40.3400   22.1580   35.1560 N   0  0  0  0  0  0  0  0  0  0  0  0
   38.3090   23.5810   38.5320 C   0  0  0  0  0  0  0  0  0  0  0  0
   37.8170   24.8640   38.2980 F   0  0  0  0  0  0  0  0  0  0  0  0
   39.2900   23.7430   39.4860 F   0  0  0  0  0  0  0  0  0  0  0  0
   37.2700   22.8160   38.9620 F   0  0  0  0  0  0  0  0  0  0  0  0
   41.8871   19.7100   37.4010 H   0  0  0  0  0  0  0  0  0  0  0  0
   43.6295   17.9903   37.5336 H   0  0  0  0  0  0  0  0  0  0  0  0
   45.8992   18.4885   36.6757 H   0  0  0  0  0  0  0  0  0  0  0  0
   46.8130   19.4359   33.8388 H   0  0  0  0  0  0  0  0  0  0  0  0
   49.3302   20.3909   33.7775 H   0  0  0  0  0  0  0  0  0  0  0  0
   47.3559   22.0687   37.1903 H   0  0  0  0  0  0  0  0  0  0  0  0
   40.8851   23.1823   38.3538 H   0  0  0  0  0  0  0  0  0  0  0  0
   38.4980   22.0564   34.1524 H   0  0  0  0  0  0  0  0  0  0  0  0
  1  2  2  0
  2  3  1  0
  4  3  2  0
  5  4  1  0
  6  5  2  0
  6  1  1  0
  7  5  1  0
  7 11  1  0
  8  7  1  0
  9  8  2  0
  9 10  1  0
 10 11  2  0
 12  1  1  0
 13 12  1  0
 13 14  2  0
 15 14  1  0
 15 19  1  0
 16 15  2  0
 17 18  2  0
 17 16  1  0
 18 13  1  0
 19 22  1  0
 19 21  1  0
 20 19  1  0
  2 23  1  0
  3 24  1  0
  4 25  1  0
  8 26  1  0
  9 27  1  0
 11 28  1  0
 14 29  1  0
 17 30  1  0
M  ISO  8  23  14  24  14  25  14  26  14  27  14  28  14  29  14  30  14
M  END
>  <minimizedAffinity>  (1) 
-4.64224482

>  <minimizedRMSD>  (1) 
0.113353968

$$$$
