
     RDKit          3D

 33 35  0  0  0  0  0  0  0  0999 V2000
   43.0900   21.1880   36.4500 C   0  0  0  0  0  0  0  0  0  0  0  0
   42.8280   19.9250   36.9390 C   0  0  0  0  0  0  0  0  0  0  0  0
   43.7720   18.9310   37.0470 C   0  0  0  0  0  0  0  0  0  0  0  0
   45.0530   19.2450   36.6340 C   0  0  0  0  0  0  0  0  0  0  0  0
   45.3420   20.4900   36.1450 C   0  0  0  0  0  0  0  0  0  0  0  0
   44.3700   21.4310   36.0610 N   0  0  0  0  0  0  0  0  0  0  0  0
   46.6960   20.8510   35.6990 C   0  0  0  0  0  0  0  0  0  0  0  0
   47.2860   21.9630   36.2560 C   0  0  0  0  0  0  0  0  0  0  0  0
   48.5450   22.4150   35.9320 C   0  0  0  0  0  0  0  0  0  0  0  0
   49.2540   21.6850   34.9740 C   0  0  0  0  0  0  0  0  0  0  0  0
   48.6720   20.5540   34.3940 C   0  0  0  0  0  0  0  0  0  0  0  0
   47.3870   20.1320   34.7570 C   0  0  0  0  0  0  0  0  0  0  0  0
   42.3160   22.2650   36.2740 O   0  0  0  0  0  0  0  0  0  0  0  0
   40.9730   22.4440   36.2490 C   0  0  0  0  0  0  0  0  0  0  0  0
   40.3190   22.9370   37.4040 C   0  0  0  0  0  0  0  0  0  0  0  0
   38.9350   23.0980   37.3110 C   0  0  0  0  0  0  0  0  0  0  0  0
   38.2970   22.7950   36.1740 N   0  0  0  0  0  0  0  0  0  0  0  0
   38.9750   22.3230   35.0830 C   0  0  0  0  0  0  0  0  0  0  0  0
   40.2850   22.1530   35.1250 N   0  0  0  0  0  0  0  0  0  0  0  0
   38.2970   23.6050   38.5150 C   0  0  0  0  0  0  0  0  0  0  0  0
   37.8080   24.8810   38.3080 F   0  0  0  0  0  0  0  0  0  0  0  0
   39.2860   23.7360   39.4810 F   0  0  0  0  0  0  0  0  0  0  0  0
   37.2650   22.8190   38.9740 F   0  0  0  0  0  0  0  0  0  0  0  0
   41.8011   19.6992   37.2623 H   0  0  0  0  0  0  0  0  0  0  0  0
   43.5202   17.9358   37.4423 H   0  0  0  0  0  0  0  0  0  0  0  0
   45.8476   18.4871   36.6990 H   0  0  0  0  0  0  0  0  0  0  0  0
   46.7146   22.5265   37.0083 H   0  0  0  0  0  0  0  0  0  0  0  0
   48.9738   23.3104   36.4057 H   0  0  0  0  0  0  0  0  0  0  0  0
   50.2657   21.9991   34.6776 H   0  0  0  0  0  0  0  0  0  0  0  0
   49.2338   19.9850   33.6386 H   0  0  0  0  0  0  0  0  0  0  0  0
   46.9396   19.2397   34.2949 H   0  0  0  0  0  0  0  0  0  0  0  0
   40.8708   23.1799   38.3241 H   0  0  0  0  0  0  0  0  0  0  0  0
   38.4241   22.0827   34.1617 H   0  0  0  0  0  0  0  0  0  0  0  0
  1  2  2  0
  2  3  1  0
  4  3  2  0
  5  4  1  0
  6  5  2  0
  6  1  1  0
  7  5  1  0
  7  8  2  0
  9  8  1  0
 10  9  2  0
 11 12  2  0
 11 10  1  0
 12  7  1  0
 13  1  1  0
 14 13  1  0
 14 15  2  0
 16 15  1  0
 16 20  1  0
 17 16  2  0
 18 19  2  0
 18 17  1  0
 19 14  1  0
 20 23  1  0
 20 22  1  0
 21 20  1  0
  2 24  1  0
  3 25  1  0
  4 26  1  0
  8 27  1  0
  9 28  1  0
 10 29  1  0
 11 30  1  0
 12 31  1  0
 15 32  1  0
 18 33  1  0
M  ISO  8  24  14  25  14  26  14  27  14  28  14  29  14  30  14  31  14
M  ISO  2  32  14  33  14
M  END
>  <minimizedAffinity>  (1) 
-4.52615786

>  <minimizedRMSD>  (1) 
0.369017899

$$$$
