
     RDKit          3D

 32 33  0  0  0  0  0  0  0  0999 V2000
   42.3220   22.2730   36.2230 O   0  0  0  0  0  0  0  0  0  0  0  0
   43.0700   21.1710   36.4370 C   0  0  0  0  0  0  0  0  0  0  0  0
   42.7840   19.8920   36.9020 C   0  0  0  0  0  0  0  0  0  0  0  0
   43.7320   18.9180   37.0370 C   0  0  0  0  0  0  0  0  0  0  0  0
   45.0260   19.2190   36.6980 C   0  0  0  0  0  0  0  0  0  0  0  0
   45.3310   20.4730   36.2370 C   0  0  0  0  0  0  0  0  0  0  0  0
   44.3710   21.4490   36.1030 N   0  0  0  0  0  0  0  0  0  0  0  0
   46.7650   20.6840   35.9000 C   0  0  0  0  0  0  0  0  0  0  0  0
   47.2430   22.0770   36.1340 C   0  0  0  0  0  0  0  0  0  0  0  0
   47.6510   19.6480   36.5550 C   0  0  0  0  0  0  0  0  0  0  0  0
   40.9620   22.4450   36.2040 C   0  0  0  0  0  0  0  0  0  0  0  0
   40.3120   22.9300   37.3630 C   0  0  0  0  0  0  0  0  0  0  0  0
   38.9290   23.0860   37.2880 C   0  0  0  0  0  0  0  0  0  0  0  0
   38.2850   22.7830   36.1610 N   0  0  0  0  0  0  0  0  0  0  0  0
   38.9500   22.3180   35.0650 C   0  0  0  0  0  0  0  0  0  0  0  0
   40.2600   22.1560   35.0940 N   0  0  0  0  0  0  0  0  0  0  0  0
   38.3100   23.5910   38.5200 C   0  0  0  0  0  0  0  0  0  0  0  0
   37.8230   24.8770   38.3050 F   0  0  0  0  0  0  0  0  0  0  0  0
   39.3050   23.7210   39.4590 F   0  0  0  0  0  0  0  0  0  0  0  0
   37.2750   22.8250   38.9680 F   0  0  0  0  0  0  0  0  0  0  0  0
   41.7452   19.6534   37.1740 H   0  0  0  0  0  0  0  0  0  0  0  0
   43.4642   17.9177   37.4082 H   0  0  0  0  0  0  0  0  0  0  0  0
   45.8147   18.4584   36.7955 H   0  0  0  0  0  0  0  0  0  0  0  0
   46.8413   20.5410   34.8120 H   0  0  0  0  0  0  0  0  0  0  0  0
   47.3077   22.2656   37.2158 H   0  0  0  0  0  0  0  0  0  0  0  0
   48.2365   22.2050   35.6794 H   0  0  0  0  0  0  0  0  0  0  0  0
   46.5374   22.7880   35.6794 H   0  0  0  0  0  0  0  0  0  0  0  0
   47.5739   19.7382   37.6486 H   0  0  0  0  0  0  0  0  0  0  0  0
   47.3292   18.6424   36.2464 H   0  0  0  0  0  0  0  0  0  0  0  0
   48.6943   19.8099   36.2464 H   0  0  0  0  0  0  0  0  0  0  0  0
   40.8709   23.1723   38.2790 H   0  0  0  0  0  0  0  0  0  0  0  0
   38.3905   22.0759   34.1494 H   0  0  0  0  0  0  0  0  0  0  0  0
  1  2  1  0
  2  3  2  0
  3  4  1  0
  5  4  2  0
  6  5  1  0
  7  6  2  0
  7  2  1  0
  8  9  1  0
  8  6  1  0
  8 10  1  0
 11  1  1  0
 11 12  2  0
 13 12  1  0
 13 17  1  0
 14 13  2  0
 15 16  2  0
 15 14  1  0
 16 11  1  0
 17 20  1  0
 17 19  1  0
 18 17  1  0
  3 21  1  0
  4 22  1  0
  5 23  1  0
  8 24  1  0
  9 25  1  0
  9 26  1  0
  9 27  1  0
 10 28  1  0
 10 29  1  0
 10 30  1  0
 12 31  1  0
 15 32  1  0
M  ISO  8  21  14  22  14  23  14  24   8  25   8  26   8  27   8  28   8
M  ISO  4  29   8  30   8  31  14  32  14
M  END
>  <minimizedAffinity>  (1) 
-4.49639797

>  <minimizedRMSD>  (1) 
0.489071906

$$$$
