
     RDKit          3D

 32 34  0  0  0  0  0  0  0  0999 V2000
   43.0740   21.2260   36.4300 C   0  0  0  0  0  0  0  0  0  0  0  0
   42.8220   19.9530   36.9300 C   0  0  0  0  0  0  0  0  0  0  0  0
   43.8090   19.0130   37.0320 C   0  0  0  0  0  0  0  0  0  0  0  0
   45.0750   19.3230   36.6360 C   0  0  0  0  0  0  0  0  0  0  0  0
   45.3460   20.5710   36.1410 C   0  0  0  0  0  0  0  0  0  0  0  0
   44.3530   21.5000   36.0450 N   0  0  0  0  0  0  0  0  0  0  0  0
   46.7020   20.9140   35.7150 C   0  0  0  0  0  0  0  0  0  0  0  0
   47.4430   21.8970   36.2750 C   0  0  0  0  0  0  0  0  0  0  0  0
   48.7220   22.2230   35.8740 C   0  0  0  0  0  0  0  0  0  0  0  0
   49.2990   21.5210   34.8460 C   0  0  0  0  0  0  0  0  0  0  0  0
   48.5140   20.5280   34.3000 C   0  0  0  0  0  0  0  0  0  0  0  0
   47.2690   20.2270   34.7070 N   0  0  0  0  0  0  0  0  0  0  0  0
   42.2940   22.3020   36.2340 O   0  0  0  0  0  0  0  0  0  0  0  0
   40.9470   22.4600   36.2210 C   0  0  0  0  0  0  0  0  0  0  0  0
   40.3000   22.9470   37.3830 C   0  0  0  0  0  0  0  0  0  0  0  0
   38.9150   23.0890   37.3090 C   0  0  0  0  0  0  0  0  0  0  0  0
   38.2650   22.7680   36.1750 N   0  0  0  0  0  0  0  0  0  0  0  0
   38.9360   22.3010   35.0770 C   0  0  0  0  0  0  0  0  0  0  0  0
   40.2490   22.1570   35.1190 N   0  0  0  0  0  0  0  0  0  0  0  0
   38.2910   23.5920   38.5240 C   0  0  0  0  0  0  0  0  0  0  0  0
   37.7970   24.8690   38.3240 F   0  0  0  0  0  0  0  0  0  0  0  0
   39.2840   23.7330   39.4680 F   0  0  0  0  0  0  0  0  0  0  0  0
   37.2570   22.8210   38.9780 F   0  0  0  0  0  0  0  0  0  0  0  0
   41.8020   19.6960   37.2517 H   0  0  0  0  0  0  0  0  0  0  0  0
   43.5826   18.0132   37.4310 H   0  0  0  0  0  0  0  0  0  0  0  0
   45.8767   18.5738   36.7135 H   0  0  0  0  0  0  0  0  0  0  0  0
   46.9986   22.4718   37.1009 H   0  0  0  0  0  0  0  0  0  0  0  0
   49.2721   23.0351   36.3719 H   0  0  0  0  0  0  0  0  0  0  0  0
   50.3152   21.7352   34.4835 H   0  0  0  0  0  0  0  0  0  0  0  0
   48.9368   19.9400   33.4721 H   0  0  0  0  0  0  0  0  0  0  0  0
   40.8604   23.1997   38.2952 H   0  0  0  0  0  0  0  0  0  0  0  0
   38.3830   22.0459   34.1609 H   0  0  0  0  0  0  0  0  0  0  0  0
  1  2  2  0
  2  3  1  0
  4  3  2  0
  5  4  1  0
  6  5  2  0
  6  1  1  0
  7  5  1  0
  7  8  2  0
  9  8  1  0
 10  9  2  0
 11 12  2  0
 11 10  1  0
 12  7  1  0
 13  1  1  0
 14 13  1  0
 14 15  2  0
 16 15  1  0
 16 20  1  0
 17 16  2  0
 18 19  2  0
 18 17  1  0
 19 14  1  0
 20 23  1  0
 20 22  1  0
 21 20  1  0
  2 24  1  0
  3 25  1  0
  4 26  1  0
  8 27  1  0
  9 28  1  0
 10 29  1  0
 11 30  1  0
 15 31  1  0
 18 32  1  0
M  ISO  8  24  14  25  14  26  14  27  14  28  14  29  14  30  14  31  14
M  ISO  1  32  14
M  END
>  <minimizedAffinity>  (1) 
-4.48574114

>  <minimizedRMSD>  (1) 
0.347971112

$$$$
