
     RDKit          3D

 25 26  0  0  0  0  0  0  0  0999 V2000
   42.3750   22.2760   36.3350 O   0  0  0  0  0  0  0  0  0  0  0  0
   43.1590   21.2070   36.4860 C   0  0  0  0  0  0  0  0  0  0  0  0
   42.9330   19.9630   37.0660 C   0  0  0  0  0  0  0  0  0  0  0  0
   43.8770   18.9740   37.1280 C   0  0  0  0  0  0  0  0  0  0  0  0
   45.1040   19.2260   36.5910 C   0  0  0  0  0  0  0  0  0  0  0  0
   45.3510   20.4600   36.0050 C   0  0  0  0  0  0  0  0  0  0  0  0
   44.3800   21.4330   35.9600 N   0  0  0  0  0  0  0  0  0  0  0  0
   46.6640   20.6100   35.4780 N   0  0  0  0  0  0  0  0  0  0  0  0
   41.0220   22.4450   36.2880 C   0  0  0  0  0  0  0  0  0  0  0  0
   40.3470   22.9340   37.4350 C   0  0  0  0  0  0  0  0  0  0  0  0
   38.9690   23.0850   37.3270 C   0  0  0  0  0  0  0  0  0  0  0  0
   38.3520   22.7700   36.1760 N   0  0  0  0  0  0  0  0  0  0  0  0
   39.0460   22.3030   35.1010 C   0  0  0  0  0  0  0  0  0  0  0  0
   40.3560   22.1440   35.1570 N   0  0  0  0  0  0  0  0  0  0  0  0
   38.3130   23.5890   38.5280 C   0  0  0  0  0  0  0  0  0  0  0  0
   37.8280   24.8710   38.2930 F   0  0  0  0  0  0  0  0  0  0  0  0
   39.2870   23.7420   39.4900 F   0  0  0  0  0  0  0  0  0  0  0  0
   37.2750   22.8160   38.9600 F   0  0  0  0  0  0  0  0  0  0  0  0
   41.9415   19.7633   37.4984 H   0  0  0  0  0  0  0  0  0  0  0  0
   43.6521   18.0048   37.5972 H   0  0  0  0  0  0  0  0  0  0  0  0
   45.8915   18.4586   36.6216 H   0  0  0  0  0  0  0  0  0  0  0  0
   46.9390   21.4927   35.0239 H   0  0  0  0  0  0  0  0  0  0  0  0
   47.3396   19.8359   35.5506 H   0  0  0  0  0  0  0  0  0  0  0  0
   40.8854   23.1810   38.3619 H   0  0  0  0  0  0  0  0  0  0  0  0
   38.5083   22.0550   34.1740 H   0  0  0  0  0  0  0  0  0  0  0  0
  1  2  1  0
  2  3  2  0
  3  4  1  0
  5  4  2  0
  6  5  1  0
  7  6  2  0
  7  2  1  0
  8  6  1  0
  9  1  1  0
  9 10  2  0
 11 10  1  0
 11 15  1  0
 12 11  2  0
 13 14  2  0
 13 12  1  0
 14  9  1  0
 15 18  1  0
 15 17  1  0
 16 15  1  0
  3 19  1  0
  4 20  1  0
  5 21  1  0
  8 22  1  0
  8 23  1  0
 10 24  1  0
 13 25  1  0
M  ISO  5  19  14  20  14  21  14  24  14  25  14
M  END
>  <minimizedAffinity>  (1) 
-4.47778225

>  <minimizedRMSD>  (1) 
0.0169324335

$$$$
