
     RDKit          3D

 29 31  0  0  0  0  0  0  0  0999 V2000
   43.0650   21.2060   36.4190 C   0  0  0  0  0  0  0  0  0  0  0  0
   42.8180   19.9390   36.8780 C   0  0  0  0  0  0  0  0  0  0  0  0
   43.7650   18.9600   37.0120 C   0  0  0  0  0  0  0  0  0  0  0  0
   45.0430   19.2730   36.6620 C   0  0  0  0  0  0  0  0  0  0  0  0
   45.3400   20.5490   36.1880 C   0  0  0  0  0  0  0  0  0  0  0  0
   44.3470   21.4620   36.0860 N   0  0  0  0  0  0  0  0  0  0  0  0
   46.7350   20.8900   35.8050 C   0  0  0  0  0  0  0  0  0  0  0  0
   47.3770   20.1970   34.7510 C   0  0  0  0  0  0  0  0  0  0  0  0
   49.0430   21.0270   34.7280 S   0  0  0  0  0  0  0  0  0  0  0  0
   48.5470   22.1580   36.1600 C   0  0  0  0  0  0  0  0  0  0  0  0
   47.4560   21.8350   36.4020 N   0  0  0  0  0  0  0  0  0  0  0  0
   42.2950   22.2730   36.2230 O   0  0  0  0  0  0  0  0  0  0  0  0
   40.9440   22.4480   36.2150 C   0  0  0  0  0  0  0  0  0  0  0  0
   40.2870   22.9280   37.3750 C   0  0  0  0  0  0  0  0  0  0  0  0
   38.9130   23.0850   37.3110 C   0  0  0  0  0  0  0  0  0  0  0  0
   38.2690   22.7830   36.1780 N   0  0  0  0  0  0  0  0  0  0  0  0
   38.9410   22.3180   35.0710 C   0  0  0  0  0  0  0  0  0  0  0  0
   40.2480   22.1560   35.0960 N   0  0  0  0  0  0  0  0  0  0  0  0
   38.2830   23.5810   38.5270 C   0  0  0  0  0  0  0  0  0  0  0  0
   37.8140   24.8780   38.3200 F   0  0  0  0  0  0  0  0  0  0  0  0
   39.2970   23.7380   39.4690 F   0  0  0  0  0  0  0  0  0  0  0  0
   37.2510   22.8200   38.9760 F   0  0  0  0  0  0  0  0  0  0  0  0
   41.7839   19.6906   37.1591 H   0  0  0  0  0  0  0  0  0  0  0  0
   43.5039   17.9597   37.3877 H   0  0  0  0  0  0  0  0  0  0  0  0
   45.8395   18.5199   36.7533 H   0  0  0  0  0  0  0  0  0  0  0  0
   46.9939   19.3851   34.1154 H   0  0  0  0  0  0  0  0  0  0  0  0
   49.1488   22.9381   36.6492 H   0  0  0  0  0  0  0  0  0  0  0  0
   40.8471   23.1667   38.2911 H   0  0  0  0  0  0  0  0  0  0  0  0
   38.3806   22.0789   34.1551 H   0  0  0  0  0  0  0  0  0  0  0  0
  1  2  2  0
  2  3  1  0
  4  3  2  0
  5  4  1  0
  6  5  2  0
  6  1  1  0
  7  5  1  0
  7 11  1  0
  8  7  2  0
  9  8  1  0
  9 10  1  0
 10 11  2  0
 12  1  1  0
 13 12  1  0
 13 14  2  0
 15 14  1  0
 15 19  1  0
 16 15  2  0
 17 18  2  0
 17 16  1  0
 18 13  1  0
 19 22  1  0
 19 21  1  0
 20 19  1  0
  2 23  1  0
  3 24  1  0
  4 25  1  0
  8 26  1  0
 10 27  1  0
 14 28  1  0
 17 29  1  0
M  ISO  7  23  14  24  14  25  14  26  14  27  14  28  14  29  14
M  END
>  <minimizedAffinity>  (1) 
-4.44095325

>  <minimizedRMSD>  (1) 
0.387843937

$$$$
