
     RDKit          3D

 30 32  0  0  0  0  0  0  0  0999 V2000
   43.1020   21.2310   36.4490 C   0  0  0  0  0  0  0  0  0  0  0  0
   42.8510   19.9640   36.9670 C   0  0  0  0  0  0  0  0  0  0  0  0
   43.7950   18.9720   37.0700 C   0  0  0  0  0  0  0  0  0  0  0  0
   45.0670   19.2770   36.6210 C   0  0  0  0  0  0  0  0  0  0  0  0
   45.3400   20.5180   36.1060 C   0  0  0  0  0  0  0  0  0  0  0  0
   44.3730   21.4890   36.0180 N   0  0  0  0  0  0  0  0  0  0  0  0
   46.7170   20.7830   35.6450 C   0  0  0  0  0  0  0  0  0  0  0  0
   47.7260   21.4370   36.3180 C   0  0  0  0  0  0  0  0  0  0  0  0
   48.8370   21.4340   35.4670 C   0  0  0  0  0  0  0  0  0  0  0  0
   48.4620   20.7880   34.3250 N   0  0  0  0  0  0  0  0  0  0  0  0
   47.1820   20.4120   34.4700 N   0  0  0  0  0  0  0  0  0  0  0  0
   42.3300   22.3100   36.2710 O   0  0  0  0  0  0  0  0  0  0  0  0
   40.9720   22.4690   36.2420 C   0  0  0  0  0  0  0  0  0  0  0  0
   40.3180   22.9590   37.4000 C   0  0  0  0  0  0  0  0  0  0  0  0
   38.9360   23.0980   37.3110 C   0  0  0  0  0  0  0  0  0  0  0  0
   38.2970   22.7730   36.1730 N   0  0  0  0  0  0  0  0  0  0  0  0
   38.9740   22.3060   35.0870 C   0  0  0  0  0  0  0  0  0  0  0  0
   40.2850   22.1540   35.1140 N   0  0  0  0  0  0  0  0  0  0  0  0
   38.2980   23.6040   38.5180 C   0  0  0  0  0  0  0  0  0  0  0  0
   37.7980   24.8710   38.3060 F   0  0  0  0  0  0  0  0  0  0  0  0
   39.2790   23.7360   39.4770 F   0  0  0  0  0  0  0  0  0  0  0  0
   37.2610   22.8150   38.9680 F   0  0  0  0  0  0  0  0  0  0  0  0
   41.8316   19.7431   37.3162 H   0  0  0  0  0  0  0  0  0  0  0  0
   43.5516   17.9843   37.4886 H   0  0  0  0  0  0  0  0  0  0  0  0
   45.8635   18.5204   36.6773 H   0  0  0  0  0  0  0  0  0  0  0  0
   47.6694   21.8750   37.3254 H   0  0  0  0  0  0  0  0  0  0  0  0
   49.8247   21.8696   35.6785 H   0  0  0  0  0  0  0  0  0  0  0  0
   49.0549   20.6193   33.4999 H   0  0  0  0  0  0  0  0  0  0  0  0
   40.8707   23.2146   38.3161 H   0  0  0  0  0  0  0  0  0  0  0  0
   38.4188   22.0513   34.1722 H   0  0  0  0  0  0  0  0  0  0  0  0
  1  2  2  0
  2  3  1  0
  4  3  2  0
  5  4  1  0
  6  5  2  0
  6  1  1  0
  7  5  1  0
  7  8  1  0
  9  8  2  0
 10 11  1  0
 10  9  1  0
 11  7  2  0
 12  1  1  0
 13 12  1  0
 13 14  2  0
 15 14  1  0
 15 19  1  0
 16 15  2  0
 17 18  2  0
 17 16  1  0
 18 13  1  0
 19 22  1  0
 19 21  1  0
 20 19  1  0
  2 23  1  0
  3 24  1  0
  4 25  1  0
  8 26  1  0
  9 27  1  0
 10 28  1  0
 14 29  1  0
 17 30  1  0
M  ISO  8  23  14  24  14  25  14  26  14  27  14  28   9  29  14  30  14
M  END
>  <minimizedAffinity>  (1) 
-4.43647766

>  <minimizedRMSD>  (1) 
0.195109054

$$$$
