
     RDKit          3D

 31 33  0  0  0  0  0  0  0  0999 V2000
   43.6790   22.7480   34.2710 C   0  0  0  0  0  0  0  0  0  0  0  0
   43.5420   24.0800   34.5640 C   0  0  0  0  0  0  0  0  0  0  0  0
   45.2860   24.6190   34.2330 S   0  0  0  0  0  0  0  0  0  0  0  0
   45.8240   22.9160   33.8080 C   0  0  0  0  0  0  0  0  0  0  0  0
   44.8930   22.4240   33.9300 N   0  0  0  0  0  0  0  0  0  0  0  0
   47.1860   22.5300   33.4680 N   0  0  0  0  0  0  0  0  0  0  0  0
   47.8750   21.8850   34.4200 C   0  0  0  0  0  0  0  0  0  0  0  0
   49.1070   21.6080   33.8800 C   0  0  0  0  0  0  0  0  0  0  0  0
   49.1100   22.0950   32.6340 N   0  0  0  0  0  0  0  0  0  0  0  0
   47.9470   22.6720   32.3430 C   0  0  0  0  0  0  0  0  0  0  0  0
   47.3840   23.4170   31.2430 C   0  0  0  0  0  0  0  0  0  0  0  0
   47.4720   24.5610   31.1290 O   0  0  0  0  0  0  0  0  0  0  0  0
   46.6420   22.7530   30.3670 O   0  0  0  0  0  0  0  0  0  0  0  0
   42.1650   21.8550   34.2340 S   0  0  0  0  0  0  0  0  0  0  0  0
   40.4400   22.4300   37.7770 C   0  0  0  0  0  0  0  0  0  0  0  0
   39.3730   23.2890   37.5100 C   0  0  0  0  0  0  0  0  0  0  0  0
   39.1940   23.6880   36.1780 C   0  0  0  0  0  0  0  0  0  0  0  0
   40.0450   23.2390   35.2000 N   0  0  0  0  0  0  0  0  0  0  0  0
   41.0790   22.3920   35.5420 C   0  0  0  0  0  0  0  0  0  0  0  0
   41.2480   22.0120   36.8110 N   0  0  0  0  0  0  0  0  0  0  0  0
   38.4370   23.7860   38.5440 C   0  0  0  0  0  0  0  0  0  0  0  0
   39.1540   23.8190   39.7340 F   0  0  0  0  0  0  0  0  0  0  0  0
   37.3310   23.0220   38.6840 F   0  0  0  0  0  0  0  0  0  0  0  0
   38.1290   25.1380   38.3060 F   0  0  0  0  0  0  0  0  0  0  0  0
   37.8400   24.7900   35.7740 S   0  0  0  0  0  0  0  0  0  0  0  0
   42.6644   24.6548   34.8949 H   0  0  0  0  0  0  0  0  0  0  0  0
   47.5241   21.6290   35.4306 H   0  0  0  0  0  0  0  0  0  0  0  0
   49.9358   21.0840   34.3785 H   0  0  0  0  0  0  0  0  0  0  0  0
   46.2384   23.2291   29.5986 H   0  0  0  0  0  0  0  0  0  0  0  0
   40.6148   22.0926   38.8093 H   0  0  0  0  0  0  0  0  0  0  0  0
   37.2691   25.2547   36.9294 H   0  0  0  0  0  0  0  0  0  0  0  0
  1  2  2  0
  3  2  1  0
  4  5  2  0
  4  3  1  0
  5  1  1  0
  6  4  1  0
  6  7  1  0
  8  7  2  0
  9  8  1  0
 10  9  2  0
 10  6  1  0
 11 10  1  0
 12 11  2  0
 13 11  1  0
 14  1  1  0
 14 19  1  0
 16 15  2  0
 16 21  1  0
 17 16  1  0
 18 19  1  0
 18 17  2  0
 19 20  2  0
 20 15  1  0
 21 23  1  0
 21 22  1  0
 24 21  1  0
 25 17  1  0
  2 26  1  0
  7 27  1  0
  8 28  1  0
 13 29  1  0
 15 30  1  0
 25 31  1  0
M  ISO  6  26  14  27  14  28  14  29   3  30  14  31  11
M  END
>  <minimizedAffinity>  (1) 
-3.73280048

>  <minimizedRMSD>  (1) 
0.703813732

$$$$
