
     RDKit          3D

 38 41  0  0  0  0  0  0  0  0999 V2000
   40.4570   22.4240   35.7480 C   0  0  0  0  0  0  0  0  0  0  0  0
   40.0410   22.9310   36.9950 C   0  0  0  0  0  0  0  0  0  0  0  0
   38.6550   23.0610   37.1720 C   0  0  0  0  0  0  0  0  0  0  0  0
   37.8190   22.7110   36.1810 N   0  0  0  0  0  0  0  0  0  0  0  0
   38.2800   22.2280   34.9950 C   0  0  0  0  0  0  0  0  0  0  0  0
   39.5800   22.0890   34.7870 N   0  0  0  0  0  0  0  0  0  0  0  0
   37.2980   21.8740   33.9750 C   0  0  0  0  0  0  0  0  0  0  0  0
   36.3170   20.9380   34.2940 C   0  0  0  0  0  0  0  0  0  0  0  0
   35.3960   20.6120   33.3180 C   0  0  0  0  0  0  0  0  0  0  0  0
   35.4880   21.2270   32.0810 C   0  0  0  0  0  0  0  0  0  0  0  0
   36.4750   22.1670   31.7650 C   0  0  0  0  0  0  0  0  0  0  0  0
   37.3460   22.4430   32.7570 N   0  0  0  0  0  0  0  0  0  0  0  0
   38.2450   23.5840   38.4660 C   0  0  0  0  0  0  0  0  0  0  0  0
   37.8160   24.8810   38.3660 F   0  0  0  0  0  0  0  0  0  0  0  0
   39.3630   23.6020   39.2640 F   0  0  0  0  0  0  0  0  0  0  0  0
   37.2390   22.8400   39.0690 F   0  0  0  0  0  0  0  0  0  0  0  0
   41.7850   22.2690   35.5020 O   0  0  0  0  0  0  0  0  0  0  0  0
   42.6970   21.3770   35.9250 C   0  0  0  0  0  0  0  0  0  0  0  0
   42.5770   20.1780   36.6060 C   0  0  0  0  0  0  0  0  0  0  0  0
   43.6460   19.3950   36.9530 C   0  0  0  0  0  0  0  0  0  0  0  0
   44.8990   19.8450   36.5940 C   0  0  0  0  0  0  0  0  0  0  0  0
   45.0370   21.0260   35.9200 C   0  0  0  0  0  0  0  0  0  0  0  0
   43.9510   21.7870   35.5860 N   0  0  0  0  0  0  0  0  0  0  0  0
   46.3810   21.3770   35.6080 N   0  0  0  0  0  0  0  0  0  0  0  0
   47.2000   20.8880   34.6430 C   0  0  0  0  0  0  0  0  0  0  0  0
   48.3860   21.5250   34.7280 N   0  0  0  0  0  0  0  0  0  0  0  0
   48.2920   22.3910   35.7310 C   0  0  0  0  0  0  0  0  0  0  0  0
   47.0580   22.3120   36.2860 N   0  0  0  0  0  0  0  0  0  0  0  0
   40.7585   23.2079   37.7814 H   0  0  0  0  0  0  0  0  0  0  0  0
   36.2772   20.4738   35.2905 H   0  0  0  0  0  0  0  0  0  0  0  0
   34.6032   19.8766   33.5198 H   0  0  0  0  0  0  0  0  0  0  0  0
   34.7495   20.9639   31.3094 H   0  0  0  0  0  0  0  0  0  0  0  0
   36.5362   22.6470   30.7772 H   0  0  0  0  0  0  0  0  0  0  0  0
   41.5691   19.8356   36.8834 H   0  0  0  0  0  0  0  0  0  0  0  0
   43.5107   18.4474   37.4950 H   0  0  0  0  0  0  0  0  0  0  0  0
   45.7894   19.2522   36.8506 H   0  0  0  0  0  0  0  0  0  0  0  0
   46.9408   20.1051   33.9150 H   0  0  0  0  0  0  0  0  0  0  0  0
   49.0933   23.0687   36.0607 H   0  0  0  0  0  0  0  0  0  0  0  0
  1  2  2  0
  2  3  1  0
  3 13  1  0
  4  3  2  0
  5  4  1  0
  6  5  2  0
  6  1  1  0
  7  8  2  0
  7  5  1  0
  9  8  1  0
 10  9  2  0
 11 10  1  0
 11 12  2  0
 12  7  1  0
 13 16  1  0
 13 15  1  0
 14 13  1  0
 17  1  1  0
 17 18  1  0
 18 19  2  0
 19 20  1  0
 21 20  2  0
 22 21  1  0
 23 22  2  0
 23 18  1  0
 24 22  1  0
 24 28  1  0
 25 26  2  0
 25 24  1  0
 26 27  1  0
 27 28  2  0
  2 29  1  0
  8 30  1  0
  9 31  1  0
 10 32  1  0
 11 33  1  0
 19 34  1  0
 20 35  1  0
 21 36  1  0
 25 37  1  0
 27 38  1  0
M  ISO  8  29  14  30  14  31  14  32  14  33  14  34  14  35  14  36  14
M  ISO  2  37  14  38  14
M  END
>  <minimizedAffinity>  (1) 
-5.7908802

>  <minimizedRMSD>  (1) 
0.974695086

$$$$
