
     RDKit          3D

 42 45  0  0  0  0  0  0  0  0999 V2000
   41.6180   22.3360   35.3150 O   0  0  0  0  0  0  0  0  0  0  0  0
   42.5900   21.5250   35.7460 C   0  0  0  0  0  0  0  0  0  0  0  0
   42.5510   20.2960   36.4010 C   0  0  0  0  0  0  0  0  0  0  0  0
   43.6740   19.5910   36.7760 C   0  0  0  0  0  0  0  0  0  0  0  0
   44.8930   20.1470   36.4770 C   0  0  0  0  0  0  0  0  0  0  0  0
   44.9490   21.3520   35.8350 C   0  0  0  0  0  0  0  0  0  0  0  0
   43.8130   22.0330   35.4730 N   0  0  0  0  0  0  0  0  0  0  0  0
   46.2640   21.8310   35.5770 N   0  0  0  0  0  0  0  0  0  0  0  0
   47.1610   21.4490   34.6450 C   0  0  0  0  0  0  0  0  0  0  0  0
   48.2840   22.1810   34.7700 N   0  0  0  0  0  0  0  0  0  0  0  0
   48.0710   23.0260   35.7950 C   0  0  0  0  0  0  0  0  0  0  0  0
   46.8370   22.8050   36.2800 N   0  0  0  0  0  0  0  0  0  0  0  0
   40.2890   22.4340   35.6160 C   0  0  0  0  0  0  0  0  0  0  0  0
   39.9170   22.9140   36.8980 C   0  0  0  0  0  0  0  0  0  0  0  0
   38.5420   22.9940   37.1520 C   0  0  0  0  0  0  0  0  0  0  0  0
   37.6790   22.6240   36.1960 N   0  0  0  0  0  0  0  0  0  0  0  0
   38.0940   22.1690   34.9800 C   0  0  0  0  0  0  0  0  0  0  0  0
   39.3850   22.0760   34.6930 N   0  0  0  0  0  0  0  0  0  0  0  0
   37.0680   21.7760   33.9690 C   0  0  0  0  0  0  0  0  0  0  0  0
   36.0390   20.8270   34.4910 C   0  0  0  0  0  0  0  0  0  0  0  0
   35.4210   20.2690   33.2290 C   0  0  0  0  0  0  0  0  0  0  0  0
   36.4080   20.5590   32.0970 C   0  0  0  0  0  0  0  0  0  0  0  0
   37.6840   20.9970   32.8290 C   0  0  0  0  0  0  0  0  0  0  0  0
   38.1770   23.4840   38.4600 C   0  0  0  0  0  0  0  0  0  0  0  0
   37.6960   24.7830   38.3800 F   0  0  0  0  0  0  0  0  0  0  0  0
   39.3420   23.5610   39.2030 F   0  0  0  0  0  0  0  0  0  0  0  0
   37.2360   22.7270   39.1060 F   0  0  0  0  0  0  0  0  0  0  0  0
   41.5665   19.8633   36.6322 H   0  0  0  0  0  0  0  0  0  0  0  0
   43.5969   18.6233   37.2933 H   0  0  0  0  0  0  0  0  0  0  0  0
   45.8209   19.6247   36.7531 H   0  0  0  0  0  0  0  0  0  0  0  0
   46.9995   20.6593   33.8965 H   0  0  0  0  0  0  0  0  0  0  0  0
   48.7860   23.7719   36.1725 H   0  0  0  0  0  0  0  0  0  0  0  0
   40.6653   23.2065   37.6493 H   0  0  0  0  0  0  0  0  0  0  0  0
   36.6273   22.7394   33.6731 H   0  0  0  0  0  0  0  0  0  0  0  0
   36.5037   20.0298   35.0897 H   0  0  0  0  0  0  0  0  0  0  0  0
   35.3066   21.3051   35.1580 H   0  0  0  0  0  0  0  0  0  0  0  0
   35.2657   19.1846   33.3293 H   0  0  0  0  0  0  0  0  0  0  0  0
   34.4412   20.7275   33.0296 H   0  0  0  0  0  0  0  0  0  0  0  0
   36.0334   21.3631   31.4466 H   0  0  0  0  0  0  0  0  0  0  0  0
   36.5701   19.6914   31.4405 H   0  0  0  0  0  0  0  0  0  0  0  0
   38.2660   20.1357   33.1888 H   0  0  0  0  0  0  0  0  0  0  0  0
   38.4043   21.5584   32.2158 H   0  0  0  0  0  0  0  0  0  0  0  0
  1 13  1  0
  1  2  1  0
  2  3  2  0
  3  4  1  0
  5  4  2  0
  6  5  1  0
  7  2  1  0
  7  6  2  0
  8  6  1  0
  8 12  1  0
  9 10  2  0
  9  8  1  0
 10 11  1  0
 11 12  2  0
 13 14  2  0
 14 15  1  0
 15 24  1  0
 16 15  2  0
 17 16  1  0
 18 17  2  0
 18 13  1  0
 19 20  1  0
 19 17  1  0
 21 20  1  0
 22 23  1  0
 22 21  1  0
 23 19  1  0
 24 27  1  0
 24 26  1  0
 25 24  1  0
  3 28  1  0
  4 29  1  0
  5 30  1  0
  9 31  1  0
 11 32  1  0
 14 33  1  0
 19 34  1  0
 20 35  1  0
 20 36  1  0
 21 37  1  0
 21 38  1  0
 22 39  1  0
 22 40  1  0
 23 41  1  0
 23 42  1  0
M  ISO  8  28  14  29  14  30  14  31  14  32  14  33  14  34  13  35  13
M  ISO  7  36  13  37  13  38  13  39  13  40  13  41  13  42  13
M  END
>  <minimizedAffinity>  (1) 
-5.4742856

>  <minimizedRMSD>  (1) 
1.03279305

$$$$
