
     RDKit          3D

 31 32  0  0  1  0  0  0  0  0999 V2000
   38.9220   25.5310   34.7580 C   0  0  2  0  0  0  0  0  0  0  0  0
   39.6400   22.9080   37.2220 C   0  0  0  0  0  0  0  0  0  0  0  0
   38.7880   23.2140   38.3080 C   0  0  0  0  0  0  0  0  0  0  0  0
   37.9690   24.3310   38.1770 C   0  0  0  0  0  0  0  0  0  0  0  0
   38.0290   25.0710   37.0080 N   0  0  0  0  0  0  0  0  0  0  0  0
   38.8640   24.7310   36.0020 C   0  0  0  0  0  0  0  0  0  0  0  0
   39.6510   23.6660   36.1190 N   0  0  0  0  0  0  0  0  0  0  0  0
   39.6510   26.8190   35.0600 C   0  0  0  0  0  0  0  0  0  0  0  0
   37.5590   25.8880   34.2230 C   0  0  0  0  0  0  0  0  0  0  0  0
   37.1840   25.1530   33.0700 N   0  0  0  0  0  0  0  0  0  0  0  0
   38.2830   24.6530   32.2700 C   0  0  0  0  0  0  0  0  0  0  0  0
   37.5190   24.1020   31.0570 C   0  0  0  0  0  0  0  0  0  0  0  0
   36.1350   24.7430   31.1250 C   0  0  0  0  0  0  0  0  0  0  0  0
   36.4490   25.9050   32.0780 C   0  0  0  0  0  0  0  0  0  0  0  0
   39.4332   24.9220   33.9979 H   0  0  0  0  0  0  0  0  0  0  0  0
   40.3041   22.0334   37.2846 H   0  0  0  0  0  0  0  0  0  0  0  0
   38.7733   22.5955   39.2175 H   0  0  0  0  0  0  0  0  0  0  0  0
   37.2853   24.6215   38.9883 H   0  0  0  0  0  0  0  0  0  0  0  0
   39.7258   26.9512   36.1495 H   0  0  0  0  0  0  0  0  0  0  0  0
   40.6607   26.7795   34.6252 H   0  0  0  0  0  0  0  0  0  0  0  0
   39.0974   27.6643   34.6252 H   0  0  0  0  0  0  0  0  0  0  0  0
   36.8165   25.6975   35.0119 H   0  0  0  0  0  0  0  0  0  0  0  0
   37.5991   26.9469   33.9277 H   0  0  0  0  0  0  0  0  0  0  0  0
   38.9750   25.4582   31.9824 H   0  0  0  0  0  0  0  0  0  0  0  0
   38.9239   23.9187   32.7799 H   0  0  0  0  0  0  0  0  0  0  0  0
   37.4393   23.0066   31.1174 H   0  0  0  0  0  0  0  0  0  0  0  0
   38.0311   24.3330   30.1113 H   0  0  0  0  0  0  0  0  0  0  0  0
   35.7971   25.0981   30.1403 H   0  0  0  0  0  0  0  0  0  0  0  0
   35.3222   24.0757   31.4476 H   0  0  0  0  0  0  0  0  0  0  0  0
   37.0658   26.6810   31.6010 H   0  0  0  0  0  0  0  0  0  0  0  0
   35.5843   26.4767   32.4462 H   0  0  0  0  0  0  0  0  0  0  0  0
  1  8  1  0
  1  6  1  0
  2  3  2  0
  4  3  1  0
  5  4  2  0
  6  7  2  0
  6  5  1  0
  7  2  1  0
  9  1  1  0
 10  9  1  0
 11 10  1  0
 12 13  1  0
 12 11  1  0
 13 14  1  0
 14 10  1  0
  1 15  1  6
  2 16  1  0
  3 17  1  0
  4 18  1  0
  8 19  1  0
  8 20  1  0
  8 21  1  0
  9 22  1  0
  9 23  1  0
 11 24  1  0
 11 25  1  0
 12 26  1  0
 12 27  1  0
 13 28  1  0
 13 29  1  0
 14 30  1  0
 14 31  1  0
M  ISO  8  15   8  16  14  17  14  18  14  19   8  20   8  21   8  22   8
M  ISO  8  23   8  24  13  25  13  26  13  27  13  28  13  29  13  30  13
M  ISO  1  31  13
M  END
>  <minimizedAffinity>  (1) 
-3.95080709

>  <minimizedRMSD>  (1) 
1.77302217

$$$$
