
     RDKit          3D

 33 35  0  0  0  0  0  0  0  0999 V2000
   43.6970   25.5760   34.1330 C   0  0  0  0  0  0  0  0  0  0  0  0
   44.3410   26.6080   33.4330 C   0  0  0  0  0  0  0  0  0  0  0  0
   45.7190   27.0680   34.5980 S   0  0  0  0  0  0  0  0  0  0  0  0
   45.1500   25.7560   35.8250 C   0  0  0  0  0  0  0  0  0  0  0  0
   44.2800   25.3500   35.2650 N   0  0  0  0  0  0  0  0  0  0  0  0
   45.7310   25.4260   37.1090 N   0  0  0  0  0  0  0  0  0  0  0  0
   45.1360   26.0280   38.1600 C   0  0  0  0  0  0  0  0  0  0  0  0
   45.8040   25.6120   39.2940 C   0  0  0  0  0  0  0  0  0  0  0  0
   46.7770   24.7730   38.8720 N   0  0  0  0  0  0  0  0  0  0  0  0
   46.7370   24.6560   37.5360 C   0  0  0  0  0  0  0  0  0  0  0  0
   47.5300   23.9060   36.6000 C   0  0  0  0  0  0  0  0  0  0  0  0
   47.3140   22.6790   36.4280 O   0  0  0  0  0  0  0  0  0  0  0  0
   48.5190   24.5870   35.9140 O   0  0  0  0  0  0  0  0  0  0  0  0
   42.2720   24.8130   33.3730 S   0  0  0  0  0  0  0  0  0  0  0  0
   39.9450   23.2450   36.2130 C   0  0  0  0  0  0  0  0  0  0  0  0
   38.9920   24.2610   36.4520 C   0  0  0  0  0  0  0  0  0  0  0  0
   39.1000   25.4200   35.7170 C   0  0  0  0  0  0  0  0  0  0  0  0
   40.1140   25.5340   34.8000 N   0  0  0  0  0  0  0  0  0  0  0  0
   41.0050   24.5350   34.6020 C   0  0  0  0  0  0  0  0  0  0  0  0
   40.9020   23.4110   35.3130 N   0  0  0  0  0  0  0  0  0  0  0  0
   37.9010   24.1370   37.4520 C   0  0  0  0  0  0  0  0  0  0  0  0
   38.1470   22.9310   38.1510 F   0  0  0  0  0  0  0  0  0  0  0  0
   36.6750   24.0850   36.9240 F   0  0  0  0  0  0  0  0  0  0  0  0
   38.0580   25.0970   38.4700 F   0  0  0  0  0  0  0  0  0  0  0  0
   38.2170   26.5610   35.7590 C   0  0  0  0  0  0  0  0  0  0  0  0
   37.0890   26.8180   35.2880 O   0  0  0  0  0  0  0  0  0  0  0  0
   38.4840   27.7450   36.4140 O   0  0  0  0  0  0  0  0  0  0  0  0
   44.0951   27.0351   32.4496 H   0  0  0  0  0  0  0  0  0  0  0  0
   44.2810   26.7190   38.1205 H   0  0  0  0  0  0  0  0  0  0  0  0
   45.5882   25.9042   40.3323 H   0  0  0  0  0  0  0  0  0  0  0  0
   49.0876   24.1079   35.2603 H   0  0  0  0  0  0  0  0  0  0  0  0
   39.8911   22.3049   36.7816 H   0  0  0  0  0  0  0  0  0  0  0  0
   37.8229   28.4817   36.3941 H   0  0  0  0  0  0  0  0  0  0  0  0
  1  5  1  0
  2  1  2  0
  2  3  1  0
  3  4  1  0
  4  6  1  0
  5  4  2  0
  6 10  1  0
  6  7  1  0
  7  8  2  0
  9  8  1  0
 10  9  2  0
 11 10  1  0
 12 11  2  0
 13 11  1  0
 14  1  1  0
 14 19  1  0
 15 16  2  0
 16 21  1  0
 17 25  1  0
 17 16  1  0
 18 17  2  0
 19 18  1  0
 19 20  2  0
 20 15  1  0
 21 22  1  0
 21 24  1  0
 23 21  1  0
 25 27  1  0
 26 25  2  0
  2 28  1  0
  7 29  1  0
  8 30  1  0
 13 31  1  0
 15 32  1  0
 27 33  1  0
M  ISO  6  28  14  29  14  30  14  31   3  32  14  33   3
M  END
>  <minimizedAffinity>  (1) 
-5.64095402

>  <minimizedRMSD>  (1) 
4.29542542

$$$$
