
     RDKit          3D

 32 34  0  0  0  0  0  0  0  0999 V2000
   42.8910   21.3170   36.1750 C   0  0  0  0  0  0  0  0  0  0  0  0
   42.6960   20.0870   36.8010 C   0  0  0  0  0  0  0  0  0  0  0  0
   43.7080   19.1950   37.0380 C   0  0  0  0  0  0  0  0  0  0  0  0
   44.9750   19.5450   36.6320 C   0  0  0  0  0  0  0  0  0  0  0  0
   45.1780   20.7460   36.0180 C   0  0  0  0  0  0  0  0  0  0  0  0
   44.1520   21.6270   35.7880 N   0  0  0  0  0  0  0  0  0  0  0  0
   46.5290   20.9990   35.6420 N   0  0  0  0  0  0  0  0  0  0  0  0
   47.2620   20.5390   34.6200 C   0  0  0  0  0  0  0  0  0  0  0  0
   48.4960   21.0520   34.6630 N   0  0  0  0  0  0  0  0  0  0  0  0
   48.5320   21.8540   35.7440 C   0  0  0  0  0  0  0  0  0  0  0  0
   47.3240   21.8280   36.3550 N   0  0  0  0  0  0  0  0  0  0  0  0
   42.0390   22.3040   35.8610 O   0  0  0  0  0  0  0  0  0  0  0  0
   40.6970   22.4450   35.9920 C   0  0  0  0  0  0  0  0  0  0  0  0
   40.1700   22.9570   37.2060 C   0  0  0  0  0  0  0  0  0  0  0  0
   38.7720   23.0740   37.2680 C   0  0  0  0  0  0  0  0  0  0  0  0
   38.0280   22.7130   36.2210 N   0  0  0  0  0  0  0  0  0  0  0  0
   38.5890   22.2240   35.0700 C   0  0  0  0  0  0  0  0  0  0  0  0
   39.8950   22.0920   34.9570 N   0  0  0  0  0  0  0  0  0  0  0  0
   38.2650   23.6000   38.5230 C   0  0  0  0  0  0  0  0  0  0  0  0
   37.7900   24.8740   38.3570 F   0  0  0  0  0  0  0  0  0  0  0  0
   39.3170   23.6680   39.4020 F   0  0  0  0  0  0  0  0  0  0  0  0
   37.2420   22.8290   39.0600 F   0  0  0  0  0  0  0  0  0  0  0  0
   37.6590   21.8530   33.9690 C   0  0  0  0  0  0  0  0  0  0  0  0
   38.2860   20.9330   33.1540 F   0  0  0  0  0  0  0  0  0  0  0  0
   36.5620   21.1890   34.5140 F   0  0  0  0  0  0  0  0  0  0  0  0
   37.2190   22.9170   33.2350 F   0  0  0  0  0  0  0  0  0  0  0  0
   41.6781   19.8192   37.1208 H   0  0  0  0  0  0  0  0  0  0  0  0
   43.5146   18.2331   37.5352 H   0  0  0  0  0  0  0  0  0  0  0  0
   45.8192   18.8605   36.8015 H   0  0  0  0  0  0  0  0  0  0  0  0
   46.9000   19.8381   33.8534 H   0  0  0  0  0  0  0  0  0  0  0  0
   49.4033   22.4369   36.0773 H   0  0  0  0  0  0  0  0  0  0  0  0
   40.8173   23.2448   38.0475 H   0  0  0  0  0  0  0  0  0  0  0  0
  1  2  2  0
  2  3  1  0
  4  3  2  0
  5  4  1  0
  6  5  2  0
  6  1  1  0
  7  5  1  0
  7 11  1  0
  8  9  2  0
  8  7  1  0
  9 10  1  0
 10 11  2  0
 12 13  1  0
 12  1  1  0
 13 14  2  0
 14 15  1  0
 15 19  1  0
 16 15  2  0
 17 16  1  0
 18 17  2  0
 18 13  1  0
 19 22  1  0
 19 21  1  0
 20 19  1  0
 23 25  1  0
 23 17  1  0
 24 23  1  0
 26 23  1  0
  2 27  1  0
  3 28  1  0
  4 29  1  0
  8 30  1  0
 10 31  1  0
 14 32  1  0
M  ISO  6  27  14  28  14  29  14  30  14  31  14  32  14
M  END
>  <minimizedAffinity>  (1) 
-5.15047979

>  <minimizedRMSD>  (1) 
0.391772687

$$$$
