
     RDKit          3D

 31 33  0  0  0  0  0  0  0  0999 V2000
   43.0790   21.2800   36.4010 C   0  0  0  0  0  0  0  0  0  0  0  0
   42.8530   20.0210   36.9530 C   0  0  0  0  0  0  0  0  0  0  0  0
   43.8300   19.0630   37.0690 C   0  0  0  0  0  0  0  0  0  0  0  0
   45.0860   19.3710   36.6170 C   0  0  0  0  0  0  0  0  0  0  0  0
   45.3240   20.6040   36.0720 C   0  0  0  0  0  0  0  0  0  0  0  0
   44.3390   21.5530   35.9610 N   0  0  0  0  0  0  0  0  0  0  0  0
   46.6690   20.8030   35.6380 N   0  0  0  0  0  0  0  0  0  0  0  0
   47.3090   20.3610   34.5400 C   0  0  0  0  0  0  0  0  0  0  0  0
   48.5790   20.8070   34.5600 N   0  0  0  0  0  0  0  0  0  0  0  0
   48.7190   21.5290   35.6780 C   0  0  0  0  0  0  0  0  0  0  0  0
   47.5490   21.5350   36.3540 N   0  0  0  0  0  0  0  0  0  0  0  0
   42.2740   22.3360   36.2000 O   0  0  0  0  0  0  0  0  0  0  0  0
   40.9230   22.4790   36.2030 C   0  0  0  0  0  0  0  0  0  0  0  0
   40.3020   22.9820   37.3800 C   0  0  0  0  0  0  0  0  0  0  0  0
   38.9030   23.1040   37.3150 C   0  0  0  0  0  0  0  0  0  0  0  0
   38.2520   22.7590   36.2050 N   0  0  0  0  0  0  0  0  0  0  0  0
   38.9070   22.2820   35.1080 C   0  0  0  0  0  0  0  0  0  0  0  0
   40.2180   22.1450   35.1080 N   0  0  0  0  0  0  0  0  0  0  0  0
   38.2810   23.6190   38.5230 C   0  0  0  0  0  0  0  0  0  0  0  0
   37.7840   24.8810   38.3260 F   0  0  0  0  0  0  0  0  0  0  0  0
   39.2710   23.7330   39.4790 F   0  0  0  0  0  0  0  0  0  0  0  0
   37.2550   22.8210   39.0000 F   0  0  0  0  0  0  0  0  0  0  0  0
   38.1540   21.9170   33.9140 C   0  0  0  0  0  0  0  0  0  0  0  0
   36.9690   21.5140   33.9830 O   0  0  0  0  0  0  0  0  0  0  0  0
   41.8416   19.7824   37.3139 H   0  0  0  0  0  0  0  0  0  0  0  0
   43.6111   18.0797   37.5108 H   0  0  0  0  0  0  0  0  0  0  0  0
   45.8978   18.6325   36.6915 H   0  0  0  0  0  0  0  0  0  0  0  0
   46.8652   19.7351   33.7518 H   0  0  0  0  0  0  0  0  0  0  0  0
   49.6410   22.0374   35.9964 H   0  0  0  0  0  0  0  0  0  0  0  0
   40.8759   23.2561   38.2775 H   0  0  0  0  0  0  0  0  0  0  0  0
   38.6373   21.9972   32.9291 H   0  0  0  0  0  0  0  0  0  0  0  0
  1  2  2  0
  2  3  1  0
  4  3  2  0
  5  4  1  0
  6  5  2  0
  6  1  1  0
  7  5  1  0
  7 11  1  0
  8  9  2  0
  8  7  1  0
  9 10  1  0
 10 11  2  0
 12 13  1  0
 12  1  1  0
 13 14  2  0
 15 14  1  0
 15 19  1  0
 16 15  2  0
 17 16  1  0
 18 17  2  0
 18 13  1  0
 19 22  1  0
 19 21  1  0
 20 19  1  0
 23 24  2  0
 23 17  1  0
  2 25  1  0
  3 26  1  0
  4 27  1  0
  8 28  1  0
 10 29  1  0
 14 30  1  0
 23 31  1  0
M  ISO  7  25  14  26  14  27  14  28  14  29  14  30  14  31   6
M  END
>  <minimizedAffinity>  (1) 
-4.81723738

>  <minimizedRMSD>  (1) 
0.0936538801

$$$$
