
     RDKit          3D

 35 37  0  0  0  0  0  0  0  0999 V2000
   43.1400   21.1980   36.4790 C   0  0  0  0  0  0  0  0  0  0  0  0
   42.8770   19.9340   36.9990 C   0  0  0  0  0  0  0  0  0  0  0  0
   43.8190   18.9410   37.0830 C   0  0  0  0  0  0  0  0  0  0  0  0
   45.0810   19.2260   36.6250 C   0  0  0  0  0  0  0  0  0  0  0  0
   45.3580   20.4570   36.1120 C   0  0  0  0  0  0  0  0  0  0  0  0
   44.3980   21.4350   36.0390 N   0  0  0  0  0  0  0  0  0  0  0  0
   46.6970   20.6280   35.6720 N   0  0  0  0  0  0  0  0  0  0  0  0
   47.3240   20.1940   34.5670 C   0  0  0  0  0  0  0  0  0  0  0  0
   48.6010   20.5990   34.5720 N   0  0  0  0  0  0  0  0  0  0  0  0
   48.7680   21.3020   35.7060 C   0  0  0  0  0  0  0  0  0  0  0  0
   47.6050   21.3240   36.3850 N   0  0  0  0  0  0  0  0  0  0  0  0
   42.3710   22.2820   36.3150 O   0  0  0  0  0  0  0  0  0  0  0  0
   41.0220   22.4540   36.2730 C   0  0  0  0  0  0  0  0  0  0  0  0
   40.3520   22.9480   37.4170 C   0  0  0  0  0  0  0  0  0  0  0  0
   38.9660   23.1000   37.3040 C   0  0  0  0  0  0  0  0  0  0  0  0
   38.3500   22.7820   36.1560 N   0  0  0  0  0  0  0  0  0  0  0  0
   39.0450   22.3090   35.0790 C   0  0  0  0  0  0  0  0  0  0  0  0
   40.3480   22.1490   35.1370 N   0  0  0  0  0  0  0  0  0  0  0  0
   38.3030   23.6040   38.4830 C   0  0  0  0  0  0  0  0  0  0  0  0
   37.7990   24.8620   38.2740 F   0  0  0  0  0  0  0  0  0  0  0  0
   39.2630   23.7280   39.4720 F   0  0  0  0  0  0  0  0  0  0  0  0
   37.2710   22.7930   38.9370 F   0  0  0  0  0  0  0  0  0  0  0  0
   38.3640   21.9550   33.8040 C   0  0  0  0  0  0  0  0  0  0  0  0
   36.9420   21.4880   34.1390 C   0  0  0  0  0  0  0  0  0  0  0  0
   41.8606   19.7205   37.3614 H   0  0  0  0  0  0  0  0  0  0  0  0
   43.5726   17.9540   37.5014 H   0  0  0  0  0  0  0  0  0  0  0  0
   45.8691   18.4600   36.6722 H   0  0  0  0  0  0  0  0  0  0  0  0
   46.8570   19.5931   33.7728 H   0  0  0  0  0  0  0  0  0  0  0  0
   49.7041   21.7820   36.0275 H   0  0  0  0  0  0  0  0  0  0  0  0
   40.8905   23.1984   38.3429 H   0  0  0  0  0  0  0  0  0  0  0  0
   38.9132   21.1463   33.2996 H   0  0  0  0  0  0  0  0  0  0  0  0
   38.3316   22.8266   33.1337 H   0  0  0  0  0  0  0  0  0  0  0  0
   36.8173   21.4470   35.2311 H   0  0  0  0  0  0  0  0  0  0  0  0
   36.2142   22.1943   33.7131 H   0  0  0  0  0  0  0  0  0  0  0  0
   36.7747   20.4877   33.7131 H   0  0  0  0  0  0  0  0  0  0  0  0
  1  2  2  0
  2  3  1  0
  4  3  2  0
  5  4  1  0
  6  5  2  0
  6  1  1  0
  7  5  1  0
  7 11  1  0
  8  9  2  0
  8  7  1  0
  9 10  1  0
 10 11  2  0
 12  1  1  0
 13 12  1  0
 13 14  2  0
 15 14  1  0
 15 19  1  0
 16 15  2  0
 17 18  2  0
 17 16  1  0
 18 13  1  0
 19 22  1  0
 19 21  1  0
 20 19  1  0
 23 24  1  0
 23 17  1  0
  2 25  1  0
  3 26  1  0
  4 27  1  0
  8 28  1  0
 10 29  1  0
 14 30  1  0
 23 31  1  0
 23 32  1  0
 24 33  1  0
 24 34  1  0
 24 35  1  0
M  ISO  8  25  14  26  14  27  14  28  14  29  14  30  14  31   8  32   8
M  ISO  3  33   8  34   8  35   8
M  END
>  <minimizedAffinity>  (1) 
-4.78527641

>  <minimizedRMSD>  (1) 
0.0887240767

$$$$
