
     RDKit          3D

 41 44  0  0  1  0  0  0  0  0999 V2000
   37.7450   25.3080   33.5330 N   0  0  0  0  0  0  0  0  0  0  0  0
   37.9210   25.1990   34.9530 C   0  0  0  0  0  0  0  0  0  0  0  0
   38.7330   26.2320   35.5960 C   0  0  0  0  0  0  0  0  0  0  0  0
   39.7820   26.8700   34.7880 C   0  0  0  0  0  0  0  0  0  0  0  0
   39.6020   26.6920   33.3170 C   0  0  0  0  0  0  0  0  0  0  0  0
   38.1790   26.5670   32.9700 C   0  0  2  0  0  0  0  0  0  0  0  0
   37.2750   27.6840   33.1070 C   0  0  0  0  0  0  0  0  0  0  0  0
   36.4980   28.0380   34.1930 C   0  0  0  0  0  0  0  0  0  0  0  0
   35.6340   29.1070   34.2770 C   0  0  0  0  0  0  0  0  0  0  0  0
   35.5070   29.9310   33.1790 C   0  0  0  0  0  0  0  0  0  0  0  0
   36.2520   29.6390   32.0560 C   0  0  0  0  0  0  0  0  0  0  0  0
   36.0640   30.5120   31.0050 C   0  0  0  0  0  0  0  0  0  0  0  0
   36.7620   30.3060   29.8350 C   0  0  0  0  0  0  0  0  0  0  0  0
   37.6270   29.2340   29.7530 C   0  0  0  0  0  0  0  0  0  0  0  0
   37.7680   28.4000   30.8420 C   0  0  0  0  0  0  0  0  0  0  0  0
   37.1080   28.5540   32.0190 C   0  0  0  0  0  0  0  0  0  0  0  0
   37.5450   22.8930   32.9900 C   0  0  0  0  0  0  0  0  0  0  0  0
   37.2000   24.2220   32.7840 C   0  0  0  0  0  0  0  0  0  0  0  0
   36.2890   24.5210   31.7890 C   0  0  0  0  0  0  0  0  0  0  0  0
   35.7650   23.5240   31.0520 N   0  0  0  0  0  0  0  0  0  0  0  0
   36.1140   22.2280   31.2670 C   0  0  0  0  0  0  0  0  0  0  0  0
   37.0040   21.9310   32.2390 N   0  0  0  0  0  0  0  0  0  0  0  0
   36.9232   25.2237   35.4153 H   0  0  0  0  0  0  0  0  0  0  0  0
   38.4746   24.2606   35.1043 H   0  0  0  0  0  0  0  0  0  0  0  0
   38.0499   27.0248   35.9349 H   0  0  0  0  0  0  0  0  0  0  0  0
   39.2754   25.7056   36.3952 H   0  0  0  0  0  0  0  0  0  0  0  0
   39.7829   27.9475   35.0093 H   0  0  0  0  0  0  0  0  0  0  0  0
   40.7320   26.3842   35.0554 H   0  0  0  0  0  0  0  0  0  0  0  0
   40.0239   27.5636   32.7952 H   0  0  0  0  0  0  0  0  0  0  0  0
   40.1190   25.7707   33.0104 H   0  0  0  0  0  0  0  0  0  0  0  0
   38.1156   26.5852   31.8720 H   0  0  0  0  0  0  0  0  0  0  0  0
   36.5779   27.3986   35.0845 H   0  0  0  0  0  0  0  0  0  0  0  0
   35.0603   29.2984   35.1959 H   0  0  0  0  0  0  0  0  0  0  0  0
   34.8299   30.7977   33.1983 H   0  0  0  0  0  0  0  0  0  0  0  0
   35.3683   31.3588   31.0992 H   0  0  0  0  0  0  0  0  0  0  0  0
   36.6317   30.9854   28.9798 H   0  0  0  0  0  0  0  0  0  0  0  0
   38.1967   29.0472   28.8308 H   0  0  0  0  0  0  0  0  0  0  0  0
   38.4626   27.5519   30.7513 H   0  0  0  0  0  0  0  0  0  0  0  0
   38.2682   22.6313   33.7765 H   0  0  0  0  0  0  0  0  0  0  0  0
   35.9947   25.5641   31.6010 H   0  0  0  0  0  0  0  0  0  0  0  0
   35.6750   21.4270   30.6541 H   0  0  0  0  0  0  0  0  0  0  0  0
  1  2  1  0
  2  3  1  0
  4  3  1  0
  5  4  1  0
  6  7  1  0
  6  5  1  0
  6  1  1  0
  7  8  2  0
  8  9  1  0
 10  9  2  0
 11 10  1  0
 12 11  2  0
 13 12  1  0
 14 13  2  0
 14 15  1  0
 15 16  2  0
 16 11  1  0
 16  7  1  0
 18 17  2  0
 18  1  1  0
 19 18  1  0
 20 21  1  0
 20 19  2  0
 21 22  2  0
 22 17  1  0
  2 23  1  0
  2 24  1  0
  3 25  1  0
  3 26  1  0
  4 27  1  0
  4 28  1  0
  5 29  1  0
  5 30  1  0
  6 31  1  6
  8 32  1  0
  9 33  1  0
 10 34  1  0
 12 35  1  0
 13 36  1  0
 14 37  1  0
 15 38  1  0
 17 39  1  0
 19 40  1  0
 21 41  1  0
M  ISO  8  23  13  24  13  25  13  26  13  27  13  28  13  29  13  30  13
M  ISO  8  31  13  32  14  33  14  34  14  35  14  36  14  37  14  38  14
M  ISO  3  39  14  40  14  41  14
M  END
>  <minimizedAffinity>  (1) 
-5.77144861

>  <minimizedRMSD>  (1) 
3.80089211

$$$$
