
     RDKit          3D

 35 37  0  0  1  0  0  0  0  0999 V2000
   38.5110   24.9850   34.9500 N   0  0  0  0  0  0  0  0  0  0  0  0
   37.5070   25.9210   35.3620 C   0  0  0  0  0  0  0  0  0  0  0  0
   37.0820   26.8720   34.3180 C   0  0  0  0  0  0  0  0  0  0  0  0
   38.1370   27.3090   33.3490 C   0  0  0  0  0  0  0  0  0  0  0  0
   39.2870   26.3730   33.2460 C   0  0  0  0  0  0  0  0  0  0  0  0
   38.7840   24.9780   33.5400 C   0  0  2  0  0  0  0  0  0  0  0  0
   38.6240   23.8250   37.1450 C   0  0  0  0  0  0  0  0  0  0  0  0
   39.1610   24.1490   35.8900 C   0  0  0  0  0  0  0  0  0  0  0  0
   40.3990   23.6140   35.5870 C   0  0  0  0  0  0  0  0  0  0  0  0
   41.0240   22.8190   36.4950 N   0  0  0  0  0  0  0  0  0  0  0  0
   40.4750   22.5370   37.6820 C   0  0  0  0  0  0  0  0  0  0  0  0
   39.2860   23.0400   37.9950 N   0  0  0  0  0  0  0  0  0  0  0  0
   37.7030   24.5160   32.6810 C   0  0  0  0  0  0  0  0  0  0  0  0
   36.9240   25.1070   31.7090 C   0  0  0  0  0  0  0  0  0  0  0  0
   35.9270   24.4170   31.0530 C   0  0  0  0  0  0  0  0  0  0  0  0
   35.6550   23.1060   31.3290 C   0  0  0  0  0  0  0  0  0  0  0  0
   36.4130   22.4760   32.2930 C   0  0  0  0  0  0  0  0  0  0  0  0
   37.4210   23.1820   32.9540 C   0  0  0  0  0  0  0  0  0  0  0  0
   36.6230   25.3532   35.6880 H   0  0  0  0  0  0  0  0  0  0  0  0
   37.9564   26.5235   36.1651 H   0  0  0  0  0  0  0  0  0  0  0  0
   36.2736   26.3980   33.7420 H   0  0  0  0  0  0  0  0  0  0  0  0
   36.7824   27.7835   34.8560 H   0  0  0  0  0  0  0  0  0  0  0  0
   37.6763   27.4020   32.3545 H   0  0  0  0  0  0  0  0  0  0  0  0
   38.5359   28.2641   33.7215 H   0  0  0  0  0  0  0  0  0  0  0  0
   39.7091   26.4111   32.2309 H   0  0  0  0  0  0  0  0  0  0  0  0
   40.0728   26.6540   33.9626 H   0  0  0  0  0  0  0  0  0  0  0  0
   39.5353   24.2135   33.2929 H   0  0  0  0  0  0  0  0  0  0  0  0
   37.6405   24.2253   37.4323 H   0  0  0  0  0  0  0  0  0  0  0  0
   40.8745   23.8299   34.6189 H   0  0  0  0  0  0  0  0  0  0  0  0
   41.0063   21.8909   38.3963 H   0  0  0  0  0  0  0  0  0  0  0  0
   37.1034   26.1607   31.4492 H   0  0  0  0  0  0  0  0  0  0  0  0
   35.3336   24.9360   30.2858 H   0  0  0  0  0  0  0  0  0  0  0  0
   34.8550   22.5696   30.7977 H   0  0  0  0  0  0  0  0  0  0  0  0
   36.2247   21.4210   32.5408 H   0  0  0  0  0  0  0  0  0  0  0  0
   38.0148   22.6624   33.7204 H   0  0  0  0  0  0  0  0  0  0  0  0
  1  2  1  0
  1  8  1  0
  3  2  1  0
  4  3  1  0
  5  4  1  0
  5  6  1  0
  6  1  1  0
  7 12  2  0
  8  7  1  0
  9  8  2  0
  9 10  1  0
 10 11  2  0
 11 12  1  0
 13 18  1  0
 13  6  1  0
 14 13  2  0
 15 16  2  0
 15 14  1  0
 16 17  1  0
 17 18  2  0
  2 19  1  0
  2 20  1  0
  3 21  1  0
  3 22  1  0
  4 23  1  0
  4 24  1  0
  5 25  1  0
  5 26  1  0
  6 27  1  1
  7 28  1  0
  9 29  1  0
 11 30  1  0
 14 31  1  0
 15 32  1  0
 16 33  1  0
 17 34  1  0
 18 35  1  0
M  ISO  8  19  13  20  13  21  13  22  13  23  13  24  13  25  13  26  13
M  ISO  8  27  13  28  14  29  14  30  14  31  14  32  14  33  14  34  14
M  ISO  1  35  14
M  END
>  <minimizedAffinity>  (1) 
-4.81886387

>  <minimizedRMSD>  (1) 
4.47101879

$$$$
