
     RDKit          3D

 35 37  0  0  1  0  0  0  0  0999 V2000
   38.6730   25.6680   34.7160 N   0  0  0  0  0  0  0  0  0  0  0  0
   39.8020   26.5590   34.7770 C   0  0  0  0  0  0  0  0  0  0  0  0
   40.1430   27.2020   33.4900 C   0  0  0  0  0  0  0  0  0  0  0  0
   39.9710   26.3490   32.2730 C   0  0  0  0  0  0  0  0  0  0  0  0
   38.9640   25.2650   32.4450 C   0  0  0  0  0  0  0  0  0  0  0  0
   37.9490   25.7020   33.4770 C   0  0  2  0  0  0  0  0  0  0  0  0
   38.2450   25.3140   37.1320 C   0  0  0  0  0  0  0  0  0  0  0  0
   38.3490   24.8440   35.8260 C   0  0  0  0  0  0  0  0  0  0  0  0
   38.1120   23.4980   35.6150 C   0  0  0  0  0  0  0  0  0  0  0  0
   37.7930   22.7190   36.6940 N   0  0  0  0  0  0  0  0  0  0  0  0
   37.7040   23.2160   37.9390 C   0  0  0  0  0  0  0  0  0  0  0  0
   37.9310   24.5100   38.1400 N   0  0  0  0  0  0  0  0  0  0  0  0
   37.2980   26.9910   33.2000 C   0  0  0  0  0  0  0  0  0  0  0  0
   36.7460   27.4830   34.3930 C   0  0  0  0  0  0  0  0  0  0  0  0
   36.0480   28.6900   34.4480 C   0  0  0  0  0  0  0  0  0  0  0  0
   35.8910   29.4320   33.2930 C   0  0  0  0  0  0  0  0  0  0  0  0
   36.4320   28.9460   32.1250 C   0  0  0  0  0  0  0  0  0  0  0  0
   37.1210   27.7560   32.0700 C   0  0  0  0  0  0  0  0  0  0  0  0
   39.5770   27.3498   35.5077 H   0  0  0  0  0  0  0  0  0  0  0  0
   40.6702   25.9465   35.0616 H   0  0  0  0  0  0  0  0  0  0  0  0
   39.5020   28.0884   33.3748 H   0  0  0  0  0  0  0  0  0  0  0  0
   41.2172   27.4325   33.5453 H   0  0  0  0  0  0  0  0  0  0  0  0
   40.9402   25.8887   32.0306 H   0  0  0  0  0  0  0  0  0  0  0  0
   39.6072   27.0039   31.4675 H   0  0  0  0  0  0  0  0  0  0  0  0
   38.4585   25.0746   31.4868 H   0  0  0  0  0  0  0  0  0  0  0  0
   39.4615   24.3421   32.7776 H   0  0  0  0  0  0  0  0  0  0  0  0
   37.0772   25.0312   33.4862 H   0  0  0  0  0  0  0  0  0  0  0  0
   38.4279   26.3797   37.3339 H   0  0  0  0  0  0  0  0  0  0  0  0
   38.1782   23.0648   34.6061 H   0  0  0  0  0  0  0  0  0  0  0  0
   37.4461   22.5591   38.7828 H   0  0  0  0  0  0  0  0  0  0  0  0
   36.8678   26.8972   35.3160 H   0  0  0  0  0  0  0  0  0  0  0  0
   35.6276   29.0467   35.3999 H   0  0  0  0  0  0  0  0  0  0  0  0
   35.3468   30.3879   33.3070 H   0  0  0  0  0  0  0  0  0  0  0  0
   36.3093   29.5302   31.2011 H   0  0  0  0  0  0  0  0  0  0  0  0
   37.5354   27.4121   31.1108 H   0  0  0  0  0  0  0  0  0  0  0  0
  1  2  1  0
  1  8  1  0
  3  2  1  0
  4  5  1  0
  4  3  1  0
  5  6  1  0
  6  1  1  0
  7 12  2  0
  8  7  1  0
  9  8  2  0
  9 10  1  0
 10 11  2  0
 11 12  1  0
 13  6  1  0
 13 14  2  0
 14 15  1  0
 16 15  2  0
 17 16  1  0
 18 17  2  0
 18 13  1  0
  2 19  1  0
  2 20  1  0
  3 21  1  0
  3 22  1  0
  4 23  1  0
  4 24  1  0
  5 25  1  0
  5 26  1  0
  6 27  1  1
  7 28  1  0
  9 29  1  0
 11 30  1  0
 14 31  1  0
 15 32  1  0
 16 33  1  0
 17 34  1  0
 18 35  1  0
M  ISO  8  19  13  20  13  21  13  22  13  23  13  24  13  25  13  26  13
M  ISO  8  27  13  28  14  29  14  30  14  31  14  32  14  33  14  34  14
M  ISO  1  35  14
M  END
>  <minimizedAffinity>  (1) 
-4.69517517

>  <minimizedRMSD>  (1) 
4.02928782

$$$$
