
     RDKit          3D

 31 33  0  0  1  0  0  0  0  0999 V2000
   38.7390   25.5240   35.0410 N   0  0  0  0  0  0  0  0  0  0  0  0
   39.7740   26.5170   34.8250 C   0  0  0  0  0  0  0  0  0  0  0  0
   39.8400   27.0800   33.4660 C   0  0  0  0  0  0  0  0  0  0  0  0
   39.4620   26.1740   32.3560 C   0  0  0  0  0  0  0  0  0  0  0  0
   38.6280   25.0040   32.7730 C   0  0  0  0  0  0  0  0  0  0  0  0
   37.8030   25.4470   33.9760 C   0  0  2  0  0  0  0  0  0  0  0  0
   37.9190   25.0130   37.3300 C   0  0  0  0  0  0  0  0  0  0  0  0
   38.7270   24.7450   36.2210 C   0  0  0  0  0  0  0  0  0  0  0  0
   39.5600   23.6450   36.3080 C   0  0  0  0  0  0  0  0  0  0  0  0
   39.5540   22.8920   37.4360 N   0  0  0  0  0  0  0  0  0  0  0  0
   38.7590   23.1860   38.4800 C   0  0  0  0  0  0  0  0  0  0  0  0
   37.9410   24.2500   38.4220 N   0  0  0  0  0  0  0  0  0  0  0  0
   37.1000   26.6780   33.7210 N   0  0  0  0  0  0  0  0  0  0  0  0
   36.8050   27.6540   34.5980 C   0  0  0  0  0  0  0  0  0  0  0  0
   36.1400   28.6110   33.9130 N   0  0  0  0  0  0  0  0  0  0  0  0
   36.0180   28.2410   32.6220 C   0  0  0  0  0  0  0  0  0  0  0  0
   36.6170   27.0480   32.5350 N   0  0  0  0  0  0  0  0  0  0  0  0
   39.5999   27.3459   35.5269 H   0  0  0  0  0  0  0  0  0  0  0  0
   40.7297   25.9955   34.9821 H   0  0  0  0  0  0  0  0  0  0  0  0
   39.1673   27.9496   33.4315 H   0  0  0  0  0  0  0  0  0  0  0  0
   40.9014   27.3166   33.3001 H   0  0  0  0  0  0  0  0  0  0  0  0
   40.3842   25.7923   31.8936 H   0  0  0  0  0  0  0  0  0  0  0  0
   38.8487   26.7663   31.6610 H   0  0  0  0  0  0  0  0  0  0  0  0
   37.9632   24.7022   31.9502 H   0  0  0  0  0  0  0  0  0  0  0  0
   39.2624   24.1427   33.0294 H   0  0  0  0  0  0  0  0  0  0  0  0
   36.9933   24.7441   34.2217 H   0  0  0  0  0  0  0  0  0  0  0  0
   37.2440   25.8810   37.3001 H   0  0  0  0  0  0  0  0  0  0  0  0
   40.2220   23.3828   35.4695 H   0  0  0  0  0  0  0  0  0  0  0  0
   38.7785   22.5555   39.3811 H   0  0  0  0  0  0  0  0  0  0  0  0
   37.0569   27.6704   35.6687 H   0  0  0  0  0  0  0  0  0  0  0  0
   35.5292   28.8017   31.8116 H   0  0  0  0  0  0  0  0  0  0  0  0
  1  8  1  0
  2  1  1  0
  3  2  1  0
  4  5  1  0
  4  3  1  0
  5  6  1  0
  6  1  1  0
  7 12  2  0
  8  9  2  0
  8  7  1  0
  9 10  1  0
 10 11  2  0
 12 11  1  0
 13  6  1  0
 13 14  1  0
 15 14  2  0
 16 15  1  0
 17 16  2  0
 17 13  1  0
  2 18  1  0
  2 19  1  0
  3 20  1  0
  3 21  1  0
  4 22  1  0
  4 23  1  0
  5 24  1  0
  5 25  1  0
  6 26  1  1
  7 27  1  0
  9 28  1  0
 11 29  1  0
 14 30  1  0
 16 31  1  0
M  ISO  8  18  13  19  13  20  13  21  13  22  13  23  13  24  13  25  13
M  ISO  6  26  13  27  14  28  14  29  14  30  14  31  14
M  END
>  <minimizedAffinity>  (1) 
-4.33751535

>  <minimizedRMSD>  (1) 
4.16536093

$$$$
