
     RDKit          3D

 32 34  0  0  1  0  0  0  0  0999 V2000
   37.6650   25.6610   34.2080 N   0  0  0  0  0  0  0  0  0  0  0  0
   36.9140   26.8370   34.5930 C   0  0  0  0  0  0  0  0  0  0  0  0
   36.7110   27.8240   33.5210 C   0  0  0  0  0  0  0  0  0  0  0  0
   37.8330   27.9750   32.5440 C   0  0  0  0  0  0  0  0  0  0  0  0
   38.6870   26.7660   32.4250 C   0  0  0  0  0  0  0  0  0  0  0  0
   37.8730   25.5540   32.7950 C   0  0  2  0  0  0  0  0  0  0  0  0
   38.0130   24.9420   36.5610 C   0  0  0  0  0  0  0  0  0  0  0  0
   38.1240   24.7450   35.1870 C   0  0  0  0  0  0  0  0  0  0  0  0
   38.7290   23.5750   34.7670 C   0  0  0  0  0  0  0  0  0  0  0  0
   39.1800   22.6870   35.6850 N   0  0  0  0  0  0  0  0  0  0  0  0
   39.0550   22.9130   37.0060 C   0  0  0  0  0  0  0  0  0  0  0  0
   38.4740   24.0340   37.4220 N   0  0  0  0  0  0  0  0  0  0  0  0
   36.6780   25.3380   31.9820 C   0  0  0  0  0  0  0  0  0  0  0  0
   35.8120   26.0010   31.1350 C   0  0  0  0  0  0  0  0  0  0  0  0
   34.8560   25.1530   30.7110 N   0  0  0  0  0  0  0  0  0  0  0  0
   35.1080   23.9690   31.2780 C   0  0  0  0  0  0  0  0  0  0  0  0
   36.2140   24.0560   32.0570 N   0  0  0  0  0  0  0  0  0  0  0  0
   35.9253   26.5096   34.9471 H   0  0  0  0  0  0  0  0  0  0  0  0
   37.5100   27.3424   35.3672 H   0  0  0  0  0  0  0  0  0  0  0  0
   35.8130   27.5290   32.9584 H   0  0  0  0  0  0  0  0  0  0  0  0
   36.6275   28.7969   34.0274 H   0  0  0  0  0  0  0  0  0  0  0  0
   37.4051   28.1968   31.5552 H   0  0  0  0  0  0  0  0  0  0  0  0
   38.4753   28.7873   32.9148 H   0  0  0  0  0  0  0  0  0  0  0  0
   39.0454   26.6678   31.3897 H   0  0  0  0  0  0  0  0  0  0  0  0
   39.5519   26.8534   33.0990 H   0  0  0  0  0  0  0  0  0  0  0  0
   38.4104   24.6234   32.5602 H   0  0  0  0  0  0  0  0  0  0  0  0
   37.5387   25.8588   36.9412 H   0  0  0  0  0  0  0  0  0  0  0  0
   38.8435   23.3664   33.6931 H   0  0  0  0  0  0  0  0  0  0  0  0
   39.4296   22.1780   37.7336 H   0  0  0  0  0  0  0  0  0  0  0  0
   35.8912   27.0605   30.8501 H   0  0  0  0  0  0  0  0  0  0  0  0
   34.5070   23.0590   31.1338 H   0  0  0  0  0  0  0  0  0  0  0  0
   36.6302   23.2913   32.6074 H   0  0  0  0  0  0  0  0  0  0  0  0
  1  2  1  0
  1  8  1  0
  3  2  1  0
  4  3  1  0
  5  4  1  0
  5  6  1  0
  6  1  1  0
  7 12  2  0
  8  7  1  0
  9  8  2  0
  9 10  1  0
 10 11  2  0
 11 12  1  0
 13 17  1  0
 13  6  1  0
 14 13  2  0
 15 14  1  0
 15 16  2  0
 16 17  1  0
  2 18  1  0
  2 19  1  0
  3 20  1  0
  3 21  1  0
  4 22  1  0
  4 23  1  0
  5 24  1  0
  5 25  1  0
  6 26  1  1
  7 27  1  0
  9 28  1  0
 11 29  1  0
 14 30  1  0
 16 31  1  0
 17 32  1  0
M  ISO  8  18  13  19  13  20  13  21  13  22  13  23  13  24  13  25  13
M  ISO  7  26  13  27  14  28  14  29  14  30  14  31  14  32   9
M  END
>  <minimizedAffinity>  (1) 
-4.29233551

>  <minimizedRMSD>  (1) 
3.10791302

$$$$
