
     RDKit          3D

 41 43  0  0  1  0  0  0  0  0999 V2000
   38.6030   26.5440   34.1400 N   0  0  0  0  0  0  0  0  0  0  0  0
   38.0460   27.4700   35.1420 C   0  0  0  0  0  0  0  0  0  0  0  0
   36.6830   27.9570   34.8310 C   0  0  0  0  0  0  0  0  0  0  0  0
   36.4530   28.2880   33.3980 C   0  0  0  0  0  0  0  0  0  0  0  0
   37.3500   27.4990   32.4670 C   0  0  0  0  0  0  0  0  0  0  0  0
   37.6480   26.1650   33.2110 C   0  0  1  0  0  0  0  0  0  0  0  0
   40.5370   25.1050   34.8970 C   0  0  0  0  0  0  0  0  0  0  0  0
   39.9750   26.2430   34.2690 C   0  0  0  0  0  0  0  0  0  0  0  0
   40.8550   27.1750   33.7740 C   0  0  0  0  0  0  0  0  0  0  0  0
   42.1770   26.9930   33.8980 N   0  0  0  0  0  0  0  0  0  0  0  0
   42.6810   25.8860   34.5100 C   0  0  0  0  0  0  0  0  0  0  0  0
   41.8580   24.9620   34.9990 N   0  0  0  0  0  0  0  0  0  0  0  0
   37.6020   25.0150   32.3260 C   0  0  0  0  0  0  0  0  0  0  0  0
   36.1550   24.9650   31.7380 C   0  0  0  0  0  0  0  0  0  0  0  0
   35.7310   23.5630   31.4370 C   0  0  0  0  0  0  0  0  0  0  0  0
   36.8520   22.6150   31.0920 C   0  0  0  0  0  0  0  0  0  0  0  0
   37.8980   22.5960   32.1950 C   0  0  0  0  0  0  0  0  0  0  0  0
   37.5270   23.7020   33.1360 C   0  0  0  0  0  0  0  0  0  0  0  0
   38.0132   26.9501   36.1108 H   0  0  0  0  0  0  0  0  0  0  0  0
   38.7012   28.3535   35.1526 H   0  0  0  0  0  0  0  0  0  0  0  0
   35.9653   27.1757   35.1217 H   0  0  0  0  0  0  0  0  0  0  0  0
   36.5525   28.8945   35.3914 H   0  0  0  0  0  0  0  0  0  0  0  0
   35.4047   28.0664   33.1490 H   0  0  0  0  0  0  0  0  0  0  0  0
   36.6857   29.3543   33.2607 H   0  0  0  0  0  0  0  0  0  0  0  0
   38.2831   28.0487   32.2742 H   0  0  0  0  0  0  0  0  0  0  0  0
   36.8739   27.3250   31.4908 H   0  0  0  0  0  0  0  0  0  0  0  0
   36.9270   25.6412   33.8558 H   0  0  0  0  0  0  0  0  0  0  0  0
   39.8741   24.3284   35.3062 H   0  0  0  0  0  0  0  0  0  0  0  0
   40.4720   28.0762   33.2728 H   0  0  0  0  0  0  0  0  0  0  0  0
   43.7695   25.7555   34.6002 H   0  0  0  0  0  0  0  0  0  0  0  0
   38.4571   25.0966   31.6388 H   0  0  0  0  0  0  0  0  0  0  0  0
   35.4574   25.3997   32.4691 H   0  0  0  0  0  0  0  0  0  0  0  0
   36.1458   25.5364   30.7981 H   0  0  0  0  0  0  0  0  0  0  0  0
   35.2103   23.1673   32.3215 H   0  0  0  0  0  0  0  0  0  0  0  0
   35.0935   23.6215   30.5425 H   0  0  0  0  0  0  0  0  0  0  0  0
   36.4422   21.6020   30.9654 H   0  0  0  0  0  0  0  0  0  0  0  0
   37.3273   22.9536   30.1596 H   0  0  0  0  0  0  0  0  0  0  0  0
   37.8841   21.6285   32.7181 H   0  0  0  0  0  0  0  0  0  0  0  0
   38.9118   22.7341   31.7910 H   0  0  0  0  0  0  0  0  0  0  0  0
   38.2326   23.7355   33.9792 H   0  0  0  0  0  0  0  0  0  0  0  0
   36.5196   23.5488   33.5504 H   0  0  0  0  0  0  0  0  0  0  0  0
  1  8  1  0
  1  2  1  0
  3  2  1  0
  4  3  1  0
  5  6  1  0
  5  4  1  0
  6  1  1  0
  7 12  2  0
  8  7  1  0
  9 10  1  0
  9  8  2  0
 10 11  2  0
 11 12  1  0
 13 18  1  0
 13  6  1  0
 14 13  1  0
 15 14  1  0
 16 15  1  0
 16 17  1  0
 17 18  1  0
  2 19  1  0
  2 20  1  0
  3 21  1  0
  3 22  1  0
  4 23  1  0
  4 24  1  0
  5 25  1  0
  5 26  1  0
  6 27  1  1
  7 28  1  0
  9 29  1  0
 11 30  1  0
 13 31  1  0
 14 32  1  0
 14 33  1  0
 15 34  1  0
 15 35  1  0
 16 36  1  0
 16 37  1  0
 17 38  1  0
 17 39  1  0
 18 40  1  0
 18 41  1  0
M  ISO  8  19  13  20  13  21  13  22  13  23  13  24  13  25  13  26  13
M  ISO  8  27  13  28  14  29  14  30  14  31  13  32  13  33  13  34  13
M  ISO  7  35  13  36  13  37  13  38  13  39  13  40  13  41  13
M  END
>  <minimizedAffinity>  (1) 
-4.25431013

>  <minimizedRMSD>  (1) 
3.80814791

$$$$
