
     RDKit          3D

 32 34  0  0  1  0  0  0  0  0999 V2000
   37.5430   26.1370   33.6600 N   0  0  0  0  0  0  0  0  0  0  0  0
   37.2400   27.4160   34.2300 C   0  0  0  0  0  0  0  0  0  0  0  0
   38.0140   27.7700   35.4260 C   0  0  0  0  0  0  0  0  0  0  0  0
   38.4010   26.6500   36.3310 C   0  0  0  0  0  0  0  0  0  0  0  0
   38.3590   25.3190   35.6790 C   0  0  0  0  0  0  0  0  0  0  0  0
   38.7000   25.5020   34.2200 C   0  0  2  0  0  0  0  0  0  0  0  0
   35.9020   26.3590   31.8160 C   0  0  0  0  0  0  0  0  0  0  0  0
   36.7460   25.5830   32.6400 C   0  0  0  0  0  0  0  0  0  0  0  0
   36.7680   24.2220   32.4060 C   0  0  0  0  0  0  0  0  0  0  0  0
   35.9850   23.7220   31.4060 N   0  0  0  0  0  0  0  0  0  0  0  0
   35.1960   24.4840   30.6420 C   0  0  0  0  0  0  0  0  0  0  0  0
   35.1660   25.7950   30.8580 N   0  0  0  0  0  0  0  0  0  0  0  0
   39.9610   26.1960   33.9540 C   0  0  0  0  0  0  0  0  0  0  0  0
   41.1060   26.5480   34.5220 C   0  0  0  0  0  0  0  0  0  0  0  0
   42.0450   27.2430   33.8370 C   0  0  0  0  0  0  0  0  0  0  0  0
   41.7570   27.5620   32.5310 C   0  0  0  0  0  0  0  0  0  0  0  0
   40.0270   26.8320   32.2320 S   0  0  0  0  0  0  0  0  0  0  0  0
   37.4288   28.1826   33.4640 H   0  0  0  0  0  0  0  0  0  0  0  0
   36.1896   27.3637   34.5524 H   0  0  0  0  0  0  0  0  0  0  0  0
   38.9390   28.2618   35.0905 H   0  0  0  0  0  0  0  0  0  0  0  0
   37.3452   28.4062   36.0243 H   0  0  0  0  0  0  0  0  0  0  0  0
   39.4255   26.8300   36.6887 H   0  0  0  0  0  0  0  0  0  0  0  0
   37.6689   26.6306   37.1518 H   0  0  0  0  0  0  0  0  0  0  0  0
   39.0916   24.6485   36.1521 H   0  0  0  0  0  0  0  0  0  0  0  0
   37.3586   24.8739   35.7842 H   0  0  0  0  0  0  0  0  0  0  0  0
   38.9085   24.5342   33.7405 H   0  0  0  0  0  0  0  0  0  0  0  0
   35.8508   27.4474   31.9670 H   0  0  0  0  0  0  0  0  0  0  0  0
   37.4015   23.5568   33.0111 H   0  0  0  0  0  0  0  0  0  0  0  0
   34.5821   24.0337   29.8481 H   0  0  0  0  0  0  0  0  0  0  0  0
   41.2969   26.2704   35.5691 H   0  0  0  0  0  0  0  0  0  0  0  0
   42.9956   27.5391   34.3046 H   0  0  0  0  0  0  0  0  0  0  0  0
   42.3864   28.1155   31.8187 H   0  0  0  0  0  0  0  0  0  0  0  0
  1  6  1  0
  1  2  1  0
  2  3  1  0
  3  4  1  0
  5  4  1  0
  6  5  1  0
  7  8  2  0
  8  1  1  0
  9  8  1  0
 10  9  2  0
 11 12  2  0
 11 10  1  0
 12  7  1  0
 13  6  1  0
 13 14  2  0
 15 14  1  0
 16 15  2  0
 17 16  1  0
 17 13  1  0
  2 18  1  0
  2 19  1  0
  3 20  1  0
  3 21  1  0
  4 22  1  0
  4 23  1  0
  5 24  1  0
  5 25  1  0
  6 26  1  6
  7 27  1  0
  9 28  1  0
 11 29  1  0
 14 30  1  0
 15 31  1  0
 16 32  1  0
M  ISO  8  18  13  19  13  20  13  21  13  22  13  23  13  24  13  25  13
M  ISO  7  26  13  27  14  28  14  29  14  30  14  31  14  32  14
M  END
>  <minimizedAffinity>  (1) 
-4.24651194

>  <minimizedRMSD>  (1) 
5.42299175

$$$$
