
     RDKit          3D

 32 34  0  0  1  0  0  0  0  0999 V2000
   37.9580   25.7590   33.4240 N   0  0  0  0  0  0  0  0  0  0  0  0
   39.0240   26.7050   33.1450 C   0  0  0  0  0  0  0  0  0  0  0  0
   39.9070   27.0090   34.2800 C   0  0  0  0  0  0  0  0  0  0  0  0
   39.3230   26.9320   35.6300 C   0  0  0  0  0  0  0  0  0  0  0  0
   38.0200   26.2070   35.7100 C   0  0  0  0  0  0  0  0  0  0  0  0
   38.1020   25.0870   34.6710 C   0  0  2  0  0  0  0  0  0  0  0  0
   36.2170   26.6130   31.8780 C   0  0  0  0  0  0  0  0  0  0  0  0
   36.9090   25.5780   32.4980 C   0  0  0  0  0  0  0  0  0  0  0  0
   36.5260   24.2910   32.1700 C   0  0  0  0  0  0  0  0  0  0  0  0
   35.5090   24.1110   31.2740 N   0  0  0  0  0  0  0  0  0  0  0  0
   34.8680   25.1420   30.6990 C   0  0  0  0  0  0  0  0  0  0  0  0
   35.2290   26.4020   31.0070 N   0  0  0  0  0  0  0  0  0  0  0  0
   39.3720   24.3650   34.8490 C   0  0  0  0  0  0  0  0  0  0  0  0
   39.7180   23.5710   33.7560 C   0  0  0  0  0  0  0  0  0  0  0  0
   40.9280   22.9310   34.0220 C   0  0  0  0  0  0  0  0  0  0  0  0
   41.2730   23.3630   35.2680 N   0  0  0  0  0  0  0  0  0  0  0  0
   40.3710   24.1860   35.7310 N   0  0  0  0  0  0  0  0  0  0  0  0
   39.6423   26.2911   32.3348 H   0  0  0  0  0  0  0  0  0  0  0  0
   38.5294   27.6518   32.8823 H   0  0  0  0  0  0  0  0  0  0  0  0
   40.7482   26.3011   34.2430 H   0  0  0  0  0  0  0  0  0  0  0  0
   40.1795   28.0668   34.1502 H   0  0  0  0  0  0  0  0  0  0  0  0
   40.0416   26.4169   36.2845 H   0  0  0  0  0  0  0  0  0  0  0  0
   39.1194   27.9682   35.9380 H   0  0  0  0  0  0  0  0  0  0  0  0
   37.8768   25.7863   36.7163 H   0  0  0  0  0  0  0  0  0  0  0  0
   37.1705   26.8782   35.5157 H   0  0  0  0  0  0  0  0  0  0  0  0
   37.3292   24.3085   34.7536 H   0  0  0  0  0  0  0  0  0  0  0  0
   36.4964   27.6499   32.1161 H   0  0  0  0  0  0  0  0  0  0  0  0
   37.0315   23.4252   32.6227 H   0  0  0  0  0  0  0  0  0  0  0  0
   34.0543   24.9582   29.9819 H   0  0  0  0  0  0  0  0  0  0  0  0
   39.1305   23.4663   32.8320 H   0  0  0  0  0  0  0  0  0  0  0  0
   41.4795   22.2348   33.3730 H   0  0  0  0  0  0  0  0  0  0  0  0
   42.1250   23.0802   35.7731 H   0  0  0  0  0  0  0  0  0  0  0  0
  1  6  1  0
  2  1  1  0
  2  3  1  0
  3  4  1  0
  4  5  1  0
  6 13  1  0
  6  5  1  0
  7  8  2  0
  8  1  1  0
  9  8  1  0
 10  9  2  0
 11 12  2  0
 11 10  1  0
 12  7  1  0
 13 17  2  0
 14 15  2  0
 14 13  1  0
 15 16  1  0
 16 17  1  0
  2 18  1  0
  2 19  1  0
  3 20  1  0
  3 21  1  0
  4 22  1  0
  4 23  1  0
  5 24  1  0
  5 25  1  0
  6 26  1  1
  7 27  1  0
  9 28  1  0
 11 29  1  0
 14 30  1  0
 15 31  1  0
 16 32  1  0
M  ISO  8  18  13  19  13  20  13  21  13  22  13  23  13  24  13  25  13
M  ISO  7  26  13  27  14  28  14  29  14  30  14  31  14  32   9
M  END
>  <minimizedAffinity>  (1) 
-4.09217834

>  <minimizedRMSD>  (1) 
5.69657421

$$$$
