
     RDKit          3D

 31 32  0  0  1  0  0  0  0  0999 V2000
   37.0300   26.6560   33.0150 N   0  0  0  0  0  0  0  0  0  0  0  0
   36.5860   28.0150   33.2500 C   0  0  0  0  0  0  0  0  0  0  0  0
   36.4140   28.8380   32.0490 C   0  0  0  0  0  0  0  0  0  0  0  0
   37.1120   28.4620   30.8110 C   0  0  0  0  0  0  0  0  0  0  0  0
   37.8200   27.1490   30.8750 C   0  0  0  0  0  0  0  0  0  0  0  0
   36.9220   26.2300   31.6630 C   0  0  2  0  0  0  0  0  0  0  0  0
   37.6300   26.2880   35.3950 C   0  0  0  0  0  0  0  0  0  0  0  0
   37.5270   25.8660   34.0730 C   0  0  0  0  0  0  0  0  0  0  0  0
   37.9570   24.5820   33.7990 C   0  0  0  0  0  0  0  0  0  0  0  0
   38.4460   23.8100   34.8080 N   0  0  0  0  0  0  0  0  0  0  0  0
   38.5270   24.2570   36.0670 C   0  0  0  0  0  0  0  0  0  0  0  0
   38.1150   25.5100   36.3610 N   0  0  0  0  0  0  0  0  0  0  0  0
   35.5740   25.9970   31.1120 C   0  0  0  0  0  0  0  0  0  0  0  0
   35.2640   24.4920   31.1420 C   0  0  0  0  0  0  0  0  0  0  0  0
   35.6187   27.9703   33.7719 H   0  0  0  0  0  0  0  0  0  0  0  0
   37.3830   28.4968   33.8354 H   0  0  0  0  0  0  0  0  0  0  0  0
   35.3382   28.8494   31.8196 H   0  0  0  0  0  0  0  0  0  0  0  0
   36.8735   29.7987   32.3246 H   0  0  0  0  0  0  0  0  0  0  0  0
   37.8538   29.2419   30.5842 H   0  0  0  0  0  0  0  0  0  0  0  0
   36.3401   28.3642   30.0334 H   0  0  0  0  0  0  0  0  0  0  0  0
   37.9795   26.7511   29.8620 H   0  0  0  0  0  0  0  0  0  0  0  0
   38.8089   27.2474   31.3465 H   0  0  0  0  0  0  0  0  0  0  0  0
   37.2588   25.1856   31.5871 H   0  0  0  0  0  0  0  0  0  0  0  0
   37.2976   27.3045   35.6524 H   0  0  0  0  0  0  0  0  0  0  0  0
   37.9047   24.1867   32.7738 H   0  0  0  0  0  0  0  0  0  0  0  0
   38.9273   23.6071   36.8591 H   0  0  0  0  0  0  0  0  0  0  0  0
   35.5339   26.3594   30.0742 H   0  0  0  0  0  0  0  0  0  0  0  0
   34.8311   26.5375   31.7169 H   0  0  0  0  0  0  0  0  0  0  0  0
   35.1941   24.1528   32.1861 H   0  0  0  0  0  0  0  0  0  0  0  0
   34.3083   24.3042   30.6307 H   0  0  0  0  0  0  0  0  0  0  0  0
   36.0677   23.9418   30.6307 H   0  0  0  0  0  0  0  0  0  0  0  0
  1  2  1  0
  1  8  1  0
  3  2  1  0
  4  5  1  0
  4  3  1  0
  5  6  1  0
  6  1  1  0
  7 12  2  0
  8  7  1  0
  9  8  2  0
  9 10  1  0
 10 11  2  0
 11 12  1  0
 13 14  1  0
 13  6  1  0
  2 15  1  0
  2 16  1  0
  3 17  1  0
  3 18  1  0
  4 19  1  0
  4 20  1  0
  5 21  1  0
  5 22  1  0
  6 23  1  1
  7 24  1  0
  9 25  1  0
 11 26  1  0
 13 27  1  0
 13 28  1  0
 14 29  1  0
 14 30  1  0
 14 31  1  0
M  ISO  8  15  13  16  13  17  13  18  13  19  13  20  13  21  13  22  13
M  ISO  8  23  13  24  14  25  14  26  14  27   8  28   8  29   8  30   8
M  ISO  1  31   8
M  END
>  <minimizedAffinity>  (1) 
-3.76388669

>  <minimizedRMSD>  (1) 
2.16972613

$$$$
