
     RDKit          3D

 48 52  0  0  1  0  0  0  0  0999 V2000
   38.4900   24.3650   34.1190 N   0  0  0  0  0  0  0  0  0  0  0  0
   37.8170   23.1030   33.8720 C   0  0  0  0  0  0  0  0  0  0  0  0
   38.6160   21.8930   34.0070 C   0  0  0  0  0  0  0  0  0  0  0  0
   40.0740   22.0120   33.6930 C   0  0  0  0  0  0  0  0  0  0  0  0
   40.5580   23.4190   33.6140 C   0  0  0  0  0  0  0  0  0  0  0  0
   39.7640   24.1960   34.6890 C   0  0  2  0  0  0  0  0  0  0  0  0
   37.6000   26.0070   32.5030 C   0  0  0  0  0  0  0  0  0  0  0  0
   37.8530   25.5680   33.7920 C   0  0  0  0  0  0  0  0  0  0  0  0
   37.4270   26.3730   34.8430 C   0  0  0  0  0  0  0  0  0  0  0  0
   36.7850   27.5510   34.5620 N   0  0  0  0  0  0  0  0  0  0  0  0
   36.5640   27.9330   33.2690 C   0  0  0  0  0  0  0  0  0  0  0  0
   36.9780   27.1490   32.2430 N   0  0  0  0  0  0  0  0  0  0  0  0
   39.8350   23.5920   35.9830 N   0  0  0  0  0  0  0  0  0  0  0  0
   38.8510   23.3000   36.8700 C   0  0  0  0  0  0  0  0  0  0  0  0
   39.4460   22.7600   37.9650 C   0  0  0  0  0  0  0  0  0  0  0  0
   40.7540   22.7260   37.7440 N   0  0  0  0  0  0  0  0  0  0  0  0
   41.0040   23.2370   36.5200 C   0  0  0  0  0  0  0  0  0  0  0  0
   42.4410   23.1960   36.2990 C   0  0  0  0  0  0  0  0  0  0  0  0
   43.2440   24.3290   36.2970 C   0  0  0  0  0  0  0  0  0  0  0  0
   44.6140   24.3760   36.1580 C   0  0  0  0  0  0  0  0  0  0  0  0
   45.2000   23.1400   36.0090 C   0  0  0  0  0  0  0  0  0  0  0  0
   44.5260   21.9370   35.9940 C   0  0  0  0  0  0  0  0  0  0  0  0
   45.1910   20.7350   35.8710 C   0  0  0  0  0  0  0  0  0  0  0  0
   44.4850   19.5390   35.8950 C   0  0  0  0  0  0  0  0  0  0  0  0
   43.0970   19.5580   36.0460 C   0  0  0  0  0  0  0  0  0  0  0  0
   42.5100   20.8000   36.1610 C   0  0  0  0  0  0  0  0  0  0  0  0
   43.1610   22.0300   36.1420 C   0  0  0  0  0  0  0  0  0  0  0  0
   37.4263   23.1303   32.8441 H   0  0  0  0  0  0  0  0  0  0  0  0
   37.0494   23.0289   34.6564 H   0  0  0  0  0  0  0  0  0  0  0  0
   38.5262   21.5487   35.0479 H   0  0  0  0  0  0  0  0  0  0  0  0
   38.2146   21.1963   33.2564 H   0  0  0  0  0  0  0  0  0  0  0  0
   40.6418   21.4933   34.4795 H   0  0  0  0  0  0  0  0  0  0  0  0
   40.2260   21.5641   32.6999 H   0  0  0  0  0  0  0  0  0  0  0  0
   41.6365   23.4659   33.8252 H   0  0  0  0  0  0  0  0  0  0  0  0
   40.4065   23.8445   32.6110 H   0  0  0  0  0  0  0  0  0  0  0  0
   40.1847   25.1836   34.9292 H   0  0  0  0  0  0  0  0  0  0  0  0
   37.9288   25.3822   31.6595 H   0  0  0  0  0  0  0  0  0  0  0  0
   37.6028   26.0686   35.8853 H   0  0  0  0  0  0  0  0  0  0  0  0
   36.0476   28.8813   33.0592 H   0  0  0  0  0  0  0  0  0  0  0  0
   37.7732   23.4689   36.7289 H   0  0  0  0  0  0  0  0  0  0  0  0
   38.9341   22.4123   38.8744 H   0  0  0  0  0  0  0  0  0  0  0  0
   42.7304   25.2940   36.4197 H   0  0  0  0  0  0  0  0  0  0  0  0
   45.1866   25.3152   36.1655 H   0  0  0  0  0  0  0  0  0  0  0  0
   46.2934   23.1090   35.8926 H   0  0  0  0  0  0  0  0  0  0  0  0
   46.2846   20.7234   35.7534 H   0  0  0  0  0  0  0  0  0  0  0  0
   45.0169   18.5813   35.7955 H   0  0  0  0  0  0  0  0  0  0  0  0
   42.5040   18.6319   36.0718 H   0  0  0  0  0  0  0  0  0  0  0  0
   41.4166   20.8210   36.2798 H   0  0  0  0  0  0  0  0  0  0  0  0
  1  6  1  0
  2  3  1  0
  2  1  1  0
  4  3  1  0
  5  4  1  0
  5  6  1  0
  6 13  1  0
  7  8  2  0
  8  1  1  0
  8  9  1  0
 10  9  2  0
 11 10  1  0
 12  7  1  0
 12 11  2  0
 13 17  1  0
 13 14  1  0
 14 15  2  0
 16 15  1  0
 17 16  2  0
 18 17  1  0
 19 18  2  0
 20 19  1  0
 21 20  2  0
 22 21  1  0
 22 27  2  0
 23 24  2  0
 23 22  1  0
 24 25  1  0
 25 26  2  0
 27 26  1  0
 27 18  1  0
  2 28  1  0
  2 29  1  0
  3 30  1  0
  3 31  1  0
  4 32  1  0
  4 33  1  0
  5 34  1  0
  5 35  1  0
  6 36  1  1
  7 37  1  0
  9 38  1  0
 11 39  1  0
 14 40  1  0
 15 41  1  0
 19 42  1  0
 20 43  1  0
 21 44  1  0
 23 45  1  0
 24 46  1  0
 25 47  1  0
 26 48  1  0
M  ISO  8  28  13  29  13  30  13  31  13  32  13  33  13  34  13  35  13
M  ISO  8  36  13  37  14  38  14  39  14  40  14  41  14  42  14  43  14
M  ISO  5  44  14  45  14  46  14  47  14  48  14
M  END
>  <minimizedAffinity>  (1) 
-5.46224642

>  <minimizedRMSD>  (1) 
7.32490063

$$$$
