
     RDKit          3D

 46 50  0  0  1  0  0  0  0  0999 V2000
   37.7570   23.8060   33.0450 N   0  0  0  0  0  0  0  0  0  0  0  0
   37.2640   22.4510   33.0450 C   0  0  0  0  0  0  0  0  0  0  0  0
   38.2100   21.4120   33.4360 C   0  0  0  0  0  0  0  0  0  0  0  0
   39.6650   21.6780   33.1540 C   0  0  0  0  0  0  0  0  0  0  0  0
   39.9730   23.1050   32.8200 C   0  0  0  0  0  0  0  0  0  0  0  0
   38.9850   23.9250   33.6980 C   0  0  2  0  0  0  0  0  0  0  0  0
   36.0320   24.6330   31.4940 C   0  0  0  0  0  0  0  0  0  0  0  0
   37.0360   24.8610   32.4490 C   0  0  0  0  0  0  0  0  0  0  0  0
   37.2720   26.1520   32.8140 C   0  0  0  0  0  0  0  0  0  0  0  0
   36.5260   27.1490   32.2400 N   0  0  0  0  0  0  0  0  0  0  0  0
   35.5660   26.8930   31.3260 C   0  0  0  0  0  0  0  0  0  0  0  0
   35.3230   25.6070   30.9540 N   0  0  0  0  0  0  0  0  0  0  0  0
   39.0470   23.6050   35.0930 N   0  0  0  0  0  0  0  0  0  0  0  0
   38.0300   23.3160   35.9560 C   0  0  0  0  0  0  0  0  0  0  0  0
   38.5970   23.1050   37.1600 C   0  0  0  0  0  0  0  0  0  0  0  0
   39.8850   23.2620   37.0120 N   0  0  0  0  0  0  0  0  0  0  0  0
   40.2050   23.5700   35.7370 C   0  0  0  0  0  0  0  0  0  0  0  0
   41.6530   23.7120   35.6560 C   0  0  0  0  0  0  0  0  0  0  0  0
   42.3800   24.7800   35.5790 N   0  0  0  0  0  0  0  0  0  0  0  0
   43.6510   25.0630   35.5760 C   0  0  0  0  0  0  0  0  0  0  0  0
   44.4420   23.9920   35.6790 N   0  0  0  0  0  0  0  0  0  0  0  0
   43.9240   22.7560   35.7760 C   0  0  0  0  0  0  0  0  0  0  0  0
   44.7790   21.7010   35.9140 C   0  0  0  0  0  0  0  0  0  0  0  0
   44.3050   20.4200   36.0570 C   0  0  0  0  0  0  0  0  0  0  0  0
   42.9220   20.2430   36.0550 C   0  0  0  0  0  0  0  0  0  0  0  0
   42.1350   21.3640   35.9090 C   0  0  0  0  0  0  0  0  0  0  0  0
   42.5640   22.6830   35.7590 C   0  0  0  0  0  0  0  0  0  0  0  0
   36.4125   22.4057   33.7398 H   0  0  0  0  0  0  0  0  0  0  0  0
   37.0119   22.2341   31.9965 H   0  0  0  0  0  0  0  0  0  0  0  0
   38.1041   21.2562   34.5197 H   0  0  0  0  0  0  0  0  0  0  0  0
   37.9516   20.5398   32.8176 H   0  0  0  0  0  0  0  0  0  0  0  0
   40.2461   21.3988   34.0453 H   0  0  0  0  0  0  0  0  0  0  0  0
   39.9305   21.0811   32.2690 H   0  0  0  0  0  0  0  0  0  0  0  0
   41.0151   23.3488   33.0741 H   0  0  0  0  0  0  0  0  0  0  0  0
   39.8608   23.3200   31.7471 H   0  0  0  0  0  0  0  0  0  0  0  0
   39.2419   24.9920   33.7727 H   0  0  0  0  0  0  0  0  0  0  0  0
   35.8274   23.5981   31.1824 H   0  0  0  0  0  0  0  0  0  0  0  0
   38.0477   26.3906   33.5565 H   0  0  0  0  0  0  0  0  0  0  0  0
   34.9853   27.7170   30.8858 H   0  0  0  0  0  0  0  0  0  0  0  0
   36.9577   23.2653   35.7158 H   0  0  0  0  0  0  0  0  0  0  0  0
   38.0732   22.8486   38.0927 H   0  0  0  0  0  0  0  0  0  0  0  0
   44.0376   26.0897   35.4960 H   0  0  0  0  0  0  0  0  0  0  0  0
   45.8644   21.8796   35.9106 H   0  0  0  0  0  0  0  0  0  0  0  0
   44.9900   19.5666   36.1688 H   0  0  0  0  0  0  0  0  0  0  0  0
   42.4754   19.2439   36.1660 H   0  0  0  0  0  0  0  0  0  0  0  0
   41.0471   21.2011   35.9109 H   0  0  0  0  0  0  0  0  0  0  0  0
  1  6  1  0
  2  1  1  0
  2  3  1  0
  4  3  1  0
  5  4  1  0
  5  6  1  0
  6 13  1  0
  7  8  2  0
  8  9  1  0
  8  1  1  0
 10  9  2  0
 11 10  1  0
 12 11  2  0
 12  7  1  0
 13 17  1  0
 13 14  1  0
 14 15  2  0
 16 15  1  0
 17 16  2  0
 18 17  1  0
 18 27  1  0
 19 18  2  0
 20 19  1  0
 20 21  2  0
 21 22  1  0
 22 23  1  0
 23 24  2  0
 25 24  1  0
 26 25  2  0
 27 22  2  0
 27 26  1  0
  2 28  1  0
  2 29  1  0
  3 30  1  0
  3 31  1  0
  4 32  1  0
  4 33  1  0
  5 34  1  0
  5 35  1  0
  6 36  1  1
  7 37  1  0
  9 38  1  0
 11 39  1  0
 14 40  1  0
 15 41  1  0
 20 42  1  0
 23 43  1  0
 24 44  1  0
 25 45  1  0
 26 46  1  0
M  ISO  8  28  13  29  13  30  13  31  13  32  13  33  13  34  13  35  13
M  ISO  8  36  13  37  14  38  14  39  14  40  14  41  14  42  14  43  14
M  ISO  3  44  14  45  14  46  14
M  END
>  <minimizedAffinity>  (1) 
-5.09171343

>  <minimizedRMSD>  (1) 
6.77388144

$$$$
