
     RDKit          3D

 46 50  0  0  1  0  0  0  0  0999 V2000
   37.7240   25.2910   33.5360 N   0  0  0  0  0  0  0  0  0  0  0  0
   37.1540   26.6130   33.6770 C   0  0  0  0  0  0  0  0  0  0  0  0
   37.7400   27.4740   34.6860 C   0  0  0  0  0  0  0  0  0  0  0  0
   38.3260   26.7990   35.8900 C   0  0  0  0  0  0  0  0  0  0  0  0
   38.5290   25.3340   35.7210 C   0  0  0  0  0  0  0  0  0  0  0  0
   38.9390   25.1350   34.2450 C   0  0  2  0  0  0  0  0  0  0  0  0
   36.1820   24.5930   31.7400 C   0  0  0  0  0  0  0  0  0  0  0  0
   37.0890   24.3100   32.7580 C   0  0  0  0  0  0  0  0  0  0  0  0
   37.3910   22.9790   32.9940 C   0  0  0  0  0  0  0  0  0  0  0  0
   36.7960   22.0210   32.2300 N   0  0  0  0  0  0  0  0  0  0  0  0
   35.9150   22.3440   31.2450 C   0  0  0  0  0  0  0  0  0  0  0  0
   35.6090   23.6470   31.0020 N   0  0  0  0  0  0  0  0  0  0  0  0
   40.0400   25.9620   33.8470 N   0  0  0  0  0  0  0  0  0  0  0  0
   40.9450   26.6350   34.6050 C   0  0  0  0  0  0  0  0  0  0  0  0
   41.7660   27.2930   33.7520 C   0  0  0  0  0  0  0  0  0  0  0  0
   41.3710   27.0270   32.5270 N   0  0  0  0  0  0  0  0  0  0  0  0
   40.2960   26.1960   32.5610 C   0  0  0  0  0  0  0  0  0  0  0  0
   39.8720   25.9270   31.1970 C   0  0  0  0  0  0  0  0  0  0  0  0
   39.4310   26.8240   30.2160 C   0  0  0  0  0  0  0  0  0  0  0  0
   39.2140   26.2190   29.0360 N   0  0  0  0  0  0  0  0  0  0  0  0
   39.4950   24.9180   29.1720 C   0  0  0  0  0  0  0  0  0  0  0  0
   39.4500   23.9030   28.2410 C   0  0  0  0  0  0  0  0  0  0  0  0
   39.8190   22.6250   28.6030 C   0  0  0  0  0  0  0  0  0  0  0  0
   40.2260   22.3960   29.8940 C   0  0  0  0  0  0  0  0  0  0  0  0
   40.2480   23.4500   30.7700 C   0  0  0  0  0  0  0  0  0  0  0  0
   39.8930   24.7460   30.4780 C   0  0  0  0  0  0  0  0  0  0  0  0
   37.2519   27.1227   32.7071 H   0  0  0  0  0  0  0  0  0  0  0  0
   36.1183   26.4459   34.0078 H   0  0  0  0  0  0  0  0  0  0  0  0
   38.5422   28.0529   34.2050 H   0  0  0  0  0  0  0  0  0  0  0  0
   36.9050   28.0777   35.0710 H   0  0  0  0  0  0  0  0  0  0  0  0
   39.3006   27.2611   36.1061 H   0  0  0  0  0  0  0  0  0  0  0  0
   37.6057   26.9289   36.7111 H   0  0  0  0  0  0  0  0  0  0  0  0
   39.3250   24.9775   36.3913 H   0  0  0  0  0  0  0  0  0  0  0  0
   37.6194   24.7673   35.9691 H   0  0  0  0  0  0  0  0  0  0  0  0
   39.3702   24.1460   34.0306 H   0  0  0  0  0  0  0  0  0  0  0  0
   35.9287   25.6442   31.5377 H   0  0  0  0  0  0  0  0  0  0  0  0
   38.1008   22.6997   33.7866 H   0  0  0  0  0  0  0  0  0  0  0  0
   35.4489   21.5496   30.6436 H   0  0  0  0  0  0  0  0  0  0  0  0
   41.0004   26.6438   35.7036 H   0  0  0  0  0  0  0  0  0  0  0  0
   42.6128   27.9358   34.0343 H   0  0  0  0  0  0  0  0  0  0  0  0
   39.2798   27.8994   30.3912 H   0  0  0  0  0  0  0  0  0  0  0  0
   38.8872   26.6784   28.1740 H   0  0  0  0  0  0  0  0  0  0  0  0
   39.1207   24.1118   27.2124 H   0  0  0  0  0  0  0  0  0  0  0  0
   39.7879   21.8043   27.8713 H   0  0  0  0  0  0  0  0  0  0  0  0
   40.5277   21.3891   30.2182 H   0  0  0  0  0  0  0  0  0  0  0  0
   40.5790   23.2405   31.7979 H   0  0  0  0  0  0  0  0  0  0  0  0
  1  2  1  0
  1  6  1  0
  2  3  1  0
  3  4  1  0
  5  4  1  0
  6  5  1  0
  7  8  2  0
  8  9  1  0
  8  1  1  0
 10  9  2  0
 11 10  1  0
 12 11  2  0
 12  7  1  0
 13  6  1  0
 13 14  1  0
 15 14  2  0
 16 17  2  0
 16 15  1  0
 17 13  1  0
 18 17  1  0
 19 18  2  0
 20 21  1  0
 20 19  1  0
 21 26  2  0
 22 23  2  0
 22 21  1  0
 23 24  1  0
 24 25  2  0
 26 25  1  0
 26 18  1  0
  2 27  1  0
  2 28  1  0
  3 29  1  0
  3 30  1  0
  4 31  1  0
  4 32  1  0
  5 33  1  0
  5 34  1  0
  6 35  1  1
  7 36  1  0
  9 37  1  0
 11 38  1  0
 14 39  1  0
 15 40  1  0
 19 41  1  0
 20 42  1  0
 22 43  1  0
 23 44  1  0
 24 45  1  0
 25 46  1  0
M  ISO  8  27  13  28  13  29  13  30  13  31  13  32  13  33  13  34  13
M  ISO  8  35  13  36  14  37  14  38  14  39  14  40  14  41  14  42   9
M  ISO  4  43  14  44  14  45  14  46  14
M  END
>  <minimizedAffinity>  (1) 
-4.97289419

>  <minimizedRMSD>  (1) 
1.58600652

$$$$
