
     RDKit          3D

 45 48  0  0  1  0  0  0  0  0999 V2000
   37.6880   25.8240   33.8280 N   0  0  0  0  0  0  0  0  0  0  0  0
   37.8780   27.1190   34.4560 C   0  0  0  0  0  0  0  0  0  0  0  0
   38.6320   27.1460   35.7090 C   0  0  0  0  0  0  0  0  0  0  0  0
   38.4890   25.9320   36.5800 C   0  0  0  0  0  0  0  0  0  0  0  0
   37.9270   24.7350   35.8800 C   0  0  0  0  0  0  0  0  0  0  0  0
   38.4580   24.8290   34.4360 C   0  0  2  0  0  0  0  0  0  0  0  0
   36.2460   26.7450   32.0430 C   0  0  0  0  0  0  0  0  0  0  0  0
   36.8110   25.6810   32.7410 C   0  0  0  0  0  0  0  0  0  0  0  0
   36.4830   24.4190   32.3210 C   0  0  0  0  0  0  0  0  0  0  0  0
   35.6520   24.2210   31.2780 N   0  0  0  0  0  0  0  0  0  0  0  0
   35.1170   25.2940   30.6170 C   0  0  0  0  0  0  0  0  0  0  0  0
   35.4270   26.5560   31.0160 N   0  0  0  0  0  0  0  0  0  0  0  0
   39.8890   24.9390   34.3790 N   0  0  0  0  0  0  0  0  0  0  0  0
   40.8310   24.6580   35.2930 C   0  0  0  0  0  0  0  0  0  0  0  0
   42.0340   24.9460   34.7280 C   0  0  0  0  0  0  0  0  0  0  0  0
   41.8060   25.3940   33.4870 N   0  0  0  0  0  0  0  0  0  0  0  0
   40.4750   25.3900   33.2680 C   0  0  0  0  0  0  0  0  0  0  0  0
   39.7510   27.0370   29.4180 C   0  0  0  0  0  0  0  0  0  0  0  0
   39.6440   25.6700   29.5720 C   0  0  0  0  0  0  0  0  0  0  0  0
   39.8790   25.1100   30.8080 C   0  0  0  0  0  0  0  0  0  0  0  0
   40.2210   25.8610   31.9140 C   0  0  0  0  0  0  0  0  0  0  0  0
   40.3020   27.2350   31.6540 C   0  0  0  0  0  0  0  0  0  0  0  0
   40.0850   27.8790   30.4560 C   0  0  0  0  0  0  0  0  0  0  0  0
   39.4490   27.7390   27.8410 S   0  0  0  0  0  0  0  0  0  0  0  0
   38.3810   28.7620   27.9700 O   0  0  0  0  0  0  0  0  0  0  0  0
   40.7050   28.3370   27.2440 O   0  0  0  0  0  0  0  0  0  0  0  0
   38.4066   27.7620   33.7369 H   0  0  0  0  0  0  0  0  0  0  0  0
   36.8663   27.4570   34.7245 H   0  0  0  0  0  0  0  0  0  0  0  0
   39.6974   27.2600   35.4601 H   0  0  0  0  0  0  0  0  0  0  0  0
   38.2182   27.9831   36.2904 H   0  0  0  0  0  0  0  0  0  0  0  0
   39.4834   25.6682   36.9692 H   0  0  0  0  0  0  0  0  0  0  0  0
   37.7755   26.1964   37.3743 H   0  0  0  0  0  0  0  0  0  0  0  0
   38.2747   23.8083   36.3599 H   0  0  0  0  0  0  0  0  0  0  0  0
   36.8277   24.7153   35.9147 H   0  0  0  0  0  0  0  0  0  0  0  0
   38.3303   23.9066   33.8504 H   0  0  0  0  0  0  0  0  0  0  0  0
   36.4857   27.7731   32.3521 H   0  0  0  0  0  0  0  0  0  0  0  0
   36.9062   23.5496   32.8454 H   0  0  0  0  0  0  0  0  0  0  0  0
   34.4385   25.1354   29.7658 H   0  0  0  0  0  0  0  0  0  0  0  0
   40.6618   24.2683   36.3076 H   0  0  0  0  0  0  0  0  0  0  0  0
   43.0184   24.8314   35.2052 H   0  0  0  0  0  0  0  0  0  0  0  0
   39.3737   25.0340   28.7162 H   0  0  0  0  0  0  0  0  0  0  0  0
   39.7904   24.0191   30.9182 H   0  0  0  0  0  0  0  0  0  0  0  0
   40.5706   27.8752   32.5072 H   0  0  0  0  0  0  0  0  0  0  0  0
   40.1708   28.9693   30.3384 H   0  0  0  0  0  0  0  0  0  0  0  0
   39.0404   26.7508   26.9846 H   0  0  0  0  0  0  0  0  0  0  0  0
  1  6  1  0
  1  2  1  0
  2  3  1  0
  3  4  1  0
  5  4  1  0
  6  5  1  0
  7  8  2  0
  8  1  1  0
  9  8  1  0
 10  9  2  0
 11 12  2  0
 11 10  1  0
 12  7  1  0
 13  6  1  0
 13 14  1  0
 15 14  2  0
 16 15  1  0
 17 16  2  0
 17 13  1  0
 18 19  2  0
 18 23  1  0
 19 20  1  0
 20 21  2  0
 21 17  1  0
 22 21  1  0
 23 22  2  0
 24 25  2  0
 24 18  1  0
 26 24  2  0
  2 27  1  0
  2 28  1  0
  3 29  1  0
  3 30  1  0
  4 31  1  0
  4 32  1  0
  5 33  1  0
  5 34  1  0
  6 35  1  6
  7 36  1  0
  9 37  1  0
 11 38  1  0
 14 39  1  0
 15 40  1  0
 19 41  1  0
 20 42  1  0
 22 43  1  0
 23 44  1  0
 24 45  1  0
M  ISO  8  27  13  28  13  29  13  30  13  31  13  32  13  33  13  34  13
M  ISO  8  35  13  36  14  37  14  38  14  39  14  40  14  41  14  42  14
M  ISO  3  43  14  44  14  45  11
M  END
>  <minimizedAffinity>  (1) 
-4.76435995

>  <minimizedRMSD>  (1) 
1.8907156

$$$$
