
     RDKit          3D

 45 48  0  0  1  0  0  0  0  0999 V2000
   37.6730   26.0260   33.9460 N   0  0  0  0  0  0  0  0  0  0  0  0
   37.6510   27.2980   34.6300 C   0  0  0  0  0  0  0  0  0  0  0  0
   38.3200   27.3590   35.9230 C   0  0  0  0  0  0  0  0  0  0  0  0
   38.3470   26.1010   36.7260 C   0  0  0  0  0  0  0  0  0  0  0  0
   37.9920   24.8810   35.9440 C   0  0  0  0  0  0  0  0  0  0  0  0
   38.5640   25.1130   34.5290 C   0  0  2  0  0  0  0  0  0  0  0  0
   36.2060   26.8030   32.1210 C   0  0  0  0  0  0  0  0  0  0  0  0
   36.8640   25.7740   32.8150 C   0  0  0  0  0  0  0  0  0  0  0  0
   36.7140   24.5000   32.3550 C   0  0  0  0  0  0  0  0  0  0  0  0
   35.9360   24.2770   31.2490 N   0  0  0  0  0  0  0  0  0  0  0  0
   35.3180   25.3040   30.6080 C   0  0  0  0  0  0  0  0  0  0  0  0
   35.4600   26.5780   31.0550 N   0  0  0  0  0  0  0  0  0  0  0  0
   39.9550   25.4530   34.5350 N   0  0  0  0  0  0  0  0  0  0  0  0
   40.5850   26.4980   33.9550 C   0  0  0  0  0  0  0  0  0  0  0  0
   41.9020   26.3730   34.2350 C   0  0  0  0  0  0  0  0  0  0  0  0
   42.0460   25.2780   34.9660 N   0  0  0  0  0  0  0  0  0  0  0  0
   40.8540   24.6860   35.1690 C   0  0  0  0  0  0  0  0  0  0  0  0
   41.0640   23.4720   35.9870 C   0  0  0  0  0  0  0  0  0  0  0  0
   40.3590   22.2390   35.4100 C   0  0  0  0  0  0  0  0  0  0  0  0
   41.2170   21.8290   34.2410 C   0  0  0  0  0  0  0  0  0  0  0  0
   42.6040   22.2550   34.6630 C   0  0  0  0  0  0  0  0  0  0  0  0
   42.4920   22.9910   35.9690 C   0  0  0  0  0  0  0  0  0  0  0  0
   38.1298   28.0382   33.9721 H   0  0  0  0  0  0  0  0  0  0  0  0
   36.5897   27.4915   34.8450 H   0  0  0  0  0  0  0  0  0  0  0  0
   39.3621   27.6626   35.7447 H   0  0  0  0  0  0  0  0  0  0  0  0
   37.7291   28.0693   36.5200 H   0  0  0  0  0  0  0  0  0  0  0  0
   39.3609   25.9701   37.1319 H   0  0  0  0  0  0  0  0  0  0  0  0
   37.5886   26.2080   37.5155 H   0  0  0  0  0  0  0  0  0  0  0  0
   38.4448   23.9879   36.3994 H   0  0  0  0  0  0  0  0  0  0  0  0
   36.9049   24.7146   35.9210 H   0  0  0  0  0  0  0  0  0  0  0  0
   38.6062   24.2059   33.9082 H   0  0  0  0  0  0  0  0  0  0  0  0
   36.3166   27.8369   32.4798 H   0  0  0  0  0  0  0  0  0  0  0  0
   37.2110   23.6615   32.8648 H   0  0  0  0  0  0  0  0  0  0  0  0
   34.6990   25.1016   29.7215 H   0  0  0  0  0  0  0  0  0  0  0  0
   40.1151   27.2995   33.3660 H   0  0  0  0  0  0  0  0  0  0  0  0
   42.7044   27.0540   33.9152 H   0  0  0  0  0  0  0  0  0  0  0  0
   40.7010   23.7897   36.9756 H   0  0  0  0  0  0  0  0  0  0  0  0
   40.3093   21.4337   36.1576 H   0  0  0  0  0  0  0  0  0  0  0  0
   39.3207   22.4499   35.1143 H   0  0  0  0  0  0  0  0  0  0  0  0
   40.9070   22.3494   33.3228 H   0  0  0  0  0  0  0  0  0  0  0  0
   41.1473   20.7556   34.0108 H   0  0  0  0  0  0  0  0  0  0  0  0
   43.2437   21.3690   34.7885 H   0  0  0  0  0  0  0  0  0  0  0  0
   43.0512   22.9057   33.8971 H   0  0  0  0  0  0  0  0  0  0  0  0
   42.6900   22.3183   36.8165 H   0  0  0  0  0  0  0  0  0  0  0  0
   43.2192   23.8114   36.0596 H   0  0  0  0  0  0  0  0  0  0  0  0
  1  6  1  0
  1  2  1  0
  2  3  1  0
  3  4  1  0
  5  4  1  0
  6 13  1  0
  6  5  1  0
  7  8  2  0
  8  1  1  0
  9  8  1  0
 10  9  2  0
 11 12  2  0
 11 10  1  0
 12  7  1  0
 13 17  1  0
 14 15  2  0
 14 13  1  0
 15 16  1  0
 16 17  2  0
 17 18  1  0
 19 18  1  0
 20 21  1  0
 20 19  1  0
 21 22  1  0
 22 18  1  0
  2 23  1  0
  2 24  1  0
  3 25  1  0
  3 26  1  0
  4 27  1  0
  4 28  1  0
  5 29  1  0
  5 30  1  0
  6 31  1  6
  7 32  1  0
  9 33  1  0
 11 34  1  0
 14 35  1  0
 15 36  1  0
 18 37  1  0
 19 38  1  0
 19 39  1  0
 20 40  1  0
 20 41  1  0
 21 42  1  0
 21 43  1  0
 22 44  1  0
 22 45  1  0
M  ISO  8  23  13  24  13  25  13  26  13  27  13  28  13  29  13  30  13
M  ISO  8  31  13  32  14  33  14  34  14  35  14  36  14  37  13  38  13
M  ISO  7  39  13  40  13  41  13  42  13  43  13  44  13  45  13
M  END
>  <minimizedAffinity>  (1) 
-4.62678957

>  <minimizedRMSD>  (1) 
3.32977509

$$$$
