
     RDKit          3D

 41 43  0  0  1  0  0  0  0  0999 V2000
   37.7650   25.9930   34.0840 N   0  0  0  0  0  0  0  0  0  0  0  0
   38.0290   27.3080   34.6410 C   0  0  0  0  0  0  0  0  0  0  0  0
   38.6350   27.3520   35.9730 C   0  0  0  0  0  0  0  0  0  0  0  0
   38.3080   26.2160   36.8890 C   0  0  0  0  0  0  0  0  0  0  0  0
   37.6980   25.0350   36.2020 C   0  0  0  0  0  0  0  0  0  0  0  0
   38.3750   24.9720   34.8180 C   0  0  2  0  0  0  0  0  0  0  0  0
   36.3710   26.9140   32.2640 C   0  0  0  0  0  0  0  0  0  0  0  0
   36.9780   25.8400   32.9320 C   0  0  0  0  0  0  0  0  0  0  0  0
   36.7960   24.5940   32.4090 C   0  0  0  0  0  0  0  0  0  0  0  0
   36.0540   24.4310   31.2850 N   0  0  0  0  0  0  0  0  0  0  0  0
   35.4810   25.5030   30.6650 C   0  0  0  0  0  0  0  0  0  0  0  0
   35.6490   26.7530   31.1700 N   0  0  0  0  0  0  0  0  0  0  0  0
   39.8130   24.9680   34.8890 N   0  0  0  0  0  0  0  0  0  0  0  0
   40.6850   25.8880   34.4210 C   0  0  0  0  0  0  0  0  0  0  0  0
   41.9230   25.4390   34.7210 C   0  0  0  0  0  0  0  0  0  0  0  0
   41.7800   24.2770   35.3550 N   0  0  0  0  0  0  0  0  0  0  0  0
   40.4730   23.9700   35.4680 C   0  0  0  0  0  0  0  0  0  0  0  0
   40.3610   22.6730   36.1750 C   0  0  0  0  0  0  0  0  0  0  0  0
   40.1100   22.8560   37.6840 C   0  0  0  0  0  0  0  0  0  0  0  0
   39.1300   21.8990   35.7210 C   0  0  0  0  0  0  0  0  0  0  0  0
   38.7058   27.8321   33.9502 H   0  0  0  0  0  0  0  0  0  0  0  0
   37.0396   27.7738   34.7598 H   0  0  0  0  0  0  0  0  0  0  0  0
   39.7271   27.3740   35.8435 H   0  0  0  0  0  0  0  0  0  0  0  0
   38.2160   28.2472   36.4558 H   0  0  0  0  0  0  0  0  0  0  0  0
   39.2368   25.8890   37.3794 H   0  0  0  0  0  0  0  0  0  0  0  0
   37.5597   26.5893   37.6036 H   0  0  0  0  0  0  0  0  0  0  0  0
   37.8968   24.1142   36.7700 H   0  0  0  0  0  0  0  0  0  0  0  0
   36.6052   25.1293   36.1191 H   0  0  0  0  0  0  0  0  0  0  0  0
   38.2218   24.0170   34.2941 H   0  0  0  0  0  0  0  0  0  0  0  0
   36.5015   27.9292   32.6669 H   0  0  0  0  0  0  0  0  0  0  0  0
   37.2511   23.7205   32.8987 H   0  0  0  0  0  0  0  0  0  0  0  0
   34.8818   25.3548   29.7545 H   0  0  0  0  0  0  0  0  0  0  0  0
   40.4349   26.8222   33.8969 H   0  0  0  0  0  0  0  0  0  0  0  0
   42.8733   25.9404   34.4852 H   0  0  0  0  0  0  0  0  0  0  0  0
   41.3088   22.1583   35.9589 H   0  0  0  0  0  0  0  0  0  0  0  0
   40.8711   22.3011   38.2522 H   0  0  0  0  0  0  0  0  0  0  0  0
   40.1690   23.9245   37.9386 H   0  0  0  0  0  0  0  0  0  0  0  0
   39.1107   22.4730   37.9386 H   0  0  0  0  0  0  0  0  0  0  0  0
   38.5720   21.5482   36.6017 H   0  0  0  0  0  0  0  0  0  0  0  0
   38.4865   22.5553   35.1167 H   0  0  0  0  0  0  0  0  0  0  0  0
   39.4426   21.0346   35.1167 H   0  0  0  0  0  0  0  0  0  0  0  0
  1  2  1  0
  1  6  1  0
  2  3  1  0
  3  4  1  0
  5  4  1  0
  6 13  1  0
  6  5  1  0
  7  8  2  0
  8  1  1  0
  9  8  1  0
 10  9  2  0
 11 12  2  0
 11 10  1  0
 12  7  1  0
 13 17  1  0
 14 15  2  0
 14 13  1  0
 15 16  1  0
 16 17  2  0
 17 18  1  0
 18 19  1  0
 20 18  1  0
  2 21  1  0
  2 22  1  0
  3 23  1  0
  3 24  1  0
  4 25  1  0
  4 26  1  0
  5 27  1  0
  5 28  1  0
  6 29  1  6
  7 30  1  0
  9 31  1  0
 11 32  1  0
 14 33  1  0
 15 34  1  0
 18 35  1  0
 19 36  1  0
 19 37  1  0
 19 38  1  0
 20 39  1  0
 20 40  1  0
 20 41  1  0
M  ISO  8  21  13  22  13  23  13  24  13  25  13  26  13  27  13  28  13
M  ISO  8  29  13  30  14  31  14  32  14  33  14  34  14  35   8  36   8
M  ISO  5  37   8  38   8  39   8  40   8  41   8
M  END
>  <minimizedAffinity>  (1) 
-4.57471943

>  <minimizedRMSD>  (1) 
3.3161819

$$$$
