
     RDKit          3D

 40 43  0  0  1  0  0  0  0  0999 V2000
   38.2760   25.2550   34.7600 N   0  0  0  0  0  0  0  0  0  0  0  0
   37.1570   26.1820   34.7630 C   0  0  0  0  0  0  0  0  0  0  0  0
   37.0110   27.0510   33.5960 C   0  0  0  0  0  0  0  0  0  0  0  0
   38.2930   27.4470   32.9160 C   0  0  0  0  0  0  0  0  0  0  0  0
   39.4730   26.6140   33.2900 C   0  0  0  0  0  0  0  0  0  0  0  0
   38.9140   25.1950   33.5170 C   0  0  2  0  0  0  0  0  0  0  0  0
   37.9140   24.6470   37.1310 C   0  0  0  0  0  0  0  0  0  0  0  0
   38.6100   24.5380   35.9200 C   0  0  0  0  0  0  0  0  0  0  0  0
   39.6710   23.6740   35.8800 C   0  0  0  0  0  0  0  0  0  0  0  0
   40.0190   22.9580   36.9760 N   0  0  0  0  0  0  0  0  0  0  0  0
   39.3220   23.0870   38.1340 C   0  0  0  0  0  0  0  0  0  0  0  0
   38.2640   23.9400   38.2020 N   0  0  0  0  0  0  0  0  0  0  0  0
   38.1580   24.7100   32.3940 N   0  0  0  0  0  0  0  0  0  0  0  0
   36.9490   24.1210   32.3370 C   0  0  0  0  0  0  0  0  0  0  0  0
   36.6940   23.8500   31.0340 C   0  0  0  0  0  0  0  0  0  0  0  0
   37.7410   24.2750   30.3200 N   0  0  0  0  0  0  0  0  0  0  0  0
   38.6490   24.8080   31.1540 C   0  0  0  0  0  0  0  0  0  0  0  0
   39.7990   25.2940   30.4020 C   0  0  0  0  0  0  0  0  0  0  0  0
   41.0580   24.6890   30.5170 C   0  0  0  0  0  0  0  0  0  0  0  0
   42.1910   25.0780   29.8320 C   0  0  0  0  0  0  0  0  0  0  0  0
   42.0370   26.1220   28.9990 N   0  0  0  0  0  0  0  0  0  0  0  0
   40.8590   26.7470   28.8410 C   0  0  0  0  0  0  0  0  0  0  0  0
   39.8160   26.3190   29.5300 N   0  0  0  0  0  0  0  0  0  0  0  0
   36.2350   25.5887   34.8522 H   0  0  0  0  0  0  0  0  0  0  0  0
   37.3534   26.8637   35.6037 H   0  0  0  0  0  0  0  0  0  0  0  0
   36.3853   26.5259   32.8592 H   0  0  0  0  0  0  0  0  0  0  0  0
   36.5678   27.9856   33.9704 H   0  0  0  0  0  0  0  0  0  0  0  0
   38.5129   28.4923   33.1787 H   0  0  0  0  0  0  0  0  0  0  0  0
   38.1343   27.2996   31.8375 H   0  0  0  0  0  0  0  0  0  0  0  0
   40.2150   26.6104   32.4780 H   0  0  0  0  0  0  0  0  0  0  0  0
   39.9820   27.0022   34.1846 H   0  0  0  0  0  0  0  0  0  0  0  0
   39.6870   24.4139   33.5661 H   0  0  0  0  0  0  0  0  0  0  0  0
   37.0574   25.3338   37.1978 H   0  0  0  0  0  0  0  0  0  0  0  0
   40.2463   23.5601   34.9494 H   0  0  0  0  0  0  0  0  0  0  0  0
   39.6130   22.5012   39.0184 H   0  0  0  0  0  0  0  0  0  0  0  0
   36.2902   23.9006   33.1899 H   0  0  0  0  0  0  0  0  0  0  0  0
   35.7891   23.3676   30.6359 H   0  0  0  0  0  0  0  0  0  0  0  0
   41.1502   23.8375   31.2073 H   0  0  0  0  0  0  0  0  0  0  0  0
   43.1569   24.5673   29.9592 H   0  0  0  0  0  0  0  0  0  0  0  0
   40.7642   27.5987   28.1514 H   0  0  0  0  0  0  0  0  0  0  0  0
  1  2  1  0
  1  8  1  0
  3  2  1  0
  4  5  1  0
  4  3  1  0
  5  6  1  0
  6  1  1  0
  7 12  2  0
  8  7  1  0
  9  8  2  0
  9 10  1  0
 10 11  2  0
 11 12  1  0
 13  6  1  0
 14 13  1  0
 15 14  2  0
 16 15  1  0
 16 17  2  0
 17 13  1  0
 18 19  2  0
 18 17  1  0
 20 19  1  0
 21 20  2  0
 22 21  1  0
 22 23  2  0
 23 18  1  0
  2 24  1  0
  2 25  1  0
  3 26  1  0
  3 27  1  0
  4 28  1  0
  4 29  1  0
  5 30  1  0
  5 31  1  0
  6 32  1  1
  7 33  1  0
  9 34  1  0
 11 35  1  0
 14 36  1  0
 15 37  1  0
 19 38  1  0
 20 39  1  0
 22 40  1  0
M  ISO  8  24  13  25  13  26  13  27  13  28  13  29  13  30  13  31  13
M  ISO  8  32  13  33  14  34  14  35  14  36  14  37  14  38  14  39  14
M  ISO  1  40  14
M  END
>  <minimizedAffinity>  (1) 
-4.46446896

>  <minimizedRMSD>  (1) 
4.27333927

$$$$
