
     RDKit          3D

 39 42  0  0  1  0  0  0  0  0999 V2000
   37.5690   26.0560   33.5890 N   0  0  0  0  0  0  0  0  0  0  0  0
   37.2860   27.3450   34.1920 C   0  0  0  0  0  0  0  0  0  0  0  0
   38.0480   27.7020   35.3900 C   0  0  0  0  0  0  0  0  0  0  0  0
   38.4630   26.5560   36.2630 C   0  0  0  0  0  0  0  0  0  0  0  0
   38.3600   25.2110   35.6150 C   0  0  0  0  0  0  0  0  0  0  0  0
   38.7050   25.4480   34.1330 C   0  0  2  0  0  0  0  0  0  0  0  0
   35.8950   26.3330   31.7850 C   0  0  0  0  0  0  0  0  0  0  0  0
   36.7410   25.5480   32.5740 C   0  0  0  0  0  0  0  0  0  0  0  0
   36.7560   24.2020   32.3200 C   0  0  0  0  0  0  0  0  0  0  0  0
   35.9880   23.6670   31.3510 N   0  0  0  0  0  0  0  0  0  0  0  0
   35.1710   24.4650   30.5980 C   0  0  0  0  0  0  0  0  0  0  0  0
   35.1350   25.8050   30.8300 N   0  0  0  0  0  0  0  0  0  0  0  0
   39.9720   26.1190   33.9570 N   0  0  0  0  0  0  0  0  0  0  0  0
   40.9780   26.3190   34.8160 C   0  0  0  0  0  0  0  0  0  0  0  0
   41.9430   27.0120   34.1640 C   0  0  0  0  0  0  0  0  0  0  0  0
   41.5050   27.2170   32.9260 N   0  0  0  0  0  0  0  0  0  0  0  0
   40.2910   26.6700   32.7840 C   0  0  0  0  0  0  0  0  0  0  0  0
   39.7720   26.8540   31.4300 C   0  0  0  0  0  0  0  0  0  0  0  0
   39.1440   27.8970   30.7790 C   0  0  0  0  0  0  0  0  0  0  0  0
   38.8850   27.4840   29.4870 C   0  0  0  0  0  0  0  0  0  0  0  0
   39.3660   26.1950   29.3890 C   0  0  0  0  0  0  0  0  0  0  0  0
   39.8610   25.8970   30.5380 O   0  0  0  0  0  0  0  0  0  0  0  0
   37.4817   28.1163   33.4326 H   0  0  0  0  0  0  0  0  0  0  0  0
   36.2408   27.2787   34.5285 H   0  0  0  0  0  0  0  0  0  0  0  0
   38.9587   28.2276   35.0669 H   0  0  0  0  0  0  0  0  0  0  0  0
   37.3718   28.3159   36.0031 H   0  0  0  0  0  0  0  0  0  0  0  0
   39.5098   26.7137   36.5619 H   0  0  0  0  0  0  0  0  0  0  0  0
   37.7681   26.5456   37.1157 H   0  0  0  0  0  0  0  0  0  0  0  0
   39.0740   24.5084   36.0695 H   0  0  0  0  0  0  0  0  0  0  0  0
   37.3593   24.7713   35.7384 H   0  0  0  0  0  0  0  0  0  0  0  0
   38.9026   24.5225   33.5723 H   0  0  0  0  0  0  0  0  0  0  0  0
   35.8569   27.4185   31.9591 H   0  0  0  0  0  0  0  0  0  0  0  0
   37.4065   23.5465   32.9177 H   0  0  0  0  0  0  0  0  0  0  0  0
   34.5453   24.0247   29.8076 H   0  0  0  0  0  0  0  0  0  0  0  0
   41.0151   25.9819   35.8624 H   0  0  0  0  0  0  0  0  0  0  0  0
   42.9061   27.3422   34.5804 H   0  0  0  0  0  0  0  0  0  0  0  0
   38.8954   28.8778   31.2106 H   0  0  0  0  0  0  0  0  0  0  0  0
   38.3932   28.0667   28.6942 H   0  0  0  0  0  0  0  0  0  0  0  0
   39.3327   25.5475   28.5004 H   0  0  0  0  0  0  0  0  0  0  0  0
  1  6  1  0
  1  2  1  0
  2  3  1  0
  3  4  1  0
  5  4  1  0
  6  5  1  0
  7  8  2  0
  8  1  1  0
  9  8  1  0
 10  9  2  0
 11 12  2  0
 11 10  1  0
 12  7  1  0
 13  6  1  0
 13 14  1  0
 15 14  2  0
 16 15  1  0
 17 16  2  0
 17 13  1  0
 18 17  1  0
 19 18  2  0
 20 19  1  0
 21 20  2  0
 21 22  1  0
 22 18  1  0
  2 23  1  0
  2 24  1  0
  3 25  1  0
  3 26  1  0
  4 27  1  0
  4 28  1  0
  5 29  1  0
  5 30  1  0
  6 31  1  6
  7 32  1  0
  9 33  1  0
 11 34  1  0
 14 35  1  0
 15 36  1  0
 19 37  1  0
 20 38  1  0
 21 39  1  0
M  ISO  8  23  13  24  13  25  13  26  13  27  13  28  13  29  13  30  13
M  ISO  8  31  13  32  14  33  14  34  14  35  14  36  14  37  14  38  14
M  ISO  1  39  14
M  END
>  <minimizedAffinity>  (1) 
-4.42165995

>  <minimizedRMSD>  (1) 
0.823157072

$$$$
