
     RDKit          3D

 34 36  0  0  1  0  0  0  0  0999 V2000
   37.7290   25.4370   33.5430 N   0  0  0  0  0  0  0  0  0  0  0  0
   37.1870   26.7630   33.8150 C   0  0  0  0  0  0  0  0  0  0  0  0
   37.8430   27.5410   34.8600 C   0  0  0  0  0  0  0  0  0  0  0  0
   38.4470   26.7560   35.9880 C   0  0  0  0  0  0  0  0  0  0  0  0
   38.6240   25.3030   35.6990 C   0  0  0  0  0  0  0  0  0  0  0  0
   38.9500   25.2280   34.1960 C   0  0  2  0  0  0  0  0  0  0  0  0
   36.0710   24.9220   31.7780 C   0  0  0  0  0  0  0  0  0  0  0  0
   37.0410   24.5430   32.7130 C   0  0  0  0  0  0  0  0  0  0  0  0
   37.3240   23.2080   32.8040 C   0  0  0  0  0  0  0  0  0  0  0  0
   36.6880   22.3030   32.0210 N   0  0  0  0  0  0  0  0  0  0  0  0
   35.7460   22.7240   31.1210 C   0  0  0  0  0  0  0  0  0  0  0  0
   35.4460   24.0450   31.0100 N   0  0  0  0  0  0  0  0  0  0  0  0
   40.0620   26.0500   33.8310 N   0  0  0  0  0  0  0  0  0  0  0  0
   40.9870   26.6700   34.5640 C   0  0  0  0  0  0  0  0  0  0  0  0
   41.8230   27.3290   33.7240 C   0  0  0  0  0  0  0  0  0  0  0  0
   41.4050   27.1080   32.4900 N   0  0  0  0  0  0  0  0  0  0  0  0
   40.3220   26.3210   32.5510 C   0  0  0  0  0  0  0  0  0  0  0  0
   39.7860   26.0130   31.2400 C   0  0  0  0  0  0  0  0  0  0  0  0
   38.9680   26.5540   30.4700 O   0  0  0  0  0  0  0  0  0  0  0  0
   37.2446   27.3435   32.8824 H   0  0  0  0  0  0  0  0  0  0  0  0
   36.1668   26.5859   34.1862 H   0  0  0  0  0  0  0  0  0  0  0  0
   38.6472   28.1254   34.3890 H   0  0  0  0  0  0  0  0  0  0  0  0
   37.0492   28.1506   35.3165 H   0  0  0  0  0  0  0  0  0  0  0  0
   39.4340   27.1846   36.2162 H   0  0  0  0  0  0  0  0  0  0  0  0
   37.7450   26.8261   36.8320 H   0  0  0  0  0  0  0  0  0  0  0  0
   39.4512   24.8891   36.2944 H   0  0  0  0  0  0  0  0  0  0  0  0
   37.7268   24.7203   35.9550 H   0  0  0  0  0  0  0  0  0  0  0  0
   39.3374   24.2502   33.8738 H   0  0  0  0  0  0  0  0  0  0  0  0
   35.8192   25.9881   31.6782 H   0  0  0  0  0  0  0  0  0  0  0  0
   38.0802   22.8632   33.5246 H   0  0  0  0  0  0  0  0  0  0  0  0
   35.2297   21.9899   30.4850 H   0  0  0  0  0  0  0  0  0  0  0  0
   41.0596   26.6504   35.6614 H   0  0  0  0  0  0  0  0  0  0  0  0
   42.6916   27.9372   34.0167 H   0  0  0  0  0  0  0  0  0  0  0  0
   40.1987   25.0811   30.8263 H   0  0  0  0  0  0  0  0  0  0  0  0
  1  2  1  0
  1  6  1  0
  2  3  1  0
  3  4  1  0
  5  4  1  0
  6  5  1  0
  7  8  2  0
  8  9  1  0
  8  1  1  0
 10  9  2  0
 11 10  1  0
 12 11  2  0
 12  7  1  0
 13  6  1  0
 13 14  1  0
 15 14  2  0
 16 17  2  0
 16 15  1  0
 17 13  1  0
 18 17  1  0
 19 18  2  0
  2 20  1  0
  2 21  1  0
  3 22  1  0
  3 23  1  0
  4 24  1  0
  4 25  1  0
  5 26  1  0
  5 27  1  0
  6 28  1  1
  7 29  1  0
  9 30  1  0
 11 31  1  0
 14 32  1  0
 15 33  1  0
 18 34  1  0
M  ISO  8  20  13  21  13  22  13  23  13  24  13  25  13  26  13  27  13
M  ISO  7  28  13  29  14  30  14  31  14  32  14  33  14  34   6
M  END
>  <minimizedAffinity>  (1) 
-4.03471565

>  <minimizedRMSD>  (1) 
0.351997405

$$$$
