
     RDKit          3D

 38 40  0  0  1  0  0  0  0  0999 V2000
   38.8780   25.9820   34.8970 C   0  0  1  0  0  0  0  0  0  0  0  0
   40.1510   26.7230   34.8600 C   0  0  0  0  0  0  0  0  0  0  0  0
   40.2860   27.1790   33.4180 C   0  0  0  0  0  0  0  0  0  0  0  0
   39.1680   26.5160   32.6420 C   0  0  0  0  0  0  0  0  0  0  0  0
   38.7850   25.3550   33.5380 C   0  0  2  0  0  0  0  0  0  0  0  0
   37.9280   24.2590   38.0100 C   0  0  0  0  0  0  0  0  0  0  0  0
   38.7260   23.0750   37.9670 C   0  0  0  0  0  0  0  0  0  0  0  0
   39.5900   22.8780   36.8740 C   0  0  0  0  0  0  0  0  0  0  0  0
   39.6230   23.8330   35.9060 N   0  0  0  0  0  0  0  0  0  0  0  0
   38.8420   24.9470   35.9900 C   0  0  0  0  0  0  0  0  0  0  0  0
   38.0010   25.1540   37.0370 N   0  0  0  0  0  0  0  0  0  0  0  0
   37.5870   24.7400   33.1840 N   0  0  0  0  0  0  0  0  0  0  0  0
   36.6600   25.3910   32.3640 C   0  0  0  0  0  0  0  0  0  0  0  0
   36.3210   24.6100   31.0910 C   0  0  0  0  0  0  0  0  0  0  0  0
   35.7750   23.2380   31.4160 C   0  0  0  0  0  0  0  0  0  0  0  0
   36.6930   22.5970   32.4030 C   0  0  0  0  0  0  0  0  0  0  0  0
   37.9200   23.4470   32.5930 C   0  0  0  0  0  0  0  0  0  0  0  0
   38.0267   26.6413   35.1218 H   0  0  0  0  0  0  0  0  0  0  0  0
   40.1171   27.5875   35.5393 H   0  0  0  0  0  0  0  0  0  0  0  0
   41.0024   26.1067   35.1844 H   0  0  0  0  0  0  0  0  0  0  0  0
   40.1921   28.2733   33.3567 H   0  0  0  0  0  0  0  0  0  0  0  0
   41.2685   26.9029   33.0075 H   0  0  0  0  0  0  0  0  0  0  0  0
   38.3214   27.2038   32.5000 H   0  0  0  0  0  0  0  0  0  0  0  0
   39.4632   26.2069   31.6284 H   0  0  0  0  0  0  0  0  0  0  0  0
   39.4351   24.4706   33.4655 H   0  0  0  0  0  0  0  0  0  0  0  0
   37.2478   24.4284   38.8577 H   0  0  0  0  0  0  0  0  0  0  0  0
   38.6661   22.3302   38.7743 H   0  0  0  0  0  0  0  0  0  0  0  0
   40.2198   21.9788   36.8045 H   0  0  0  0  0  0  0  0  0  0  0  0
   35.7335   25.5429   32.9372 H   0  0  0  0  0  0  0  0  0  0  0  0
   37.1151   26.3420   32.0503 H   0  0  0  0  0  0  0  0  0  0  0  0
   37.2327   24.4985   30.4858 H   0  0  0  0  0  0  0  0  0  0  0  0
   35.5512   25.1672   30.5370 H   0  0  0  0  0  0  0  0  0  0  0  0
   34.7678   23.3301   31.8484 H   0  0  0  0  0  0  0  0  0  0  0  0
   35.7092   22.6274   30.5034 H   0  0  0  0  0  0  0  0  0  0  0  0
   36.1731   22.4876   33.3662 H   0  0  0  0  0  0  0  0  0  0  0  0
   36.9938   21.6081   32.0266 H   0  0  0  0  0  0  0  0  0  0  0  0
   38.6210   22.9200   33.2570 H   0  0  0  0  0  0  0  0  0  0  0  0
   38.3741   23.6241   31.6069 H   0  0  0  0  0  0  0  0  0  0  0  0
  1 10  1  0
  2  1  1  0
  3  2  1  0
  4  3  1  0
  4  5  1  0
  5  1  1  0
  7  6  2  0
  8  7  1  0
  9 10  1  0
  9  8  2  0
 10 11  2  0
 11  6  1  0
 12  5  1  0
 13 12  1  0
 14 15  1  0
 14 13  1  0
 15 16  1  0
 16 17  1  0
 17 12  1  0
  1 18  1  1
  2 19  1  0
  2 20  1  0
  3 21  1  0
  3 22  1  0
  4 23  1  0
  4 24  1  0
  5 25  1  1
  6 26  1  0
  7 27  1  0
  8 28  1  0
 13 29  1  0
 13 30  1  0
 14 31  1  0
 14 32  1  0
 15 33  1  0
 15 34  1  0
 16 35  1  0
 16 36  1  0
 17 37  1  0
 17 38  1  0
M  ISO  8  18  13  19  13  20  13  21  13  22  13  23  13  24  13  25  13
M  ISO  8  26  14  27  14  28  14  29  13  30  13  31  13  32  13  33  13
M  ISO  5  34  13  35  13  36  13  37  13  38  13
M  END
>  <minimizedAffinity>  (1) 
-4.80585337

>  <minimizedRMSD>  (1) 
4.25820971

$$$$
