
     RDKit          3D

 30 32  0  0  1  0  0  0  0  0999 V2000
   38.8850   25.1450   34.4460 C   0  0  1  0  0  0  0  0  0  0  0  0
   37.5600   25.4710   33.9030 C   0  0  0  0  0  0  0  0  0  0  0  0
   37.7920   26.6790   33.0120 C   0  0  0  0  0  0  0  0  0  0  0  0
   39.2380   27.0790   33.1760 C   0  0  0  0  0  0  0  0  0  0  0  0
   39.5840   26.5010   34.5410 C   0  0  2  0  0  0  0  0  0  0  0  0
   39.4800   22.7450   37.1750 C   0  0  0  0  0  0  0  0  0  0  0  0
   38.7810   23.3400   38.2710 C   0  0  0  0  0  0  0  0  0  0  0  0
   38.1020   24.5570   38.0700 C   0  0  0  0  0  0  0  0  0  0  0  0
   38.1560   25.0990   36.8220 N   0  0  0  0  0  0  0  0  0  0  0  0
   38.8360   24.4980   35.8020 C   0  0  0  0  0  0  0  0  0  0  0  0
   39.4940   23.3230   35.9880 N   0  0  0  0  0  0  0  0  0  0  0  0
   41.0590   26.3280   34.5860 C   0  0  0  0  0  0  0  0  0  0  0  0
   41.8270   25.3150   35.0970 C   0  0  0  0  0  0  0  0  0  0  0  0
   43.1650   25.5960   34.9090 C   0  0  0  0  0  0  0  0  0  0  0  0
   43.1820   26.7860   34.2820 N   0  0  0  0  0  0  0  0  0  0  0  0
   41.9440   27.2180   34.0920 N   0  0  0  0  0  0  0  0  0  0  0  0
   39.3996   24.4136   33.8054 H   0  0  0  0  0  0  0  0  0  0  0  0
   37.1631   24.6284   33.3178 H   0  0  0  0  0  0  0  0  0  0  0  0
   36.8252   25.6749   34.6958 H   0  0  0  0  0  0  0  0  0  0  0  0
   37.1345   27.5059   33.3184 H   0  0  0  0  0  0  0  0  0  0  0  0
   37.5681   26.4402   31.9618 H   0  0  0  0  0  0  0  0  0  0  0  0
   39.8648   26.6384   32.3867 H   0  0  0  0  0  0  0  0  0  0  0  0
   39.4050   28.1638   33.1028 H   0  0  0  0  0  0  0  0  0  0  0  0
   39.2919   27.0924   35.4213 H   0  0  0  0  0  0  0  0  0  0  0  0
   40.0127   21.7940   37.3224 H   0  0  0  0  0  0  0  0  0  0  0  0
   38.7737   22.8538   39.2577 H   0  0  0  0  0  0  0  0  0  0  0  0
   37.5518   25.0486   38.8858 H   0  0  0  0  0  0  0  0  0  0  0  0
   41.4348   24.4107   35.5853 H   0  0  0  0  0  0  0  0  0  0  0  0
   44.0278   24.9819   35.2064 H   0  0  0  0  0  0  0  0  0  0  0  0
   44.0333   27.2881   33.9919 H   0  0  0  0  0  0  0  0  0  0  0  0
  1  5  1  0
  1 10  1  0
  2  1  1  0
  3  4  1  0
  3  2  1  0
  4  5  1  0
  5 12  1  0
  6  7  2  0
  8  7  1  0
  9  8  2  0
 10 11  2  0
 10  9  1  0
 11  6  1  0
 12 13  1  0
 14 13  2  0
 15 14  1  0
 16 15  1  0
 16 12  2  0
  1 17  1  6
  2 18  1  0
  2 19  1  0
  3 20  1  0
  3 21  1  0
  4 22  1  0
  4 23  1  0
  5 24  1  1
  6 25  1  0
  7 26  1  0
  8 27  1  0
 13 28  1  0
 14 29  1  0
 15 30  1  0
M  ISO  8  17  13  18  13  19  13  20  13  21  13  22  13  23  13  24  13
M  ISO  6  25  14  26  14  27  14  28  14  29  14  30   9
M  END
>  <minimizedAffinity>  (1) 
-4.3308773

>  <minimizedRMSD>  (1) 
0.912782371

$$$$
