
     RDKit          3D

 25 26  0  0  1  0  0  0  0  0999 V2000
   38.7820   25.2720   34.8870 C   0  0  1  0  0  0  0  0  0  0  0  0
   37.5370   26.0070   34.6210 C   0  0  0  0  0  0  0  0  0  0  0  0
   37.9420   27.1500   33.7070 C   0  0  0  0  0  0  0  0  0  0  0  0
   39.4530   27.1240   33.6170 C   0  0  0  0  0  0  0  0  0  0  0  0
   39.8600   26.3450   34.8600 C   0  0  2  0  0  0  0  0  0  0  0  0
   39.6290   22.8400   37.5260 C   0  0  0  0  0  0  0  0  0  0  0  0
   38.7950   23.2650   38.6090 C   0  0  0  0  0  0  0  0  0  0  0  0
   37.9480   24.3760   38.4280 C   0  0  0  0  0  0  0  0  0  0  0  0
   37.9960   24.9660   37.2070 N   0  0  0  0  0  0  0  0  0  0  0  0
   38.7860   24.5500   36.2040 C   0  0  0  0  0  0  0  0  0  0  0  0
   39.6000   23.4860   36.3690 N   0  0  0  0  0  0  0  0  0  0  0  0
   41.1350   25.6630   34.5060 C   0  0  0  0  0  0  0  0  0  0  0  0
   42.1680   25.6720   35.1500 O   0  0  0  0  0  0  0  0  0  0  0  0
   38.9309   24.4763   34.1423 H   0  0  0  0  0  0  0  0  0  0  0  0
   36.8027   25.3562   34.1238 H   0  0  0  0  0  0  0  0  0  0  0  0
   37.0640   26.3664   35.5468 H   0  0  0  0  0  0  0  0  0  0  0  0
   37.5008   27.0113   32.7090 H   0  0  0  0  0  0  0  0  0  0  0  0
   37.5866   28.1141   34.0996 H   0  0  0  0  0  0  0  0  0  0  0  0
   39.7853   26.6104   32.7028 H   0  0  0  0  0  0  0  0  0  0  0  0
   39.9005   28.1278   33.5702 H   0  0  0  0  0  0  0  0  0  0  0  0
   39.9669   26.9278   35.7868 H   0  0  0  0  0  0  0  0  0  0  0  0
   40.2959   21.9747   37.6544 H   0  0  0  0  0  0  0  0  0  0  0  0
   38.8152   22.7308   39.5704 H   0  0  0  0  0  0  0  0  0  0  0  0
   37.2879   24.7429   39.2278 H   0  0  0  0  0  0  0  0  0  0  0  0
   41.1447   25.0922   33.5657 H   0  0  0  0  0  0  0  0  0  0  0  0
  1 10  1  0
  2  1  1  0
  3  2  1  0
  4  3  1  0
  4  5  1  0
  5  1  1  0
  6  7  2  0
  8  7  1  0
  9  8  2  0
 10 11  2  0
 10  9  1  0
 11  6  1  0
 12  5  1  0
 12 13  2  0
  1 14  1  6
  2 15  1  0
  2 16  1  0
  3 17  1  0
  3 18  1  0
  4 19  1  0
  4 20  1  0
  5 21  1  1
  6 22  1  0
  7 23  1  0
  8 24  1  0
 12 25  1  0
M  ISO  8  14  13  15  13  16  13  17  13  18  13  19  13  20  13  21  13
M  ISO  4  22  14  23  14  24  14  25   6
M  END
>  <minimizedAffinity>  (1) 
-3.88203168

>  <minimizedRMSD>  (1) 
0.186426163

$$$$
