
     RDKit          3D

 33 35  0  0  0  0  0  0  0  0999 V2000
   37.6790   21.9550   33.3230 C   0  0  0  0  0  0  0  0  0  0  0  0
   37.1020   20.7640   32.9190 C   0  0  0  0  0  0  0  0  0  0  0  0
   36.0760   20.6490   32.0240 C   0  0  0  0  0  0  0  0  0  0  0  0
   35.5460   21.7800   31.4540 C   0  0  0  0  0  0  0  0  0  0  0  0
   36.0680   22.9860   31.8080 C   0  0  0  0  0  0  0  0  0  0  0  0
   35.5260   24.1240   31.2250 C   0  0  0  0  0  0  0  0  0  0  0  0
   36.0060   25.3730   31.5360 C   0  0  0  0  0  0  0  0  0  0  0  0
   37.0460   25.4450   32.4490 C   0  0  0  0  0  0  0  0  0  0  0  0
   37.5540   24.2970   33.0010 C   0  0  0  0  0  0  0  0  0  0  0  0
   37.1040   23.0430   32.7160 C   0  0  0  0  0  0  0  0  0  0  0  0
   41.1210   21.8680   34.3430 C   0  0  0  0  0  0  0  0  0  0  0  0
   41.1480   22.0280   35.7380 C   0  0  0  0  0  0  0  0  0  0  0  0
   39.9150   22.1710   36.3340 C   0  0  0  0  0  0  0  0  0  0  0  0
   38.8140   22.1500   35.5840 N   0  0  0  0  0  0  0  0  0  0  0  0
   38.7640   22.0010   34.2750 C   0  0  0  0  0  0  0  0  0  0  0  0
   39.9600   21.8620   33.6880 N   0  0  0  0  0  0  0  0  0  0  0  0
   39.7700   22.3420   37.7410 N   0  0  0  0  0  0  0  0  0  0  0  0
   38.6950   23.0810   38.3240 C   0  0  0  0  0  0  0  0  0  0  0  0
   37.5660   23.0230   37.6760 N   0  0  0  0  0  0  0  0  0  0  0  0
   38.9430   23.8000   39.5390 N   0  0  0  0  0  0  0  0  0  0  0  0
   36.7640   23.5540   38.0810 H   0  0  0  0  0  0  0  0  0  0  0  0
   37.5012   19.8355   33.3531 H   0  0  0  0  0  0  0  0  0  0  0  0
   35.6776   19.6577   31.7621 H   0  0  0  0  0  0  0  0  0  0  0  0
   34.7207   21.7131   30.7298 H   0  0  0  0  0  0  0  0  0  0  0  0
   34.7010   24.0239   30.5043 H   0  0  0  0  0  0  0  0  0  0  0  0
   35.5820   26.2792   31.0788 H   0  0  0  0  0  0  0  0  0  0  0  0
   37.4639   26.4227   32.7309 H   0  0  0  0  0  0  0  0  0  0  0  0
   38.3794   24.3951   33.7215 H   0  0  0  0  0  0  0  0  0  0  0  0
   42.0629   21.7470   33.7879 H   0  0  0  0  0  0  0  0  0  0  0  0
   42.0859   22.0383   36.3127 H   0  0  0  0  0  0  0  0  0  0  0  0
   40.4698   21.9148   38.3644 H   0  0  0  0  0  0  0  0  0  0  0  0
   38.1861   24.3410   39.9809 H   0  0  0  0  0  0  0  0  0  0  0  0
   39.8781   23.7756   39.9701 H   0  0  0  0  0  0  0  0  0  0  0  0
  1 15  1  0
  2  1  2  0
  3  2  1  0
  4  5  1  0
  4  3  2  0
  5 10  2  0
  6  7  2  0
  6  5  1  0
  7  8  1  0
  8  9  2  0
 10  9  1  0
 10  1  1  0
 11 12  2  0
 12 13  1  0
 13 17  1  0
 14 13  2  0
 15 14  1  0
 16 15  2  0
 16 11  1  0
 17 18  1  0
 18 20  1  0
 19 21  1  0
 19 18  2  0
  2 22  1  0
  3 23  1  0
  4 24  1  0
  6 25  1  0
  7 26  1  0
  8 27  1  0
  9 28  1  0
 11 29  1  0
 12 30  1  0
 17 31  1  0
 20 32  1  0
 20 33  1  0
M  ISO  8  22  14  23  14  24  14  25  14  26  14  27  14  28  14  29  14
M  ISO  1  30  14
M  END
>  <minimizedAffinity>  (1) 
-6.04352808

>  <minimizedRMSD>  (1) 
2.08489347

$$$$
