
     RDKit          3D

 41 44  0  0  1  0  0  0  0  0999 V2000
   39.2350   25.1900   34.7890 C   0  0  1  0  0  0  0  0  0  0  0  0
   38.1410   26.0760   34.4340 C   0  0  0  0  0  0  0  0  0  0  0  0
   38.7680   27.1020   33.5050 C   0  0  0  0  0  0  0  0  0  0  0  0
   40.2750   27.0310   33.6940 C   0  0  0  0  0  0  0  0  0  0  0  0
   40.4840   26.0270   34.7810 C   0  0  2  0  0  0  0  0  0  0  0  0
   39.6930   22.7760   37.5430 C   0  0  0  0  0  0  0  0  0  0  0  0
   38.7520   23.2520   38.5180 C   0  0  0  0  0  0  0  0  0  0  0  0
   37.9660   24.3990   38.2260 C   0  0  0  0  0  0  0  0  0  0  0  0
   38.1770   24.9680   37.0120 N   0  0  0  0  0  0  0  0  0  0  0  0
   39.0580   24.5010   36.1290 C   0  0  0  0  0  0  0  0  0  0  0  0
   39.8080   23.4120   36.4000 N   0  0  0  0  0  0  0  0  0  0  0  0
   41.6400   25.1690   34.4820 C   0  0  0  0  0  0  0  0  0  0  0  0
   41.5840   24.3640   33.5270 O   0  0  0  0  0  0  0  0  0  0  0  0
   42.8950   25.1710   35.2300 C   0  0  0  0  0  0  0  0  0  0  0  0
   43.1860   24.3560   36.2830 C   0  0  0  0  0  0  0  0  0  0  0  0
   44.3660   24.2910   36.9900 C   0  0  0  0  0  0  0  0  0  0  0  0
   45.3950   25.1310   36.6180 C   0  0  0  0  0  0  0  0  0  0  0  0
   45.1800   25.9860   35.5610 C   0  0  0  0  0  0  0  0  0  0  0  0
   46.2350   26.8010   35.2380 C   0  0  0  0  0  0  0  0  0  0  0  0
   46.1270   27.6990   34.2020 C   0  0  0  0  0  0  0  0  0  0  0  0
   44.9130   27.7310   33.5160 C   0  0  0  0  0  0  0  0  0  0  0  0
   43.9150   26.8930   33.8940 C   0  0  0  0  0  0  0  0  0  0  0  0
   43.9640   25.9780   34.9160 C   0  0  0  0  0  0  0  0  0  0  0  0
   39.2805   24.3685   34.0589 H   0  0  0  0  0  0  0  0  0  0  0  0
   37.3431   25.5213   33.9187 H   0  0  0  0  0  0  0  0  0  0  0  0
   37.6756   26.5399   35.3161 H   0  0  0  0  0  0  0  0  0  0  0  0
   38.4050   28.1090   33.7583 H   0  0  0  0  0  0  0  0  0  0  0  0
   38.4990   26.8924   32.4592 H   0  0  0  0  0  0  0  0  0  0  0  0
   40.7656   26.7030   32.7657 H   0  0  0  0  0  0  0  0  0  0  0  0
   40.7050   28.0107   33.9495 H   0  0  0  0  0  0  0  0  0  0  0  0
   40.6765   26.5161   35.7473 H   0  0  0  0  0  0  0  0  0  0  0  0
   40.3099   21.8894   37.7512 H   0  0  0  0  0  0  0  0  0  0  0  0
   38.6409   22.7335   39.4817 H   0  0  0  0  0  0  0  0  0  0  0  0
   37.2318   24.8010   38.9397 H   0  0  0  0  0  0  0  0  0  0  0  0
   42.3870   23.6720   36.6049 H   0  0  0  0  0  0  0  0  0  0  0  0
   44.4847   23.5886   37.8282 H   0  0  0  0  0  0  0  0  0  0  0  0
   46.3578   25.1179   37.1498 H   0  0  0  0  0  0  0  0  0  0  0  0
   47.1721   26.7360   35.8105 H   0  0  0  0  0  0  0  0  0  0  0  0
   46.9604   28.3621   33.9268 H   0  0  0  0  0  0  0  0  0  0  0  0
   44.7662   28.4280   32.6777 H   0  0  0  0  0  0  0  0  0  0  0  0
   42.9749   26.9527   33.3260 H   0  0  0  0  0  0  0  0  0  0  0  0
  1 10  1  0
  2  1  1  0
  3  4  1  0
  3  2  1  0
  4  5  1  0
  5  1  1  0
  6  7  2  0
  8  7  1  0
  9  8  2  0
 10 11  2  0
 10  9  1  0
 11  6  1  0
 12  5  1  0
 12 14  1  0
 13 12  2  0
 14 15  2  0
 15 16  1  0
 17 16  2  0
 18 17  1  0
 19 18  2  0
 20 19  1  0
 21 22  1  0
 21 20  2  0
 22 23  2  0
 23 14  1  0
 23 18  1  0
  1 24  1  6
  2 25  1  0
  2 26  1  0
  3 27  1  0
  3 28  1  0
  4 29  1  0
  4 30  1  0
  5 31  1  1
  6 32  1  0
  7 33  1  0
  8 34  1  0
 15 35  1  0
 16 36  1  0
 17 37  1  0
 19 38  1  0
 20 39  1  0
 21 40  1  0
 22 41  1  0
M  ISO  8  24  13  25  13  26  13  27  13  28  13  29  13  30  13  31  13
M  ISO  8  32  14  33  14  34  14  35  14  36  14  37  14  38  14  39  14
M  ISO  2  40  14  41  14
M  END
>  <minimizedAffinity>  (1) 
-5.47632885

>  <minimizedRMSD>  (1) 
4.41139555

$$$$
