
     RDKit          3D

 32 33  0  0  1  0  0  0  0  0999 V2000
   38.6290   25.3240   34.9310 C   0  0  1  0  0  0  0  0  0  0  0  0
   37.4230   26.1150   34.7680 C   0  0  0  0  0  0  0  0  0  0  0  0
   37.8140   27.2600   33.8480 C   0  0  0  0  0  0  0  0  0  0  0  0
   39.3110   27.1650   33.6270 C   0  0  0  0  0  0  0  0  0  0  0  0
   39.7810   26.3090   34.7820 C   0  0  2  0  0  0  0  0  0  0  0  0
   40.9640   25.5480   34.3090 C   0  0  0  0  0  0  0  0  0  0  0  0
   40.9310   24.6620   33.4870 O   0  0  0  0  0  0  0  0  0  0  0  0
   42.1820   25.9580   34.9200 N   0  0  0  0  0  0  0  0  0  0  0  0
   42.8420   26.9940   34.2040 C   0  0  0  0  0  0  0  0  0  0  0  0
   42.6660   27.6690   33.1720 N   0  0  0  0  0  0  0  0  0  0  0  0
   44.0950   27.5580   34.6480 N   0  0  0  0  0  0  0  0  0  0  0  0
   41.9060   27.6440   32.4940 H   0  0  0  0  0  0  0  0  0  0  0  0
   39.6270   22.8420   37.4670 C   0  0  0  0  0  0  0  0  0  0  0  0
   38.8800   23.2870   38.6160 C   0  0  0  0  0  0  0  0  0  0  0  0
   38.0390   24.4250   38.5180 C   0  0  0  0  0  0  0  0  0  0  0  0
   38.0120   25.0220   37.2990 N   0  0  0  0  0  0  0  0  0  0  0  0
   38.7230   24.5830   36.2360 C   0  0  0  0  0  0  0  0  0  0  0  0
   39.5320   23.4970   36.3110 N   0  0  0  0  0  0  0  0  0  0  0  0
   38.6427   24.5230   34.1772 H   0  0  0  0  0  0  0  0  0  0  0  0
   36.6247   25.5106   34.3126 H   0  0  0  0  0  0  0  0  0  0  0  0
   37.0377   26.4777   35.7323 H   0  0  0  0  0  0  0  0  0  0  0  0
   37.2847   27.1699   32.8880 H   0  0  0  0  0  0  0  0  0  0  0  0
   37.5454   28.2290   34.2940 H   0  0  0  0  0  0  0  0  0  0  0  0
   39.5372   26.6849   32.6635 H   0  0  0  0  0  0  0  0  0  0  0  0
   39.8036   28.1479   33.5920 H   0  0  0  0  0  0  0  0  0  0  0  0
   40.0325   26.8619   35.6991 H   0  0  0  0  0  0  0  0  0  0  0  0
   42.5476   25.5469   35.7907 H   0  0  0  0  0  0  0  0  0  0  0  0
   44.5441   28.3078   34.1031 H   0  0  0  0  0  0  0  0  0  0  0  0
   44.5396   27.2104   35.5096 H   0  0  0  0  0  0  0  0  0  0  0  0
   40.2778   21.9586   37.5447 H   0  0  0  0  0  0  0  0  0  0  0  0
   38.9619   22.7442   39.5692 H   0  0  0  0  0  0  0  0  0  0  0  0
   37.4504   24.7974   39.3694 H   0  0  0  0  0  0  0  0  0  0  0  0
  1 17  1  0
  2  1  1  0
  3  2  1  0
  4  3  1  0
  4  5  1  0
  5  1  1  0
  6  5  1  0
  6  8  1  0
  7  6  2  0
  9 11  1  0
  9  8  1  0
 10  9  2  0
 12 10  1  0
 13 14  2  0
 15 14  1  0
 16 15  2  0
 17 18  2  0
 17 16  1  0
 18 13  1  0
  1 19  1  6
  2 20  1  0
  2 21  1  0
  3 22  1  0
  3 23  1  0
  4 24  1  0
  4 25  1  0
  5 26  1  1
  8 27  1  0
 11 28  1  0
 11 29  1  0
 13 30  1  0
 14 31  1  0
 15 32  1  0
M  ISO  8  19  13  20  13  21  13  22  13  23  13  24  13  25  13  26  13
M  ISO  3  30  14  31  14  32  14
M  END
>  <minimizedAffinity>  (1) 
-5.06253672

>  <minimizedRMSD>  (1) 
2.42950749

$$$$
