
     RDKit          3D

 39 42  0  0  1  0  0  0  0  0999 V2000
   38.4360   25.3600   35.0870 C   0  0  1  0  0  0  0  0  0  0  0  0
   37.2600   26.2140   35.0260 C   0  0  0  0  0  0  0  0  0  0  0  0
   37.6240   27.3160   34.0500 C   0  0  0  0  0  0  0  0  0  0  0  0
   39.1080   27.2030   33.7650 C   0  0  0  0  0  0  0  0  0  0  0  0
   39.6160   26.2510   34.8130 C   0  0  2  0  0  0  0  0  0  0  0  0
   39.5620   22.8580   37.5410 C   0  0  0  0  0  0  0  0  0  0  0  0
   38.8820   23.2880   38.7390 C   0  0  0  0  0  0  0  0  0  0  0  0
   38.0460   24.4330   38.6930 C   0  0  0  0  0  0  0  0  0  0  0  0
   37.9480   25.0520   37.4900 N   0  0  0  0  0  0  0  0  0  0  0  0
   38.6010   24.6180   36.3950 C   0  0  0  0  0  0  0  0  0  0  0  0
   39.4090   23.5250   36.4040 N   0  0  0  0  0  0  0  0  0  0  0  0
   40.7060   25.4500   34.2410 C   0  0  0  0  0  0  0  0  0  0  0  0
   41.8980   25.6800   34.4910 O   0  0  0  0  0  0  0  0  0  0  0  0
   40.5880   24.3180   33.3320 C   0  0  0  0  0  0  0  0  0  0  0  0
   40.9110   22.9880   33.4840 C   0  0  0  0  0  0  0  0  0  0  0  0
   40.6300   22.2400   32.4040 N   0  0  0  0  0  0  0  0  0  0  0  0
   40.1020   23.0770   31.4980 C   0  0  0  0  0  0  0  0  0  0  0  0
   39.6390   22.8390   30.2170 C   0  0  0  0  0  0  0  0  0  0  0  0
   39.1300   23.8640   29.4520 C   0  0  0  0  0  0  0  0  0  0  0  0
   39.0740   25.1470   29.9510 C   0  0  0  0  0  0  0  0  0  0  0  0
   39.5450   25.3210   31.2180 C   0  0  0  0  0  0  0  0  0  0  0  0
   40.0700   24.3600   32.0570 C   0  0  0  0  0  0  0  0  0  0  0  0
   38.3367   24.5576   34.3412 H   0  0  0  0  0  0  0  0  0  0  0  0
   36.3897   25.6478   34.6626 H   0  0  0  0  0  0  0  0  0  0  0  0
   36.9871   26.6118   36.0146 H   0  0  0  0  0  0  0  0  0  0  0  0
   37.0527   27.1954   33.1178 H   0  0  0  0  0  0  0  0  0  0  0  0
   37.3859   28.3025   34.4744 H   0  0  0  0  0  0  0  0  0  0  0  0
   39.2815   26.8007   32.7560 H   0  0  0  0  0  0  0  0  0  0  0  0
   39.6180   28.1770   33.7992 H   0  0  0  0  0  0  0  0  0  0  0  0
   39.9952   26.7546   35.7145 H   0  0  0  0  0  0  0  0  0  0  0  0
   40.2118   21.9710   37.5705 H   0  0  0  0  0  0  0  0  0  0  0  0
   39.0109   22.7326   39.6797 H   0  0  0  0  0  0  0  0  0  0  0  0
   37.5086   24.7976   39.5809 H   0  0  0  0  0  0  0  0  0  0  0  0
   41.3565   22.5773   34.4020 H   0  0  0  0  0  0  0  0  0  0  0  0
   40.7880   21.2282   32.2937 H   0  0  0  0  0  0  0  0  0  0  0  0
   39.6778   21.8199   29.8049 H   0  0  0  0  0  0  0  0  0  0  0  0
   38.7654   23.6572   28.4350 H   0  0  0  0  0  0  0  0  0  0  0  0
   38.6720   25.9834   29.3603 H   0  0  0  0  0  0  0  0  0  0  0  0
   39.5016   26.3450   31.6174 H   0  0  0  0  0  0  0  0  0  0  0  0
  1 10  1  0
  2  1  1  0
  3  2  1  0
  4  3  1  0
  4  5  1  0
  5  1  1  0
  6  7  2  0
  8  7  1  0
  9  8  2  0
 10 11  2  0
 10  9  1  0
 11  6  1  0
 12 13  2  0
 12  5  1  0
 14 15  2  0
 14 12  1  0
 16 15  1  0
 17 22  2  0
 17 16  1  0
 18 17  1  0
 19 20  1  0
 19 18  2  0
 20 21  2  0
 21 22  1  0
 22 14  1  0
  1 23  1  6
  2 24  1  0
  2 25  1  0
  3 26  1  0
  3 27  1  0
  4 28  1  0
  4 29  1  0
  5 30  1  1
  6 31  1  0
  7 32  1  0
  8 33  1  0
 15 34  1  0
 16 35  1  0
 18 36  1  0
 19 37  1  0
 20 38  1  0
 21 39  1  0
M  ISO  8  23  13  24  13  25  13  26  13  27  13  28  13  29  13  30  13
M  ISO  8  31  14  32  14  33  14  34  14  35   9  36  14  37  14  38  14
M  ISO  1  39  14
M  END
>  <minimizedAffinity>  (1) 
-4.46410036

>  <minimizedRMSD>  (1) 
0.854278982

$$$$
