
     RDKit          3D

 32 34  0  0  1  0  0  0  0  0999 V2000
   38.7320   25.2800   34.8930 C   0  0  1  0  0  0  0  0  0  0  0  0
   37.5000   25.9960   34.6120 C   0  0  0  0  0  0  0  0  0  0  0  0
   37.9000   27.1510   33.7140 C   0  0  0  0  0  0  0  0  0  0  0  0
   39.4120   27.1640   33.6420 C   0  0  0  0  0  0  0  0  0  0  0  0
   39.8370   26.3260   34.8120 C   0  0  2  0  0  0  0  0  0  0  0  0
   39.5950   22.8390   37.5040 C   0  0  0  0  0  0  0  0  0  0  0  0
   38.7950   23.2850   38.6200 C   0  0  0  0  0  0  0  0  0  0  0  0
   37.9710   24.4190   38.4500 C   0  0  0  0  0  0  0  0  0  0  0  0
   38.0020   25.0070   37.2260 N   0  0  0  0  0  0  0  0  0  0  0  0
   38.7660   24.5580   36.2050 C   0  0  0  0  0  0  0  0  0  0  0  0
   39.5640   23.4750   36.3390 N   0  0  0  0  0  0  0  0  0  0  0  0
   41.0980   25.6370   34.4470 C   0  0  0  0  0  0  0  0  0  0  0  0
   42.1500   25.7590   35.0760 O   0  0  0  0  0  0  0  0  0  0  0  0
   41.1410   24.7510   33.2700 C   0  0  0  0  0  0  0  0  0  0  0  0
   41.5640   23.4220   33.4100 C   0  0  0  0  0  0  0  0  0  0  0  0
   41.5230   22.7870   32.1640 C   0  0  0  0  0  0  0  0  0  0  0  0
   41.0830   23.7390   31.3270 N   0  0  0  0  0  0  0  0  0  0  0  0
   40.8620   24.8700   31.9620 N   0  0  0  0  0  0  0  0  0  0  0  0
   38.8489   24.4679   34.1603 H   0  0  0  0  0  0  0  0  0  0  0  0
   36.7824   25.3397   34.0979 H   0  0  0  0  0  0  0  0  0  0  0  0
   37.0110   26.3451   35.5334 H   0  0  0  0  0  0  0  0  0  0  0  0
   37.4767   27.0099   32.7086 H   0  0  0  0  0  0  0  0  0  0  0  0
   37.5214   28.1034   34.1134 H   0  0  0  0  0  0  0  0  0  0  0  0
   39.7625   26.7231   32.6971 H   0  0  0  0  0  0  0  0  0  0  0  0
   39.8293   28.1812   33.6753 H   0  0  0  0  0  0  0  0  0  0  0  0
   39.9880   26.8930   35.7424 H   0  0  0  0  0  0  0  0  0  0  0  0
   40.2415   21.9568   37.6210 H   0  0  0  0  0  0  0  0  0  0  0  0
   38.8267   22.7528   39.5822 H   0  0  0  0  0  0  0  0  0  0  0  0
   37.3391   24.8048   39.2636 H   0  0  0  0  0  0  0  0  0  0  0  0
   41.8792   22.9514   34.3530 H   0  0  0  0  0  0  0  0  0  0  0  0
   41.7900   21.7469   31.9255 H   0  0  0  0  0  0  0  0  0  0  0  0
   40.9369   23.6019   30.3167 H   0  0  0  0  0  0  0  0  0  0  0  0
  1 10  1  0
  2  1  1  0
  3  2  1  0
  4  3  1  0
  4  5  1  0
  5  1  1  0
  6  7  2  0
  8  7  1  0
  9  8  2  0
 10 11  2  0
 10  9  1  0
 11  6  1  0
 12  5  1  0
 12 13  2  0
 14 15  1  0
 14 12  1  0
 16 15  2  0
 17 18  1  0
 17 16  1  0
 18 14  2  0
  1 19  1  6
  2 20  1  0
  2 21  1  0
  3 22  1  0
  3 23  1  0
  4 24  1  0
  4 25  1  0
  5 26  1  1
  6 27  1  0
  7 28  1  0
  8 29  1  0
 15 30  1  0
 16 31  1  0
 17 32  1  0
M  ISO  8  19  13  20  13  21  13  22  13  23  13  24  13  25  13  26  13
M  ISO  6  27  14  28  14  29  14  30  14  31  14  32   9
M  END
>  <minimizedAffinity>  (1) 
-4.02201891

>  <minimizedRMSD>  (1) 
0.240234256

$$$$
