
     RDKit          3D

 35 37  0  0  1  0  0  0  0  0999 V2000
   38.7580   25.2510   34.9040 C   0  0  1  0  0  0  0  0  0  0  0  0
   37.5240   25.9630   34.6140 C   0  0  0  0  0  0  0  0  0  0  0  0
   37.9250   27.1160   33.7270 C   0  0  0  0  0  0  0  0  0  0  0  0
   39.4420   27.1990   33.7210 C   0  0  0  0  0  0  0  0  0  0  0  0
   39.8620   26.2620   34.8130 C   0  0  2  0  0  0  0  0  0  0  0  0
   39.6160   22.8310   37.5420 C   0  0  0  0  0  0  0  0  0  0  0  0
   38.7880   23.2650   38.6330 C   0  0  0  0  0  0  0  0  0  0  0  0
   37.9420   24.3900   38.4580 C   0  0  0  0  0  0  0  0  0  0  0  0
   37.9900   24.9770   37.2340 N   0  0  0  0  0  0  0  0  0  0  0  0
   38.7710   24.5460   36.2440 C   0  0  0  0  0  0  0  0  0  0  0  0
   39.5920   23.4710   36.3850 N   0  0  0  0  0  0  0  0  0  0  0  0
   41.1210   25.6020   34.4680 C   0  0  0  0  0  0  0  0  0  0  0  0
   42.1840   25.8950   35.0610 O   0  0  0  0  0  0  0  0  0  0  0  0
   41.4890   24.5840   33.5010 C   0  0  0  0  0  0  0  0  0  0  0  0
   42.2170   23.4780   33.8770 C   0  0  0  0  0  0  0  0  0  0  0  0
   42.6180   22.4650   32.9910 C   0  0  0  0  0  0  0  0  0  0  0  0
   42.2740   22.5620   31.6670 C   0  0  0  0  0  0  0  0  0  0  0  0
   41.5480   23.6450   31.2330 C   0  0  0  0  0  0  0  0  0  0  0  0
   41.1950   24.5920   32.1590 C   0  0  0  0  0  0  0  0  0  0  0  0
   38.8794   24.4363   34.1750 H   0  0  0  0  0  0  0  0  0  0  0  0
   36.8137   25.3050   34.0921 H   0  0  0  0  0  0  0  0  0  0  0  0
   37.0253   26.3075   35.5320 H   0  0  0  0  0  0  0  0  0  0  0  0
   37.5565   26.9460   32.7046 H   0  0  0  0  0  0  0  0  0  0  0  0
   37.4926   28.0551   34.1026 H   0  0  0  0  0  0  0  0  0  0  0  0
   39.8472   26.8753   32.7510 H   0  0  0  0  0  0  0  0  0  0  0  0
   39.8101   28.2236   33.8782 H   0  0  0  0  0  0  0  0  0  0  0  0
   40.0259   26.7888   35.7647 H   0  0  0  0  0  0  0  0  0  0  0  0
   40.2750   21.9596   37.6701 H   0  0  0  0  0  0  0  0  0  0  0  0
   38.8099   22.7304   39.5941 H   0  0  0  0  0  0  0  0  0  0  0  0
   37.2895   24.7628   39.2613 H   0  0  0  0  0  0  0  0  0  0  0  0
   42.5018   23.3819   34.9351 H   0  0  0  0  0  0  0  0  0  0  0  0
   43.2002   21.6052   33.3541 H   0  0  0  0  0  0  0  0  0  0  0  0
   42.5772   21.7782   30.9572 H   0  0  0  0  0  0  0  0  0  0  0  0
   41.2594   23.7486   30.1766 H   0  0  0  0  0  0  0  0  0  0  0  0
   40.6146   25.4496   31.7881 H   0  0  0  0  0  0  0  0  0  0  0  0
  1 10  1  0
  2  1  1  0
  3  2  1  0
  4  3  1  0
  4  5  1  0
  5  1  1  0
  6  7  2  0
  8  7  1  0
  9  8  2  0
 10 11  2  0
 10  9  1  0
 11  6  1  0
 12  5  1  0
 12 13  2  0
 14 15  2  0
 14 12  1  0
 16 15  1  0
 17 16  2  0
 18 17  1  0
 18 19  2  0
 19 14  1  0
  1 20  1  6
  2 21  1  0
  2 22  1  0
  3 23  1  0
  3 24  1  0
  4 25  1  0
  4 26  1  0
  5 27  1  1
  6 28  1  0
  7 29  1  0
  8 30  1  0
 15 31  1  0
 16 32  1  0
 17 33  1  0
 18 34  1  0
 19 35  1  0
M  ISO  8  20  13  21  13  22  13  23  13  24  13  25  13  26  13  27  13
M  ISO  8  28  14  29  14  30  14  31  14  32  14  33  14  34  14  35  14
M  END
>  <minimizedAffinity>  (1) 
-4.00196743

>  <minimizedRMSD>  (1) 
0.297062039

$$$$
