
     RDKit          3D

 48 52  0  0  1  0  0  0  0  0999 V2000
   40.8320   25.7660   34.4130 C   0  0  0  0  0  0  0  0  0  0  0  0
   41.8690   25.6580   35.0730 O   0  0  0  0  0  0  0  0  0  0  0  0
   40.8760   25.1820   33.0710 C   0  0  0  0  0  0  0  0  0  0  0  0
   40.8820   23.8210   32.8770 C   0  0  0  0  0  0  0  0  0  0  0  0
   40.9120   23.1810   31.6730 C   0  0  0  0  0  0  0  0  0  0  0  0
   40.9420   23.9540   30.5210 C   0  0  0  0  0  0  0  0  0  0  0  0
   40.9370   25.3110   30.6830 C   0  0  0  0  0  0  0  0  0  0  0  0
   40.9050   25.8410   31.8960 N   0  0  0  0  0  0  0  0  0  0  0  0
   40.9640   26.2720   29.6290 N   0  0  0  0  0  0  0  0  0  0  0  0
   41.8960   26.6940   28.7420 C   0  0  0  0  0  0  0  0  0  0  0  0
   41.3180   27.6440   27.9770 N   0  0  0  0  0  0  0  0  0  0  0  0
   40.0490   27.8200   28.3690 C   0  0  0  0  0  0  0  0  0  0  0  0
   39.1020   28.6870   27.8650 C   0  0  0  0  0  0  0  0  0  0  0  0
   39.2970   29.4760   26.9180 O   0  0  0  0  0  0  0  0  0  0  0  0
   37.8560   28.7020   28.4220 N   0  0  0  0  0  0  0  0  0  0  0  0
   37.6360   27.8610   29.4370 C   0  0  0  0  0  0  0  0  0  0  0  0
   36.3780   27.7670   30.1170 N   0  0  0  0  0  0  0  0  0  0  0  0
   38.5600   27.0210   29.9220 N   0  0  0  0  0  0  0  0  0  0  0  0
   39.8180   26.9530   29.4170 C   0  0  0  0  0  0  0  0  0  0  0  0
   38.5010   25.3980   35.0530 C   0  0  1  0  0  0  0  0  0  0  0  0
   37.2590   26.1180   34.9270 C   0  0  0  0  0  0  0  0  0  0  0  0
   37.5930   27.3420   34.0840 C   0  0  0  0  0  0  0  0  0  0  0  0
   39.1050   27.3620   33.8950 C   0  0  0  0  0  0  0  0  0  0  0  0
   39.6180   26.4410   34.9400 C   0  0  2  0  0  0  0  0  0  0  0  0
   39.6050   22.8290   37.4480 C   0  0  0  0  0  0  0  0  0  0  0  0
   38.9000   23.2100   38.6420 C   0  0  0  0  0  0  0  0  0  0  0  0
   38.0540   24.3360   38.6240 C   0  0  0  0  0  0  0  0  0  0  0  0
   37.9770   24.9860   37.4320 N   0  0  0  0  0  0  0  0  0  0  0  0
   38.6590   24.5960   36.3230 C   0  0  0  0  0  0  0  0  0  0  0  0
   39.4710   23.5240   36.3200 N   0  0  0  0  0  0  0  0  0  0  0  0
   40.8606   23.1890   33.7771 H   0  0  0  0  0  0  0  0  0  0  0  0
   40.9124   22.0824   31.6167 H   0  0  0  0  0  0  0  0  0  0  0  0
   40.9686   23.4949   29.5217 H   0  0  0  0  0  0  0  0  0  0  0  0
   42.9310   26.3305   28.6602 H   0  0  0  0  0  0  0  0  0  0  0  0
   37.1189   29.3327   28.0758 H   0  0  0  0  0  0  0  0  0  0  0  0
   36.2612   27.1012   30.8942 H   0  0  0  0  0  0  0  0  0  0  0  0
   35.5907   28.3652   29.8285 H   0  0  0  0  0  0  0  0  0  0  0  0
   38.5341   24.6386   34.2579 H   0  0  0  0  0  0  0  0  0  0  0  0
   36.5024   25.4977   34.4242 H   0  0  0  0  0  0  0  0  0  0  0  0
   36.8416   26.3939   35.9066 H   0  0  0  0  0  0  0  0  0  0  0  0
   37.0922   27.2744   33.1069 H   0  0  0  0  0  0  0  0  0  0  0  0
   37.2499   28.2621   34.5796 H   0  0  0  0  0  0  0  0  0  0  0  0
   39.3770   27.0028   32.8915 H   0  0  0  0  0  0  0  0  0  0  0  0
   39.5261   28.3743   33.9838 H   0  0  0  0  0  0  0  0  0  0  0  0
   39.8662   26.9372   35.8899 H   0  0  0  0  0  0  0  0  0  0  0  0
   40.2654   21.9495   37.4667 H   0  0  0  0  0  0  0  0  0  0  0  0
   39.0209   22.6246   39.5654 H   0  0  0  0  0  0  0  0  0  0  0  0
   37.4948   24.6664   39.5118 H   0  0  0  0  0  0  0  0  0  0  0  0
  1 24  1  0
  1  2  2  0
  3  1  1  0
  4  3  2  0
  5  4  1  0
  6  7  1  0
  6  5  2  0
  7  8  2  0
  8  3  1  0
  9  7  1  0
 10  9  1  0
 11 12  1  0
 11 10  2  0
 12 19  2  0
 13 12  1  0
 13 15  1  0
 14 13  2  0
 15 16  1  0
 16 18  2  0
 16 17  1  0
 19  9  1  0
 19 18  1  0
 20 29  1  0
 21 20  1  0
 22 21  1  0
 23 22  1  0
 23 24  1  0
 24 20  1  0
 25 26  2  0
 27 26  1  0
 28 27  2  0
 29 28  1  0
 30 29  2  0
 30 25  1  0
  4 31  1  0
  5 32  1  0
  6 33  1  0
 10 34  1  0
 15 35  1  0
 17 36  1  0
 17 37  1  0
 20 38  1  6
 21 39  1  0
 21 40  1  0
 22 41  1  0
 22 42  1  0
 23 43  1  0
 23 44  1  0
 24 45  1  1
 25 46  1  0
 26 47  1  0
 27 48  1  0
M  ISO  8  31  14  32  14  33  14  34  14  35   9  38  13  39  13  40  13
M  ISO  8  41  13  42  13  43  13  44  13  45  13  46  14  47  14  48  14
M  END
>  <minimizedAffinity>  (1) 
-5.74489164

>  <minimizedRMSD>  (1) 
1.36414766

$$$$
