
     RDKit          3D

 47 51  0  0  1  0  0  0  0  0999 V2000
   40.6420   25.8870   34.3890 C   0  0  0  0  0  0  0  0  0  0  0  0
   41.7360   25.7860   34.9550 O   0  0  0  0  0  0  0  0  0  0  0  0
   40.5800   25.3240   33.0390 C   0  0  0  0  0  0  0  0  0  0  0  0
   40.6930   23.9710   32.8190 C   0  0  0  0  0  0  0  0  0  0  0  0
   40.6420   23.3500   31.6030 C   0  0  0  0  0  0  0  0  0  0  0  0
   40.4600   24.1360   30.4780 C   0  0  0  0  0  0  0  0  0  0  0  0
   40.3440   25.4860   30.6630 C   0  0  0  0  0  0  0  0  0  0  0  0
   40.4070   25.9970   31.8820 N   0  0  0  0  0  0  0  0  0  0  0  0
   40.1550   26.4650   29.6470 N   0  0  0  0  0  0  0  0  0  0  0  0
   41.0000   26.6630   28.5900 C   0  0  0  0  0  0  0  0  0  0  0  0
   40.5180   27.6780   27.8120 N   0  0  0  0  0  0  0  0  0  0  0  0
   39.4040   28.0800   28.3970 C   0  0  0  0  0  0  0  0  0  0  0  0
   38.4490   29.0380   28.1440 C   0  0  0  0  0  0  0  0  0  0  0  0
   37.3500   29.2720   28.9190 N   0  0  0  0  0  0  0  0  0  0  0  0
   37.1600   28.5120   30.0330 C   0  0  0  0  0  0  0  0  0  0  0  0
   38.0740   27.5720   30.3020 N   0  0  0  0  0  0  0  0  0  0  0  0
   39.1290   27.3620   29.5400 C   0  0  0  0  0  0  0  0  0  0  0  0
   38.5400   29.8870   27.0170 N   0  0  0  0  0  0  0  0  0  0  0  0
   38.3560   25.4840   35.1550 C   0  0  1  0  0  0  0  0  0  0  0  0
   37.1130   26.2130   35.1540 C   0  0  0  0  0  0  0  0  0  0  0  0
   37.4000   27.4830   34.3650 C   0  0  0  0  0  0  0  0  0  0  0  0
   38.8930   27.5120   34.0720 C   0  0  0  0  0  0  0  0  0  0  0  0
   39.4680   26.5340   35.0290 C   0  0  2  0  0  0  0  0  0  0  0  0
   39.6360   22.8060   37.3340 C   0  0  0  0  0  0  0  0  0  0  0  0
   38.9840   23.1000   38.5870 C   0  0  0  0  0  0  0  0  0  0  0  0
   38.1090   24.2090   38.6770 C   0  0  0  0  0  0  0  0  0  0  0  0
   37.9590   24.9230   37.5290 N   0  0  0  0  0  0  0  0  0  0  0  0
   38.5920   24.6140   36.3650 C   0  0  0  0  0  0  0  0  0  0  0  0
   39.4250   23.5640   36.2640 N   0  0  0  0  0  0  0  0  0  0  0  0
   40.8375   23.3310   33.7019 H   0  0  0  0  0  0  0  0  0  0  0  0
   40.7426   22.2577   31.5204 H   0  0  0  0  0  0  0  0  0  0  0  0
   40.4106   23.6914   29.4731 H   0  0  0  0  0  0  0  0  0  0  0  0
   41.9220   26.0950   28.3966 H   0  0  0  0  0  0  0  0  0  0  0  0
   36.2886   28.6649   30.6867 H   0  0  0  0  0  0  0  0  0  0  0  0
   37.8136   30.5972   26.8472 H   0  0  0  0  0  0  0  0  0  0  0  0
   39.3327   29.7953   26.3658 H   0  0  0  0  0  0  0  0  0  0  0  0
   38.3345   24.7702   34.3183 H   0  0  0  0  0  0  0  0  0  0  0  0
   36.3211   25.6257   34.6662 H   0  0  0  0  0  0  0  0  0  0  0  0
   36.7617   26.4311   36.1733 H   0  0  0  0  0  0  0  0  0  0  0  0
   36.8324   27.4761   33.4228 H   0  0  0  0  0  0  0  0  0  0  0  0
   37.1006   28.3720   34.9395 H   0  0  0  0  0  0  0  0  0  0  0  0
   39.0934   27.2072   33.0343 H   0  0  0  0  0  0  0  0  0  0  0  0
   39.3260   28.5170   34.1836 H   0  0  0  0  0  0  0  0  0  0  0  0
   39.7780   26.9781   35.9864 H   0  0  0  0  0  0  0  0  0  0  0  0
   40.3158   21.9440   37.2641 H   0  0  0  0  0  0  0  0  0  0  0  0
   39.1658   22.4660   39.4673 H   0  0  0  0  0  0  0  0  0  0  0  0
   37.5877   24.4744   39.6086 H   0  0  0  0  0  0  0  0  0  0  0  0
  1  2  2  0
  1 23  1  0
  3  1  1  0
  4  3  2  0
  5  4  1  0
  6  7  1  0
  6  5  2  0
  7  8  2  0
  8  3  1  0
  9  7  1  0
 10  9  1  0
 11 12  1  0
 11 10  2  0
 12 17  2  0
 13 12  1  0
 13 14  2  0
 14 15  1  0
 15 16  2  0
 17  9  1  0
 17 16  1  0
 18 13  1  0
 19 28  1  0
 20 19  1  0
 21 20  1  0
 22 21  1  0
 22 23  1  0
 23 19  1  0
 24 25  2  0
 25 26  1  0
 27 26  2  0
 28 27  1  0
 29 28  2  0
 29 24  1  0
  4 30  1  0
  5 31  1  0
  6 32  1  0
 10 33  1  0
 15 34  1  0
 18 35  1  0
 18 36  1  0
 19 37  1  6
 20 38  1  0
 20 39  1  0
 21 40  1  0
 21 41  1  0
 22 42  1  0
 22 43  1  0
 23 44  1  1
 24 45  1  0
 25 46  1  0
 26 47  1  0
M  ISO  8  30  14  31  14  32  14  33  14  34  14  37  13  38  13  39  13
M  ISO  8  40  13  41  13  42  13  43  13  44  13  45  14  46  14  47  14
M  END
>  <minimizedAffinity>  (1) 
-5.69780684

>  <minimizedRMSD>  (1) 
2.04396081

$$$$
