
     RDKit          3D

 45 49  0  0  1  0  0  0  0  0999 V2000
   38.3400   25.5320   35.1720 C   0  0  1  0  0  0  0  0  0  0  0  0
   37.0880   26.2430   35.2010 C   0  0  0  0  0  0  0  0  0  0  0  0
   37.3480   27.5390   34.4460 C   0  0  0  0  0  0  0  0  0  0  0  0
   38.8390   27.5920   34.1370 C   0  0  0  0  0  0  0  0  0  0  0  0
   39.4390   26.5970   35.0620 C   0  0  2  0  0  0  0  0  0  0  0  0
   39.6790   22.8120   37.2630 C   0  0  0  0  0  0  0  0  0  0  0  0
   39.0400   23.0610   38.5280 C   0  0  0  0  0  0  0  0  0  0  0  0
   38.1530   24.1540   38.6570 C   0  0  0  0  0  0  0  0  0  0  0  0
   37.9820   24.8950   37.5300 N   0  0  0  0  0  0  0  0  0  0  0  0
   38.5990   24.6330   36.3540 C   0  0  0  0  0  0  0  0  0  0  0  0
   39.4450   23.5950   36.2220 N   0  0  0  0  0  0  0  0  0  0  0  0
   40.6100   25.9830   34.3870 C   0  0  0  0  0  0  0  0  0  0  0  0
   41.7330   25.9610   34.9020 O   0  0  0  0  0  0  0  0  0  0  0  0
   40.5130   25.3610   33.0650 C   0  0  0  0  0  0  0  0  0  0  0  0
   40.7020   24.0110   32.8920 C   0  0  0  0  0  0  0  0  0  0  0  0
   40.6250   23.3320   31.7090 C   0  0  0  0  0  0  0  0  0  0  0  0
   40.3320   24.0570   30.5650 C   0  0  0  0  0  0  0  0  0  0  0  0
   40.1390   25.4040   30.7020 C   0  0  0  0  0  0  0  0  0  0  0  0
   40.2340   25.9720   31.8950 N   0  0  0  0  0  0  0  0  0  0  0  0
   39.8320   26.3060   29.6420 N   0  0  0  0  0  0  0  0  0  0  0  0
   40.3100   26.4730   28.3960 C   0  0  0  0  0  0  0  0  0  0  0  0
   39.6720   27.4810   27.7850 N   0  0  0  0  0  0  0  0  0  0  0  0
   38.7540   27.9860   28.6520 C   0  0  0  0  0  0  0  0  0  0  0  0
   37.8290   29.0140   28.5650 C   0  0  0  0  0  0  0  0  0  0  0  0
   37.0080   29.3230   29.6060 N   0  0  0  0  0  0  0  0  0  0  0  0
   37.1390   28.5760   30.7240 C   0  0  0  0  0  0  0  0  0  0  0  0
   38.0260   27.5800   30.8250 N   0  0  0  0  0  0  0  0  0  0  0  0
   38.8700   27.2310   29.8160 C   0  0  0  0  0  0  0  0  0  0  0  0
   38.3182   24.8411   34.3163 H   0  0  0  0  0  0  0  0  0  0  0  0
   36.3005   25.6580   34.7035 H   0  0  0  0  0  0  0  0  0  0  0  0
   36.7437   26.4279   36.2292 H   0  0  0  0  0  0  0  0  0  0  0  0
   36.7690   27.5525   33.5108 H   0  0  0  0  0  0  0  0  0  0  0  0
   37.0439   28.4081   35.0479 H   0  0  0  0  0  0  0  0  0  0  0  0
   39.0303   27.3158   33.0896 H   0  0  0  0  0  0  0  0  0  0  0  0
   39.2611   28.5990   34.2703 H   0  0  0  0  0  0  0  0  0  0  0  0
   39.7572   27.0172   36.0275 H   0  0  0  0  0  0  0  0  0  0  0  0
   40.3693   21.9618   37.1601 H   0  0  0  0  0  0  0  0  0  0  0  0
   39.2403   22.4056   39.3884 H   0  0  0  0  0  0  0  0  0  0  0  0
   37.6385   24.3880   39.6007 H   0  0  0  0  0  0  0  0  0  0  0  0
   40.9374   23.4216   33.7904 H   0  0  0  0  0  0  0  0  0  0  0  0
   40.7902   22.2453   31.6660 H   0  0  0  0  0  0  0  0  0  0  0  0
   40.2574   23.5672   29.5829 H   0  0  0  0  0  0  0  0  0  0  0  0
   41.1100   25.8688   27.9432 H   0  0  0  0  0  0  0  0  0  0  0  0
   37.7564   29.5939   27.6331 H   0  0  0  0  0  0  0  0  0  0  0  0
   36.4907   28.7955   31.5851 H   0  0  0  0  0  0  0  0  0  0  0  0
  1  2  1  0
  1 10  1  0
  3  2  1  0
  4  3  1  0
  4  5  1  0
  5  1  1  0
  6  7  2  0
  7  8  1  0
  9  8  2  0
 10  9  1  0
 11 10  2  0
 11  6  1  0
 12 13  2  0
 12  5  1  0
 14 12  1  0
 15 14  2  0
 16 15  1  0
 17 18  1  0
 17 16  2  0
 18 19  2  0
 19 14  1  0
 20 28  1  0
 20 18  1  0
 21 20  1  0
 22 21  2  0
 22 23  1  0
 23 28  2  0
 24 23  1  0
 24 25  2  0
 25 26  1  0
 26 27  2  0
 28 27  1  0
  1 29  1  6
  2 30  1  0
  2 31  1  0
  3 32  1  0
  3 33  1  0
  4 34  1  0
  4 35  1  0
  5 36  1  1
  6 37  1  0
  7 38  1  0
  8 39  1  0
 15 40  1  0
 16 41  1  0
 17 42  1  0
 21 43  1  0
 24 44  1  0
 26 45  1  0
M  ISO  8  29  13  30  13  31  13  32  13  33  13  34  13  35  13  36  13
M  ISO  8  37  14  38  14  39  14  40  14  41  14  42  14  43  14  44  14
M  ISO  1  45  14
M  END
>  <minimizedAffinity>  (1) 
-5.46855021

>  <minimizedRMSD>  (1) 
2.10897589

$$$$
