
     RDKit          3D

 44 47  0  0  1  0  0  0  0  0999 V2000
   39.2840   24.8070   35.3680 C   0  0  1  0  0  0  0  0  0  0  0  0
   38.1530   25.1300   36.2000 C   0  0  0  0  0  0  0  0  0  0  0  0
   38.0080   26.6430   36.0970 C   0  0  0  0  0  0  0  0  0  0  0  0
   39.2010   27.1650   35.3080 C   0  0  0  0  0  0  0  0  0  0  0  0
   40.1820   26.0500   35.3590 C   0  0  2  0  0  0  0  0  0  0  0  0
   41.5040   21.8660   35.2700 C   0  0  0  0  0  0  0  0  0  0  0  0
   41.4770   21.4310   36.6340 C   0  0  0  0  0  0  0  0  0  0  0  0
   40.7020   22.1350   37.5880 C   0  0  0  0  0  0  0  0  0  0  0  0
   40.0280   23.2040   37.0980 N   0  0  0  0  0  0  0  0  0  0  0  0
   40.0730   23.5920   35.7970 C   0  0  0  0  0  0  0  0  0  0  0  0
   40.8050   22.9330   34.8830 N   0  0  0  0  0  0  0  0  0  0  0  0
   40.9550   26.0510   34.0900 C   0  0  0  0  0  0  0  0  0  0  0  0
   42.1900   26.0510   34.0630 O   0  0  0  0  0  0  0  0  0  0  0  0
   40.3010   26.0520   32.7800 C   0  0  0  0  0  0  0  0  0  0  0  0
   40.4750   25.0240   31.8850 C   0  0  0  0  0  0  0  0  0  0  0  0
   39.9080   24.9260   30.6490 C   0  0  0  0  0  0  0  0  0  0  0  0
   39.0700   25.9530   30.2350 C   0  0  0  0  0  0  0  0  0  0  0  0
   38.8760   26.9900   31.1030 C   0  0  0  0  0  0  0  0  0  0  0  0
   39.4730   26.9960   32.2850 N   0  0  0  0  0  0  0  0  0  0  0  0
   38.0250   28.1360   30.8050 C   0  0  0  0  0  0  0  0  0  0  0  0
   37.0820   28.5640   31.7140 C   0  0  0  0  0  0  0  0  0  0  0  0
   36.2340   29.6350   31.5210 C   0  0  0  0  0  0  0  0  0  0  0  0
   36.3210   30.3410   30.3400 C   0  0  0  0  0  0  0  0  0  0  0  0
   37.2520   29.9460   29.4030 C   0  0  0  0  0  0  0  0  0  0  0  0
   38.0820   28.8680   29.6380 C   0  0  0  0  0  0  0  0  0  0  0  0
   38.9075   24.5380   34.3701 H   0  0  0  0  0  0  0  0  0  0  0  0
   37.2460   24.6286   35.8314 H   0  0  0  0  0  0  0  0  0  0  0  0
   38.2958   24.7981   37.2390 H   0  0  0  0  0  0  0  0  0  0  0  0
   37.0732   26.8960   35.5754 H   0  0  0  0  0  0  0  0  0  0  0  0
   37.9768   27.0980   37.0980 H   0  0  0  0  0  0  0  0  0  0  0  0
   39.6137   28.0705   35.7767 H   0  0  0  0  0  0  0  0  0  0  0  0
   38.9362   27.4489   34.2788 H   0  0  0  0  0  0  0  0  0  0  0  0
   40.8796   26.1073   36.2075 H   0  0  0  0  0  0  0  0  0  0  0  0
   42.1075   21.3142   34.5343 H   0  0  0  0  0  0  0  0  0  0  0  0
   42.0586   20.5493   36.9412 H   0  0  0  0  0  0  0  0  0  0  0  0
   40.6510   21.8370   38.6456 H   0  0  0  0  0  0  0  0  0  0  0  0
   41.1353   24.2009   32.1956 H   0  0  0  0  0  0  0  0  0  0  0  0
   40.1081   24.0606   30.0001 H   0  0  0  0  0  0  0  0  0  0  0  0
   38.5826   25.9324   29.2491 H   0  0  0  0  0  0  0  0  0  0  0  0
   36.9994   28.0120   32.6619 H   0  0  0  0  0  0  0  0  0  0  0  0
   35.5039   29.9196   32.2930 H   0  0  0  0  0  0  0  0  0  0  0  0
   35.6619   31.2008   30.1495 H   0  0  0  0  0  0  0  0  0  0  0  0
   37.3347   30.4975   28.4548 H   0  0  0  0  0  0  0  0  0  0  0  0
   38.8139   28.5834   28.8677 H   0  0  0  0  0  0  0  0  0  0  0  0
  1 10  1  0
  1  2  1  0
  3  2  1  0
  4  5  1  0
  4  3  1  0
  5  1  1  0
  6  7  2  0
  7  8  1  0
  9  8  2  0
 10  9  1  0
 11  6  1  0
 11 10  2  0
 12  5  1  0
 13 12  2  0
 14 12  1  0
 15 14  2  0
 16 15  1  0
 17 16  2  0
 17 18  1  0
 18 19  2  0
 19 14  1  0
 20 18  1  0
 20 21  2  0
 22 21  1  0
 23 22  2  0
 24 25  2  0
 24 23  1  0
 25 20  1  0
  1 26  1  6
  2 27  1  0
  2 28  1  0
  3 29  1  0
  3 30  1  0
  4 31  1  0
  4 32  1  0
  5 33  1  1
  6 34  1  0
  7 35  1  0
  8 36  1  0
 15 37  1  0
 16 38  1  0
 17 39  1  0
 21 40  1  0
 22 41  1  0
 23 42  1  0
 24 43  1  0
 25 44  1  0
M  ISO  8  26  13  27  13  28  13  29  13  30  13  31  13  32  13  33  13
M  ISO  8  34  14  35  14  36  14  37  14  38  14  39  14  40  14  41  14
M  ISO  3  42  14  43  14  44  14
M  END
>  <minimizedAffinity>  (1) 
-5.18505001

>  <minimizedRMSD>  (1) 
3.94138145

$$$$
