
     RDKit          3D

 47 50  0  0  1  0  0  0  0  0999 V2000
   38.8000   25.1920   35.1350 C   0  0  1  0  0  0  0  0  0  0  0  0
   37.4340   25.4940   35.4830 C   0  0  0  0  0  0  0  0  0  0  0  0
   37.2520   26.9630   35.1320 C   0  0  0  0  0  0  0  0  0  0  0  0
   38.6140   27.5090   34.7290 C   0  0  0  0  0  0  0  0  0  0  0  0
   39.5760   26.5090   35.2590 C   0  0  2  0  0  0  0  0  0  0  0  0
   41.0820   22.5080   36.2080 C   0  0  0  0  0  0  0  0  0  0  0  0
   40.5950   22.2010   37.5220 C   0  0  0  0  0  0  0  0  0  0  0  0
   39.4820   22.9120   38.0390 C   0  0  0  0  0  0  0  0  0  0  0  0
   38.9650   23.8550   37.2080 N   0  0  0  0  0  0  0  0  0  0  0  0
   39.4570   24.1160   35.9700 C   0  0  0  0  0  0  0  0  0  0  0  0
   40.5090   23.4520   35.4620 N   0  0  0  0  0  0  0  0  0  0  0  0
   40.7390   26.4460   34.3370 C   0  0  0  0  0  0  0  0  0  0  0  0
   41.9050   26.5520   34.7350 O   0  0  0  0  0  0  0  0  0  0  0  0
   40.5810   26.2510   32.8970 C   0  0  0  0  0  0  0  0  0  0  0  0
   40.9790   25.0890   32.2820 C   0  0  0  0  0  0  0  0  0  0  0  0
   40.8710   24.8020   30.9470 C   0  0  0  0  0  0  0  0  0  0  0  0
   40.3100   25.7670   30.1260 C   0  0  0  0  0  0  0  0  0  0  0  0
   39.9040   26.9340   30.7060 C   0  0  0  0  0  0  0  0  0  0  0  0
   40.0540   27.1080   32.0020 N   0  0  0  0  0  0  0  0  0  0  0  0
   38.2070   30.1510   28.4540 C   0  0  0  0  0  0  0  0  0  0  0  0
   37.3880   29.2080   29.0360 C   0  0  0  0  0  0  0  0  0  0  0  0
   37.9440   28.1730   29.7600 C   0  0  0  0  0  0  0  0  0  0  0  0
   39.3020   28.0200   29.9430 C   0  0  0  0  0  0  0  0  0  0  0  0
   40.0600   29.0000   29.3340 C   0  0  0  0  0  0  0  0  0  0  0  0
   39.5760   30.0580   28.5980 C   0  0  0  0  0  0  0  0  0  0  0  0
   37.5090   31.4700   27.5310 S   0  0  0  0  0  0  0  0  0  0  0  0
   36.5770   32.3060   28.3380 O   0  0  0  0  0  0  0  0  0  0  0  0
   38.6150   32.3590   27.0510 O   0  0  0  0  0  0  0  0  0  0  0  0
   38.8083   24.7766   34.1165 H   0  0  0  0  0  0  0  0  0  0  0  0
   36.7400   24.8691   34.9017 H   0  0  0  0  0  0  0  0  0  0  0  0
   37.2250   25.2945   36.5444 H   0  0  0  0  0  0  0  0  0  0  0  0
   36.5443   27.0645   34.2960 H   0  0  0  0  0  0  0  0  0  0  0  0
   36.8501   27.5198   35.9913 H   0  0  0  0  0  0  0  0  0  0  0  0
   38.6952   27.5873   33.6348 H   0  0  0  0  0  0  0  0  0  0  0  0
   38.7967   28.5202   35.1216 H   0  0  0  0  0  0  0  0  0  0  0  0
   39.9324   26.7281   36.2764 H   0  0  0  0  0  0  0  0  0  0  0  0
   41.9444   21.9539   35.8088 H   0  0  0  0  0  0  0  0  0  0  0  0
   41.0814   21.4196   38.1244 H   0  0  0  0  0  0  0  0  0  0  0  0
   39.0678   22.7148   39.0388 H   0  0  0  0  0  0  0  0  0  0  0  0
   41.4272   24.3152   32.9226 H   0  0  0  0  0  0  0  0  0  0  0  0
   41.2172   23.8400   30.5412 H   0  0  0  0  0  0  0  0  0  0  0  0
   40.1959   25.5986   29.0450 H   0  0  0  0  0  0  0  0  0  0  0  0
   36.2961   29.2799   28.9240 H   0  0  0  0  0  0  0  0  0  0  0  0
   37.2694   27.4323   30.2142 H   0  0  0  0  0  0  0  0  0  0  0  0
   41.1518   28.9289   29.4473 H   0  0  0  0  0  0  0  0  0  0  0  0
   40.2519   30.7977   28.1441 H   0  0  0  0  0  0  0  0  0  0  0  0
   36.8032   30.9127   26.4975 H   0  0  0  0  0  0  0  0  0  0  0  0
  1  5  1  0
  1  2  1  0
  1 10  1  0
  3  2  1  0
  4  3  1  0
  4  5  1  0
  6  7  2  0
  7  8  1  0
  9  8  2  0
 10  9  1  0
 11 10  2  0
 11  6  1  0
 12 13  2  0
 12  5  1  0
 14 12  1  0
 15 14  2  0
 16 15  1  0
 17 18  1  0
 17 16  2  0
 18 19  2  0
 19 14  1  0
 20 25  2  0
 20 21  1  0
 21 22  2  0
 22 23  1  0
 23 18  1  0
 24 23  2  0
 25 24  1  0
 26 27  2  0
 26 20  1  0
 28 26  2  0
  1 29  1  6
  2 30  1  0
  2 31  1  0
  3 32  1  0
  3 33  1  0
  4 34  1  0
  4 35  1  0
  5 36  1  1
  6 37  1  0
  7 38  1  0
  8 39  1  0
 15 40  1  0
 16 41  1  0
 17 42  1  0
 21 43  1  0
 22 44  1  0
 24 45  1  0
 25 46  1  0
 26 47  1  0
M  ISO  8  29  13  30  13  31  13  32  13  33  13  34  13  35  13  36  13
M  ISO  8  37  14  38  14  39  14  40  14  41  14  42  14  43  14  44  14
M  ISO  3  45  14  46  14  47  11
M  END
>  <minimizedAffinity>  (1) 
-4.91442537

>  <minimizedRMSD>  (1) 
3.67897606

$$$$
