
     RDKit          3D

 49 52  0  0  1  0  0  0  0  0999 V2000
   38.6230   25.3700   35.0420 C   0  0  1  0  0  0  0  0  0  0  0  0
   37.4090   26.1250   34.8660 C   0  0  0  0  0  0  0  0  0  0  0  0
   37.8110   27.3150   34.0020 C   0  0  0  0  0  0  0  0  0  0  0  0
   39.3280   27.2900   33.8670 C   0  0  0  0  0  0  0  0  0  0  0  0
   39.7780   26.3730   34.9380 C   0  0  2  0  0  0  0  0  0  0  0  0
   39.6170   22.8480   37.5330 C   0  0  0  0  0  0  0  0  0  0  0  0
   38.8560   23.2480   38.6800 C   0  0  0  0  0  0  0  0  0  0  0  0
   38.0050   24.3720   38.6070 C   0  0  0  0  0  0  0  0  0  0  0  0
   37.9850   25.0010   37.4010 N   0  0  0  0  0  0  0  0  0  0  0  0
   38.7200   24.5920   36.3330 C   0  0  0  0  0  0  0  0  0  0  0  0
   39.5350   23.5240   36.3890 N   0  0  0  0  0  0  0  0  0  0  0  0
   40.9810   25.6470   34.4590 C   0  0  0  0  0  0  0  0  0  0  0  0
   42.0820   25.7490   35.0120 O   0  0  0  0  0  0  0  0  0  0  0  0
   40.9390   24.7570   33.2860 C   0  0  0  0  0  0  0  0  0  0  0  0
   41.5440   23.5210   33.3090 C   0  0  0  0  0  0  0  0  0  0  0  0
   41.5610   22.6220   32.2890 C   0  0  0  0  0  0  0  0  0  0  0  0
   40.9180   22.9610   31.1070 C   0  0  0  0  0  0  0  0  0  0  0  0
   40.3130   24.1830   31.0640 C   0  0  0  0  0  0  0  0  0  0  0  0
   40.3550   24.9800   32.1090 N   0  0  0  0  0  0  0  0  0  0  0  0
   39.6150   24.6620   29.9230 N   0  0  0  0  0  0  0  0  0  0  0  0
   39.3800   23.9660   28.6800 C   0  0  0  0  0  0  0  0  0  0  0  0
   40.2700   24.6190   27.6500 C   0  0  0  0  0  0  0  0  0  0  0  0
   40.0560   26.1070   27.5650 C   0  0  0  0  0  0  0  0  0  0  0  0
   39.7650   26.7870   28.8520 C   0  0  0  0  0  0  0  0  0  0  0  0
   39.0260   25.9870   29.8690 C   0  0  0  0  0  0  0  0  0  0  0  0
   38.6526   24.5933   34.2636 H   0  0  0  0  0  0  0  0  0  0  0  0
   36.6455   25.5178   34.3578 H   0  0  0  0  0  0  0  0  0  0  0  0
   36.9724   26.4380   35.8259 H   0  0  0  0  0  0  0  0  0  0  0  0
   37.3441   27.2334   33.0094 H   0  0  0  0  0  0  0  0  0  0  0  0
   37.4780   28.2576   34.4610 H   0  0  0  0  0  0  0  0  0  0  0  0
   39.6246   26.9092   32.8785 H   0  0  0  0  0  0  0  0  0  0  0  0
   39.7735   28.2916   33.9581 H   0  0  0  0  0  0  0  0  0  0  0  0
   40.0170   26.8796   35.8847 H   0  0  0  0  0  0  0  0  0  0  0  0
   40.2775   21.9709   37.5989 H   0  0  0  0  0  0  0  0  0  0  0  0
   38.9352   22.6787   39.6179 H   0  0  0  0  0  0  0  0  0  0  0  0
   37.4029   24.7138   39.4618 H   0  0  0  0  0  0  0  0  0  0  0  0
   42.0607   23.2344   34.2368 H   0  0  0  0  0  0  0  0  0  0  0  0
   42.0702   21.6531   32.3978 H   0  0  0  0  0  0  0  0  0  0  0  0
   40.8971   22.2770   30.2457 H   0  0  0  0  0  0  0  0  0  0  0  0
   39.6377   22.9018   28.7854 H   0  0  0  0  0  0  0  0  0  0  0  0
   38.3217   24.0227   28.3855 H   0  0  0  0  0  0  0  0  0  0  0  0
   41.3195   24.4281   27.9184 H   0  0  0  0  0  0  0  0  0  0  0  0
   40.0192   24.1882   26.6695 H   0  0  0  0  0  0  0  0  0  0  0  0
   40.9670   26.5565   27.1430 H   0  0  0  0  0  0  0  0  0  0  0  0
   39.1611   26.2475   26.9410 H   0  0  0  0  0  0  0  0  0  0  0  0
   40.7250   27.0890   29.2961 H   0  0  0  0  0  0  0  0  0  0  0  0
   39.0990   27.6246   28.5972 H   0  0  0  0  0  0  0  0  0  0  0  0
   39.1076   26.4706   30.8536 H   0  0  0  0  0  0  0  0  0  0  0  0
   37.9624   25.9179   29.5968 H   0  0  0  0  0  0  0  0  0  0  0  0
  1 10  1  0
  2  1  1  0
  3  2  1  0
  4  3  1  0
  4  5  1  0
  5  1  1  0
  6  7  2  0
  8  7  1  0
  9  8  2  0
 10 11  2  0
 10  9  1  0
 11  6  1  0
 12  5  1  0
 12 13  2  0
 14 15  2  0
 14 12  1  0
 16 15  1  0
 17 16  2  0
 18 17  1  0
 18 19  2  0
 19 14  1  0
 20 18  1  0
 21 20  1  0
 22 21  1  0
 23 22  1  0
 23 24  1  0
 24 25  1  0
 25 20  1  0
  1 26  1  6
  2 27  1  0
  2 28  1  0
  3 29  1  0
  3 30  1  0
  4 31  1  0
  4 32  1  0
  5 33  1  1
  6 34  1  0
  7 35  1  0
  8 36  1  0
 15 37  1  0
 16 38  1  0
 17 39  1  0
 21 40  1  0
 21 41  1  0
 22 42  1  0
 22 43  1  0
 23 44  1  0
 23 45  1  0
 24 46  1  0
 24 47  1  0
 25 48  1  0
 25 49  1  0
M  ISO  8  26  13  27  13  28  13  29  13  30  13  31  13  32  13  33  13
M  ISO  8  34  14  35  14  36  14  37  14  38  14  39  14  40  13  41  13
M  ISO  8  42  13  43  13  44  13  45  13  46  13  47  13  48  13  49  13
M  END
>  <minimizedAffinity>  (1) 
-4.78990459

>  <minimizedRMSD>  (1) 
2.03880334

$$$$
