
     RDKit          3D

 40 43  0  0  1  0  0  0  0  0999 V2000
   38.5120   25.3710   34.9940 C   0  0  1  0  0  0  0  0  0  0  0  0
   37.2750   26.0970   34.8500 C   0  0  0  0  0  0  0  0  0  0  0  0
   37.6240   27.3070   33.9940 C   0  0  0  0  0  0  0  0  0  0  0  0
   39.1350   27.3140   33.8060 C   0  0  0  0  0  0  0  0  0  0  0  0
   39.6360   26.4090   34.8690 C   0  0  2  0  0  0  0  0  0  0  0  0
   39.6030   22.8460   37.4430 C   0  0  0  0  0  0  0  0  0  0  0  0
   38.8860   23.2500   38.6300 C   0  0  0  0  0  0  0  0  0  0  0  0
   38.0350   24.3810   38.5820 C   0  0  0  0  0  0  0  0  0  0  0  0
   37.9690   25.0030   37.3770 N   0  0  0  0  0  0  0  0  0  0  0  0
   38.6570   24.5950   36.2800 C   0  0  0  0  0  0  0  0  0  0  0  0
   39.4690   23.5230   36.3130 N   0  0  0  0  0  0  0  0  0  0  0  0
   40.8480   25.7160   34.3610 C   0  0  0  0  0  0  0  0  0  0  0  0
   41.9320   25.7530   34.9540 O   0  0  0  0  0  0  0  0  0  0  0  0
   40.8370   24.9400   33.1200 C   0  0  0  0  0  0  0  0  0  0  0  0
   41.0620   23.5860   33.1190 C   0  0  0  0  0  0  0  0  0  0  0  0
   41.0670   22.7690   32.0220 C   0  0  0  0  0  0  0  0  0  0  0  0
   40.8240   23.3400   30.7850 C   0  0  0  0  0  0  0  0  0  0  0  0
   40.5980   24.6880   30.7530 C   0  0  0  0  0  0  0  0  0  0  0  0
   40.6130   25.3900   31.8680 N   0  0  0  0  0  0  0  0  0  0  0  0
   40.3410   25.3630   29.5280 N   0  0  0  0  0  0  0  0  0  0  0  0
   39.9700   24.9250   28.3110 C   0  0  0  0  0  0  0  0  0  0  0  0
   39.8550   25.9710   27.4750 N   0  0  0  0  0  0  0  0  0  0  0  0
   40.1520   27.0800   28.1510 C   0  0  0  0  0  0  0  0  0  0  0  0
   40.4450   26.6920   29.4000 N   0  0  0  0  0  0  0  0  0  0  0  0
   38.5467   24.5967   34.2135 H   0  0  0  0  0  0  0  0  0  0  0  0
   36.5180   25.4752   34.3497 H   0  0  0  0  0  0  0  0  0  0  0  0
   36.8516   26.3879   35.8227 H   0  0  0  0  0  0  0  0  0  0  0  0
   37.1243   27.2325   33.0169 H   0  0  0  0  0  0  0  0  0  0  0  0
   37.2898   28.2352   34.4805 H   0  0  0  0  0  0  0  0  0  0  0  0
   39.4063   26.9342   32.8099 H   0  0  0  0  0  0  0  0  0  0  0  0
   39.5643   28.3244   33.8748 H   0  0  0  0  0  0  0  0  0  0  0  0
   39.8810   26.9221   35.8106 H   0  0  0  0  0  0  0  0  0  0  0  0
   40.2658   21.9688   37.4781 H   0  0  0  0  0  0  0  0  0  0  0  0
   39.0002   22.6827   39.5655 H   0  0  0  0  0  0  0  0  0  0  0  0
   37.4684   24.7303   39.4578 H   0  0  0  0  0  0  0  0  0  0  0  0
   41.2568   23.1130   34.0928 H   0  0  0  0  0  0  0  0  0  0  0  0
   41.2585   21.6902   32.1201 H   0  0  0  0  0  0  0  0  0  0  0  0
   40.8131   22.7349   29.8664 H   0  0  0  0  0  0  0  0  0  0  0  0
   39.7889   23.8739   28.0421 H   0  0  0  0  0  0  0  0  0  0  0  0
   40.1560   28.1088   27.7617 H   0  0  0  0  0  0  0  0  0  0  0  0
  1 10  1  0
  2  1  1  0
  3  2  1  0
  4  3  1  0
  4  5  1  0
  5  1  1  0
  6  7  2  0
  8  7  1  0
  9  8  2  0
 10 11  2  0
 10  9  1  0
 11  6  1  0
 12  5  1  0
 12 13  2  0
 14 12  1  0
 15 14  2  0
 16 15  1  0
 17 16  2  0
 18 17  1  0
 18 19  2  0
 19 14  1  0
 20 18  1  0
 21 20  1  0
 22 23  1  0
 22 21  2  0
 23 24  2  0
 24 20  1  0
  1 25  1  6
  2 26  1  0
  2 27  1  0
  3 28  1  0
  3 29  1  0
  4 30  1  0
  4 31  1  0
  5 32  1  1
  6 33  1  0
  7 34  1  0
  8 35  1  0
 15 36  1  0
 16 37  1  0
 17 38  1  0
 21 39  1  0
 23 40  1  0
M  ISO  8  25  13  26  13  27  13  28  13  29  13  30  13  31  13  32  13
M  ISO  8  33  14  34  14  35  14  36  14  37  14  38  14  39  14  40  14
M  END
>  <minimizedAffinity>  (1) 
-4.59666014

>  <minimizedRMSD>  (1) 
1.31960773

$$$$
