
     RDKit          3D

 41 44  0  0  1  0  0  0  0  0999 V2000
   38.4200   25.4220   35.0730 C   0  0  1  0  0  0  0  0  0  0  0  0
   37.1860   26.1630   34.9960 C   0  0  0  0  0  0  0  0  0  0  0  0
   37.5080   27.3830   34.1450 C   0  0  0  0  0  0  0  0  0  0  0  0
   39.0120   27.3800   33.8970 C   0  0  0  0  0  0  0  0  0  0  0  0
   39.5490   26.4450   34.9180 C   0  0  2  0  0  0  0  0  0  0  0  0
   39.5920   22.8460   37.4260 C   0  0  0  0  0  0  0  0  0  0  0  0
   38.9160   23.2160   38.6350 C   0  0  0  0  0  0  0  0  0  0  0  0
   38.0640   24.3380   38.6490 C   0  0  0  0  0  0  0  0  0  0  0  0
   37.9570   24.9940   37.4620 N   0  0  0  0  0  0  0  0  0  0  0  0
   38.6120   24.6140   36.3340 C   0  0  0  0  0  0  0  0  0  0  0  0
   39.4290   23.5460   36.3050 N   0  0  0  0  0  0  0  0  0  0  0  0
   40.7280   25.7500   34.3430 C   0  0  0  0  0  0  0  0  0  0  0  0
   41.8120   25.6840   34.9330 O   0  0  0  0  0  0  0  0  0  0  0  0
   40.6830   25.0950   33.0350 C   0  0  0  0  0  0  0  0  0  0  0  0
   40.6880   23.7270   32.9140 C   0  0  0  0  0  0  0  0  0  0  0  0
   40.6390   23.0210   31.7440 C   0  0  0  0  0  0  0  0  0  0  0  0
   40.5830   23.7270   30.5560 C   0  0  0  0  0  0  0  0  0  0  0  0
   40.5780   25.0910   30.6450 C   0  0  0  0  0  0  0  0  0  0  0  0
   40.6270   25.6870   31.8230 N   0  0  0  0  0  0  0  0  0  0  0  0
   40.5200   25.9160   29.4400 C   0  0  0  0  0  0  0  0  0  0  0  0
   41.4550   26.8150   28.9890 C   0  0  0  0  0  0  0  0  0  0  0  0
   40.9910   27.3460   27.8450 N   0  0  0  0  0  0  0  0  0  0  0  0
   39.7770   26.8030   27.5560 C   0  0  0  0  0  0  0  0  0  0  0  0
   39.4910   25.9150   28.5530 N   0  0  0  0  0  0  0  0  0  0  0  0
   38.4103   24.6641   34.2758 H   0  0  0  0  0  0  0  0  0  0  0  0
   36.4007   25.5569   34.5205 H   0  0  0  0  0  0  0  0  0  0  0  0
   36.8105   26.4425   35.9914 H   0  0  0  0  0  0  0  0  0  0  0  0
   36.9688   27.3270   33.1879 H   0  0  0  0  0  0  0  0  0  0  0  0
   37.2001   28.3066   34.6570 H   0  0  0  0  0  0  0  0  0  0  0  0
   39.2391   27.0215   32.8822 H   0  0  0  0  0  0  0  0  0  0  0  0
   39.4531   28.3848   33.9732 H   0  0  0  0  0  0  0  0  0  0  0  0
   39.8432   26.9342   35.8583 H   0  0  0  0  0  0  0  0  0  0  0  0
   40.2564   21.9693   37.4244 H   0  0  0  0  0  0  0  0  0  0  0  0
   39.0624   22.6244   39.5508 H   0  0  0  0  0  0  0  0  0  0  0  0
   37.5254   24.6597   39.5525 H   0  0  0  0  0  0  0  0  0  0  0  0
   40.7359   23.1445   33.8459 H   0  0  0  0  0  0  0  0  0  0  0  0
   40.6440   21.9210   31.7475 H   0  0  0  0  0  0  0  0  0  0  0  0
   40.5442   23.2141   29.5837 H   0  0  0  0  0  0  0  0  0  0  0  0
   42.4111   27.0568   29.4762 H   0  0  0  0  0  0  0  0  0  0  0  0
   39.1464   27.0352   26.6852 H   0  0  0  0  0  0  0  0  0  0  0  0
   38.6385   25.3410   28.6211 H   0  0  0  0  0  0  0  0  0  0  0  0
  1 10  1  0
  2  1  1  0
  3  2  1  0
  4  3  1  0
  4  5  1  0
  5  1  1  0
  6  7  2  0
  7  8  1  0
  9  8  2  0
 10  9  1  0
 11 10  2  0
 11  6  1  0
 12  5  1  0
 12 13  2  0
 14 12  1  0
 15 14  2  0
 16 15  1  0
 17 18  1  0
 17 16  2  0
 18 19  2  0
 19 14  1  0
 20 18  1  0
 21 20  2  0
 22 21  1  0
 23 22  2  0
 23 24  1  0
 24 20  1  0
  1 25  1  6
  2 26  1  0
  2 27  1  0
  3 28  1  0
  3 29  1  0
  4 30  1  0
  4 31  1  0
  5 32  1  1
  6 33  1  0
  7 34  1  0
  8 35  1  0
 15 36  1  0
 16 37  1  0
 17 38  1  0
 21 39  1  0
 23 40  1  0
 24 41  1  0
M  ISO  8  25  13  26  13  27  13  28  13  29  13  30  13  31  13  32  13
M  ISO  8  33  14  34  14  35  14  36  14  37  14  38  14  39  14  40  14
M  ISO  1  41   9
M  END
>  <minimizedAffinity>  (1) 
-4.52168274

>  <minimizedRMSD>  (1) 
1.22222209

$$$$
