
     RDKit          3D

 36 38  0  0  1  0  0  0  0  0999 V2000
   38.7320   25.2710   34.8670 C   0  0  1  0  0  0  0  0  0  0  0  0
   37.4980   25.9570   34.5830 C   0  0  0  0  0  0  0  0  0  0  0  0
   37.8950   27.1390   33.7100 C   0  0  0  0  0  0  0  0  0  0  0  0
   39.4170   27.1860   33.6720 C   0  0  0  0  0  0  0  0  0  0  0  0
   39.8390   26.3310   34.8080 C   0  0  2  0  0  0  0  0  0  0  0  0
   39.6050   22.8360   37.4890 C   0  0  0  0  0  0  0  0  0  0  0  0
   38.8090   23.2810   38.5940 C   0  0  0  0  0  0  0  0  0  0  0  0
   37.9750   24.4110   38.4420 C   0  0  0  0  0  0  0  0  0  0  0  0
   38.0120   24.9860   37.2130 N   0  0  0  0  0  0  0  0  0  0  0  0
   38.7750   24.5400   36.1880 C   0  0  0  0  0  0  0  0  0  0  0  0
   39.5750   23.4660   36.3150 N   0  0  0  0  0  0  0  0  0  0  0  0
   41.1090   25.6540   34.4410 C   0  0  0  0  0  0  0  0  0  0  0  0
   42.0870   25.6290   35.1950 O   0  0  0  0  0  0  0  0  0  0  0  0
   41.2840   24.9720   33.1610 C   0  0  0  0  0  0  0  0  0  0  0  0
   41.0820   23.6190   33.0350 C   0  0  0  0  0  0  0  0  0  0  0  0
   41.2120   22.8880   31.8850 C   0  0  0  0  0  0  0  0  0  0  0  0
   41.5810   23.5520   30.7310 C   0  0  0  0  0  0  0  0  0  0  0  0
   41.7920   24.8990   30.8250 C   0  0  0  0  0  0  0  0  0  0  0  0
   41.6410   25.5230   31.9820 N   0  0  0  0  0  0  0  0  0  0  0  0
   42.1850   25.6640   29.6460 C   0  0  0  0  0  0  0  0  0  0  0  0
   41.3870   26.4800   29.1140 O   0  0  0  0  0  0  0  0  0  0  0  0
   38.8566   24.4726   34.1206 H   0  0  0  0  0  0  0  0  0  0  0  0
   36.8031   25.2955   34.0450 H   0  0  0  0  0  0  0  0  0  0  0  0
   36.9827   26.2764   35.5008 H   0  0  0  0  0  0  0  0  0  0  0  0
   37.4974   27.0057   32.6931 H   0  0  0  0  0  0  0  0  0  0  0  0
   37.4874   28.0764   34.1165 H   0  0  0  0  0  0  0  0  0  0  0  0
   39.7955   26.7844   32.7205 H   0  0  0  0  0  0  0  0  0  0  0  0
   39.8077   28.2113   33.7501 H   0  0  0  0  0  0  0  0  0  0  0  0
   39.9850   26.8817   35.7489 H   0  0  0  0  0  0  0  0  0  0  0  0
   40.2541   21.9565   37.6121 H   0  0  0  0  0  0  0  0  0  0  0  0
   38.8470   22.7462   39.5545 H   0  0  0  0  0  0  0  0  0  0  0  0
   37.3441   24.7954   39.2570 H   0  0  0  0  0  0  0  0  0  0  0  0
   40.7884   23.0720   33.9430 H   0  0  0  0  0  0  0  0  0  0  0  0
   41.0280   21.8035   31.8798 H   0  0  0  0  0  0  0  0  0  0  0  0
   41.7000   23.0187   29.7763 H   0  0  0  0  0  0  0  0  0  0  0  0
   43.1888   25.5264   29.2176 H   0  0  0  0  0  0  0  0  0  0  0  0
  1 10  1  0
  2  1  1  0
  3  2  1  0
  4  3  1  0
  4  5  1  0
  5  1  1  0
  6  7  2  0
  8  7  1  0
  9  8  2  0
 10 11  2  0
 10  9  1  0
 11  6  1  0
 12  5  1  0
 12 13  2  0
 14 12  1  0
 15 14  2  0
 16 15  1  0
 17 18  1  0
 17 16  2  0
 18 19  2  0
 19 14  1  0
 20 18  1  0
 21 20  2  0
  1 22  1  6
  2 23  1  0
  2 24  1  0
  3 25  1  0
  3 26  1  0
  4 27  1  0
  4 28  1  0
  5 29  1  1
  6 30  1  0
  7 31  1  0
  8 32  1  0
 15 33  1  0
 16 34  1  0
 17 35  1  0
 20 36  1  0
M  ISO  8  22  13  23  13  24  13  25  13  26  13  27  13  28  13  29  13
M  ISO  7  30  14  31  14  32  14  33  14  34  14  35  14  36   6
M  END
>  <minimizedAffinity>  (1) 
-3.9903338

>  <minimizedRMSD>  (1) 
0.109628074

$$$$
