
     RDKit          3D

 29 31  0  0  0  0  0  0  0  0999 V2000
   37.3610   22.3210   33.5020 C   0  0  0  0  0  0  0  0  0  0  0  0
   36.8730   21.1130   33.0790 C   0  0  0  0  0  0  0  0  0  0  0  0
   36.0330   20.9320   32.0050 C   0  0  0  0  0  0  0  0  0  0  0  0
   35.6310   22.0120   31.2760 C   0  0  0  0  0  0  0  0  0  0  0  0
   36.0820   23.2450   31.6450 C   0  0  0  0  0  0  0  0  0  0  0  0
   35.6660   24.3380   30.8970 C   0  0  0  0  0  0  0  0  0  0  0  0
   36.0730   25.6010   31.2020 C   0  0  0  0  0  0  0  0  0  0  0  0
   36.9230   25.7530   32.2960 C   0  0  0  0  0  0  0  0  0  0  0  0
   37.3140   24.6460   33.0130 C   0  0  0  0  0  0  0  0  0  0  0  0
   36.9170   23.3710   32.7230 C   0  0  0  0  0  0  0  0  0  0  0  0
   40.4830   22.1830   35.2660 C   0  0  0  0  0  0  0  0  0  0  0  0
   40.2500   22.5590   36.5810 C   0  0  0  0  0  0  0  0  0  0  0  0
   38.9430   22.8780   36.8800 C   0  0  0  0  0  0  0  0  0  0  0  0
   38.0240   22.8030   35.9000 N   0  0  0  0  0  0  0  0  0  0  0  0
   38.2420   22.4450   34.6430 C   0  0  0  0  0  0  0  0  0  0  0  0
   39.4980   22.1420   34.3770 N   0  0  0  0  0  0  0  0  0  0  0  0
   38.4360   23.3020   38.1840 C   0  0  0  0  0  0  0  0  0  0  0  0
   38.0280   24.4560   38.4520 O   0  0  0  0  0  0  0  0  0  0  0  0
   38.3480   22.4630   39.2830 O   0  0  0  0  0  0  0  0  0  0  0  0
   37.1765   20.2181   33.6420 H   0  0  0  0  0  0  0  0  0  0  0  0
   35.6878   19.9228   31.7360 H   0  0  0  0  0  0  0  0  0  0  0  0
   34.9602   21.8918   30.4125 H   0  0  0  0  0  0  0  0  0  0  0  0
   34.9939   24.1805   30.0405 H   0  0  0  0  0  0  0  0  0  0  0  0
   35.7441   26.4669   30.6086 H   0  0  0  0  0  0  0  0  0  0  0  0
   37.2793   26.7529   32.5846 H   0  0  0  0  0  0  0  0  0  0  0  0
   37.9862   24.7961   33.8707 H   0  0  0  0  0  0  0  0  0  0  0  0
   41.5030   21.9138   34.9542 H   0  0  0  0  0  0  0  0  0  0  0  0
   41.0523   22.5997   37.3324 H   0  0  0  0  0  0  0  0  0  0  0  0
   37.9957   22.8074   40.1417 H   0  0  0  0  0  0  0  0  0  0  0  0
  1 15  1  0
  2  1  2  0
  3  2  1  0
  4  5  1  0
  4  3  2  0
  5 10  2  0
  6  7  2  0
  6  5  1  0
  7  8  1  0
  8  9  2  0
 10  9  1  0
 10  1  1  0
 11 12  2  0
 12 13  1  0
 13 17  1  0
 14 13  2  0
 15 14  1  0
 16 15  2  0
 16 11  1  0
 17 18  2  0
 17 19  1  0
  2 20  1  0
  3 21  1  0
  4 22  1  0
  6 23  1  0
  7 24  1  0
  8 25  1  0
  9 26  1  0
 11 27  1  0
 12 28  1  0
 19 29  1  0
M  ISO  8  20  14  21  14  22  14  23  14  24  14  25  14  26  14  27  14
M  ISO  2  28  14  29   3
M  END
>  <minimizedAffinity>  (1) 
-5.55637836

>  <minimizedRMSD>  (1) 
1.50890839

$$$$
