
     RDKit          3D

 47 50  0  0  1  0  0  0  0  0999 V2000
   38.1070   25.3260   35.0970 C   0  0  1  0  0  0  0  0  0  0  0  0
   37.1570   26.3850   35.2010 C   0  0  0  0  0  0  0  0  0  0  0  0
   37.5540   27.3680   34.0950 C   0  0  0  0  0  0  0  0  0  0  0  0
   38.8540   26.8670   33.4810 C   0  0  0  0  0  0  0  0  0  0  0  0
   39.3910   25.9050   34.4980 C   0  0  2  0  0  0  0  0  0  0  0  0
   39.5000   22.9230   37.5250 C   0  0  0  0  0  0  0  0  0  0  0  0
   38.9060   23.3670   38.7550 C   0  0  0  0  0  0  0  0  0  0  0  0
   38.0390   24.4710   38.7490 C   0  0  0  0  0  0  0  0  0  0  0  0
   37.8410   25.0340   37.5310 N   0  0  0  0  0  0  0  0  0  0  0  0
   38.4140   24.5920   36.3890 C   0  0  0  0  0  0  0  0  0  0  0  0
   39.2410   23.5430   36.3760 N   0  0  0  0  0  0  0  0  0  0  0  0
   40.1100   24.8150   33.7760 C   0  0  0  0  0  0  0  0  0  0  0  0
   41.3330   24.7960   33.6560 O   0  0  0  0  0  0  0  0  0  0  0  0
   39.3910   23.6940   33.1600 C   0  0  0  0  0  0  0  0  0  0  0  0
   40.0110   22.4680   32.9670 C   0  0  0  0  0  0  0  0  0  0  0  0
   39.4300   21.3550   32.4210 C   0  0  0  0  0  0  0  0  0  0  0  0
   38.1100   21.4530   32.0210 C   0  0  0  0  0  0  0  0  0  0  0  0
   37.4830   22.6450   32.2000 C   0  0  0  0  0  0  0  0  0  0  0  0
   38.1120   23.6790   32.7360 N   0  0  0  0  0  0  0  0  0  0  0  0
   37.5340   20.2710   31.4210 C   0  0  0  0  0  0  0  0  0  0  0  0
   36.7490   19.2490   31.8820 C   0  0  0  0  0  0  0  0  0  0  0  0
   36.3820   18.2060   31.0590 C   0  0  0  0  0  0  0  0  0  0  0  0
   36.7740   18.1250   29.7450 C   0  0  0  0  0  0  0  0  0  0  0  0
   37.5660   19.1430   29.2570 C   0  0  0  0  0  0  0  0  0  0  0  0
   37.9420   20.2000   30.0790 C   0  0  0  0  0  0  0  0  0  0  0  0
   36.0720   22.8950   31.8420 C   0  0  0  0  0  0  0  0  0  0  0  0
   35.1890   22.1160   32.6050 F   0  0  0  0  0  0  0  0  0  0  0  0
   35.7050   24.2070   32.1160 F   0  0  0  0  0  0  0  0  0  0  0  0
   35.8400   22.5520   30.5340 F   0  0  0  0  0  0  0  0  0  0  0  0
   37.6541   24.5573   34.4536 H   0  0  0  0  0  0  0  0  0  0  0  0
   36.1362   26.0087   35.0385 H   0  0  0  0  0  0  0  0  0  0  0  0
   37.1600   26.8527   36.1966 H   0  0  0  0  0  0  0  0  0  0  0  0
   36.7670   27.4073   33.3275 H   0  0  0  0  0  0  0  0  0  0  0  0
   37.6847   28.3802   34.5054 H   0  0  0  0  0  0  0  0  0  0  0  0
   38.6636   26.3583   32.5244 H   0  0  0  0  0  0  0  0  0  0  0  0
   39.5577   27.6825   33.2579 H   0  0  0  0  0  0  0  0  0  0  0  0
   40.0747   26.3516   35.2349 H   0  0  0  0  0  0  0  0  0  0  0  0
   40.1791   22.0577   37.5326 H   0  0  0  0  0  0  0  0  0  0  0  0
   39.1293   22.8446   39.6969 H   0  0  0  0  0  0  0  0  0  0  0  0
   37.5571   24.8504   39.6621 H   0  0  0  0  0  0  0  0  0  0  0  0
   41.0620   22.3826   33.2803 H   0  0  0  0  0  0  0  0  0  0  0  0
   39.9927   20.4170   32.3048 H   0  0  0  0  0  0  0  0  0  0  0  0
   36.4052   19.2602   32.9268 H   0  0  0  0  0  0  0  0  0  0  0  0
   35.7495   17.4060   31.4712 H   0  0  0  0  0  0  0  0  0  0  0  0
   36.4685   17.2821   29.1077 H   0  0  0  0  0  0  0  0  0  0  0  0
   37.9028   19.1188   28.2101 H   0  0  0  0  0  0  0  0  0  0  0  0
   38.5747   21.0004   29.6678 H   0  0  0  0  0  0  0  0  0  0  0  0
  1  2  1  0
  1 10  1  0
  3  2  1  0
  4  3  1  0
  4  5  1  0
  5  1  1  0
  6  7  2  0
  8  7  1  0
  9  8  2  0
 10  9  1  0
 11 10  2  0
 11  6  1  0
 12  5  1  0
 13 12  2  0
 14 12  1  0
 15 14  2  0
 16 15  1  0
 17 18  1  0
 17 16  2  0
 18 19  2  0
 19 14  1  0
 20 21  2  0
 20 17  1  0
 22 21  1  0
 23 22  2  0
 24 23  1  0
 24 25  2  0
 25 20  1  0
 26 28  1  0
 26 18  1  0
 26 27  1  0
 29 26  1  0
  1 30  1  6
  2 31  1  0
  2 32  1  0
  3 33  1  0
  3 34  1  0
  4 35  1  0
  4 36  1  0
  5 37  1  1
  6 38  1  0
  7 39  1  0
  8 40  1  0
 15 41  1  0
 16 42  1  0
 21 43  1  0
 22 44  1  0
 23 45  1  0
 24 46  1  0
 25 47  1  0
M  ISO  8  30  13  31  13  32  13  33  13  34  13  35  13  36  13  37  13
M  ISO  8  38  14  39  14  40  14  41  14  42  14  43  14  44  14  45  14
M  ISO  2  46  14  47  14
M  END
>  <minimizedAffinity>  (1) 
-5.681077

>  <minimizedRMSD>  (1) 
2.23942518

$$$$
