
     RDKit          3D

 50 53  0  0  1  0  0  0  0  0999 V2000
   40.6590   24.8540   34.2350 C   0  0  0  0  0  0  0  0  0  0  0  0
   41.8670   24.7010   34.3670 O   0  0  0  0  0  0  0  0  0  0  0  0
   38.5280   25.4170   35.3150 C   0  0  1  0  0  0  0  0  0  0  0  0
   37.6230   26.5210   35.3390 C   0  0  0  0  0  0  0  0  0  0  0  0
   38.2010   27.5160   34.3280 C   0  0  0  0  0  0  0  0  0  0  0  0
   39.5470   26.9690   33.8630 C   0  0  0  0  0  0  0  0  0  0  0  0
   39.9020   25.9530   34.9040 C   0  0  2  0  0  0  0  0  0  0  0  0
   39.5070   22.8780   37.8020 C   0  0  0  0  0  0  0  0  0  0  0  0
   38.7660   23.2960   38.9610 C   0  0  0  0  0  0  0  0  0  0  0  0
   37.9350   24.4400   38.8840 C   0  0  0  0  0  0  0  0  0  0  0  0
   37.9220   25.0480   37.6780 N   0  0  0  0  0  0  0  0  0  0  0  0
   38.6360   24.6220   36.6010 C   0  0  0  0  0  0  0  0  0  0  0  0
   39.4240   23.5480   36.6560 N   0  0  0  0  0  0  0  0  0  0  0  0
   39.9840   23.8780   33.3670 C   0  0  0  0  0  0  0  0  0  0  0  0
   40.1830   22.5240   33.5480 C   0  0  0  0  0  0  0  0  0  0  0  0
   39.6060   21.5300   32.8100 C   0  0  0  0  0  0  0  0  0  0  0  0
   38.7440   21.8900   31.7910 C   0  0  0  0  0  0  0  0  0  0  0  0
   38.5350   23.2180   31.5960 C   0  0  0  0  0  0  0  0  0  0  0  0
   39.1330   24.1200   32.3540 N   0  0  0  0  0  0  0  0  0  0  0  0
   38.0760   20.9690   30.9480 N   0  0  0  0  0  0  0  0  0  0  0  0
   38.7400   20.6790   29.7990 C   0  0  0  0  0  0  0  0  0  0  0  0
   38.2170   19.8080   28.8930 C   0  0  0  0  0  0  0  0  0  0  0  0
   38.9270   19.4700   27.6200 C   0  0  0  0  0  0  0  0  0  0  0  0
   36.9840   19.2090   29.1480 C   0  0  0  0  0  0  0  0  0  0  0  0
   36.4600   18.3930   28.3330 O   0  0  0  0  0  0  0  0  0  0  0  0
   36.3510   19.5230   30.3050 N   0  0  0  0  0  0  0  0  0  0  0  0
   36.8850   20.3920   31.1980 C   0  0  0  0  0  0  0  0  0  0  0  0
   36.3160   20.7000   32.2800 O   0  0  0  0  0  0  0  0  0  0  0  0
   37.6450   23.7930   30.5540 C   0  0  0  0  0  0  0  0  0  0  0  0
   36.3830   23.1880   30.5700 F   0  0  0  0  0  0  0  0  0  0  0  0
   37.4060   25.1360   30.7640 F   0  0  0  0  0  0  0  0  0  0  0  0
   38.1810   23.5160   29.3060 F   0  0  0  0  0  0  0  0  0  0  0  0
   38.1230   24.6926   34.5931 H   0  0  0  0  0  0  0  0  0  0  0  0
   36.6141   26.2028   35.0375 H   0  0  0  0  0  0  0  0  0  0  0  0
   37.5236   26.9573   36.3439 H   0  0  0  0  0  0  0  0  0  0  0  0
   37.5203   27.6174   33.4699 H   0  0  0  0  0  0  0  0  0  0  0  0
   38.3242   28.5076   34.7880 H   0  0  0  0  0  0  0  0  0  0  0  0
   39.4574   26.4994   32.8723 H   0  0  0  0  0  0  0  0  0  0  0  0
   40.3106   27.7539   33.7585 H   0  0  0  0  0  0  0  0  0  0  0  0
   40.5015   26.3426   35.7400 H   0  0  0  0  0  0  0  0  0  0  0  0
   40.1530   21.9898   37.8640 H   0  0  0  0  0  0  0  0  0  0  0  0
   38.8441   22.7308   39.9015 H   0  0  0  0  0  0  0  0  0  0  0  0
   37.3466   24.8047   39.7388 H   0  0  0  0  0  0  0  0  0  0  0  0
   40.8647   22.2195   34.3558 H   0  0  0  0  0  0  0  0  0  0  0  0
   39.8213   20.4721   33.0207 H   0  0  0  0  0  0  0  0  0  0  0  0
   39.7118   21.1536   29.5983 H   0  0  0  0  0  0  0  0  0  0  0  0
   39.8976   19.0079   27.8531 H   0  0  0  0  0  0  0  0  0  0  0  0
   38.3166   18.7659   27.0355 H   0  0  0  0  0  0  0  0  0  0  0  0
   39.0887   20.3877   27.0355 H   0  0  0  0  0  0  0  0  0  0  0  0
   35.4397   19.0896   30.5111 H   0  0  0  0  0  0  0  0  0  0  0  0
  1  2  2  0
  1  7  1  0
  3  4  1  0
  3 12  1  0
  5  4  1  0
  6  5  1  0
  6  7  1  0
  7  3  1  0
  8  9  2  0
 10  9  1  0
 11 10  2  0
 12 13  2  0
 12 11  1  0
 13  8  1  0
 14 15  2  0
 14  1  1  0
 16 15  1  0
 17 16  2  0
 18 17  1  0
 18 19  2  0
 19 14  1  0
 20 27  1  0
 20 17  1  0
 21 20  1  0
 22 24  1  0
 22 21  2  0
 23 22  1  0
 24 26  1  0
 25 24  2  0
 26 27  1  0
 27 28  2  0
 29 30  1  0
 29 31  1  0
 29 18  1  0
 32 29  1  0
  3 33  1  6
  4 34  1  0
  4 35  1  0
  5 36  1  0
  5 37  1  0
  6 38  1  0
  6 39  1  0
  7 40  1  1
  8 41  1  0
  9 42  1  0
 10 43  1  0
 15 44  1  0
 16 45  1  0
 21 46  1  0
 23 47  1  0
 23 48  1  0
 23 49  1  0
 26 50  1  0
M  ISO  8  33  13  34  13  35  13  36  13  37  13  38  13  39  13  40  13
M  ISO  8  41  14  42  14  43  14  44  14  45  14  46  14  47   8  48   8
M  ISO  2  49   8  50   9
M  END
>  <minimizedAffinity>  (1) 
-5.58886814

>  <minimizedRMSD>  (1) 
1.55365896

$$$$
