
     RDKit          3D

 48 52  0  0  1  0  0  0  0  0999 V2000
   40.7000   25.4270   34.2630 C   0  0  0  0  0  0  0  0  0  0  0  0
   41.8810   25.4740   34.5850 O   0  0  0  0  0  0  0  0  0  0  0  0
   38.4170   25.4150   35.1660 C   0  0  1  0  0  0  0  0  0  0  0  0
   37.2750   26.2700   35.1430 C   0  0  0  0  0  0  0  0  0  0  0  0
   37.6800   27.4310   34.2290 C   0  0  0  0  0  0  0  0  0  0  0  0
   39.1450   27.2380   33.8590 C   0  0  0  0  0  0  0  0  0  0  0  0
   39.6530   26.2820   34.8950 C   0  0  2  0  0  0  0  0  0  0  0  0
   39.5900   22.8640   37.5550 C   0  0  0  0  0  0  0  0  0  0  0  0
   38.8940   23.2390   38.7550 C   0  0  0  0  0  0  0  0  0  0  0  0
   38.0270   24.3600   38.7410 C   0  0  0  0  0  0  0  0  0  0  0  0
   37.9360   24.9890   37.5480 N   0  0  0  0  0  0  0  0  0  0  0  0
   38.6110   24.6040   36.4320 C   0  0  0  0  0  0  0  0  0  0  0  0
   39.4320   23.5520   36.4280 N   0  0  0  0  0  0  0  0  0  0  0  0
   40.3650   24.4690   33.1980 C   0  0  0  0  0  0  0  0  0  0  0  0
   40.9570   23.2180   33.1740 C   0  0  0  0  0  0  0  0  0  0  0  0
   40.7150   22.2500   32.2410 C   0  0  0  0  0  0  0  0  0  0  0  0
   39.8100   22.5180   31.2290 C   0  0  0  0  0  0  0  0  0  0  0  0
   39.2200   23.7460   31.2410 C   0  0  0  0  0  0  0  0  0  0  0  0
   39.5070   24.6300   32.1790 N   0  0  0  0  0  0  0  0  0  0  0  0
   39.4650   21.6020   30.1940 N   0  0  0  0  0  0  0  0  0  0  0  0
   40.0790   21.3980   29.0070 C   0  0  0  0  0  0  0  0  0  0  0  0
   39.4300   20.4340   28.3150 N   0  0  0  0  0  0  0  0  0  0  0  0
   38.3800   19.9970   29.0480 C   0  0  0  0  0  0  0  0  0  0  0  0
   37.3910   19.0490   28.8500 C   0  0  0  0  0  0  0  0  0  0  0  0
   36.4370   18.8090   29.7750 N   0  0  0  0  0  0  0  0  0  0  0  0
   36.5010   19.5550   30.9170 C   0  0  0  0  0  0  0  0  0  0  0  0
   37.4520   20.5000   31.1620 N   0  0  0  0  0  0  0  0  0  0  0  0
   38.4100   20.7350   30.2240 C   0  0  0  0  0  0  0  0  0  0  0  0
   38.2250   24.2150   30.2410 C   0  0  0  0  0  0  0  0  0  0  0  0
   37.0290   23.4960   30.3400 F   0  0  0  0  0  0  0  0  0  0  0  0
   37.8760   25.5350   30.4440 F   0  0  0  0  0  0  0  0  0  0  0  0
   38.7140   23.9640   28.9700 F   0  0  0  0  0  0  0  0  0  0  0  0
   38.2556   24.6534   34.3889 H   0  0  0  0  0  0  0  0  0  0  0  0
   36.4016   25.7405   34.7345 H   0  0  0  0  0  0  0  0  0  0  0  0
   36.9889   26.6111   36.1489 H   0  0  0  0  0  0  0  0  0  0  0  0
   37.0601   27.4266   33.3203 H   0  0  0  0  0  0  0  0  0  0  0  0
   37.5349   28.3938   34.7409 H   0  0  0  0  0  0  0  0  0  0  0  0
   39.2412   26.8100   32.8503 H   0  0  0  0  0  0  0  0  0  0  0  0
   39.7070   28.1834   33.8409 H   0  0  0  0  0  0  0  0  0  0  0  0
   40.0762   26.7597   35.7910 H   0  0  0  0  0  0  0  0  0  0  0  0
   40.2637   21.9946   37.5689 H   0  0  0  0  0  0  0  0  0  0  0  0
   39.0334   22.6592   39.6793 H   0  0  0  0  0  0  0  0  0  0  0  0
   37.4719   24.6920   39.6307 H   0  0  0  0  0  0  0  0  0  0  0  0
   41.6799   22.9848   33.9696 H   0  0  0  0  0  0  0  0  0  0  0  0
   41.2284   21.2785   32.2930 H   0  0  0  0  0  0  0  0  0  0  0  0
   40.9725   21.9354   28.6565 H   0  0  0  0  0  0  0  0  0  0  0  0
   37.3820   18.4745   27.9120 H   0  0  0  0  0  0  0  0  0  0  0  0
   35.7361   19.3822   31.6884 H   0  0  0  0  0  0  0  0  0  0  0  0
  1  2  2  0
  1  7  1  0
  3 12  1  0
  4  3  1  0
  5  4  1  0
  6  5  1  0
  6  7  1  0
  7  3  1  0
  8  9  2  0
 10  9  1  0
 11 10  2  0
 12 11  1  0
 13 12  2  0
 13  8  1  0
 14  1  1  0
 15 14  2  0
 16 15  1  0
 17 18  1  0
 17 16  2  0
 18 19  2  0
 19 14  1  0
 20 28  1  0
 20 17  1  0
 21 20  1  0
 22 21  2  0
 22 23  1  0
 23 28  2  0
 24 23  1  0
 24 25  2  0
 25 26  1  0
 26 27  2  0
 28 27  1  0
 29 30  1  0
 29 31  1  0
 29 18  1  0
 32 29  1  0
  3 33  1  6
  4 34  1  0
  4 35  1  0
  5 36  1  0
  5 37  1  0
  6 38  1  0
  6 39  1  0
  7 40  1  1
  8 41  1  0
  9 42  1  0
 10 43  1  0
 15 44  1  0
 16 45  1  0
 21 46  1  0
 24 47  1  0
 26 48  1  0
M  ISO  8  33  13  34  13  35  13  36  13  37  13  38  13  39  13  40  13
M  ISO  8  41  14  42  14  43  14  44  14  45  14  46  14  47  14  48  14
M  END
>  <minimizedAffinity>  (1) 
-5.42034912

>  <minimizedRMSD>  (1) 
0.267028064

$$$$
