
     RDKit          3D

 45 48  0  0  1  0  0  0  0  0999 V2000
   38.5380   25.4220   35.3150 C   0  0  1  0  0  0  0  0  0  0  0  0
   37.6260   26.5210   35.3440 C   0  0  0  0  0  0  0  0  0  0  0  0
   38.2120   27.5310   34.3500 C   0  0  0  0  0  0  0  0  0  0  0  0
   39.5620   26.9920   33.8920 C   0  0  0  0  0  0  0  0  0  0  0  0
   39.9130   25.9620   34.9170 C   0  0  2  0  0  0  0  0  0  0  0  0
   39.5100   22.8720   37.7970 C   0  0  0  0  0  0  0  0  0  0  0  0
   38.7600   23.2830   38.9550 C   0  0  0  0  0  0  0  0  0  0  0  0
   37.9350   24.4140   38.8750 C   0  0  0  0  0  0  0  0  0  0  0  0
   37.9260   25.0260   37.6790 N   0  0  0  0  0  0  0  0  0  0  0  0
   38.6390   24.6230   36.6040 C   0  0  0  0  0  0  0  0  0  0  0  0
   39.4320   23.5480   36.6540 N   0  0  0  0  0  0  0  0  0  0  0  0
   40.6760   24.8710   34.2440 C   0  0  0  0  0  0  0  0  0  0  0  0
   41.8840   24.7150   34.3920 O   0  0  0  0  0  0  0  0  0  0  0  0
   40.0180   23.9130   33.3540 C   0  0  0  0  0  0  0  0  0  0  0  0
   40.1770   22.5490   33.5350 C   0  0  0  0  0  0  0  0  0  0  0  0
   39.5900   21.5670   32.7790 C   0  0  0  0  0  0  0  0  0  0  0  0
   38.7620   21.9500   31.7420 C   0  0  0  0  0  0  0  0  0  0  0  0
   38.5910   23.2810   31.5400 C   0  0  0  0  0  0  0  0  0  0  0  0
   39.1940   24.1750   32.3140 N   0  0  0  0  0  0  0  0  0  0  0  0
   38.0880   20.9520   30.9170 C   0  0  0  0  0  0  0  0  0  0  0  0
   36.9140   20.4070   31.3840 C   0  0  0  0  0  0  0  0  0  0  0  0
   36.1540   19.4600   30.7500 C   0  0  0  0  0  0  0  0  0  0  0  0
   36.5930   19.0050   29.5400 N   0  0  0  0  0  0  0  0  0  0  0  0
   37.7570   19.5360   29.0660 C   0  0  0  0  0  0  0  0  0  0  0  0
   38.4240   20.4530   29.7570 N   0  0  0  0  0  0  0  0  0  0  0  0
   37.7550   23.8660   30.4760 C   0  0  0  0  0  0  0  0  0  0  0  0
   36.4610   23.3840   30.5120 F   0  0  0  0  0  0  0  0  0  0  0  0
   37.6380   25.2460   30.6180 F   0  0  0  0  0  0  0  0  0  0  0  0
   38.2860   23.5410   29.2310 F   0  0  0  0  0  0  0  0  0  0  0  0
   38.1441   24.7028   34.5818 H   0  0  0  0  0  0  0  0  0  0  0  0
   36.6219   26.2018   35.0278 H   0  0  0  0  0  0  0  0  0  0  0  0
   37.5122   26.9442   36.3529 H   0  0  0  0  0  0  0  0  0  0  0  0
   37.5394   27.6420   33.4867 H   0  0  0  0  0  0  0  0  0  0  0  0
   38.3287   28.5172   34.8230 H   0  0  0  0  0  0  0  0  0  0  0  0
   39.4821   26.5373   32.8936 H   0  0  0  0  0  0  0  0  0  0  0  0
   40.3243   27.7807   33.8093 H   0  0  0  0  0  0  0  0  0  0  0  0
   40.5105   26.3417   35.7590 H   0  0  0  0  0  0  0  0  0  0  0  0
   40.1577   21.9850   37.8583 H   0  0  0  0  0  0  0  0  0  0  0  0
   38.8334   22.7149   39.8941 H   0  0  0  0  0  0  0  0  0  0  0  0
   37.3398   24.7732   39.7275 H   0  0  0  0  0  0  0  0  0  0  0  0
   40.8317   22.2250   34.3575 H   0  0  0  0  0  0  0  0  0  0  0  0
   39.7735   20.5036   32.9925 H   0  0  0  0  0  0  0  0  0  0  0  0
   36.5515   20.7657   32.3586 H   0  0  0  0  0  0  0  0  0  0  0  0
   35.2245   19.0802   31.1991 H   0  0  0  0  0  0  0  0  0  0  0  0
   38.1494   19.1989   28.0953 H   0  0  0  0  0  0  0  0  0  0  0  0
  1  2  1  0
  1 10  1  0
  3  2  1  0
  4  3  1  0
  4  5  1  0
  5  1  1  0
  6  7  2  0
  8  7  1  0
  9  8  2  0
 10 11  2  0
 10  9  1  0
 11  6  1  0
 12 13  2  0
 12  5  1  0
 14 15  2  0
 14 12  1  0
 16 15  1  0
 17 16  2  0
 18 17  1  0
 18 19  2  0
 19 14  1  0
 20 21  2  0
 20 17  1  0
 22 21  1  0
 23 22  2  0
 24 23  1  0
 24 25  2  0
 25 20  1  0
 26 27  1  0
 26 28  1  0
 26 18  1  0
 29 26  1  0
  1 30  1  6
  2 31  1  0
  2 32  1  0
  3 33  1  0
  3 34  1  0
  4 35  1  0
  4 36  1  0
  5 37  1  1
  6 38  1  0
  7 39  1  0
  8 40  1  0
 15 41  1  0
 16 42  1  0
 21 43  1  0
 22 44  1  0
 24 45  1  0
M  ISO  8  30  13  31  13  32  13  33  13  34  13  35  13  36  13  37  13
M  ISO  8  38  14  39  14  40  14  41  14  42  14  43  14  44  14  45  14
M  END
>  <minimizedAffinity>  (1) 
-5.22831154

>  <minimizedRMSD>  (1) 
1.41481352

$$$$
