
     RDKit          3D

 46 48  0  0  1  0  0  0  0  0999 V2000
   38.3820   25.4190   35.1410 C   0  0  1  0  0  0  0  0  0  0  0  0
   37.2330   26.2640   35.1070 C   0  0  0  0  0  0  0  0  0  0  0  0
   37.6270   27.4210   34.1840 C   0  0  0  0  0  0  0  0  0  0  0  0
   39.0930   27.2310   33.8100 C   0  0  0  0  0  0  0  0  0  0  0  0
   39.6110   26.2930   34.8560 C   0  0  2  0  0  0  0  0  0  0  0  0
   39.5470   22.8850   37.5520 C   0  0  0  0  0  0  0  0  0  0  0  0
   38.8840   23.3020   38.7600 C   0  0  0  0  0  0  0  0  0  0  0  0
   38.0490   24.4340   38.7410 C   0  0  0  0  0  0  0  0  0  0  0  0
   37.9450   25.0450   37.5380 N   0  0  0  0  0  0  0  0  0  0  0  0
   38.5840   24.6250   36.4150 C   0  0  0  0  0  0  0  0  0  0  0  0
   39.3810   23.5550   36.4140 N   0  0  0  0  0  0  0  0  0  0  0  0
   40.6630   25.4400   34.2330 C   0  0  0  0  0  0  0  0  0  0  0  0
   41.8510   25.5290   34.5150 O   0  0  0  0  0  0  0  0  0  0  0  0
   40.3280   24.4230   33.2240 C   0  0  0  0  0  0  0  0  0  0  0  0
   40.9820   23.2080   33.2020 C   0  0  0  0  0  0  0  0  0  0  0  0
   40.7520   22.1920   32.3210 C   0  0  0  0  0  0  0  0  0  0  0  0
   39.7770   22.3750   31.3530 C   0  0  0  0  0  0  0  0  0  0  0  0
   39.1220   23.5640   31.3580 C   0  0  0  0  0  0  0  0  0  0  0  0
   39.4060   24.5010   32.2480 N   0  0  0  0  0  0  0  0  0  0  0  0
   38.0480   23.9400   30.4030 C   0  0  0  0  0  0  0  0  0  0  0  0
   36.9620   23.0580   30.4910 F   0  0  0  0  0  0  0  0  0  0  0  0
   37.5230   25.1860   30.6800 F   0  0  0  0  0  0  0  0  0  0  0  0
   38.5240   23.8210   29.1150 F   0  0  0  0  0  0  0  0  0  0  0  0
   39.4280   21.3600   30.3410 C   0  0  0  0  0  0  0  0  0  0  0  0
   37.9940   20.9470   30.5880 C   0  0  0  0  0  0  0  0  0  0  0  0
   39.5330   21.8930   28.9250 C   0  0  0  0  0  0  0  0  0  0  0  0
   38.2258   24.6454   34.3747 H   0  0  0  0  0  0  0  0  0  0  0  0
   36.3655   25.7227   34.7015 H   0  0  0  0  0  0  0  0  0  0  0  0
   36.9431   26.6121   36.1094 H   0  0  0  0  0  0  0  0  0  0  0  0
   37.0035   27.4074   33.2778 H   0  0  0  0  0  0  0  0  0  0  0  0
   37.4783   28.3869   34.6889 H   0  0  0  0  0  0  0  0  0  0  0  0
   39.1873   26.7897   32.8068 H   0  0  0  0  0  0  0  0  0  0  0  0
   39.6494   28.1793   33.7766 H   0  0  0  0  0  0  0  0  0  0  0  0
   40.0323   26.7851   35.7450 H   0  0  0  0  0  0  0  0  0  0  0  0
   40.2001   22.0000   37.5698 H   0  0  0  0  0  0  0  0  0  0  0  0
   39.0296   22.7382   39.6932 H   0  0  0  0  0  0  0  0  0  0  0  0
   37.5209   24.7950   39.6358 H   0  0  0  0  0  0  0  0  0  0  0  0
   41.7587   23.0439   33.9634 H   0  0  0  0  0  0  0  0  0  0  0  0
   41.3241   21.2542   32.3773 H   0  0  0  0  0  0  0  0  0  0  0  0
   40.1320   20.5198   30.4334 H   0  0  0  0  0  0  0  0  0  0  0  0
   37.8091   20.8938   31.6710 H   0  0  0  0  0  0  0  0  0  0  0  0
   37.3164   21.6865   30.1363 H   0  0  0  0  0  0  0  0  0  0  0  0
   37.8136   19.9604   30.1363 H   0  0  0  0  0  0  0  0  0  0  0  0
   39.7455   22.9719   28.9541 H   0  0  0  0  0  0  0  0  0  0  0  0
   40.3460   21.3733   28.3969 H   0  0  0  0  0  0  0  0  0  0  0  0
   38.5836   21.7204   28.3969 H   0  0  0  0  0  0  0  0  0  0  0  0
  1 10  1  0
  2  1  1  0
  3  2  1  0
  4  3  1  0
  4  5  1  0
  5  1  1  0
  6  7  2  0
  8  7  1  0
  9  8  2  0
 10  9  1  0
 11 10  2  0
 11  6  1  0
 12 13  2  0
 12  5  1  0
 14 12  1  0
 15 14  2  0
 16 15  1  0
 17 18  1  0
 17 16  2  0
 18 19  2  0
 19 14  1  0
 20 21  1  0
 20 22  1  0
 20 18  1  0
 23 20  1  0
 24 25  1  0
 24 17  1  0
 26 24  1  0
  1 27  1  6
  2 28  1  0
  2 29  1  0
  3 30  1  0
  3 31  1  0
  4 32  1  0
  4 33  1  0
  5 34  1  1
  6 35  1  0
  7 36  1  0
  8 37  1  0
 15 38  1  0
 16 39  1  0
 24 40  1  0
 25 41  1  0
 25 42  1  0
 25 43  1  0
 26 44  1  0
 26 45  1  0
 26 46  1  0
M  ISO  8  27  13  28  13  29  13  30  13  31  13  32  13  33  13  34  13
M  ISO  8  35  14  36  14  37  14  38  14  39  14  40   8  41   8  42   8
M  ISO  4  43   8  44   8  45   8  46   8
M  END
>  <minimizedAffinity>  (1) 
-4.73457479

>  <minimizedRMSD>  (1) 
0.251338184

$$$$
