
     RDKit          3D

 40 42  0  0  1  0  0  0  0  0999 V2000
   38.4050   25.4030   35.1840 C   0  0  1  0  0  0  0  0  0  0  0  0
   37.3050   26.3110   35.1590 C   0  0  0  0  0  0  0  0  0  0  0  0
   37.7450   27.4200   34.1980 C   0  0  0  0  0  0  0  0  0  0  0  0
   39.1910   27.1480   33.8160 C   0  0  0  0  0  0  0  0  0  0  0  0
   39.6760   26.2000   34.8690 C   0  0  2  0  0  0  0  0  0  0  0  0
   39.5120   22.8790   37.6370 C   0  0  0  0  0  0  0  0  0  0  0  0
   38.8430   23.3190   38.8350 C   0  0  0  0  0  0  0  0  0  0  0  0
   38.0220   24.4600   38.7920 C   0  0  0  0  0  0  0  0  0  0  0  0
   37.9460   25.0490   37.5840 N   0  0  0  0  0  0  0  0  0  0  0  0
   38.5830   24.6190   36.4740 C   0  0  0  0  0  0  0  0  0  0  0  0
   39.3690   23.5340   36.4900 N   0  0  0  0  0  0  0  0  0  0  0  0
   40.6680   25.2780   34.2420 C   0  0  0  0  0  0  0  0  0  0  0  0
   41.8600   25.2940   34.5220 O   0  0  0  0  0  0  0  0  0  0  0  0
   40.2650   24.2870   33.2390 C   0  0  0  0  0  0  0  0  0  0  0  0
   40.8100   23.0140   33.2490 C   0  0  0  0  0  0  0  0  0  0  0  0
   40.5050   22.0090   32.3770 C   0  0  0  0  0  0  0  0  0  0  0  0
   39.5620   22.2640   31.3760 C   0  0  0  0  0  0  0  0  0  0  0  0
   39.0230   23.5110   31.3580 C   0  0  0  0  0  0  0  0  0  0  0  0
   39.3720   24.4320   32.2410 N   0  0  0  0  0  0  0  0  0  0  0  0
   38.0090   23.9540   30.3790 C   0  0  0  0  0  0  0  0  0  0  0  0
   36.8230   23.2070   30.4870 F   0  0  0  0  0  0  0  0  0  0  0  0
   37.6150   25.2670   30.6070 F   0  0  0  0  0  0  0  0  0  0  0  0
   38.4610   23.7700   29.0950 F   0  0  0  0  0  0  0  0  0  0  0  0
   39.1800   21.2370   30.3890 C   0  0  0  0  0  0  0  0  0  0  0  0
   39.5960   21.7350   29.1380 F   0  0  0  0  0  0  0  0  0  0  0  0
   39.7780   20.0280   30.5420 F   0  0  0  0  0  0  0  0  0  0  0  0
   37.7860   21.1500   30.2160 F   0  0  0  0  0  0  0  0  0  0  0  0
   38.1938   24.6307   34.4297 H   0  0  0  0  0  0  0  0  0  0  0  0
   36.3975   25.8123   34.7879 H   0  0  0  0  0  0  0  0  0  0  0  0
   37.0587   26.6974   36.1590 H   0  0  0  0  0  0  0  0  0  0  0  0
   37.1112   27.4110   33.2990 H   0  0  0  0  0  0  0  0  0  0  0  0
   37.6499   28.4063   34.6757 H   0  0  0  0  0  0  0  0  0  0  0  0
   39.2513   26.6877   32.8188 H   0  0  0  0  0  0  0  0  0  0  0  0
   39.7939   28.0667   33.7656 H   0  0  0  0  0  0  0  0  0  0  0  0
   40.1408   26.6804   35.7426 H   0  0  0  0  0  0  0  0  0  0  0  0
   40.1522   21.9852   37.6728 H   0  0  0  0  0  0  0  0  0  0  0  0
   38.9736   22.7661   39.7769 H   0  0  0  0  0  0  0  0  0  0  0  0
   37.4855   24.8402   39.6738 H   0  0  0  0  0  0  0  0  0  0  0  0
   41.5543   22.7932   34.0283 H   0  0  0  0  0  0  0  0  0  0  0  0
   40.9883   21.0243   32.4594 H   0  0  0  0  0  0  0  0  0  0  0  0
  1 10  1  0
  2  1  1  0
  3  2  1  0
  4  3  1  0
  4  5  1  0
  5  1  1  0
  6  7  2  0
  8  7  1  0
  9  8  2  0
 10 11  2  0
 10  9  1  0
 11  6  1  0
 12 13  2  0
 12  5  1  0
 14 15  2  0
 14 12  1  0
 16 15  1  0
 17 16  2  0
 18 17  1  0
 18 19  2  0
 19 14  1  0
 20 21  1  0
 20 22  1  0
 20 18  1  0
 23 20  1  0
 24 26  1  0
 24 17  1  0
 25 24  1  0
 27 24  1  0
  1 28  1  6
  2 29  1  0
  2 30  1  0
  3 31  1  0
  3 32  1  0
  4 33  1  0
  4 34  1  0
  5 35  1  1
  6 36  1  0
  7 37  1  0
  8 38  1  0
 15 39  1  0
 16 40  1  0
M  ISO  8  28  13  29  13  30  13  31  13  32  13  33  13  34  13  35  13
M  ISO  5  36  14  37  14  38  14  39  14  40  14
M  END
>  <minimizedAffinity>  (1) 
-4.73262691

>  <minimizedRMSD>  (1) 
0.458805233

$$$$
