
     RDKit          3D

 40 42  0  0  1  0  0  0  0  0999 V2000
   38.4080   25.3990   35.1140 C   0  0  1  0  0  0  0  0  0  0  0  0
   37.2290   26.2000   35.0600 C   0  0  0  0  0  0  0  0  0  0  0  0
   37.5940   27.3680   34.1390 C   0  0  0  0  0  0  0  0  0  0  0  0
   39.0760   27.2490   33.8210 C   0  0  0  0  0  0  0  0  0  0  0  0
   39.6050   26.3210   34.8690 C   0  0  2  0  0  0  0  0  0  0  0  0
   39.5830   22.8670   37.5230 C   0  0  0  0  0  0  0  0  0  0  0  0
   38.8990   23.2700   38.7270 C   0  0  0  0  0  0  0  0  0  0  0  0
   38.0450   24.3960   38.7030 C   0  0  0  0  0  0  0  0  0  0  0  0
   37.9470   25.0080   37.5050 N   0  0  0  0  0  0  0  0  0  0  0  0
   38.6070   24.6000   36.3890 C   0  0  0  0  0  0  0  0  0  0  0  0
   39.4180   23.5410   36.3890 N   0  0  0  0  0  0  0  0  0  0  0  0
   40.7080   25.5170   34.2670 C   0  0  0  0  0  0  0  0  0  0  0  0
   41.8780   25.6330   34.6100 O   0  0  0  0  0  0  0  0  0  0  0  0
   40.4450   24.5270   33.2130 C   0  0  0  0  0  0  0  0  0  0  0  0
   41.1850   23.3650   33.1440 C   0  0  0  0  0  0  0  0  0  0  0  0
   41.0260   22.3750   32.2190 C   0  0  0  0  0  0  0  0  0  0  0  0
   40.0490   22.5250   31.2570 C   0  0  0  0  0  0  0  0  0  0  0  0
   39.3070   23.6670   31.3070 C   0  0  0  0  0  0  0  0  0  0  0  0
   39.5240   24.5790   32.2380 N   0  0  0  0  0  0  0  0  0  0  0  0
   38.2080   24.0110   30.3640 C   0  0  0  0  0  0  0  0  0  0  0  0
   37.1550   23.0960   30.4530 F   0  0  0  0  0  0  0  0  0  0  0  0
   37.6500   25.2410   30.6460 F   0  0  0  0  0  0  0  0  0  0  0  0
   38.6850   23.9200   29.0690 F   0  0  0  0  0  0  0  0  0  0  0  0
   39.7670   21.5410   30.2010 C   0  0  0  0  0  0  0  0  0  0  0  0
   38.3032   24.6275   34.3369 H   0  0  0  0  0  0  0  0  0  0  0  0
   36.3885   25.6255   34.6434 H   0  0  0  0  0  0  0  0  0  0  0  0
   36.9108   26.5397   36.0567 H   0  0  0  0  0  0  0  0  0  0  0  0
   37.0048   27.3141   33.2117 H   0  0  0  0  0  0  0  0  0  0  0  0
   37.3769   28.3300   34.6264 H   0  0  0  0  0  0  0  0  0  0  0  0
   39.2264   26.8282   32.8159 H   0  0  0  0  0  0  0  0  0  0  0  0
   39.5866   28.2233   33.8255 H   0  0  0  0  0  0  0  0  0  0  0  0
   39.9844   26.8201   35.7729 H   0  0  0  0  0  0  0  0  0  0  0  0
   40.2490   21.9918   37.5432 H   0  0  0  0  0  0  0  0  0  0  0  0
   39.0412   22.7039   39.6594 H   0  0  0  0  0  0  0  0  0  0  0  0
   37.5019   24.7464   39.5931 H   0  0  0  0  0  0  0  0  0  0  0  0
   41.9713   23.2245   33.9002 H   0  0  0  0  0  0  0  0  0  0  0  0
   41.6622   21.4779   32.2399 H   0  0  0  0  0  0  0  0  0  0  0  0
   39.4915   20.5798   30.6595 H   0  0  0  0  0  0  0  0  0  0  0  0
   38.9359   21.9010   29.5768 H   0  0  0  0  0  0  0  0  0  0  0  0
   40.6627   21.4062   29.5768 H   0  0  0  0  0  0  0  0  0  0  0  0
  1 10  1  0
  2  1  1  0
  3  2  1  0
  4  3  1  0
  4  5  1  0
  5  1  1  0
  6  7  2  0
  8  7  1  0
  9  8  2  0
 10  9  1  0
 11 10  2  0
 11  6  1  0
 12 13  2  0
 12  5  1  0
 14 12  1  0
 15 14  2  0
 16 15  1  0
 17 18  1  0
 17 16  2  0
 18 19  2  0
 19 14  1  0
 20 21  1  0
 20 22  1  0
 20 18  1  0
 23 20  1  0
 24 17  1  0
  1 25  1  6
  2 26  1  0
  2 27  1  0
  3 28  1  0
  3 29  1  0
  4 30  1  0
  4 31  1  0
  5 32  1  1
  6 33  1  0
  7 34  1  0
  8 35  1  0
 15 36  1  0
 16 37  1  0
 24 38  1  0
 24 39  1  0
 24 40  1  0
M  ISO  8  25  13  26  13  27  13  28  13  29  13  30  13  31  13  32  13
M  ISO  8  33  14  34  14  35  14  36  14  37  14  38   8  39   8  40   8
M  END
>  <minimizedAffinity>  (1) 
-4.67659569

>  <minimizedRMSD>  (1) 
0.0621116981

$$$$
