
     RDKit          3D

 38 40  0  0  1  0  0  0  0  0999 V2000
   38.4040   25.4080   35.1200 C   0  0  1  0  0  0  0  0  0  0  0  0
   37.2250   26.2100   35.0670 C   0  0  0  0  0  0  0  0  0  0  0  0
   37.5970   27.3860   34.1590 C   0  0  0  0  0  0  0  0  0  0  0  0
   39.0800   27.2590   33.8290 C   0  0  0  0  0  0  0  0  0  0  0  0
   39.6040   26.3280   34.8780 C   0  0  2  0  0  0  0  0  0  0  0  0
   39.5770   22.8750   37.5300 C   0  0  0  0  0  0  0  0  0  0  0  0
   38.9010   23.2630   38.7290 C   0  0  0  0  0  0  0  0  0  0  0  0
   38.0470   24.3800   38.7100 C   0  0  0  0  0  0  0  0  0  0  0  0
   37.9510   24.9950   37.5130 N   0  0  0  0  0  0  0  0  0  0  0  0
   38.6020   24.6080   36.3940 C   0  0  0  0  0  0  0  0  0  0  0  0
   39.4170   23.5480   36.3940 N   0  0  0  0  0  0  0  0  0  0  0  0
   40.7050   25.5220   34.2740 C   0  0  0  0  0  0  0  0  0  0  0  0
   41.8780   25.6300   34.6150 O   0  0  0  0  0  0  0  0  0  0  0  0
   40.4370   24.5340   33.2160 C   0  0  0  0  0  0  0  0  0  0  0  0
   41.1670   23.3600   33.1420 C   0  0  0  0  0  0  0  0  0  0  0  0
   41.0010   22.3730   32.2150 C   0  0  0  0  0  0  0  0  0  0  0  0
   40.0210   22.5390   31.2560 C   0  0  0  0  0  0  0  0  0  0  0  0
   39.2890   23.6870   31.3090 C   0  0  0  0  0  0  0  0  0  0  0  0
   39.5170   24.5960   32.2430 N   0  0  0  0  0  0  0  0  0  0  0  0
   38.1980   24.0370   30.3660 C   0  0  0  0  0  0  0  0  0  0  0  0
   37.1440   23.1220   30.4490 F   0  0  0  0  0  0  0  0  0  0  0  0
   37.6450   25.2670   30.6560 F   0  0  0  0  0  0  0  0  0  0  0  0
   38.6780   23.9380   29.0720 F   0  0  0  0  0  0  0  0  0  0  0  0
   39.6650   21.3490   29.9680 S   0  0  0  0  0  0  0  0  0  0  0  0
   38.2977   24.6392   34.3405 H   0  0  0  0  0  0  0  0  0  0  0  0
   36.3867   25.6400   34.6400 H   0  0  0  0  0  0  0  0  0  0  0  0
   36.9004   26.5403   36.0648 H   0  0  0  0  0  0  0  0  0  0  0  0
   37.0021   27.3495   33.2345 H   0  0  0  0  0  0  0  0  0  0  0  0
   37.3925   28.3430   34.6612 H   0  0  0  0  0  0  0  0  0  0  0  0
   39.2224   26.8358   32.8237 H   0  0  0  0  0  0  0  0  0  0  0  0
   39.5984   28.2292   33.8257 H   0  0  0  0  0  0  0  0  0  0  0  0
   39.9824   26.8243   35.7838 H   0  0  0  0  0  0  0  0  0  0  0  0
   40.2441   22.0006   37.5476 H   0  0  0  0  0  0  0  0  0  0  0  0
   39.0478   22.6926   39.6580 H   0  0  0  0  0  0  0  0  0  0  0  0
   37.5007   24.7249   39.6003 H   0  0  0  0  0  0  0  0  0  0  0  0
   41.9512   23.2096   33.8985 H   0  0  0  0  0  0  0  0  0  0  0  0
   41.6298   21.4706   32.2309 H   0  0  0  0  0  0  0  0  0  0  0  0
   39.3077   20.1546   30.5359 H   0  0  0  0  0  0  0  0  0  0  0  0
  1 10  1  0
  2  1  1  0
  3  2  1  0
  4  3  1  0
  4  5  1  0
  5  1  1  0
  6  7  2  0
  8  7  1  0
  9  8  2  0
 10  9  1  0
 11 10  2  0
 11  6  1  0
 12 13  2  0
 12  5  1  0
 14 12  1  0
 15 14  2  0
 16 15  1  0
 17 18  1  0
 17 16  2  0
 18 19  2  0
 19 14  1  0
 20 21  1  0
 20 22  1  0
 20 18  1  0
 23 20  1  0
 24 17  1  0
  1 25  1  6
  2 26  1  0
  2 27  1  0
  3 28  1  0
  3 29  1  0
  4 30  1  0
  4 31  1  0
  5 32  1  1
  6 33  1  0
  7 34  1  0
  8 35  1  0
 15 36  1  0
 16 37  1  0
 24 38  1  0
M  ISO  8  25  13  26  13  27  13  28  13  29  13  30  13  31  13  32  13
M  ISO  6  33  14  34  14  35  14  36  14  37  14  38  11
M  END
>  <minimizedAffinity>  (1) 
-4.67242289

>  <minimizedRMSD>  (1) 
0.0647803023

$$$$
