
     RDKit          3D

 39 41  0  0  1  0  0  0  0  0999 V2000
   38.4090   25.4030   35.1170 C   0  0  1  0  0  0  0  0  0  0  0  0
   37.2240   26.1960   35.0590 C   0  0  0  0  0  0  0  0  0  0  0  0
   37.5940   27.3790   34.1580 C   0  0  0  0  0  0  0  0  0  0  0  0
   39.0750   27.2530   33.8220 C   0  0  0  0  0  0  0  0  0  0  0  0
   39.6030   26.3270   34.8740 C   0  0  2  0  0  0  0  0  0  0  0  0
   39.5820   22.8680   37.5250 C   0  0  0  0  0  0  0  0  0  0  0  0
   38.8990   23.2670   38.7270 C   0  0  0  0  0  0  0  0  0  0  0  0
   38.0450   24.3920   38.7050 C   0  0  0  0  0  0  0  0  0  0  0  0
   37.9520   25.0060   37.5080 N   0  0  0  0  0  0  0  0  0  0  0  0
   38.6100   24.6040   36.3920 C   0  0  0  0  0  0  0  0  0  0  0  0
   39.4210   23.5450   36.3920 N   0  0  0  0  0  0  0  0  0  0  0  0
   40.7090   25.5240   34.2700 C   0  0  0  0  0  0  0  0  0  0  0  0
   41.8790   25.6440   34.6110 O   0  0  0  0  0  0  0  0  0  0  0  0
   40.4470   24.5330   33.2170 C   0  0  0  0  0  0  0  0  0  0  0  0
   41.1910   23.3690   33.1530 C   0  0  0  0  0  0  0  0  0  0  0  0
   41.0290   22.3800   32.2260 C   0  0  0  0  0  0  0  0  0  0  0  0
   40.0510   22.5300   31.2620 C   0  0  0  0  0  0  0  0  0  0  0  0
   39.3110   23.6720   31.3120 C   0  0  0  0  0  0  0  0  0  0  0  0
   39.5240   24.5890   32.2400 N   0  0  0  0  0  0  0  0  0  0  0  0
   38.2140   24.0130   30.3650 C   0  0  0  0  0  0  0  0  0  0  0  0
   37.1640   23.0900   30.4540 F   0  0  0  0  0  0  0  0  0  0  0  0
   37.6490   25.2390   30.6530 F   0  0  0  0  0  0  0  0  0  0  0  0
   38.6910   23.9160   29.0710 F   0  0  0  0  0  0  0  0  0  0  0  0
   39.7660   21.5880   30.2340 N   0  0  0  0  0  0  0  0  0  0  0  0
   38.3083   24.6326   34.3384 H   0  0  0  0  0  0  0  0  0  0  0  0
   36.3932   25.6214   34.6237 H   0  0  0  0  0  0  0  0  0  0  0  0
   36.8895   26.5195   36.0557 H   0  0  0  0  0  0  0  0  0  0  0  0
   36.9957   27.3499   33.2354 H   0  0  0  0  0  0  0  0  0  0  0  0
   37.3921   28.3325   34.6680 H   0  0  0  0  0  0  0  0  0  0  0  0
   39.2140   26.8254   32.8181 H   0  0  0  0  0  0  0  0  0  0  0  0
   39.5926   28.2235   33.8112 H   0  0  0  0  0  0  0  0  0  0  0  0
   39.9785   26.8268   35.7791 H   0  0  0  0  0  0  0  0  0  0  0  0
   40.2461   21.9913   37.5437 H   0  0  0  0  0  0  0  0  0  0  0  0
   39.0412   22.6989   39.6582 H   0  0  0  0  0  0  0  0  0  0  0  0
   37.4989   24.7398   39.5942 H   0  0  0  0  0  0  0  0  0  0  0  0
   41.9766   23.2287   33.9100 H   0  0  0  0  0  0  0  0  0  0  0  0
   41.6642   21.4821   32.2463 H   0  0  0  0  0  0  0  0  0  0  0  0
   40.3088   20.7150   30.1706 H   0  0  0  0  0  0  0  0  0  0  0  0
   39.0169   21.7793   29.5534 H   0  0  0  0  0  0  0  0  0  0  0  0
  1 10  1  0
  2  1  1  0
  3  2  1  0
  4  3  1  0
  4  5  1  0
  5  1  1  0
  6  7  2  0
  8  7  1  0
  9  8  2  0
 10  9  1  0
 11 10  2  0
 11  6  1  0
 12 13  2  0
 12  5  1  0
 14 12  1  0
 15 14  2  0
 16 15  1  0
 17 18  1  0
 17 16  2  0
 18 19  2  0
 19 14  1  0
 20 21  1  0
 20 22  1  0
 20 18  1  0
 23 20  1  0
 24 17  1  0
  1 25  1  6
  2 26  1  0
  2 27  1  0
  3 28  1  0
  3 29  1  0
  4 30  1  0
  4 31  1  0
  5 32  1  1
  6 33  1  0
  7 34  1  0
  8 35  1  0
 15 36  1  0
 16 37  1  0
 24 38  1  0
 24 39  1  0
M  ISO  8  25  13  26  13  27  13  28  13  29  13  30  13  31  13  32  13
M  ISO  5  33  14  34  14  35  14  36  14  37  14
M  END
>  <minimizedAffinity>  (1) 
-4.65121174

>  <minimizedRMSD>  (1) 
0.0627142936

$$$$
