
     RDKit          3D

 33 36  0  0  0  0  0  0  0  0999 V2000
   37.1390   21.8920   34.3870 C   0  0  0  0  0  0  0  0  0  0  0  0
   36.2230   20.8530   34.4640 C   0  0  0  0  0  0  0  0  0  0  0  0
   35.3100   20.5370   33.4880 C   0  0  0  0  0  0  0  0  0  0  0  0
   35.2640   21.2710   32.3420 C   0  0  0  0  0  0  0  0  0  0  0  0
   36.1340   22.3070   32.1970 C   0  0  0  0  0  0  0  0  0  0  0  0
   36.0770   23.0410   31.0300 C   0  0  0  0  0  0  0  0  0  0  0  0
   36.9230   24.0970   30.8150 C   0  0  0  0  0  0  0  0  0  0  0  0
   37.8410   24.4000   31.8190 C   0  0  0  0  0  0  0  0  0  0  0  0
   37.8620   23.6410   32.9620 C   0  0  0  0  0  0  0  0  0  0  0  0
   37.0370   22.5940   33.1970 C   0  0  0  0  0  0  0  0  0  0  0  0
   38.2140   23.3180   37.4920 C   0  0  0  0  0  0  0  0  0  0  0  0
   39.5530   22.9440   37.6900 C   0  0  0  0  0  0  0  0  0  0  0  0
   40.0900   22.1630   36.6920 C   0  0  0  0  0  0  0  0  0  0  0  0
   39.3310   21.8270   35.6440 N   0  0  0  0  0  0  0  0  0  0  0  0
   38.0710   22.1710   35.4450 C   0  0  0  0  0  0  0  0  0  0  0  0
   37.5630   22.9200   36.4060 N   0  0  0  0  0  0  0  0  0  0  0  0
   41.4710   21.6920   36.7490 C   0  0  0  0  0  0  0  0  0  0  0  0
   42.5300   22.2970   36.0910 C   0  0  0  0  0  0  0  0  0  0  0  0
   43.6240   21.5600   36.4000 N   0  0  0  0  0  0  0  0  0  0  0  0
   43.2020   20.5720   37.2050 C   0  0  0  0  0  0  0  0  0  0  0  0
   41.8780   20.6170   37.4460 N   0  0  0  0  0  0  0  0  0  0  0  0
   36.2284   20.2362   35.3748 H   0  0  0  0  0  0  0  0  0  0  0  0
   34.6183   19.6939   33.6315 H   0  0  0  0  0  0  0  0  0  0  0  0
   34.5389   21.0315   31.5503 H   0  0  0  0  0  0  0  0  0  0  0  0
   35.3395   22.7737   30.2589 H   0  0  0  0  0  0  0  0  0  0  0  0
   36.8794   24.6834   29.8854 H   0  0  0  0  0  0  0  0  0  0  0  0
   38.5416   25.2391   31.6964 H   0  0  0  0  0  0  0  0  0  0  0  0
   38.5973   23.9004   33.7379 H   0  0  0  0  0  0  0  0  0  0  0  0
   37.7030   23.9428   38.2393 H   0  0  0  0  0  0  0  0  0  0  0  0
   40.1288   23.2518   38.5753 H   0  0  0  0  0  0  0  0  0  0  0  0
   42.4905   23.1905   35.4505 H   0  0  0  0  0  0  0  0  0  0  0  0
   43.8692   19.8046   37.6246 H   0  0  0  0  0  0  0  0  0  0  0  0
   41.3126   19.9803   38.0255 H   0  0  0  0  0  0  0  0  0  0  0  0
  1  2  2  0
  1 15  1  0
  3  2  1  0
  4  3  2  0
  5  4  1  0
  5 10  2  0
  6  5  1  0
  7  6  2  0
  7  8  1  0
  8  9  2  0
  9 10  1  0
 10  1  1  0
 11 12  2  0
 13 17  1  0
 13 12  1  0
 14 13  2  0
 15 14  1  0
 15 16  2  0
 16 11  1  0
 17 21  1  0
 18 19  1  0
 18 17  2  0
 19 20  2  0
 20 21  1  0
  2 22  1  0
  3 23  1  0
  4 24  1  0
  6 25  1  0
  7 26  1  0
  8 27  1  0
  9 28  1  0
 11 29  1  0
 12 30  1  0
 18 31  1  0
 20 32  1  0
 21 33  1  0
M  ISO  8  22  14  23  14  24  14  25  14  26  14  27  14  28  14  29  14
M  ISO  4  30  14  31  14  32  14  33   9
M  END
>  <minimizedAffinity>  (1) 
-5.50540876

>  <minimizedRMSD>  (1) 
3.62126136

$$$$
