
     RDKit          3D

 31 33  0  0  0  0  0  0  0  0999 V2000
   37.1830   21.8500   35.0810 C   0  0  0  0  0  0  0  0  0  0  0  0
   36.1670   20.9150   35.2660 C   0  0  0  0  0  0  0  0  0  0  0  0
   35.4680   20.4880   34.1630 C   0  0  0  0  0  0  0  0  0  0  0  0
   35.7650   20.9670   32.9350 N   0  0  0  0  0  0  0  0  0  0  0  0
   36.7550   21.8760   32.7600 C   0  0  0  0  0  0  0  0  0  0  0  0
   37.4670   22.3190   33.8410 N   0  0  0  0  0  0  0  0  0  0  0  0
   37.1370   22.4350   31.5080 N   0  0  0  0  0  0  0  0  0  0  0  0
   37.9020   21.7240   30.5000 C   0  0  0  0  0  0  0  0  0  0  0  0
   39.1920   22.5370   30.3530 C   0  0  0  0  0  0  0  0  0  0  0  0
   38.8250   23.7160   29.7120 O   0  0  0  0  0  0  0  0  0  0  0  0
   37.9760   24.5040   30.4480 C   0  0  0  0  0  0  0  0  0  0  0  0
   36.8300   23.7590   31.0670 C   0  0  0  0  0  0  0  0  0  0  0  0
   39.9820   22.6610   37.3240 C   0  0  0  0  0  0  0  0  0  0  0  0
   39.3430   23.3500   38.3510 C   0  0  0  0  0  0  0  0  0  0  0  0
   37.9350   23.5330   38.2620 C   0  0  0  0  0  0  0  0  0  0  0  0
   37.3030   23.0140   37.1640 N   0  0  0  0  0  0  0  0  0  0  0  0
   37.9700   22.3530   36.1950 C   0  0  0  0  0  0  0  0  0  0  0  0
   39.2900   22.1820   36.2800 N   0  0  0  0  0  0  0  0  0  0  0  0
   35.9307   20.5289   36.2685 H   0  0  0  0  0  0  0  0  0  0  0  0
   34.6604   19.7505   34.2805 H   0  0  0  0  0  0  0  0  0  0  0  0
   38.1241   20.6990   30.8317 H   0  0  0  0  0  0  0  0  0  0  0  0
   37.3561   21.6303   29.5496 H   0  0  0  0  0  0  0  0  0  0  0  0
   39.6217   22.7560   31.3416 H   0  0  0  0  0  0  0  0  0  0  0  0
   39.9552   21.9866   29.7833 H   0  0  0  0  0  0  0  0  0  0  0  0
   38.5559   24.9773   31.2541 H   0  0  0  0  0  0  0  0  0  0  0  0
   37.5395   25.2357   29.7522 H   0  0  0  0  0  0  0  0  0  0  0  0
   36.4783   24.3349   31.9357 H   0  0  0  0  0  0  0  0  0  0  0  0
   36.0716   23.6515   30.2775 H   0  0  0  0  0  0  0  0  0  0  0  0
   41.0703   22.5073   37.3695 H   0  0  0  0  0  0  0  0  0  0  0  0
   39.9110   23.7421   39.2076 H   0  0  0  0  0  0  0  0  0  0  0  0
   37.3769   24.0696   39.0434 H   0  0  0  0  0  0  0  0  0  0  0  0
  1  2  2  0
  1 17  1  0
  3  2  1  0
  4  3  2  0
  5  4  1  0
  5  6  2  0
  6  1  1  0
  7  5  1  0
  8  7  1  0
  9  8  1  0
 10  9  1  0
 10 11  1  0
 11 12  1  0
 12  7  1  0
 13 14  2  0
 15 14  1  0
 16 15  2  0
 17 18  2  0
 17 16  1  0
 18 13  1  0
  2 19  1  0
  3 20  1  0
  8 21  1  0
  8 22  1  0
  9 23  1  0
  9 24  1  0
 11 25  1  0
 11 26  1  0
 12 27  1  0
 12 28  1  0
 13 29  1  0
 14 30  1  0
 15 31  1  0
M  ISO  8  19  14  20  14  21  13  22  13  23  13  24  13  25  13  26  13
M  ISO  5  27  13  28  13  29  14  30  14  31  14
M  END
>  <minimizedAffinity>  (1) 
-4.77268648

>  <minimizedRMSD>  (1) 
0.309339672

$$$$
