
     RDKit          3D

 34 36  0  0  0  0  0  0  0  0999 V2000
   37.2080   21.7770   34.9860 C   0  0  0  0  0  0  0  0  0  0  0  0
   36.1120   20.9340   35.1720 C   0  0  0  0  0  0  0  0  0  0  0  0
   35.4550   20.4880   34.0440 C   0  0  0  0  0  0  0  0  0  0  0  0
   35.8640   20.8590   32.7990 N   0  0  0  0  0  0  0  0  0  0  0  0
   36.9280   21.6770   32.6350 C   0  0  0  0  0  0  0  0  0  0  0  0
   37.6010   22.1370   33.7430 N   0  0  0  0  0  0  0  0  0  0  0  0
   39.9320   22.6850   37.2840 C   0  0  0  0  0  0  0  0  0  0  0  0
   39.2440   23.3400   38.3150 C   0  0  0  0  0  0  0  0  0  0  0  0
   37.8450   23.4540   38.1920 C   0  0  0  0  0  0  0  0  0  0  0  0
   37.2420   22.9240   37.0850 N   0  0  0  0  0  0  0  0  0  0  0  0
   37.9650   22.2990   36.1160 C   0  0  0  0  0  0  0  0  0  0  0  0
   39.2890   22.1750   36.2020 N   0  0  0  0  0  0  0  0  0  0  0  0
   37.3230   22.0440   31.2600 C   0  0  0  0  0  0  0  0  0  0  0  0
   37.7910   23.4710   31.2760 C   0  0  0  0  0  0  0  0  0  0  0  0
   38.4300   23.9280   30.0060 C   0  0  0  0  0  0  0  0  0  0  0  0
   39.5480   23.0170   29.6020 C   0  0  0  0  0  0  0  0  0  0  0  0
   39.0920   21.5660   29.5680 C   0  0  0  0  0  0  0  0  0  0  0  0
   38.5020   21.1490   30.8970 C   0  0  0  0  0  0  0  0  0  0  0  0
   35.7845   20.6365   36.1791 H   0  0  0  0  0  0  0  0  0  0  0  0
   34.5864   19.8217   34.1518 H   0  0  0  0  0  0  0  0  0  0  0  0
   41.0249   22.5811   37.3535 H   0  0  0  0  0  0  0  0  0  0  0  0
   39.7759   23.7492   39.1865 H   0  0  0  0  0  0  0  0  0  0  0  0
   37.2513   23.9579   38.9689 H   0  0  0  0  0  0  0  0  0  0  0  0
   36.4937   21.9280   30.5466 H   0  0  0  0  0  0  0  0  0  0  0  0
   36.9218   24.1153   31.4744 H   0  0  0  0  0  0  0  0  0  0  0  0
   38.5634   23.5379   32.0563 H   0  0  0  0  0  0  0  0  0  0  0  0
   37.6727   23.9417   29.2083 H   0  0  0  0  0  0  0  0  0  0  0  0
   38.8429   24.9347   30.1673 H   0  0  0  0  0  0  0  0  0  0  0  0
   39.9016   23.3053   28.6011 H   0  0  0  0  0  0  0  0  0  0  0  0
   40.3570   23.1101   30.3415 H   0  0  0  0  0  0  0  0  0  0  0  0
   38.3300   21.4472   28.7836 H   0  0  0  0  0  0  0  0  0  0  0  0
   39.9650   20.9304   29.3586 H   0  0  0  0  0  0  0  0  0  0  0  0
   38.1581   20.1063   30.8295 H   0  0  0  0  0  0  0  0  0  0  0  0
   39.2739   21.2432   31.6750 H   0  0  0  0  0  0  0  0  0  0  0  0
  1  2  2  0
  1 11  1  0
  3  2  1  0
  4  3  2  0
  5  4  1  0
  5  6  2  0
  6  1  1  0
  7  8  2  0
  9  8  1  0
 10  9  2  0
 11 12  2  0
 11 10  1  0
 12  7  1  0
 13 14  1  0
 13  5  1  0
 15 14  1  0
 16 15  1  0
 17 16  1  0
 17 18  1  0
 18 13  1  0
  2 19  1  0
  3 20  1  0
  7 21  1  0
  8 22  1  0
  9 23  1  0
 13 24  1  0
 14 25  1  0
 14 26  1  0
 15 27  1  0
 15 28  1  0
 16 29  1  0
 16 30  1  0
 17 31  1  0
 17 32  1  0
 18 33  1  0
 18 34  1  0
M  ISO  8  19  14  20  14  21  14  22  14  23  14  24  13  25  13  26  13
M  ISO  8  27  13  28  13  29  13  30  13  31  13  32  13  33  13  34  13
M  END
>  <minimizedAffinity>  (1) 
-4.60337543

>  <minimizedRMSD>  (1) 
1.38471854

$$$$
