
     RDKit          3D

 24 26  0  0  0  0  0  0  0  0999 V2000
   37.4110   21.9360   35.0080 C   0  0  0  0  0  0  0  0  0  0  0  0
   36.2970   21.1310   35.0500 C   0  0  0  0  0  0  0  0  0  0  0  0
   35.7290   20.7300   33.8680 C   0  0  0  0  0  0  0  0  0  0  0  0
   36.2590   21.1200   32.6880 N   0  0  0  0  0  0  0  0  0  0  0  0
   37.3590   21.9130   32.6450 C   0  0  0  0  0  0  0  0  0  0  0  0
   37.9350   22.3200   33.8180 N   0  0  0  0  0  0  0  0  0  0  0  0
   37.9880   22.3760   31.4560 N   0  0  0  0  0  0  0  0  0  0  0  0
   37.5730   23.5830   31.0110 C   0  0  0  0  0  0  0  0  0  0  0  0
   38.2380   23.9250   29.8750 N   0  0  0  0  0  0  0  0  0  0  0  0
   39.0740   22.8770   29.6470 C   0  0  0  0  0  0  0  0  0  0  0  0
   38.9230   21.9370   30.6070 N   0  0  0  0  0  0  0  0  0  0  0  0
   39.9570   22.7030   37.5560 C   0  0  0  0  0  0  0  0  0  0  0  0
   39.1810   23.3340   38.5510 C   0  0  0  0  0  0  0  0  0  0  0  0
   37.7910   23.4810   38.3190 C   0  0  0  0  0  0  0  0  0  0  0  0
   37.2880   22.9990   37.1400 N   0  0  0  0  0  0  0  0  0  0  0  0
   38.0740   22.4060   36.2240 C   0  0  0  0  0  0  0  0  0  0  0  0
   39.3800   22.2620   36.4300 N   0  0  0  0  0  0  0  0  0  0  0  0
   35.8697   20.8148   36.0131 H   0  0  0  0  0  0  0  0  0  0  0  0
   34.8366   20.0870   33.8807 H   0  0  0  0  0  0  0  0  0  0  0  0
   36.8054   24.2016   31.4990 H   0  0  0  0  0  0  0  0  0  0  0  0
   39.7738   22.8043   28.8015 H   0  0  0  0  0  0  0  0  0  0  0  0
   41.0390   22.5727   37.7051 H   0  0  0  0  0  0  0  0  0  0  0  0
   39.6417   23.7012   39.4799 H   0  0  0  0  0  0  0  0  0  0  0  0
   37.1385   23.9655   39.0603 H   0  0  0  0  0  0  0  0  0  0  0  0
  1  2  2  0
  1 16  1  0
  3  2  1  0
  4  3  2  0
  5  4  1  0
  5  6  2  0
  6  1  1  0
  7  5  1  0
  8  7  1  0
  9  8  2  0
 10  9  1  0
 10 11  2  0
 11  7  1  0
 12 13  2  0
 14 13  1  0
 15 14  2  0
 16 17  2  0
 16 15  1  0
 17 12  1  0
  2 18  1  0
  3 19  1  0
  8 20  1  0
 10 21  1  0
 12 22  1  0
 13 23  1  0
 14 24  1  0
M  ISO  7  18  14  19  14  20  14  21  14  22  14  23  14  24  14
M  END
>  <minimizedAffinity>  (1) 
-4.43885183

>  <minimizedRMSD>  (1) 
0.378172457

$$$$
