
     RDKit          3D

 21 22  0  0  0  0  0  0  0  0999 V2000
   37.1520   21.8380   35.0010 C   0  0  0  0  0  0  0  0  0  0  0  0
   36.1810   20.8680   35.1610 C   0  0  0  0  0  0  0  0  0  0  0  0
   35.4650   20.4690   34.0560 C   0  0  0  0  0  0  0  0  0  0  0  0
   35.7100   21.0150   32.8460 N   0  0  0  0  0  0  0  0  0  0  0  0
   36.6640   21.9670   32.6870 C   0  0  0  0  0  0  0  0  0  0  0  0
   37.3810   22.3730   33.7740 N   0  0  0  0  0  0  0  0  0  0  0  0
   39.9680   22.6330   37.2260 C   0  0  0  0  0  0  0  0  0  0  0  0
   39.3330   23.2940   38.2740 C   0  0  0  0  0  0  0  0  0  0  0  0
   37.9240   23.4640   38.2070 C   0  0  0  0  0  0  0  0  0  0  0  0
   37.2770   22.9600   37.1050 N   0  0  0  0  0  0  0  0  0  0  0  0
   37.9590   22.3230   36.1120 C   0  0  0  0  0  0  0  0  0  0  0  0
   39.2840   22.1590   36.1670 N   0  0  0  0  0  0  0  0  0  0  0  0
   37.0060   22.6260   31.4000 C   0  0  0  0  0  0  0  0  0  0  0  0
   37.5950   21.7310   30.5090 F   0  0  0  0  0  0  0  0  0  0  0  0
   37.9280   23.6350   31.5680 F   0  0  0  0  0  0  0  0  0  0  0  0
   35.8460   23.1080   30.7810 F   0  0  0  0  0  0  0  0  0  0  0  0
   35.9851   20.4252   36.1487 H   0  0  0  0  0  0  0  0  0  0  0  0
   34.6865   19.6988   34.1594 H   0  0  0  0  0  0  0  0  0  0  0  0
   41.0585   22.4940   37.2640 H   0  0  0  0  0  0  0  0  0  0  0  0
   39.9072   23.6747   39.1315 H   0  0  0  0  0  0  0  0  0  0  0  0
   37.3723   23.9795   39.0070 H   0  0  0  0  0  0  0  0  0  0  0  0
  1  2  2  0
  1 11  1  0
  3  2  1  0
  4  3  2  0
  5  4  1  0
  5  6  2  0
  6  1  1  0
  7  8  2  0
  9  8  1  0
 10  9  2  0
 11 12  2  0
 11 10  1  0
 12  7  1  0
 13 15  1  0
 13  5  1  0
 14 13  1  0
 16 13  1  0
  2 17  1  0
  3 18  1  0
  7 19  1  0
  8 20  1  0
  9 21  1  0
M  ISO  5  17  14  18  14  19  14  20  14  21  14
M  END
>  <minimizedAffinity>  (1) 
-4.38152409

>  <minimizedRMSD>  (1) 
0.374940634

$$$$
