
     RDKit          3D

 27 29  0  0  0  0  0  0  0  0999 V2000
   37.4980   21.9560   34.8480 C   0  0  0  0  0  0  0  0  0  0  0  0
   36.3570   21.1790   34.8400 C   0  0  0  0  0  0  0  0  0  0  0  0
   35.8190   20.7820   33.6450 C   0  0  0  0  0  0  0  0  0  0  0  0
   36.4170   21.1600   32.4730 N   0  0  0  0  0  0  0  0  0  0  0  0
   37.5320   21.9210   32.4870 C   0  0  0  0  0  0  0  0  0  0  0  0
   38.0500   22.3030   33.6800 N   0  0  0  0  0  0  0  0  0  0  0  0
   39.9420   22.6680   37.4920 C   0  0  0  0  0  0  0  0  0  0  0  0
   39.1550   23.2840   38.4670 C   0  0  0  0  0  0  0  0  0  0  0  0
   37.7890   23.4440   38.1940 C   0  0  0  0  0  0  0  0  0  0  0  0
   37.2980   22.9920   36.9950 N   0  0  0  0  0  0  0  0  0  0  0  0
   38.1070   22.4020   36.0850 C   0  0  0  0  0  0  0  0  0  0  0  0
   39.4250   22.2340   36.3220 N   0  0  0  0  0  0  0  0  0  0  0  0
   38.1750   22.3280   31.2450 C   0  0  0  0  0  0  0  0  0  0  0  0
   38.1620   23.6440   30.8690 C   0  0  0  0  0  0  0  0  0  0  0  0
   38.7760   24.0030   29.6920 C   0  0  0  0  0  0  0  0  0  0  0  0
   39.3920   23.0290   28.9170 C   0  0  0  0  0  0  0  0  0  0  0  0
   39.3740   21.7210   29.3430 C   0  0  0  0  0  0  0  0  0  0  0  0
   38.7730   21.3900   30.4900 N   0  0  0  0  0  0  0  0  0  0  0  0
   35.8833   20.8809   35.7870 H   0  0  0  0  0  0  0  0  0  0  0  0
   34.9104   20.1622   33.6269 H   0  0  0  0  0  0  0  0  0  0  0  0
   41.0168   22.5319   37.6826 H   0  0  0  0  0  0  0  0  0  0  0  0
   39.5910   23.6313   39.4153 H   0  0  0  0  0  0  0  0  0  0  0  0
   37.1234   23.9229   38.9273 H   0  0  0  0  0  0  0  0  0  0  0  0
   37.6693   24.4009   31.4970 H   0  0  0  0  0  0  0  0  0  0  0  0
   38.7792   25.0538   29.3668 H   0  0  0  0  0  0  0  0  0  0  0  0
   39.8885   23.3002   27.9736 H   0  0  0  0  0  0  0  0  0  0  0  0
   39.8577   20.9420   28.7353 H   0  0  0  0  0  0  0  0  0  0  0  0
  1 11  1  0
  2  1  2  0
  3  2  1  0
  4  5  1  0
  4  3  2  0
  5  6  2  0
  6  1  1  0
  7  8  2  0
  9  8  1  0
 10  9  2  0
 11 12  2  0
 11 10  1  0
 12  7  1  0
 13  5  1  0
 14 13  2  0
 15 14  1  0
 16 17  1  0
 16 15  2  0
 17 18  2  0
 18 13  1  0
  2 19  1  0
  3 20  1  0
  7 21  1  0
  8 22  1  0
  9 23  1  0
 14 24  1  0
 15 25  1  0
 16 26  1  0
 17 27  1  0
M  ISO  8  19  14  20  14  21  14  22  14  23  14  24  14  25  14  26  14
M  ISO  1  27  14
M  END
>  <minimizedAffinity>  (1) 
-4.33476353

>  <minimizedRMSD>  (1) 
0.710099339

$$$$
