
     RDKit          3D

 26 28  0  0  0  0  0  0  0  0999 V2000
   37.4810   21.9330   34.8830 C   0  0  0  0  0  0  0  0  0  0  0  0
   36.3120   21.1680   34.9080 C   0  0  0  0  0  0  0  0  0  0  0  0
   35.7780   20.7580   33.7180 C   0  0  0  0  0  0  0  0  0  0  0  0
   36.3780   21.0940   32.5350 N   0  0  0  0  0  0  0  0  0  0  0  0
   37.5080   21.8340   32.5310 C   0  0  0  0  0  0  0  0  0  0  0  0
   38.0510   22.2480   33.7120 N   0  0  0  0  0  0  0  0  0  0  0  0
   39.9110   22.7170   37.5220 C   0  0  0  0  0  0  0  0  0  0  0  0
   39.1160   23.3240   38.4920 C   0  0  0  0  0  0  0  0  0  0  0  0
   37.7460   23.4570   38.2250 C   0  0  0  0  0  0  0  0  0  0  0  0
   37.2820   22.9830   37.0320 N   0  0  0  0  0  0  0  0  0  0  0  0
   38.0950   22.3950   36.1130 C   0  0  0  0  0  0  0  0  0  0  0  0
   39.4010   22.2600   36.3480 N   0  0  0  0  0  0  0  0  0  0  0  0
   38.1430   22.1880   31.2670 C   0  0  0  0  0  0  0  0  0  0  0  0
   38.1610   23.5070   30.8650 C   0  0  0  0  0  0  0  0  0  0  0  0
   38.7690   23.8300   29.6570 C   0  0  0  0  0  0  0  0  0  0  0  0
   39.3090   22.8330   28.9470 N   0  0  0  0  0  0  0  0  0  0  0  0
   39.2830   21.5520   29.3530 C   0  0  0  0  0  0  0  0  0  0  0  0
   38.6930   21.2260   30.5280 N   0  0  0  0  0  0  0  0  0  0  0  0
   35.8330   20.9021   35.8619 H   0  0  0  0  0  0  0  0  0  0  0  0
   34.8591   20.1534   33.7115 H   0  0  0  0  0  0  0  0  0  0  0  0
   40.9884   22.6038   37.7129 H   0  0  0  0  0  0  0  0  0  0  0  0
   39.5488   23.6868   39.4359 H   0  0  0  0  0  0  0  0  0  0  0  0
   37.0680   23.9274   38.9523 H   0  0  0  0  0  0  0  0  0  0  0  0
   37.7029   24.2890   31.4884 H   0  0  0  0  0  0  0  0  0  0  0  0
   38.8047   24.8690   29.2977 H   0  0  0  0  0  0  0  0  0  0  0  0
   39.7407   20.7685   28.7313 H   0  0  0  0  0  0  0  0  0  0  0  0
  1  2  2  0
  1 11  1  0
  3  2  1  0
  4  3  2  0
  5  4  1  0
  5  6  2  0
  6  1  1  0
  7  8  2  0
  9  8  1  0
 10  9  2  0
 11 12  2  0
 11 10  1  0
 12  7  1  0
 13  5  1  0
 14 13  2  0
 15 14  1  0
 16 17  1  0
 16 15  2  0
 17 18  2  0
 18 13  1  0
  2 19  1  0
  3 20  1  0
  7 21  1  0
  8 22  1  0
  9 23  1  0
 14 24  1  0
 15 25  1  0
 17 26  1  0
M  ISO  8  19  14  20  14  21  14  22  14  23  14  24  14  25  14  26  14
M  END
>  <minimizedAffinity>  (1) 
-4.28759575

>  <minimizedRMSD>  (1) 
0.806369007

$$$$
