
     RDKit          3D

 26 28  0  0  0  0  0  0  0  0999 V2000
   37.4880   21.9430   34.8650 C   0  0  0  0  0  0  0  0  0  0  0  0
   36.3200   21.1750   34.9010 C   0  0  0  0  0  0  0  0  0  0  0  0
   35.8090   20.7790   33.6800 C   0  0  0  0  0  0  0  0  0  0  0  0
   36.4160   21.1210   32.5130 N   0  0  0  0  0  0  0  0  0  0  0  0
   37.5520   21.8690   32.5100 C   0  0  0  0  0  0  0  0  0  0  0  0
   38.0640   22.2660   33.7050 N   0  0  0  0  0  0  0  0  0  0  0  0
   39.9370   22.6910   37.5080 C   0  0  0  0  0  0  0  0  0  0  0  0
   39.1410   23.3060   38.4840 C   0  0  0  0  0  0  0  0  0  0  0  0
   37.7720   23.4520   38.2150 C   0  0  0  0  0  0  0  0  0  0  0  0
   37.2890   22.9890   37.0170 N   0  0  0  0  0  0  0  0  0  0  0  0
   38.0940   22.4040   36.1100 C   0  0  0  0  0  0  0  0  0  0  0  0
   39.4120   22.2550   36.3530 N   0  0  0  0  0  0  0  0  0  0  0  0
   38.1670   22.2120   31.2570 C   0  0  0  0  0  0  0  0  0  0  0  0
   38.1780   23.5450   30.8480 C   0  0  0  0  0  0  0  0  0  0  0  0
   38.7730   23.8320   29.6500 C   0  0  0  0  0  0  0  0  0  0  0  0
   39.3210   22.8280   28.9140 N   0  0  0  0  0  0  0  0  0  0  0  0
   39.2860   21.5550   29.3510 C   0  0  0  0  0  0  0  0  0  0  0  0
   38.7120   21.2340   30.5200 N   0  0  0  0  0  0  0  0  0  0  0  0
   35.8347   20.9012   35.8494 H   0  0  0  0  0  0  0  0  0  0  0  0
   34.8909   20.1738   33.6517 H   0  0  0  0  0  0  0  0  0  0  0  0
   41.0138   22.5633   37.6928 H   0  0  0  0  0  0  0  0  0  0  0  0
   39.5754   23.6624   39.4297 H   0  0  0  0  0  0  0  0  0  0  0  0
   37.1017   23.9263   38.9469 H   0  0  0  0  0  0  0  0  0  0  0  0
   37.7256   24.3354   31.4649 H   0  0  0  0  0  0  0  0  0  0  0  0
   38.8080   24.8688   29.2841 H   0  0  0  0  0  0  0  0  0  0  0  0
   39.7374   20.7619   28.7367 H   0  0  0  0  0  0  0  0  0  0  0  0
  1  2  2  0
  1 11  1  0
  3  2  1  0
  4  3  2  0
  5  4  1  0
  5  6  2  0
  6  1  1  0
  7  8  2  0
  9  8  1  0
 10  9  2  0
 11 12  2  0
 11 10  1  0
 12  7  1  0
 13  5  1  0
 14 13  2  0
 15 14  1  0
 16 17  1  0
 16 15  2  0
 17 18  2  0
 18 13  1  0
  2 19  1  0
  3 20  1  0
  7 21  1  0
  8 22  1  0
  9 23  1  0
 14 24  1  0
 15 25  1  0
 17 26  1  0
M  ISO  8  19  14  20  14  21  14  22  14  23  14  24  14  25  14  26  14
M  END
>  <minimizedAffinity>  (1) 
-4.27732372

>  <minimizedRMSD>  (1) 
0.688123345

$$$$
