
     RDKit          3D

 25 27  0  0  0  0  0  0  0  0999 V2000
   37.5040   21.9840   34.8490 C   0  0  0  0  0  0  0  0  0  0  0  0
   36.3660   21.1760   34.8450 C   0  0  0  0  0  0  0  0  0  0  0  0
   35.8190   20.7960   33.6570 C   0  0  0  0  0  0  0  0  0  0  0  0
   36.3780   21.2010   32.4950 N   0  0  0  0  0  0  0  0  0  0  0  0
   37.4840   21.9870   32.4910 C   0  0  0  0  0  0  0  0  0  0  0  0
   38.0500   22.3800   33.6740 N   0  0  0  0  0  0  0  0  0  0  0  0
   39.9400   22.6650   37.5030 C   0  0  0  0  0  0  0  0  0  0  0  0
   39.1510   23.2840   38.4800 C   0  0  0  0  0  0  0  0  0  0  0  0
   37.7860   23.4570   38.2070 C   0  0  0  0  0  0  0  0  0  0  0  0
   37.3200   23.0080   37.0030 N   0  0  0  0  0  0  0  0  0  0  0  0
   38.1220   22.4140   36.0860 C   0  0  0  0  0  0  0  0  0  0  0  0
   39.4250   22.2400   36.3270 N   0  0  0  0  0  0  0  0  0  0  0  0
   38.1120   22.4400   31.2540 C   0  0  0  0  0  0  0  0  0  0  0  0
   37.9230   23.7060   30.7070 C   0  0  0  0  0  0  0  0  0  0  0  0
   38.6300   23.8090   29.5810 N   0  0  0  0  0  0  0  0  0  0  0  0
   39.2700   22.6400   29.3930 C   0  0  0  0  0  0  0  0  0  0  0  0
   38.9530   21.8150   30.4090 N   0  0  0  0  0  0  0  0  0  0  0  0
   35.9147   20.8489   35.7933 H   0  0  0  0  0  0  0  0  0  0  0  0
   34.9221   20.1593   33.6432 H   0  0  0  0  0  0  0  0  0  0  0  0
   41.0128   22.5198   37.6981 H   0  0  0  0  0  0  0  0  0  0  0  0
   39.5874   23.6237   39.4309 H   0  0  0  0  0  0  0  0  0  0  0  0
   37.1152   23.9364   38.9351 H   0  0  0  0  0  0  0  0  0  0  0  0
   37.2902   24.4969   31.1360 H   0  0  0  0  0  0  0  0  0  0  0  0
   39.9380   22.3995   28.5528 H   0  0  0  0  0  0  0  0  0  0  0  0
   39.3011   20.8522   30.5223 H   0  0  0  0  0  0  0  0  0  0  0  0
  1 11  1  0
  2  1  2  0
  3  2  1  0
  4  3  2  0
  5  4  1  0
  5  6  2  0
  6  1  1  0
  7  8  2  0
  9  8  1  0
 10  9  2  0
 11 12  2  0
 11 10  1  0
 12  7  1  0
 13  5  1  0
 14 13  2  0
 15 14  1  0
 16 15  2  0
 16 17  1  0
 17 13  1  0
  2 18  1  0
  3 19  1  0
  7 20  1  0
  8 21  1  0
  9 22  1  0
 14 23  1  0
 16 24  1  0
 17 25  1  0
M  ISO  8  18  14  19  14  20  14  21  14  22  14  23  14  24  14  25   9
M  END
>  <minimizedAffinity>  (1) 
-4.18875742

>  <minimizedRMSD>  (1) 
0.535544515

$$$$
