
     RDKit          3D

 21 22  0  0  0  0  0  0  0  0999 V2000
   37.2130   21.8510   35.0210 C   0  0  0  0  0  0  0  0  0  0  0  0
   36.1820   20.9520   35.1770 C   0  0  0  0  0  0  0  0  0  0  0  0
   35.4890   20.5220   34.0820 C   0  0  0  0  0  0  0  0  0  0  0  0
   35.8240   20.9860   32.8470 N   0  0  0  0  0  0  0  0  0  0  0  0
   36.8350   21.8710   32.6860 C   0  0  0  0  0  0  0  0  0  0  0  0
   37.5290   22.3010   33.7830 N   0  0  0  0  0  0  0  0  0  0  0  0
   39.9740   22.6610   37.3080 C   0  0  0  0  0  0  0  0  0  0  0  0
   39.3170   23.3240   38.3400 C   0  0  0  0  0  0  0  0  0  0  0  0
   37.9110   23.4870   38.2400 C   0  0  0  0  0  0  0  0  0  0  0  0
   37.3090   22.9760   37.1250 N   0  0  0  0  0  0  0  0  0  0  0  0
   37.9830   22.3420   36.1480 C   0  0  0  0  0  0  0  0  0  0  0  0
   39.3180   22.1770   36.2250 N   0  0  0  0  0  0  0  0  0  0  0  0
   37.1870   22.3690   31.3270 C   0  0  0  0  0  0  0  0  0  0  0  0
   35.9179   20.5821   36.1787 H   0  0  0  0  0  0  0  0  0  0  0  0
   34.6638   19.8039   34.1973 H   0  0  0  0  0  0  0  0  0  0  0  0
   41.0636   22.5249   37.3733 H   0  0  0  0  0  0  0  0  0  0  0  0
   39.8714   23.7104   39.2079 H   0  0  0  0  0  0  0  0  0  0  0  0
   37.3333   24.0003   39.0228 H   0  0  0  0  0  0  0  0  0  0  0  0
   37.8198   23.2642   31.4171 H   0  0  0  0  0  0  0  0  0  0  0  0
   37.7340   21.5868   30.7802 H   0  0  0  0  0  0  0  0  0  0  0  0
   36.2671   22.6237   30.7802 H   0  0  0  0  0  0  0  0  0  0  0  0
  1  2  2  0
  1 11  1  0
  3  2  1  0
  4  3  2  0
  5  4  1  0
  5  6  2  0
  6  1  1  0
  7  8  2  0
  9  8  1  0
 10  9  2  0
 11 12  2  0
 11 10  1  0
 12  7  1  0
 13  5  1  0
  2 14  1  0
  3 15  1  0
  7 16  1  0
  8 17  1  0
  9 18  1  0
 13 19  1  0
 13 20  1  0
 13 21  1  0
M  ISO  8  14  14  15  14  16  14  17  14  18  14  19   8  20   8  21   8
M  END
>  <minimizedAffinity>  (1) 
-3.97768044

>  <minimizedRMSD>  (1) 
0.117751479

$$$$
