
     RDKit          3D

 39 43  0  0  0  0  0  0  0  0999 V2000
   37.9790   23.0410   34.7730 C   0  0  0  0  0  0  0  0  0  0  0  0
   37.4440   21.9010   34.2350 C   0  0  0  0  0  0  0  0  0  0  0  0
   37.0540   21.8840   32.9240 C   0  0  0  0  0  0  0  0  0  0  0  0
   37.2010   22.9980   32.1670 N   0  0  0  0  0  0  0  0  0  0  0  0
   37.7330   24.1360   32.6960 C   0  0  0  0  0  0  0  0  0  0  0  0
   38.1280   24.1630   34.0160 N   0  0  0  0  0  0  0  0  0  0  0  0
   39.9620   22.7760   37.8650 C   0  0  0  0  0  0  0  0  0  0  0  0
   39.1050   23.3210   38.8150 C   0  0  0  0  0  0  0  0  0  0  0  0
   37.8640   23.7670   38.3660 C   0  0  0  0  0  0  0  0  0  0  0  0
   37.5380   23.6570   37.0440 N   0  0  0  0  0  0  0  0  0  0  0  0
   38.4100   23.1180   36.1590 C   0  0  0  0  0  0  0  0  0  0  0  0
   39.6140   22.6810   36.5660 N   0  0  0  0  0  0  0  0  0  0  0  0
   37.8640   25.3060   31.8250 C   0  0  0  0  0  0  0  0  0  0  0  0
   38.8070   25.2830   30.8120 C   0  0  0  0  0  0  0  0  0  0  0  0
   38.7220   26.4970   30.1510 C   0  0  0  0  0  0  0  0  0  0  0  0
   37.7540   27.2100   30.7580 N   0  0  0  0  0  0  0  0  0  0  0  0
   37.2310   26.5090   31.7640 N   0  0  0  0  0  0  0  0  0  0  0  0
   37.2280   28.5110   30.5200 C   0  0  0  0  0  0  0  0  0  0  0  0
   36.0040   29.1110   30.8310 C   0  0  0  0  0  0  0  0  0  0  0  0
   36.0230   30.3780   30.3720 N   0  0  0  0  0  0  0  0  0  0  0  0
   37.1900   30.6590   29.7710 C   0  0  0  0  0  0  0  0  0  0  0  0
   37.6490   31.8110   29.1640 C   0  0  0  0  0  0  0  0  0  0  0  0
   38.9330   31.8150   28.6120 C   0  0  0  0  0  0  0  0  0  0  0  0
   39.7230   30.6640   28.6830 C   0  0  0  0  0  0  0  0  0  0  0  0
   39.1990   29.5490   29.3050 C   0  0  0  0  0  0  0  0  0  0  0  0
   37.9400   29.4840   29.8680 C   0  0  0  0  0  0  0  0  0  0  0  0
   37.3281   21.0005   34.8560 H   0  0  0  0  0  0  0  0  0  0  0  0
   36.6235   20.9710   32.4868 H   0  0  0  0  0  0  0  0  0  0  0  0
   40.9506   22.4126   38.1821 H   0  0  0  0  0  0  0  0  0  0  0  0
   39.3941   23.3965   39.8736 H   0  0  0  0  0  0  0  0  0  0  0  0
   37.1475   24.2072   39.0751 H   0  0  0  0  0  0  0  0  0  0  0  0
   39.4940   24.4568   30.5765 H   0  0  0  0  0  0  0  0  0  0  0  0
   39.3301   26.8182   29.2925 H   0  0  0  0  0  0  0  0  0  0  0  0
   35.1678   28.6307   31.3602 H   0  0  0  0  0  0  0  0  0  0  0  0
   35.2435   31.0441   30.4696 H   0  0  0  0  0  0  0  0  0  0  0  0
   37.0158   32.7092   29.1157 H   0  0  0  0  0  0  0  0  0  0  0  0
   39.3206   32.7210   28.1232 H   0  0  0  0  0  0  0  0  0  0  0  0
   40.7359   30.6474   28.2543 H   0  0  0  0  0  0  0  0  0  0  0  0
   39.8288   28.6486   29.3558 H   0  0  0  0  0  0  0  0  0  0  0  0
  1 11  1  0
  2  1  2  0
  3  2  1  0
  4  5  1  0
  4  3  2  0
  5  6  2  0
  6  1  1  0
  7  8  2  0
  9  8  1  0
 10  9  2  0
 11 12  2  0
 11 10  1  0
 12  7  1  0
 13  5  1  0
 14 13  1  0
 15 16  1  0
 15 14  2  0
 16 17  1  0
 17 13  2  0
 18 16  1  0
 18 19  2  0
 20 19  1  0
 21 26  2  0
 21 20  1  0
 22 21  1  0
 23 24  1  0
 23 22  2  0
 24 25  2  0
 25 26  1  0
 26 18  1  0
  2 27  1  0
  3 28  1  0
  7 29  1  0
  8 30  1  0
  9 31  1  0
 14 32  1  0
 15 33  1  0
 19 34  1  0
 20 35  1  0
 22 36  1  0
 23 37  1  0
 24 38  1  0
 25 39  1  0
M  ISO  8  27  14  28  14  29  14  30  14  31  14  32  14  33  14  34  14
M  ISO  5  35   9  36  14  37  14  38  14  39  14
M  END
>  <minimizedAffinity>  (1) 
-5.58374739

>  <minimizedRMSD>  (1) 
3.30941463

$$$$
