
     RDKit          3D

 32 35  0  0  0  0  0  0  0  0999 V2000
   37.9640   22.7910   34.7210 C   0  0  0  0  0  0  0  0  0  0  0  0
   37.2140   21.7120   34.3090 C   0  0  0  0  0  0  0  0  0  0  0  0
   36.8350   21.6160   32.9980 C   0  0  0  0  0  0  0  0  0  0  0  0
   37.1990   22.5800   32.1220 N   0  0  0  0  0  0  0  0  0  0  0  0
   37.9410   23.6520   32.5180 C   0  0  0  0  0  0  0  0  0  0  0  0
   38.3250   23.7510   33.8360 N   0  0  0  0  0  0  0  0  0  0  0  0
   39.9530   22.7320   37.8190 C   0  0  0  0  0  0  0  0  0  0  0  0
   39.0880   23.3060   38.7360 C   0  0  0  0  0  0  0  0  0  0  0  0
   37.8280   23.7060   38.2740 C   0  0  0  0  0  0  0  0  0  0  0  0
   37.5150   23.5170   36.9630 N   0  0  0  0  0  0  0  0  0  0  0  0
   38.3960   22.9470   36.0940 C   0  0  0  0  0  0  0  0  0  0  0  0
   39.6090   22.5570   36.5240 N   0  0  0  0  0  0  0  0  0  0  0  0
   38.2990   24.6530   31.5230 C   0  0  0  0  0  0  0  0  0  0  0  0
   39.2230   24.3050   30.5310 C   0  0  0  0  0  0  0  0  0  0  0  0
   39.3770   25.4280   29.7310 C   0  0  0  0  0  0  0  0  0  0  0  0
   38.5730   26.3970   30.2360 N   0  0  0  0  0  0  0  0  0  0  0  0
   37.9230   25.9380   31.3110 N   0  0  0  0  0  0  0  0  0  0  0  0
   38.4560   27.7030   29.6830 C   0  0  0  0  0  0  0  0  0  0  0  0
   39.3780   28.7310   29.6790 C   0  0  0  0  0  0  0  0  0  0  0  0
   38.8930   29.8250   29.0520 N   0  0  0  0  0  0  0  0  0  0  0  0
   37.6470   29.4680   28.6600 C   0  0  0  0  0  0  0  0  0  0  0  0
   37.3870   28.2030   29.0370 N   0  0  0  0  0  0  0  0  0  0  0  0
   36.9218   20.9331   35.0287 H   0  0  0  0  0  0  0  0  0  0  0  0
   36.2365   20.7581   32.6577 H   0  0  0  0  0  0  0  0  0  0  0  0
   40.9494   22.4091   38.1549 H   0  0  0  0  0  0  0  0  0  0  0  0
   39.3799   23.4425   39.7877 H   0  0  0  0  0  0  0  0  0  0  0  0
   37.1020   24.1661   38.9605 H   0  0  0  0  0  0  0  0  0  0  0  0
   39.7267   23.3346   30.4098 H   0  0  0  0  0  0  0  0  0  0  0  0
   40.0301   25.5163   28.8503 H   0  0  0  0  0  0  0  0  0  0  0  0
   40.3797   28.6673   30.1290 H   0  0  0  0  0  0  0  0  0  0  0  0
   36.9486   30.1181   28.1126 H   0  0  0  0  0  0  0  0  0  0  0  0
   36.5078   27.6969   28.8590 H   0  0  0  0  0  0  0  0  0  0  0  0
  1 11  1  0
  2  1  2  0
  3  2  1  0
  4  5  1  0
  4  3  2  0
  5  6  2  0
  6  1  1  0
  7  8  2  0
  9  8  1  0
 10  9  2  0
 11 12  2  0
 11 10  1  0
 12  7  1  0
 13  5  1  0
 14 13  1  0
 15 16  1  0
 15 14  2  0
 16 17  1  0
 17 13  2  0
 18 16  1  0
 19 18  2  0
 20 19  1  0
 21 22  1  0
 21 20  2  0
 22 18  1  0
  2 23  1  0
  3 24  1  0
  7 25  1  0
  8 26  1  0
  9 27  1  0
 14 28  1  0
 15 29  1  0
 19 30  1  0
 21 31  1  0
 22 32  1  0
M  ISO  8  23  14  24  14  25  14  26  14  27  14  28  14  29  14  30  14
M  ISO  2  31  14  32   9
M  END
>  <minimizedAffinity>  (1) 
-4.90256929

>  <minimizedRMSD>  (1) 
1.80810034

$$$$
