
     RDKit          3D

 32 35  0  0  0  0  0  0  0  0999 V2000
   37.5240   21.9600   34.8560 C   0  0  0  0  0  0  0  0  0  0  0  0
   36.3700   21.2060   34.8390 C   0  0  0  0  0  0  0  0  0  0  0  0
   35.8500   20.8040   33.6390 C   0  0  0  0  0  0  0  0  0  0  0  0
   36.4660   21.1460   32.4820 N   0  0  0  0  0  0  0  0  0  0  0  0
   37.6060   21.8910   32.4970 C   0  0  0  0  0  0  0  0  0  0  0  0
   38.1350   22.2990   33.6990 N   0  0  0  0  0  0  0  0  0  0  0  0
   38.2220   22.2280   31.2220 C   0  0  0  0  0  0  0  0  0  0  0  0
   38.7320   21.1910   30.4360 C   0  0  0  0  0  0  0  0  0  0  0  0
   39.2570   21.7750   29.2920 C   0  0  0  0  0  0  0  0  0  0  0  0
   39.0590   23.1050   29.4110 N   0  0  0  0  0  0  0  0  0  0  0  0
   38.4410   23.3920   30.5620 N   0  0  0  0  0  0  0  0  0  0  0  0
   39.4760   24.0280   28.4100 C   0  0  0  0  0  0  0  0  0  0  0  0
   39.6270   23.5970   27.1070 C   0  0  0  0  0  0  0  0  0  0  0  0
   40.0360   24.6780   26.3410 C   0  0  0  0  0  0  0  0  0  0  0  0
   40.1220   25.7350   27.1990 N   0  0  0  0  0  0  0  0  0  0  0  0
   39.7920   25.3440   28.4140 N   0  0  0  0  0  0  0  0  0  0  0  0
   39.9300   22.7070   37.5360 C   0  0  0  0  0  0  0  0  0  0  0  0
   39.1300   23.3110   38.4910 C   0  0  0  0  0  0  0  0  0  0  0  0
   37.7560   23.4550   38.2000 C   0  0  0  0  0  0  0  0  0  0  0  0
   37.3000   22.9950   37.0010 N   0  0  0  0  0  0  0  0  0  0  0  0
   38.1170   22.4120   36.0960 C   0  0  0  0  0  0  0  0  0  0  0  0
   39.4270   22.2670   36.3600 N   0  0  0  0  0  0  0  0  0  0  0  0
   35.8724   20.9304   35.7805 H   0  0  0  0  0  0  0  0  0  0  0  0
   34.9298   20.2018   33.6137 H   0  0  0  0  0  0  0  0  0  0  0  0
   38.7196   20.1180   30.6778 H   0  0  0  0  0  0  0  0  0  0  0  0
   39.7405   21.2553   28.4517 H   0  0  0  0  0  0  0  0  0  0  0  0
   39.4532   22.5745   26.7406 H   0  0  0  0  0  0  0  0  0  0  0  0
   40.2479   24.6823   25.2616 H   0  0  0  0  0  0  0  0  0  0  0  0
   40.4017   26.6913   26.9378 H   0  0  0  0  0  0  0  0  0  0  0  0
   41.0038   22.5815   37.7391 H   0  0  0  0  0  0  0  0  0  0  0  0
   39.5503   23.6663   39.4434 H   0  0  0  0  0  0  0  0  0  0  0  0
   37.0721   23.9258   38.9216 H   0  0  0  0  0  0  0  0  0  0  0  0
  1 21  1  0
  2  1  2  0
  3  2  1  0
  4  5  1  0
  4  3  2  0
  5  6  2  0
  6  1  1  0
  7  5  1  0
  8  7  1  0
  9 10  1  0
  9  8  2  0
 10 11  1  0
 11  7  2  0
 12 16  2  0
 12 10  1  0
 13 12  1  0
 14 13  2  0
 14 15  1  0
 15 16  1  0
 17 18  2  0
 19 18  1  0
 20 19  2  0
 21 22  2  0
 21 20  1  0
 22 17  1  0
  2 23  1  0
  3 24  1  0
  8 25  1  0
  9 26  1  0
 13 27  1  0
 14 28  1  0
 15 29  1  0
 17 30  1  0
 18 31  1  0
 19 32  1  0
M  ISO  8  23  14  24  14  25  14  26  14  27  14  28  14  29   9  30  14
M  ISO  2  31  14  32  14
M  END
>  <minimizedAffinity>  (1) 
-4.88967419

>  <minimizedRMSD>  (1) 
1.19313049

$$$$
