
     RDKit          3D

 35 38  0  0  0  0  0  0  0  0999 V2000
   37.4540   21.8740   34.9600 C   0  0  0  0  0  0  0  0  0  0  0  0
   36.2730   21.1520   34.9750 C   0  0  0  0  0  0  0  0  0  0  0  0
   35.7320   20.7040   33.8010 C   0  0  0  0  0  0  0  0  0  0  0  0
   36.3620   20.9730   32.6320 N   0  0  0  0  0  0  0  0  0  0  0  0
   37.5200   21.6810   32.6160 C   0  0  0  0  0  0  0  0  0  0  0  0
   38.0580   22.1270   33.7880 N   0  0  0  0  0  0  0  0  0  0  0  0
   39.8970   22.7580   37.5570 C   0  0  0  0  0  0  0  0  0  0  0  0
   39.0900   23.3600   38.5280 C   0  0  0  0  0  0  0  0  0  0  0  0
   37.7160   23.4470   38.2660 C   0  0  0  0  0  0  0  0  0  0  0  0
   37.2380   22.9450   37.0840 N   0  0  0  0  0  0  0  0  0  0  0  0
   38.0700   22.3710   36.1760 C   0  0  0  0  0  0  0  0  0  0  0  0
   39.3780   22.2790   36.4100 N   0  0  0  0  0  0  0  0  0  0  0  0
   38.1530   21.9380   31.3110 C   0  0  0  0  0  0  0  0  0  0  0  0
   38.5710   20.8400   30.5510 C   0  0  0  0  0  0  0  0  0  0  0  0
   39.1220   21.3700   29.3900 C   0  0  0  0  0  0  0  0  0  0  0  0
   39.0280   22.7110   29.4710 N   0  0  0  0  0  0  0  0  0  0  0  0
   38.4550   23.0590   30.6070 N   0  0  0  0  0  0  0  0  0  0  0  0
   39.4170   23.7650   28.5970 C   0  0  0  0  0  0  0  0  0  0  0  0
   39.5760   23.5020   27.2460 C   0  0  0  0  0  0  0  0  0  0  0  0
   39.9560   24.5210   26.3730 C   0  0  0  0  0  0  0  0  0  0  0  0
   40.1660   25.7970   26.9070 C   0  0  0  0  0  0  0  0  0  0  0  0
   40.0050   26.0590   28.2690 C   0  0  0  0  0  0  0  0  0  0  0  0
   39.6240   25.0230   29.1270 C   0  0  0  0  0  0  0  0  0  0  0  0
   35.7701   20.9387   35.9298 H   0  0  0  0  0  0  0  0  0  0  0  0
   34.7935   20.1303   33.8061 H   0  0  0  0  0  0  0  0  0  0  0  0
   40.9794   22.6739   37.7340 H   0  0  0  0  0  0  0  0  0  0  0  0
   39.5181   23.7508   39.4629 H   0  0  0  0  0  0  0  0  0  0  0  0
   37.0344   23.9094   38.9952 H   0  0  0  0  0  0  0  0  0  0  0  0
   38.4819   19.7765   30.8174 H   0  0  0  0  0  0  0  0  0  0  0  0
   39.5559   20.7980   28.5566 H   0  0  0  0  0  0  0  0  0  0  0  0
   39.4020   22.4864   26.8608 H   0  0  0  0  0  0  0  0  0  0  0  0
   40.0866   24.3275   25.2980 H   0  0  0  0  0  0  0  0  0  0  0  0
   40.4659   26.6155   26.2361 H   0  0  0  0  0  0  0  0  0  0  0  0
   40.1764   27.0715   28.6634 H   0  0  0  0  0  0  0  0  0  0  0  0
   39.4917   25.2066   30.2035 H   0  0  0  0  0  0  0  0  0  0  0  0
  1  2  2  0
  1 11  1  0
  3  2  1  0
  4  3  2  0
  5  4  1  0
  5  6  2  0
  6  1  1  0
  7  8  2  0
  9  8  1  0
 10  9  2  0
 11 12  2  0
 11 10  1  0
 12  7  1  0
 13  5  1  0
 14 13  1  0
 15 16  1  0
 15 14  2  0
 16 17  1  0
 17 13  2  0
 18 23  1  0
 18 16  1  0
 19 18  2  0
 20 21  2  0
 20 19  1  0
 21 22  1  0
 22 23  2  0
  2 24  1  0
  3 25  1  0
  7 26  1  0
  8 27  1  0
  9 28  1  0
 14 29  1  0
 15 30  1  0
 19 31  1  0
 20 32  1  0
 21 33  1  0
 22 34  1  0
 23 35  1  0
M  ISO  8  24  14  25  14  26  14  27  14  28  14  29  14  30  14  31  14
M  ISO  4  32  14  33  14  34  14  35  14
M  END
>  <minimizedAffinity>  (1) 
-4.88154888

>  <minimizedRMSD>  (1) 
1.57758105

$$$$
