
     RDKit          3D

 31 34  0  0  0  0  0  0  0  0999 V2000
   37.4450   21.8640   34.9590 C   0  0  0  0  0  0  0  0  0  0  0  0
   36.2690   21.1500   34.9850 C   0  0  0  0  0  0  0  0  0  0  0  0
   35.7250   20.7020   33.8130 C   0  0  0  0  0  0  0  0  0  0  0  0
   36.3510   20.9650   32.6370 N   0  0  0  0  0  0  0  0  0  0  0  0
   37.4980   21.6620   32.6160 C   0  0  0  0  0  0  0  0  0  0  0  0
   38.0470   22.1140   33.7850 N   0  0  0  0  0  0  0  0  0  0  0  0
   39.9000   22.7610   37.5550 C   0  0  0  0  0  0  0  0  0  0  0  0
   39.0990   23.3610   38.5230 C   0  0  0  0  0  0  0  0  0  0  0  0
   37.7130   23.4510   38.2700 C   0  0  0  0  0  0  0  0  0  0  0  0
   37.2450   22.9440   37.0930 N   0  0  0  0  0  0  0  0  0  0  0  0
   38.0710   22.3670   36.1780 C   0  0  0  0  0  0  0  0  0  0  0  0
   39.3750   22.2770   36.4080 N   0  0  0  0  0  0  0  0  0  0  0  0
   38.1370   21.9210   31.3160 C   0  0  0  0  0  0  0  0  0  0  0  0
   38.5500   20.8410   30.5420 C   0  0  0  0  0  0  0  0  0  0  0  0
   39.1090   21.3640   29.3890 C   0  0  0  0  0  0  0  0  0  0  0  0
   39.0240   22.7040   29.4870 N   0  0  0  0  0  0  0  0  0  0  0  0
   38.4490   23.0460   30.6240 N   0  0  0  0  0  0  0  0  0  0  0  0
   39.4230   23.7930   28.6240 C   0  0  0  0  0  0  0  0  0  0  0  0
   39.7110   25.1390   29.0530 C   0  0  0  0  0  0  0  0  0  0  0  0
   40.1230   25.9180   27.5090 S   0  0  0  0  0  0  0  0  0  0  0  0
   39.8490   24.3100   26.4970 C   0  0  0  0  0  0  0  0  0  0  0  0
   39.5280   23.5020   27.3160 N   0  0  0  0  0  0  0  0  0  0  0  0
   35.7696   20.9409   35.9425 H   0  0  0  0  0  0  0  0  0  0  0  0
   34.7847   20.1313   33.8229 H   0  0  0  0  0  0  0  0  0  0  0  0
   40.9833   22.6793   37.7277 H   0  0  0  0  0  0  0  0  0  0  0  0
   39.5323   23.7524   39.4552 H   0  0  0  0  0  0  0  0  0  0  0  0
   37.0321   23.9151   38.9986 H   0  0  0  0  0  0  0  0  0  0  0  0
   38.4511   19.7757   30.7975 H   0  0  0  0  0  0  0  0  0  0  0  0
   39.5401   20.7940   28.5528 H   0  0  0  0  0  0  0  0  0  0  0  0
   39.6832   25.5690   30.0651 H   0  0  0  0  0  0  0  0  0  0  0  0
   39.9617   24.1658   25.4123 H   0  0  0  0  0  0  0  0  0  0  0  0
  1  2  2  0
  1 11  1  0
  3  2  1  0
  4  3  2  0
  5  4  1  0
  5  6  2  0
  6  1  1  0
  7  8  2  0
  9  8  1  0
 10  9  2  0
 11 12  2  0
 11 10  1  0
 12  7  1  0
 13  5  1  0
 14 13  1  0
 15 16  1  0
 15 14  2  0
 16 17  1  0
 17 13  2  0
 18 19  2  0
 18 16  1  0
 20 19  1  0
 21 22  2  0
 21 20  1  0
 22 18  1  0
  2 23  1  0
  3 24  1  0
  7 25  1  0
  8 26  1  0
  9 27  1  0
 14 28  1  0
 15 29  1  0
 19 30  1  0
 21 31  1  0
M  ISO  8  23  14  24  14  25  14  26  14  27  14  28  14  29  14  30  14
M  ISO  1  31  14
M  END
>  <minimizedAffinity>  (1) 
-4.63534498

>  <minimizedRMSD>  (1) 
1.49526072

$$$$
