
     RDKit          3D

 27 29  0  0  0  0  0  0  0  0999 V2000
   37.0780   21.9100   34.6320 C   0  0  0  0  0  0  0  0  0  0  0  0
   36.2400   20.8180   34.7250 C   0  0  0  0  0  0  0  0  0  0  0  0
   35.4590   20.3500   33.6880 C   0  0  0  0  0  0  0  0  0  0  0  0
   35.4900   20.9810   32.4800 C   0  0  0  0  0  0  0  0  0  0  0  0
   36.2960   22.0660   32.3240 C   0  0  0  0  0  0  0  0  0  0  0  0
   36.3170   22.6950   31.0980 C   0  0  0  0  0  0  0  0  0  0  0  0
   37.1090   23.7940   30.8730 C   0  0  0  0  0  0  0  0  0  0  0  0
   37.8840   24.2440   31.9320 C   0  0  0  0  0  0  0  0  0  0  0  0
   37.8340   23.5920   33.1370 C   0  0  0  0  0  0  0  0  0  0  0  0
   37.0570   22.4980   33.3840 C   0  0  0  0  0  0  0  0  0  0  0  0
   40.0350   22.1330   36.6620 C   0  0  0  0  0  0  0  0  0  0  0  0
   39.7520   22.9530   37.7400 C   0  0  0  0  0  0  0  0  0  0  0  0
   38.4560   23.4660   37.7740 C   0  0  0  0  0  0  0  0  0  0  0  0
   37.6200   23.1290   36.7850 N   0  0  0  0  0  0  0  0  0  0  0  0
   37.8760   22.3550   35.7600 C   0  0  0  0  0  0  0  0  0  0  0  0
   39.1160   21.8730   35.7420 N   0  0  0  0  0  0  0  0  0  0  0  0
   37.9470   24.3080   38.7550 O   0  0  0  0  0  0  0  0  0  0  0  0
   36.1913   20.2866   35.6869 H   0  0  0  0  0  0  0  0  0  0  0  0
   34.8140   19.4713   33.8356 H   0  0  0  0  0  0  0  0  0  0  0  0
   34.8731   20.6186   31.6445 H   0  0  0  0  0  0  0  0  0  0  0  0
   35.6867   22.3090   30.2833 H   0  0  0  0  0  0  0  0  0  0  0  0
   37.1281   24.2963   29.8945 H   0  0  0  0  0  0  0  0  0  0  0  0
   38.5362   25.1207   31.8053 H   0  0  0  0  0  0  0  0  0  0  0  0
   38.4599   23.9751   33.9565 H   0  0  0  0  0  0  0  0  0  0  0  0
   41.0374   21.6901   36.5667 H   0  0  0  0  0  0  0  0  0  0  0  0
   40.4971   23.1839   38.5156 H   0  0  0  0  0  0  0  0  0  0  0  0
   37.0108   24.6248   38.6984 H   0  0  0  0  0  0  0  0  0  0  0  0
  1  2  2  0
  1 15  1  0
  3  2  1  0
  4  3  2  0
  5  4  1  0
  5 10  2  0
  6  5  1  0
  7  6  2  0
  7  8  1  0
  8  9  2  0
  9 10  1  0
 10  1  1  0
 11 12  2  0
 12 13  1  0
 13 17  1  0
 14 13  2  0
 15 14  1  0
 16 15  2  0
 16 11  1  0
  2 18  1  0
  3 19  1  0
  4 20  1  0
  6 21  1  0
  7 22  1  0
  8 23  1  0
  9 24  1  0
 11 25  1  0
 12 26  1  0
 17 27  1  0
M  ISO  8  18  14  19  14  20  14  21  14  22  14  23  14  24  14  25  14
M  ISO  2  26  14  27   3
M  END
>  <minimizedAffinity>  (1) 
-5.10005617

>  <minimizedRMSD>  (1) 
0.0715406314

$$$$
