
     RDKit          3D

 47 51  0  0  0  0  0  0  0  0999 V2000
   38.2000   22.1930   31.2690 C   0  0  0  0  0  0  0  0  0  0  0  0
   38.7190   21.1530   30.4870 C   0  0  0  0  0  0  0  0  0  0  0  0
   39.2530   21.7200   29.3370 C   0  0  0  0  0  0  0  0  0  0  0  0
   39.0500   23.0490   29.4470 N   0  0  0  0  0  0  0  0  0  0  0  0
   38.4280   23.3440   30.5840 N   0  0  0  0  0  0  0  0  0  0  0  0
   37.4830   21.9400   34.9020 C   0  0  0  0  0  0  0  0  0  0  0  0
   36.3380   21.1920   34.8940 C   0  0  0  0  0  0  0  0  0  0  0  0
   35.8180   20.7840   33.6880 C   0  0  0  0  0  0  0  0  0  0  0  0
   36.4330   21.1200   32.5270 N   0  0  0  0  0  0  0  0  0  0  0  0
   37.5730   21.8660   32.5470 C   0  0  0  0  0  0  0  0  0  0  0  0
   38.0870   22.2680   33.7470 N   0  0  0  0  0  0  0  0  0  0  0  0
   39.9200   22.7350   37.5570 C   0  0  0  0  0  0  0  0  0  0  0  0
   39.1200   23.3210   38.5260 C   0  0  0  0  0  0  0  0  0  0  0  0
   37.7560   23.4320   38.2480 C   0  0  0  0  0  0  0  0  0  0  0  0
   37.2490   22.9720   37.0570 N   0  0  0  0  0  0  0  0  0  0  0  0
   38.0890   22.4050   36.1440 C   0  0  0  0  0  0  0  0  0  0  0  0
   39.3920   22.2980   36.4050 N   0  0  0  0  0  0  0  0  0  0  0  0
   39.4680   23.9870   28.4340 C   0  0  0  0  0  0  0  0  0  0  0  0
   39.5850   23.2230   27.1360 C   0  0  0  0  0  0  0  0  0  0  0  0
   39.9680   24.1400   26.0190 C   0  0  0  0  0  0  0  0  0  0  0  0
   40.3460   25.4560   26.3150 C   0  0  0  0  0  0  0  0  0  0  0  0
   40.7500   26.4150   25.4080 C   0  0  0  0  0  0  0  0  0  0  0  0
   40.7810   26.0340   24.0830 C   0  0  0  0  0  0  0  0  0  0  0  0
   40.4130   24.7380   23.7470 C   0  0  0  0  0  0  0  0  0  0  0  0
   40.4520   24.3990   22.4000 C   0  0  0  0  0  0  0  0  0  0  0  0
   40.0810   23.1150   22.0550 C   0  0  0  0  0  0  0  0  0  0  0  0
   39.6830   22.1950   23.0010 C   0  0  0  0  0  0  0  0  0  0  0  0
   39.6500   22.5470   24.3380 C   0  0  0  0  0  0  0  0  0  0  0  0
   40.0200   23.8280   24.6960 C   0  0  0  0  0  0  0  0  0  0  0  0
   38.7060   20.0821   30.7381 H   0  0  0  0  0  0  0  0  0  0  0  0
   39.7423   21.1922   28.5051 H   0  0  0  0  0  0  0  0  0  0  0  0
   35.8410   20.9211   35.8372 H   0  0  0  0  0  0  0  0  0  0  0  0
   34.8979   20.1816   33.6650 H   0  0  0  0  0  0  0  0  0  0  0  0
   41.0001   22.6275   37.7356 H   0  0  0  0  0  0  0  0  0  0  0  0
   39.5424   23.6836   39.4748 H   0  0  0  0  0  0  0  0  0  0  0  0
   37.0832   23.8908   38.9875 H   0  0  0  0  0  0  0  0  0  0  0  0
   38.7222   24.7892   28.3328 H   0  0  0  0  0  0  0  0  0  0  0  0
   40.4299   24.4480   28.7029 H   0  0  0  0  0  0  0  0  0  0  0  0
   40.3534   22.4433   27.2434 H   0  0  0  0  0  0  0  0  0  0  0  0
   38.6111   22.7676   26.9032 H   0  0  0  0  0  0  0  0  0  0  0  0
   40.3182   25.7543   27.3734 H   0  0  0  0  0  0  0  0  0  0  0  0
   41.0323   27.4297   25.7254 H   0  0  0  0  0  0  0  0  0  0  0  0
   41.0924   26.7458   23.3043 H   0  0  0  0  0  0  0  0  0  0  0  0
   40.7667   25.1265   21.6373 H   0  0  0  0  0  0  0  0  0  0  0  0
   40.1036   22.8179   20.9961 H   0  0  0  0  0  0  0  0  0  0  0  0
   39.3915   21.1802   22.6924 H   0  0  0  0  0  0  0  0  0  0  0  0
   39.3350   21.8204   25.1014 H   0  0  0  0  0  0  0  0  0  0  0  0
  1 10  1  0
  2  1  1  0
  3  4  1  0
  3  2  2  0
  4  5  1  0
  5  1  2  0
  6 16  1  0
  7  6  2  0
  8  7  1  0
  9 10  1  0
  9  8  2  0
 10 11  2  0
 11  6  1  0
 12 13  2  0
 14 13  1  0
 15 14  2  0
 16 17  2  0
 16 15  1  0
 17 12  1  0
 18  4  1  0
 19 18  1  0
 20 21  2  0
 20 19  1  0
 22 21  1  0
 23 22  2  0
 24 23  1  0
 24 29  2  0
 25 24  1  0
 26 25  2  0
 26 27  1  0
 27 28  2  0
 28 29  1  0
 29 20  1  0
  2 30  1  0
  3 31  1  0
  7 32  1  0
  8 33  1  0
 12 34  1  0
 13 35  1  0
 14 36  1  0
 18 37  1  0
 18 38  1  0
 19 39  1  0
 19 40  1  0
 21 41  1  0
 22 42  1  0
 23 43  1  0
 25 44  1  0
 26 45  1  0
 27 46  1  0
 28 47  1  0
M  ISO  8  30  14  31  14  32  14  33  14  34  14  35  14  36  14  37   8
M  ISO  8  38   8  39   8  40   8  41  14  42  14  43  14  44  14  45  14
M  ISO  2  46  14  47  14
M  END
>  <minimizedAffinity>  (1) 
-5.50278044

>  <minimizedRMSD>  (1) 
0.722223818

$$$$
