
     RDKit          3D

 44 48  0  0  0  0  0  0  0  0999 V2000
   38.7290   23.9750   31.2800 C   0  0  0  0  0  0  0  0  0  0  0  0
   38.7810   23.4240   29.9980 C   0  0  0  0  0  0  0  0  0  0  0  0
   39.3400   24.3650   29.1550 C   0  0  0  0  0  0  0  0  0  0  0  0
   39.6080   25.4470   29.9410 N   0  0  0  0  0  0  0  0  0  0  0  0
   39.2480   25.2160   31.1900 N   0  0  0  0  0  0  0  0  0  0  0  0
   37.9780   22.5750   34.6380 C   0  0  0  0  0  0  0  0  0  0  0  0
   37.0750   21.5950   34.3130 C   0  0  0  0  0  0  0  0  0  0  0  0
   36.7310   21.4130   32.9980 C   0  0  0  0  0  0  0  0  0  0  0  0
   37.2780   22.1930   32.0330 N   0  0  0  0  0  0  0  0  0  0  0  0
   38.1720   23.1640   32.3630 C   0  0  0  0  0  0  0  0  0  0  0  0
   38.5120   23.3410   33.6750 N   0  0  0  0  0  0  0  0  0  0  0  0
   39.9240   22.7270   37.7690 C   0  0  0  0  0  0  0  0  0  0  0  0
   39.0400   23.3500   38.6250 C   0  0  0  0  0  0  0  0  0  0  0  0
   37.7840   23.7130   38.1220 C   0  0  0  0  0  0  0  0  0  0  0  0
   37.4880   23.4390   36.8210 N   0  0  0  0  0  0  0  0  0  0  0  0
   38.3890   22.8230   36.0110 C   0  0  0  0  0  0  0  0  0  0  0  0
   39.5840   22.4780   36.4900 N   0  0  0  0  0  0  0  0  0  0  0  0
   40.2070   26.6570   29.4150 C   0  0  0  0  0  0  0  0  0  0  0  0
   39.4600   27.0190   28.1510 C   0  0  0  0  0  0  0  0  0  0  0  0
   38.7770   28.3030   28.3660 N   0  0  0  0  0  0  0  0  0  0  0  0
   39.0340   29.4350   27.6660 C   0  0  0  0  0  0  0  0  0  0  0  0
   38.2370   30.4300   28.1090 N   0  0  0  0  0  0  0  0  0  0  0  0
   37.4690   29.9320   29.0940 C   0  0  0  0  0  0  0  0  0  0  0  0
   36.4840   30.4340   29.9210 C   0  0  0  0  0  0  0  0  0  0  0  0
   35.8730   29.6500   30.8540 N   0  0  0  0  0  0  0  0  0  0  0  0
   36.2340   28.3450   30.9800 C   0  0  0  0  0  0  0  0  0  0  0  0
   37.1920   27.8190   30.1920 N   0  0  0  0  0  0  0  0  0  0  0  0
   37.7960   28.6030   29.2650 C   0  0  0  0  0  0  0  0  0  0  0  0
   36.0920   31.8060   29.8000 N   0  0  0  0  0  0  0  0  0  0  0  0
   38.4379   22.4192   29.7104 H   0  0  0  0  0  0  0  0  0  0  0  0
   39.5292   24.2630   28.0762 H   0  0  0  0  0  0  0  0  0  0  0  0
   36.6324   20.9631   35.0971 H   0  0  0  0  0  0  0  0  0  0  0  0
   36.0078   20.6305   32.7247 H   0  0  0  0  0  0  0  0  0  0  0  0
   40.9179   22.4302   38.1352 H   0  0  0  0  0  0  0  0  0  0  0  0
   39.3129   23.5555   39.6706 H   0  0  0  0  0  0  0  0  0  0  0  0
   37.0472   24.2122   38.7685 H   0  0  0  0  0  0  0  0  0  0  0  0
   40.1185   27.4705   30.1501 H   0  0  0  0  0  0  0  0  0  0  0  0
   41.2752   26.5014   29.2037 H   0  0  0  0  0  0  0  0  0  0  0  0
   38.7197   26.2386   27.9208 H   0  0  0  0  0  0  0  0  0  0  0  0
   40.1619   27.1013   27.3081 H   0  0  0  0  0  0  0  0  0  0  0  0
   39.7777   29.5283   26.8608 H   0  0  0  0  0  0  0  0  0  0  0  0
   35.7393   27.7130   31.7322 H   0  0  0  0  0  0  0  0  0  0  0  0
   35.3579   32.1879   30.4133 H   0  0  0  0  0  0  0  0  0  0  0  0
   36.5441   32.4109   29.0996 H   0  0  0  0  0  0  0  0  0  0  0  0
  1 10  1  0
  2  1  1  0
  3  4  1  0
  3  2  2  0
  4  5  1  0
  5  1  2  0
  6 16  1  0
  7  6  2  0
  8  7  1  0
  9 10  1  0
  9  8  2  0
 10 11  2  0
 11  6  1  0
 12 13  2  0
 14 13  1  0
 15 14  2  0
 16 17  2  0
 16 15  1  0
 17 12  1  0
 18  4  1  0
 19 20  1  0
 19 18  1  0
 20 28  1  0
 21 22  2  0
 21 20  1  0
 22 23  1  0
 23 28  2  0
 23 24  1  0
 24 25  2  0
 25 26  1  0
 27 26  2  0
 28 27  1  0
 29 24  1  0
  2 30  1  0
  3 31  1  0
  7 32  1  0
  8 33  1  0
 12 34  1  0
 13 35  1  0
 14 36  1  0
 18 37  1  0
 18 38  1  0
 19 39  1  0
 19 40  1  0
 21 41  1  0
 26 42  1  0
 29 43  1  0
 29 44  1  0
M  ISO  8  30  14  31  14  32  14  33  14  34  14  35  14  36  14  37   8
M  ISO  5  38   8  39   8  40   8  41  14  42  14
M  END
>  <minimizedAffinity>  (1) 
-5.33440924

>  <minimizedRMSD>  (1) 
3.86431479

$$$$
