
     RDKit          3D

 39 42  0  0  0  0  0  0  0  0999 V2000
   36.9250   19.7430   31.4660 C   0  0  0  0  0  0  0  0  0  0  0  0
   35.7270   20.2050   32.0210 C   0  0  0  0  0  0  0  0  0  0  0  0
   36.0970   21.0510   33.0670 C   0  0  0  0  0  0  0  0  0  0  0  0
   37.4470   21.0660   33.1050 N   0  0  0  0  0  0  0  0  0  0  0  0
   37.9430   20.2930   32.1580 N   0  0  0  0  0  0  0  0  0  0  0  0
   36.6890   18.4310   27.9900 C   0  0  0  0  0  0  0  0  0  0  0  0
   36.6730   17.0750   28.2270 C   0  0  0  0  0  0  0  0  0  0  0  0
   36.7410   16.6290   29.5200 C   0  0  0  0  0  0  0  0  0  0  0  0
   36.8230   17.5040   30.5520 N   0  0  0  0  0  0  0  0  0  0  0  0
   36.8380   18.8260   30.3230 C   0  0  0  0  0  0  0  0  0  0  0  0
   36.7700   19.2820   29.0220 N   0  0  0  0  0  0  0  0  0  0  0  0
   37.5830   19.9370   24.7480 C   0  0  0  0  0  0  0  0  0  0  0  0
   36.3440   19.9710   24.1050 C   0  0  0  0  0  0  0  0  0  0  0  0
   35.2290   19.4780   24.7940 C   0  0  0  0  0  0  0  0  0  0  0  0
   35.3860   18.9840   26.0590 N   0  0  0  0  0  0  0  0  0  0  0  0
   36.6160   18.9720   26.6460 C   0  0  0  0  0  0  0  0  0  0  0  0
   37.6860   19.4410   25.9960 N   0  0  0  0  0  0  0  0  0  0  0  0
   38.0920   21.8600   34.0950 C   0  0  0  0  0  0  0  0  0  0  0  0
   37.7070   23.2980   33.9550 C   0  0  0  0  0  0  0  0  0  0  0  0
   38.3730   23.9920   32.8530 C   0  0  0  0  0  0  0  0  0  0  0  0
   37.6760   25.0180   32.2010 C   0  0  0  0  0  0  0  0  0  0  0  0
   38.1300   25.7680   31.1630 C   0  0  0  0  0  0  0  0  0  0  0  0
   39.3690   25.5180   30.7000 N   0  0  0  0  0  0  0  0  0  0  0  0
   40.0730   24.5410   31.2970 C   0  0  0  0  0  0  0  0  0  0  0  0
   39.5930   23.8280   32.3120 N   0  0  0  0  0  0  0  0  0  0  0  0
   34.7055   19.9536   31.6996 H   0  0  0  0  0  0  0  0  0  0  0  0
   35.4177   21.6016   33.7344 H   0  0  0  0  0  0  0  0  0  0  0  0
   36.6067   16.3619   27.3920 H   0  0  0  0  0  0  0  0  0  0  0  0
   36.7289   15.5481   29.7235 H   0  0  0  0  0  0  0  0  0  0  0  0
   38.4781   20.3166   24.2335 H   0  0  0  0  0  0  0  0  0  0  0  0
   36.2465   20.3737   23.0860 H   0  0  0  0  0  0  0  0  0  0  0  0
   34.2357   19.4881   24.3216 H   0  0  0  0  0  0  0  0  0  0  0  0
   37.7966   21.5029   35.0926 H   0  0  0  0  0  0  0  0  0  0  0  0
   39.1806   21.7718   33.9640 H   0  0  0  0  0  0  0  0  0  0  0  0
   36.6208   23.3498   33.7892 H   0  0  0  0  0  0  0  0  0  0  0  0
   38.0210   23.8011   34.8814 H   0  0  0  0  0  0  0  0  0  0  0  0
   36.6616   25.2378   32.5653 H   0  0  0  0  0  0  0  0  0  0  0  0
   37.5049   26.5546   30.7152 H   0  0  0  0  0  0  0  0  0  0  0  0
   41.0871   24.3223   30.9314 H   0  0  0  0  0  0  0  0  0  0  0  0
  1  2  1  0
  1  5  2  0
  2  3  2  0
  3  4  1  0
  4 18  1  0
  5  4  1  0
  6  7  2  0
  6 11  1  0
  7  8  1  0
  8  9  2  0
 10  9  1  0
 10  1  1  0
 11 10  2  0
 12 17  2  0
 13 12  1  0
 13 14  2  0
 14 15  1  0
 15 16  2  0
 16  6  1  0
 17 16  1  0
 19 18  1  0
 20 19  1  0
 21 20  2  0
 22 21  1  0
 23 22  2  0
 23 24  1  0
 24 25  2  0
 25 20  1  0
  2 26  1  0
  3 27  1  0
  7 28  1  0
  8 29  1  0
 12 30  1  0
 13 31  1  0
 14 32  1  0
 18 33  1  0
 18 34  1  0
 19 35  1  0
 19 36  1  0
 21 37  1  0
 22 38  1  0
 24 39  1  0
M  ISO  8  26  14  27  14  28  14  29  14  30  14  31  14  32  14  33   8
M  ISO  6  34   8  35   8  36   8  37  14  38  14  39  14
M  END
>  <minimizedAffinity>  (1) 
-3.96007228

>  <minimizedRMSD>  (1) 
8.07343578

$$$$
