
     RDKit          3D

 50 54  0  0  0  0  0  0  0  0999 V2000
   38.2410   22.2820   31.2380 C   0  0  0  0  0  0  0  0  0  0  0  0
   38.7450   21.2550   30.4200 C   0  0  0  0  0  0  0  0  0  0  0  0
   39.2720   21.8530   29.2860 C   0  0  0  0  0  0  0  0  0  0  0  0
   39.0800   23.1830   29.4400 N   0  0  0  0  0  0  0  0  0  0  0  0
   38.4710   23.4370   30.5940 N   0  0  0  0  0  0  0  0  0  0  0  0
   37.5240   21.9680   34.8630 C   0  0  0  0  0  0  0  0  0  0  0  0
   36.3870   21.2000   34.8400 C   0  0  0  0  0  0  0  0  0  0  0  0
   35.8720   20.7960   33.6280 C   0  0  0  0  0  0  0  0  0  0  0  0
   36.4920   21.1600   32.4820 N   0  0  0  0  0  0  0  0  0  0  0  0
   37.6250   21.9240   32.5100 C   0  0  0  0  0  0  0  0  0  0  0  0
   38.1400   22.3280   33.7100 N   0  0  0  0  0  0  0  0  0  0  0  0
   39.9080   22.7270   37.5570 C   0  0  0  0  0  0  0  0  0  0  0  0
   39.1090   23.3140   38.5050 C   0  0  0  0  0  0  0  0  0  0  0  0
   37.7430   23.4480   38.2160 C   0  0  0  0  0  0  0  0  0  0  0  0
   37.2820   22.9920   37.0140 N   0  0  0  0  0  0  0  0  0  0  0  0
   38.1110   22.4200   36.1130 C   0  0  0  0  0  0  0  0  0  0  0  0
   39.4080   22.2920   36.3860 N   0  0  0  0  0  0  0  0  0  0  0  0
   39.4980   24.1530   28.4570 C   0  0  0  0  0  0  0  0  0  0  0  0
   39.6410   23.4100   27.1390 C   0  0  0  0  0  0  0  0  0  0  0  0
   40.0300   24.4920   26.1490 C   0  0  0  0  0  0  0  0  0  0  0  0
   40.1890   24.3240   24.8200 N   0  0  0  0  0  0  0  0  0  0  0  0
   40.5270   25.4740   24.2740 O   0  0  0  0  0  0  0  0  0  0  0  0
   40.5950   26.3900   25.2000 C   0  0  0  0  0  0  0  0  0  0  0  0
   40.2880   25.7950   26.3720 N   0  0  0  0  0  0  0  0  0  0  0  0
   40.9160   27.7640   25.1060 N   0  0  0  0  0  0  0  0  0  0  0  0
   41.2600   28.6250   26.2250 C   0  0  0  0  0  0  0  0  0  0  0  0
   40.3120   29.7760   26.3650 C   0  0  0  0  0  0  0  0  0  0  0  0
   39.5830   30.0510   25.1420 N   0  0  0  0  0  0  0  0  0  0  0  0
   40.4140   29.8580   23.9770 C   0  0  0  0  0  0  0  0  0  0  0  0
   40.9290   28.4640   23.8260 C   0  0  0  0  0  0  0  0  0  0  0  0
   38.7247   20.1773   30.6394 H   0  0  0  0  0  0  0  0  0  0  0  0
   39.7497   21.3481   28.4334 H   0  0  0  0  0  0  0  0  0  0  0  0
   35.8924   20.9103   35.7789 H   0  0  0  0  0  0  0  0  0  0  0  0
   34.9611   20.1804   33.5921 H   0  0  0  0  0  0  0  0  0  0  0  0
   40.9829   22.6091   37.7589 H   0  0  0  0  0  0  0  0  0  0  0  0
   39.5255   23.6677   39.4597 H   0  0  0  0  0  0  0  0  0  0  0  0
   37.0578   23.9104   38.9418 H   0  0  0  0  0  0  0  0  0  0  0  0
   38.7426   24.9472   28.3638 H   0  0  0  0  0  0  0  0  0  0  0  0
   40.4476   24.6257   28.7483 H   0  0  0  0  0  0  0  0  0  0  0  0
   40.4249   22.6413   27.2064 H   0  0  0  0  0  0  0  0  0  0  0  0
   38.7212   22.8810   26.8488 H   0  0  0  0  0  0  0  0  0  0  0  0
   41.2348   28.0306   27.1502 H   0  0  0  0  0  0  0  0  0  0  0  0
   42.2639   29.0347   26.0399 H   0  0  0  0  0  0  0  0  0  0  0  0
   39.5894   29.5422   27.1607 H   0  0  0  0  0  0  0  0  0  0  0  0
   40.9066   30.6695   26.6060 H   0  0  0  0  0  0  0  0  0  0  0  0
   38.7736   29.4166   25.0848 H   0  0  0  0  0  0  0  0  0  0  0  0
   39.8221   30.1073   23.0840 H   0  0  0  0  0  0  0  0  0  0  0  0
   41.2907   30.5113   24.0980 H   0  0  0  0  0  0  0  0  0  0  0  0
   40.2934   27.9204   23.1115 H   0  0  0  0  0  0  0  0  0  0  0  0
   41.9654   28.5093   23.4601 H   0  0  0  0  0  0  0  0  0  0  0  0
  1 10  1  0
  2  1  1  0
  3  4  1  0
  3  2  2  0
  4  5  1  0
  5  1  2  0
  6 16  1  0
  7  6  2  0
  8  7  1  0
  9 10  1  0
  9  8  2  0
 10 11  2  0
 11  6  1  0
 12 13  2  0
 14 13  1  0
 15 14  2  0
 16 17  2  0
 16 15  1  0
 17 12  1  0
 18  4  1  0
 19 18  1  0
 20 24  1  0
 20 19  1  0
 21 20  2  0
 22 21  1  0
 22 23  1  0
 23 24  2  0
 25 23  1  0
 25 26  1  0
 26 27  1  0
 28 27  1  0
 29 28  1  0
 30 29  1  0
 30 25  1  0
  2 31  1  0
  3 32  1  0
  7 33  1  0
  8 34  1  0
 12 35  1  0
 13 36  1  0
 14 37  1  0
 18 38  1  0
 18 39  1  0
 19 40  1  0
 19 41  1  0
 26 42  1  0
 26 43  1  0
 27 44  1  0
 27 45  1  0
 28 46  1  0
 29 47  1  0
 29 48  1  0
 30 49  1  0
 30 50  1  0
M  ISO  8  31  14  32  14  33  14  34  14  35  14  36  14  37  14  38   8
M  ISO  8  39   8  40   8  41   8  42  13  43  13  44  13  45  13  46   5
M  ISO  4  47  13  48  13  49  13  50  13
M  END
>  <minimizedAffinity>  (1) 
-5.01612282

>  <minimizedRMSD>  (1) 
0.221055731

$$$$
