
     RDKit          3D

 49 53  0  0  0  0  0  0  0  0999 V2000
   38.1970   22.1100   31.2900 C   0  0  0  0  0  0  0  0  0  0  0  0
   38.6760   21.0460   30.5000 C   0  0  0  0  0  0  0  0  0  0  0  0
   39.2110   21.6090   29.3450 C   0  0  0  0  0  0  0  0  0  0  0  0
   39.0480   22.9430   29.4600 N   0  0  0  0  0  0  0  0  0  0  0  0
   38.4510   23.2310   30.6070 N   0  0  0  0  0  0  0  0  0  0  0  0
   37.4840   21.9230   34.9300 C   0  0  0  0  0  0  0  0  0  0  0  0
   36.3260   21.1730   34.9320 C   0  0  0  0  0  0  0  0  0  0  0  0
   35.7970   20.7380   33.7240 C   0  0  0  0  0  0  0  0  0  0  0  0
   36.4220   21.0570   32.5670 N   0  0  0  0  0  0  0  0  0  0  0  0
   37.5720   21.8030   32.5830 C   0  0  0  0  0  0  0  0  0  0  0  0
   38.0970   22.2330   33.7660 N   0  0  0  0  0  0  0  0  0  0  0  0
   39.9030   22.7480   37.5750 C   0  0  0  0  0  0  0  0  0  0  0  0
   39.1100   23.3260   38.5280 C   0  0  0  0  0  0  0  0  0  0  0  0
   37.7410   23.4330   38.2630 C   0  0  0  0  0  0  0  0  0  0  0  0
   37.2420   22.9610   37.0710 N   0  0  0  0  0  0  0  0  0  0  0  0
   38.0720   22.3970   36.1600 C   0  0  0  0  0  0  0  0  0  0  0  0
   39.3860   22.2930   36.4130 N   0  0  0  0  0  0  0  0  0  0  0  0
   39.4790   23.8800   28.4570 C   0  0  0  0  0  0  0  0  0  0  0  0
   39.7750   23.0760   27.1940 C   0  0  0  0  0  0  0  0  0  0  0  0
   40.0240   24.1160   26.1370 C   0  0  0  0  0  0  0  0  0  0  0  0
   40.1830   23.9160   24.8210 N   0  0  0  0  0  0  0  0  0  0  0  0
   40.3830   25.0490   24.1980 O   0  0  0  0  0  0  0  0  0  0  0  0
   40.3620   26.0340   25.0820 C   0  0  0  0  0  0  0  0  0  0  0  0
   40.1400   25.4440   26.2770 N   0  0  0  0  0  0  0  0  0  0  0  0
   40.5390   27.4200   24.8180 N   0  0  0  0  0  0  0  0  0  0  0  0
   40.4360   27.8760   23.4370 C   0  0  0  0  0  0  0  0  0  0  0  0
   40.7250   29.3320   23.2970 C   0  0  0  0  0  0  0  0  0  0  0  0
   40.4120   30.0750   24.4330 O   0  0  0  0  0  0  0  0  0  0  0  0
   41.2980   29.6600   25.4340 C   0  0  0  0  0  0  0  0  0  0  0  0
   40.8120   28.3160   25.9180 C   0  0  0  0  0  0  0  0  0  0  0  0
   38.6349   19.9752   30.7486 H   0  0  0  0  0  0  0  0  0  0  0  0
   39.6750   21.0721   28.5045 H   0  0  0  0  0  0  0  0  0  0  0  0
   35.8273   20.9224   35.8799 H   0  0  0  0  0  0  0  0  0  0  0  0
   34.8754   20.1377   33.7077 H   0  0  0  0  0  0  0  0  0  0  0  0
   40.9833   22.6518   37.7586 H   0  0  0  0  0  0  0  0  0  0  0  0
   39.5356   23.6949   39.4728 H   0  0  0  0  0  0  0  0  0  0  0  0
   37.0679   23.8914   39.0025 H   0  0  0  0  0  0  0  0  0  0  0  0
   38.6843   24.6146   28.2598 H   0  0  0  0  0  0  0  0  0  0  0  0
   40.3713   24.4299   28.7907 H   0  0  0  0  0  0  0  0  0  0  0  0
   40.6641   22.4437   27.3348 H   0  0  0  0  0  0  0  0  0  0  0  0
   38.9519   22.3967   26.9275 H   0  0  0  0  0  0  0  0  0  0  0  0
   41.1550   27.3125   22.8242 H   0  0  0  0  0  0  0  0  0  0  0  0
   39.4018   27.7054   23.1033 H   0  0  0  0  0  0  0  0  0  0  0  0
   41.7975   29.4548   23.0859 H   0  0  0  0  0  0  0  0  0  0  0  0
   40.0917   29.7093   22.4805 H   0  0  0  0  0  0  0  0  0  0  0  0
   42.3153   29.5699   25.0255 H   0  0  0  0  0  0  0  0  0  0  0  0
   41.3305   30.3877   26.2582 H   0  0  0  0  0  0  0  0  0  0  0  0
   39.8892   28.4586   26.4994 H   0  0  0  0  0  0  0  0  0  0  0  0
   41.6024   27.8678   26.5380 H   0  0  0  0  0  0  0  0  0  0  0  0
  1 10  1  0
  2  1  1  0
  3  4  1  0
  3  2  2  0
  4  5  1  0
  5  1  2  0
  6  7  2  0
  6 16  1  0
  8  7  1  0
  9 10  1  0
  9  8  2  0
 10 11  2  0
 11  6  1  0
 12 13  2  0
 14 13  1  0
 15 14  2  0
 16 17  2  0
 16 15  1  0
 17 12  1  0
 18  4  1  0
 19 18  1  0
 20 24  1  0
 20 19  1  0
 21 20  2  0
 22 21  1  0
 22 23  1  0
 23 24  2  0
 25 23  1  0
 25 30  1  0
 26 25  1  0
 27 26  1  0
 27 28  1  0
 28 29  1  0
 29 30  1  0
  2 31  1  0
  3 32  1  0
  7 33  1  0
  8 34  1  0
 12 35  1  0
 13 36  1  0
 14 37  1  0
 18 38  1  0
 18 39  1  0
 19 40  1  0
 19 41  1  0
 26 42  1  0
 26 43  1  0
 27 44  1  0
 27 45  1  0
 29 46  1  0
 29 47  1  0
 30 48  1  0
 30 49  1  0
M  ISO  8  31  14  32  14  33  14  34  14  35  14  36  14  37  14  38   8
M  ISO  8  39   8  40   8  41   8  42  13  43  13  44  13  45  13  46  13
M  ISO  3  47  13  48  13  49  13
M  END
>  <minimizedAffinity>  (1) 
-4.79638243

>  <minimizedRMSD>  (1) 
0.45937413

$$$$
