
     RDKit          3D

 49 53  0  0  0  0  0  0  0  0999 V2000
   38.1980   21.9560   31.2810 C   0  0  0  0  0  0  0  0  0  0  0  0
   38.7000   20.8620   30.5510 C   0  0  0  0  0  0  0  0  0  0  0  0
   39.2410   21.3750   29.3790 C   0  0  0  0  0  0  0  0  0  0  0  0
   39.0620   22.7220   29.4230 N   0  0  0  0  0  0  0  0  0  0  0  0
   38.4470   23.0480   30.5480 N   0  0  0  0  0  0  0  0  0  0  0  0
   37.4680   21.8880   34.9250 C   0  0  0  0  0  0  0  0  0  0  0  0
   36.2880   21.1820   34.9410 C   0  0  0  0  0  0  0  0  0  0  0  0
   35.7470   20.7360   33.7410 C   0  0  0  0  0  0  0  0  0  0  0  0
   36.3870   21.0020   32.5780 N   0  0  0  0  0  0  0  0  0  0  0  0
   37.5620   21.7060   32.5810 C   0  0  0  0  0  0  0  0  0  0  0  0
   38.0960   22.1460   33.7470 N   0  0  0  0  0  0  0  0  0  0  0  0
   39.9100   22.7480   37.5380 C   0  0  0  0  0  0  0  0  0  0  0  0
   39.1270   23.3410   38.4940 C   0  0  0  0  0  0  0  0  0  0  0  0
   37.7520   23.4400   38.2290 C   0  0  0  0  0  0  0  0  0  0  0  0
   37.2570   22.9540   37.0530 N   0  0  0  0  0  0  0  0  0  0  0  0
   38.0760   22.3760   36.1420 C   0  0  0  0  0  0  0  0  0  0  0  0
   39.3830   22.2810   36.3930 N   0  0  0  0  0  0  0  0  0  0  0  0
   39.4920   23.6070   28.3780 C   0  0  0  0  0  0  0  0  0  0  0  0
   39.6460   22.7690   27.1210 C   0  0  0  0  0  0  0  0  0  0  0  0
   39.9570   23.7720   26.0370 C   0  0  0  0  0  0  0  0  0  0  0  0
   39.9080   23.5610   24.7070 N   0  0  0  0  0  0  0  0  0  0  0  0
   40.2420   24.6560   24.0700 O   0  0  0  0  0  0  0  0  0  0  0  0
   40.5150   25.5950   24.9340 C   0  0  0  0  0  0  0  0  0  0  0  0
   40.3390   25.0510   26.1680 N   0  0  0  0  0  0  0  0  0  0  0  0
   40.9370   26.9960   24.7900 C   0  0  0  0  0  0  0  0  0  0  0  0
   40.3210   27.6710   23.5820 C   0  0  0  0  0  0  0  0  0  0  0  0
   40.7650   29.1170   23.8240 C   0  0  0  0  0  0  0  0  0  0  0  0
   40.7950   29.2720   25.3310 C   0  0  0  0  0  0  0  0  0  0  0  0
   40.4540   27.9040   25.8950 C   0  0  0  0  0  0  0  0  0  0  0  0
   38.6697   19.8042   30.8511 H   0  0  0  0  0  0  0  0  0  0  0  0
   39.7212   20.8024   28.5718 H   0  0  0  0  0  0  0  0  0  0  0  0
   35.7780   20.9726   35.8929 H   0  0  0  0  0  0  0  0  0  0  0  0
   34.8039   20.1699   33.7362 H   0  0  0  0  0  0  0  0  0  0  0  0
   40.9920   22.6523   37.7114 H   0  0  0  0  0  0  0  0  0  0  0  0
   39.5585   23.7237   39.4307 H   0  0  0  0  0  0  0  0  0  0  0  0
   37.0783   23.9057   38.9634 H   0  0  0  0  0  0  0  0  0  0  0  0
   38.7410   24.3945   28.2172 H   0  0  0  0  0  0  0  0  0  0  0  0
   40.4416   24.0948   28.6431 H   0  0  0  0  0  0  0  0  0  0  0  0
   40.4694   22.0482   27.2322 H   0  0  0  0  0  0  0  0  0  0  0  0
   38.7459   22.1770   26.8988 H   0  0  0  0  0  0  0  0  0  0  0  0
   42.0317   26.8942   24.7550 H   0  0  0  0  0  0  0  0  0  0  0  0
   39.2251   27.5767   23.5772 H   0  0  0  0  0  0  0  0  0  0  0  0
   40.6265   27.2505   22.6126 H   0  0  0  0  0  0  0  0  0  0  0  0
   41.7640   29.2910   23.3976 H   0  0  0  0  0  0  0  0  0  0  0  0
   40.0883   29.8418   23.3479 H   0  0  0  0  0  0  0  0  0  0  0  0
   41.7956   29.5849   25.6639 H   0  0  0  0  0  0  0  0  0  0  0  0
   40.0848   30.0392   25.6731 H   0  0  0  0  0  0  0  0  0  0  0  0
   39.3719   27.7956   26.0605 H   0  0  0  0  0  0  0  0  0  0  0  0
   40.9062   27.6972   26.8762 H   0  0  0  0  0  0  0  0  0  0  0  0
  1 10  1  0
  2  1  1  0
  3  4  1  0
  3  2  2  0
  4  5  1  0
  5  1  2  0
  6  7  2  0
  6 16  1  0
  8  7  1  0
  9 10  1  0
  9  8  2  0
 10 11  2  0
 11  6  1  0
 12 13  2  0
 14 13  1  0
 15 14  2  0
 16 17  2  0
 16 15  1  0
 17 12  1  0
 18  4  1  0
 19 18  1  0
 20 24  1  0
 20 19  1  0
 21 20  2  0
 22 21  1  0
 22 23  1  0
 23 24  2  0
 25 23  1  0
 25 29  1  0
 26 27  1  0
 26 25  1  0
 27 28  1  0
 28 29  1  0
  2 30  1  0
  3 31  1  0
  7 32  1  0
  8 33  1  0
 12 34  1  0
 13 35  1  0
 14 36  1  0
 18 37  1  0
 18 38  1  0
 19 39  1  0
 19 40  1  0
 25 41  1  0
 26 42  1  0
 26 43  1  0
 27 44  1  0
 27 45  1  0
 28 46  1  0
 28 47  1  0
 29 48  1  0
 29 49  1  0
M  ISO  8  30  14  31  14  32  14  33  14  34  14  35  14  36  14  37   8
M  ISO  8  38   8  39   8  40   8  41  13  42  13  43  13  44  13  45  13
M  ISO  4  46  13  47  13  48  13  49  13
M  END
>  <minimizedAffinity>  (1) 
-4.72430372

>  <minimizedRMSD>  (1) 
0.554412425

$$$$
