
     RDKit          3D

 43 47  0  0  0  0  0  0  0  0999 V2000
   38.2380   22.2950   31.2580 C   0  0  0  0  0  0  0  0  0  0  0  0
   38.7110   21.2910   30.4100 C   0  0  0  0  0  0  0  0  0  0  0  0
   39.2460   21.9120   29.2860 C   0  0  0  0  0  0  0  0  0  0  0  0
   39.0870   23.2440   29.4750 N   0  0  0  0  0  0  0  0  0  0  0  0
   38.4920   23.4750   30.6400 N   0  0  0  0  0  0  0  0  0  0  0  0
   37.5150   21.9610   34.8810 C   0  0  0  0  0  0  0  0  0  0  0  0
   36.3850   21.1870   34.8580 C   0  0  0  0  0  0  0  0  0  0  0  0
   35.8730   20.7810   33.6320 C   0  0  0  0  0  0  0  0  0  0  0  0
   36.4940   21.1550   32.4870 N   0  0  0  0  0  0  0  0  0  0  0  0
   37.6210   21.9280   32.5240 C   0  0  0  0  0  0  0  0  0  0  0  0
   38.1090   22.3170   33.7300 N   0  0  0  0  0  0  0  0  0  0  0  0
   39.8930   22.7430   37.5840 C   0  0  0  0  0  0  0  0  0  0  0  0
   39.0710   23.3170   38.5370 C   0  0  0  0  0  0  0  0  0  0  0  0
   37.7180   23.4280   38.2400 C   0  0  0  0  0  0  0  0  0  0  0  0
   37.2560   22.9730   37.0410 N   0  0  0  0  0  0  0  0  0  0  0  0
   38.0950   22.4140   36.1250 C   0  0  0  0  0  0  0  0  0  0  0  0
   39.3970   22.3070   36.4110 N   0  0  0  0  0  0  0  0  0  0  0  0
   39.5190   24.2230   28.5210 C   0  0  0  0  0  0  0  0  0  0  0  0
   39.6780   23.5080   27.1860 C   0  0  0  0  0  0  0  0  0  0  0  0
   40.0370   24.6040   26.2130 C   0  0  0  0  0  0  0  0  0  0  0  0
   40.2970   24.4740   24.8990 N   0  0  0  0  0  0  0  0  0  0  0  0
   40.5720   25.6350   24.3630 O   0  0  0  0  0  0  0  0  0  0  0  0
   40.5020   26.5640   25.3000 C   0  0  0  0  0  0  0  0  0  0  0  0
   40.1720   25.9250   26.4430 N   0  0  0  0  0  0  0  0  0  0  0  0
   40.6980   28.0090   25.3250 C   0  0  0  0  0  0  0  0  0  0  0  0
   41.3540   28.8810   24.4820 C   0  0  0  0  0  0  0  0  0  0  0  0
   41.1820   30.1470   25.0510 C   0  0  0  0  0  0  0  0  0  0  0  0
   40.4340   29.9600   26.2000 C   0  0  0  0  0  0  0  0  0  0  0  0
   40.1630   28.6850   26.3340 O   0  0  0  0  0  0  0  0  0  0  0  0
   38.6683   20.2078   30.5967 H   0  0  0  0  0  0  0  0  0  0  0  0
   39.7065   21.4195   28.4168 H   0  0  0  0  0  0  0  0  0  0  0  0
   35.8909   20.8916   35.7953 H   0  0  0  0  0  0  0  0  0  0  0  0
   34.9671   20.1584   33.5908 H   0  0  0  0  0  0  0  0  0  0  0  0
   40.9691   22.6412   37.7879 H   0  0  0  0  0  0  0  0  0  0  0  0
   39.4742   23.6732   39.4965 H   0  0  0  0  0  0  0  0  0  0  0  0
   37.0258   23.8791   38.9662 H   0  0  0  0  0  0  0  0  0  0  0  0
   38.7680   25.0220   28.4339 H   0  0  0  0  0  0  0  0  0  0  0  0
   40.4680   24.6827   28.8343 H   0  0  0  0  0  0  0  0  0  0  0  0
   40.4802   22.7572   27.2398 H   0  0  0  0  0  0  0  0  0  0  0  0
   38.7676   22.9663   26.8897 H   0  0  0  0  0  0  0  0  0  0  0  0
   41.8973   28.6335   23.5581 H   0  0  0  0  0  0  0  0  0  0  0  0
   41.5653   31.1019   24.6622 H   0  0  0  0  0  0  0  0  0  0  0  0
   40.1173   30.7551   26.8910 H   0  0  0  0  0  0  0  0  0  0  0  0
  1 10  1  0
  2  1  1  0
  3  4  1  0
  3  2  2  0
  4  5  1  0
  5  1  2  0
  6 16  1  0
  7  6  2  0
  8  7  1  0
  9 10  1  0
  9  8  2  0
 10 11  2  0
 11  6  1  0
 12 13  2  0
 14 13  1  0
 15 14  2  0
 16 17  2  0
 16 15  1  0
 17 12  1  0
 18  4  1  0
 19 18  1  0
 20 24  1  0
 20 19  1  0
 21 20  2  0
 22 21  1  0
 22 23  1  0
 23 25  1  0
 23 24  2  0
 25 29  1  0
 26 27  1  0
 26 25  2  0
 27 28  2  0
 28 29  1  0
  2 30  1  0
  3 31  1  0
  7 32  1  0
  8 33  1  0
 12 34  1  0
 13 35  1  0
 14 36  1  0
 18 37  1  0
 18 38  1  0
 19 39  1  0
 19 40  1  0
 26 41  1  0
 27 42  1  0
 28 43  1  0
M  ISO  8  30  14  31  14  32  14  33  14  34  14  35  14  36  14  37   8
M  ISO  6  38   8  39   8  40   8  41  14  42  14  43  14
M  END
>  <minimizedAffinity>  (1) 
-4.58616638

>  <minimizedRMSD>  (1) 
0.522814155

$$$$
