
     RDKit          3D

 43 47  0  0  0  0  0  0  0  0999 V2000
   38.2210   22.0990   31.2380 C   0  0  0  0  0  0  0  0  0  0  0  0
   38.7880   21.0340   30.5100 C   0  0  0  0  0  0  0  0  0  0  0  0
   39.3160   21.5690   29.3350 C   0  0  0  0  0  0  0  0  0  0  0  0
   39.0610   22.9030   29.3860 N   0  0  0  0  0  0  0  0  0  0  0  0
   38.4190   23.2000   30.5070 N   0  0  0  0  0  0  0  0  0  0  0  0
   37.4960   21.9210   34.8710 C   0  0  0  0  0  0  0  0  0  0  0  0
   36.3270   21.2030   34.8720 C   0  0  0  0  0  0  0  0  0  0  0  0
   35.7930   20.7860   33.6710 C   0  0  0  0  0  0  0  0  0  0  0  0
   36.4270   21.0900   32.5140 N   0  0  0  0  0  0  0  0  0  0  0  0
   37.5920   21.8070   32.5250 C   0  0  0  0  0  0  0  0  0  0  0  0
   38.1200   22.2170   33.7050 N   0  0  0  0  0  0  0  0  0  0  0  0
   39.9310   22.7180   37.5160 C   0  0  0  0  0  0  0  0  0  0  0  0
   39.1370   23.3250   38.4770 C   0  0  0  0  0  0  0  0  0  0  0  0
   37.7710   23.4500   38.1990 C   0  0  0  0  0  0  0  0  0  0  0  0
   37.2840   22.9760   37.0070 N   0  0  0  0  0  0  0  0  0  0  0  0
   38.1130   22.3900   36.1050 C   0  0  0  0  0  0  0  0  0  0  0  0
   39.4100   22.2710   36.3660 N   0  0  0  0  0  0  0  0  0  0  0  0
   39.4530   23.8150   28.3480 C   0  0  0  0  0  0  0  0  0  0  0  0
   39.5420   23.0140   27.0630 C   0  0  0  0  0  0  0  0  0  0  0  0
   39.9720   24.0250   26.0150 C   0  0  0  0  0  0  0  0  0  0  0  0
   39.9270   23.8620   24.6860 N   0  0  0  0  0  0  0  0  0  0  0  0
   40.3800   24.9460   24.0930 O   0  0  0  0  0  0  0  0  0  0  0  0
   40.7240   25.8250   24.9980 C   0  0  0  0  0  0  0  0  0  0  0  0
   40.4700   25.2540   26.2040 N   0  0  0  0  0  0  0  0  0  0  0  0
   41.2840   27.1950   24.8840 C   0  0  0  0  0  0  0  0  0  0  0  0
   40.5620   28.3340   25.5490 C   0  0  0  0  0  0  0  0  0  0  0  0
   40.5710   28.2020   24.0390 C   0  0  0  0  0  0  0  0  0  0  0  0
   38.8101   19.9766   30.8123 H   0  0  0  0  0  0  0  0  0  0  0  0
   39.8328   21.0232   28.5319 H   0  0  0  0  0  0  0  0  0  0  0  0
   35.8219   20.9629   35.8192 H   0  0  0  0  0  0  0  0  0  0  0  0
   34.8565   20.2092   33.6531 H   0  0  0  0  0  0  0  0  0  0  0  0
   41.0089   22.6014   37.7016 H   0  0  0  0  0  0  0  0  0  0  0  0
   39.5641   23.6940   39.4212 H   0  0  0  0  0  0  0  0  0  0  0  0
   37.0958   23.9227   38.9275 H   0  0  0  0  0  0  0  0  0  0  0  0
   38.7036   24.6135   28.2441 H   0  0  0  0  0  0  0  0  0  0  0  0
   40.4185   24.2863   28.5840 H   0  0  0  0  0  0  0  0  0  0  0  0
   40.2869   22.2100   27.1566 H   0  0  0  0  0  0  0  0  0  0  0  0
   38.5902   22.5252   26.8075 H   0  0  0  0  0  0  0  0  0  0  0  0
   42.3115   26.8038   24.9194 H   0  0  0  0  0  0  0  0  0  0  0  0
   39.6369   28.1462   26.1137 H   0  0  0  0  0  0  0  0  0  0  0  0
   40.8372   29.1213   26.2663 H   0  0  0  0  0  0  0  0  0  0  0  0
   41.1459   28.9134   23.4279 H   0  0  0  0  0  0  0  0  0  0  0  0
   39.7987   28.1550   23.2572 H   0  0  0  0  0  0  0  0  0  0  0  0
  1 10  1  0
  2  1  1  0
  3  4  1  0
  3  2  2  0
  4  5  1  0
  5  1  2  0
  6  7  2  0
  6 16  1  0
  8  7  1  0
  9 10  1  0
  9  8  2  0
 10 11  2  0
 11  6  1  0
 12 13  2  0
 14 13  1  0
 15 14  2  0
 16 17  2  0
 16 15  1  0
 17 12  1  0
 18  4  1  0
 19 18  1  0
 20 24  1  0
 20 19  1  0
 21 20  2  0
 22 21  1  0
 22 23  1  0
 23 24  2  0
 25 23  1  0
 25 26  1  0
 27 25  1  0
 27 26  1  0
  2 28  1  0
  3 29  1  0
  7 30  1  0
  8 31  1  0
 12 32  1  0
 13 33  1  0
 14 34  1  0
 18 35  1  0
 18 36  1  0
 19 37  1  0
 19 38  1  0
 25 39  1  0
 26 40  1  0
 26 41  1  0
 27 42  1  0
 27 43  1  0
M  ISO  8  28  14  29  14  30  14  31  14  32  14  33  14  34  14  35   8
M  ISO  8  36   8  37   8  38   8  39  13  40  13  41  13  42  13  43  13
M  END
>  <minimizedAffinity>  (1) 
-4.52090836

>  <minimizedRMSD>  (1) 
0.216782749

$$$$
