
     RDKit          3D

 38 41  0  0  0  0  0  0  0  0999 V2000
   38.2460   22.1470   31.2300 C   0  0  0  0  0  0  0  0  0  0  0  0
   38.8060   21.0980   30.4770 C   0  0  0  0  0  0  0  0  0  0  0  0
   39.3210   21.6720   29.3150 C   0  0  0  0  0  0  0  0  0  0  0  0
   39.0710   23.0070   29.3900 N   0  0  0  0  0  0  0  0  0  0  0  0
   38.4420   23.2770   30.5140 N   0  0  0  0  0  0  0  0  0  0  0  0
   37.5250   21.9470   34.8510 C   0  0  0  0  0  0  0  0  0  0  0  0
   36.3600   21.2080   34.8480 C   0  0  0  0  0  0  0  0  0  0  0  0
   35.8340   20.7890   33.6400 C   0  0  0  0  0  0  0  0  0  0  0  0
   36.4710   21.1110   32.4910 N   0  0  0  0  0  0  0  0  0  0  0  0
   37.6260   21.8450   32.5080 C   0  0  0  0  0  0  0  0  0  0  0  0
   38.1410   22.2540   33.6950 N   0  0  0  0  0  0  0  0  0  0  0  0
   39.9320   22.7070   37.5220 C   0  0  0  0  0  0  0  0  0  0  0  0
   39.1490   23.3040   38.4740 C   0  0  0  0  0  0  0  0  0  0  0  0
   37.7860   23.4440   38.1910 C   0  0  0  0  0  0  0  0  0  0  0  0
   37.2760   22.9920   37.0000 N   0  0  0  0  0  0  0  0  0  0  0  0
   38.1140   22.4070   36.0950 C   0  0  0  0  0  0  0  0  0  0  0  0
   39.4230   22.2650   36.3500 N   0  0  0  0  0  0  0  0  0  0  0  0
   39.4710   23.9020   28.3540 C   0  0  0  0  0  0  0  0  0  0  0  0
   39.6050   23.1240   27.0690 C   0  0  0  0  0  0  0  0  0  0  0  0
   39.9850   24.1580   26.0370 C   0  0  0  0  0  0  0  0  0  0  0  0
   40.0260   23.9740   24.7040 N   0  0  0  0  0  0  0  0  0  0  0  0
   40.4010   25.1000   24.1130 O   0  0  0  0  0  0  0  0  0  0  0  0
   40.6060   26.0120   25.0230 C   0  0  0  0  0  0  0  0  0  0  0  0
   40.3520   25.4450   26.2260 N   0  0  0  0  0  0  0  0  0  0  0  0
   41.0300   27.3770   24.7350 C   0  0  0  0  0  0  0  0  0  0  0  0
   40.3130   28.0030   23.8880 O   0  0  0  0  0  0  0  0  0  0  0  0
   38.8323   20.0331   30.7515 H   0  0  0  0  0  0  0  0  0  0  0  0
   39.8316   21.1459   28.4949 H   0  0  0  0  0  0  0  0  0  0  0  0
   35.8569   20.9558   35.7931 H   0  0  0  0  0  0  0  0  0  0  0  0
   34.9059   20.1991   33.6135 H   0  0  0  0  0  0  0  0  0  0  0  0
   41.0075   22.5834   37.7168 H   0  0  0  0  0  0  0  0  0  0  0  0
   39.5750   23.6595   39.4238 H   0  0  0  0  0  0  0  0  0  0  0  0
   37.1201   23.9186   38.9267 H   0  0  0  0  0  0  0  0  0  0  0  0
   38.7132   24.6901   28.2324 H   0  0  0  0  0  0  0  0  0  0  0  0
   40.4331   24.3686   28.6121 H   0  0  0  0  0  0  0  0  0  0  0  0
   40.3893   22.3580   27.1586 H   0  0  0  0  0  0  0  0  0  0  0  0
   38.6796   22.5910   26.8051 H   0  0  0  0  0  0  0  0  0  0  0  0
   41.9075   27.8344   25.2154 H   0  0  0  0  0  0  0  0  0  0  0  0
  1 10  1  0
  2  1  1  0
  3  4  1  0
  3  2  2  0
  4  5  1  0
  5  1  2  0
  6 16  1  0
  7  6  2  0
  8  7  1  0
  9 10  1  0
  9  8  2  0
 10 11  2  0
 11  6  1  0
 12 13  2  0
 14 13  1  0
 15 14  2  0
 16 17  2  0
 16 15  1  0
 17 12  1  0
 18  4  1  0
 19 18  1  0
 20 24  1  0
 20 19  1  0
 21 20  2  0
 22 21  1  0
 22 23  1  0
 23 24  2  0
 25 23  1  0
 26 25  2  0
  2 27  1  0
  3 28  1  0
  7 29  1  0
  8 30  1  0
 12 31  1  0
 13 32  1  0
 14 33  1  0
 18 34  1  0
 18 35  1  0
 19 36  1  0
 19 37  1  0
 25 38  1  0
M  ISO  8  27  14  28  14  29  14  30  14  31  14  32  14  33  14  34   8
M  ISO  4  35   8  36   8  37   8  38   6
M  END
>  <minimizedAffinity>  (1) 
-4.40791559

>  <minimizedRMSD>  (1) 
0.127854034

$$$$
