
     RDKit          3D

 27 29  0  0  0  0  0  0  0  0999 V2000
   37.3540   25.4300   32.7530 C   0  0  0  0  0  0  0  0  0  0  0  0
   36.9120   26.7250   33.0210 C   0  0  0  0  0  0  0  0  0  0  0  0
   36.9520   27.1770   34.3520 C   0  0  0  0  0  0  0  0  0  0  0  0
   37.4240   26.3190   35.3110 N   0  0  0  0  0  0  0  0  0  0  0  0
   37.8390   25.0830   35.0120 C   0  0  0  0  0  0  0  0  0  0  0  0
   37.8040   24.6420   33.7380 N   0  0  0  0  0  0  0  0  0  0  0  0
   38.3390   24.1700   36.0260 C   0  0  0  0  0  0  0  0  0  0  0  0
   37.5840   23.6370   37.0510 C   0  0  0  0  0  0  0  0  0  0  0  0
   38.3660   22.8360   37.7970 N   0  0  0  0  0  0  0  0  0  0  0  0
   39.6220   22.8370   37.2770 C   0  0  0  0  0  0  0  0  0  0  0  0
   40.7920   22.2090   37.6330 C   0  0  0  0  0  0  0  0  0  0  0  0
   41.9570   22.3890   36.9120 C   0  0  0  0  0  0  0  0  0  0  0  0
   41.9050   23.2120   35.8330 C   0  0  0  0  0  0  0  0  0  0  0  0
   40.7680   23.8840   35.4040 C   0  0  0  0  0  0  0  0  0  0  0  0
   39.6230   23.6640   36.1720 C   0  0  0  0  0  0  0  0  0  0  0  0
   36.4900   28.5620   34.7020 C   0  0  0  0  0  0  0  0  0  0  0  0
   37.3328   25.0512   31.7205 H   0  0  0  0  0  0  0  0  0  0  0  0
   36.5424   27.3747   32.2140 H   0  0  0  0  0  0  0  0  0  0  0  0
   36.5167   23.8349   37.2290 H   0  0  0  0  0  0  0  0  0  0  0  0
   38.0624   22.3077   38.6274 H   0  0  0  0  0  0  0  0  0  0  0  0
   40.8010   21.5479   38.5121 H   0  0  0  0  0  0  0  0  0  0  0  0
   42.8910   21.8849   37.2010 H   0  0  0  0  0  0  0  0  0  0  0  0
   42.8308   23.3568   35.2570 H   0  0  0  0  0  0  0  0  0  0  0  0
   40.7694   24.5422   34.5226 H   0  0  0  0  0  0  0  0  0  0  0  0
   36.4537   28.6709   35.7960 H   0  0  0  0  0  0  0  0  0  0  0  0
   37.1909   29.2991   34.2832 H   0  0  0  0  0  0  0  0  0  0  0  0
   35.4869   28.7307   34.2832 H   0  0  0  0  0  0  0  0  0  0  0  0
  1  2  2  0
  1  6  1  0
  2  3  1  0
  3 16  1  0
  3  4  2  0
  5  4  1  0
  5  7  1  0
  6  5  2  0
  7 15  1  0
  7  8  2  0
  8  9  1  0
 10 11  2  0
 10  9  1  0
 12 11  1  0
 13 12  2  0
 14 13  1  0
 14 15  2  0
 15 10  1  0
  1 17  1  0
  2 18  1  0
  8 19  1  0
  9 20  1  0
 11 21  1  0
 12 22  1  0
 13 23  1  0
 14 24  1  0
 16 25  1  0
 16 26  1  0
 16 27  1  0
M  ISO  8  17  14  18  14  19  14  20   9  21  14  22  14  23  14  24  14
M  ISO  3  25   8  26   8  27   8
M  END
>  <minimizedAffinity>  (1) 
-5.08598185

>  <minimizedRMSD>  (1) 
5.28552437

$$$$
