
     RDKit          3D

 24 25  0  0  0  0  0  0  0  0999 V2000
   40.2200   22.2490   36.8190 C   0  0  0  0  0  0  0  0  0  0  0  0
   39.7690   23.1070   37.8510 C   0  0  0  0  0  0  0  0  0  0  0  0
   38.4200   23.4960   37.8300 C   0  0  0  0  0  0  0  0  0  0  0  0
   37.6330   23.0240   36.8210 N   0  0  0  0  0  0  0  0  0  0  0  0
   38.0930   22.2130   35.8610 C   0  0  0  0  0  0  0  0  0  0  0  0
   39.3820   21.8290   35.8610 N   0  0  0  0  0  0  0  0  0  0  0  0
   37.2730   21.7190   34.8040 N   0  0  0  0  0  0  0  0  0  0  0  0
   37.6500   21.9070   33.5210 C   0  0  0  0  0  0  0  0  0  0  0  0
   36.7930   21.3930   32.5440 C   0  0  0  0  0  0  0  0  0  0  0  0
   35.6360   20.7370   32.8950 C   0  0  0  0  0  0  0  0  0  0  0  0
   34.7800   20.2230   31.8920 N   0  0  0  0  0  0  0  0  0  0  0  0
   35.3170   20.5820   34.2030 N   0  0  0  0  0  0  0  0  0  0  0  0
   36.1290   21.0700   35.1630 C   0  0  0  0  0  0  0  0  0  0  0  0
   35.8580   20.9410   36.4020 O   0  0  0  0  0  0  0  0  0  0  0  0
   37.8770   24.3980   38.8860 C   0  0  0  0  0  0  0  0  0  0  0  0
   41.2705   21.9233   36.8033 H   0  0  0  0  0  0  0  0  0  0  0  0
   40.4507   23.4562   38.6406 H   0  0  0  0  0  0  0  0  0  0  0  0
   38.5790   22.4348   33.2597 H   0  0  0  0  0  0  0  0  0  0  0  0
   37.0470   21.5146   31.4806 H   0  0  0  0  0  0  0  0  0  0  0  0
   33.9139   19.7320   32.1561 H   0  0  0  0  0  0  0  0  0  0  0  0
   35.0231   20.3399   30.8979 H   0  0  0  0  0  0  0  0  0  0  0  0
   38.1223   23.9906   39.8779 H   0  0  0  0  0  0  0  0  0  0  0  0
   38.3236   25.3976   38.7795 H   0  0  0  0  0  0  0  0  0  0  0  0
   36.7846   24.4712   38.7795 H   0  0  0  0  0  0  0  0  0  0  0  0
  1  2  2  0
  3  2  1  0
  3 15  1  0
  4  3  2  0
  5  4  1  0
  6  5  2  0
  6  1  1  0
  7 13  1  0
  7  5  1  0
  8  7  1  0
  9 10  1  0
  9  8  2  0
 10 12  2  0
 11 10  1  0
 12 13  1  0
 13 14  2  0
  1 16  1  0
  2 17  1  0
  8 18  1  0
  9 19  1  0
 11 20  1  0
 11 21  1  0
 15 22  1  0
 15 23  1  0
 15 24  1  0
M  ISO  7  16  14  17  14  18  14  19  14  22   8  23   8  24   8
M  END
>  <minimizedAffinity>  (1) 
-4.82449961

>  <minimizedRMSD>  (1) 
1.28309739

$$$$
