
     RDKit          3D

 20 21  0  0  0  0  0  0  0  0999 V2000
   40.2140   22.2220   36.7770 C   0  0  0  0  0  0  0  0  0  0  0  0
   39.7680   23.0800   37.7990 C   0  0  0  0  0  0  0  0  0  0  0  0
   38.4310   23.4780   37.7860 C   0  0  0  0  0  0  0  0  0  0  0  0
   37.6220   23.0070   36.7740 N   0  0  0  0  0  0  0  0  0  0  0  0
   38.0860   22.1920   35.8190 C   0  0  0  0  0  0  0  0  0  0  0  0
   39.3640   21.8010   35.8160 N   0  0  0  0  0  0  0  0  0  0  0  0
   37.1830   21.7250   34.7710 C   0  0  0  0  0  0  0  0  0  0  0  0
   36.0800   20.9090   34.9250 C   0  0  0  0  0  0  0  0  0  0  0  0
   35.5100   20.7150   33.6800 C   0  0  0  0  0  0  0  0  0  0  0  0
   36.2730   21.4100   32.8010 N   0  0  0  0  0  0  0  0  0  0  0  0
   37.2570   22.0030   33.4550 N   0  0  0  0  0  0  0  0  0  0  0  0
   37.8940   24.3850   38.8420 C   0  0  0  0  0  0  0  0  0  0  0  0
   41.2631   21.8917   36.7607 H   0  0  0  0  0  0  0  0  0  0  0  0
   40.4539   23.4271   38.5858 H   0  0  0  0  0  0  0  0  0  0  0  0
   35.7174   20.4864   35.8736 H   0  0  0  0  0  0  0  0  0  0  0  0
   34.6164   20.1165   33.4492 H   0  0  0  0  0  0  0  0  0  0  0  0
   36.1117   21.4669   31.7853 H   0  0  0  0  0  0  0  0  0  0  0  0
   38.1360   23.9763   39.8342 H   0  0  0  0  0  0  0  0  0  0  0  0
   38.3479   25.3813   38.7352 H   0  0  0  0  0  0  0  0  0  0  0  0
   36.8022   24.4661   38.7352 H   0  0  0  0  0  0  0  0  0  0  0  0
  1  2  2  0
  3  2  1  0
  3 12  1  0
  4  3  2  0
  5  4  1  0
  6  5  2  0
  6  1  1  0
  7  8  1  0
  7  5  1  0
  9  8  2  0
 10 11  1  0
 10  9  1  0
 11  7  2  0
  1 13  1  0
  2 14  1  0
  8 15  1  0
  9 16  1  0
 10 17  1  0
 12 18  1  0
 12 19  1  0
 12 20  1  0
M  ISO  8  13  14  14  14  15  14  16  14  17   9  18   8  19   8  20   8
M  END
>  <minimizedAffinity>  (1) 
-3.76433086

>  <minimizedRMSD>  (1) 
1.1092087

$$$$
