
     RDKit          3D

 20 21  0  0  0  0  0  0  0  0999 V2000
   40.2310   22.1860   36.7510 C   0  0  0  0  0  0  0  0  0  0  0  0
   39.7870   23.0370   37.7860 C   0  0  0  0  0  0  0  0  0  0  0  0
   38.4380   23.4540   37.7410 C   0  0  0  0  0  0  0  0  0  0  0  0
   37.6500   23.0110   36.7070 N   0  0  0  0  0  0  0  0  0  0  0  0
   38.1320   22.2020   35.7530 C   0  0  0  0  0  0  0  0  0  0  0  0
   39.4000   21.7910   35.7680 N   0  0  0  0  0  0  0  0  0  0  0  0
   37.2430   21.7650   34.6800 C   0  0  0  0  0  0  0  0  0  0  0  0
   37.3440   22.0590   33.3350 C   0  0  0  0  0  0  0  0  0  0  0  0
   36.3430   21.4800   32.6610 N   0  0  0  0  0  0  0  0  0  0  0  0
   35.5750   20.8010   33.5530 C   0  0  0  0  0  0  0  0  0  0  0  0
   36.1510   20.9970   34.7700 N   0  0  0  0  0  0  0  0  0  0  0  0
   37.8910   24.3590   38.8030 C   0  0  0  0  0  0  0  0  0  0  0  0
   41.2749   21.8392   36.7475 H   0  0  0  0  0  0  0  0  0  0  0  0
   40.4617   23.3612   38.5921 H   0  0  0  0  0  0  0  0  0  0  0  0
   38.1323   22.6788   32.8830 H   0  0  0  0  0  0  0  0  0  0  0  0
   34.6714   20.2126   33.3354 H   0  0  0  0  0  0  0  0  0  0  0  0
   35.7912   20.6031   35.6511 H   0  0  0  0  0  0  0  0  0  0  0  0
   38.1373   23.9515   39.7946 H   0  0  0  0  0  0  0  0  0  0  0  0
   38.3357   25.3595   38.6969 H   0  0  0  0  0  0  0  0  0  0  0  0
   36.7984   24.4303   38.6969 H   0  0  0  0  0  0  0  0  0  0  0  0
  1  2  2  0
  3  2  1  0
  3 12  1  0
  4  3  2  0
  5  6  2  0
  5  4  1  0
  6  1  1  0
  7 11  1  0
  7  5  1  0
  8  7  2  0
  9  8  1  0
  9 10  2  0
 10 11  1  0
  1 13  1  0
  2 14  1  0
  8 15  1  0
 10 16  1  0
 11 17  1  0
 12 18  1  0
 12 19  1  0
 12 20  1  0
M  ISO  8  13  14  14  14  15  14  16  14  17   9  18   8  19   8  20   8
M  END
>  <minimizedAffinity>  (1) 
-3.66334605

>  <minimizedRMSD>  (1) 
1.03319347

$$$$
