
     RDKit          3D

 34 37  0  0  0  0  0  0  0  0999 V2000
   39.1410   26.1230   35.3600 C   0  0  0  0  0  0  0  0  0  0  0  0
   38.3000   26.8000   34.4220 N   0  0  0  0  0  0  0  0  0  0  0  0
   37.0710   27.2590   34.7910 C   0  0  0  0  0  0  0  0  0  0  0  0
   36.4380   27.8720   33.7500 N   0  0  0  0  0  0  0  0  0  0  0  0
   37.2790   27.8060   32.6860 C   0  0  0  0  0  0  0  0  0  0  0  0
   37.2230   28.2330   31.3770 C   0  0  0  0  0  0  0  0  0  0  0  0
   36.1890   28.8330   30.9870 O   0  0  0  0  0  0  0  0  0  0  0  0
   38.2860   27.9830   30.5820 N   0  0  0  0  0  0  0  0  0  0  0  0
   39.3860   27.3340   31.0300 C   0  0  0  0  0  0  0  0  0  0  0  0
   40.3930   27.1770   30.0160 N   0  0  0  0  0  0  0  0  0  0  0  0
   39.4630   26.9030   32.3220 N   0  0  0  0  0  0  0  0  0  0  0  0
   38.4120   27.1480   33.1190 C   0  0  0  0  0  0  0  0  0  0  0  0
   39.6070   22.3940   35.8360 C   0  0  0  0  0  0  0  0  0  0  0  0
   39.7780   23.7720   35.9810 C   0  0  0  0  0  0  0  0  0  0  0  0
   38.9870   24.6440   35.2310 C   0  0  0  0  0  0  0  0  0  0  0  0
   38.0820   24.0850   34.3940 N   0  0  0  0  0  0  0  0  0  0  0  0
   37.9330   22.7510   34.2690 C   0  0  0  0  0  0  0  0  0  0  0  0
   38.6830   21.9190   34.9790 N   0  0  0  0  0  0  0  0  0  0  0  0
   36.9340   22.2110   33.3430 C   0  0  0  0  0  0  0  0  0  0  0  0
   36.2260   21.0740   33.7350 C   0  0  0  0  0  0  0  0  0  0  0  0
   35.3510   20.7660   32.6960 C   0  0  0  0  0  0  0  0  0  0  0  0
   35.5800   21.7390   31.7290 C   0  0  0  0  0  0  0  0  0  0  0  0
   36.5150   22.5610   32.1540 O   0  0  0  0  0  0  0  0  0  0  0  0
   40.1893   26.3955   35.1681 H   0  0  0  0  0  0  0  0  0  0  0  0
   38.8504   26.4225   36.3777 H   0  0  0  0  0  0  0  0  0  0  0  0
   36.6444   27.1492   35.7989 H   0  0  0  0  0  0  0  0  0  0  0  0
   38.2585   28.2970   29.6014 H   0  0  0  0  0  0  0  0  0  0  0  0
   41.2772   26.6977   30.2381 H   0  0  0  0  0  0  0  0  0  0  0  0
   40.2303   27.5438   29.0674 H   0  0  0  0  0  0  0  0  0  0  0  0
   40.2259   21.6975   36.4207 H   0  0  0  0  0  0  0  0  0  0  0  0
   40.5296   24.1672   36.6802 H   0  0  0  0  0  0  0  0  0  0  0  0
   36.3376   20.5263   34.6824 H   0  0  0  0  0  0  0  0  0  0  0  0
   34.6338   19.9332   32.6502 H   0  0  0  0  0  0  0  0  0  0  0  0
   35.0612   21.8100   30.7616 H   0  0  0  0  0  0  0  0  0  0  0  0
  2  3  1  0
  2  1  1  0
  4  3  2  0
  5 12  2  0
  5  4  1  0
  6  5  1  0
  7  6  2  0
  8  9  1  0
  8  6  1  0
  9 11  2  0
 10  9  1  0
 11 12  1  0
 12  2  1  0
 13 14  2  0
 15  1  1  0
 15 14  1  0
 16 15  2  0
 17 16  1  0
 17 18  2  0
 18 13  1  0
 19 20  2  0
 19 17  1  0
 21 20  1  0
 22 23  1  0
 22 21  2  0
 23 19  1  0
  1 24  1  0
  1 25  1  0
  3 26  1  0
  8 27  1  0
 10 28  1  0
 10 29  1  0
 13 30  1  0
 14 31  1  0
 20 32  1  0
 21 33  1  0
 22 34  1  0
M  ISO  8  24   8  25   8  26  14  27   9  30  14  31  14  32  14  33  14
M  ISO  1  34  14
M  END
>  <minimizedAffinity>  (1) 
-4.81768322

>  <minimizedRMSD>  (1) 
4.03529453

$$$$
