
     RDKit          3D

 27 29  0  0  0  0  0  0  0  0999 V2000
   40.1370   22.3260   34.2660 C   0  0  0  0  0  0  0  0  0  0  0  0
   39.6870   23.1990   35.2690 C   0  0  0  0  0  0  0  0  0  0  0  0
   38.3260   23.3370   35.4940 C   0  0  0  0  0  0  0  0  0  0  0  0
   37.4770   22.6010   34.7130 N   0  0  0  0  0  0  0  0  0  0  0  0
   37.9380   21.7620   33.7490 C   0  0  0  0  0  0  0  0  0  0  0  0
   39.2550   21.6210   33.5230 N   0  0  0  0  0  0  0  0  0  0  0  0
   37.0030   21.0000   32.9450 C   0  0  0  0  0  0  0  0  0  0  0  0
   35.7690   20.6750   33.5290 C   0  0  0  0  0  0  0  0  0  0  0  0
   35.0350   19.9540   32.5970 C   0  0  0  0  0  0  0  0  0  0  0  0
   35.8900   19.8850   31.4780 C   0  0  0  0  0  0  0  0  0  0  0  0
   36.9960   20.5070   31.7550 O   0  0  0  0  0  0  0  0  0  0  0  0
   37.8260   24.2540   36.5470 C   0  0  0  0  0  0  0  0  0  0  0  0
   37.9240   25.6460   36.0660 C   0  0  0  0  0  0  0  0  0  0  0  0
   37.4270   26.1620   34.8850 C   0  0  0  0  0  0  0  0  0  0  0  0
   37.7770   27.5020   34.9060 C   0  0  0  0  0  0  0  0  0  0  0  0
   38.4470   27.7410   36.0560 N   0  0  0  0  0  0  0  0  0  0  0  0
   38.5380   26.6190   36.7610 N   0  0  0  0  0  0  0  0  0  0  0  0
   41.2160   22.2148   34.0833 H   0  0  0  0  0  0  0  0  0  0  0  0
   40.4089   23.7694   35.8719 H   0  0  0  0  0  0  0  0  0  0  0  0
   35.4417   20.9437   34.5442 H   0  0  0  0  0  0  0  0  0  0  0  0
   34.0238   19.5349   32.7059 H   0  0  0  0  0  0  0  0  0  0  0  0
   35.6581   19.3858   30.5256 H   0  0  0  0  0  0  0  0  0  0  0  0
   36.7762   24.0162   36.7736 H   0  0  0  0  0  0  0  0  0  0  0  0
   38.4308   24.1347   37.4581 H   0  0  0  0  0  0  0  0  0  0  0  0
   36.8741   25.6259   34.0995 H   0  0  0  0  0  0  0  0  0  0  0  0
   37.5498   28.2419   34.1244 H   0  0  0  0  0  0  0  0  0  0  0  0
   38.8286   28.6540   36.3417 H   0  0  0  0  0  0  0  0  0  0  0  0
  1  2  2  0
  2  3  1  0
  3 12  1  0
  4  3  2  0
  5  4  1  0
  6  5  2  0
  6  1  1  0
  7  8  2  0
  7  5  1  0
  9  8  1  0
 10 11  1  0
 10  9  2  0
 11  7  1  0
 13 12  1  0
 13 17  2  0
 14 15  2  0
 14 13  1  0
 15 16  1  0
 16 17  1  0
  1 18  1  0
  2 19  1  0
  8 20  1  0
  9 21  1  0
 10 22  1  0
 12 23  1  0
 12 24  1  0
 14 25  1  0
 15 26  1  0
 16 27  1  0
M  ISO  8  18  14  19  14  20  14  21  14  22  14  23   8  24   8  25  14
M  ISO  2  26  14  27   9
M  END
>  <minimizedAffinity>  (1) 
-4.26081371

>  <minimizedRMSD>  (1) 
2.31351805

$$$$
