
     RDKit          3D

 27 29  0  0  0  0  0  0  0  0999 V2000
   40.8590   23.1100   35.0190 C   0  0  0  0  0  0  0  0  0  0  0  0
   40.7200   24.4920   35.1510 C   0  0  0  0  0  0  0  0  0  0  0  0
   39.4320   25.0480   35.2290 C   0  0  0  0  0  0  0  0  0  0  0  0
   38.3810   24.1830   35.1700 N   0  0  0  0  0  0  0  0  0  0  0  0
   38.5540   22.8420   35.0410 C   0  0  0  0  0  0  0  0  0  0  0  0
   39.7680   22.3170   34.9670 N   0  0  0  0  0  0  0  0  0  0  0  0
   37.3840   21.9740   34.9840 C   0  0  0  0  0  0  0  0  0  0  0  0
   36.7350   21.6670   36.1690 C   0  0  0  0  0  0  0  0  0  0  0  0
   35.6650   20.8340   35.8440 C   0  0  0  0  0  0  0  0  0  0  0  0
   35.7310   20.6860   34.4600 C   0  0  0  0  0  0  0  0  0  0  0  0
   36.7570   21.3740   34.0080 O   0  0  0  0  0  0  0  0  0  0  0  0
   39.2680   26.5090   35.3700 C   0  0  0  0  0  0  0  0  0  0  0  0
   38.3120   27.0930   34.5080 C   0  0  0  0  0  0  0  0  0  0  0  0
   37.0120   27.7830   34.6810 C   0  0  0  0  0  0  0  0  0  0  0  0
   36.3810   28.2040   33.5660 C   0  0  0  0  0  0  0  0  0  0  0  0
   36.9450   27.9980   32.2310 C   0  0  0  0  0  0  0  0  0  0  0  0
   38.5520   27.1000   32.6520 S   0  0  0  0  0  0  0  0  0  0  0  0
   41.8628   22.6644   34.9570 H   0  0  0  0  0  0  0  0  0  0  0  0
   41.6086   25.1389   35.1935 H   0  0  0  0  0  0  0  0  0  0  0  0
   37.0114   22.0145   37.1754 H   0  0  0  0  0  0  0  0  0  0  0  0
   34.9290   20.3903   36.5307 H   0  0  0  0  0  0  0  0  0  0  0  0
   35.0386   20.0913   33.8461 H   0  0  0  0  0  0  0  0  0  0  0  0
   38.9651   26.7190   36.4064 H   0  0  0  0  0  0  0  0  0  0  0  0
   40.2368   26.9528   35.0970 H   0  0  0  0  0  0  0  0  0  0  0  0
   36.5790   27.9453   35.6791 H   0  0  0  0  0  0  0  0  0  0  0  0
   35.4132   28.7178   33.6626 H   0  0  0  0  0  0  0  0  0  0  0  0
   36.5422   28.2876   31.2492 H   0  0  0  0  0  0  0  0  0  0  0  0
  1  2  2  0
  2  3  1  0
  3 12  1  0
  4  3  2  0
  5  4  1  0
  6  1  1  0
  6  5  2  0
  7  5  1  0
  7  8  2  0
  9  8  1  0
 10  9  2  0
 11 10  1  0
 11  7  1  0
 13 14  2  0
 13 12  1  0
 15 14  1  0
 16 17  1  0
 16 15  2  0
 17 13  1  0
  1 18  1  0
  2 19  1  0
  8 20  1  0
  9 21  1  0
 10 22  1  0
 12 23  1  0
 12 24  1  0
 14 25  1  0
 15 26  1  0
 16 27  1  0
M  ISO  8  18  14  19  14  20  14  21  14  22  14  23   8  24   8  25  14
M  ISO  2  26  14  27  14
M  END
>  <minimizedAffinity>  (1) 
-4.23825932

>  <minimizedRMSD>  (1) 
3.22985101

$$$$
