
     RDKit          3D

 26 28  0  0  0  0  0  0  0  0999 V2000
   40.7190   23.2940   34.9310 C   0  0  0  0  0  0  0  0  0  0  0  0
   40.5040   24.6620   35.1850 C   0  0  0  0  0  0  0  0  0  0  0  0
   39.1820   25.1320   35.2560 C   0  0  0  0  0  0  0  0  0  0  0  0
   38.1820   24.2370   35.0740 N   0  0  0  0  0  0  0  0  0  0  0  0
   38.4350   22.9210   34.8300 C   0  0  0  0  0  0  0  0  0  0  0  0
   39.6780   22.4690   34.7620 N   0  0  0  0  0  0  0  0  0  0  0  0
   37.3110   21.9970   34.6410 C   0  0  0  0  0  0  0  0  0  0  0  0
   36.6590   21.5270   35.7910 C   0  0  0  0  0  0  0  0  0  0  0  0
   35.6420   20.6760   35.3460 C   0  0  0  0  0  0  0  0  0  0  0  0
   35.7520   20.6910   33.9420 C   0  0  0  0  0  0  0  0  0  0  0  0
   36.7400   21.4780   33.6080 O   0  0  0  0  0  0  0  0  0  0  0  0
   38.9130   26.5720   35.5230 C   0  0  0  0  0  0  0  0  0  0  0  0
   38.1530   27.1380   34.3750 C   0  0  0  0  0  0  0  0  0  0  0  0
   38.6420   27.1040   32.9840 C   0  0  0  0  0  0  0  0  0  0  0  0
   37.3070   27.9250   32.0820 S   0  0  0  0  0  0  0  0  0  0  0  0
   36.3090   28.1850   33.6790 C   0  0  0  0  0  0  0  0  0  0  0  0
   36.9600   27.7250   34.5130 N   0  0  0  0  0  0  0  0  0  0  0  0
   41.7450   22.9019   34.8712 H   0  0  0  0  0  0  0  0  0  0  0  0
   41.3526   25.3478   35.3248 H   0  0  0  0  0  0  0  0  0  0  0  0
   36.8997   21.7778   36.8346 H   0  0  0  0  0  0  0  0  0  0  0  0
   34.9170   20.1186   35.9572 H   0  0  0  0  0  0  0  0  0  0  0  0
   35.1123   20.1328   33.2427 H   0  0  0  0  0  0  0  0  0  0  0  0
   38.3208   26.6730   36.4444 H   0  0  0  0  0  0  0  0  0  0  0  0
   39.8626   27.1134   35.6464 H   0  0  0  0  0  0  0  0  0  0  0  0
   39.5813   26.6851   32.5939 H   0  0  0  0  0  0  0  0  0  0  0  0
   35.3264   28.6681   33.7847 H   0  0  0  0  0  0  0  0  0  0  0  0
  1  2  2  0
  2  3  1  0
  3 12  1  0
  4  3  2  0
  5  4  1  0
  6  5  2  0
  6  1  1  0
  7  5  1  0
  7  8  2  0
  9  8  1  0
 10  9  2  0
 11 10  1  0
 11  7  1  0
 13 17  1  0
 13 12  1  0
 14 13  2  0
 15 14  1  0
 15 16  1  0
 16 17  2  0
  1 18  1  0
  2 19  1  0
  8 20  1  0
  9 21  1  0
 10 22  1  0
 12 23  1  0
 12 24  1  0
 14 25  1  0
 16 26  1  0
M  ISO  8  18  14  19  14  20  14  21  14  22  14  23   8  24   8  25  14
M  ISO  1  26  14
M  END
>  <minimizedAffinity>  (1) 
-3.95586729

>  <minimizedRMSD>  (1) 
3.17618608

$$$$
