
     RDKit          3D

 35 37  0  0  0  0  0  0  0  0999 V2000
   37.8760   25.5480   32.4920 C   0  0  0  0  0  0  0  0  0  0  0  0
   39.2410   25.3980   32.7370 C   0  0  0  0  0  0  0  0  0  0  0  0
   39.7600   24.1260   33.0410 C   0  0  0  0  0  0  0  0  0  0  0  0
   38.8550   23.1190   33.0700 N   0  0  0  0  0  0  0  0  0  0  0  0
   37.5430   23.2780   32.8320 C   0  0  0  0  0  0  0  0  0  0  0  0
   37.0570   24.4830   32.5470 N   0  0  0  0  0  0  0  0  0  0  0  0
   36.6420   22.1260   32.8880 C   0  0  0  0  0  0  0  0  0  0  0  0
   35.6480   22.0320   31.9300 C   0  0  0  0  0  0  0  0  0  0  0  0
   34.9280   20.8720   32.1810 C   0  0  0  0  0  0  0  0  0  0  0  0
   35.5430   20.3200   33.3000 C   0  0  0  0  0  0  0  0  0  0  0  0
   36.5420   21.0950   33.6740 O   0  0  0  0  0  0  0  0  0  0  0  0
   41.2040   23.9270   33.3040 C   0  0  0  0  0  0  0  0  0  0  0  0
   41.5720   23.9470   34.6870 N   0  0  0  0  0  0  0  0  0  0  0  0
   42.2480   25.1730   34.9750 C   0  0  0  0  0  0  0  0  0  0  0  0
   43.6690   24.8520   35.3810 C   0  0  0  0  0  0  0  0  0  0  0  0
   43.5520   24.0770   36.7020 C   0  0  0  0  0  0  0  0  0  0  0  0
   42.8580   22.7630   36.4120 C   0  0  0  0  0  0  0  0  0  0  0  0
   42.2620   22.7480   35.0230 C   0  0  0  0  0  0  0  0  0  0  0  0
   37.4681   26.5412   32.2529 H   0  0  0  0  0  0  0  0  0  0  0  0
   39.9091   26.2708   32.6927 H   0  0  0  0  0  0  0  0  0  0  0  0
   35.4618   22.7478   31.1158 H   0  0  0  0  0  0  0  0  0  0  0  0
   34.0664   20.4785   31.6218 H   0  0  0  0  0  0  0  0  0  0  0  0
   35.2432   19.3845   33.7948 H   0  0  0  0  0  0  0  0  0  0  0  0
   41.4964   22.9522   32.8865 H   0  0  0  0  0  0  0  0  0  0  0  0
   41.7234   24.7750   32.8338 H   0  0  0  0  0  0  0  0  0  0  0  0
   42.2530   25.8132   34.0805 H   0  0  0  0  0  0  0  0  0  0  0  0
   41.7340   25.7053   35.7889 H   0  0  0  0  0  0  0  0  0  0  0  0
   44.1577   24.2332   34.6140 H   0  0  0  0  0  0  0  0  0  0  0  0
   44.2772   25.7617   35.4935 H   0  0  0  0  0  0  0  0  0  0  0  0
   44.5542   23.8872   37.1138 H   0  0  0  0  0  0  0  0  0  0  0  0
   42.9775   24.6591   37.4376 H   0  0  0  0  0  0  0  0  0  0  0  0
   43.5895   21.9458   36.4963 H   0  0  0  0  0  0  0  0  0  0  0  0
   42.0430   22.6344   37.1395 H   0  0  0  0  0  0  0  0  0  0  0  0
   41.5538   21.9089   34.9573 H   0  0  0  0  0  0  0  0  0  0  0  0
   43.0971   22.6464   34.3142 H   0  0  0  0  0  0  0  0  0  0  0  0
  1  6  2  0
  1  2  1  0
  2  3  2  0
  3  4  1  0
  3 12  1  0
  5  7  1  0
  5  4  2  0
  6  5  1  0
  7 11  1  0
  8  9  1  0
  8  7  2  0
  9 10  2  0
 10 11  1  0
 12 13  1  0
 13 14  1  0
 13 18  1  0
 14 15  1  0
 15 16  1  0
 17 16  1  0
 18 17  1  0
  1 19  1  0
  2 20  1  0
  8 21  1  0
  9 22  1  0
 10 23  1  0
 12 24  1  0
 12 25  1  0
 14 26  1  0
 14 27  1  0
 15 28  1  0
 15 29  1  0
 16 30  1  0
 16 31  1  0
 17 32  1  0
 17 33  1  0
 18 34  1  0
 18 35  1  0
M  ISO  8  19  14  20  14  21  14  22  14  23  14  24   8  25   8  26  13
M  ISO  8  27  13  28  13  29  13  30  13  31  13  32  13  33  13  34  13
M  ISO  1  35  13
M  END
>  <minimizedAffinity>  (1) 
-3.77141929

>  <minimizedRMSD>  (1) 
6.01233816

$$$$
