
     RDKit          3D

 25 26  0  0  0  0  0  0  0  0999 V2000
   39.7430   24.3990   34.4590 C   0  0  0  0  0  0  0  0  0  0  0  0
   40.2750   23.9540   35.6460 C   0  0  0  0  0  0  0  0  0  0  0  0
   39.7500   22.7790   36.2350 C   0  0  0  0  0  0  0  0  0  0  0  0
   38.7440   22.1660   35.5760 N   0  0  0  0  0  0  0  0  0  0  0  0
   38.2510   22.6510   34.3950 C   0  0  0  0  0  0  0  0  0  0  0  0
   38.7450   23.7490   33.8510 N   0  0  0  0  0  0  0  0  0  0  0  0
   37.1540   21.9330   33.7350 C   0  0  0  0  0  0  0  0  0  0  0  0
   36.3890   21.0520   34.4940 C   0  0  0  0  0  0  0  0  0  0  0  0
   35.4290   20.5050   33.6500 C   0  0  0  0  0  0  0  0  0  0  0  0
   35.6790   21.0970   32.4270 C   0  0  0  0  0  0  0  0  0  0  0  0
   36.7050   21.9380   32.5020 O   0  0  0  0  0  0  0  0  0  0  0  0
   40.2770   22.2440   37.5220 C   0  0  0  0  0  0  0  0  0  0  0  0
   39.6970   23.1290   38.5490 N   0  0  0  0  0  0  0  0  0  0  0  0
   38.3350   23.4850   38.5650 C   0  0  0  0  0  0  0  0  0  0  0  0
   37.4230   22.7290   38.9220 O   0  0  0  0  0  0  0  0  0  0  0  0
   38.0060   24.7740   38.1510 O   0  0  0  0  0  0  0  0  0  0  0  0
   40.1481   25.3120   33.9982 H   0  0  0  0  0  0  0  0  0  0  0  0
   41.0961   24.5027   36.1305 H   0  0  0  0  0  0  0  0  0  0  0  0
   36.5197   20.8297   35.5633 H   0  0  0  0  0  0  0  0  0  0  0  0
   34.6495   19.7698   33.8988 H   0  0  0  0  0  0  0  0  0  0  0  0
   35.1038   20.8981   31.5107 H   0  0  0  0  0  0  0  0  0  0  0  0
   39.9513   21.2044   37.6744 H   0  0  0  0  0  0  0  0  0  0  0  0
   41.3765   22.2291   37.5523 H   0  0  0  0  0  0  0  0  0  0  0  0
   40.3136   23.5020   39.2849 H   0  0  0  0  0  0  0  0  0  0  0  0
   37.0601   25.0662   38.1465 H   0  0  0  0  0  0  0  0  0  0  0  0
  1  2  2  0
  2  3  1  0
  3 12  1  0
  4  3  2  0
  5  4  1  0
  6  5  2  0
  6  1  1  0
  7  5  1  0
  7  8  2  0
  9  8  1  0
 10 11  1  0
 10  9  2  0
 11  7  1  0
 12 13  1  0
 13 14  1  0
 14 15  2  0
 16 14  1  0
  1 17  1  0
  2 18  1  0
  8 19  1  0
  9 20  1  0
 10 21  1  0
 12 22  1  0
 12 23  1  0
 13 24  1  0
 16 25  1  0
M  ISO  8  17  14  18  14  19  14  20  14  21  14  22   8  23   8  25   3
M  END
>  <minimizedAffinity>  (1) 
-4.26064873

>  <minimizedRMSD>  (1) 
1.61931002

$$$$
