
     RDKit          3D

 27 29  0  0  0  0  0  0  0  0999 V2000
   40.3640   22.4030   35.0040 C   0  0  0  0  0  0  0  0  0  0  0  0
   39.9610   23.1820   36.0690 C   0  0  0  0  0  0  0  0  0  0  0  0
   38.5720   23.3990   36.2940 C   0  0  0  0  0  0  0  0  0  0  0  0
   37.7190   22.8090   35.4270 N   0  0  0  0  0  0  0  0  0  0  0  0
   38.1550   22.0500   34.3920 C   0  0  0  0  0  0  0  0  0  0  0  0
   39.4490   21.8450   34.1750 N   0  0  0  0  0  0  0  0  0  0  0  0
   37.1690   21.4440   33.5010 C   0  0  0  0  0  0  0  0  0  0  0  0
   36.0400   20.8650   34.0590 C   0  0  0  0  0  0  0  0  0  0  0  0
   35.2670   20.3660   33.0160 C   0  0  0  0  0  0  0  0  0  0  0  0
   35.9880   20.6800   31.8700 C   0  0  0  0  0  0  0  0  0  0  0  0
   37.1030   21.3140   32.1960 O   0  0  0  0  0  0  0  0  0  0  0  0
   38.1470   24.2530   37.4150 C   0  0  0  0  0  0  0  0  0  0  0  0
   38.1740   25.6150   36.9040 N   0  0  0  0  0  0  0  0  0  0  0  0
   37.8750   26.2600   35.7000 C   0  0  0  0  0  0  0  0  0  0  0  0
   39.0060   26.2570   34.9380 N   0  0  0  0  0  0  0  0  0  0  0  0
   38.7690   26.8530   33.7890 O   0  0  0  0  0  0  0  0  0  0  0  0
   37.5130   27.2450   33.7790 C   0  0  0  0  0  0  0  0  0  0  0  0
   36.9750   26.8850   34.9280 N   0  0  0  0  0  0  0  0  0  0  0  0
   41.4363   22.2336   34.8266 H   0  0  0  0  0  0  0  0  0  0  0  0
   40.7077   23.6323   36.7396 H   0  0  0  0  0  0  0  0  0  0  0  0
   35.7993   20.8102   35.1310 H   0  0  0  0  0  0  0  0  0  0  0  0
   34.3026   19.8412   33.0830 H   0  0  0  0  0  0  0  0  0  0  0  0
   35.6775   20.4372   30.8430 H   0  0  0  0  0  0  0  0  0  0  0  0
   37.1303   23.9845   37.7378 H   0  0  0  0  0  0  0  0  0  0  0  0
   38.8048   24.1338   38.2885 H   0  0  0  0  0  0  0  0  0  0  0  0
   38.4999   26.2809   37.6190 H   0  0  0  0  0  0  0  0  0  0  0  0
   37.0043   27.7763   32.9611 H   0  0  0  0  0  0  0  0  0  0  0  0
  1  2  2  0
  2  3  1  0
  3 12  1  0
  4  3  2  0
  5  4  1  0
  6  5  2  0
  6  1  1  0
  7  8  2  0
  7  5  1  0
  9  8  1  0
 10 11  1  0
 10  9  2  0
 11  7  1  0
 13 12  1  0
 14 13  1  0
 15 14  2  0
 16 15  1  0
 17 16  1  0
 17 18  2  0
 18 14  1  0
  1 19  1  0
  2 20  1  0
  8 21  1  0
  9 22  1  0
 10 23  1  0
 12 24  1  0
 12 25  1  0
 13 26  1  0
 17 27  1  0
M  ISO  8  19  14  20  14  21  14  22  14  23  14  24   8  25   8  27  14
M  END
>  <minimizedAffinity>  (1) 
-4.11191607

>  <minimizedRMSD>  (1) 
2.39361143

$$$$
