
     RDKit          3D

 24 25  0  0  0  0  0  0  0  0999 V2000
   39.0320   24.5070   33.7460 C   0  0  0  0  0  0  0  0  0  0  0  0
   39.5080   24.0640   34.9750 C   0  0  0  0  0  0  0  0  0  0  0  0
   39.0320   22.8550   35.4970 C   0  0  0  0  0  0  0  0  0  0  0  0
   38.1170   22.1680   34.7650 N   0  0  0  0  0  0  0  0  0  0  0  0
   37.6790   22.6440   33.5600 C   0  0  0  0  0  0  0  0  0  0  0  0
   38.1240   23.7840   33.0630 N   0  0  0  0  0  0  0  0  0  0  0  0
   36.6900   21.8540   32.8110 C   0  0  0  0  0  0  0  0  0  0  0  0
   35.9040   20.9400   33.4990 C   0  0  0  0  0  0  0  0  0  0  0  0
   35.0650   20.3370   32.5610 C   0  0  0  0  0  0  0  0  0  0  0  0
   35.4060   20.9350   31.3500 C   0  0  0  0  0  0  0  0  0  0  0  0
   36.3600   21.8130   31.5550 O   0  0  0  0  0  0  0  0  0  0  0  0
   39.5100   22.3390   36.8130 C   0  0  0  0  0  0  0  0  0  0  0  0
   38.4420   22.6480   37.7530 N   0  0  0  0  0  0  0  0  0  0  0  0
   38.6600   23.7310   38.6130 C   0  0  0  0  0  0  0  0  0  0  0  0
   37.9260   24.6890   38.9650 O   0  0  0  0  0  0  0  0  0  0  0  0
   39.4000   25.4557   33.3282 H   0  0  0  0  0  0  0  0  0  0  0  0
   40.2498   24.6563   35.5307 H   0  0  0  0  0  0  0  0  0  0  0  0
   35.9363   20.7307   34.5784 H   0  0  0  0  0  0  0  0  0  0  0  0
   34.3043   19.5625   32.7383 H   0  0  0  0  0  0  0  0  0  0  0  0
   34.9482   20.7075   30.3760 H   0  0  0  0  0  0  0  0  0  0  0  0
   39.6787   21.2531   36.7637 H   0  0  0  0  0  0  0  0  0  0  0  0
   40.4658   22.7944   37.1114 H   0  0  0  0  0  0  0  0  0  0  0  0
   37.5714   22.0985   37.7837 H   0  0  0  0  0  0  0  0  0  0  0  0
   39.6623   23.7466   39.0660 H   0  0  0  0  0  0  0  0  0  0  0  0
  1  2  2  0
  2  3  1  0
  3 12  1  0
  4  3  2  0
  5  4  1  0
  6  5  2  0
  6  1  1  0
  7  8  2  0
  7  5  1  0
  9  8  1  0
 10 11  1  0
 10  9  2  0
 11  7  1  0
 12 13  1  0
 13 14  1  0
 14 15  2  0
  1 16  1  0
  2 17  1  0
  8 18  1  0
  9 19  1  0
 10 20  1  0
 12 21  1  0
 12 22  1  0
 13 23  1  0
 14 24  1  0
M  ISO  8  16  14  17  14  18  14  19  14  20  14  21   8  22   8  24   6
M  END
>  <minimizedAffinity>  (1) 
-4.00430346

>  <minimizedRMSD>  (1) 
2.01711607

$$$$
