
     RDKit          3D

 28 30  0  0  0  0  0  0  0  0999 V2000
   40.4160   22.6400   35.2070 C   0  0  0  0  0  0  0  0  0  0  0  0
   40.0080   23.7730   35.8780 C   0  0  0  0  0  0  0  0  0  0  0  0
   38.6510   24.1810   35.8090 C   0  0  0  0  0  0  0  0  0  0  0  0
   37.8280   23.4080   35.0700 N   0  0  0  0  0  0  0  0  0  0  0  0
   38.2700   22.2870   34.4140 C   0  0  0  0  0  0  0  0  0  0  0  0
   39.5350   21.9160   34.4830 N   0  0  0  0  0  0  0  0  0  0  0  0
   37.3160   21.5120   33.6320 C   0  0  0  0  0  0  0  0  0  0  0  0
   36.1930   21.0090   34.2730 C   0  0  0  0  0  0  0  0  0  0  0  0
   35.4610   20.3180   33.3070 C   0  0  0  0  0  0  0  0  0  0  0  0
   36.1820   20.4400   32.1390 C   0  0  0  0  0  0  0  0  0  0  0  0
   37.2810   21.1560   32.3630 O   0  0  0  0  0  0  0  0  0  0  0  0
   38.2060   25.3960   36.5090 C   0  0  0  0  0  0  0  0  0  0  0  0
   38.6650   26.5220   35.6830 N   0  0  0  0  0  0  0  0  0  0  0  0
   37.7900   27.1970   34.7980 C   0  0  0  0  0  0  0  0  0  0  0  0
   38.4810   26.9410   33.5090 C   0  0  0  0  0  0  0  0  0  0  0  0
   37.3850   27.8040   32.3020 S   0  0  0  0  0  0  0  0  0  0  0  0
   36.2050   28.3530   33.7070 C   0  0  0  0  0  0  0  0  0  0  0  0
   36.6990   27.9050   34.6680 N   0  0  0  0  0  0  0  0  0  0  0  0
   41.4679   22.3229   35.2616 H   0  0  0  0  0  0  0  0  0  0  0  0
   40.7316   24.3583   36.4645 H   0  0  0  0  0  0  0  0  0  0  0  0
   35.9312   21.1311   35.3344 H   0  0  0  0  0  0  0  0  0  0  0  0
   34.5080   19.7871   33.4481 H   0  0  0  0  0  0  0  0  0  0  0  0
   35.8928   20.0105   31.1685 H   0  0  0  0  0  0  0  0  0  0  0  0
   37.1097   25.4075   36.5979 H   0  0  0  0  0  0  0  0  0  0  0  0
   38.6133   25.4487   37.5295 H   0  0  0  0  0  0  0  0  0  0  0  0
   39.6465   26.8272   35.7497 H   0  0  0  0  0  0  0  0  0  0  0  0
   39.4087   26.3804   33.3218 H   0  0  0  0  0  0  0  0  0  0  0  0
   35.2829   28.9476   33.6289 H   0  0  0  0  0  0  0  0  0  0  0  0
  1  2  2  0
  3  2  1  0
  3 12  1  0
  4  3  2  0
  5  6  2  0
  5  4  1  0
  6  1  1  0
  7  8  2  0
  7  5  1  0
  9  8  1  0
 10 11  1  0
 10  9  2  0
 11  7  1  0
 13 12  1  0
 14 13  1  0
 15 14  2  0
 16 15  1  0
 16 17  1  0
 17 18  2  0
 18 14  1  0
  1 19  1  0
  2 20  1  0
  8 21  1  0
  9 22  1  0
 10 23  1  0
 12 24  1  0
 12 25  1  0
 13 26  1  0
 15 27  1  0
 17 28  1  0
M  ISO  8  19  14  20  14  21  14  22  14  23  14  24   8  25   8  27  14
M  ISO  1  28  14
M  END
>  <minimizedAffinity>  (1) 
-3.89306688

>  <minimizedRMSD>  (1) 
2.80659246

$$$$
