
     RDKit          3D

 25 26  0  0  0  0  0  0  0  0999 V2000
   40.5500   22.2120   34.9320 C   0  0  0  0  0  0  0  0  0  0  0  0
   40.3630   22.6310   36.2420 C   0  0  0  0  0  0  0  0  0  0  0  0
   39.0630   22.7620   36.7440 C   0  0  0  0  0  0  0  0  0  0  0  0
   38.0340   22.4630   35.8960 N   0  0  0  0  0  0  0  0  0  0  0  0
   38.2690   22.0520   34.6070 C   0  0  0  0  0  0  0  0  0  0  0  0
   39.4980   21.9320   34.1450 N   0  0  0  0  0  0  0  0  0  0  0  0
   37.1250   21.7500   33.7620 C   0  0  0  0  0  0  0  0  0  0  0  0
   36.1910   20.8140   34.1900 C   0  0  0  0  0  0  0  0  0  0  0  0
   35.2110   20.7090   33.2180 C   0  0  0  0  0  0  0  0  0  0  0  0
   35.6140   21.6010   32.2420 C   0  0  0  0  0  0  0  0  0  0  0  0
   36.7380   22.1950   32.5880 O   0  0  0  0  0  0  0  0  0  0  0  0
   38.8080   23.2080   38.1410 C   0  0  0  0  0  0  0  0  0  0  0  0
   37.6920   24.1420   38.0530 N   0  0  0  0  0  0  0  0  0  0  0  0
   38.0820   25.3710   37.3950 C   0  0  0  0  0  0  0  0  0  0  0  0
   41.5703   22.1082   34.5342 H   0  0  0  0  0  0  0  0  0  0  0  0
   41.2294   22.8583   36.8805 H   0  0  0  0  0  0  0  0  0  0  0  0
   36.2247   20.2542   35.1363 H   0  0  0  0  0  0  0  0  0  0  0  0
   34.3190   20.0654   33.2215 H   0  0  0  0  0  0  0  0  0  0  0  0
   35.0705   21.7892   31.3044 H   0  0  0  0  0  0  0  0  0  0  0  0
   38.5424   22.3501   38.7762 H   0  0  0  0  0  0  0  0  0  0  0  0
   39.6972   23.6751   38.5895 H   0  0  0  0  0  0  0  0  0  0  0  0
   36.9291   23.7030   37.5180 H   0  0  0  0  0  0  0  0  0  0  0  0
   38.3234   26.1316   38.1521 H   0  0  0  0  0  0  0  0  0  0  0  0
   38.9656   25.1860   36.7665 H   0  0  0  0  0  0  0  0  0  0  0  0
   37.2534   25.7293   36.7665 H   0  0  0  0  0  0  0  0  0  0  0  0
  1  2  2  0
  2  3  1  0
  3 12  1  0
  4  3  2  0
  5  4  1  0
  6  5  2  0
  6  1  1  0
  7  8  2  0
  7  5  1  0
  9  8  1  0
 10 11  1  0
 10  9  2  0
 11  7  1  0
 13 12  1  0
 14 13  1  0
  1 15  1  0
  2 16  1  0
  8 17  1  0
  9 18  1  0
 10 19  1  0
 12 20  1  0
 12 21  1  0
 13 22  1  0
 14 23  1  0
 14 24  1  0
 14 25  1  0
M  ISO  8  15  14  16  14  17  14  18  14  19  14  20   8  21   8  22   5
M  ISO  3  23   8  24   8  25   8
M  END
>  <minimizedAffinity>  (1) 
-3.33774137

>  <minimizedRMSD>  (1) 
0.530555785

$$$$
