
     RDKit          3D

 42 45  0  0  0  0  0  0  0  0999 V2000
   37.1490   25.9750   33.6400 N   0  0  0  0  0  0  0  0  0  0  0  0
   38.5420   26.0560   34.0510 C   0  0  0  0  0  0  0  0  0  0  0  0
   37.9210   24.2910   37.3120 C   0  0  0  0  0  0  0  0  0  0  0  0
   37.7820   25.1820   36.2340 C   0  0  0  0  0  0  0  0  0  0  0  0
   38.6950   25.1140   35.1840 C   0  0  0  0  0  0  0  0  0  0  0  0
   39.6610   24.1860   35.2750 N   0  0  0  0  0  0  0  0  0  0  0  0
   39.7660   23.3360   36.3400 C   0  0  0  0  0  0  0  0  0  0  0  0
   38.9150   23.3910   37.3300 N   0  0  0  0  0  0  0  0  0  0  0  0
   40.8480   22.3650   36.3470 C   0  0  0  0  0  0  0  0  0  0  0  0
   41.2100   21.7450   37.5220 C   0  0  0  0  0  0  0  0  0  0  0  0
   42.2540   20.8770   37.2560 C   0  0  0  0  0  0  0  0  0  0  0  0
   42.4770   21.0170   35.9050 C   0  0  0  0  0  0  0  0  0  0  0  0
   41.6380   21.8910   35.4140 O   0  0  0  0  0  0  0  0  0  0  0  0
   37.0020   26.8290   32.1540 S   0  0  0  0  0  0  0  0  0  0  0  0
   35.6490   27.4280   31.9760 O   0  0  0  0  0  0  0  0  0  0  0  0
   38.0080   27.9350   32.1380 O   0  0  0  0  0  0  0  0  0  0  0  0
   37.3940   25.6960   30.8520 C   0  0  0  0  0  0  0  0  0  0  0  0
   36.9290   24.3290   31.0890 C   0  0  0  0  0  0  0  0  0  0  0  0
   35.7700   23.9620   31.6660 N   0  0  0  0  0  0  0  0  0  0  0  0
   35.4750   22.6470   31.8200 C   0  0  0  0  0  0  0  0  0  0  0  0
   36.3230   21.6630   31.4060 N   0  0  0  0  0  0  0  0  0  0  0  0
   37.4880   22.0040   30.8260 C   0  0  0  0  0  0  0  0  0  0  0  0
   38.3260   20.9650   30.4180 C   0  0  0  0  0  0  0  0  0  0  0  0
   39.5330   21.2990   29.8180 C   0  0  0  0  0  0  0  0  0  0  0  0
   39.8770   22.6270   29.6400 C   0  0  0  0  0  0  0  0  0  0  0  0
   39.0280   23.6190   30.0550 C   0  0  0  0  0  0  0  0  0  0  0  0
   37.8080   23.3320   30.6600 C   0  0  0  0  0  0  0  0  0  0  0  0
   36.8772   24.9902   33.5087 H   0  0  0  0  0  0  0  0  0  0  0  0
   39.2019   25.7641   33.2208 H   0  0  0  0  0  0  0  0  0  0  0  0
   38.8145   27.0810   34.3428 H   0  0  0  0  0  0  0  0  0  0  0  0
   37.2079   24.3323   38.1486 H   0  0  0  0  0  0  0  0  0  0  0  0
   36.9666   25.9201   36.2196 H   0  0  0  0  0  0  0  0  0  0  0  0
   40.7473   21.9117   38.5059 H   0  0  0  0  0  0  0  0  0  0  0  0
   42.7852   20.2234   37.9635 H   0  0  0  0  0  0  0  0  0  0  0  0
   43.2424   20.4772   35.3281 H   0  0  0  0  0  0  0  0  0  0  0  0
   38.4872   25.6730   30.7317 H   0  0  0  0  0  0  0  0  0  0  0  0
   36.8747   26.0559   29.9515 H   0  0  0  0  0  0  0  0  0  0  0  0
   34.5226   22.3660   32.2933 H   0  0  0  0  0  0  0  0  0  0  0  0
   38.0391   19.9136   30.5672 H   0  0  0  0  0  0  0  0  0  0  0  0
   40.2174   20.5055   29.4834 H   0  0  0  0  0  0  0  0  0  0  0  0
   40.8341   22.8871   29.1643 H   0  0  0  0  0  0  0  0  0  0  0  0
   39.3182   24.6695   29.9061 H   0  0  0  0  0  0  0  0  0  0  0  0
  1  2  1  0
  2  5  1  0
  3  8  2  0
  4  3  1  0
  5  6  1  0
  5  4  2  0
  6  7  2  0
  7  9  1  0
  7  8  1  0
  9 10  2  0
 11 10  1  0
 12 11  2  0
 13 12  1  0
 13  9  1  0
 14  1  1  0
 15 14  2  0
 16 14  2  0
 17 18  1  0
 17 14  1  0
 18 19  2  0
 19 20  1  0
 21 20  2  0
 22 21  1  0
 23 22  2  0
 24 23  1  0
 25 24  2  0
 25 26  1  0
 26 27  2  0
 27 22  1  0
 27 18  1  0
  1 28  1  0
  2 29  1  0
  2 30  1  0
  3 31  1  0
  4 32  1  0
 10 33  1  0
 11 34  1  0
 12 35  1  0
 17 36  1  0
 17 37  1  0
 20 38  1  0
 23 39  1  0
 24 40  1  0
 25 41  1  0
 26 42  1  0
M  ISO  8  28   5  29   8  30   8  31  14  32  14  33  14  34  14  35  14
M  ISO  7  36   8  37   8  38  14  39  14  40  14  41  14  42  14
M  END
>  <minimizedAffinity>  (1) 
-5.17470598

>  <minimizedRMSD>  (1) 
4.23549318

$$$$
