
     RDKit          3D

 35 36  0  0  0  0  0  0  0  0999 V2000
   38.3260   25.5450   33.5620 C   0  0  0  0  0  0  0  0  0  0  0  0
   38.2000   22.6020   35.8970 C   0  0  0  0  0  0  0  0  0  0  0  0
   38.4420   23.8870   35.3950 C   0  0  0  0  0  0  0  0  0  0  0  0
   38.0640   24.1840   34.0840 C   0  0  0  0  0  0  0  0  0  0  0  0
   37.4830   23.2030   33.3780 N   0  0  0  0  0  0  0  0  0  0  0  0
   37.2600   21.9550   33.8990 C   0  0  0  0  0  0  0  0  0  0  0  0
   37.6130   21.6690   35.1330 N   0  0  0  0  0  0  0  0  0  0  0  0
   36.6240   20.9570   33.0590 C   0  0  0  0  0  0  0  0  0  0  0  0
   35.2700   20.9300   32.9170 C   0  0  0  0  0  0  0  0  0  0  0  0
   34.9280   19.8900   32.0700 C   0  0  0  0  0  0  0  0  0  0  0  0
   36.1330   19.3210   31.7300 C   0  0  0  0  0  0  0  0  0  0  0  0
   37.0920   19.9740   32.3290 O   0  0  0  0  0  0  0  0  0  0  0  0
   37.1770   26.3520   33.9480 N   0  0  0  0  0  0  0  0  0  0  0  0
   36.9540   27.5420   32.7270 S   0  0  0  0  0  0  0  0  0  0  0  0
   36.5000   28.8420   33.2940 O   0  0  0  0  0  0  0  0  0  0  0  0
   38.2760   27.7700   32.0540 O   0  0  0  0  0  0  0  0  0  0  0  0
   35.8060   26.8930   31.5530 C   0  0  0  0  0  0  0  0  0  0  0  0
   36.3050   27.0280   30.1850 N   0  0  0  0  0  0  0  0  0  0  0  0
   36.7110   28.2970   29.7310 C   0  0  0  0  0  0  0  0  0  0  0  0
   36.1450   29.3660   30.1600 N   0  0  0  0  0  0  0  0  0  0  0  0
   37.7570   28.4420   28.7850 N   0  0  0  0  0  0  0  0  0  0  0  0
   35.3790   29.2940   30.8520 H   0  0  0  0  0  0  0  0  0  0  0  0
   38.4257   25.5215   32.4668 H   0  0  0  0  0  0  0  0  0  0  0  0
   39.2620   25.9579   33.9663 H   0  0  0  0  0  0  0  0  0  0  0  0
   38.4942   22.3556   36.9279 H   0  0  0  0  0  0  0  0  0  0  0  0
   38.9226   24.6507   36.0241 H   0  0  0  0  0  0  0  0  0  0  0  0
   34.5629   21.6222   33.3974 H   0  0  0  0  0  0  0  0  0  0  0  0
   33.9221   19.5877   31.7434 H   0  0  0  0  0  0  0  0  0  0  0  0
   36.2670   18.4570   31.0625 H   0  0  0  0  0  0  0  0  0  0  0  0
   36.3379   25.7590   34.0196 H   0  0  0  0  0  0  0  0  0  0  0  0
   35.6379   25.8275   31.7687 H   0  0  0  0  0  0  0  0  0  0  0  0
   34.8682   27.4619   31.6362 H   0  0  0  0  0  0  0  0  0  0  0  0
   36.3585   26.2080   29.5640 H   0  0  0  0  0  0  0  0  0  0  0  0
   38.2369   27.6086   28.4160 H   0  0  0  0  0  0  0  0  0  0  0  0
   38.0371   29.3807   28.4667 H   0  0  0  0  0  0  0  0  0  0  0  0
  1 13  1  0
  1  4  1  0
  3  2  2  0
  4  3  1  0
  5  6  1  0
  5  4  2  0
  6  7  2  0
  7  2  1  0
  8  6  1  0
  9  8  2  0
 10  9  1  0
 11 10  2  0
 11 12  1  0
 12  8  1  0
 14 15  2  0
 14 13  1  0
 16 14  2  0
 17 14  1  0
 18 17  1  0
 19 20  2  0
 19 18  1  0
 20 22  1  0
 21 19  1  0
  1 23  1  0
  1 24  1  0
  2 25  1  0
  3 26  1  0
  9 27  1  0
 10 28  1  0
 11 29  1  0
 13 30  1  0
 17 31  1  0
 17 32  1  0
 18 33  1  0
 21 34  1  0
 21 35  1  0
M  ISO  8  23   8  24   8  25  14  26  14  27  14  28  14  29  14  30   5
M  ISO  2  31   8  32   8
M  END
>  <minimizedAffinity>  (1) 
-4.62712336

>  <minimizedRMSD>  (1) 
0.90315479

$$$$
