
     RDKit          3D

 40 42  0  0  0  0  0  0  0  0999 V2000
   38.2510   25.3540   33.3150 C   0  0  0  0  0  0  0  0  0  0  0  0
   38.1140   22.4930   35.7360 C   0  0  0  0  0  0  0  0  0  0  0  0
   38.3670   23.7640   35.1980 C   0  0  0  0  0  0  0  0  0  0  0  0
   37.9810   24.0190   33.8700 C   0  0  0  0  0  0  0  0  0  0  0  0
   37.3900   23.0170   33.1990 N   0  0  0  0  0  0  0  0  0  0  0  0
   37.1600   21.7910   33.7560 C   0  0  0  0  0  0  0  0  0  0  0  0
   37.5160   21.5330   35.0060 N   0  0  0  0  0  0  0  0  0  0  0  0
   36.5130   20.7670   32.9530 C   0  0  0  0  0  0  0  0  0  0  0  0
   35.1530   20.7630   32.8140 C   0  0  0  0  0  0  0  0  0  0  0  0
   34.7880   19.7000   32.0110 C   0  0  0  0  0  0  0  0  0  0  0  0
   35.9780   19.0950   31.6940 C   0  0  0  0  0  0  0  0  0  0  0  0
   36.9460   19.7510   32.2630 O   0  0  0  0  0  0  0  0  0  0  0  0
   36.9640   26.0370   33.2490 N   0  0  0  0  0  0  0  0  0  0  0  0
   37.2290   27.4980   32.3460 S   0  0  0  0  0  0  0  0  0  0  0  0
   36.6310   28.6700   33.0510 O   0  0  0  0  0  0  0  0  0  0  0  0
   38.6890   27.7080   32.2200 O   0  0  0  0  0  0  0  0  0  0  0  0
   36.4760   27.2570   30.7550 C   0  0  0  0  0  0  0  0  0  0  0  0
   36.6290   28.3550   29.8550 N   0  0  0  0  0  0  0  0  0  0  0  0
   36.3170   29.5910   30.4960 C   0  0  0  0  0  0  0  0  0  0  0  0
   37.3630   30.6100   30.1170 C   0  0  0  0  0  0  0  0  0  0  0  0
   38.4190   29.8410   29.3970 C   0  0  0  0  0  0  0  0  0  0  0  0
   38.0220   28.3890   29.4750 C   0  0  0  0  0  0  0  0  0  0  0  0
   38.9421   25.9059   33.9690 H   0  0  0  0  0  0  0  0  0  0  0  0
   38.7199   25.2872   32.3222 H   0  0  0  0  0  0  0  0  0  0  0  0
   38.4097   22.2771   36.7733 H   0  0  0  0  0  0  0  0  0  0  0  0
   38.8561   24.5431   35.8012 H   0  0  0  0  0  0  0  0  0  0  0  0
   34.4617   21.4884   33.2678 H   0  0  0  0  0  0  0  0  0  0  0  0
   33.7754   19.4059   31.6975 H   0  0  0  0  0  0  0  0  0  0  0  0
   36.0941   18.2019   31.0624 H   0  0  0  0  0  0  0  0  0  0  0  0
   36.2702   25.4441   32.7715 H   0  0  0  0  0  0  0  0  0  0  0  0
   36.9284   26.3676   30.2920 H   0  0  0  0  0  0  0  0  0  0  0  0
   35.3962   27.1469   30.9334 H   0  0  0  0  0  0  0  0  0  0  0  0
   35.3261   29.9382   30.1681 H   0  0  0  0  0  0  0  0  0  0  0  0
   36.3048   29.4546   31.5874 H   0  0  0  0  0  0  0  0  0  0  0  0
   36.9312   31.3794   29.4601 H   0  0  0  0  0  0  0  0  0  0  0  0
   37.7647   31.1324   30.9978 H   0  0  0  0  0  0  0  0  0  0  0  0
   39.3957   29.9940   29.8794 H   0  0  0  0  0  0  0  0  0  0  0  0
   38.5087   30.1725   28.3520 H   0  0  0  0  0  0  0  0  0  0  0  0
   38.1590   27.9062   28.4961 H   0  0  0  0  0  0  0  0  0  0  0  0
   38.6428   27.8497   30.2056 H   0  0  0  0  0  0  0  0  0  0  0  0
  1  4  1  0
  3  2  2  0
  4  3  1  0
  5  6  1  0
  5  4  2  0
  6  7  2  0
  7  2  1  0
  8  6  1  0
  9  8  2  0
 10  9  1  0
 11 10  2  0
 11 12  1  0
 12  8  1  0
 13  1  1  0
 14 15  2  0
 14 13  1  0
 16 14  2  0
 17 14  1  0
 18 19  1  0
 18 17  1  0
 20 19  1  0
 21 22  1  0
 21 20  1  0
 22 18  1  0
  1 23  1  0
  1 24  1  0
  2 25  1  0
  3 26  1  0
  9 27  1  0
 10 28  1  0
 11 29  1  0
 13 30  1  0
 17 31  1  0
 17 32  1  0
 19 33  1  0
 19 34  1  0
 20 35  1  0
 20 36  1  0
 21 37  1  0
 21 38  1  0
 22 39  1  0
 22 40  1  0
M  ISO  8  23   8  24   8  25  14  26  14  27  14  28  14  29  14  30   5
M  ISO  8  31   8  32   8  33  13  34  13  35  13  36  13  37  13  38  13
M  ISO  2  39  13  40  13
M  END
>  <minimizedAffinity>  (1) 
-4.19198608

>  <minimizedRMSD>  (1) 
1.22884941

$$$$
