
     RDKit          3D

 41 43  0  0  1  0  0  0  0  0999 V2000
   37.9380   25.5270   35.1020 C   0  0  0  0  0  0  0  0  0  0  0  0
   38.0260   23.8920   38.4660 C   0  0  0  0  0  0  0  0  0  0  0  0
   37.6350   24.6950   37.3950 C   0  0  0  0  0  0  0  0  0  0  0  0
   38.3790   24.6910   36.2240 C   0  0  0  0  0  0  0  0  0  0  0  0
   39.4570   23.8970   36.2000 N   0  0  0  0  0  0  0  0  0  0  0  0
   39.8150   23.1210   37.2700 C   0  0  0  0  0  0  0  0  0  0  0  0
   39.1230   23.1150   38.3730 N   0  0  0  0  0  0  0  0  0  0  0  0
   41.0020   22.2820   37.1640 C   0  0  0  0  0  0  0  0  0  0  0  0
   42.0440   22.6730   36.3270 C   0  0  0  0  0  0  0  0  0  0  0  0
   43.0370   21.7110   36.4220 C   0  0  0  0  0  0  0  0  0  0  0  0
   42.5480   20.7730   37.3170 C   0  0  0  0  0  0  0  0  0  0  0  0
   41.3740   21.1530   37.7110 O   0  0  0  0  0  0  0  0  0  0  0  0
   38.3030   24.8140   33.8820 N   0  0  0  0  0  0  0  0  0  0  0  0
   39.5360   25.7520   33.0880 S   0  0  0  0  0  0  0  0  0  0  0  0
   39.6560   27.1070   33.7020 O   0  0  0  0  0  0  0  0  0  0  0  0
   40.8180   25.0370   33.1890 O   0  0  0  0  0  0  0  0  0  0  0  0
   39.0300   25.8930   31.4150 C   0  0  0  0  0  0  0  0  0  0  0  0
   37.4160   26.5490   31.1670 S   0  0  0  0  0  0  0  0  0  0  0  0
   36.0900   28.6960   30.5990 N   0  0  0  0  0  0  0  0  0  0  0  0
   35.5760   29.9120   31.1260 C   0  0  0  0  0  0  0  0  0  0  0  0
   35.8430   29.9320   32.6040 C   0  0  0  0  0  0  0  0  0  0  0  0
   36.2450   28.4720   32.8760 C   0  0  0  0  0  0  0  0  0  0  0  0
   37.0170   28.1780   31.6550 C   0  0  1  0  0  0  0  0  0  0  0  0
   36.8488   25.6746   35.1439 H   0  0  0  0  0  0  0  0  0  0  0  0
   38.4102   26.5199   35.1375 H   0  0  0  0  0  0  0  0  0  0  0  0
   37.4346   23.8929   39.3935 H   0  0  0  0  0  0  0  0  0  0  0  0
   36.7401   25.3292   37.4783 H   0  0  0  0  0  0  0  0  0  0  0  0
   42.0735   23.5794   35.7045 H   0  0  0  0  0  0  0  0  0  0  0  0
   44.0049   21.6954   35.8995 H   0  0  0  0  0  0  0  0  0  0  0  0
   43.0691   19.8593   37.6388 H   0  0  0  0  0  0  0  0  0  0  0  0
   38.6661   23.8787   34.1149 H   0  0  0  0  0  0  0  0  0  0  0  0
   39.7460   26.5489   30.8981 H   0  0  0  0  0  0  0  0  0  0  0  0
   39.0043   24.8672   31.0188 H   0  0  0  0  0  0  0  0  0  0  0  0
   35.3276   28.0255   30.4258 H   0  0  0  0  0  0  0  0  0  0  0  0
   36.0751   30.7666   30.6457 H   0  0  0  0  0  0  0  0  0  0  0  0
   34.4953   29.9830   30.9338 H   0  0  0  0  0  0  0  0  0  0  0  0
   36.6604   30.6247   32.8532 H   0  0  0  0  0  0  0  0  0  0  0  0
   34.9880   30.2759   33.2046 H   0  0  0  0  0  0  0  0  0  0  0  0
   36.8647   28.3825   33.7804 H   0  0  0  0  0  0  0  0  0  0  0  0
   35.4023   27.7901   33.0626 H   0  0  0  0  0  0  0  0  0  0  0  0
   38.0175   28.6019   31.8260 H   0  0  0  0  0  0  0  0  0  0  0  0
  1  4  1  0
  3  2  2  0
  4  3  1  0
  5  4  2  0
  5  6  1  0
  6  7  2  0
  7  2  1  0
  8  6  1  0
  8 12  1  0
  9 10  1  0
  9  8  2  0
 10 11  2  0
 11 12  1  0
 13  1  1  0
 14 16  2  0
 14 15  2  0
 14 13  1  0
 17 14  1  0
 18 17  1  0
 19 20  1  0
 19 23  1  0
 20 21  1  0
 21 22  1  0
 23 18  1  0
 23 22  1  0
  1 24  1  0
  1 25  1  0
  2 26  1  0
  3 27  1  0
  9 28  1  0
 10 29  1  0
 11 30  1  0
 13 31  1  0
 17 32  1  0
 17 33  1  0
 19 34  1  0
 20 35  1  0
 20 36  1  0
 21 37  1  0
 21 38  1  0
 22 39  1  0
 22 40  1  0
 23 41  1  1
M  ISO  8  24   8  25   8  26  14  27  14  28  14  29  14  30  14  31   5
M  ISO  8  32   8  33   8  34   5  35  13  36  13  37  13  38  13  39  13
M  ISO  2  40  13  41  13
M  END
>  <minimizedAffinity>  (1) 
-4.61231899

>  <minimizedRMSD>  (1) 
5.3297534

$$$$
