
     RDKit          3D

 36 38  0  0  0  0  0  0  0  0999 V2000
   35.8680   21.5330   37.1090 C   0  0  0  0  0  0  0  0  0  0  0  0
   36.9950   22.3390   37.0200 C   0  0  0  0  0  0  0  0  0  0  0  0
   37.6770   22.4610   35.7940 C   0  0  0  0  0  0  0  0  0  0  0  0
   37.1890   21.7810   34.7660 N   0  0  0  0  0  0  0  0  0  0  0  0
   36.0600   20.9840   34.8890 C   0  0  0  0  0  0  0  0  0  0  0  0
   35.4150   20.8610   36.0240 N   0  0  0  0  0  0  0  0  0  0  0  0
   35.5940   20.2650   33.7110 C   0  0  0  0  0  0  0  0  0  0  0  0
   35.0780   20.9450   32.6460 C   0  0  0  0  0  0  0  0  0  0  0  0
   34.7120   20.0540   31.6670 C   0  0  0  0  0  0  0  0  0  0  0  0
   35.0280   18.8350   32.1870 C   0  0  0  0  0  0  0  0  0  0  0  0
   35.5310   19.0300   33.3660 O   0  0  0  0  0  0  0  0  0  0  0  0
   38.8790   23.3010   35.6910 C   0  0  0  0  0  0  0  0  0  0  0  0
   38.3720   24.7130   35.8800 N   0  0  0  0  0  0  0  0  0  0  0  0
   39.4090   25.7720   34.9710 S   0  0  0  0  0  0  0  0  0  0  0  0
   39.4630   27.1340   35.4070 O   0  0  0  0  0  0  0  0  0  0  0  0
   40.8160   25.1720   35.1490 O   0  0  0  0  0  0  0  0  0  0  0  0
   39.0390   25.5350   33.2400 C   0  0  0  0  0  0  0  0  0  0  0  0
   37.2080   25.6560   33.0670 S   0  0  0  0  0  0  0  0  0  0  0  0
   36.6510   25.2010   31.4240 C   0  0  0  0  0  0  0  0  0  0  0  0
   35.2760   25.7520   31.0430 C   0  0  0  0  0  0  0  0  0  0  0  0
   35.4750   24.3150   31.2330 C   0  0  0  0  0  0  0  0  0  0  0  0
   35.3387   21.4395   38.0687 H   0  0  0  0  0  0  0  0  0  0  0  0
   37.3549   22.8818   37.9065 H   0  0  0  0  0  0  0  0  0  0  0  0
   34.9717   22.0380   32.5817 H   0  0  0  0  0  0  0  0  0  0  0  0
   34.2654   20.2744   30.6862 H   0  0  0  0  0  0  0  0  0  0  0  0
   34.8827   17.8617   31.6956 H   0  0  0  0  0  0  0  0  0  0  0  0
   39.6041   23.0400   36.4759 H   0  0  0  0  0  0  0  0  0  0  0  0
   39.4004   23.1689   34.7315 H   0  0  0  0  0  0  0  0  0  0  0  0
   37.4045   24.7877   35.5346 H   0  0  0  0  0  0  0  0  0  0  0  0
   39.5288   26.3143   32.6377 H   0  0  0  0  0  0  0  0  0  0  0  0
   39.4057   24.5597   32.8874 H   0  0  0  0  0  0  0  0  0  0  0  0
   37.6758   25.1882   31.0244 H   0  0  0  0  0  0  0  0  0  0  0  0
   35.1040   26.1564   30.0346 H   0  0  0  0  0  0  0  0  0  0  0  0
   34.5945   26.5081   31.4601 H   0  0  0  0  0  0  0  0  0  0  0  0
   35.0249   23.8150   32.1033 H   0  0  0  0  0  0  0  0  0  0  0  0
   35.2805   23.4291   30.6106 H   0  0  0  0  0  0  0  0  0  0  0  0
  2  1  2  0
  3  2  1  0
  4  5  1  0
  4  3  2  0
  5  6  2  0
  6  1  1  0
  7  5  1  0
  8  7  2  0
  9 10  2  0
  9  8  1  0
 10 11  1  0
 11  7  1  0
 12  3  1  0
 12 13  1  0
 14 16  2  0
 14 15  2  0
 14 13  1  0
 17 14  1  0
 18 17  1  0
 19 18  1  0
 20 21  1  0
 20 19  1  0
 21 19  1  0
  1 22  1  0
  2 23  1  0
  8 24  1  0
  9 25  1  0
 10 26  1  0
 12 27  1  0
 12 28  1  0
 13 29  1  0
 17 30  1  0
 17 31  1  0
 19 32  1  0
 20 33  1  0
 20 34  1  0
 21 35  1  0
 21 36  1  0
M  ISO  8  22  14  23  14  24  14  25  14  26  14  27   8  28   8  29   5
M  ISO  7  30   8  31   8  32  13  33  13  34  13  35  13  36  13
M  END
>  <minimizedAffinity>  (1) 
-4.33832979

>  <minimizedRMSD>  (1) 
3.01815867

$$$$
