
     RDKit          3D

 32 33  0  0  0  0  0  0  0  0999 V2000
   37.8950   22.5050   36.2870 C   0  0  0  0  0  0  0  0  0  0  0  0
   38.3900   23.7100   35.8280 C   0  0  0  0  0  0  0  0  0  0  0  0
   38.3140   24.0250   34.4760 C   0  0  0  0  0  0  0  0  0  0  0  0
   37.7500   23.1190   33.6690 N   0  0  0  0  0  0  0  0  0  0  0  0
   37.2660   21.9290   34.1540 C   0  0  0  0  0  0  0  0  0  0  0  0
   37.3350   21.6270   35.4240 N   0  0  0  0  0  0  0  0  0  0  0  0
   36.6620   20.9940   33.2180 C   0  0  0  0  0  0  0  0  0  0  0  0
   35.2880   21.0150   33.0140 C   0  0  0  0  0  0  0  0  0  0  0  0
   34.9810   20.0370   32.0870 C   0  0  0  0  0  0  0  0  0  0  0  0
   36.1750   19.4620   31.7650 C   0  0  0  0  0  0  0  0  0  0  0  0
   37.1190   20.0530   32.4490 O   0  0  0  0  0  0  0  0  0  0  0  0
   38.8440   25.3270   34.0120 C   0  0  0  0  0  0  0  0  0  0  0  0
   37.7010   26.0570   33.4700 N   0  0  0  0  0  0  0  0  0  0  0  0
   38.3170   27.0370   32.1860 S   0  0  0  0  0  0  0  0  0  0  0  0
   37.5220   28.3110   32.0660 O   0  0  0  0  0  0  0  0  0  0  0  0
   39.7200   27.3880   32.4610 O   0  0  0  0  0  0  0  0  0  0  0  0
   38.1410   26.1230   30.7010 C   0  0  0  0  0  0  0  0  0  0  0  0
   36.9560   24.8080   30.7520 S   0  0  0  0  0  0  0  0  0  0  0  0
   35.2540   25.2330   31.0020 C   0  0  0  0  0  0  0  0  0  0  0  0
   34.4680   25.1540   29.8560 F   0  0  0  0  0  0  0  0  0  0  0  0
   34.7260   24.2360   31.8380 F   0  0  0  0  0  0  0  0  0  0  0  0
   35.0150   26.4000   31.6740 F   0  0  0  0  0  0  0  0  0  0  0  0
   37.9564   22.2588   37.3573 H   0  0  0  0  0  0  0  0  0  0  0  0
   38.8449   24.4213   36.5330 H   0  0  0  0  0  0  0  0  0  0  0  0
   34.5712   21.6906   33.5037 H   0  0  0  0  0  0  0  0  0  0  0  0
   33.9870   19.7780   31.6934 H   0  0  0  0  0  0  0  0  0  0  0  0
   36.3193   18.6389   31.0497 H   0  0  0  0  0  0  0  0  0  0  0  0
   39.2873   25.8807   34.8528 H   0  0  0  0  0  0  0  0  0  0  0  0
   39.6325   25.1948   33.2565 H   0  0  0  0  0  0  0  0  0  0  0  0
   36.9956   25.3987   33.1095 H   0  0  0  0  0  0  0  0  0  0  0  0
   39.1202   25.6876   30.4528 H   0  0  0  0  0  0  0  0  0  0  0  0
   37.7697   26.8355   29.9497 H   0  0  0  0  0  0  0  0  0  0  0  0
  2  1  2  0
  3  2  1  0
  4  5  1  0
  4  3  2  0
  5  6  2  0
  6  1  1  0
  7  5  1  0
  8  7  2  0
  9  8  1  0
 10  9  2  0
 10 11  1  0
 11  7  1  0
 12  3  1  0
 13 12  1  0
 14 16  2  0
 14 13  1  0
 15 14  2  0
 17 18  1  0
 17 14  1  0
 18 19  1  0
 19 22  1  0
 19 21  1  0
 20 19  1  0
  1 23  1  0
  2 24  1  0
  8 25  1  0
  9 26  1  0
 10 27  1  0
 12 28  1  0
 12 29  1  0
 13 30  1  0
 17 31  1  0
 17 32  1  0
M  ISO  8  23  14  24  14  25  14  26  14  27  14  28   8  29   8  30   5
M  ISO  2  31   8  32   8
M  END
>  <minimizedAffinity>  (1) 
-4.20963955

>  <minimizedRMSD>  (1) 
1.31659687

$$$$
