
     RDKit          3D

 44 47  0  0  0  0  0  0  0  0999 V2000
   38.8240   25.1740   32.9140 N   0  0  0  0  0  0  0  0  0  0  0  0
   39.6000   24.1900   33.6000 C   0  0  0  0  0  0  0  0  0  0  0  0
   37.6340   22.3890   36.2580 C   0  0  0  0  0  0  0  0  0  0  0  0
   38.5370   23.2380   35.6290 C   0  0  0  0  0  0  0  0  0  0  0  0
   38.6260   23.2720   34.2430 C   0  0  0  0  0  0  0  0  0  0  0  0
   37.7980   22.4460   33.5720 N   0  0  0  0  0  0  0  0  0  0  0  0
   36.9160   21.6190   34.2190 C   0  0  0  0  0  0  0  0  0  0  0  0
   36.8330   21.5870   35.5160 N   0  0  0  0  0  0  0  0  0  0  0  0
   36.0600   20.7610   33.4260 C   0  0  0  0  0  0  0  0  0  0  0  0
   35.2120   21.3360   32.4920 C   0  0  0  0  0  0  0  0  0  0  0  0
   34.5060   20.3000   31.8730 C   0  0  0  0  0  0  0  0  0  0  0  0
   34.9680   19.1490   32.4700 C   0  0  0  0  0  0  0  0  0  0  0  0
   35.8640   19.4710   33.3590 O   0  0  0  0  0  0  0  0  0  0  0  0
   39.0830   24.9890   31.2430 S   0  0  0  0  0  0  0  0  0  0  0  0
   39.4190   26.3080   30.5890 O   0  0  0  0  0  0  0  0  0  0  0  0
   40.2000   24.0530   31.0160 O   0  0  0  0  0  0  0  0  0  0  0  0
   37.5770   24.3900   30.5350 C   0  0  0  0  0  0  0  0  0  0  0  0
   36.1090   25.0280   31.3250 S   0  0  0  0  0  0  0  0  0  0  0  0
   36.0970   26.7900   31.5050 C   0  0  0  0  0  0  0  0  0  0  0  0
   36.2720   27.6330   30.4500 N   0  0  0  0  0  0  0  0  0  0  0  0
   36.2200   28.8770   30.8540 O   0  0  0  0  0  0  0  0  0  0  0  0
   36.0110   28.8900   32.1640 C   0  0  0  0  0  0  0  0  0  0  0  0
   35.9380   27.6150   32.5490 N   0  0  0  0  0  0  0  0  0  0  0  0
   35.8760   30.0340   33.0790 C   0  0  0  0  0  0  0  0  0  0  0  0
   35.8670   31.3430   32.6010 C   0  0  0  0  0  0  0  0  0  0  0  0
   35.7370   32.3710   33.5120 C   0  0  0  0  0  0  0  0  0  0  0  0
   35.6200   32.0990   34.8590 C   0  0  0  0  0  0  0  0  0  0  0  0
   35.6320   30.7940   35.3060 C   0  0  0  0  0  0  0  0  0  0  0  0
   35.7610   29.7070   34.4330 C   0  0  0  0  0  0  0  0  0  0  0  0
   37.8253   25.0415   33.1284 H   0  0  0  0  0  0  0  0  0  0  0  0
   40.2322   23.6384   32.8886 H   0  0  0  0  0  0  0  0  0  0  0  0
   40.2681   24.6511   34.3424 H   0  0  0  0  0  0  0  0  0  0  0  0
   37.5699   22.3683   37.3559 H   0  0  0  0  0  0  0  0  0  0  0  0
   39.1864   23.8882   36.2335 H   0  0  0  0  0  0  0  0  0  0  0  0
   35.1128   22.4103   32.2773 H   0  0  0  0  0  0  0  0  0  0  0  0
   33.7469   20.3860   31.0815 H   0  0  0  0  0  0  0  0  0  0  0  0
   34.6357   18.1270   32.2353 H   0  0  0  0  0  0  0  0  0  0  0  0
   37.5534   24.6783   29.4737 H   0  0  0  0  0  0  0  0  0  0  0  0
   37.5683   23.2988   30.6738 H   0  0  0  0  0  0  0  0  0  0  0  0
   35.9611   31.5513   31.5250 H   0  0  0  0  0  0  0  0  0  0  0  0
   35.7266   33.4137   33.1619 H   0  0  0  0  0  0  0  0  0  0  0  0
   35.5169   32.9246   35.5786 H   0  0  0  0  0  0  0  0  0  0  0  0
   35.5370   30.6009   36.3847 H   0  0  0  0  0  0  0  0  0  0  0  0
   35.7712   28.6661   34.7887 H   0  0  0  0  0  0  0  0  0  0  0  0
  1  2  1  0
  2  5  1  0
  4  3  2  0
  5  4  1  0
  6  7  1  0
  6  5  2  0
  7  8  2  0
  8  3  1  0
  9  7  1  0
 10  9  2  0
 11 12  2  0
 11 10  1  0
 12 13  1  0
 13  9  1  0
 14  1  1  0
 15 14  2  0
 16 14  2  0
 17 14  1  0
 17 18  1  0
 18 19  1  0
 19 23  1  0
 20 21  1  0
 20 19  2  0
 21 22  1  0
 22 23  2  0
 22 24  1  0
 24 29  1  0
 25 24  2  0
 25 26  1  0
 26 27  2  0
 27 28  1  0
 29 28  2  0
  1 30  1  0
  2 31  1  0
  2 32  1  0
  3 33  1  0
  4 34  1  0
 10 35  1  0
 11 36  1  0
 12 37  1  0
 17 38  1  0
 17 39  1  0
 25 40  1  0
 26 41  1  0
 27 42  1  0
 28 43  1  0
 29 44  1  0
M  ISO  8  30   5  31   8  32   8  33  14  34  14  35  14  36  14  37  14
M  ISO  7  38   8  39   8  40  14  41  14  42  14  43  14  44  14
M  END
>  <minimizedAffinity>  (1) 
-5.18781137

>  <minimizedRMSD>  (1) 
0.759515464

$$$$
