
     RDKit          3D

 44 47  0  0  0  0  0  0  0  0999 V2000
   38.9820   25.1150   32.9470 N   0  0  0  0  0  0  0  0  0  0  0  0
   39.7110   24.0750   33.6060 C   0  0  0  0  0  0  0  0  0  0  0  0
   37.6460   22.3820   36.2540 C   0  0  0  0  0  0  0  0  0  0  0  0
   38.5840   23.1920   35.6290 C   0  0  0  0  0  0  0  0  0  0  0  0
   38.6990   23.1980   34.2440 C   0  0  0  0  0  0  0  0  0  0  0  0
   37.8590   22.3880   33.5720 N   0  0  0  0  0  0  0  0  0  0  0  0
   36.9410   21.5990   34.2140 C   0  0  0  0  0  0  0  0  0  0  0  0
   36.8370   21.5940   35.5110 N   0  0  0  0  0  0  0  0  0  0  0  0
   36.0730   20.7530   33.4190 C   0  0  0  0  0  0  0  0  0  0  0  0
   35.2210   21.3410   32.4970 C   0  0  0  0  0  0  0  0  0  0  0  0
   34.5030   20.3200   31.8740 C   0  0  0  0  0  0  0  0  0  0  0  0
   34.9630   19.1560   32.4580 C   0  0  0  0  0  0  0  0  0  0  0  0
   35.8670   19.4650   33.3440 O   0  0  0  0  0  0  0  0  0  0  0  0
   39.2680   24.9890   31.2720 S   0  0  0  0  0  0  0  0  0  0  0  0
   39.5550   26.3380   30.6570 O   0  0  0  0  0  0  0  0  0  0  0  0
   40.4320   24.1120   31.0370 O   0  0  0  0  0  0  0  0  0  0  0  0
   37.7990   24.3450   30.5300 C   0  0  0  0  0  0  0  0  0  0  0  0
   36.2970   24.8970   31.3210 S   0  0  0  0  0  0  0  0  0  0  0  0
   36.1970   26.6520   31.5330 C   0  0  0  0  0  0  0  0  0  0  0  0
   36.2710   27.5160   30.4850 N   0  0  0  0  0  0  0  0  0  0  0  0
   36.1710   28.7510   30.9090 O   0  0  0  0  0  0  0  0  0  0  0  0
   36.0310   28.7260   32.2350 C   0  0  0  0  0  0  0  0  0  0  0  0
   36.0490   27.4490   32.5960 N   0  0  0  0  0  0  0  0  0  0  0  0
   35.8880   29.9240   33.0810 C   0  0  0  0  0  0  0  0  0  0  0  0
   35.9090   31.1650   32.4750 C   0  0  0  0  0  0  0  0  0  0  0  0
   35.7720   32.2900   33.2970 C   0  0  0  0  0  0  0  0  0  0  0  0
   35.6260   32.0680   34.6650 C   0  0  0  0  0  0  0  0  0  0  0  0
   35.6080   30.8220   35.2570 C   0  0  0  0  0  0  0  0  0  0  0  0
   35.7430   29.7200   34.4390 C   0  0  0  0  0  0  0  0  0  0  0  0
   37.9753   25.0094   33.1375 H   0  0  0  0  0  0  0  0  0  0  0  0
   40.3041   23.5042   32.8763 H   0  0  0  0  0  0  0  0  0  0  0  0
   40.4101   24.4857   34.3493 H   0  0  0  0  0  0  0  0  0  0  0  0
   37.5612   22.3813   37.3507 H   0  0  0  0  0  0  0  0  0  0  0  0
   39.2411   23.8338   36.2343 H   0  0  0  0  0  0  0  0  0  0  0  0
   35.1279   22.4180   32.2934 H   0  0  0  0  0  0  0  0  0  0  0  0
   33.7382   20.4200   31.0897 H   0  0  0  0  0  0  0  0  0  0  0  0
   34.6230   18.1383   32.2157 H   0  0  0  0  0  0  0  0  0  0  0  0
   37.7739   24.6616   29.4769 H   0  0  0  0  0  0  0  0  0  0  0  0
   37.8366   23.2509   30.6375 H   0  0  0  0  0  0  0  0  0  0  0  0
   36.0290   31.2657   31.3862 H   0  0  0  0  0  0  0  0  0  0  0  0
   35.7793   33.3078   32.8799 H   0  0  0  0  0  0  0  0  0  0  0  0
   35.5176   32.9467   35.3177 H   0  0  0  0  0  0  0  0  0  0  0  0
   35.4899   30.7113   36.3450 H   0  0  0  0  0  0  0  0  0  0  0  0
   35.7354   28.7030   34.8582 H   0  0  0  0  0  0  0  0  0  0  0  0
  1  2  1  0
  2  5  1  0
  4  3  2  0
  5  4  1  0
  6  7  1  0
  6  5  2  0
  7  8  2  0
  8  3  1  0
  9  7  1  0
 10  9  2  0
 11 12  2  0
 11 10  1  0
 12 13  1  0
 13  9  1  0
 14  1  1  0
 15 14  2  0
 16 14  2  0
 17 14  1  0
 17 18  1  0
 18 19  1  0
 19 23  1  0
 20 21  1  0
 20 19  2  0
 21 22  1  0
 22 23  2  0
 22 24  1  0
 24 29  1  0
 25 24  2  0
 25 26  1  0
 26 27  2  0
 27 28  1  0
 29 28  2  0
  1 30  1  0
  2 31  1  0
  2 32  1  0
  3 33  1  0
  4 34  1  0
 10 35  1  0
 11 36  1  0
 12 37  1  0
 17 38  1  0
 17 39  1  0
 25 40  1  0
 26 41  1  0
 27 42  1  0
 28 43  1  0
 29 44  1  0
M  ISO  8  30   5  31   8  32   8  33  14  34  14  35  14  36  14  37  14
M  ISO  7  38   8  39   8  40  14  41  14  42  14  43  14  44  14
M  END
>  <minimizedAffinity>  (1) 
-5.14568853

>  <minimizedRMSD>  (1) 
0.670630932

$$$$
