
     RDKit          3D

 41 44  0  0  0  0  0  0  0  0999 V2000
   39.7540   24.0530   33.5230 C   0  0  0  0  0  0  0  0  0  0  0  0
   37.7000   22.4100   36.2080 C   0  0  0  0  0  0  0  0  0  0  0  0
   38.6400   23.2040   35.5650 C   0  0  0  0  0  0  0  0  0  0  0  0
   38.7390   23.1910   34.1780 C   0  0  0  0  0  0  0  0  0  0  0  0
   37.8910   22.3810   33.5230 N   0  0  0  0  0  0  0  0  0  0  0  0
   36.9710   21.6060   34.1730 C   0  0  0  0  0  0  0  0  0  0  0  0
   36.8780   21.6190   35.4790 N   0  0  0  0  0  0  0  0  0  0  0  0
   36.0920   20.7610   33.4020 C   0  0  0  0  0  0  0  0  0  0  0  0
   35.2310   21.3450   32.4880 C   0  0  0  0  0  0  0  0  0  0  0  0
   34.4990   20.3330   31.8800 C   0  0  0  0  0  0  0  0  0  0  0  0
   34.9560   19.1660   32.4590 C   0  0  0  0  0  0  0  0  0  0  0  0
   35.8820   19.4780   33.3370 O   0  0  0  0  0  0  0  0  0  0  0  0
   39.0360   25.1220   32.9100 N   0  0  0  0  0  0  0  0  0  0  0  0
   39.1840   24.9800   31.2240 S   0  0  0  0  0  0  0  0  0  0  0  0
   39.5050   26.3060   30.5780 O   0  0  0  0  0  0  0  0  0  0  0  0
   40.2720   24.0290   30.9060 O   0  0  0  0  0  0  0  0  0  0  0  0
   37.6290   24.4160   30.6000 C   0  0  0  0  0  0  0  0  0  0  0  0
   36.2290   25.0510   31.5050 S   0  0  0  0  0  0  0  0  0  0  0  0
   36.1520   26.8160   31.5660 C   0  0  0  0  0  0  0  0  0  0  0  0
   36.2930   27.5980   30.4690 N   0  0  0  0  0  0  0  0  0  0  0  0
   36.1890   28.8640   30.8000 O   0  0  0  0  0  0  0  0  0  0  0  0
   35.9810   28.9440   32.1040 C   0  0  0  0  0  0  0  0  0  0  0  0
   35.9600   27.6830   32.5670 N   0  0  0  0  0  0  0  0  0  0  0  0
   35.7910   30.0060   33.0360 N   0  0  0  0  0  0  0  0  0  0  0  0
   35.6340   29.6370   34.3270 C   0  0  0  0  0  0  0  0  0  0  0  0
   35.4670   30.7980   35.0590 C   0  0  0  0  0  0  0  0  0  0  0  0
   35.5240   31.8420   34.2110 N   0  0  0  0  0  0  0  0  0  0  0  0
   35.7250   31.3520   32.9600 C   0  0  0  0  0  0  0  0  0  0  0  0
   40.4587   24.4467   34.2703 H   0  0  0  0  0  0  0  0  0  0  0  0
   40.3399   23.4887   32.7826 H   0  0  0  0  0  0  0  0  0  0  0  0
   37.6234   22.4236   37.3052 H   0  0  0  0  0  0  0  0  0  0  0  0
   39.3097   23.8465   36.1555 H   0  0  0  0  0  0  0  0  0  0  0  0
   35.1423   22.4215   32.2799 H   0  0  0  0  0  0  0  0  0  0  0  0
   33.7244   20.4384   31.1062 H   0  0  0  0  0  0  0  0  0  0  0  0
   34.6052   18.1500   32.2254 H   0  0  0  0  0  0  0  0  0  0  0  0
   38.0424   25.0700   33.1764 H   0  0  0  0  0  0  0  0  0  0  0  0
   37.5387   24.7334   29.5507 H   0  0  0  0  0  0  0  0  0  0  0  0
   37.6146   23.3213   30.7064 H   0  0  0  0  0  0  0  0  0  0  0  0
   35.6383   28.6096   34.7200 H   0  0  0  0  0  0  0  0  0  0  0  0
   35.3140   30.8582   36.1466 H   0  0  0  0  0  0  0  0  0  0  0  0
   35.8181   31.9502   32.0416 H   0  0  0  0  0  0  0  0  0  0  0  0
  1  4  1  0
  3  2  2  0
  4  3  1  0
  5  6  1  0
  5  4  2  0
  6  7  2  0
  7  2  1  0
  8  6  1  0
  9  8  2  0
 10 11  2  0
 10  9  1  0
 11 12  1  0
 12  8  1  0
 13  1  1  0
 14 13  1  0
 15 14  2  0
 16 14  2  0
 17 14  1  0
 17 18  1  0
 18 19  1  0
 19 23  1  0
 20 21  1  0
 20 19  2  0
 21 22  1  0
 22 23  2  0
 22 24  1  0
 24 25  1  0
 25 26  2  0
 27 26  1  0
 28 24  1  0
 28 27  2  0
  1 29  1  0
  1 30  1  0
  2 31  1  0
  3 32  1  0
  9 33  1  0
 10 34  1  0
 11 35  1  0
 13 36  1  0
 17 37  1  0
 17 38  1  0
 25 39  1  0
 26 40  1  0
 28 41  1  0
M  ISO  8  29   8  30   8  31  14  32  14  33  14  34  14  35  14  36   5
M  ISO  5  37   8  38   8  39  14  40  14  41  14
M  END
>  <minimizedAffinity>  (1) 
-4.85868979

>  <minimizedRMSD>  (1) 
0.734558523

$$$$
