
     RDKit          3D

 41 44  0  0  0  0  0  0  0  0999 V2000
   36.7800   25.5060   32.9380 N   0  0  0  0  0  0  0  0  0  0  0  0
   37.4260   26.3900   33.8630 C   0  0  0  0  0  0  0  0  0  0  0  0
   39.3620   23.7230   35.6720 C   0  0  0  0  0  0  0  0  0  0  0  0
   38.3150   24.4490   35.1280 C   0  0  0  0  0  0  0  0  0  0  0  0
   38.5630   25.6290   34.4370 C   0  0  0  0  0  0  0  0  0  0  0  0
   39.8520   26.0020   34.3390 N   0  0  0  0  0  0  0  0  0  0  0  0
   40.8720   25.2680   34.8840 C   0  0  0  0  0  0  0  0  0  0  0  0
   40.6320   24.1570   35.5330 N   0  0  0  0  0  0  0  0  0  0  0  0
   42.2320   25.7310   34.7370 C   0  0  0  0  0  0  0  0  0  0  0  0
   42.4930   26.7810   33.8750 C   0  0  0  0  0  0  0  0  0  0  0  0
   43.8660   27.0320   33.9160 C   0  0  0  0  0  0  0  0  0  0  0  0
   44.3690   26.1130   34.8080 C   0  0  0  0  0  0  0  0  0  0  0  0
   43.3780   25.3840   35.2530 O   0  0  0  0  0  0  0  0  0  0  0  0
   37.0000   26.1300   31.3680 S   0  0  0  0  0  0  0  0  0  0  0  0
   37.8740   25.2230   30.5290 O   0  0  0  0  0  0  0  0  0  0  0  0
   35.6900   26.2610   30.7020 O   0  0  0  0  0  0  0  0  0  0  0  0
   37.8120   27.6910   31.5240 C   0  0  0  0  0  0  0  0  0  0  0  0
   36.7480   29.0870   31.2010 S   0  0  0  0  0  0  0  0  0  0  0  0
   35.6450   29.4710   32.5260 C   0  0  0  0  0  0  0  0  0  0  0  0
   34.4040   28.9030   32.6360 N   0  0  0  0  0  0  0  0  0  0  0  0
   33.8070   29.3630   33.6990 O   0  0  0  0  0  0  0  0  0  0  0  0
   34.6000   30.2240   34.3150 C   0  0  0  0  0  0  0  0  0  0  0  0
   35.7270   30.2830   33.5870 N   0  0  0  0  0  0  0  0  0  0  0  0
   34.3160   30.9640   35.5430 C   0  0  0  0  0  0  0  0  0  0  0  0
   35.1860   31.8270   36.1780 C   0  0  0  0  0  0  0  0  0  0  0  0
   34.5000   32.2910   37.2810 C   0  0  0  0  0  0  0  0  0  0  0  0
   33.2540   31.6990   37.2750 C   0  0  0  0  0  0  0  0  0  0  0  0
   33.1810   30.9050   36.2090 O   0  0  0  0  0  0  0  0  0  0  0  0
   37.1983   24.5670   33.0023 H   0  0  0  0  0  0  0  0  0  0  0  0
   37.7918   27.2868   33.3415 H   0  0  0  0  0  0  0  0  0  0  0  0
   36.7321   26.7266   34.6473 H   0  0  0  0  0  0  0  0  0  0  0  0
   39.1575   22.7905   36.2185 H   0  0  0  0  0  0  0  0  0  0  0  0
   37.2818   24.0895   35.2436 H   0  0  0  0  0  0  0  0  0  0  0  0
   41.7523   27.3209   33.2668 H   0  0  0  0  0  0  0  0  0  0  0  0
   44.4239   27.7976   33.3570 H   0  0  0  0  0  0  0  0  0  0  0  0
   45.4250   26.0089   35.0977 H   0  0  0  0  0  0  0  0  0  0  0  0
   38.2002   27.7798   32.5494 H   0  0  0  0  0  0  0  0  0  0  0  0
   38.6121   27.7146   30.7695 H   0  0  0  0  0  0  0  0  0  0  0  0
   36.2090   32.0890   35.8700 H   0  0  0  0  0  0  0  0  0  0  0  0
   34.8777   33.0034   38.0292 H   0  0  0  0  0  0  0  0  0  0  0  0
   32.4602   31.8555   38.0202 H   0  0  0  0  0  0  0  0  0  0  0  0
  1  2  1  0
  2  5  1  0
  4  3  2  0
  5  4  1  0
  6  5  2  0
  6  7  1  0
  7  8  2  0
  8  3  1  0
  9  7  1  0
  9 13  1  0
 10 11  1  0
 10  9  2  0
 11 12  2  0
 12 13  1  0
 14 17  1  0
 14  1  1  0
 15 14  2  0
 16 14  2  0
 18 17  1  0
 18 19  1  0
 19 20  2  0
 19 23  1  0
 20 21  1  0
 21 22  1  0
 22 24  1  0
 23 22  2  0
 24 25  2  0
 24 28  1  0
 25 26  1  0
 27 26  2  0
 28 27  1  0
  1 29  1  0
  2 30  1  0
  2 31  1  0
  3 32  1  0
  4 33  1  0
 10 34  1  0
 11 35  1  0
 12 36  1  0
 17 37  1  0
 17 38  1  0
 25 39  1  0
 26 40  1  0
 27 41  1  0
M  ISO  8  29   5  30   8  31   8  32  14  33  14  34  14  35  14  36  14
M  ISO  5  37   8  38   8  39  14  40  14  41  14
M  END
>  <minimizedAffinity>  (1) 
-4.77614164

>  <minimizedRMSD>  (1) 
5.43826628

$$$$
