
     RDKit          3D

 41 44  0  0  0  0  0  0  0  0999 V2000
   39.0190   25.1030   32.8750 N   0  0  0  0  0  0  0  0  0  0  0  0
   39.7510   24.0430   33.5090 C   0  0  0  0  0  0  0  0  0  0  0  0
   37.6960   22.4030   36.1970 C   0  0  0  0  0  0  0  0  0  0  0  0
   38.6320   23.1930   35.5560 C   0  0  0  0  0  0  0  0  0  0  0  0
   38.7360   23.1820   34.1690 C   0  0  0  0  0  0  0  0  0  0  0  0
   37.8870   22.3730   33.5160 N   0  0  0  0  0  0  0  0  0  0  0  0
   36.9660   21.5980   34.1770 C   0  0  0  0  0  0  0  0  0  0  0  0
   36.8680   21.6070   35.4720 N   0  0  0  0  0  0  0  0  0  0  0  0
   36.0820   20.7490   33.4000 C   0  0  0  0  0  0  0  0  0  0  0  0
   35.2180   21.3310   32.4900 C   0  0  0  0  0  0  0  0  0  0  0  0
   34.4900   20.3090   31.8830 C   0  0  0  0  0  0  0  0  0  0  0  0
   34.9570   19.1450   32.4660 C   0  0  0  0  0  0  0  0  0  0  0  0
   35.8760   19.4600   33.3340 O   0  0  0  0  0  0  0  0  0  0  0  0
   39.2300   24.9530   31.1890 S   0  0  0  0  0  0  0  0  0  0  0  0
   39.5300   26.2910   30.5530 O   0  0  0  0  0  0  0  0  0  0  0  0
   40.3570   24.0440   30.9110 O   0  0  0  0  0  0  0  0  0  0  0  0
   37.7100   24.3480   30.5210 C   0  0  0  0  0  0  0  0  0  0  0  0
   36.2580   24.9210   31.3840 S   0  0  0  0  0  0  0  0  0  0  0  0
   36.1640   26.6830   31.5360 C   0  0  0  0  0  0  0  0  0  0  0  0
   36.3070   27.5200   30.4740 N   0  0  0  0  0  0  0  0  0  0  0  0
   36.1950   28.7660   30.8580 O   0  0  0  0  0  0  0  0  0  0  0  0
   35.9770   28.7810   32.1690 C   0  0  0  0  0  0  0  0  0  0  0  0
   35.9600   27.5150   32.5700 N   0  0  0  0  0  0  0  0  0  0  0  0
   35.7790   29.8560   33.1100 C   0  0  0  0  0  0  0  0  0  0  0  0
   35.6340   31.2210   32.9660 C   0  0  0  0  0  0  0  0  0  0  0  0
   35.4670   31.8010   34.2080 C   0  0  0  0  0  0  0  0  0  0  0  0
   35.5140   30.7690   35.0960 N   0  0  0  0  0  0  0  0  0  0  0  0
   35.6960   29.6310   34.4470 N   0  0  0  0  0  0  0  0  0  0  0  0
   38.0191   25.0270   33.1104 H   0  0  0  0  0  0  0  0  0  0  0  0
   40.3132   23.4657   32.7602 H   0  0  0  0  0  0  0  0  0  0  0  0
   40.4800   24.4343   34.2338 H   0  0  0  0  0  0  0  0  0  0  0  0
   37.6218   22.4190   37.2944 H   0  0  0  0  0  0  0  0  0  0  0  0
   39.3002   23.8358   36.1479 H   0  0  0  0  0  0  0  0  0  0  0  0
   35.1226   22.4070   32.2826 H   0  0  0  0  0  0  0  0  0  0  0  0
   33.7139   20.4068   31.1096 H   0  0  0  0  0  0  0  0  0  0  0  0
   34.6112   18.1264   32.2359 H   0  0  0  0  0  0  0  0  0  0  0  0
   37.6396   24.6728   29.4724 H   0  0  0  0  0  0  0  0  0  0  0  0
   37.7304   23.2532   30.6254 H   0  0  0  0  0  0  0  0  0  0  0  0
   35.6491   31.7634   32.0091 H   0  0  0  0  0  0  0  0  0  0  0  0
   35.3261   32.8686   34.4324 H   0  0  0  0  0  0  0  0  0  0  0  0
   35.4218   30.8610   36.1177 H   0  0  0  0  0  0  0  0  0  0  0  0
  1  2  1  0
  2  5  1  0
  4  3  2  0
  5  4  1  0
  6  5  2  0
  6  7  1  0
  7  8  2  0
  8  3  1  0
  9  7  1  0
 10  9  2  0
 11 12  2  0
 11 10  1  0
 12 13  1  0
 13  9  1  0
 14  1  1  0
 15 14  2  0
 16 14  2  0
 17 14  1  0
 17 18  1  0
 18 19  1  0
 19 23  1  0
 20 21  1  0
 20 19  2  0
 21 22  1  0
 22 23  2  0
 22 24  1  0
 24 28  2  0
 25 24  1  0
 25 26  2  0
 26 27  1  0
 28 27  1  0
  1 29  1  0
  2 30  1  0
  2 31  1  0
  3 32  1  0
  4 33  1  0
 10 34  1  0
 11 35  1  0
 12 36  1  0
 17 37  1  0
 17 38  1  0
 25 39  1  0
 26 40  1  0
 27 41  1  0
M  ISO  8  29   5  30   8  31   8  32  14  33  14  34  14  35  14  36  14
M  ISO  5  37   8  38   8  39  14  40  14  41   9
M  END
>  <minimizedAffinity>  (1) 
-4.69119644

>  <minimizedRMSD>  (1) 
0.802540421

$$$$
