
     RDKit          3D

 40 43  0  0  0  0  0  0  0  0999 V2000
   38.9940   25.1090   32.9540 N   0  0  0  0  0  0  0  0  0  0  0  0
   39.7250   24.0600   33.6050 C   0  0  0  0  0  0  0  0  0  0  0  0
   37.6420   22.3820   36.2520 C   0  0  0  0  0  0  0  0  0  0  0  0
   38.5850   23.1850   35.6290 C   0  0  0  0  0  0  0  0  0  0  0  0
   38.7070   23.1870   34.2450 C   0  0  0  0  0  0  0  0  0  0  0  0
   37.8710   22.3810   33.5720 N   0  0  0  0  0  0  0  0  0  0  0  0
   36.9430   21.5920   34.2050 C   0  0  0  0  0  0  0  0  0  0  0  0
   36.8370   21.5980   35.5100 N   0  0  0  0  0  0  0  0  0  0  0  0
   36.0770   20.7510   33.4170 C   0  0  0  0  0  0  0  0  0  0  0  0
   35.2160   21.3400   32.5060 C   0  0  0  0  0  0  0  0  0  0  0  0
   34.4930   20.3260   31.8780 C   0  0  0  0  0  0  0  0  0  0  0  0
   34.9590   19.1620   32.4470 C   0  0  0  0  0  0  0  0  0  0  0  0
   35.8740   19.4660   33.3310 O   0  0  0  0  0  0  0  0  0  0  0  0
   39.3040   25.0110   31.2800 S   0  0  0  0  0  0  0  0  0  0  0  0
   39.5860   26.3760   30.6910 O   0  0  0  0  0  0  0  0  0  0  0  0
   40.4780   24.1510   31.0440 O   0  0  0  0  0  0  0  0  0  0  0  0
   37.8600   24.3530   30.5120 C   0  0  0  0  0  0  0  0  0  0  0  0
   36.3420   24.8780   31.2860 S   0  0  0  0  0  0  0  0  0  0  0  0
   36.2130   26.6280   31.5090 C   0  0  0  0  0  0  0  0  0  0  0  0
   36.2940   27.5120   30.4850 N   0  0  0  0  0  0  0  0  0  0  0  0
   36.1670   28.7280   30.9250 O   0  0  0  0  0  0  0  0  0  0  0  0
   35.9970   28.7030   32.2480 C   0  0  0  0  0  0  0  0  0  0  0  0
   36.0300   27.4100   32.5720 N   0  0  0  0  0  0  0  0  0  0  0  0
   35.8190   29.8790   33.0950 C   0  0  0  0  0  0  0  0  0  0  0  0
   35.8030   31.2020   32.4830 C   0  0  0  0  0  0  0  0  0  0  0  0
   35.5530   32.3070   33.9830 S   0  0  0  0  0  0  0  0  0  0  0  0
   35.5190   30.8130   35.1090 C   0  0  0  0  0  0  0  0  0  0  0  0
   35.6630   29.9050   34.4030 N   0  0  0  0  0  0  0  0  0  0  0  0
   37.9858   24.9929   33.1297 H   0  0  0  0  0  0  0  0  0  0  0  0
   40.3103   23.4887   32.8694 H   0  0  0  0  0  0  0  0  0  0  0  0
   40.4333   24.4617   34.3446 H   0  0  0  0  0  0  0  0  0  0  0  0
   37.5518   22.3853   37.3483 H   0  0  0  0  0  0  0  0  0  0  0  0
   39.2420   23.8258   36.2354 H   0  0  0  0  0  0  0  0  0  0  0  0
   35.1193   22.4184   32.3118 H   0  0  0  0  0  0  0  0  0  0  0  0
   33.7219   20.4325   31.1008 H   0  0  0  0  0  0  0  0  0  0  0  0
   34.6186   18.1457   32.1994 H   0  0  0  0  0  0  0  0  0  0  0  0
   37.8456   24.6778   29.4611 H   0  0  0  0  0  0  0  0  0  0  0  0
   37.9115   23.2585   30.6093 H   0  0  0  0  0  0  0  0  0  0  0  0
   35.9091   31.4800   31.4240 H   0  0  0  0  0  0  0  0  0  0  0  0
   35.3905   30.7994   36.2014 H   0  0  0  0  0  0  0  0  0  0  0  0
  1  2  1  0
  2  5  1  0
  4  3  2  0
  5  4  1  0
  6  7  1  0
  6  5  2  0
  7  8  2  0
  8  3  1  0
  9  7  1  0
 10  9  2  0
 11 12  2  0
 11 10  1  0
 12 13  1  0
 13  9  1  0
 14  1  1  0
 15 14  2  0
 16 14  2  0
 17 14  1  0
 17 18  1  0
 18 19  1  0
 19 23  1  0
 20 21  1  0
 20 19  2  0
 21 22  1  0
 22 23  2  0
 22 24  1  0
 24 28  1  0
 25 24  2  0
 25 26  1  0
 26 27  1  0
 28 27  2  0
  1 29  1  0
  2 30  1  0
  2 31  1  0
  3 32  1  0
  4 33  1  0
 10 34  1  0
 11 35  1  0
 12 36  1  0
 17 37  1  0
 17 38  1  0
 25 39  1  0
 27 40  1  0
M  ISO  8  29   5  30   8  31   8  32  14  33  14  34  14  35  14  36  14
M  ISO  4  37   8  38   8  39  14  40  14
M  END
>  <minimizedAffinity>  (1) 
-4.60205889

>  <minimizedRMSD>  (1) 
0.627426565

$$$$
