
     RDKit          3D

 46 48  0  0  0  0  0  0  0  0999 V2000
   39.6360   24.1900   33.6660 C   0  0  0  0  0  0  0  0  0  0  0  0
   37.6250   22.4080   36.2900 C   0  0  0  0  0  0  0  0  0  0  0  0
   38.5400   23.2470   35.6780 C   0  0  0  0  0  0  0  0  0  0  0  0
   38.6460   23.2780   34.2930 C   0  0  0  0  0  0  0  0  0  0  0  0
   37.8230   22.4620   33.6150 N   0  0  0  0  0  0  0  0  0  0  0  0
   36.9240   21.6400   34.2510 C   0  0  0  0  0  0  0  0  0  0  0  0
   36.8230   21.6100   35.5420 N   0  0  0  0  0  0  0  0  0  0  0  0
   36.0720   20.7890   33.4380 C   0  0  0  0  0  0  0  0  0  0  0  0
   35.2380   21.3610   32.5030 C   0  0  0  0  0  0  0  0  0  0  0  0
   34.5390   20.3360   31.8680 C   0  0  0  0  0  0  0  0  0  0  0  0
   34.9960   19.1860   32.4610 C   0  0  0  0  0  0  0  0  0  0  0  0
   35.8790   19.4990   33.3610 O   0  0  0  0  0  0  0  0  0  0  0  0
   38.8760   25.1750   32.9550 N   0  0  0  0  0  0  0  0  0  0  0  0
   39.2330   25.0300   31.2940 S   0  0  0  0  0  0  0  0  0  0  0  0
   39.5890   26.3650   30.6870 O   0  0  0  0  0  0  0  0  0  0  0  0
   40.3780   24.1200   31.1160 O   0  0  0  0  0  0  0  0  0  0  0  0
   37.7760   24.4200   30.4950 C   0  0  0  0  0  0  0  0  0  0  0  0
   36.2490   24.9520   31.2660 S   0  0  0  0  0  0  0  0  0  0  0  0
   36.0810   26.7070   31.3750 C   0  0  0  0  0  0  0  0  0  0  0  0
   36.4240   27.5400   30.3470 N   0  0  0  0  0  0  0  0  0  0  0  0
   36.2090   28.7870   30.6800 O   0  0  0  0  0  0  0  0  0  0  0  0
   35.7200   28.8030   31.9310 C   0  0  0  0  0  0  0  0  0  0  0  0
   35.6520   27.5440   32.3280 N   0  0  0  0  0  0  0  0  0  0  0  0
   35.3230   29.9990   32.7390 C   0  0  0  0  0  0  0  0  0  0  0  0
   35.5810   29.7990   34.2100 C   0  0  0  0  0  0  0  0  0  0  0  0
   33.8230   30.2500   32.6140 C   0  0  0  0  0  0  0  0  0  0  0  0
   35.9910   31.2680   32.2680 C   0  0  0  0  0  0  0  0  0  0  0  0
   40.2552   24.6700   34.4382 H   0  0  0  0  0  0  0  0  0  0  0  0
   40.3148   23.6446   32.9938 H   0  0  0  0  0  0  0  0  0  0  0  0
   37.5480   22.3883   37.3871 H   0  0  0  0  0  0  0  0  0  0  0  0
   39.1863   23.8923   36.2910 H   0  0  0  0  0  0  0  0  0  0  0  0
   35.1408   22.4366   32.2943 H   0  0  0  0  0  0  0  0  0  0  0  0
   33.7882   20.4283   31.0694 H   0  0  0  0  0  0  0  0  0  0  0  0
   34.6681   18.1654   32.2145 H   0  0  0  0  0  0  0  0  0  0  0  0
   37.8700   25.0175   33.1101 H   0  0  0  0  0  0  0  0  0  0  0  0
   37.8071   23.3205   30.5103 H   0  0  0  0  0  0  0  0  0  0  0  0
   37.7772   24.8282   29.4735 H   0  0  0  0  0  0  0  0  0  0  0  0
   34.8436   30.3706   34.7926 H   0  0  0  0  0  0  0  0  0  0  0  0
   35.4936   28.7303   34.4556 H   0  0  0  0  0  0  0  0  0  0  0  0
   36.5941   30.1500   34.4556 H   0  0  0  0  0  0  0  0  0  0  0  0
   33.3788   30.3243   33.6176 H   0  0  0  0  0  0  0  0  0  0  0  0
   33.6527   31.1891   32.0672 H   0  0  0  0  0  0  0  0  0  0  0  0
   33.3562   29.4175   32.0672 H   0  0  0  0  0  0  0  0  0  0  0  0
   36.3040   31.8626   33.1389 H   0  0  0  0  0  0  0  0  0  0  0  0
   36.8727   31.0147   31.6609 H   0  0  0  0  0  0  0  0  0  0  0  0
   35.2831   31.8514   31.6609 H   0  0  0  0  0  0  0  0  0  0  0  0
  1  4  1  0
  3  2  2  0
  4  3  1  0
  5  6  1  0
  5  4  2  0
  6  7  2  0
  7  2  1  0
  8  6  1  0
  9  8  2  0
 10 11  2  0
 10  9  1  0
 11 12  1  0
 12  8  1  0
 13  1  1  0
 14 13  1  0
 15 14  2  0
 16 14  2  0
 17 18  1  0
 17 14  1  0
 18 19  1  0
 19 23  1  0
 20 21  1  0
 20 19  2  0
 21 22  1  0
 22 23  2  0
 22 24  1  0
 24 25  1  0
 26 24  1  0
 27 24  1  0
  1 28  1  0
  1 29  1  0
  2 30  1  0
  3 31  1  0
  9 32  1  0
 10 33  1  0
 11 34  1  0
 13 35  1  0
 17 36  1  0
 17 37  1  0
 25 38  1  0
 25 39  1  0
 25 40  1  0
 26 41  1  0
 26 42  1  0
 26 43  1  0
 27 44  1  0
 27 45  1  0
 27 46  1  0
M  ISO  8  28   8  29   8  30  14  31  14  32  14  33  14  34  14  35   5
M  ISO  8  36   8  37   8  38   8  39   8  40   8  41   8  42   8  43   8
M  ISO  3  44   8  45   8  46   8
M  END
>  <minimizedAffinity>  (1) 
-4.59847164

>  <minimizedRMSD>  (1) 
0.804377139

$$$$
