
     RDKit          3D

 41 44  0  0  0  0  0  0  0  0999 V2000
   39.9570   23.9420   33.4000 C   0  0  0  0  0  0  0  0  0  0  0  0
   37.8060   22.4330   36.0890 C   0  0  0  0  0  0  0  0  0  0  0  0
   38.7800   23.1790   35.4470 C   0  0  0  0  0  0  0  0  0  0  0  0
   38.9050   23.1310   34.0630 C   0  0  0  0  0  0  0  0  0  0  0  0
   38.0350   22.3310   33.4140 N   0  0  0  0  0  0  0  0  0  0  0  0
   37.0800   21.6030   34.0740 C   0  0  0  0  0  0  0  0  0  0  0  0
   36.9690   21.6530   35.3760 N   0  0  0  0  0  0  0  0  0  0  0  0
   36.1840   20.7690   33.3080 C   0  0  0  0  0  0  0  0  0  0  0  0
   35.2040   21.3680   32.5330 C   0  0  0  0  0  0  0  0  0  0  0  0
   34.4810   20.3560   31.9030 C   0  0  0  0  0  0  0  0  0  0  0  0
   35.0670   19.1820   32.3320 C   0  0  0  0  0  0  0  0  0  0  0  0
   36.0480   19.4810   33.1450 O   0  0  0  0  0  0  0  0  0  0  0  0
   39.2970   25.0860   32.8550 N   0  0  0  0  0  0  0  0  0  0  0  0
   39.7070   25.2080   31.2100 S   0  0  0  0  0  0  0  0  0  0  0  0
   39.7410   26.6510   30.7570 O   0  0  0  0  0  0  0  0  0  0  0  0
   41.0450   24.6260   30.9880 O   0  0  0  0  0  0  0  0  0  0  0  0
   38.4610   24.3580   30.2860 C   0  0  0  0  0  0  0  0  0  0  0  0
   36.8210   24.5420   30.9620 S   0  0  0  0  0  0  0  0  0  0  0  0
   36.4600   26.1750   31.5390 C   0  0  0  0  0  0  0  0  0  0  0  0
   36.0810   27.1810   30.7020 N   0  0  0  0  0  0  0  0  0  0  0  0
   35.8790   28.2790   31.3860 O   0  0  0  0  0  0  0  0  0  0  0  0
   36.1130   28.0320   32.6660 C   0  0  0  0  0  0  0  0  0  0  0  0
   36.4680   26.7480   32.7510 N   0  0  0  0  0  0  0  0  0  0  0  0
   36.0340   28.9240   33.8690 C   0  0  0  0  0  0  0  0  0  0  0  0
   34.6240   29.3670   34.3150 C   0  0  0  0  0  0  0  0  0  0  0  0
   35.5570   30.3160   33.6950 C   0  0  0  0  0  0  0  0  0  0  0  0
   40.7163   24.2533   34.1325 H   0  0  0  0  0  0  0  0  0  0  0  0
   40.4716   23.3662   32.6167 H   0  0  0  0  0  0  0  0  0  0  0  0
   37.7149   22.4770   37.1843 H   0  0  0  0  0  0  0  0  0  0  0  0
   39.4590   23.8135   36.0355 H   0  0  0  0  0  0  0  0  0  0  0  0
   35.0278   22.4492   32.4327 H   0  0  0  0  0  0  0  0  0  0  0  0
   33.6302   20.4684   31.2149 H   0  0  0  0  0  0  0  0  0  0  0  0
   34.7610   18.1666   32.0398 H   0  0  0  0  0  0  0  0  0  0  0  0
   38.2772   24.9787   32.9524 H   0  0  0  0  0  0  0  0  0  0  0  0
   38.7115   23.2871   30.2676 H   0  0  0  0  0  0  0  0  0  0  0  0
   38.4468   24.8015   29.2795 H   0  0  0  0  0  0  0  0  0  0  0  0
   36.9120   28.4551   34.3372 H   0  0  0  0  0  0  0  0  0  0  0  0
   33.7362   29.0239   33.7636 H   0  0  0  0  0  0  0  0  0  0  0  0
   34.0503   29.3302   35.2528 H   0  0  0  0  0  0  0  0  0  0  0  0
   35.9969   31.1190   34.3046 H   0  0  0  0  0  0  0  0  0  0  0  0
   35.4887   30.9925   32.8303 H   0  0  0  0  0  0  0  0  0  0  0  0
  1  4  1  0
  3  2  2  0
  4  3  1  0
  5  4  2  0
  5  6  1  0
  6  7  2  0
  7  2  1  0
  8  6  1  0
  9  8  2  0
 10 11  2  0
 10  9  1  0
 11 12  1  0
 12  8  1  0
 13  1  1  0
 14 13  1  0
 15 14  2  0
 16 14  2  0
 17 18  1  0
 17 14  1  0
 18 19  1  0
 19 23  1  0
 20 21  1  0
 20 19  2  0
 21 22  1  0
 22 23  2  0
 22 24  1  0
 24 25  1  0
 26 24  1  0
 26 25  1  0
  1 27  1  0
  1 28  1  0
  2 29  1  0
  3 30  1  0
  9 31  1  0
 10 32  1  0
 11 33  1  0
 13 34  1  0
 17 35  1  0
 17 36  1  0
 24 37  1  0
 25 38  1  0
 25 39  1  0
 26 40  1  0
 26 41  1  0
M  ISO  8  27   8  28   8  29  14  30  14  31  14  32  14  33  14  34   5
M  ISO  7  35   8  36   8  37  13  38  13  39  13  40  13  41  13
M  END
>  <minimizedAffinity>  (1) 
-4.49431801

>  <minimizedRMSD>  (1) 
0.514410675

$$$$
