
     RDKit          3D

 40 42  0  0  0  0  0  0  0  0999 V2000
   39.7530   24.0600   33.5170 C   0  0  0  0  0  0  0  0  0  0  0  0
   37.6970   22.4080   36.1980 C   0  0  0  0  0  0  0  0  0  0  0  0
   38.6360   23.2040   35.5600 C   0  0  0  0  0  0  0  0  0  0  0  0
   38.7400   23.1970   34.1740 C   0  0  0  0  0  0  0  0  0  0  0  0
   37.8880   22.3850   33.5190 N   0  0  0  0  0  0  0  0  0  0  0  0
   36.9700   21.6090   34.1760 C   0  0  0  0  0  0  0  0  0  0  0  0
   36.8730   21.6160   35.4710 N   0  0  0  0  0  0  0  0  0  0  0  0
   36.0880   20.7620   33.3990 C   0  0  0  0  0  0  0  0  0  0  0  0
   35.2280   21.3370   32.4880 C   0  0  0  0  0  0  0  0  0  0  0  0
   34.4990   20.3160   31.8800 C   0  0  0  0  0  0  0  0  0  0  0  0
   34.9640   19.1580   32.4670 C   0  0  0  0  0  0  0  0  0  0  0  0
   35.8800   19.4730   33.3350 O   0  0  0  0  0  0  0  0  0  0  0  0
   39.0280   25.1260   32.8980 N   0  0  0  0  0  0  0  0  0  0  0  0
   39.1980   24.9840   31.2110 S   0  0  0  0  0  0  0  0  0  0  0  0
   39.5280   26.3150   30.5720 O   0  0  0  0  0  0  0  0  0  0  0  0
   40.2930   24.0380   30.9020 O   0  0  0  0  0  0  0  0  0  0  0  0
   37.6510   24.4200   30.5680 C   0  0  0  0  0  0  0  0  0  0  0  0
   36.2340   25.0240   31.4670 S   0  0  0  0  0  0  0  0  0  0  0  0
   36.1470   26.7910   31.5630 C   0  0  0  0  0  0  0  0  0  0  0  0
   36.3270   27.5850   30.4730 N   0  0  0  0  0  0  0  0  0  0  0  0
   36.2130   28.8450   30.8090 O   0  0  0  0  0  0  0  0  0  0  0  0
   35.9590   28.9130   32.1110 C   0  0  0  0  0  0  0  0  0  0  0  0
   35.9210   27.6570   32.5600 N   0  0  0  0  0  0  0  0  0  0  0  0
   35.7580   30.1550   32.8970 C   0  0  0  0  0  0  0  0  0  0  0  0
   35.5760   29.8350   34.3860 C   0  0  0  0  0  0  0  0  0  0  0  0
   40.4553   24.4595   34.2634 H   0  0  0  0  0  0  0  0  0  0  0  0
   40.3430   23.4956   32.7799 H   0  0  0  0  0  0  0  0  0  0  0  0
   37.6211   22.4197   37.2953 H   0  0  0  0  0  0  0  0  0  0  0  0
   39.3031   23.8453   36.1547 H   0  0  0  0  0  0  0  0  0  0  0  0
   35.1335   22.4126   32.2777 H   0  0  0  0  0  0  0  0  0  0  0  0
   33.7249   20.4126   31.1044 H   0  0  0  0  0  0  0  0  0  0  0  0
   34.6182   18.1389   32.2393 H   0  0  0  0  0  0  0  0  0  0  0  0
   38.0322   25.0636   33.1536 H   0  0  0  0  0  0  0  0  0  0  0  0
   37.5671   24.7543   29.5234 H   0  0  0  0  0  0  0  0  0  0  0  0
   37.6460   23.3240   30.6613 H   0  0  0  0  0  0  0  0  0  0  0  0
   36.6359   30.8061   32.7729 H   0  0  0  0  0  0  0  0  0  0  0  0
   34.8515   30.6599   32.5320 H   0  0  0  0  0  0  0  0  0  0  0  0
   36.0302   30.6336   34.9909 H   0  0  0  0  0  0  0  0  0  0  0  0
   34.5029   29.7650   34.6175 H   0  0  0  0  0  0  0  0  0  0  0  0
   36.0643   28.8769   34.6175 H   0  0  0  0  0  0  0  0  0  0  0  0
  1  4  1  0
  3  2  2  0
  4  3  1  0
  5  4  2  0
  5  6  1  0
  6  7  2  0
  7  2  1  0
  8  6  1  0
  9  8  2  0
 10 11  2  0
 10  9  1  0
 11 12  1  0
 12  8  1  0
 13  1  1  0
 14 13  1  0
 15 14  2  0
 16 14  2  0
 17 14  1  0
 17 18  1  0
 18 19  1  0
 19 23  1  0
 20 21  1  0
 20 19  2  0
 21 22  1  0
 22 23  2  0
 22 24  1  0
 24 25  1  0
  1 26  1  0
  1 27  1  0
  2 28  1  0
  3 29  1  0
  9 30  1  0
 10 31  1  0
 11 32  1  0
 13 33  1  0
 17 34  1  0
 17 35  1  0
 24 36  1  0
 24 37  1  0
 25 38  1  0
 25 39  1  0
 25 40  1  0
M  ISO  8  26   8  27   8  28  14  29  14  30  14  31  14  32  14  33   5
M  ISO  7  34   8  35   8  36   8  37   8  38   8  39   8  40   8
M  END
>  <minimizedAffinity>  (1) 
-4.33596325

>  <minimizedRMSD>  (1) 
0.456241608

$$$$
