
     RDKit          3D

 43 48  0  0  0  0  0  0  0  0999 V2000
   36.5770   23.3990   31.9590 C   0  0  0  0  0  0  0  0  0  0  0  0
   36.2310   24.7270   31.7260 C   0  0  0  0  0  0  0  0  0  0  0  0
   36.9090   25.6340   32.5190 C   0  0  0  0  0  0  0  0  0  0  0  0
   37.7930   25.1900   33.3970 N   0  0  0  0  0  0  0  0  0  0  0  0
   38.1270   23.9410   33.6260 C   0  0  0  0  0  0  0  0  0  0  0  0
   37.4890   23.0740   32.8770 N   0  0  0  0  0  0  0  0  0  0  0  0
   39.0670   23.3300   34.5460 C   0  0  0  0  0  0  0  0  0  0  0  0
   40.1610   22.6160   34.1070 C   0  0  0  0  0  0  0  0  0  0  0  0
   41.0870   22.0130   34.9360 C   0  0  0  0  0  0  0  0  0  0  0  0
   40.9450   22.1070   36.2960 C   0  0  0  0  0  0  0  0  0  0  0  0
   39.8860   22.7960   36.7800 C   0  0  0  0  0  0  0  0  0  0  0  0
   39.7440   22.8900   38.1600 C   0  0  0  0  0  0  0  0  0  0  0  0
   38.7040   23.5670   38.7340 C   0  0  0  0  0  0  0  0  0  0  0  0
   37.7860   24.1650   37.8790 C   0  0  0  0  0  0  0  0  0  0  0  0
   37.9530   24.0550   36.5190 C   0  0  0  0  0  0  0  0  0  0  0  0
   38.9720   23.3910   35.9340 C   0  0  0  0  0  0  0  0  0  0  0  0
   36.6680   27.0400   32.4020 N   0  0  0  0  0  0  0  0  0  0  0  0
   37.1380   27.8540   31.4520 C   0  0  0  0  0  0  0  0  0  0  0  0
   36.7190   29.0980   31.6460 N   0  0  0  0  0  0  0  0  0  0  0  0
   35.9620   29.0780   32.7520 C   0  0  0  0  0  0  0  0  0  0  0  0
   35.9470   27.8070   33.1930 N   0  0  0  0  0  0  0  0  0  0  0  0
   35.1990   30.0070   33.5490 N   0  0  0  0  0  0  0  0  0  0  0  0
   35.5680   31.0220   34.3600 C   0  0  0  0  0  0  0  0  0  0  0  0
   34.4390   31.5800   34.8740 N   0  0  0  0  0  0  0  0  0  0  0  0
   33.3710   30.9030   34.3780 C   0  0  0  0  0  0  0  0  0  0  0  0
   32.0360   31.1410   34.6430 C   0  0  0  0  0  0  0  0  0  0  0  0
   31.1690   30.3120   34.0100 N   0  0  0  0  0  0  0  0  0  0  0  0
   31.6180   29.3360   33.1910 C   0  0  0  0  0  0  0  0  0  0  0  0
   32.9320   29.1040   32.9320 N   0  0  0  0  0  0  0  0  0  0  0  0
   33.8390   29.9110   33.5430 C   0  0  0  0  0  0  0  0  0  0  0  0
   36.0899   22.6035   31.3760 H   0  0  0  0  0  0  0  0  0  0  0  0
   35.4839   25.0282   30.9769 H   0  0  0  0  0  0  0  0  0  0  0  0
   40.3070   22.5196   33.0210 H   0  0  0  0  0  0  0  0  0  0  0  0
   41.9350   21.4596   34.5063 H   0  0  0  0  0  0  0  0  0  0  0  0
   41.6713   21.6357   36.9746 H   0  0  0  0  0  0  0  0  0  0  0  0
   40.4894   22.4060   38.8082 H   0  0  0  0  0  0  0  0  0  0  0  0
   38.5983   23.6355   39.8268 H   0  0  0  0  0  0  0  0  0  0  0  0
   36.9309   24.7230   38.2881 H   0  0  0  0  0  0  0  0  0  0  0  0
   37.2102   24.5380   35.8672 H   0  0  0  0  0  0  0  0  0  0  0  0
   37.7850   27.5357   30.6213 H   0  0  0  0  0  0  0  0  0  0  0  0
   36.5999   31.3412   34.5682 H   0  0  0  0  0  0  0  0  0  0  0  0
   31.7012   31.9431   35.3172 H   0  0  0  0  0  0  0  0  0  0  0  0
   30.8740   28.6889   32.7035 H   0  0  0  0  0  0  0  0  0  0  0  0
  1  6  2  0
  2  1  1  0
  2  3  2  0
  3  4  1  0
  4  5  2  0
  5  7  1  0
  6  5  1  0
  7 16  1  0
  8  7  2  0
  8  9  1  0
  9 10  2  0
 10 11  1  0
 11 12  2  0
 12 13  1  0
 14 13  2  0
 15 14  1  0
 16 15  2  0
 16 11  1  0
 17  3  1  0
 17 21  1  0
 18 19  2  0
 18 17  1  0
 19 20  1  0
 20 21  2  0
 20 22  1  0
 22 23  1  0
 23 24  2  0
 25 26  2  0
 25 24  1  0
 27 26  1  0
 28 27  2  0
 29 28  1  0
 29 30  2  0
 30 22  1  0
 30 25  1  0
  1 31  1  0
  2 32  1  0
  8 33  1  0
  9 34  1  0
 10 35  1  0
 12 36  1  0
 13 37  1  0
 14 38  1  0
 15 39  1  0
 18 40  1  0
 23 41  1  0
 26 42  1  0
 28 43  1  0
M  ISO  8  31  14  32  14  33  14  34  14  35  14  36  14  37  14  38  14
M  ISO  5  39  14  40  14  41  14  42  14  43  14
M  END
>  <minimizedAffinity>  (1) 
-7.03005505

>  <minimizedRMSD>  (1) 
1.70777369

$$$$
