
     RDKit          3D

 36 38  0  0  0  0  0  0  0  0999 V2000
   39.9890   23.8970   33.3820 C   0  0  0  0  0  0  0  0  0  0  0  0
   37.8180   22.4310   36.0800 C   0  0  0  0  0  0  0  0  0  0  0  0
   38.7990   23.1610   35.4320 C   0  0  0  0  0  0  0  0  0  0  0  0
   38.9250   23.1010   34.0490 C   0  0  0  0  0  0  0  0  0  0  0  0
   38.0500   22.3050   33.4020 N   0  0  0  0  0  0  0  0  0  0  0  0
   37.0870   21.5930   34.0700 C   0  0  0  0  0  0  0  0  0  0  0  0
   36.9740   21.6530   35.3670 N   0  0  0  0  0  0  0  0  0  0  0  0
   36.1820   20.7590   33.3050 C   0  0  0  0  0  0  0  0  0  0  0  0
   35.1990   21.3670   32.5350 C   0  0  0  0  0  0  0  0  0  0  0  0
   34.4760   20.3520   31.9090 C   0  0  0  0  0  0  0  0  0  0  0  0
   35.0610   19.1760   32.3330 C   0  0  0  0  0  0  0  0  0  0  0  0
   36.0470   19.4740   33.1420 O   0  0  0  0  0  0  0  0  0  0  0  0
   39.3370   25.0410   32.8230 N   0  0  0  0  0  0  0  0  0  0  0  0
   39.7690   25.1600   31.1850 S   0  0  0  0  0  0  0  0  0  0  0  0
   39.7780   26.5980   30.7090 O   0  0  0  0  0  0  0  0  0  0  0  0
   41.1280   24.6030   30.9930 O   0  0  0  0  0  0  0  0  0  0  0  0
   38.5620   24.2680   30.2480 C   0  0  0  0  0  0  0  0  0  0  0  0
   36.9080   24.4170   30.8980 S   0  0  0  0  0  0  0  0  0  0  0  0
   36.5100   26.0380   31.4840 C   0  0  0  0  0  0  0  0  0  0  0  0
   36.0570   27.0240   30.6600 N   0  0  0  0  0  0  0  0  0  0  0  0
   35.8410   28.1160   31.3470 O   0  0  0  0  0  0  0  0  0  0  0  0
   36.1410   27.8860   32.6170 C   0  0  0  0  0  0  0  0  0  0  0  0
   36.5480   26.6190   32.6900 N   0  0  0  0  0  0  0  0  0  0  0  0
   36.0080   28.9090   33.6450 C   0  0  0  0  0  0  0  0  0  0  0  0
   36.4810   28.6630   34.7870 O   0  0  0  0  0  0  0  0  0  0  0  0
   40.7476   24.2099   34.1145 H   0  0  0  0  0  0  0  0  0  0  0  0
   40.5044   23.3099   32.6077 H   0  0  0  0  0  0  0  0  0  0  0  0
   37.7253   22.4840   37.1748 H   0  0  0  0  0  0  0  0  0  0  0  0
   39.4841   23.7934   36.0157 H   0  0  0  0  0  0  0  0  0  0  0  0
   35.0233   22.4485   32.4371 H   0  0  0  0  0  0  0  0  0  0  0  0
   33.6225   20.4645   31.2242 H   0  0  0  0  0  0  0  0  0  0  0  0
   34.7519   18.1615   32.0412 H   0  0  0  0  0  0  0  0  0  0  0  0
   38.3159   24.9343   32.9062 H   0  0  0  0  0  0  0  0  0  0  0  0
   38.8405   23.2038   30.2442 H   0  0  0  0  0  0  0  0  0  0  0  0
   38.5531   24.6994   29.2362 H   0  0  0  0  0  0  0  0  0  0  0  0
   35.5103   29.8664   33.4314 H   0  0  0  0  0  0  0  0  0  0  0  0
  1  4  1  0
  3  2  2  0
  4  3  1  0
  5  4  2  0
  5  6  1  0
  6  7  2  0
  7  2  1  0
  8  6  1  0
  9  8  2  0
 10 11  2  0
 10  9  1  0
 11 12  1  0
 12  8  1  0
 13  1  1  0
 14 13  1  0
 15 14  2  0
 16 14  2  0
 17 18  1  0
 17 14  1  0
 18 19  1  0
 19 23  1  0
 20 21  1  0
 20 19  2  0
 21 22  1  0
 22 23  2  0
 22 24  1  0
 24 25  2  0
  1 26  1  0
  1 27  1  0
  2 28  1  0
  3 29  1  0
  9 30  1  0
 10 31  1  0
 11 32  1  0
 13 33  1  0
 17 34  1  0
 17 35  1  0
 24 36  1  0
M  ISO  8  26   8  27   8  28  14  29  14  30  14  31  14  32  14  33   5
M  ISO  3  34   8  35   8  36   6
M  END
>  <minimizedAffinity>  (1) 
-4.17969847

>  <minimizedRMSD>  (1) 
0.635455608

$$$$
