
     RDKit          3D

 28 30  0  0  0  0  0  0  0  0999 V2000
   38.7790   23.1380   36.5020 C   0  0  0  0  0  0  0  0  0  0  0  0
   39.3800   22.6290   37.5010 O   0  0  0  0  0  0  0  0  0  0  0  0
   38.9070   24.5000   35.9850 C   0  0  0  0  0  0  0  0  0  0  0  0
   37.8530   25.4100   36.1140 C   0  0  0  0  0  0  0  0  0  0  0  0
   37.8350   26.7070   35.6850 C   0  0  0  0  0  0  0  0  0  0  0  0
   38.9720   27.1720   35.0580 C   0  0  0  0  0  0  0  0  0  0  0  0
   40.0490   26.3270   34.8970 C   0  0  0  0  0  0  0  0  0  0  0  0
   41.2060   26.7760   34.2660 C   0  0  0  0  0  0  0  0  0  0  0  0
   42.2980   25.9320   34.0970 C   0  0  0  0  0  0  0  0  0  0  0  0
   42.2470   24.6250   34.5590 C   0  0  0  0  0  0  0  0  0  0  0  0
   41.0960   24.1910   35.1820 C   0  0  0  0  0  0  0  0  0  0  0  0
   40.0120   25.0250   35.3510 C   0  0  0  0  0  0  0  0  0  0  0  0
   35.8680   21.0240   35.6290 C   0  0  0  0  0  0  0  0  0  0  0  0
   36.7800   21.7640   36.3800 C   0  0  0  0  0  0  0  0  0  0  0  0
   37.8370   22.3700   35.7110 C   0  0  0  0  0  0  0  0  0  0  0  0
   37.9280   22.2090   34.3540 N   0  0  0  0  0  0  0  0  0  0  0  0
   37.0330   21.4900   33.6600 C   0  0  0  0  0  0  0  0  0  0  0  0
   36.0070   20.8990   34.2950 N   0  0  0  0  0  0  0  0  0  0  0  0
   36.9437   25.0433   36.6128 H   0  0  0  0  0  0  0  0  0  0  0  0
   36.9550   27.3502   35.8327 H   0  0  0  0  0  0  0  0  0  0  0  0
   39.0189   28.2075   34.6899 H   0  0  0  0  0  0  0  0  0  0  0  0
   41.2568   27.8109   33.8967 H   0  0  0  0  0  0  0  0  0  0  0  0
   43.2047   26.3017   33.5957 H   0  0  0  0  0  0  0  0  0  0  0  0
   43.1058   23.9497   34.4312 H   0  0  0  0  0  0  0  0  0  0  0  0
   41.0419   23.1566   35.5522 H   0  0  0  0  0  0  0  0  0  0  0  0
   35.0218   20.5346   36.1335 H   0  0  0  0  0  0  0  0  0  0  0  0
   36.6665   21.8653   37.4694 H   0  0  0  0  0  0  0  0  0  0  0  0
   37.1392   21.3842   32.5703 H   0  0  0  0  0  0  0  0  0  0  0  0
  1  2  2  0
  3  4  2  0
  3  1  1  0
  5  4  1  0
  6  5  2  0
  7  6  1  0
  7 12  2  0
  8  7  1  0
  9  8  2  0
  9 10  1  0
 10 11  2  0
 11 12  1  0
 12  3  1  0
 13 14  2  0
 15 14  1  0
 15  1  1  0
 16 15  2  0
 17 18  2  0
 17 16  1  0
 18 13  1  0
  4 19  1  0
  5 20  1  0
  6 21  1  0
  8 22  1  0
  9 23  1  0
 10 24  1  0
 11 25  1  0
 13 26  1  0
 14 27  1  0
 17 28  1  0
M  ISO  8  19  14  20  14  21  14  22  14  23  14  24  14  25  14  26  14
M  ISO  2  27  14  28  14
M  END
>  <minimizedAffinity>  (1) 
-4.9390626

>  <minimizedRMSD>  (1) 
5.61172485

$$$$
