
     RDKit          3D

 22 23  0  0  0  0  0  0  0  0999 V2000
   39.2430   23.0180   36.0710 C   0  0  0  0  0  0  0  0  0  0  0  0
   38.0950   22.5040   36.0840 O   0  0  0  0  0  0  0  0  0  0  0  0
   42.3140   21.1320   35.2460 C   0  0  0  0  0  0  0  0  0  0  0  0
   41.1580   21.8870   35.0880 C   0  0  0  0  0  0  0  0  0  0  0  0
   40.4320   22.2390   36.2390 C   0  0  0  0  0  0  0  0  0  0  0  0
   40.9180   21.8120   37.4280 N   0  0  0  0  0  0  0  0  0  0  0  0
   42.0340   21.0850   37.5610 C   0  0  0  0  0  0  0  0  0  0  0  0
   42.7250   20.7500   36.4560 N   0  0  0  0  0  0  0  0  0  0  0  0
   39.1770   24.4640   35.8660 C   0  0  0  0  0  0  0  0  0  0  0  0
   38.2020   25.2450   36.4570 C   0  0  0  0  0  0  0  0  0  0  0  0
   38.1320   26.6150   36.2700 C   0  0  0  0  0  0  0  0  0  0  0  0
   39.0540   27.2640   35.4700 C   0  0  0  0  0  0  0  0  0  0  0  0
   40.0380   26.5090   34.8680 C   0  0  0  0  0  0  0  0  0  0  0  0
   40.0740   25.1530   35.0770 C   0  0  0  0  0  0  0  0  0  0  0  0
   42.8989   20.8451   34.3597 H   0  0  0  0  0  0  0  0  0  0  0  0
   40.8203   22.2007   34.0892 H   0  0  0  0  0  0  0  0  0  0  0  0
   42.3800   20.7671   38.5556 H   0  0  0  0  0  0  0  0  0  0  0  0
   37.4532   24.7598   37.1003 H   0  0  0  0  0  0  0  0  0  0  0  0
   37.3356   27.1923   36.7624 H   0  0  0  0  0  0  0  0  0  0  0  0
   39.0039   28.3523   35.3180 H   0  0  0  0  0  0  0  0  0  0  0  0
   40.7892   26.9902   34.2245 H   0  0  0  0  0  0  0  0  0  0  0  0
   40.8708   24.5779   34.5826 H   0  0  0  0  0  0  0  0  0  0  0  0
  1  2  2  0
  1  5  1  0
  3  8  2  0
  4  3  1  0
  4  5  2  0
  5  6  1  0
  6  7  2  0
  8  7  1  0
  9  1  1  0
  9 10  2  0
 11 10  1  0
 12 11  2  0
 13 14  2  0
 13 12  1  0
 14  9  1  0
  3 15  1  0
  4 16  1  0
  7 17  1  0
 10 18  1  0
 11 19  1  0
 12 20  1  0
 13 21  1  0
 14 22  1  0
M  ISO  8  15  14  16  14  17  14  18  14  19  14  20  14  21  14  22  14
M  END
>  <minimizedAffinity>  (1) 
-4.0998888

>  <minimizedRMSD>  (1) 
4.17590761

$$$$
