
     RDKit          3D

 20 21  0  0  0  0  0  0  0  0999 V2000
   41.9850   21.2490   37.4790 C   0  0  0  0  0  0  0  0  0  0  0  0
   40.7850   21.9930   37.4240 C   0  0  0  0  0  0  0  0  0  0  0  0
   40.3020   22.3280   36.1640 C   0  0  0  0  0  0  0  0  0  0  0  0
   41.0030   21.9270   35.0560 N   0  0  0  0  0  0  0  0  0  0  0  0
   42.1480   21.2160   35.1540 C   0  0  0  0  0  0  0  0  0  0  0  0
   42.6420   20.8760   36.3570 N   0  0  0  0  0  0  0  0  0  0  0  0
   39.0870   23.0800   36.0890 C   0  0  0  0  0  0  0  0  0  0  0  0
   37.9480   22.5430   36.1960 O   0  0  0  0  0  0  0  0  0  0  0  0
   39.1060   24.5260   35.8840 C   0  0  0  0  0  0  0  0  0  0  0  0
   40.0540   25.1320   35.0850 C   0  0  0  0  0  0  0  0  0  0  0  0
   40.1070   26.5000   34.8640 C   0  0  0  0  0  0  0  0  0  0  0  0
   39.1640   27.2640   35.4780 N   0  0  0  0  0  0  0  0  0  0  0  0
   38.2370   26.6770   36.2570 C   0  0  0  0  0  0  0  0  0  0  0  0
   38.1840   25.3320   36.4750 N   0  0  0  0  0  0  0  0  0  0  0  0
   42.3955   20.9658   38.4595 H   0  0  0  0  0  0  0  0  0  0  0  0
   40.2552   22.2945   38.3396 H   0  0  0  0  0  0  0  0  0  0  0  0
   42.6808   20.9126   34.2407 H   0  0  0  0  0  0  0  0  0  0  0  0
   40.8077   24.4961   34.5975 H   0  0  0  0  0  0  0  0  0  0  0  0
   40.8782   26.9478   34.2201 H   0  0  0  0  0  0  0  0  0  0  0  0
   37.4836   27.3146   36.7427 H   0  0  0  0  0  0  0  0  0  0  0  0
  2  1  2  0
  3  2  1  0
  4  5  1  0
  4  3  2  0
  5  6  2  0
  6  1  1  0
  7  3  1  0
  7  8  2  0
  9  7  1  0
  9 14  1  0
 10  9  2  0
 11 10  1  0
 11 12  2  0
 12 13  1  0
 13 14  2  0
  1 15  1  0
  2 16  1  0
  5 17  1  0
 10 18  1  0
 11 19  1  0
 13 20  1  0
M  ISO  6  15  14  16  14  17  14  18  14  19  14  20  14
M  END
>  <minimizedAffinity>  (1) 
-3.71773529

>  <minimizedRMSD>  (1) 
3.91828156

$$$$
