
     RDKit          3D

 19 19  0  0  0  0  0  0  0  0999 V2000
   38.3010   23.4340   38.2620 C   0  0  0  0  0  0  0  0  0  0  0  0
   38.9080   23.8430   39.2790 O   0  0  0  0  0  0  0  0  0  0  0  0
   37.1610   22.5820   38.3410 N   0  0  0  0  0  0  0  0  0  0  0  0
   36.8420   21.9750   37.0960 C   0  0  0  0  0  0  0  0  0  0  0  0
   37.3130   21.9980   35.9280 N   0  0  0  0  0  0  0  0  0  0  0  0
   35.7160   21.0810   36.9970 N   0  0  0  0  0  0  0  0  0  0  0  0
   38.0810   22.4570   35.4780 H   0  0  0  0  0  0  0  0  0  0  0  0
   40.1410   23.4960   35.0750 C   0  0  0  0  0  0  0  0  0  0  0  0
   39.7970   23.1540   36.3800 C   0  0  0  0  0  0  0  0  0  0  0  0
   38.6800   23.7740   36.9130 C   0  0  0  0  0  0  0  0  0  0  0  0
   37.9860   24.6750   36.1460 N   0  0  0  0  0  0  0  0  0  0  0  0
   38.3440   24.9830   34.8900 C   0  0  0  0  0  0  0  0  0  0  0  0
   39.4280   24.3810   34.3720 N   0  0  0  0  0  0  0  0  0  0  0  0
   36.6261   22.4233   39.2068 H   0  0  0  0  0  0  0  0  0  0  0  0
   35.4852   20.6414   36.0946 H   0  0  0  0  0  0  0  0  0  0  0  0
   35.1420   20.8817   37.8287 H   0  0  0  0  0  0  0  0  0  0  0  0
   41.0210   23.0263   34.6114 H   0  0  0  0  0  0  0  0  0  0  0  0
   40.3843   22.4264   36.9594 H   0  0  0  0  0  0  0  0  0  0  0  0
   37.7654   25.7091   34.3000 H   0  0  0  0  0  0  0  0  0  0  0  0
  1  3  1  0
  1  2  2  0
  4  3  1  0
  5  4  2  0
  6  4  1  0
  7  5  1  0
  8  9  2  0
  9 10  1  0
 10  1  1  0
 11 10  2  0
 12 11  1  0
 13 12  2  0
 13  8  1  0
  3 14  1  0
  6 15  1  0
  6 16  1  0
  8 17  1  0
  9 18  1  0
 12 19  1  0
M  ISO  3  17  14  18  14  19  14
M  END
>  <minimizedAffinity>  (1) 
-3.60836506

>  <minimizedRMSD>  (1) 
1.88283849

$$$$
