
     RDKit          3D

 44 48  0  0  0  0  0  0  0  0999 V2000
   36.7580   24.5600   31.9020 C   0  0  0  0  0  0  0  0  0  0  0  0
   36.2470   25.8550   31.9460 C   0  0  0  0  0  0  0  0  0  0  0  0
   36.7650   26.6410   32.9360 C   0  0  0  0  0  0  0  0  0  0  0  0
   37.6860   26.1310   33.7530 N   0  0  0  0  0  0  0  0  0  0  0  0
   38.1810   24.9210   33.7320 C   0  0  0  0  0  0  0  0  0  0  0  0
   37.6830   24.1570   32.7770 N   0  0  0  0  0  0  0  0  0  0  0  0
   39.1750   24.2390   34.5470 C   0  0  0  0  0  0  0  0  0  0  0  0
   40.3820   23.8270   34.0360 C   0  0  0  0  0  0  0  0  0  0  0  0
   41.3620   23.1770   34.7560 C   0  0  0  0  0  0  0  0  0  0  0  0
   41.1420   22.9090   36.0850 C   0  0  0  0  0  0  0  0  0  0  0  0
   39.9730   23.2880   36.6450 C   0  0  0  0  0  0  0  0  0  0  0  0
   39.7640   23.0110   37.9860 C   0  0  0  0  0  0  0  0  0  0  0  0
   38.6100   23.3620   38.6240 C   0  0  0  0  0  0  0  0  0  0  0  0
   37.6400   24.0180   37.8680 C   0  0  0  0  0  0  0  0  0  0  0  0
   37.8800   24.2760   36.5440 C   0  0  0  0  0  0  0  0  0  0  0  0
   39.0160   23.9370   35.8910 C   0  0  0  0  0  0  0  0  0  0  0  0
   36.3580   27.9960   33.1310 N   0  0  0  0  0  0  0  0  0  0  0  0
   36.3900   28.9630   32.1930 C   0  0  0  0  0  0  0  0  0  0  0  0
   35.9410   30.1090   32.7070 N   0  0  0  0  0  0  0  0  0  0  0  0
   35.6220   29.8670   33.9760 C   0  0  0  0  0  0  0  0  0  0  0  0
   35.8800   28.5810   34.2220 N   0  0  0  0  0  0  0  0  0  0  0  0
   35.1010   30.8040   34.9100 N   0  0  0  0  0  0  0  0  0  0  0  0
   35.8700   31.6520   35.8020 C   0  0  0  0  0  0  0  0  0  0  0  0
   34.9540   32.0650   36.9010 C   0  0  0  0  0  0  0  0  0  0  0  0
   33.6300   31.4130   36.6390 C   0  0  0  0  0  0  0  0  0  0  0  0
   33.7040   31.1010   35.1600 C   0  0  0  0  0  0  0  0  0  0  0  0
   36.3946   23.8594   31.1358 H   0  0  0  0  0  0  0  0  0  0  0  0
   35.4859   26.2165   31.2389 H   0  0  0  0  0  0  0  0  0  0  0  0
   40.5814   24.0308   32.9736 H   0  0  0  0  0  0  0  0  0  0  0  0
   42.3045   22.8780   34.2739 H   0  0  0  0  0  0  0  0  0  0  0  0
   41.9067   22.3933   36.6844 H   0  0  0  0  0  0  0  0  0  0  0  0
   40.5513   22.4929   38.5532 H   0  0  0  0  0  0  0  0  0  0  0  0
   38.4520   23.1369   39.6891 H   0  0  0  0  0  0  0  0  0  0  0  0
   36.6904   24.3258   38.3302 H   0  0  0  0  0  0  0  0  0  0  0  0
   37.0957   24.7941   35.9726 H   0  0  0  0  0  0  0  0  0  0  0  0
   36.7351   28.8274   31.1574 H   0  0  0  0  0  0  0  0  0  0  0  0
   36.7248   31.0938   36.2115 H   0  0  0  0  0  0  0  0  0  0  0  0
   36.2660   32.5287   35.2685 H   0  0  0  0  0  0  0  0  0  0  0  0
   35.3534   31.7321   37.8704 H   0  0  0  0  0  0  0  0  0  0  0  0
   34.8516   33.1597   36.9351 H   0  0  0  0  0  0  0  0  0  0  0  0
   33.5148   30.4947   37.2335 H   0  0  0  0  0  0  0  0  0  0  0  0
   32.7702   32.0427   36.9113 H   0  0  0  0  0  0  0  0  0  0  0  0
   33.3803   31.9678   34.5651 H   0  0  0  0  0  0  0  0  0  0  0  0
   33.0467   30.2646   34.8802 H   0  0  0  0  0  0  0  0  0  0  0  0
  1  2  2  0
  1  6  1  0
  2  3  1  0
  3 17  1  0
  3  4  2  0
  5  4  1  0
  5  7  1  0
  6  5  2  0
  7 16  1  0
  8  7  2  0
  8  9  1  0
  9 10  2  0
 10 11  1  0
 11 12  2  0
 12 13  1  0
 14 13  2  0
 15 14  1  0
 16 15  2  0
 16 11  1  0
 17 21  1  0
 18 19  2  0
 18 17  1  0
 19 20  1  0
 20 21  2  0
 20 22  1  0
 22 26  1  0
 22 23  1  0
 23 24  1  0
 25 24  1  0
 26 25  1  0
  1 27  1  0
  2 28  1  0
  8 29  1  0
  9 30  1  0
 10 31  1  0
 12 32  1  0
 13 33  1  0
 14 34  1  0
 15 35  1  0
 18 36  1  0
 23 37  1  0
 23 38  1  0
 24 39  1  0
 24 40  1  0
 25 41  1  0
 25 42  1  0
 26 43  1  0
 26 44  1  0
M  ISO  8  27  14  28  14  29  14  30  14  31  14  32  14  33  14  34  14
M  ISO  8  35  14  36  14  37  13  38  13  39  13  40  13  41  13  42  13
M  ISO  2  43  13  44  13
M  END
>  <minimizedAffinity>  (1) 
-6.98337936

>  <minimizedRMSD>  (1) 
1.96336293

$$$$
