
     RDKit          3D

 17 18  0  0  0  0  0  0  0  0999 V2000
   41.6770   22.4600   36.8570 C   0  0  0  0  0  0  0  0  0  0  0  0
   40.3270   22.2120   37.0940 C   0  0  0  0  0  0  0  0  0  0  0  0
   39.4040   23.0000   36.3860 C   0  0  0  0  0  0  0  0  0  0  0  0
   39.8700   23.9500   35.5180 N   0  0  0  0  0  0  0  0  0  0  0  0
   41.1840   24.1460   35.3300 C   0  0  0  0  0  0  0  0  0  0  0  0
   42.0820   23.4020   35.9970 N   0  0  0  0  0  0  0  0  0  0  0  0
   37.9950   22.7630   36.6140 C   0  0  0  0  0  0  0  0  0  0  0  0
   37.3980   23.2220   37.6180 O   0  0  0  0  0  0  0  0  0  0  0  0
   37.2170   21.9700   35.6650 C   0  0  0  0  0  0  0  0  0  0  0  0
   37.4430   21.8830   34.3350 N   0  0  0  0  0  0  0  0  0  0  0  0
   36.5490   21.0820   33.8070 O   0  0  0  0  0  0  0  0  0  0  0  0
   35.7360   20.6350   34.7400 C   0  0  0  0  0  0  0  0  0  0  0  0
   36.1490   21.1830   35.8890 N   0  0  0  0  0  0  0  0  0  0  0  0
   42.4316   21.8647   37.3919 H   0  0  0  0  0  0  0  0  0  0  0  0
   39.9992   21.4363   37.8017 H   0  0  0  0  0  0  0  0  0  0  0  0
   41.5274   24.9191   34.6268 H   0  0  0  0  0  0  0  0  0  0  0  0
   34.8873   19.9487   34.6031 H   0  0  0  0  0  0  0  0  0  0  0  0
  1  2  2  0
  3  7  1  0
  3  2  1  0
  4  3  2  0
  5  4  1  0
  5  6  2  0
  6  1  1  0
  7  8  2  0
  9 13  1  0
  9  7  1  0
 10  9  2  0
 11 10  1  0
 11 12  1  0
 12 13  2  0
  1 14  1  0
  2 15  1  0
  5 16  1  0
 12 17  1  0
M  ISO  4  14  14  15  14  16  14  17  14
M  END
>  <minimizedAffinity>  (1) 
-3.40675783

>  <minimizedRMSD>  (1) 
2.8424263

$$$$
