
     RDKit          3D

 13 13  0  0  0  0  0  0  0  0999 V2000
   41.6530   21.5990   36.9250 C   0  0  0  0  0  0  0  0  0  0  0  0
   40.6330   22.2200   37.6670 C   0  0  0  0  0  0  0  0  0  0  0  0
   39.6040   22.8370   36.9530 C   0  0  0  0  0  0  0  0  0  0  0  0
   39.6240   22.8150   35.5850 N   0  0  0  0  0  0  0  0  0  0  0  0
   40.6220   22.2060   34.9220 C   0  0  0  0  0  0  0  0  0  0  0  0
   41.6270   21.6040   35.5870 N   0  0  0  0  0  0  0  0  0  0  0  0
   38.5830   23.4610   37.7530 C   0  0  0  0  0  0  0  0  0  0  0  0
   38.6870   23.6920   38.9890 O   0  0  0  0  0  0  0  0  0  0  0  0
   37.3560   23.8700   37.2000 O   0  0  0  0  0  0  0  0  0  0  0  0
   42.4824   21.1031   37.4505 H   0  0  0  0  0  0  0  0  0  0  0  0
   40.6452   22.2198   38.7669 H   0  0  0  0  0  0  0  0  0  0  0  0
   40.6181   22.1991   33.8220 H   0  0  0  0  0  0  0  0  0  0  0  0
   36.6719   24.2968   37.7744 H   0  0  0  0  0  0  0  0  0  0  0  0
  1  2  2  0
  3  2  1  0
  3  7  1  0
  4  3  2  0
  5  4  1  0
  5  6  2  0
  6  1  1  0
  7  8  2  0
  9  7  1  0
  1 10  1  0
  2 11  1  0
  5 12  1  0
  9 13  1  0
M  ISO  4  10  14  11  14  12  14  13   3
M  END
>  <minimizedAffinity>  (1) 
-2.83988404

>  <minimizedRMSD>  (1) 
1.11555672

$$$$
