
     RDKit          3D

 29 31  0  0  0  0  0  0  0  0999 V2000
   37.4270   25.6010   33.2410 N   0  0  0  0  0  0  0  0  0  0  0  0
   37.8660   24.5810   33.9610 N   0  0  0  0  0  0  0  0  0  0  0  0
   37.9180   24.9440   35.2670 C   0  0  0  0  0  0  0  0  0  0  0  0
   37.4860   26.2480   35.3040 C   0  0  0  0  0  0  0  0  0  0  0  0
   37.1800   26.6540   34.0300 C   0  0  0  0  0  0  0  0  0  0  0  0
   36.6850   27.9350   33.5430 C   0  0  0  0  0  0  0  0  0  0  0  0
   36.9320   28.2640   32.2260 C   0  0  0  0  0  0  0  0  0  0  0  0
   36.4920   29.4670   31.6890 C   0  0  0  0  0  0  0  0  0  0  0  0
   35.7990   30.3370   32.4960 C   0  0  0  0  0  0  0  0  0  0  0  0
   35.5490   30.0060   33.8200 C   0  0  0  0  0  0  0  0  0  0  0  0
   35.9860   28.8000   34.3700 C   0  0  0  0  0  0  0  0  0  0  0  0
   38.3480   24.1040   36.3780 C   0  0  0  0  0  0  0  0  0  0  0  0
   37.4560   23.9030   37.2690 O   0  0  0  0  0  0  0  0  0  0  0  0
   41.1940   21.9990   37.3880 C   0  0  0  0  0  0  0  0  0  0  0  0
   39.8940   22.5530   37.3170 C   0  0  0  0  0  0  0  0  0  0  0  0
   39.6750   23.5780   36.4130 C   0  0  0  0  0  0  0  0  0  0  0  0
   40.6960   24.0130   35.6350 N   0  0  0  0  0  0  0  0  0  0  0  0
   41.9260   23.4710   35.7180 C   0  0  0  0  0  0  0  0  0  0  0  0
   42.1680   22.4680   36.5930 N   0  0  0  0  0  0  0  0  0  0  0  0
   37.2943   25.5867   32.2197 H   0  0  0  0  0  0  0  0  0  0  0  0
   37.3995   26.8666   36.2095 H   0  0  0  0  0  0  0  0  0  0  0  0
   37.4880   27.5602   31.5892 H   0  0  0  0  0  0  0  0  0  0  0  0
   36.6945   29.7186   30.6375 H   0  0  0  0  0  0  0  0  0  0  0  0
   35.4424   31.2961   32.0922 H   0  0  0  0  0  0  0  0  0  0  0  0
   34.9918   30.7125   34.4527 H   0  0  0  0  0  0  0  0  0  0  0  0
   35.7832   28.5455   35.4208 H   0  0  0  0  0  0  0  0  0  0  0  0
   41.4063   21.1836   38.0951 H   0  0  0  0  0  0  0  0  0  0  0  0
   39.0829   22.1808   37.9600 H   0  0  0  0  0  0  0  0  0  0  0  0
   42.7352   23.8444   35.0733 H   0  0  0  0  0  0  0  0  0  0  0  0
  1  2  1  0
  1  5  1  0
  2  3  2  0
  3  4  1  0
  3 12  1  0
  5  4  2  0
  6  5  1  0
  6 11  1  0
  7  6  2  0
  8  7  1  0
  8  9  2  0
  9 10  1  0
 10 11  2  0
 12 16  1  0
 12 13  2  0
 15 14  2  0
 16 15  1  0
 17 18  1  0
 17 16  2  0
 18 19  2  0
 19 14  1  0
  1 20  1  0
  4 21  1  0
  7 22  1  0
  8 23  1  0
  9 24  1  0
 10 25  1  0
 11 26  1  0
 14 27  1  0
 15 28  1  0
 18 29  1  0
M  ISO  8  20   9  21  14  22  14  23  14  24  14  25  14  26  14  27  14
M  ISO  2  28  14  29  14
M  END
>  <minimizedAffinity>  (1) 
-4.99826908

>  <minimizedRMSD>  (1) 
2.08422661

$$$$
