
     RDKit          3D

 35 37  0  0  0  0  0  0  0  0999 V2000
   37.4470   25.5630   33.0020 N   0  0  0  0  0  0  0  0  0  0  0  0
   37.8210   24.5690   33.7990 N   0  0  0  0  0  0  0  0  0  0  0  0
   37.8740   25.0040   35.0810 C   0  0  0  0  0  0  0  0  0  0  0  0
   37.5070   26.3370   35.0250 C   0  0  0  0  0  0  0  0  0  0  0  0
   37.2400   26.6900   33.7230 C   0  0  0  0  0  0  0  0  0  0  0  0
   36.8150   28.0480   33.2880 C   0  0  0  0  0  0  0  0  0  0  0  0
   35.8700   27.9950   32.1020 C   0  0  0  0  0  0  0  0  0  0  0  0
   35.7150   29.3730   31.5330 C   0  0  0  0  0  0  0  0  0  0  0  0
   35.7320   30.4410   32.5840 C   0  0  0  0  0  0  0  0  0  0  0  0
   35.1710   29.8550   33.8640 C   0  0  0  0  0  0  0  0  0  0  0  0
   36.0550   28.7700   34.4070 C   0  0  0  0  0  0  0  0  0  0  0  0
   38.2390   24.2290   36.2510 C   0  0  0  0  0  0  0  0  0  0  0  0
   37.3080   24.1110   37.1130 O   0  0  0  0  0  0  0  0  0  0  0  0
   40.9860   22.1080   37.4730 C   0  0  0  0  0  0  0  0  0  0  0  0
   39.7040   22.6790   37.3320 C   0  0  0  0  0  0  0  0  0  0  0  0
   39.5610   23.6670   36.3680 C   0  0  0  0  0  0  0  0  0  0  0  0
   40.6100   24.0520   35.6100 N   0  0  0  0  0  0  0  0  0  0  0  0
   41.8310   23.4700   35.7830 C   0  0  0  0  0  0  0  0  0  0  0  0
   41.9980   22.5110   36.7080 N   0  0  0  0  0  0  0  0  0  0  0  0
   37.3310   25.4874   31.9813 H   0  0  0  0  0  0  0  0  0  0  0  0
   37.4391   27.0121   35.8908 H   0  0  0  0  0  0  0  0  0  0  0  0
   37.7410   28.5781   33.0206 H   0  0  0  0  0  0  0  0  0  0  0  0
   36.2813   27.3239   31.3336 H   0  0  0  0  0  0  0  0  0  0  0  0
   34.8895   27.6173   32.4275 H   0  0  0  0  0  0  0  0  0  0  0  0
   36.5411   29.5581   30.8306 H   0  0  0  0  0  0  0  0  0  0  0  0
   34.7363   29.4164   31.0328 H   0  0  0  0  0  0  0  0  0  0  0  0
   36.7643   30.7819   32.7517 H   0  0  0  0  0  0  0  0  0  0  0  0
   35.1257   31.3005   32.2620 H   0  0  0  0  0  0  0  0  0  0  0  0
   35.0840   30.6542   34.6148 H   0  0  0  0  0  0  0  0  0  0  0  0
   34.1865   29.4181   33.6407 H   0  0  0  0  0  0  0  0  0  0  0  0
   35.4336   28.0393   34.9455 H   0  0  0  0  0  0  0  0  0  0  0  0
   36.7918   29.2316   35.0809 H   0  0  0  0  0  0  0  0  0  0  0  0
   41.1513   21.3209   38.2235 H   0  0  0  0  0  0  0  0  0  0  0  0
   38.8578   22.3565   37.9564 H   0  0  0  0  0  0  0  0  0  0  0  0
   42.6822   23.7872   35.1626 H   0  0  0  0  0  0  0  0  0  0  0  0
  1  5  1  0
  1  2  1  0
  2  3  2  0
  3 12  1  0
  4  3  1  0
  5  4  2  0
  6  5  1  0
  6 11  1  0
  7  6  1  0
  8  7  1  0
  8  9  1  0
  9 10  1  0
 10 11  1  0
 12 16  1  0
 12 13  2  0
 15 14  2  0
 16 15  1  0
 17 18  1  0
 17 16  2  0
 18 19  2  0
 19 14  1  0
  1 20  1  0
  4 21  1  0
  6 22  1  0
  7 23  1  0
  7 24  1  0
  8 25  1  0
  8 26  1  0
  9 27  1  0
  9 28  1  0
 10 29  1  0
 10 30  1  0
 11 31  1  0
 11 32  1  0
 14 33  1  0
 15 34  1  0
 18 35  1  0
M  ISO  8  20   9  21  14  22  13  23  13  24  13  25  13  26  13  27  13
M  ISO  8  28  13  29  13  30  13  31  13  32  13  33  14  34  14  35  14
M  END
>  <minimizedAffinity>  (1) 
-4.90645838

>  <minimizedRMSD>  (1) 
2.67680693

$$$$
