
     RDKit          3D

 33 36  0  0  0  0  0  0  0  0999 V2000
   36.6030   27.2290   33.0990 N   0  0  0  0  0  0  0  0  0  0  0  0
   37.2300   26.1040   33.4650 N   0  0  0  0  0  0  0  0  0  0  0  0
   37.5610   26.2250   34.7700 C   0  0  0  0  0  0  0  0  0  0  0  0
   37.1030   27.4580   35.1410 C   0  0  0  0  0  0  0  0  0  0  0  0
   36.4960   28.1010   34.0960 C   0  0  0  0  0  0  0  0  0  0  0  0
   35.9260   29.4250   34.2340 C   0  0  0  0  0  0  0  0  0  0  0  0
   36.0330   30.2480   35.3620 C   0  0  0  0  0  0  0  0  0  0  0  0
   35.3960   31.4120   35.1750 N   0  0  0  0  0  0  0  0  0  0  0  0
   34.8500   31.4250   33.9520 C   0  0  0  0  0  0  0  0  0  0  0  0
   34.1050   32.3680   33.2810 C   0  0  0  0  0  0  0  0  0  0  0  0
   33.6460   32.1500   32.0050 C   0  0  0  0  0  0  0  0  0  0  0  0
   33.9760   30.9320   31.4390 C   0  0  0  0  0  0  0  0  0  0  0  0
   34.7160   30.0150   32.1270 C   0  0  0  0  0  0  0  0  0  0  0  0
   35.1800   30.2100   33.3880 C   0  0  0  0  0  0  0  0  0  0  0  0
   38.2480   25.2370   35.5800 C   0  0  0  0  0  0  0  0  0  0  0  0
   37.4970   24.6350   36.4240 O   0  0  0  0  0  0  0  0  0  0  0  0
   41.4760   23.4820   35.6490 C   0  0  0  0  0  0  0  0  0  0  0  0
   40.0960   23.7540   35.8090 C   0  0  0  0  0  0  0  0  0  0  0  0
   39.6420   24.9950   35.4130 C   0  0  0  0  0  0  0  0  0  0  0  0
   40.5090   25.9130   34.8890 N   0  0  0  0  0  0  0  0  0  0  0  0
   41.8190   25.6190   34.7510 C   0  0  0  0  0  0  0  0  0  0  0  0
   42.2880   24.4050   35.1340 N   0  0  0  0  0  0  0  0  0  0  0  0
   36.2432   27.3998   32.1491 H   0  0  0  0  0  0  0  0  0  0  0  0
   37.2087   27.8802   36.1512 H   0  0  0  0  0  0  0  0  0  0  0  0
   36.5702   29.9744   36.2821 H   0  0  0  0  0  0  0  0  0  0  0  0
   35.3358   32.1761   35.8631 H   0  0  0  0  0  0  0  0  0  0  0  0
   33.8713   33.3204   33.7793 H   0  0  0  0  0  0  0  0  0  0  0  0
   33.0505   32.9006   31.4646 H   0  0  0  0  0  0  0  0  0  0  0  0
   33.6368   30.6990   30.4189 H   0  0  0  0  0  0  0  0  0  0  0  0
   34.9504   29.0617   31.6308 H   0  0  0  0  0  0  0  0  0  0  0  0
   41.8800   22.5045   35.9511 H   0  0  0  0  0  0  0  0  0  0  0  0
   39.4117   23.0043   36.2330 H   0  0  0  0  0  0  0  0  0  0  0  0
   42.5075   26.3649   34.3273 H   0  0  0  0  0  0  0  0  0  0  0  0
  1  2  1  0
  1  5  1  0
  2  3  2  0
  3  4  1  0
  3 15  1  0
  5  6  1  0
  5  4  2  0
  6  7  2  0
  8  7  1  0
  9  8  1  0
 10  9  2  0
 11 10  1  0
 12 11  2  0
 12 13  1  0
 13 14  2  0
 14  9  1  0
 14  6  1  0
 15 16  2  0
 17 18  2  0
 19 15  1  0
 19 18  1  0
 20 19  2  0
 21 20  1  0
 21 22  2  0
 22 17  1  0
  1 23  1  0
  4 24  1  0
  7 25  1  0
  8 26  1  0
 10 27  1  0
 11 28  1  0
 12 29  1  0
 13 30  1  0
 17 31  1  0
 18 32  1  0
 21 33  1  0
M  ISO  8  23   9  24  14  25  14  26   9  27  14  28  14  29  14  30  14
M  ISO  3  31  14  32  14  33  14
M  END
>  <minimizedAffinity>  (1) 
-4.43801212

>  <minimizedRMSD>  (1) 
2.64144087

$$$$
