
     RDKit          3D

 28 29  0  0  0  0  0  0  0  0999 V2000
   38.2400   24.2370   36.2690 C   0  0  0  0  0  0  0  0  0  0  0  0
   37.3150   24.0820   37.1400 O   0  0  0  0  0  0  0  0  0  0  0  0
   41.0210   22.1250   37.4400 C   0  0  0  0  0  0  0  0  0  0  0  0
   39.7450   22.6950   37.3160 C   0  0  0  0  0  0  0  0  0  0  0  0
   39.5530   23.6810   36.3650 C   0  0  0  0  0  0  0  0  0  0  0  0
   40.5960   24.0690   35.5810 N   0  0  0  0  0  0  0  0  0  0  0  0
   41.8240   23.4990   35.7220 C   0  0  0  0  0  0  0  0  0  0  0  0
   42.0090   22.5450   36.6410 N   0  0  0  0  0  0  0  0  0  0  0  0
   37.4300   25.6160   33.0520 N   0  0  0  0  0  0  0  0  0  0  0  0
   37.8200   24.6040   33.8240 N   0  0  0  0  0  0  0  0  0  0  0  0
   37.8580   25.0520   35.1230 C   0  0  0  0  0  0  0  0  0  0  0  0
   37.4760   26.3710   35.0940 C   0  0  0  0  0  0  0  0  0  0  0  0
   37.2090   26.7200   33.7960 C   0  0  0  0  0  0  0  0  0  0  0  0
   36.7680   28.0360   33.3130 C   0  0  0  0  0  0  0  0  0  0  0  0
   35.9820   28.8230   34.3550 C   0  0  0  0  0  0  0  0  0  0  0  0
   35.8680   27.9410   32.0860 C   0  0  0  0  0  0  0  0  0  0  0  0
   41.2077   21.3398   38.1874 H   0  0  0  0  0  0  0  0  0  0  0  0
   38.9164   22.3654   37.9601 H   0  0  0  0  0  0  0  0  0  0  0  0
   42.6598   23.8212   35.0835 H   0  0  0  0  0  0  0  0  0  0  0  0
   37.3133   25.5637   32.0300 H   0  0  0  0  0  0  0  0  0  0  0  0
   37.3975   27.0360   35.9667 H   0  0  0  0  0  0  0  0  0  0  0  0
   37.7090   28.5515   33.0706 H   0  0  0  0  0  0  0  0  0  0  0  0
   36.2940   28.5107   35.3625 H   0  0  0  0  0  0  0  0  0  0  0  0
   36.1779   29.8979   34.2273 H   0  0  0  0  0  0  0  0  0  0  0  0
   34.9069   28.6285   34.2273 H   0  0  0  0  0  0  0  0  0  0  0  0
   34.8215   27.8305   32.4065 H   0  0  0  0  0  0  0  0  0  0  0  0
   35.9723   28.8551   31.4831 H   0  0  0  0  0  0  0  0  0  0  0  0
   36.1608   27.0688   31.4831 H   0  0  0  0  0  0  0  0  0  0  0  0
  1  5  1  0
  1  2  2  0
  4  3  2  0
  5  4  1  0
  6  7  1  0
  6  5  2  0
  7  8  2  0
  8  3  1  0
  9 13  1  0
  9 10  1  0
 10 11  2  0
 11  1  1  0
 12 11  1  0
 13 12  2  0
 14 13  1  0
 14 15  1  0
 16 14  1  0
  3 17  1  0
  4 18  1  0
  7 19  1  0
  9 20  1  0
 12 21  1  0
 14 22  1  0
 15 23  1  0
 15 24  1  0
 15 25  1  0
 16 26  1  0
 16 27  1  0
 16 28  1  0
M  ISO  8  17  14  18  14  19  14  20   9  21  14  22   8  23   8  24   8
M  ISO  4  25   8  26   8  27   8  28   8
M  END
>  <minimizedAffinity>  (1) 
-4.15953827

>  <minimizedRMSD>  (1) 
1.70711827

$$$$
