
     RDKit          3D

 25 26  0  0  0  0  0  0  0  0999 V2000
   38.9230   23.5180   36.7920 C   0  0  0  0  0  0  0  0  0  0  0  0
   38.1200   23.1500   37.7020 O   0  0  0  0  0  0  0  0  0  0  0  0
   41.9420   21.4610   37.2460 C   0  0  0  0  0  0  0  0  0  0  0  0
   40.6160   21.9330   37.3700 C   0  0  0  0  0  0  0  0  0  0  0  0
   40.2770   23.0610   36.6450 C   0  0  0  0  0  0  0  0  0  0  0  0
   41.2050   23.6560   35.8610 N   0  0  0  0  0  0  0  0  0  0  0  0
   42.4630   23.1780   35.7660 C   0  0  0  0  0  0  0  0  0  0  0  0
   42.8090   22.0870   36.4620 N   0  0  0  0  0  0  0  0  0  0  0  0
   37.6310   25.3500   33.9730 N   0  0  0  0  0  0  0  0  0  0  0  0
   38.1290   24.2540   34.5270 N   0  0  0  0  0  0  0  0  0  0  0  0
   38.3710   24.4860   35.8410 C   0  0  0  0  0  0  0  0  0  0  0  0
   37.9960   25.7870   36.0720 C   0  0  0  0  0  0  0  0  0  0  0  0
   37.5330   26.3200   34.8950 C   0  0  0  0  0  0  0  0  0  0  0  0
   37.0140   27.6710   34.5980 C   0  0  0  0  0  0  0  0  0  0  0  0
   36.7630   27.8710   33.1090 C   0  0  0  0  0  0  0  0  0  0  0  0
   42.2575   20.5672   37.8042 H   0  0  0  0  0  0  0  0  0  0  0  0
   39.8845   21.4250   38.0156 H   0  0  0  0  0  0  0  0  0  0  0  0
   43.1993   23.6806   35.1216 H   0  0  0  0  0  0  0  0  0  0  0  0
   37.3600   25.4433   32.9837 H   0  0  0  0  0  0  0  0  0  0  0  0
   38.0565   26.3125   37.0365 H   0  0  0  0  0  0  0  0  0  0  0  0
   36.0678   27.8151   35.1402 H   0  0  0  0  0  0  0  0  0  0  0  0
   37.7705   28.4033   34.9165 H   0  0  0  0  0  0  0  0  0  0  0  0
   35.9097   28.5509   32.9691 H   0  0  0  0  0  0  0  0  0  0  0  0
   37.6587   28.3057   32.6413 H   0  0  0  0  0  0  0  0  0  0  0  0
   36.5393   26.9008   32.6413 H   0  0  0  0  0  0  0  0  0  0  0  0
  1  2  2  0
  3  4  2  0
  5  1  1  0
  5  4  1  0
  6  5  2  0
  7  6  1  0
  7  8  2  0
  8  3  1  0
  9 10  1  0
  9 13  1  0
 10 11  2  0
 11 12  1  0
 11  1  1  0
 13 12  2  0
 14 13  1  0
 15 14  1  0
  3 16  1  0
  4 17  1  0
  7 18  1  0
  9 19  1  0
 12 20  1  0
 14 21  1  0
 14 22  1  0
 15 23  1  0
 15 24  1  0
 15 25  1  0
M  ISO  8  16  14  17  14  18  14  19   9  20  14  21   8  22   8  23   8
M  ISO  2  24   8  25   8
M  END
>  <minimizedAffinity>  (1) 
-3.93464899

>  <minimizedRMSD>  (1) 
1.3826021

$$$$
