
     RDKit          3D

 24 26  0  0  0  0  0  0  0  0999 V2000
   36.9700   26.1300   32.7340 N   0  0  0  0  0  0  0  0  0  0  0  0
   37.5930   25.0820   33.2670 N   0  0  0  0  0  0  0  0  0  0  0  0
   37.8710   25.3550   34.5770 C   0  0  0  0  0  0  0  0  0  0  0  0
   37.3850   26.6300   34.8240 C   0  0  0  0  0  0  0  0  0  0  0  0
   36.8280   27.0890   33.6590 C   0  0  0  0  0  0  0  0  0  0  0  0
   36.1990   28.3880   33.4700 C   0  0  0  0  0  0  0  0  0  0  0  0
   35.8670   29.2880   34.4130 N   0  0  0  0  0  0  0  0  0  0  0  0
   35.3290   30.3280   33.9010 O   0  0  0  0  0  0  0  0  0  0  0  0
   35.2870   30.1480   32.6030 C   0  0  0  0  0  0  0  0  0  0  0  0
   35.8270   28.9370   32.3000 N   0  0  0  0  0  0  0  0  0  0  0  0
   38.5520   24.4510   35.5090 C   0  0  0  0  0  0  0  0  0  0  0  0
   37.7740   23.7890   36.2720 O   0  0  0  0  0  0  0  0  0  0  0  0
   41.9210   23.1660   36.2070 C   0  0  0  0  0  0  0  0  0  0  0  0
   40.5120   23.2830   36.1830 C   0  0  0  0  0  0  0  0  0  0  0  0
   39.9830   24.3670   35.5120 C   0  0  0  0  0  0  0  0  0  0  0  0
   40.8030   25.2680   34.9090 N   0  0  0  0  0  0  0  0  0  0  0  0
   42.1400   25.1190   34.9550 C   0  0  0  0  0  0  0  0  0  0  0  0
   42.6940   24.0670   35.6050 N   0  0  0  0  0  0  0  0  0  0  0  0
   36.6460   26.1943   31.7584 H   0  0  0  0  0  0  0  0  0  0  0  0
   37.4370   27.1730   35.7792 H   0  0  0  0  0  0  0  0  0  0  0  0
   34.8793   30.8636   31.8739 H   0  0  0  0  0  0  0  0  0  0  0  0
   42.3853   22.3176   36.7311 H   0  0  0  0  0  0  0  0  0  0  0  0
   39.8659   22.5426   36.6774 H   0  0  0  0  0  0  0  0  0  0  0  0
   42.7883   25.8575   34.4607 H   0  0  0  0  0  0  0  0  0  0  0  0
  1  2  1  0
  1  5  1  0
  2  3  2  0
  3  4  1  0
  3 11  1  0
  5  4  2  0
  6  5  1  0
  6  7  2  0
  8  7  1  0
  9  8  1  0
 10  9  2  0
 10  6  1  0
 11 15  1  0
 11 12  2  0
 14 13  2  0
 15 14  1  0
 16 17  1  0
 16 15  2  0
 17 18  2  0
 18 13  1  0
  1 19  1  0
  4 20  1  0
  9 21  1  0
 13 22  1  0
 14 23  1  0
 17 24  1  0
M  ISO  6  19   9  20  14  21  14  22  14  23  14  24  14
M  END
>  <minimizedAffinity>  (1) 
-3.84235096

>  <minimizedRMSD>  (1) 
2.35683942

$$$$
