
     RDKit          3D

 27 29  0  0  0  0  0  0  0  0999 V2000
   36.6330   26.8410   32.6640 N   0  0  0  0  0  0  0  0  0  0  0  0
   37.3230   25.8630   33.2300 N   0  0  0  0  0  0  0  0  0  0  0  0
   37.5690   26.1650   34.5260 C   0  0  0  0  0  0  0  0  0  0  0  0
   36.9890   27.3990   34.7420 C   0  0  0  0  0  0  0  0  0  0  0  0
   36.4070   27.8060   33.5620 C   0  0  0  0  0  0  0  0  0  0  0  0
   35.7070   29.0820   33.4650 C   0  0  0  0  0  0  0  0  0  0  0  0
   35.6700   29.9210   34.5700 C   0  0  0  0  0  0  0  0  0  0  0  0
   35.0390   31.1650   34.6150 C   0  0  0  0  0  0  0  0  0  0  0  0
   34.4230   31.5530   33.4740 N   0  0  0  0  0  0  0  0  0  0  0  0
   34.4480   30.7520   32.3910 C   0  0  0  0  0  0  0  0  0  0  0  0
   35.0650   29.5460   32.3620 N   0  0  0  0  0  0  0  0  0  0  0  0
   38.3020   25.3370   35.4840 C   0  0  0  0  0  0  0  0  0  0  0  0
   37.5970   24.8510   36.4170 O   0  0  0  0  0  0  0  0  0  0  0  0
   41.5700   23.6300   35.4720 C   0  0  0  0  0  0  0  0  0  0  0  0
   40.1840   23.8570   35.6280 C   0  0  0  0  0  0  0  0  0  0  0  0
   39.7140   25.1310   35.3180 C   0  0  0  0  0  0  0  0  0  0  0  0
   40.5800   26.0850   34.8890 N   0  0  0  0  0  0  0  0  0  0  0  0
   41.8970   25.8160   34.7570 C   0  0  0  0  0  0  0  0  0  0  0  0
   42.3710   24.6010   35.0480 N   0  0  0  0  0  0  0  0  0  0  0  0
   36.3187   26.8563   31.6832 H   0  0  0  0  0  0  0  0  0  0  0  0
   36.9913   27.9583   35.6892 H   0  0  0  0  0  0  0  0  0  0  0  0
   36.1786   29.5781   35.4831 H   0  0  0  0  0  0  0  0  0  0  0  0
   35.0421   31.7903   35.5200 H   0  0  0  0  0  0  0  0  0  0  0  0
   33.9388   31.0965   31.4788 H   0  0  0  0  0  0  0  0  0  0  0  0
   41.9895   22.6399   35.7039 H   0  0  0  0  0  0  0  0  0  0  0  0
   39.5072   23.0638   35.9783 H   0  0  0  0  0  0  0  0  0  0  0  0
   42.5833   26.6016   34.4080 H   0  0  0  0  0  0  0  0  0  0  0  0
  1  2  1  0
  1  5  1  0
  2  3  2  0
  3  4  1  0
  3 12  1  0
  5  4  2  0
  6  5  1  0
  6  7  2  0
  7  8  1  0
  9  8  2  0
 10  9  1  0
 11 10  2  0
 11  6  1  0
 12 13  2  0
 14 15  2  0
 16 12  1  0
 16 15  1  0
 17 16  2  0
 18 17  1  0
 18 19  2  0
 19 14  1  0
  1 20  1  0
  4 21  1  0
  7 22  1  0
  8 23  1  0
 10 24  1  0
 14 25  1  0
 15 26  1  0
 18 27  1  0
M  ISO  8  20   9  21  14  22  14  23  14  24  14  25  14  26  14  27  14
M  END
>  <minimizedAffinity>  (1) 
-4.09992838

>  <minimizedRMSD>  (1) 
2.95890164

$$$$
