
     RDKit          3D

 41 44  0  0  0  0  0  0  0  0999 V2000
   38.2590   24.0760   36.2910 C   0  0  0  0  0  0  0  0  0  0  0  0
   37.3110   23.9040   37.1280 O   0  0  0  0  0  0  0  0  0  0  0  0
   41.0370   21.9370   37.4240 C   0  0  0  0  0  0  0  0  0  0  0  0
   39.7340   22.4630   37.2780 C   0  0  0  0  0  0  0  0  0  0  0  0
   39.5830   23.5530   36.4300 C   0  0  0  0  0  0  0  0  0  0  0  0
   40.6700   24.0680   35.7780 N   0  0  0  0  0  0  0  0  0  0  0  0
   41.8950   23.5260   35.9540 C   0  0  0  0  0  0  0  0  0  0  0  0
   42.0560   22.4760   36.7690 N   0  0  0  0  0  0  0  0  0  0  0  0
   43.0070   24.0690   35.2760 N   0  0  0  0  0  0  0  0  0  0  0  0
   43.0940   25.4680   34.9210 C   0  0  0  0  0  0  0  0  0  0  0  0
   44.5800   25.8050   34.8800 C   0  0  0  0  0  0  0  0  0  0  0  0
   45.3090   25.1250   35.9220 N   0  0  0  0  0  0  0  0  0  0  0  0
   45.3650   23.6910   35.6720 C   0  0  0  0  0  0  0  0  0  0  0  0
   44.1280   23.2290   34.9020 C   0  0  0  0  0  0  0  0  0  0  0  0
   37.5740   25.4690   33.0390 N   0  0  0  0  0  0  0  0  0  0  0  0
   37.9730   24.4850   33.8310 N   0  0  0  0  0  0  0  0  0  0  0  0
   37.9050   24.8790   35.1210 C   0  0  0  0  0  0  0  0  0  0  0  0
   37.4350   26.1830   35.1000 C   0  0  0  0  0  0  0  0  0  0  0  0
   37.2340   26.5360   33.7830 C   0  0  0  0  0  0  0  0  0  0  0  0
   36.7360   27.8560   33.4230 C   0  0  0  0  0  0  0  0  0  0  0  0
   36.1070   28.6210   34.3800 C   0  0  0  0  0  0  0  0  0  0  0  0
   35.5680   29.9010   34.1630 C   0  0  0  0  0  0  0  0  0  0  0  0
   35.7010   30.3820   32.8960 N   0  0  0  0  0  0  0  0  0  0  0  0
   36.3120   29.6490   31.9540 C   0  0  0  0  0  0  0  0  0  0  0  0
   36.8280   28.4050   32.1900 N   0  0  0  0  0  0  0  0  0  0  0  0
   41.2072   21.0747   38.0854 H   0  0  0  0  0  0  0  0  0  0  0  0
   38.8764   22.0284   37.8125 H   0  0  0  0  0  0  0  0  0  0  0  0
   42.6366   25.6405   33.9356 H   0  0  0  0  0  0  0  0  0  0  0  0
   42.5598   26.0994   35.6462 H   0  0  0  0  0  0  0  0  0  0  0  0
   44.9875   25.5027   33.9040 H   0  0  0  0  0  0  0  0  0  0  0  0
   44.6908   26.8885   35.0343 H   0  0  0  0  0  0  0  0  0  0  0  0
   46.2685   25.4977   35.9597 H   0  0  0  0  0  0  0  0  0  0  0  0
   46.2644   23.4621   35.0816 H   0  0  0  0  0  0  0  0  0  0  0  0
   45.3984   23.1644   36.6372 H   0  0  0  0  0  0  0  0  0  0  0  0
   43.9055   22.1814   35.1532 H   0  0  0  0  0  0  0  0  0  0  0  0
   44.3096   23.3063   33.8199 H   0  0  0  0  0  0  0  0  0  0  0  0
   37.5308   25.4237   32.0109 H   0  0  0  0  0  0  0  0  0  0  0  0
   37.2548   26.8216   35.9773 H   0  0  0  0  0  0  0  0  0  0  0  0
   36.0197   28.1980   35.3917 H   0  0  0  0  0  0  0  0  0  0  0  0
   35.0733   30.4741   34.9610 H   0  0  0  0  0  0  0  0  0  0  0  0
   36.4026   30.0692   30.9415 H   0  0  0  0  0  0  0  0  0  0  0  0
  1  5  1  0
  1  2  2  0
  4  3  2  0
  5  4  1  0
  6  7  1  0
  6  5  2  0
  7  8  2  0
  8  3  1  0
  9  7  1  0
 10  9  1  0
 11 10  1  0
 11 12  1  0
 13 12  1  0
 14  9  1  0
 14 13  1  0
 15 19  1  0
 15 16  1  0
 16 17  2  0
 17  1  1  0
 18 17  1  0
 19 18  2  0
 20 19  1  0
 20 21  2  0
 22 21  1  0
 23 22  2  0
 24 25  2  0
 24 23  1  0
 25 20  1  0
  3 26  1  0
  4 27  1  0
 10 28  1  0
 10 29  1  0
 11 30  1  0
 11 31  1  0
 12 32  1  0
 13 33  1  0
 13 34  1  0
 14 35  1  0
 14 36  1  0
 15 37  1  0
 18 38  1  0
 21 39  1  0
 22 40  1  0
 24 41  1  0
M  ISO  8  26  14  27  14  28  13  29  13  30  13  31  13  32   5  33  13
M  ISO  8  34  13  35  13  36  13  37   9  38  14  39  14  40  14  41  14
M  END
>  <minimizedAffinity>  (1) 
-5.39559317

>  <minimizedRMSD>  (1) 
2.27682233

$$$$
