
     RDKit          3D

 40 43  0  0  0  0  0  0  0  0999 V2000
   37.4940   25.3090   33.1020 N   0  0  0  0  0  0  0  0  0  0  0  0
   37.9230   24.3440   33.9040 N   0  0  0  0  0  0  0  0  0  0  0  0
   37.9570   24.7870   35.1710 C   0  0  0  0  0  0  0  0  0  0  0  0
   37.5210   26.0990   35.1320 C   0  0  0  0  0  0  0  0  0  0  0  0
   37.2370   26.4020   33.8150 C   0  0  0  0  0  0  0  0  0  0  0  0
   36.7490   27.7300   33.4390 C   0  0  0  0  0  0  0  0  0  0  0  0
   36.1200   28.5110   34.3850 C   0  0  0  0  0  0  0  0  0  0  0  0
   35.6100   29.7960   34.1450 C   0  0  0  0  0  0  0  0  0  0  0  0
   35.7560   30.2770   32.8940 N   0  0  0  0  0  0  0  0  0  0  0  0
   36.3690   29.5190   31.9630 C   0  0  0  0  0  0  0  0  0  0  0  0
   36.8640   28.2700   32.2040 N   0  0  0  0  0  0  0  0  0  0  0  0
   38.3720   24.0260   36.3530 C   0  0  0  0  0  0  0  0  0  0  0  0
   37.4760   23.8790   37.2480 O   0  0  0  0  0  0  0  0  0  0  0  0
   41.1910   21.8850   37.3610 C   0  0  0  0  0  0  0  0  0  0  0  0
   39.8920   22.4070   37.2590 C   0  0  0  0  0  0  0  0  0  0  0  0
   39.6960   23.5070   36.4470 C   0  0  0  0  0  0  0  0  0  0  0  0
   40.7580   24.0410   35.7810 N   0  0  0  0  0  0  0  0  0  0  0  0
   41.9990   23.5060   35.9070 C   0  0  0  0  0  0  0  0  0  0  0  0
   42.1860   22.4390   36.6970 N   0  0  0  0  0  0  0  0  0  0  0  0
   43.0920   24.1090   35.1820 N   0  0  0  0  0  0  0  0  0  0  0  0
   44.1640   23.1980   34.7900 C   0  0  0  0  0  0  0  0  0  0  0  0
   45.3410   24.0340   34.3380 C   0  0  0  0  0  0  0  0  0  0  0  0
   45.4140   25.2080   35.1080 O   0  0  0  0  0  0  0  0  0  0  0  0
   44.4070   26.0350   34.6270 C   0  0  0  0  0  0  0  0  0  0  0  0
   43.0190   25.5350   34.9150 C   0  0  0  0  0  0  0  0  0  0  0  0
   37.3775   25.2249   32.0821 H   0  0  0  0  0  0  0  0  0  0  0  0
   37.4191   26.7768   35.9923 H   0  0  0  0  0  0  0  0  0  0  0  0
   36.0103   28.0980   35.3986 H   0  0  0  0  0  0  0  0  0  0  0  0
   35.1170   30.3802   34.9360 H   0  0  0  0  0  0  0  0  0  0  0  0
   36.4767   29.9315   30.9490 H   0  0  0  0  0  0  0  0  0  0  0  0
   41.3798   21.0087   37.9986 H   0  0  0  0  0  0  0  0  0  0  0  0
   39.0547   21.9534   37.8096 H   0  0  0  0  0  0  0  0  0  0  0  0
   44.4561   22.5735   35.6471 H   0  0  0  0  0  0  0  0  0  0  0  0
   43.8280   22.5373   33.9772 H   0  0  0  0  0  0  0  0  0  0  0  0
   46.2688   23.4566   34.4634 H   0  0  0  0  0  0  0  0  0  0  0  0
   45.2116   24.3014   33.2789 H   0  0  0  0  0  0  0  0  0  0  0  0
   44.5236   26.1247   33.5369 H   0  0  0  0  0  0  0  0  0  0  0  0
   44.5124   27.0003   35.1438 H   0  0  0  0  0  0  0  0  0  0  0  0
   42.6107   26.0570   35.7930 H   0  0  0  0  0  0  0  0  0  0  0  0
   42.3622   25.7252   34.0534 H   0  0  0  0  0  0  0  0  0  0  0  0
  1  5  1  0
  1  2  1  0
  2  3  2  0
  3 12  1  0
  4  3  1  0
  5  4  2  0
  6  5  1  0
  6  7  2  0
  8  7  1  0
  9  8  2  0
 10 11  2  0
 10  9  1  0
 11  6  1  0
 12 16  1  0
 12 13  2  0
 15 14  2  0
 16 15  1  0
 17 18  1  0
 17 16  2  0
 18 19  2  0
 19 14  1  0
 20 18  1  0
 21 20  1  0
 22 21  1  0
 22 23  1  0
 24 25  1  0
 24 23  1  0
 25 20  1  0
  1 26  1  0
  4 27  1  0
  7 28  1  0
  8 29  1  0
 10 30  1  0
 14 31  1  0
 15 32  1  0
 21 33  1  0
 21 34  1  0
 22 35  1  0
 22 36  1  0
 24 37  1  0
 24 38  1  0
 25 39  1  0
 25 40  1  0
M  ISO  8  26   9  27  14  28  14  29  14  30  14  31  14  32  14  33  13
M  ISO  7  34  13  35  13  36  13  37  13  38  13  39  13  40  13
M  END
>  <minimizedAffinity>  (1) 
-5.32607985

>  <minimizedRMSD>  (1) 
2.33944702

$$$$
