
     RDKit          3D

 39 43  0  0  0  0  0  0  0  0999 V2000
   36.8000   24.5610   31.8760 C   0  0  0  0  0  0  0  0  0  0  0  0
   36.2880   25.8500   31.9250 C   0  0  0  0  0  0  0  0  0  0  0  0
   36.8010   26.6430   32.9330 C   0  0  0  0  0  0  0  0  0  0  0  0
   37.7110   26.1160   33.7430 N   0  0  0  0  0  0  0  0  0  0  0  0
   38.2060   24.9050   33.7140 C   0  0  0  0  0  0  0  0  0  0  0  0
   37.7180   24.1530   32.7560 N   0  0  0  0  0  0  0  0  0  0  0  0
   39.1930   24.2220   34.5360 C   0  0  0  0  0  0  0  0  0  0  0  0
   40.4020   23.8050   34.0210 C   0  0  0  0  0  0  0  0  0  0  0  0
   41.3760   23.1510   34.7580 C   0  0  0  0  0  0  0  0  0  0  0  0
   41.1480   22.8900   36.0900 C   0  0  0  0  0  0  0  0  0  0  0  0
   39.9790   23.2790   36.6440 C   0  0  0  0  0  0  0  0  0  0  0  0
   39.7600   23.0090   37.9890 C   0  0  0  0  0  0  0  0  0  0  0  0
   38.6160   23.3640   38.6210 C   0  0  0  0  0  0  0  0  0  0  0  0
   37.6500   24.0230   37.8540 C   0  0  0  0  0  0  0  0  0  0  0  0
   37.8920   24.2750   36.5320 C   0  0  0  0  0  0  0  0  0  0  0  0
   39.0350   23.9260   35.8790 C   0  0  0  0  0  0  0  0  0  0  0  0
   36.3770   27.9830   33.1110 N   0  0  0  0  0  0  0  0  0  0  0  0
   36.3860   28.9560   32.1810 C   0  0  0  0  0  0  0  0  0  0  0  0
   35.9150   30.0940   32.7010 N   0  0  0  0  0  0  0  0  0  0  0  0
   35.6010   29.8460   33.9810 C   0  0  0  0  0  0  0  0  0  0  0  0
   35.8930   28.5510   34.2030 N   0  0  0  0  0  0  0  0  0  0  0  0
   35.0540   30.6430   35.0730 C   0  0  0  0  0  0  0  0  0  0  0  0
   35.9360   31.4470   35.7950 C   0  0  0  0  0  0  0  0  0  0  0  0
   35.1680   32.0950   36.7670 C   0  0  0  0  0  0  0  0  0  0  0  0
   33.8820   31.6500   36.5760 C   0  0  0  0  0  0  0  0  0  0  0  0
   33.8660   30.8040   35.5750 O   0  0  0  0  0  0  0  0  0  0  0  0
   36.4447   23.8655   31.1014 H   0  0  0  0  0  0  0  0  0  0  0  0
   35.5306   26.2129   31.2146 H   0  0  0  0  0  0  0  0  0  0  0  0
   40.6061   24.0040   32.9586 H   0  0  0  0  0  0  0  0  0  0  0  0
   42.3201   22.8441   34.2843 H   0  0  0  0  0  0  0  0  0  0  0  0
   41.9069   22.3720   36.6948 H   0  0  0  0  0  0  0  0  0  0  0  0
   40.5429   22.4889   38.5605 H   0  0  0  0  0  0  0  0  0  0  0  0
   38.4544   23.1445   39.6867 H   0  0  0  0  0  0  0  0  0  0  0  0
   36.7004   24.3370   38.3118 H   0  0  0  0  0  0  0  0  0  0  0  0
   37.1110   24.7945   35.9574 H   0  0  0  0  0  0  0  0  0  0  0  0
   36.7308   28.8327   31.1437 H   0  0  0  0  0  0  0  0  0  0  0  0
   37.0190   31.5505   35.6322 H   0  0  0  0  0  0  0  0  0  0  0  0
   35.5192   32.8105   37.5251 H   0  0  0  0  0  0  0  0  0  0  0  0
   33.0065   31.9548   37.1681 H   0  0  0  0  0  0  0  0  0  0  0  0
  1  2  2  0
  1  6  1  0
  2  3  1  0
  3 17  1  0
  3  4  2  0
  5  4  1  0
  5  7  1  0
  6  5  2  0
  7 16  1  0
  8  7  2  0
  8  9  1  0
  9 10  2  0
 10 11  1  0
 11 12  2  0
 12 13  1  0
 14 13  2  0
 15 14  1  0
 16 15  2  0
 16 11  1  0
 17 21  1  0
 18 19  2  0
 18 17  1  0
 19 20  1  0
 20 21  2  0
 20 22  1  0
 22 26  1  0
 22 23  2  0
 23 24  1  0
 25 24  2  0
 26 25  1  0
  1 27  1  0
  2 28  1  0
  8 29  1  0
  9 30  1  0
 10 31  1  0
 12 32  1  0
 13 33  1  0
 14 34  1  0
 15 35  1  0
 18 36  1  0
 23 37  1  0
 24 38  1  0
 25 39  1  0
M  ISO  8  27  14  28  14  29  14  30  14  31  14  32  14  33  14  34  14
M  ISO  5  35  14  36  14  37  14  38  14  39  14
M  END
>  <minimizedAffinity>  (1) 
-6.75529957

>  <minimizedRMSD>  (1) 
1.96050608

$$$$
