
     RDKit          3D

 34 37  0  0  0  0  0  0  0  0999 V2000
   38.2900   26.4700   35.3740 C   0  0  0  0  0  0  0  0  0  0  0  0
   38.8650   27.2680   36.1760 O   0  0  0  0  0  0  0  0  0  0  0  0
   37.8670   23.2610   37.1480 C   0  0  0  0  0  0  0  0  0  0  0  0
   38.0360   24.6520   36.9080 C   0  0  0  0  0  0  0  0  0  0  0  0
   38.1200   25.0660   35.5910 C   0  0  0  0  0  0  0  0  0  0  0  0
   38.0380   24.1380   34.5900 N   0  0  0  0  0  0  0  0  0  0  0  0
   37.8780   22.8310   34.8670 C   0  0  0  0  0  0  0  0  0  0  0  0
   37.7950   22.4140   36.1330 N   0  0  0  0  0  0  0  0  0  0  0  0
   37.7870   21.8170   33.8220 C   0  0  0  0  0  0  0  0  0  0  0  0
   38.7650   21.3140   32.9830 C   0  0  0  0  0  0  0  0  0  0  0  0
   38.1190   20.3700   32.1860 C   0  0  0  0  0  0  0  0  0  0  0  0
   36.8060   20.3350   32.5620 N   0  0  0  0  0  0  0  0  0  0  0  0
   36.6090   21.2140   33.5540 N   0  0  0  0  0  0  0  0  0  0  0  0
   36.4570   28.1590   32.7750 N   0  0  0  0  0  0  0  0  0  0  0  0
   36.5900   27.7150   34.0160 N   0  0  0  0  0  0  0  0  0  0  0  0
   37.7850   27.0890   34.1540 C   0  0  0  0  0  0  0  0  0  0  0  0
   38.3890   27.1710   32.9190 C   0  0  0  0  0  0  0  0  0  0  0  0
   37.5500   27.8410   32.0680 C   0  0  0  0  0  0  0  0  0  0  0  0
   37.9190   28.0850   30.6750 C   0  0  0  0  0  0  0  0  0  0  0  0
   39.0060   27.4340   30.1330 C   0  0  0  0  0  0  0  0  0  0  0  0
   39.4520   27.5840   28.8290 C   0  0  0  0  0  0  0  0  0  0  0  0
   38.7540   28.4390   28.0450 N   0  0  0  0  0  0  0  0  0  0  0  0
   37.6920   29.0820   28.5540 C   0  0  0  0  0  0  0  0  0  0  0  0
   37.2590   28.9300   29.8400 N   0  0  0  0  0  0  0  0  0  0  0  0
   37.7958   22.8873   38.1801 H   0  0  0  0  0  0  0  0  0  0  0  0
   38.0976   25.3714   37.7379 H   0  0  0  0  0  0  0  0  0  0  0  0
   39.8271   21.5985   32.9514 H   0  0  0  0  0  0  0  0  0  0  0  0
   38.5834   19.7620   31.3957 H   0  0  0  0  0  0  0  0  0  0  0  0
   36.0826   19.7293   32.1487 H   0  0  0  0  0  0  0  0  0  0  0  0
   35.6402   28.6695   32.4101 H   0  0  0  0  0  0  0  0  0  0  0  0
   39.3785   26.7666   32.6595 H   0  0  0  0  0  0  0  0  0  0  0  0
   39.5617   26.7432   30.7842 H   0  0  0  0  0  0  0  0  0  0  0  0
   40.3279   27.0365   28.4508 H   0  0  0  0  0  0  0  0  0  0  0  0
   37.1389   29.7705   27.8982 H   0  0  0  0  0  0  0  0  0  0  0  0
  1  5  1  0
  1  2  2  0
  4  3  2  0
  5  4  1  0
  6  7  1  0
  6  5  2  0
  7  8  2  0
  8  3  1  0
  9  7  1  0
 10  9  1  0
 11 12  1  0
 11 10  2  0
 12 13  1  0
 13  9  2  0
 14 15  1  0
 15 16  2  0
 16  1  1  0
 17 16  1  0
 18 14  1  0
 18 17  2  0
 19 18  1  0
 20 19  2  0
 21 20  1  0
 22 23  1  0
 22 21  2  0
 23 24  2  0
 24 19  1  0
  3 25  1  0
  4 26  1  0
 10 27  1  0
 11 28  1  0
 12 29  1  0
 14 30  1  0
 17 31  1  0
 20 32  1  0
 21 33  1  0
 23 34  1  0
M  ISO  8  25  14  26  14  27  14  28  14  29   9  30   9  31  14  32  14
M  ISO  2  33  14  34  14
M  END
>  <minimizedAffinity>  (1) 
-5.20606136

>  <minimizedRMSD>  (1) 
5.55573416

$$$$
