
     RDKit          3D

 34 37  0  0  0  0  0  0  0  0999 V2000
   37.7260   25.0310   32.8840 N   0  0  0  0  0  0  0  0  0  0  0  0
   38.1760   24.0230   33.6110 N   0  0  0  0  0  0  0  0  0  0  0  0
   38.1690   24.3480   34.9130 C   0  0  0  0  0  0  0  0  0  0  0  0
   37.6810   25.6480   34.9870 C   0  0  0  0  0  0  0  0  0  0  0  0
   37.4100   26.0530   33.6940 C   0  0  0  0  0  0  0  0  0  0  0  0
   36.8750   27.3870   33.4290 C   0  0  0  0  0  0  0  0  0  0  0  0
   36.3780   28.1380   34.4740 C   0  0  0  0  0  0  0  0  0  0  0  0
   35.8370   29.4210   34.3400 C   0  0  0  0  0  0  0  0  0  0  0  0
   35.8110   29.9360   33.0880 N   0  0  0  0  0  0  0  0  0  0  0  0
   36.2920   29.2160   32.0670 C   0  0  0  0  0  0  0  0  0  0  0  0
   36.8190   27.9630   32.2040 N   0  0  0  0  0  0  0  0  0  0  0  0
   38.5930   23.4990   36.0380 C   0  0  0  0  0  0  0  0  0  0  0  0
   37.6430   23.0730   36.7750 O   0  0  0  0  0  0  0  0  0  0  0  0
   41.6490   21.6920   37.0150 C   0  0  0  0  0  0  0  0  0  0  0  0
   40.2850   21.9920   36.8170 C   0  0  0  0  0  0  0  0  0  0  0  0
   39.9800   23.2180   36.2280 C   0  0  0  0  0  0  0  0  0  0  0  0
   40.9800   24.0600   35.8730 N   0  0  0  0  0  0  0  0  0  0  0  0
   42.2750   23.7260   36.0850 C   0  0  0  0  0  0  0  0  0  0  0  0
   42.5820   22.5500   36.6500 N   0  0  0  0  0  0  0  0  0  0  0  0
   43.3300   24.6610   35.6880 C   0  0  0  0  0  0  0  0  0  0  0  0
   44.3320   25.1450   36.4700 C   0  0  0  0  0  0  0  0  0  0  0  0
   45.0810   25.9930   35.6640 C   0  0  0  0  0  0  0  0  0  0  0  0
   44.4800   25.9800   34.4080 C   0  0  0  0  0  0  0  0  0  0  0  0
   43.4640   25.1820   34.4920 O   0  0  0  0  0  0  0  0  0  0  0  0
   37.6327   25.0318   31.8582 H   0  0  0  0  0  0  0  0  0  0  0  0
   37.5378   26.2417   35.9019 H   0  0  0  0  0  0  0  0  0  0  0  0
   36.4093   27.6978   35.4816 H   0  0  0  0  0  0  0  0  0  0  0  0
   35.4533   29.9814   35.2053 H   0  0  0  0  0  0  0  0  0  0  0  0
   36.2612   29.6585   31.0604 H   0  0  0  0  0  0  0  0  0  0  0  0
   41.9366   20.7360   37.4769 H   0  0  0  0  0  0  0  0  0  0  0  0
   39.4946   21.2875   37.1151 H   0  0  0  0  0  0  0  0  0  0  0  0
   44.5132   24.9115   37.5295 H   0  0  0  0  0  0  0  0  0  0  0  0
   45.9740   26.5631   35.9600 H   0  0  0  0  0  0  0  0  0  0  0  0
   44.8051   26.5388   33.5180 H   0  0  0  0  0  0  0  0  0  0  0  0
  1  2  1  0
  1  5  1  0
  2  3  2  0
  3  4  1  0
  3 12  1  0
  5  4  2  0
  6  5  1  0
  6  7  2  0
  8  7  1  0
  9  8  2  0
 10 11  2  0
 10  9  1  0
 11  6  1  0
 12 16  1  0
 12 13  2  0
 15 14  2  0
 16 15  1  0
 17 18  1  0
 17 16  2  0
 18 19  2  0
 19 14  1  0
 20 18  1  0
 20 21  2  0
 22 21  1  0
 23 24  1  0
 23 22  2  0
 24 20  1  0
  1 25  1  0
  4 26  1  0
  7 27  1  0
  8 28  1  0
 10 29  1  0
 14 30  1  0
 15 31  1  0
 21 32  1  0
 22 33  1  0
 23 34  1  0
M  ISO  8  25   9  26  14  27  14  28  14  29  14  30  14  31  14  32  14
M  ISO  2  33  14  34  14
M  END
>  <minimizedAffinity>  (1) 
-4.9658246

>  <minimizedRMSD>  (1) 
2.3417089

$$$$
