
     RDKit          3D

 29 31  0  0  0  0  0  0  0  0999 V2000
   36.6440   26.8340   32.6650 N   0  0  0  0  0  0  0  0  0  0  0  0
   37.3390   25.8600   33.2330 N   0  0  0  0  0  0  0  0  0  0  0  0
   37.5710   26.1460   34.5240 C   0  0  0  0  0  0  0  0  0  0  0  0
   36.9740   27.3780   34.7530 C   0  0  0  0  0  0  0  0  0  0  0  0
   36.3960   27.7900   33.5650 C   0  0  0  0  0  0  0  0  0  0  0  0
   35.6860   29.0650   33.4990 C   0  0  0  0  0  0  0  0  0  0  0  0
   35.6900   29.9230   34.5780 C   0  0  0  0  0  0  0  0  0  0  0  0
   35.0420   31.1500   34.6010 C   0  0  0  0  0  0  0  0  0  0  0  0
   34.3700   31.5110   33.4900 N   0  0  0  0  0  0  0  0  0  0  0  0
   34.3560   30.6860   32.4250 C   0  0  0  0  0  0  0  0  0  0  0  0
   34.9910   29.4780   32.3960 N   0  0  0  0  0  0  0  0  0  0  0  0
   38.3060   25.3200   35.4890 C   0  0  0  0  0  0  0  0  0  0  0  0
   37.5980   24.8330   36.4280 O   0  0  0  0  0  0  0  0  0  0  0  0
   41.5690   23.6240   35.4560 C   0  0  0  0  0  0  0  0  0  0  0  0
   40.1880   23.8430   35.6100 C   0  0  0  0  0  0  0  0  0  0  0  0
   39.7170   25.1170   35.3250 C   0  0  0  0  0  0  0  0  0  0  0  0
   40.5770   26.0920   34.9180 N   0  0  0  0  0  0  0  0  0  0  0  0
   41.8890   25.8240   34.7880 C   0  0  0  0  0  0  0  0  0  0  0  0
   42.3740   24.6120   35.0530 N   0  0  0  0  0  0  0  0  0  0  0  0
   42.7150   26.8980   34.3560 N   0  0  0  0  0  0  0  0  0  0  0  0
   36.3412   26.8518   31.6807 H   0  0  0  0  0  0  0  0  0  0  0  0
   36.9624   27.9273   35.7060 H   0  0  0  0  0  0  0  0  0  0  0  0
   36.2421   29.6154   35.4783 H   0  0  0  0  0  0  0  0  0  0  0  0
   35.0754   31.7999   35.4879 H   0  0  0  0  0  0  0  0  0  0  0  0
   33.8022   31.0034   31.5292 H   0  0  0  0  0  0  0  0  0  0  0  0
   41.9903   22.6305   35.6692 H   0  0  0  0  0  0  0  0  0  0  0  0
   39.5121   23.0409   35.9413 H   0  0  0  0  0  0  0  0  0  0  0  0
   43.7280   26.7534   34.2381 H   0  0  0  0  0  0  0  0  0  0  0  0
   42.3003   27.8204   34.1610 H   0  0  0  0  0  0  0  0  0  0  0  0
  1  2  1  0
  1  5  1  0
  2  3  2  0
  3  4  1  0
  3 12  1  0
  5  4  2  0
  6  5  1  0
  6  7  2  0
  7  8  1  0
  9  8  2  0
 10  9  1  0
 11 10  2  0
 11  6  1  0
 12 13  2  0
 14 15  2  0
 16 12  1  0
 16 15  1  0
 17 16  2  0
 18 17  1  0
 18 19  2  0
 19 14  1  0
 20 18  1  0
  1 21  1  0
  4 22  1  0
  7 23  1  0
  8 24  1  0
 10 25  1  0
 14 26  1  0
 15 27  1  0
 20 28  1  0
 20 29  1  0
M  ISO  7  21   9  22  14  23  14  24  14  25  14  26  14  27  14
M  END
>  <minimizedAffinity>  (1) 
-4.49615955

>  <minimizedRMSD>  (1) 
0.0383119732

$$$$
