
     RDKit          3D

 30 32  0  0  0  0  0  0  0  0999 V2000
   36.5800   26.8340   32.6590 N   0  0  0  0  0  0  0  0  0  0  0  0
   37.2860   25.8610   33.2140 N   0  0  0  0  0  0  0  0  0  0  0  0
   37.5620   26.1710   34.5120 C   0  0  0  0  0  0  0  0  0  0  0  0
   36.9820   27.4010   34.7320 C   0  0  0  0  0  0  0  0  0  0  0  0
   36.3710   27.7970   33.5520 C   0  0  0  0  0  0  0  0  0  0  0  0
   35.6670   29.0750   33.4860 C   0  0  0  0  0  0  0  0  0  0  0  0
   35.6820   29.9260   34.5700 C   0  0  0  0  0  0  0  0  0  0  0  0
   35.0400   31.1670   34.6090 C   0  0  0  0  0  0  0  0  0  0  0  0
   34.3630   31.5380   33.4970 N   0  0  0  0  0  0  0  0  0  0  0  0
   34.3400   30.7170   32.4360 C   0  0  0  0  0  0  0  0  0  0  0  0
   34.9670   29.5040   32.3980 N   0  0  0  0  0  0  0  0  0  0  0  0
   38.3200   25.3450   35.4490 C   0  0  0  0  0  0  0  0  0  0  0  0
   37.6320   24.8420   36.3910 O   0  0  0  0  0  0  0  0  0  0  0  0
   41.6350   23.7250   35.5080 C   0  0  0  0  0  0  0  0  0  0  0  0
   40.2500   23.9380   35.6830 C   0  0  0  0  0  0  0  0  0  0  0  0
   39.7280   25.1620   35.2580 C   0  0  0  0  0  0  0  0  0  0  0  0
   40.5520   26.0920   34.7000 N   0  0  0  0  0  0  0  0  0  0  0  0
   41.8750   25.8380   34.5550 C   0  0  0  0  0  0  0  0  0  0  0  0
   42.3830   24.6790   34.9550 N   0  0  0  0  0  0  0  0  0  0  0  0
   42.6130   26.9740   33.9250 C   0  0  0  0  0  0  0  0  0  0  0  0
   36.2443   26.8436   31.6853 H   0  0  0  0  0  0  0  0  0  0  0  0
   37.0003   27.9674   35.6748 H   0  0  0  0  0  0  0  0  0  0  0  0
   36.2366   29.6071   35.4648 H   0  0  0  0  0  0  0  0  0  0  0  0
   35.0828   31.8108   35.4999 H   0  0  0  0  0  0  0  0  0  0  0  0
   33.7833   31.0398   31.5439 H   0  0  0  0  0  0  0  0  0  0  0  0
   42.0936   22.7772   35.8263 H   0  0  0  0  0  0  0  0  0  0  0  0
   39.6069   23.1695   36.1366 H   0  0  0  0  0  0  0  0  0  0  0  0
   43.0324   27.6195   34.7108 H   0  0  0  0  0  0  0  0  0  0  0  0
   43.4282   26.5801   33.3002 H   0  0  0  0  0  0  0  0  0  0  0  0
   41.9218   27.5587   33.3002 H   0  0  0  0  0  0  0  0  0  0  0  0
  1  2  1  0
  1  5  1  0
  2  3  2  0
  3  4  1  0
  3 12  1  0
  5  4  2  0
  6  5  1  0
  6  7  2  0
  7  8  1  0
  9  8  2  0
 10  9  1  0
 11 10  2  0
 11  6  1  0
 12 13  2  0
 14 15  2  0
 16 12  1  0
 16 15  1  0
 17 16  2  0
 18 17  1  0
 18 19  2  0
 19 14  1  0
 20 18  1  0
  1 21  1  0
  4 22  1  0
  7 23  1  0
  8 24  1  0
 10 25  1  0
 14 26  1  0
 15 27  1  0
 20 28  1  0
 20 29  1  0
 20 30  1  0
M  ISO  8  21   9  22  14  23  14  24  14  25  14  26  14  27  14  28   8
M  ISO  2  29   8  30   8
M  END
>  <minimizedAffinity>  (1) 
-4.28047276

>  <minimizedRMSD>  (1) 
0.128620937

$$$$
