
     RDKit          3D

 17 18  0  0  0  0  0  0  0  0999 V2000
   38.4500   24.7770   36.4680 C   0  0  0  0  0  0  0  0  0  0  0  0
   39.5090   24.0440   35.8730 C   0  0  0  0  0  0  0  0  0  0  0  0
   40.0830   23.0170   36.6340 C   0  0  0  0  0  0  0  0  0  0  0  0
   39.5970   22.7810   37.8890 N   0  0  0  0  0  0  0  0  0  0  0  0
   38.5880   23.5060   38.4100 C   0  0  0  0  0  0  0  0  0  0  0  0
   38.0180   24.4950   37.7090 N   0  0  0  0  0  0  0  0  0  0  0  0
   37.8370   25.8700   35.6590 C   0  0  0  0  0  0  0  0  0  0  0  0
   38.2850   27.2800   35.8910 C   0  0  0  0  0  0  0  0  0  0  0  0
   38.6040   26.5970   34.6260 C   0  0  0  0  0  0  0  0  0  0  0  0
   39.8644   24.2722   34.8573 H   0  0  0  0  0  0  0  0  0  0  0  0
   40.9083   22.4129   36.2292 H   0  0  0  0  0  0  0  0  0  0  0  0
   38.2273   23.2827   39.4249 H   0  0  0  0  0  0  0  0  0  0  0  0
   36.8814   25.3252   35.6603 H   0  0  0  0  0  0  0  0  0  0  0  0
   37.5483   28.0968   35.9056 H   0  0  0  0  0  0  0  0  0  0  0  0
   38.8691   27.7947   36.6681 H   0  0  0  0  0  0  0  0  0  0  0  0
   39.6420   26.3050   34.4084 H   0  0  0  0  0  0  0  0  0  0  0  0
   38.4414   26.8265   33.5626 H   0  0  0  0  0  0  0  0  0  0  0  0
  1  6  1  0
  2  1  2  0
  2  3  1  0
  3  4  2  0
  4  5  1  0
  6  5  2  0
  7  8  1  0
  7  1  1  0
  9  7  1  0
  9  8  1  0
  2 10  1  0
  3 11  1  0
  5 12  1  0
  7 13  1  0
  8 14  1  0
  8 15  1  0
  9 16  1  0
  9 17  1  0
M  ISO  8  10  14  11  14  12  14  13  13  14  13  15  13  16  13  17  13
M  END
>  <minimizedAffinity>  (1) 
-3.28879786

>  <minimizedRMSD>  (1) 
4.33587313

$$$$
