
     RDKit          3D

 31 34  0  0  1  0  0  0  0  0999 V2000
   37.9080   25.8800   35.7920 C   0  0  1  0  0  0  0  0  0  0  0  0
   38.4620   27.2650   36.0550 C   0  0  0  0  0  0  0  0  0  0  0  0
   38.6410   26.5890   34.7480 C   0  0  2  0  0  0  0  0  0  0  0  0
   38.0300   27.1990   33.5720 C   0  0  0  0  0  0  0  0  0  0  0  0
   38.6420   26.9080   32.3680 C   0  0  0  0  0  0  0  0  0  0  0  0
   37.9760   27.5070   31.3550 N   0  0  0  0  0  0  0  0  0  0  0  0
   36.9220   28.1970   31.8820 C   0  0  0  0  0  0  0  0  0  0  0  0
   35.8930   28.9940   31.4280 C   0  0  0  0  0  0  0  0  0  0  0  0
   34.9810   29.5430   32.3350 C   0  0  0  0  0  0  0  0  0  0  0  0
   35.0540   29.3260   33.6970 C   0  0  0  0  0  0  0  0  0  0  0  0
   36.0850   28.5260   34.1680 C   0  0  0  0  0  0  0  0  0  0  0  0
   36.9640   28.0010   33.2470 C   0  0  0  0  0  0  0  0  0  0  0  0
   38.4910   24.7400   36.5430 C   0  0  0  0  0  0  0  0  0  0  0  0
   39.5350   23.9900   35.9130 C   0  0  0  0  0  0  0  0  0  0  0  0
   40.0900   22.9240   36.6380 C   0  0  0  0  0  0  0  0  0  0  0  0
   39.6040   22.6760   37.8800 N   0  0  0  0  0  0  0  0  0  0  0  0
   38.6130   23.4150   38.4380 C   0  0  0  0  0  0  0  0  0  0  0  0
   38.0620   24.4360   37.7750 N   0  0  0  0  0  0  0  0  0  0  0  0
   36.9250   25.3871   35.8199 H   0  0  0  0  0  0  0  0  0  0  0  0
   37.7833   28.1259   36.1459 H   0  0  0  0  0  0  0  0  0  0  0  0
   39.1267   27.7183   36.8051 H   0  0  0  0  0  0  0  0  0  0  0  0
   39.4809   26.2759   34.1103 H   0  0  0  0  0  0  0  0  0  0  0  0
   39.5386   26.2816   32.2508 H   0  0  0  0  0  0  0  0  0  0  0  0
   38.2218   27.4522   30.3563 H   0  0  0  0  0  0  0  0  0  0  0  0
   35.7892   29.1982   30.3521 H   0  0  0  0  0  0  0  0  0  0  0  0
   34.1695   30.1758   31.9464 H   0  0  0  0  0  0  0  0  0  0  0  0
   34.3202   29.7720   34.3845 H   0  0  0  0  0  0  0  0  0  0  0  0
   36.1967   28.3178   35.2423 H   0  0  0  0  0  0  0  0  0  0  0  0
   39.8880   24.2391   34.9014 H   0  0  0  0  0  0  0  0  0  0  0  0
   40.8953   22.3078   36.2117 H   0  0  0  0  0  0  0  0  0  0  0  0
   38.2580   23.1706   39.4501 H   0  0  0  0  0  0  0  0  0  0  0  0
  1  2  1  0
  1 13  1  0
  3  1  1  0
  3  2  1  0
  4  3  1  0
  5  4  2  0
  6  7  1  0
  6  5  1  0
  7 12  2  0
  8  7  1  0
  8  9  2  0
  9 10  1  0
 10 11  2  0
 12  4  1  0
 12 11  1  0
 13 18  1  0
 14 13  2  0
 14 15  1  0
 15 16  2  0
 16 17  1  0
 18 17  2  0
  1 19  1  6
  2 20  1  0
  2 21  1  0
  3 22  1  6
  5 23  1  0
  6 24  1  0
  8 25  1  0
  9 26  1  0
 10 27  1  0
 11 28  1  0
 14 29  1  0
 15 30  1  0
 17 31  1  0
M  ISO  8  19  13  20  13  21  13  22  13  23  14  24   9  25  14  26  14
M  ISO  5  27  14  28  14  29  14  30  14  31  14
M  END
>  <minimizedAffinity>  (1) 
-5.41970587

>  <minimizedRMSD>  (1) 
0.238337323

$$$$
