
     RDKit          3D

 33 35  0  0  1  0  0  0  0  0999 V2000
   37.7700   25.8090   35.7850 C   0  0  1  0  0  0  0  0  0  0  0  0
   38.2890   27.2230   35.9650 C   0  0  0  0  0  0  0  0  0  0  0  0
   38.4010   26.5060   34.6700 C   0  0  2  0  0  0  0  0  0  0  0  0
   38.4460   24.7100   36.5250 C   0  0  0  0  0  0  0  0  0  0  0  0
   39.5150   23.9990   35.8910 C   0  0  0  0  0  0  0  0  0  0  0  0
   40.1250   22.9870   36.6230 C   0  0  0  0  0  0  0  0  0  0  0  0
   39.6810   22.7260   37.8910 N   0  0  0  0  0  0  0  0  0  0  0  0
   38.6630   23.4260   38.4530 C   0  0  0  0  0  0  0  0  0  0  0  0
   38.0440   24.4180   37.7720 N   0  0  0  0  0  0  0  0  0  0  0  0
   37.6240   26.9200   33.4670 C   0  0  0  0  0  0  0  0  0  0  0  0
   36.6360   27.9840   33.7960 C   0  0  0  0  0  0  0  0  0  0  0  0
   35.8070   28.4030   32.5990 C   0  0  0  0  0  0  0  0  0  0  0  0
   36.6540   28.5700   31.3600 C   0  0  0  0  0  0  0  0  0  0  0  0
   37.6090   27.4480   31.1120 C   0  0  0  0  0  0  0  0  0  0  0  0
   38.5390   27.3760   32.3310 C   0  0  0  0  0  0  0  0  0  0  0  0
   36.8099   25.2848   35.9008 H   0  0  0  0  0  0  0  0  0  0  0  0
   37.5866   28.0622   36.0759 H   0  0  0  0  0  0  0  0  0  0  0  0
   38.9866   27.7256   36.6510 H   0  0  0  0  0  0  0  0  0  0  0  0
   39.2384   26.2759   33.9948 H   0  0  0  0  0  0  0  0  0  0  0  0
   39.8395   24.2431   34.8687 H   0  0  0  0  0  0  0  0  0  0  0  0
   40.9518   22.4049   36.1899 H   0  0  0  0  0  0  0  0  0  0  0  0
   38.3370   23.1838   39.4753 H   0  0  0  0  0  0  0  0  0  0  0  0
   37.0730   26.0321   33.1233 H   0  0  0  0  0  0  0  0  0  0  0  0
   35.9600   27.6069   34.5775 H   0  0  0  0  0  0  0  0  0  0  0  0
   37.1986   28.8662   34.1355 H   0  0  0  0  0  0  0  0  0  0  0  0
   35.0442   27.6340   32.4076 H   0  0  0  0  0  0  0  0  0  0  0  0
   35.3421   29.3732   32.8283 H   0  0  0  0  0  0  0  0  0  0  0  0
   35.9829   28.6493   30.4921 H   0  0  0  0  0  0  0  0  0  0  0  0
   37.2626   29.4733   31.5139 H   0  0  0  0  0  0  0  0  0  0  0  0
   37.0596   26.5017   30.9990 H   0  0  0  0  0  0  0  0  0  0  0  0
   38.1827   27.6162   30.1886 H   0  0  0  0  0  0  0  0  0  0  0  0
   39.3472   26.6488   32.1639 H   0  0  0  0  0  0  0  0  0  0  0  0
   39.0330   28.3354   32.5442 H   0  0  0  0  0  0  0  0  0  0  0  0
  1  2  1  0
  1  4  1  0
  3  1  1  0
  3  2  1  0
  4  9  1  0
  5  4  2  0
  5  6  1  0
  6  7  2  0
  7  8  1  0
  9  8  2  0
 10 11  1  0
 10  3  1  0
 12 11  1  0
 13 12  1  0
 14 13  1  0
 14 15  1  0
 15 10  1  0
  1 16  1  6
  2 17  1  0
  2 18  1  0
  3 19  1  6
  5 20  1  0
  6 21  1  0
  8 22  1  0
 10 23  1  0
 11 24  1  0
 11 25  1  0
 12 26  1  0
 12 27  1  0
 13 28  1  0
 13 29  1  0
 14 30  1  0
 14 31  1  0
 15 32  1  0
 15 33  1  0
M  ISO  8  16  13  17  13  18  13  19  13  20  14  21  14  22  14  23  13
M  ISO  8  24  13  25  13  26  13  27  13  28  13  29  13  30  13  31  13
M  ISO  2  32  13  33  13
M  END
>  <minimizedAffinity>  (1) 
-4.84357643

>  <minimizedRMSD>  (1) 
0.430940539

$$$$
