
     RDKit          3D

 25 27  0  0  1  0  0  0  0  0999 V2000
   37.6640   25.7450   35.8720 C   0  0  1  0  0  0  0  0  0  0  0  0
   38.2690   27.1370   35.8680 C   0  0  0  0  0  0  0  0  0  0  0  0
   38.1930   26.3210   34.6380 C   0  0  2  0  0  0  0  0  0  0  0  0
   38.3840   24.6810   36.6180 C   0  0  0  0  0  0  0  0  0  0  0  0
   39.4370   24.0010   35.9480 C   0  0  0  0  0  0  0  0  0  0  0  0
   40.1260   22.9940   36.6560 C   0  0  0  0  0  0  0  0  0  0  0  0
   39.7360   22.7370   37.9480 N   0  0  0  0  0  0  0  0  0  0  0  0
   38.7190   23.4260   38.5310 C   0  0  0  0  0  0  0  0  0  0  0  0
   38.0530   24.3830   37.8770 N   0  0  0  0  0  0  0  0  0  0  0  0
   37.2800   26.7600   33.5310 C   0  0  0  0  0  0  0  0  0  0  0  0
   36.6910   28.0040   33.6190 C   0  0  0  0  0  0  0  0  0  0  0  0
   35.8510   28.3920   32.5900 C   0  0  0  0  0  0  0  0  0  0  0  0
   35.6180   27.5730   31.5270 N   0  0  0  0  0  0  0  0  0  0  0  0
   36.2190   26.3570   31.4800 C   0  0  0  0  0  0  0  0  0  0  0  0
   37.0480   25.9590   32.4870 N   0  0  0  0  0  0  0  0  0  0  0  0
   36.7012   25.2848   36.1388 H   0  0  0  0  0  0  0  0  0  0  0  0
   37.6259   28.0214   35.9873 H   0  0  0  0  0  0  0  0  0  0  0  0
   39.0672   27.6502   36.4243 H   0  0  0  0  0  0  0  0  0  0  0  0
   38.9208   25.9644   33.8943 H   0  0  0  0  0  0  0  0  0  0  0  0
   39.7059   24.2518   34.9113 H   0  0  0  0  0  0  0  0  0  0  0  0
   40.9487   22.4328   36.1888 H   0  0  0  0  0  0  0  0  0  0  0  0
   38.4370   23.1898   39.5677 H   0  0  0  0  0  0  0  0  0  0  0  0
   36.8823   28.6648   34.4773 H   0  0  0  0  0  0  0  0  0  0  0  0
   35.3638   29.3774   32.6312 H   0  0  0  0  0  0  0  0  0  0  0  0
   36.0365   25.6891   30.6253 H   0  0  0  0  0  0  0  0  0  0  0  0
  1  4  1  0
  2  1  1  0
  3  2  1  0
  3  1  1  0
  4  9  1  0
  5  4  2  0
  5  6  1  0
  6  7  2  0
  7  8  1  0
  9  8  2  0
 10 11  2  0
 10  3  1  0
 12 11  1  0
 13 12  2  0
 14 13  1  0
 14 15  2  0
 15 10  1  0
  1 16  1  6
  2 17  1  0
  2 18  1  0
  3 19  1  6
  5 20  1  0
  6 21  1  0
  8 22  1  0
 11 23  1  0
 12 24  1  0
 14 25  1  0
M  ISO  8  16  13  17  13  18  13  19  13  20  14  21  14  22  14  23  14
M  ISO  2  24  14  25  14
M  END
>  <minimizedAffinity>  (1) 
-4.61369133

>  <minimizedRMSD>  (1) 
0.627861261

$$$$
