
     RDKit          3D

 26 28  0  0  1  0  0  0  0  0999 V2000
   37.5580   25.9720   35.4650 C   0  0  1  0  0  0  0  0  0  0  0  0
   38.2570   27.2020   35.9450 C   0  0  0  0  0  0  0  0  0  0  0  0
   38.0430   26.9180   34.5170 C   0  0  1  0  0  0  0  0  0  0  0  0
   38.1230   24.6470   35.7790 C   0  0  0  0  0  0  0  0  0  0  0  0
   38.2610   23.7640   34.6680 C   0  0  0  0  0  0  0  0  0  0  0  0
   38.7990   22.5070   34.8930 C   0  0  0  0  0  0  0  0  0  0  0  0
   39.1640   22.1850   36.1600 N   0  0  0  0  0  0  0  0  0  0  0  0
   39.0240   23.0310   37.1870 C   0  0  0  0  0  0  0  0  0  0  0  0
   38.5100   24.2420   36.9910 N   0  0  0  0  0  0  0  0  0  0  0  0
   39.2950   27.0250   33.7830 C   0  0  0  0  0  0  0  0  0  0  0  0
   40.5230   27.0070   34.4530 C   0  0  0  0  0  0  0  0  0  0  0  0
   41.7260   27.0960   33.7850 C   0  0  0  0  0  0  0  0  0  0  0  0
   41.7260   27.2070   32.4120 C   0  0  0  0  0  0  0  0  0  0  0  0
   40.5190   27.2230   31.7690 C   0  0  0  0  0  0  0  0  0  0  0  0
   39.3770   27.1350   32.4560 N   0  0  0  0  0  0  0  0  0  0  0  0
   36.5766   25.4871   35.5731 H   0  0  0  0  0  0  0  0  0  0  0  0
   37.6934   28.0041   36.4440 H   0  0  0  0  0  0  0  0  0  0  0  0
   39.1214   27.4225   36.5886 H   0  0  0  0  0  0  0  0  0  0  0  0
   37.5094   27.2369   33.6095 H   0  0  0  0  0  0  0  0  0  0  0  0
   37.9488   24.0724   33.6593 H   0  0  0  0  0  0  0  0  0  0  0  0
   38.9266   21.7905   34.0682 H   0  0  0  0  0  0  0  0  0  0  0  0
   39.3349   22.7241   38.1965 H   0  0  0  0  0  0  0  0  0  0  0  0
   40.5291   26.9189   35.5494 H   0  0  0  0  0  0  0  0  0  0  0  0
   42.6744   27.0786   34.3419 H   0  0  0  0  0  0  0  0  0  0  0  0
   42.6685   27.2806   31.8496 H   0  0  0  0  0  0  0  0  0  0  0  0
   40.4884   27.3094   30.6728 H   0  0  0  0  0  0  0  0  0  0  0  0
  1  4  1  0
  1  2  1  0
  3  1  1  0
  3  2  1  0
  4  9  2  0
  5  6  2  0
  5  4  1  0
  6  7  1  0
  7  8  2  0
  9  8  1  0
 10 11  2  0
 10  3  1  0
 12 11  1  0
 13 12  2  0
 14 13  1  0
 14 15  2  0
 15 10  1  0
  1 16  1  1
  2 17  1  0
  2 18  1  0
  3 19  1  6
  5 20  1  0
  6 21  1  0
  8 22  1  0
 11 23  1  0
 12 24  1  0
 13 25  1  0
 14 26  1  0
M  ISO  8  16  13  17  13  18  13  19  13  20  14  21  14  22  14  23  14
M  ISO  3  24  14  25  14  26  14
M  END
>  <minimizedAffinity>  (1) 
-4.26036596

>  <minimizedRMSD>  (1) 
1.33174932

$$$$
