
     RDKit          3D

 30 33  0  0  1  0  0  0  0  0999 V2000
   37.6180   25.9850   35.5490 C   0  0  1  0  0  0  0  0  0  0  0  0
   38.3290   27.1390   36.2100 C   0  0  0  0  0  0  0  0  0  0  0  0
   38.1990   27.0430   34.7350 C   0  0  1  0  0  0  0  0  0  0  0  0
   38.1680   24.6220   35.7000 C   0  0  0  0  0  0  0  0  0  0  0  0
   38.1690   23.8300   34.5390 C   0  0  0  0  0  0  0  0  0  0  0  0
   38.6840   22.5410   34.5920 C   0  0  0  0  0  0  0  0  0  0  0  0
   39.1710   22.1110   35.7980 N   0  0  0  0  0  0  0  0  0  0  0  0
   39.1540   22.9070   36.8990 C   0  0  0  0  0  0  0  0  0  0  0  0
   38.6590   24.1430   36.8430 N   0  0  0  0  0  0  0  0  0  0  0  0
   39.4780   27.0040   34.0680 N   0  0  0  0  0  0  0  0  0  0  0  0
   40.6320   26.8030   34.7780 C   0  0  0  0  0  0  0  0  0  0  0  0
   41.7140   26.7890   34.0010 N   0  0  0  0  0  0  0  0  0  0  0  0
   41.3070   26.9830   32.7480 C   0  0  0  0  0  0  0  0  0  0  0  0
   41.8470   27.0860   31.4620 C   0  0  0  0  0  0  0  0  0  0  0  0
   41.0800   27.2950   30.3720 N   0  0  0  0  0  0  0  0  0  0  0  0
   39.7370   27.4160   30.4810 C   0  0  0  0  0  0  0  0  0  0  0  0
   39.2070   27.3200   31.7070 N   0  0  0  0  0  0  0  0  0  0  0  0
   39.9380   27.1110   32.8110 C   0  0  0  0  0  0  0  0  0  0  0  0
   43.2660   26.9550   31.3700 N   0  0  0  0  0  0  0  0  0  0  0  0
   36.6181   25.5268   35.5640 H   0  0  0  0  0  0  0  0  0  0  0  0
   37.7585   27.8952   36.7692 H   0  0  0  0  0  0  0  0  0  0  0  0
   39.1599   27.2488   36.9224 H   0  0  0  0  0  0  0  0  0  0  0  0
   37.7513   27.5796   33.8855 H   0  0  0  0  0  0  0  0  0  0  0  0
   37.7653   24.2276   33.5961 H   0  0  0  0  0  0  0  0  0  0  0  0
   38.7001   21.8930   33.7032 H   0  0  0  0  0  0  0  0  0  0  0  0
   39.5545   22.5258   37.8500 H   0  0  0  0  0  0  0  0  0  0  0  0
   40.6620   26.6680   35.8693 H   0  0  0  0  0  0  0  0  0  0  0  0
   39.1050   27.5866   29.5970 H   0  0  0  0  0  0  0  0  0  0  0  0
   43.7309   27.0204   30.4532 H   0  0  0  0  0  0  0  0  0  0  0  0
   43.8246   26.7951   32.2204 H   0  0  0  0  0  0  0  0  0  0  0  0
  1  4  1  0
  1  2  1  0
  3  1  1  0
  3  2  1  0
  4  9  2  0
  5  6  2  0
  5  4  1  0
  6  7  1  0
  7  8  2  0
  9  8  1  0
 10  3  1  0
 10 11  1  0
 12 11  2  0
 13 18  2  0
 13 12  1  0
 14 13  1  0
 15 16  1  0
 15 14  2  0
 16 17  2  0
 17 18  1  0
 18 10  1  0
 19 14  1  0
  1 20  1  1
  2 21  1  0
  2 22  1  0
  3 23  1  6
  5 24  1  0
  6 25  1  0
  8 26  1  0
 11 27  1  0
 16 28  1  0
 19 29  1  0
 19 30  1  0
M  ISO  8  20  13  21  13  22  13  23  13  24  14  25  14  26  14  27  14
M  ISO  1  28  14
M  END
>  <minimizedAffinity>  (1) 
-4.19559336

>  <minimizedRMSD>  (1) 
1.71286726

$$$$
