
     RDKit          3D

 37 41  0  0  0  0  0  0  0  0999 V2000
   36.8140   24.5420   31.8810 C   0  0  0  0  0  0  0  0  0  0  0  0
   36.2990   25.8320   31.9240 C   0  0  0  0  0  0  0  0  0  0  0  0
   36.8080   26.6290   32.9340 C   0  0  0  0  0  0  0  0  0  0  0  0
   37.7180   26.1130   33.7490 N   0  0  0  0  0  0  0  0  0  0  0  0
   38.2160   24.8920   33.7200 C   0  0  0  0  0  0  0  0  0  0  0  0
   37.7280   24.1420   32.7610 N   0  0  0  0  0  0  0  0  0  0  0  0
   39.1970   24.2140   34.5390 C   0  0  0  0  0  0  0  0  0  0  0  0
   40.4160   23.7920   34.0250 C   0  0  0  0  0  0  0  0  0  0  0  0
   41.3790   23.1460   34.7580 C   0  0  0  0  0  0  0  0  0  0  0  0
   41.1680   22.8760   36.0980 C   0  0  0  0  0  0  0  0  0  0  0  0
   39.9880   23.2710   36.6450 C   0  0  0  0  0  0  0  0  0  0  0  0
   39.7740   23.0030   37.9850 C   0  0  0  0  0  0  0  0  0  0  0  0
   38.6200   23.3610   38.6220 C   0  0  0  0  0  0  0  0  0  0  0  0
   37.6550   24.0160   37.8640 C   0  0  0  0  0  0  0  0  0  0  0  0
   37.9030   24.2630   36.5400 C   0  0  0  0  0  0  0  0  0  0  0  0
   39.0440   23.9160   35.8860 C   0  0  0  0  0  0  0  0  0  0  0  0
   36.3820   27.9730   33.1100 N   0  0  0  0  0  0  0  0  0  0  0  0
   36.3980   28.9460   32.1870 C   0  0  0  0  0  0  0  0  0  0  0  0
   35.9290   30.0720   32.6920 N   0  0  0  0  0  0  0  0  0  0  0  0
   35.6040   29.8270   33.9690 C   0  0  0  0  0  0  0  0  0  0  0  0
   35.8920   28.5290   34.2000 N   0  0  0  0  0  0  0  0  0  0  0  0
   35.0470   30.6350   35.0470 C   0  0  0  0  0  0  0  0  0  0  0  0
   33.8120   30.8800   35.5160 N   0  0  0  0  0  0  0  0  0  0  0  0
   33.8720   31.6990   36.5260 O   0  0  0  0  0  0  0  0  0  0  0  0
   35.1430   32.0040   36.7380 C   0  0  0  0  0  0  0  0  0  0  0  0
   35.9050   31.3520   35.8250 N   0  0  0  0  0  0  0  0  0  0  0  0
   36.4612   23.8423   31.1090 H   0  0  0  0  0  0  0  0  0  0  0  0
   35.5442   26.1921   31.2095 H   0  0  0  0  0  0  0  0  0  0  0  0
   40.6226   23.9882   32.9625 H   0  0  0  0  0  0  0  0  0  0  0  0
   42.3213   22.8420   34.2788 H   0  0  0  0  0  0  0  0  0  0  0  0
   41.9293   22.3591   36.7006 H   0  0  0  0  0  0  0  0  0  0  0  0
   40.5585   22.4848   38.5561 H   0  0  0  0  0  0  0  0  0  0  0  0
   38.4607   23.1409   39.6879 H   0  0  0  0  0  0  0  0  0  0  0  0
   36.7057   24.3312   38.3217 H   0  0  0  0  0  0  0  0  0  0  0  0
   37.1221   24.7800   35.9631 H   0  0  0  0  0  0  0  0  0  0  0  0
   36.7526   28.8229   31.1530 H   0  0  0  0  0  0  0  0  0  0  0  0
   35.5186   32.6751   37.5245 H   0  0  0  0  0  0  0  0  0  0  0  0
  1  2  2  0
  1  6  1  0
  2  3  1  0
  3 17  1  0
  3  4  2  0
  5  4  1  0
  5  7  1  0
  6  5  2  0
  7 16  1  0
  8  7  2  0
  8  9  1  0
  9 10  2  0
 10 11  1  0
 11 12  2  0
 12 13  1  0
 14 13  2  0
 15 14  1  0
 16 15  2  0
 16 11  1  0
 17 21  1  0
 18 19  2  0
 18 17  1  0
 19 20  1  0
 20 21  2  0
 20 22  1  0
 22 23  2  0
 22 26  1  0
 23 24  1  0
 24 25  1  0
 26 25  2  0
  1 27  1  0
  2 28  1  0
  8 29  1  0
  9 30  1  0
 10 31  1  0
 12 32  1  0
 13 33  1  0
 14 34  1  0
 15 35  1  0
 18 36  1  0
 25 37  1  0
M  ISO  8  27  14  28  14  29  14  30  14  31  14  32  14  33  14  34  14
M  ISO  3  35  14  36  14  37  14
M  END
>  <minimizedAffinity>  (1) 
-6.46107626

>  <minimizedRMSD>  (1) 
1.94802237

$$$$
