
     RDKit          3D

 19 20  0  0  1  0  0  0  0  0999 V2000
   37.9330   25.8950   35.5600 C   0  0  1  0  0  0  0  0  0  0  0  0
   38.2110   27.3200   35.9440 C   0  0  0  0  0  0  0  0  0  0  0  0
   38.7910   26.7060   34.7200 C   0  0  1  0  0  0  0  0  0  0  0  0
   38.3960   24.8040   36.4450 C   0  0  0  0  0  0  0  0  0  0  0  0
   39.3140   23.8770   35.8740 C   0  0  0  0  0  0  0  0  0  0  0  0
   39.8020   22.8380   36.6600 C   0  0  0  0  0  0  0  0  0  0  0  0
   39.3550   22.7850   37.9550 N   0  0  0  0  0  0  0  0  0  0  0  0
   38.4860   23.6840   38.4570 C   0  0  0  0  0  0  0  0  0  0  0  0
   38.0070   24.6830   37.7200 N   0  0  0  0  0  0  0  0  0  0  0  0
   40.2760   26.7460   34.7620 C   0  0  0  0  0  0  0  0  0  0  0  0
   41.4810   26.5770   34.6720 O   0  0  0  0  0  0  0  0  0  0  0  0
   37.0532   25.2729   35.3387 H   0  0  0  0  0  0  0  0  0  0  0  0
   37.4213   28.0814   35.8627 H   0  0  0  0  0  0  0  0  0  0  0  0
   38.6061   27.8357   36.8317 H   0  0  0  0  0  0  0  0  0  0  0  0
   38.7779   26.7979   33.6239 H   0  0  0  0  0  0  0  0  0  0  0  0
   39.6327   23.9810   34.8263 H   0  0  0  0  0  0  0  0  0  0  0  0
   40.5107   22.0965   36.2625 H   0  0  0  0  0  0  0  0  0  0  0  0
   38.1638   23.5896   39.5045 H   0  0  0  0  0  0  0  0  0  0  0  0
   40.3417   27.6806   35.3384 H   0  0  0  0  0  0  0  0  0  0  0  0
  1  2  1  0
  1  4  1  0
  3 10  1  0
  3  1  1  0
  3  2  1  0
  4  9  1  0
  5  4  2  0
  5  6  1  0
  6  7  2  0
  7  8  1  0
  9  8  2  0
 11 10  2  0
  1 12  1  6
  2 13  1  0
  2 14  1  0
  3 15  1  6
  5 16  1  0
  6 17  1  0
  8 18  1  0
 10 19  1  0
M  ISO  8  12  13  13  13  14  13  15  13  16  14  17  14  18  14  19   6
M  END
>  <minimizedAffinity>  (1) 
-3.6013577

>  <minimizedRMSD>  (1) 
0.32388556

$$$$
