
     RDKit          3D

 18 19  0  0  1  0  0  0  0  0999 V2000
   38.3890   24.7020   36.5770 C   0  0  0  0  0  0  0  0  0  0  0  0
   39.4370   24.0190   35.9250 C   0  0  0  0  0  0  0  0  0  0  0  0
   40.1150   23.0030   36.6300 C   0  0  0  0  0  0  0  0  0  0  0  0
   39.7060   22.7460   37.9150 N   0  0  0  0  0  0  0  0  0  0  0  0
   38.6870   23.4420   38.4870 C   0  0  0  0  0  0  0  0  0  0  0  0
   38.0290   24.4140   37.8260 N   0  0  0  0  0  0  0  0  0  0  0  0
   37.7120   25.7500   35.7850 C   0  0  1  0  0  0  0  0  0  0  0  0
   38.2420   27.1660   35.8550 C   0  0  0  0  0  0  0  0  0  0  0  0
   38.2640   26.3840   34.5930 C   0  0  2  0  0  0  0  0  0  0  0  0
   37.3670   26.8110   33.5890 O   0  0  0  0  0  0  0  0  0  0  0  0
   39.7184   24.2726   34.8923 H   0  0  0  0  0  0  0  0  0  0  0  0
   40.9389   22.4388   36.1685 H   0  0  0  0  0  0  0  0  0  0  0  0
   38.3916   23.2042   39.5196 H   0  0  0  0  0  0  0  0  0  0  0  0
   36.7651   25.2225   35.9725 H   0  0  0  0  0  0  0  0  0  0  0  0
   37.5494   28.0126   35.9712 H   0  0  0  0  0  0  0  0  0  0  0  0
   38.9860   27.6999   36.4645 H   0  0  0  0  0  0  0  0  0  0  0  0
   39.0395   26.0866   33.8718 H   0  0  0  0  0  0  0  0  0  0  0  0
   36.5584   27.1959   34.0109 H   0  0  0  0  0  0  0  0  0  0  0  0
  1  6  1  0
  2  1  2  0
  2  3  1  0
  3  4  2  0
  4  5  1  0
  6  5  2  0
  7  8  1  0
  7  1  1  0
  9  7  1  0
  9  8  1  0
 10  9  1  0
  2 11  1  0
  3 12  1  0
  5 13  1  0
  7 14  1  6
  8 15  1  0
  8 16  1  0
  9 17  1  6
 10 18  1  0
M  ISO  8  11  14  12  14  13  14  14  13  15  13  16  13  17  13  18   3
M  END
>  <minimizedAffinity>  (1) 
-3.42960715

>  <minimizedRMSD>  (1) 
0.248715684

$$$$
