
     RDKit          3D

 19 20  0  0  1  0  0  0  0  0999 V2000
   37.8450   25.8720   35.6610 C   0  0  1  0  0  0  0  0  0  0  0  0
   38.3650   27.2750   35.9100 C   0  0  0  0  0  0  0  0  0  0  0  0
   38.5780   26.5820   34.6180 C   0  0  2  0  0  0  0  0  0  0  0  0
   38.4470   24.7730   36.4570 C   0  0  0  0  0  0  0  0  0  0  0  0
   39.5200   24.0390   35.8600 C   0  0  0  0  0  0  0  0  0  0  0  0
   40.1020   23.0070   36.6260 C   0  0  0  0  0  0  0  0  0  0  0  0
   39.6070   22.7780   37.8800 N   0  0  0  0  0  0  0  0  0  0  0  0
   38.5840   23.5130   38.3920 C   0  0  0  0  0  0  0  0  0  0  0  0
   38.0150   24.4920   37.6930 N   0  0  0  0  0  0  0  0  0  0  0  0
   37.9160   27.1450   33.4680 N   0  0  0  0  0  0  0  0  0  0  0  0
   36.8758   25.3519   35.6722 H   0  0  0  0  0  0  0  0  0  0  0  0
   37.6663   28.1220   35.9767 H   0  0  0  0  0  0  0  0  0  0  0  0
   39.0082   27.7551   36.6622 H   0  0  0  0  0  0  0  0  0  0  0  0
   39.4415   26.2916   34.0016 H   0  0  0  0  0  0  0  0  0  0  0  0
   39.8767   24.2698   34.8453 H   0  0  0  0  0  0  0  0  0  0  0  0
   40.9303   22.4038   36.2259 H   0  0  0  0  0  0  0  0  0  0  0  0
   38.2188   23.2935   39.4061 H   0  0  0  0  0  0  0  0  0  0  0  0
   37.1681   27.7810   33.7796 H   0  0  0  0  0  0  0  0  0  0  0  0
   38.5982   27.6688   32.9013 H   0  0  0  0  0  0  0  0  0  0  0  0
  1  2  1  0
  1  4  1  0
  3  1  1  0
  3  2  1  0
  4  9  1  0
  5  4  2  0
  5  6  1  0
  6  7  2  0
  7  8  1  0
  9  8  2  0
 10  3  1  0
  1 11  1  6
  2 12  1  0
  2 13  1  0
  3 14  1  6
  5 15  1  0
  6 16  1  0
  8 17  1  0
 10 18  1  0
 10 19  1  0
M  ISO  8  11  13  12  13  13  13  14  13  15  14  16  14  17  14  18   5
M  ISO  1  19   5
M  END
>  <minimizedAffinity>  (1) 
-3.40605593

>  <minimizedRMSD>  (1) 
0.0202081408

$$$$
