
     RDKit          3D

 29 30  0  0  1  0  0  0  0  0999 V2000
   37.7750   25.7300   35.7300 C   0  0  1  0  0  0  0  0  0  0  0  0
   38.2720   27.1530   35.8990 C   0  0  0  0  0  0  0  0  0  0  0  0
   38.4310   26.4120   34.6260 C   0  0  2  0  0  0  0  0  0  0  0  0
   38.4460   24.6690   36.5310 C   0  0  0  0  0  0  0  0  0  0  0  0
   39.5340   23.9650   35.9230 C   0  0  0  0  0  0  0  0  0  0  0  0
   40.1680   22.9780   36.6970 C   0  0  0  0  0  0  0  0  0  0  0  0
   39.7150   22.7470   37.9730 N   0  0  0  0  0  0  0  0  0  0  0  0
   38.6750   23.4560   38.4850 C   0  0  0  0  0  0  0  0  0  0  0  0
   38.0440   24.4010   37.7870 N   0  0  0  0  0  0  0  0  0  0  0  0
   37.7120   26.8860   33.3950 C   0  0  0  0  0  0  0  0  0  0  0  0
   36.9300   25.7160   32.7900 C   0  0  0  0  0  0  0  0  0  0  0  0
   36.6720   27.9500   33.6760 C   0  0  0  0  0  0  0  0  0  0  0  0
   38.5960   27.4010   32.3100 C   0  0  0  0  0  0  0  0  0  0  0  0
   36.8202   25.1905   35.8154 H   0  0  0  0  0  0  0  0  0  0  0  0
   37.5573   27.9861   35.9712 H   0  0  0  0  0  0  0  0  0  0  0  0
   38.9421   27.6775   36.5960 H   0  0  0  0  0  0  0  0  0  0  0  0
   39.2733   26.1305   33.9770 H   0  0  0  0  0  0  0  0  0  0  0  0
   39.8593   24.1866   34.8958 H   0  0  0  0  0  0  0  0  0  0  0  0
   41.0111   22.4014   36.2887 H   0  0  0  0  0  0  0  0  0  0  0  0
   38.3418   23.2429   39.5115 H   0  0  0  0  0  0  0  0  0  0  0  0
   36.5152   25.0954   33.5980 H   0  0  0  0  0  0  0  0  0  0  0  0
   36.1099   26.1053   32.1688 H   0  0  0  0  0  0  0  0  0  0  0  0
   37.6033   25.1071   32.1688 H   0  0  0  0  0  0  0  0  0  0  0  0
   36.5547   28.0700   34.7631 H   0  0  0  0  0  0  0  0  0  0  0  0
   36.9952   28.9043   33.2345 H   0  0  0  0  0  0  0  0  0  0  0  0
   35.7106   27.6487   33.2345 H   0  0  0  0  0  0  0  0  0  0  0  0
   39.4653   27.9075   32.7547 H   0  0  0  0  0  0  0  0  0  0  0  0
   38.9395   26.5617   31.6875 H   0  0  0  0  0  0  0  0  0  0  0  0
   38.0353   28.1138   31.6875 H   0  0  0  0  0  0  0  0  0  0  0  0
  1  2  1  0
  1  4  1  0
  3  1  1  0
  3  2  1  0
  4  9  1  0
  5  4  2  0
  5  6  1  0
  6  7  2  0
  7  8  1  0
  9  8  2  0
 10 12  1  0
 10  3  1  0
 11 10  1  0
 13 10  1  0
  1 14  1  6
  2 15  1  0
  2 16  1  0
  3 17  1  6
  5 18  1  0
  6 19  1  0
  8 20  1  0
 11 21  1  0
 11 22  1  0
 11 23  1  0
 12 24  1  0
 12 25  1  0
 12 26  1  0
 13 27  1  0
 13 28  1  0
 13 29  1  0
M  ISO  8  14  13  15  13  16  13  17  13  18  14  19  14  20  14  21   8
M  ISO  8  22   8  23   8  24   8  25   8  26   8  27   8  28   8  29   8
M  END
>  <minimizedAffinity>  (1) 
-4.29336691

>  <minimizedRMSD>  (1) 
0.245223954

$$$$
