
     RDKit          3D

 35 38  0  0  0  0  0  0  0  0999 V2000
   36.7960   24.2910   31.8800 C   0  0  0  0  0  0  0  0  0  0  0  0
   36.2610   25.5750   31.9060 C   0  0  0  0  0  0  0  0  0  0  0  0
   36.7740   26.3920   32.8960 C   0  0  0  0  0  0  0  0  0  0  0  0
   37.7020   25.9010   33.7080 N   0  0  0  0  0  0  0  0  0  0  0  0
   38.2180   24.7010   33.7000 C   0  0  0  0  0  0  0  0  0  0  0  0
   37.7290   23.9220   32.7570 N   0  0  0  0  0  0  0  0  0  0  0  0
   39.2210   24.0500   34.5180 C   0  0  0  0  0  0  0  0  0  0  0  0
   40.4290   23.6120   33.9980 C   0  0  0  0  0  0  0  0  0  0  0  0
   41.4070   22.9890   34.7390 C   0  0  0  0  0  0  0  0  0  0  0  0
   41.2070   22.7720   36.0880 C   0  0  0  0  0  0  0  0  0  0  0  0
   40.0470   23.1780   36.6490 C   0  0  0  0  0  0  0  0  0  0  0  0
   39.8630   22.9530   37.9960 C   0  0  0  0  0  0  0  0  0  0  0  0
   38.7210   23.3320   38.6420 C   0  0  0  0  0  0  0  0  0  0  0  0
   37.7350   23.9640   37.8770 C   0  0  0  0  0  0  0  0  0  0  0  0
   37.9620   24.1680   36.5350 C   0  0  0  0  0  0  0  0  0  0  0  0
   39.0920   23.7980   35.8780 C   0  0  0  0  0  0  0  0  0  0  0  0
   36.3240   27.7230   33.0430 N   0  0  0  0  0  0  0  0  0  0  0  0
   35.9070   28.5560   32.0790 C   0  0  0  0  0  0  0  0  0  0  0  0
   35.5590   29.7300   32.5890 N   0  0  0  0  0  0  0  0  0  0  0  0
   35.7530   29.6610   33.9030 C   0  0  0  0  0  0  0  0  0  0  0  0
   36.2210   28.4270   34.1700 N   0  0  0  0  0  0  0  0  0  0  0  0
   35.5160   30.7110   34.9470 C   0  0  0  0  0  0  0  0  0  0  0  0
   36.4860   30.6600   35.9090 F   0  0  0  0  0  0  0  0  0  0  0  0
   35.5760   31.9870   34.3850 F   0  0  0  0  0  0  0  0  0  0  0  0
   34.2930   30.5890   35.5510 F   0  0  0  0  0  0  0  0  0  0  0  0
   36.4444   23.5713   31.1260 H   0  0  0  0  0  0  0  0  0  0  0  0
   35.4918   25.9128   31.1960 H   0  0  0  0  0  0  0  0  0  0  0  0
   40.6176   23.7724   32.9262 H   0  0  0  0  0  0  0  0  0  0  0  0
   42.3427   22.6657   34.2595 H   0  0  0  0  0  0  0  0  0  0  0  0
   41.9790   22.2770   36.6954 H   0  0  0  0  0  0  0  0  0  0  0  0
   40.6591   22.4536   38.5676 H   0  0  0  0  0  0  0  0  0  0  0  0
   38.5825   23.1482   39.7177 H   0  0  0  0  0  0  0  0  0  0  0  0
   36.7932   24.2927   38.3407 H   0  0  0  0  0  0  0  0  0  0  0  0
   37.1724   24.6660   35.9531 H   0  0  0  0  0  0  0  0  0  0  0  0
   35.8598   28.3006   31.0101 H   0  0  0  0  0  0  0  0  0  0  0  0
  1  2  2  0
  1  6  1  0
  2  3  1  0
  3 17  1  0
  3  4  2  0
  5  4  1  0
  5  7  1  0
  6  5  2  0
  7 16  1  0
  8  7  2  0
  8  9  1  0
  9 10  2  0
 10 11  1  0
 11 12  2  0
 12 13  1  0
 14 13  2  0
 15 14  1  0
 16 15  2  0
 16 11  1  0
 17 21  1  0
 18 19  2  0
 18 17  1  0
 19 20  1  0
 20 21  2  0
 20 22  1  0
 22 25  1  0
 22 23  1  0
 24 22  1  0
  1 26  1  0
  2 27  1  0
  8 28  1  0
  9 29  1  0
 10 30  1  0
 12 31  1  0
 13 32  1  0
 14 33  1  0
 15 34  1  0
 18 35  1  0
M  ISO  8  26  14  27  14  28  14  29  14  30  14  31  14  32  14  33  14
M  ISO  2  34  14  35  14
M  END
>  <minimizedAffinity>  (1) 
-6.32725573

>  <minimizedRMSD>  (1) 
1.54374695

$$$$
