
     RDKit          3D

 42 44  0  0  1  0  0  0  0  0999 V2000
   37.8960   26.7590   33.3340 C   0  0  0  0  0  0  0  0  0  0  0  0
   37.7850   25.6340   35.6880 C   0  0  1  0  0  0  0  0  0  0  0  0
   38.2410   27.0800   35.8720 C   0  0  0  0  0  0  0  0  0  0  0  0
   38.4960   26.3130   34.6390 C   0  0  2  0  0  0  0  0  0  0  0  0
   38.4160   24.6150   36.5750 C   0  0  0  0  0  0  0  0  0  0  0  0
   39.5020   23.8400   36.0260 C   0  0  0  0  0  0  0  0  0  0  0  0
   40.1000   22.8890   36.8690 C   0  0  0  0  0  0  0  0  0  0  0  0
   39.6130   22.7600   38.1550 N   0  0  0  0  0  0  0  0  0  0  0  0
   38.5840   23.5290   38.5990 C   0  0  0  0  0  0  0  0  0  0  0  0
   37.9840   24.4460   37.8330 N   0  0  0  0  0  0  0  0  0  0  0  0
   37.0020   25.6200   32.8140 C   0  0  0  0  0  0  0  0  0  0  0  0
   36.9630   27.9390   33.4890 C   0  0  0  0  0  0  0  0  0  0  0  0
   38.8590   27.0450   32.2480 C   0  0  0  0  0  0  0  0  0  0  0  0
   38.4450   27.9810   31.2490 N   0  0  0  0  0  0  0  0  0  0  0  0
   37.2880   28.6720   31.4740 C   0  0  0  0  0  0  0  0  0  0  0  0
   36.7410   29.6170   30.6300 C   0  0  0  0  0  0  0  0  0  0  0  0
   35.4720   30.3000   30.9920 C   0  0  0  0  0  0  0  0  0  0  0  0
   37.4170   29.8880   29.4560 C   0  0  0  0  0  0  0  0  0  0  0  0
   36.9680   30.7390   28.6440 O   0  0  0  0  0  0  0  0  0  0  0  0
   38.5560   29.2080   29.2330 N   0  0  0  0  0  0  0  0  0  0  0  0
   39.0450   28.2980   30.0890 C   0  0  0  0  0  0  0  0  0  0  0  0
   40.1130   27.6850   29.8400 O   0  0  0  0  0  0  0  0  0  0  0  0
   36.8438   25.0647   35.6991 H   0  0  0  0  0  0  0  0  0  0  0  0
   37.5074   27.8996   35.8771 H   0  0  0  0  0  0  0  0  0  0  0  0
   38.8490   27.6338   36.6025 H   0  0  0  0  0  0  0  0  0  0  0  0
   39.3844   26.0260   34.0573 H   0  0  0  0  0  0  0  0  0  0  0  0
   39.8468   23.9875   34.9919 H   0  0  0  0  0  0  0  0  0  0  0  0
   40.9332   22.2642   36.5148 H   0  0  0  0  0  0  0  0  0  0  0  0
   38.2302   23.3912   39.6314 H   0  0  0  0  0  0  0  0  0  0  0  0
   36.5725   25.0728   33.6661 H   0  0  0  0  0  0  0  0  0  0  0  0
   36.1906   26.0409   32.2020 H   0  0  0  0  0  0  0  0  0  0  0  0
   37.6037   24.9319   32.2020 H   0  0  0  0  0  0  0  0  0  0  0  0
   36.8027   28.1417   34.5582 H   0  0  0  0  0  0  0  0  0  0  0  0
   37.4083   28.8239   33.0108 H   0  0  0  0  0  0  0  0  0  0  0  0
   35.9993   27.7097   33.0108 H   0  0  0  0  0  0  0  0  0  0  0  0
   39.7764   27.4369   32.7114 H   0  0  0  0  0  0  0  0  0  0  0  0
   38.9832   26.0909   31.7147 H   0  0  0  0  0  0  0  0  0  0  0  0
   36.7466   28.4568   32.4070 H   0  0  0  0  0  0  0  0  0  0  0  0
   35.3813   30.3488   32.0872 H   0  0  0  0  0  0  0  0  0  0  0  0
   35.4733   31.3193   30.5784 H   0  0  0  0  0  0  0  0  0  0  0  0
   34.6220   29.7375   30.5784 H   0  0  0  0  0  0  0  0  0  0  0  0
   39.0771   29.3947   28.3644 H   0  0  0  0  0  0  0  0  0  0  0  0
  1 12  1  0
  1  4  1  0
  2  3  1  0
  2  5  1  0
  4  2  1  0
  4  3  1  0
  5 10  1  0
  6  5  2  0
  6  7  1  0
  7  8  2  0
  8  9  1  0
 10  9  2  0
 11  1  1  0
 13  1  1  0
 14 15  1  0
 14 13  1  0
 16 17  1  0
 16 15  2  0
 18 16  1  0
 19 18  2  0
 20 18  1  0
 20 21  1  0
 21 14  1  0
 22 21  2  0
  2 23  1  6
  3 24  1  0
  3 25  1  0
  4 26  1  6
  6 27  1  0
  7 28  1  0
  9 29  1  0
 11 30  1  0
 11 31  1  0
 11 32  1  0
 12 33  1  0
 12 34  1  0
 12 35  1  0
 13 36  1  0
 13 37  1  0
 15 38  1  0
 17 39  1  0
 17 40  1  0
 17 41  1  0
 20 42  1  0
M  ISO  8  23  13  24  13  25  13  26  13  27  14  28  14  29  14  30   8
M  ISO  8  31   8  32   8  33   8  34   8  35   8  36   8  37   8  38  14
M  ISO  4  39   8  40   8  41   8  42   9
M  END
>  <minimizedAffinity>  (1) 
-5.20047998

>  <minimizedRMSD>  (1) 
1.42190957

$$$$
