
     RDKit          3D

 43 46  0  0  1  0  0  0  0  0999 V2000
   37.6540   26.9030   33.3960 C   0  0  0  0  0  0  0  0  0  0  0  0
   37.7440   25.7340   35.7350 C   0  0  1  0  0  0  0  0  0  0  0  0
   38.2700   27.1650   35.9080 C   0  0  0  0  0  0  0  0  0  0  0  0
   38.3600   26.4100   34.6250 C   0  0  2  0  0  0  0  0  0  0  0  0
   38.4160   24.6820   36.5290 C   0  0  0  0  0  0  0  0  0  0  0  0
   39.5180   23.9950   35.9000 C   0  0  0  0  0  0  0  0  0  0  0  0
   40.1760   23.0010   36.6450 C   0  0  0  0  0  0  0  0  0  0  0  0
   39.7280   22.7490   37.9250 N   0  0  0  0  0  0  0  0  0  0  0  0
   38.6750   23.4430   38.4520 C   0  0  0  0  0  0  0  0  0  0  0  0
   38.0350   24.3850   37.7740 N   0  0  0  0  0  0  0  0  0  0  0  0
   36.8470   25.7520   32.8150 C   0  0  0  0  0  0  0  0  0  0  0  0
   36.6060   27.9690   33.7260 C   0  0  0  0  0  0  0  0  0  0  0  0
   38.5000   27.4870   32.3390 C   0  0  0  0  0  0  0  0  0  0  0  0
   39.6790   26.7710   31.8920 C   0  0  0  0  0  0  0  0  0  0  0  0
   39.7610   25.9600   30.7500 C   0  0  0  0  0  0  0  0  0  0  0  0
   40.9940   25.4580   30.5880 N   0  0  0  0  0  0  0  0  0  0  0  0
   41.8000   25.8810   31.5740 C   0  0  0  0  0  0  0  0  0  0  0  0
   43.1130   25.7070   31.9440 C   0  0  0  0  0  0  0  0  0  0  0  0
   43.6860   26.2780   33.0590 C   0  0  0  0  0  0  0  0  0  0  0  0
   42.8710   27.0800   33.8530 C   0  0  0  0  0  0  0  0  0  0  0  0
   41.5550   27.2520   33.4770 C   0  0  0  0  0  0  0  0  0  0  0  0
   40.9960   26.6740   32.3570 C   0  0  0  0  0  0  0  0  0  0  0  0
   36.7896   25.1954   35.8303 H   0  0  0  0  0  0  0  0  0  0  0  0
   37.5715   28.0083   36.0123 H   0  0  0  0  0  0  0  0  0  0  0  0
   38.9723   27.6796   36.5803 H   0  0  0  0  0  0  0  0  0  0  0  0
   39.1658   26.1035   33.9419 H   0  0  0  0  0  0  0  0  0  0  0  0
   39.8318   24.2402   34.8746 H   0  0  0  0  0  0  0  0  0  0  0  0
   41.0223   22.4412   36.2202 H   0  0  0  0  0  0  0  0  0  0  0  0
   38.3468   23.2113   39.4760 H   0  0  0  0  0  0  0  0  0  0  0  0
   36.4250   25.1502   33.6334 H   0  0  0  0  0  0  0  0  0  0  0  0
   36.0308   26.1523   32.1957 H   0  0  0  0  0  0  0  0  0  0  0  0
   37.5016   25.1211   32.1957 H   0  0  0  0  0  0  0  0  0  0  0  0
   36.5117   28.0649   34.8177 H   0  0  0  0  0  0  0  0  0  0  0  0
   36.9171   28.9337   33.2987 H   0  0  0  0  0  0  0  0  0  0  0  0
   35.6362   27.6744   33.2987 H   0  0  0  0  0  0  0  0  0  0  0  0
   37.8581   27.6288   31.4571 H   0  0  0  0  0  0  0  0  0  0  0  0
   38.9102   28.3938   32.8075 H   0  0  0  0  0  0  0  0  0  0  0  0
   38.9184   25.7606   30.0716 H   0  0  0  0  0  0  0  0  0  0  0  0
   41.2810   24.8373   29.8178 H   0  0  0  0  0  0  0  0  0  0  0  0
   43.7466   25.0708   31.3086 H   0  0  0  0  0  0  0  0  0  0  0  0
   44.7430   26.1074   33.3113 H   0  0  0  0  0  0  0  0  0  0  0  0
   43.2666   27.5646   34.7578 H   0  0  0  0  0  0  0  0  0  0  0  0
   40.9147   27.8869   34.1070 H   0  0  0  0  0  0  0  0  0  0  0  0
  1 12  1  0
  1  4  1  0
  2  3  1  0
  2  5  1  0
  4  2  1  0
  4  3  1  0
  5 10  1  0
  6  5  2  0
  6  7  1  0
  7  8  2  0
  8  9  1  0
 10  9  2  0
 11  1  1  0
 13  1  1  0
 14 13  1  0
 14 22  1  0
 15 14  2  0
 16 15  1  0
 16 17  1  0
 17 18  2  0
 17 22  1  0
 18 19  1  0
 19 20  2  0
 21 20  1  0
 22 21  2  0
  2 23  1  6
  3 24  1  0
  3 25  1  0
  4 26  1  6
  6 27  1  0
  7 28  1  0
  9 29  1  0
 11 30  1  0
 11 31  1  0
 11 32  1  0
 12 33  1  0
 12 34  1  0
 12 35  1  0
 13 36  1  0
 13 37  1  0
 15 38  1  0
 16 39  1  0
 18 40  1  0
 19 41  1  0
 20 42  1  0
 21 43  1  0
M  ISO  8  23  13  24  13  25  13  26  13  27  14  28  14  29  14  30   8
M  ISO  8  31   8  32   8  33   8  34   8  35   8  36   8  37   8  38  14
M  ISO  5  39   9  40  14  41  14  42  14  43  14
M  END
>  <minimizedAffinity>  (1) 
-5.11843872

>  <minimizedRMSD>  (1) 
0.441648781

$$$$
