
     RDKit          3D

 36 38  0  0  1  0  0  0  0  0999 V2000
   37.7480   26.8790   33.4890 C   0  0  0  0  0  0  0  0  0  0  0  0
   37.7730   25.6900   35.8060 C   0  0  1  0  0  0  0  0  0  0  0  0
   38.2850   27.1200   36.0050 C   0  0  0  0  0  0  0  0  0  0  0  0
   38.4280   26.3910   34.7350 C   0  0  2  0  0  0  0  0  0  0  0  0
   38.4260   24.6360   36.6170 C   0  0  0  0  0  0  0  0  0  0  0  0
   39.5030   23.8970   36.0080 C   0  0  0  0  0  0  0  0  0  0  0  0
   40.1470   22.9030   36.7550 C   0  0  0  0  0  0  0  0  0  0  0  0
   39.7030   22.6920   38.0420 N   0  0  0  0  0  0  0  0  0  0  0  0
   38.6740   23.4300   38.5620 C   0  0  0  0  0  0  0  0  0  0  0  0
   38.0480   24.3790   37.8710 N   0  0  0  0  0  0  0  0  0  0  0  0
   37.0510   25.7070   32.8200 C   0  0  0  0  0  0  0  0  0  0  0  0
   36.6800   27.9110   33.7740 C   0  0  0  0  0  0  0  0  0  0  0  0
   38.6650   27.4550   32.4480 C   0  0  0  0  0  0  0  0  0  0  0  0
   37.9650   28.0990   31.3230 C   0  0  0  0  0  0  0  0  0  0  0  0
   37.9840   27.7940   29.9730 C   0  0  0  0  0  0  0  0  0  0  0  0
   37.1710   28.6700   29.2900 C   0  0  0  0  0  0  0  0  0  0  0  0
   36.6770   29.4940   30.2760 C   0  0  0  0  0  0  0  0  0  0  0  0
   37.1640   29.1240   31.4320 O   0  0  0  0  0  0  0  0  0  0  0  0
   36.8212   25.1411   35.8583 H   0  0  0  0  0  0  0  0  0  0  0  0
   37.5783   27.9586   36.0901 H   0  0  0  0  0  0  0  0  0  0  0  0
   38.9597   27.6313   36.7074 H   0  0  0  0  0  0  0  0  0  0  0  0
   39.2697   26.1123   34.0840 H   0  0  0  0  0  0  0  0  0  0  0  0
   39.8137   24.1100   34.9745 H   0  0  0  0  0  0  0  0  0  0  0  0
   40.9740   22.3144   36.3313 H   0  0  0  0  0  0  0  0  0  0  0  0
   38.3512   23.2300   39.5944 H   0  0  0  0  0  0  0  0  0  0  0  0
   36.6492   25.0315   33.5896 H   0  0  0  0  0  0  0  0  0  0  0  0
   36.2275   26.0795   32.1930 H   0  0  0  0  0  0  0  0  0  0  0  0
   37.7714   25.1613   32.1930 H   0  0  0  0  0  0  0  0  0  0  0  0
   36.5616   28.0254   34.8616 H   0  0  0  0  0  0  0  0  0  0  0  0
   36.9749   28.8750   33.3338 H   0  0  0  0  0  0  0  0  0  0  0  0
   35.7267   27.5833   33.3338 H   0  0  0  0  0  0  0  0  0  0  0  0
   39.3079   28.2058   32.9307 H   0  0  0  0  0  0  0  0  0  0  0  0
   39.2370   26.6147   32.0277 H   0  0  0  0  0  0  0  0  0  0  0  0
   38.5607   26.9765   29.5158 H   0  0  0  0  0  0  0  0  0  0  0  0
   36.9645   28.7037   28.2101 H   0  0  0  0  0  0  0  0  0  0  0  0
   35.9821   30.3317   30.1166 H   0  0  0  0  0  0  0  0  0  0  0  0
  1 12  1  0
  1  4  1  0
  2  3  1  0
  2  5  1  0
  4  2  1  0
  4  3  1  0
  5 10  1  0
  6  5  2  0
  6  7  1  0
  7  8  2  0
  8  9  1  0
 10  9  2  0
 11  1  1  0
 13  1  1  0
 14 18  1  0
 14 13  1  0
 15 14  2  0
 16 15  1  0
 16 17  2  0
 17 18  1  0
  2 19  1  6
  3 20  1  0
  3 21  1  0
  4 22  1  6
  6 23  1  0
  7 24  1  0
  9 25  1  0
 11 26  1  0
 11 27  1  0
 11 28  1  0
 12 29  1  0
 12 30  1  0
 12 31  1  0
 13 32  1  0
 13 33  1  0
 15 34  1  0
 16 35  1  0
 17 36  1  0
M  ISO  8  19  13  20  13  21  13  22  13  23  14  24  14  25  14  26   8
M  ISO  8  27   8  28   8  29   8  30   8  31   8  32   8  33   8  34  14
M  ISO  2  35  14  36  14
M  END
>  <minimizedAffinity>  (1) 
-4.84471512

>  <minimizedRMSD>  (1) 
0.419922113

$$$$
