
     RDKit          3D

 39 41  0  0  1  0  0  0  0  0999 V2000
   37.8240   26.8380   33.4160 C   0  0  0  0  0  0  0  0  0  0  0  0
   37.7560   25.6560   35.7290 C   0  0  1  0  0  0  0  0  0  0  0  0
   38.2150   27.1030   35.9530 C   0  0  0  0  0  0  0  0  0  0  0  0
   38.4440   26.3780   34.6900 C   0  0  2  0  0  0  0  0  0  0  0  0
   38.4080   24.6300   36.5820 C   0  0  0  0  0  0  0  0  0  0  0  0
   39.5120   23.9000   36.0080 C   0  0  0  0  0  0  0  0  0  0  0  0
   40.1550   22.9350   36.8070 C   0  0  0  0  0  0  0  0  0  0  0  0
   39.6860   22.7520   38.0900 N   0  0  0  0  0  0  0  0  0  0  0  0
   38.6310   23.4840   38.5660 C   0  0  0  0  0  0  0  0  0  0  0  0
   38.0090   24.3960   37.8340 N   0  0  0  0  0  0  0  0  0  0  0  0
   37.0290   25.6840   32.8060 C   0  0  0  0  0  0  0  0  0  0  0  0
   36.8100   27.9560   33.6300 C   0  0  0  0  0  0  0  0  0  0  0  0
   38.7560   27.2990   32.3560 C   0  0  0  0  0  0  0  0  0  0  0  0
   40.1730   26.9100   32.5680 C   0  0  0  0  0  0  0  0  0  0  0  0
   41.1060   27.4960   33.3950 C   0  0  0  0  0  0  0  0  0  0  0  0
   42.3860   27.0020   33.4800 C   0  0  0  0  0  0  0  0  0  0  0  0
   42.8180   25.9200   32.7680 C   0  0  0  0  0  0  0  0  0  0  0  0
   41.9070   25.3190   31.9360 C   0  0  0  0  0  0  0  0  0  0  0  0
   40.6040   25.8030   31.8350 C   0  0  0  0  0  0  0  0  0  0  0  0
   36.8210   25.0766   35.7298 H   0  0  0  0  0  0  0  0  0  0  0  0
   37.4801   27.9200   36.0017 H   0  0  0  0  0  0  0  0  0  0  0  0
   38.8377   27.6338   36.6881 H   0  0  0  0  0  0  0  0  0  0  0  0
   39.3258   26.1265   34.0824 H   0  0  0  0  0  0  0  0  0  0  0  0
   39.8419   24.0916   34.9763 H   0  0  0  0  0  0  0  0  0  0  0  0
   41.0015   22.3481   36.4209 H   0  0  0  0  0  0  0  0  0  0  0  0
   38.2869   23.3078   39.5958 H   0  0  0  0  0  0  0  0  0  0  0  0
   36.6034   25.0663   33.6106 H   0  0  0  0  0  0  0  0  0  0  0  0
   36.2161   26.0871   32.1842 H   0  0  0  0  0  0  0  0  0  0  0  0
   37.6953   25.0680   32.1842 H   0  0  0  0  0  0  0  0  0  0  0  0
   36.6639   28.1171   34.7083 H   0  0  0  0  0  0  0  0  0  0  0  0
   37.1825   28.8822   33.1681 H   0  0  0  0  0  0  0  0  0  0  0  0
   35.8519   27.6754   33.1681 H   0  0  0  0  0  0  0  0  0  0  0  0
   38.7050   28.3968   32.3077 H   0  0  0  0  0  0  0  0  0  0  0  0
   38.4345   26.8111   31.4240 H   0  0  0  0  0  0  0  0  0  0  0  0
   40.8225   28.3724   33.9963 H   0  0  0  0  0  0  0  0  0  0  0  0
   43.0966   27.5026   34.1542 H   0  0  0  0  0  0  0  0  0  0  0  0
   43.8490   25.5471   32.8572 H   0  0  0  0  0  0  0  0  0  0  0  0
   42.2090   24.4443   31.3414 H   0  0  0  0  0  0  0  0  0  0  0  0
   39.8965   25.2994   31.1598 H   0  0  0  0  0  0  0  0  0  0  0  0
  1 12  1  0
  1  4  1  0
  2  3  1  0
  2  5  1  0
  4  2  1  0
  4  3  1  0
  5 10  1  0
  6  5  2  0
  6  7  1  0
  7  8  2  0
  8  9  1  0
 10  9  2  0
 11  1  1  0
 13 14  1  0
 13  1  1  0
 14 15  2  0
 15 16  1  0
 17 16  2  0
 18 17  1  0
 19 18  2  0
 19 14  1  0
  2 20  1  6
  3 21  1  0
  3 22  1  0
  4 23  1  6
  6 24  1  0
  7 25  1  0
  9 26  1  0
 11 27  1  0
 11 28  1  0
 11 29  1  0
 12 30  1  0
 12 31  1  0
 12 32  1  0
 13 33  1  0
 13 34  1  0
 15 35  1  0
 16 36  1  0
 17 37  1  0
 18 38  1  0
 19 39  1  0
M  ISO  8  20  13  21  13  22  13  23  13  24  14  25  14  26  14  27   8
M  ISO  8  28   8  29   8  30   8  31   8  32   8  33   8  34   8  35  14
M  ISO  4  36  14  37  14  38  14  39  14
M  END
>  <minimizedAffinity>  (1) 
-4.79099274

>  <minimizedRMSD>  (1) 
1.30542088

$$$$
