
     RDKit          3D

 40 42  0  0  1  0  0  0  0  0999 V2000
   37.8170   26.8600   33.4020 C   0  0  0  0  0  0  0  0  0  0  0  0
   37.7600   25.6980   35.7340 C   0  0  1  0  0  0  0  0  0  0  0  0
   38.2620   27.1320   35.9210 C   0  0  0  0  0  0  0  0  0  0  0  0
   38.4430   26.3860   34.6640 C   0  0  2  0  0  0  0  0  0  0  0  0
   38.4330   24.6450   36.5560 C   0  0  0  0  0  0  0  0  0  0  0  0
   39.5230   23.9170   35.9640 C   0  0  0  0  0  0  0  0  0  0  0  0
   40.1530   22.9460   36.7520 C   0  0  0  0  0  0  0  0  0  0  0  0
   39.6960   22.7440   38.0340 N   0  0  0  0  0  0  0  0  0  0  0  0
   38.6510   23.4770   38.5290 C   0  0  0  0  0  0  0  0  0  0  0  0
   38.0200   24.4120   37.8190 N   0  0  0  0  0  0  0  0  0  0  0  0
   36.9840   25.7060   32.8030 C   0  0  0  0  0  0  0  0  0  0  0  0
   36.7690   27.9510   33.6380 C   0  0  0  0  0  0  0  0  0  0  0  0
   38.6880   27.3350   32.3190 C   0  0  0  0  0  0  0  0  0  0  0  0
   40.0390   26.8570   32.2750 N   0  0  0  0  0  0  0  0  0  0  0  0
   40.9460   27.5040   33.0660 C   0  0  0  0  0  0  0  0  0  0  0  0
   42.2900   27.2030   33.1350 C   0  0  0  0  0  0  0  0  0  0  0  0
   42.7750   26.1750   32.3580 C   0  0  0  0  0  0  0  0  0  0  0  0
   44.1260   25.7360   32.3090 N   0  0  0  0  0  0  0  0  0  0  0  0
   41.8840   25.5370   31.5800 N   0  0  0  0  0  0  0  0  0  0  0  0
   40.5830   25.8690   31.5470 C   0  0  0  0  0  0  0  0  0  0  0  0
   39.8140   25.2210   30.7970 O   0  0  0  0  0  0  0  0  0  0  0  0
   36.8042   25.1561   35.7870 H   0  0  0  0  0  0  0  0  0  0  0  0
   37.5501   27.9688   35.9745 H   0  0  0  0  0  0  0  0  0  0  0  0
   38.9165   27.6562   36.6329 H   0  0  0  0  0  0  0  0  0  0  0  0
   39.2981   26.0927   34.0373 H   0  0  0  0  0  0  0  0  0  0  0  0
   39.8491   24.1153   34.9323 H   0  0  0  0  0  0  0  0  0  0  0  0
   40.9939   22.3582   36.3553 H   0  0  0  0  0  0  0  0  0  0  0  0
   38.3170   23.2856   39.5594 H   0  0  0  0  0  0  0  0  0  0  0  0
   36.5507   25.1058   33.6166 H   0  0  0  0  0  0  0  0  0  0  0  0
   36.1757   26.1207   32.1828 H   0  0  0  0  0  0  0  0  0  0  0  0
   37.6322   25.0694   32.1828 H   0  0  0  0  0  0  0  0  0  0  0  0
   36.6288   28.0970   34.7192 H   0  0  0  0  0  0  0  0  0  0  0  0
   37.1104   28.8921   33.1822 H   0  0  0  0  0  0  0  0  0  0  0  0
   35.8149   27.6477   33.1822 H   0  0  0  0  0  0  0  0  0  0  0  0
   38.2110   27.0515   31.3692 H   0  0  0  0  0  0  0  0  0  0  0  0
   38.7876   28.4147   32.5041 H   0  0  0  0  0  0  0  0  0  0  0  0
   40.5762   28.3270   33.6952 H   0  0  0  0  0  0  0  0  0  0  0  0
   42.9600   27.7718   33.7964 H   0  0  0  0  0  0  0  0  0  0  0  0
   44.3915   24.9545   31.6928 H   0  0  0  0  0  0  0  0  0  0  0  0
   44.8395   26.1994   32.8897 H   0  0  0  0  0  0  0  0  0  0  0  0
  1 12  1  0
  1  4  1  0
  2  3  1  0
  2  5  1  0
  4  2  1  0
  4  3  1  0
  5 10  1  0
  6  5  2  0
  6  7  1  0
  7  8  2  0
  8  9  1  0
 10  9  2  0
 11  1  1  0
 13  1  1  0
 14 13  1  0
 14 15  1  0
 15 16  2  0
 17 16  1  0
 18 17  1  0
 19 17  2  0
 20 19  1  0
 20 14  1  0
 21 20  2  0
  2 22  1  6
  3 23  1  0
  3 24  1  0
  4 25  1  6
  6 26  1  0
  7 27  1  0
  9 28  1  0
 11 29  1  0
 11 30  1  0
 11 31  1  0
 12 32  1  0
 12 33  1  0
 12 34  1  0
 13 35  1  0
 13 36  1  0
 15 37  1  0
 16 38  1  0
 18 39  1  0
 18 40  1  0
M  ISO  8  22  13  23  13  24  13  25  13  26  14  27  14  28  14  29   8
M  ISO  8  30   8  31   8  32   8  33   8  34   8  35   8  36   8  37  14
M  ISO  1  38  14
M  END
>  <minimizedAffinity>  (1) 
-4.70984602

>  <minimizedRMSD>  (1) 
1.19872606

$$$$
