
     RDKit          3D

 36 38  0  0  1  0  0  0  0  0999 V2000
   37.5520   26.9660   33.3410 C   0  0  0  0  0  0  0  0  0  0  0  0
   37.7220   25.8440   35.6760 C   0  0  1  0  0  0  0  0  0  0  0  0
   38.3560   27.2380   35.7790 C   0  0  0  0  0  0  0  0  0  0  0  0
   38.3230   26.4620   34.5220 C   0  0  2  0  0  0  0  0  0  0  0  0
   38.3740   24.7710   36.4730 C   0  0  0  0  0  0  0  0  0  0  0  0
   39.4520   24.0540   35.8480 C   0  0  0  0  0  0  0  0  0  0  0  0
   40.1030   23.0410   36.5650 C   0  0  0  0  0  0  0  0  0  0  0  0
   39.6580   22.7940   37.8500 N   0  0  0  0  0  0  0  0  0  0  0  0
   38.6260   23.5150   38.3820 C   0  0  0  0  0  0  0  0  0  0  0  0
   37.9960   24.4780   37.7180 N   0  0  0  0  0  0  0  0  0  0  0  0
   36.7650   25.8090   32.7450 C   0  0  0  0  0  0  0  0  0  0  0  0
   36.5500   28.0350   33.6900 C   0  0  0  0  0  0  0  0  0  0  0  0
   38.4100   27.4860   32.2200 C   0  0  0  0  0  0  0  0  0  0  0  0
   39.0410   26.4090   31.4140 C   0  0  0  0  0  0  0  0  0  0  0  0
   40.0530   25.4960   31.6330 C   0  0  0  0  0  0  0  0  0  0  0  0
   40.2380   24.7290   30.5540 N   0  0  0  0  0  0  0  0  0  0  0  0
   39.3370   25.1550   29.6390 C   0  0  0  0  0  0  0  0  0  0  0  0
   38.6050   26.1730   30.1480 N   0  0  0  0  0  0  0  0  0  0  0  0
   36.7420   25.3684   35.8290 H   0  0  0  0  0  0  0  0  0  0  0  0
   37.7245   28.1305   35.9004 H   0  0  0  0  0  0  0  0  0  0  0  0
   39.1300   27.7150   36.3981 H   0  0  0  0  0  0  0  0  0  0  0  0
   39.0773   26.1033   33.8062 H   0  0  0  0  0  0  0  0  0  0  0  0
   39.7617   24.2972   34.8209 H   0  0  0  0  0  0  0  0  0  0  0  0
   40.9319   22.4676   36.1244 H   0  0  0  0  0  0  0  0  0  0  0  0
   38.3018   23.2873   39.4082 H   0  0  0  0  0  0  0  0  0  0  0  0
   36.3467   25.1940   33.5555 H   0  0  0  0  0  0  0  0  0  0  0  0
   35.9469   26.2032   32.1242 H   0  0  0  0  0  0  0  0  0  0  0  0
   37.4322   25.1929   32.1242 H   0  0  0  0  0  0  0  0  0  0  0  0
   36.4704   28.1199   34.7838 H   0  0  0  0  0  0  0  0  0  0  0  0
   36.8792   28.9971   33.2705 H   0  0  0  0  0  0  0  0  0  0  0  0
   35.5686   27.7687   33.2705 H   0  0  0  0  0  0  0  0  0  0  0  0
   37.7825   28.0976   31.5550 H   0  0  0  0  0  0  0  0  0  0  0  0
   39.2229   28.0701   32.6762 H   0  0  0  0  0  0  0  0  0  0  0  0
   40.6280   25.4113   32.5669 H   0  0  0  0  0  0  0  0  0  0  0  0
   39.2171   24.7353   28.6293 H   0  0  0  0  0  0  0  0  0  0  0  0
   37.8510   26.6794   29.6623 H   0  0  0  0  0  0  0  0  0  0  0  0
  1 12  1  0
  1  4  1  0
  2  3  1  0
  2  5  1  0
  4  2  1  0
  4  3  1  0
  5 10  1  0
  6  5  2  0
  6  7  1  0
  7  8  2  0
  8  9  1  0
 10  9  2  0
 11  1  1  0
 13  1  1  0
 14 15  2  0
 14 13  1  0
 16 15  1  0
 17 18  1  0
 17 16  2  0
 18 14  1  0
  2 19  1  6
  3 20  1  0
  3 21  1  0
  4 22  1  6
  6 23  1  0
  7 24  1  0
  9 25  1  0
 11 26  1  0
 11 27  1  0
 11 28  1  0
 12 29  1  0
 12 30  1  0
 12 31  1  0
 13 32  1  0
 13 33  1  0
 15 34  1  0
 17 35  1  0
 18 36  1  0
M  ISO  8  19  13  20  13  21  13  22  13  23  14  24  14  25  14  26   8
M  ISO  8  27   8  28   8  29   8  30   8  31   8  32   8  33   8  34  14
M  ISO  2  35  14  36   9
M  END
>  <minimizedAffinity>  (1) 
-4.56762552

>  <minimizedRMSD>  (1) 
0.651512384

$$$$
