
     RDKit          3D

 36 38  0  0  1  0  0  0  0  0999 V2000
   37.7040   26.8890   33.4280 C   0  0  0  0  0  0  0  0  0  0  0  0
   37.7510   25.7120   35.7400 C   0  0  1  0  0  0  0  0  0  0  0  0
   38.2760   27.1390   35.9300 C   0  0  0  0  0  0  0  0  0  0  0  0
   38.3990   26.4020   34.6570 C   0  0  2  0  0  0  0  0  0  0  0  0
   38.4130   24.6620   36.5570 C   0  0  0  0  0  0  0  0  0  0  0  0
   39.5040   23.9450   35.9600 C   0  0  0  0  0  0  0  0  0  0  0  0
   40.1570   22.9630   36.7200 C   0  0  0  0  0  0  0  0  0  0  0  0
   39.7070   22.7480   38.0040 N   0  0  0  0  0  0  0  0  0  0  0  0
   38.6600   23.4710   38.5110 C   0  0  0  0  0  0  0  0  0  0  0  0
   38.0270   24.4020   37.8090 N   0  0  0  0  0  0  0  0  0  0  0  0
   36.9340   25.7240   32.8090 C   0  0  0  0  0  0  0  0  0  0  0  0
   36.6860   27.9670   33.7030 C   0  0  0  0  0  0  0  0  0  0  0  0
   38.6100   27.3970   32.3510 C   0  0  0  0  0  0  0  0  0  0  0  0
   39.9130   26.7440   32.2570 C   0  0  0  0  0  0  0  0  0  0  0  0
   41.0330   27.3360   32.8040 C   0  0  0  0  0  0  0  0  0  0  0  0
   42.0980   26.4800   32.5520 C   0  0  0  0  0  0  0  0  0  0  0  0
   41.5930   25.4330   31.8800 N   0  0  0  0  0  0  0  0  0  0  0  0
   40.2940   25.5680   31.6930 N   0  0  0  0  0  0  0  0  0  0  0  0
   36.7963   25.1691   35.8010 H   0  0  0  0  0  0  0  0  0  0  0  0
   37.5767   27.9833   36.0205 H   0  0  0  0  0  0  0  0  0  0  0  0
   38.9623   27.6474   36.6232 H   0  0  0  0  0  0  0  0  0  0  0  0
   39.2308   26.1142   33.9973 H   0  0  0  0  0  0  0  0  0  0  0  0
   39.8211   24.1608   34.9291 H   0  0  0  0  0  0  0  0  0  0  0  0
   40.9971   22.3862   36.3059 H   0  0  0  0  0  0  0  0  0  0  0  0
   38.3308   23.2718   39.5415 H   0  0  0  0  0  0  0  0  0  0  0  0
   36.5174   25.0937   33.6085 H   0  0  0  0  0  0  0  0  0  0  0  0
   36.1158   26.1149   32.1864 H   0  0  0  0  0  0  0  0  0  0  0  0
   37.6143   25.1244   32.1864 H   0  0  0  0  0  0  0  0  0  0  0  0
   36.5683   28.0916   34.7896 H   0  0  0  0  0  0  0  0  0  0  0  0
   37.0265   28.9145   33.2600 H   0  0  0  0  0  0  0  0  0  0  0  0
   35.7206   27.6812   33.2600 H   0  0  0  0  0  0  0  0  0  0  0  0
   38.0960   27.2653   31.3874 H   0  0  0  0  0  0  0  0  0  0  0  0
   38.8191   28.4463   32.6063 H   0  0  0  0  0  0  0  0  0  0  0  0
   41.0746   28.2980   33.3358 H   0  0  0  0  0  0  0  0  0  0  0  0
   43.1475   26.6304   32.8451 H   0  0  0  0  0  0  0  0  0  0  0  0
   42.1476   24.6290   31.5530 H   0  0  0  0  0  0  0  0  0  0  0  0
  1 12  1  0
  1  4  1  0
  2  3  1  0
  2  5  1  0
  4  2  1  0
  4  3  1  0
  5 10  1  0
  6  5  2  0
  6  7  1  0
  7  8  2  0
  8  9  1  0
 10  9  2  0
 11  1  1  0
 13  1  1  0
 14 13  1  0
 14 15  1  0
 16 15  2  0
 17 16  1  0
 18 17  1  0
 18 14  2  0
  2 19  1  6
  3 20  1  0
  3 21  1  0
  4 22  1  6
  6 23  1  0
  7 24  1  0
  9 25  1  0
 11 26  1  0
 11 27  1  0
 11 28  1  0
 12 29  1  0
 12 30  1  0
 12 31  1  0
 13 32  1  0
 13 33  1  0
 15 34  1  0
 16 35  1  0
 17 36  1  0
M  ISO  8  19  13  20  13  21  13  22  13  23  14  24  14  25  14  26   8
M  ISO  8  27   8  28   8  29   8  30   8  31   8  32   8  33   8  34  14
M  ISO  2  35  14  36   9
M  END
>  <minimizedAffinity>  (1) 
-4.50979471

>  <minimizedRMSD>  (1) 
0.939637661

$$$$
