
     RDKit          3D

 36 38  0  0  1  0  0  0  0  0999 V2000
   37.7460   25.7250   35.7520 C   0  0  1  0  0  0  0  0  0  0  0  0
   38.2650   27.1530   35.9400 C   0  0  0  0  0  0  0  0  0  0  0  0
   38.3800   26.4220   34.6660 C   0  0  2  0  0  0  0  0  0  0  0  0
   38.4140   24.6670   36.5590 C   0  0  0  0  0  0  0  0  0  0  0  0
   39.5100   23.9600   35.9440 C   0  0  0  0  0  0  0  0  0  0  0  0
   40.1650   22.9720   36.6950 C   0  0  0  0  0  0  0  0  0  0  0  0
   39.7200   22.7390   37.9730 N   0  0  0  0  0  0  0  0  0  0  0  0
   38.6710   23.4500   38.4940 C   0  0  0  0  0  0  0  0  0  0  0  0
   38.0350   24.3880   37.8070 N   0  0  0  0  0  0  0  0  0  0  0  0
   37.6760   26.9050   33.4400 C   0  0  0  0  0  0  0  0  0  0  0  0
   36.9440   25.7310   32.8050 C   0  0  0  0  0  0  0  0  0  0  0  0
   36.6270   27.9500   33.7210 C   0  0  0  0  0  0  0  0  0  0  0  0
   38.5820   27.4380   32.3650 C   0  0  0  0  0  0  0  0  0  0  0  0
   39.9240   26.7460   32.3380 C   0  0  0  0  0  0  0  0  0  0  0  0
   40.9690   27.3000   31.3460 C   0  0  0  0  0  0  0  0  0  0  0  0
   41.1540   27.4060   32.8180 C   0  0  0  0  0  0  0  0  0  0  0  0
   36.7945   25.1775   35.8221 H   0  0  0  0  0  0  0  0  0  0  0  0
   37.5622   27.9933   36.0394 H   0  0  0  0  0  0  0  0  0  0  0  0
   38.9552   27.6630   36.6281 H   0  0  0  0  0  0  0  0  0  0  0  0
   39.2078   26.1422   33.9977 H   0  0  0  0  0  0  0  0  0  0  0  0
   39.8239   24.1888   34.9149 H   0  0  0  0  0  0  0  0  0  0  0  0
   41.0070   22.4030   36.2739 H   0  0  0  0  0  0  0  0  0  0  0  0
   38.3442   23.2340   39.5219 H   0  0  0  0  0  0  0  0  0  0  0  0
   36.5388   25.0811   33.5946 H   0  0  0  0  0  0  0  0  0  0  0  0
   36.1200   26.1070   32.1808 H   0  0  0  0  0  0  0  0  0  0  0  0
   37.6443   25.1566   32.1808 H   0  0  0  0  0  0  0  0  0  0  0  0
   36.5088   28.0678   34.8083 H   0  0  0  0  0  0  0  0  0  0  0  0
   36.9372   28.9088   33.2799 H   0  0  0  0  0  0  0  0  0  0  0  0
   35.6694   27.6362   33.2799 H   0  0  0  0  0  0  0  0  0  0  0  0
   38.0929   27.2956   31.3900 H   0  0  0  0  0  0  0  0  0  0  0  0
   38.7610   28.5021   32.5787 H   0  0  0  0  0  0  0  0  0  0  0  0
   39.4493   25.7804   32.5668 H   0  0  0  0  0  0  0  0  0  0  0  0
   41.5934   26.6125   30.7565 H   0  0  0  0  0  0  0  0  0  0  0  0
   40.9574   28.0037   30.5006 H   0  0  0  0  0  0  0  0  0  0  0  0
   41.0867   28.3909   33.3033 H   0  0  0  0  0  0  0  0  0  0  0  0
   41.9579   27.1086   33.5074 H   0  0  0  0  0  0  0  0  0  0  0  0
  1  2  1  0
  1  4  1  0
  3  1  1  0
  3  2  1  0
  4  9  1  0
  5  4  2  0
  5  6  1  0
  6  7  2  0
  7  8  1  0
  9  8  2  0
 10 12  1  0
 10  3  1  0
 11 10  1  0
 13 10  1  0
 14 13  1  0
 14 16  1  0
 15 14  1  0
 15 16  1  0
  1 17  1  6
  2 18  1  0
  2 19  1  0
  3 20  1  6
  5 21  1  0
  6 22  1  0
  8 23  1  0
 11 24  1  0
 11 25  1  0
 11 26  1  0
 12 27  1  0
 12 28  1  0
 12 29  1  0
 13 30  1  0
 13 31  1  0
 14 32  1  0
 15 33  1  0
 15 34  1  0
 16 35  1  0
 16 36  1  0
M  ISO  8  17  13  18  13  19  13  20  13  21  14  22  14  23  14  24   8
M  ISO  8  25   8  26   8  27   8  28   8  29   8  30   8  31   8  32  13
M  ISO  4  33  13  34  13  35  13  36  13
M  END
>  <minimizedAffinity>  (1) 
-4.49044847

>  <minimizedRMSD>  (1) 
0.482042313

$$$$
