
     RDKit          3D

 41 43  0  0  1  0  0  0  0  0999 V2000
   37.7250   26.9100   33.4130 C   0  0  0  0  0  0  0  0  0  0  0  0
   37.7570   25.7270   35.7290 C   0  0  1  0  0  0  0  0  0  0  0  0
   38.2780   27.1580   35.9050 C   0  0  0  0  0  0  0  0  0  0  0  0
   38.4040   26.3910   34.6230 C   0  0  2  0  0  0  0  0  0  0  0  0
   38.4220   24.6770   36.5380 C   0  0  0  0  0  0  0  0  0  0  0  0
   39.5180   23.9700   35.9250 C   0  0  0  0  0  0  0  0  0  0  0  0
   40.1680   22.9830   36.6860 C   0  0  0  0  0  0  0  0  0  0  0  0
   39.7170   22.7570   37.9680 N   0  0  0  0  0  0  0  0  0  0  0  0
   38.6710   23.4670   38.4830 C   0  0  0  0  0  0  0  0  0  0  0  0
   38.0340   24.4060   37.7910 N   0  0  0  0  0  0  0  0  0  0  0  0
   36.9130   25.7270   32.7990 C   0  0  0  0  0  0  0  0  0  0  0  0
   36.6550   27.9530   33.6880 C   0  0  0  0  0  0  0  0  0  0  0  0
   38.5410   27.4080   32.3030 C   0  0  0  0  0  0  0  0  0  0  0  0
   39.1340   26.5620   31.3750 N   0  0  0  0  0  0  0  0  0  0  0  0
   40.4600   26.1320   31.4790 C   0  0  0  0  0  0  0  0  0  0  0  0
   40.9800   25.9270   30.0530 C   0  0  0  0  0  0  0  0  0  0  0  0
   39.7370   26.1360   29.2070 C   0  0  0  0  0  0  0  0  0  0  0  0
   38.9680   27.1380   30.0330 C   0  0  0  0  0  0  0  0  0  0  0  0
   36.7976   25.1952   35.8113 H   0  0  0  0  0  0  0  0  0  0  0  0
   37.5769   28.0019   35.9844 H   0  0  0  0  0  0  0  0  0  0  0  0
   38.9620   27.6771   36.5925 H   0  0  0  0  0  0  0  0  0  0  0  0
   39.2184   26.0607   33.9615 H   0  0  0  0  0  0  0  0  0  0  0  0
   39.8353   24.1952   34.8961 H   0  0  0  0  0  0  0  0  0  0  0  0
   41.0099   22.4093   36.2712 H   0  0  0  0  0  0  0  0  0  0  0  0
   38.3425   23.2536   39.5109 H   0  0  0  0  0  0  0  0  0  0  0  0
   36.4913   25.1127   33.6082 H   0  0  0  0  0  0  0  0  0  0  0  0
   36.0972   26.1255   32.1780 H   0  0  0  0  0  0  0  0  0  0  0  0
   37.5782   25.1090   32.1780 H   0  0  0  0  0  0  0  0  0  0  0  0
   36.5312   28.0737   34.7743 H   0  0  0  0  0  0  0  0  0  0  0  0
   36.9565   28.9134   33.2444 H   0  0  0  0  0  0  0  0  0  0  0  0
   35.7026   27.6271   33.2444 H   0  0  0  0  0  0  0  0  0  0  0  0
   37.8934   28.0863   31.7281 H   0  0  0  0  0  0  0  0  0  0  0  0
   39.4169   27.8132   32.8309 H   0  0  0  0  0  0  0  0  0  0  0  0
   41.0640   26.8927   31.9952 H   0  0  0  0  0  0  0  0  0  0  0  0
   40.5247   25.1986   32.0574 H   0  0  0  0  0  0  0  0  0  0  0  0
   41.7567   26.6653   29.8048 H   0  0  0  0  0  0  0  0  0  0  0  0
   41.4511   24.9450   29.8988 H   0  0  0  0  0  0  0  0  0  0  0  0
   39.1728   25.1996   29.0855 H   0  0  0  0  0  0  0  0  0  0  0  0
   39.9472   26.4716   28.1807 H   0  0  0  0  0  0  0  0  0  0  0  0
   39.4085   28.1437   29.9653 H   0  0  0  0  0  0  0  0  0  0  0  0
   37.9228   27.2827   29.7222 H   0  0  0  0  0  0  0  0  0  0  0  0
  1 12  1  0
  1  4  1  0
  2  3  1  0
  2  5  1  0
  4  2  1  0
  4  3  1  0
  5 10  1  0
  6  5  2  0
  6  7  1  0
  7  8  2  0
  8  9  1  0
 10  9  2  0
 11  1  1  0
 13  1  1  0
 14 15  1  0
 14 13  1  0
 16 15  1  0
 17 18  1  0
 17 16  1  0
 18 14  1  0
  2 19  1  6
  3 20  1  0
  3 21  1  0
  4 22  1  6
  6 23  1  0
  7 24  1  0
  9 25  1  0
 11 26  1  0
 11 27  1  0
 11 28  1  0
 12 29  1  0
 12 30  1  0
 12 31  1  0
 13 32  1  0
 13 33  1  0
 15 34  1  0
 15 35  1  0
 16 36  1  0
 16 37  1  0
 17 38  1  0
 17 39  1  0
 18 40  1  0
 18 41  1  0
M  ISO  8  19  13  20  13  21  13  22  13  23  14  24  14  25  14  26   8
M  ISO  8  27   8  28   8  29   8  30   8  31   8  32   8  33   8  34  13
M  ISO  7  35  13  36  13  37  13  38  13  39  13  40  13  41  13
M  END
>  <minimizedAffinity>  (1) 
-4.40848541

>  <minimizedRMSD>  (1) 
0.341821998

$$$$
