
     RDKit          3D

 30 31  0  0  1  0  0  0  0  0999 V2000
   37.7440   25.7250   35.7270 C   0  0  1  0  0  0  0  0  0  0  0  0
   38.2800   27.1480   35.9160 C   0  0  0  0  0  0  0  0  0  0  0  0
   38.3770   26.4200   34.6380 C   0  0  2  0  0  0  0  0  0  0  0  0
   38.4350   24.6610   36.5230 C   0  0  0  0  0  0  0  0  0  0  0  0
   39.5390   23.9720   35.9040 C   0  0  0  0  0  0  0  0  0  0  0  0
   40.1860   22.9950   36.6790 C   0  0  0  0  0  0  0  0  0  0  0  0
   39.7260   22.7640   37.9610 N   0  0  0  0  0  0  0  0  0  0  0  0
   38.6770   23.4550   38.4740 C   0  0  0  0  0  0  0  0  0  0  0  0
   38.0430   24.3830   37.7750 N   0  0  0  0  0  0  0  0  0  0  0  0
   37.6550   26.9060   33.4200 C   0  0  0  0  0  0  0  0  0  0  0  0
   36.9070   25.7360   32.7990 C   0  0  0  0  0  0  0  0  0  0  0  0
   36.6260   27.9650   33.7230 C   0  0  0  0  0  0  0  0  0  0  0  0
   38.5520   27.4290   32.3340 C   0  0  0  0  0  0  0  0  0  0  0  0
   40.2400   26.8290   32.6400 S   0  0  0  0  0  0  0  0  0  0  0  0
   36.7869   25.1885   35.8051 H   0  0  0  0  0  0  0  0  0  0  0  0
   37.5869   27.9953   36.0240 H   0  0  0  0  0  0  0  0  0  0  0  0
   38.9811   27.6483   36.6003 H   0  0  0  0  0  0  0  0  0  0  0  0
   39.1997   26.1407   33.9633 H   0  0  0  0  0  0  0  0  0  0  0  0
   39.8590   24.1996   34.8765 H   0  0  0  0  0  0  0  0  0  0  0  0
   41.0377   22.4281   36.2750 H   0  0  0  0  0  0  0  0  0  0  0  0
   38.3441   23.2378   39.4997 H   0  0  0  0  0  0  0  0  0  0  0  0
   36.4987   25.0973   33.5961 H   0  0  0  0  0  0  0  0  0  0  0  0
   36.0840   26.1161   32.1759 H   0  0  0  0  0  0  0  0  0  0  0  0
   37.5974   25.1486   32.1759 H   0  0  0  0  0  0  0  0  0  0  0  0
   36.5210   28.0731   34.8126 H   0  0  0  0  0  0  0  0  0  0  0  0
   36.9472   28.9233   33.2887 H   0  0  0  0  0  0  0  0  0  0  0  0
   35.6589   27.6715   33.2887 H   0  0  0  0  0  0  0  0  0  0  0  0
   38.5421   28.5289   32.3424 H   0  0  0  0  0  0  0  0  0  0  0  0
   38.1996   27.0778   31.3529 H   0  0  0  0  0  0  0  0  0  0  0  0
   40.4592   26.7511   33.9901 H   0  0  0  0  0  0  0  0  0  0  0  0
  1  2  1  0
  1  4  1  0
  3  1  1  0
  3  2  1  0
  4  9  1  0
  5  4  2  0
  5  6  1  0
  6  7  2  0
  7  8  1  0
  9  8  2  0
 10 12  1  0
 10  3  1  0
 11 10  1  0
 13 14  1  0
 13 10  1  0
  1 15  1  6
  2 16  1  0
  2 17  1  0
  3 18  1  6
  5 19  1  0
  6 20  1  0
  8 21  1  0
 11 22  1  0
 11 23  1  0
 11 24  1  0
 12 25  1  0
 12 26  1  0
 12 27  1  0
 13 28  1  0
 13 29  1  0
 14 30  1  0
M  ISO  8  15  13  16  13  17  13  18  13  19  14  20  14  21  14  22   8
M  ISO  8  23   8  24   8  25   8  26   8  27   8  28   8  29   8  30  11
M  END
>  <minimizedAffinity>  (1) 
-4.17579365

>  <minimizedRMSD>  (1) 
0.334524006

$$$$
