
     RDKit          3D

 31 32  0  0  1  0  0  0  0  0999 V2000
   37.7530   25.7300   35.7320 C   0  0  1  0  0  0  0  0  0  0  0  0
   38.3040   27.1500   35.8970 C   0  0  0  0  0  0  0  0  0  0  0  0
   38.3810   26.4020   34.6270 C   0  0  2  0  0  0  0  0  0  0  0  0
   38.4200   24.6750   36.5400 C   0  0  0  0  0  0  0  0  0  0  0  0
   39.5100   23.9670   35.9310 C   0  0  0  0  0  0  0  0  0  0  0  0
   40.1670   22.9790   36.6860 C   0  0  0  0  0  0  0  0  0  0  0  0
   39.7200   22.7520   37.9680 N   0  0  0  0  0  0  0  0  0  0  0  0
   38.6710   23.4680   38.4840 C   0  0  0  0  0  0  0  0  0  0  0  0
   38.0350   24.4050   37.7900 N   0  0  0  0  0  0  0  0  0  0  0  0
   37.6590   26.8960   33.4170 C   0  0  0  0  0  0  0  0  0  0  0  0
   36.9070   25.7250   32.7880 C   0  0  0  0  0  0  0  0  0  0  0  0
   36.6360   27.9530   33.7220 C   0  0  0  0  0  0  0  0  0  0  0  0
   38.5530   27.4220   32.3280 C   0  0  0  0  0  0  0  0  0  0  0  0
   39.4710   26.4210   31.8440 N   0  0  0  0  0  0  0  0  0  0  0  0
   36.7924   25.2017   35.8226 H   0  0  0  0  0  0  0  0  0  0  0  0
   37.6201   28.0054   36.0002 H   0  0  0  0  0  0  0  0  0  0  0  0
   39.0164   27.6530   36.5674 H   0  0  0  0  0  0  0  0  0  0  0  0
   39.1890   26.0944   33.9469 H   0  0  0  0  0  0  0  0  0  0  0  0
   39.8233   24.1913   34.9007 H   0  0  0  0  0  0  0  0  0  0  0  0
   41.0084   22.4078   36.2669 H   0  0  0  0  0  0  0  0  0  0  0  0
   38.3432   23.2583   39.5129 H   0  0  0  0  0  0  0  0  0  0  0  0
   36.4956   25.0845   33.5820 H   0  0  0  0  0  0  0  0  0  0  0  0
   36.0861   26.1089   32.1645 H   0  0  0  0  0  0  0  0  0  0  0  0
   37.5976   25.1382   32.1645 H   0  0  0  0  0  0  0  0  0  0  0  0
   36.5327   28.0597   34.8119 H   0  0  0  0  0  0  0  0  0  0  0  0
   36.9585   28.9113   33.2887 H   0  0  0  0  0  0  0  0  0  0  0  0
   35.6677   27.6620   33.2887 H   0  0  0  0  0  0  0  0  0  0  0  0
   37.9272   27.7631   31.4901 H   0  0  0  0  0  0  0  0  0  0  0  0
   39.1457   28.2480   32.7481 H   0  0  0  0  0  0  0  0  0  0  0  0
   39.9099   25.9424   32.6435 H   0  0  0  0  0  0  0  0  0  0  0  0
   38.9596   25.7343   31.2714 H   0  0  0  0  0  0  0  0  0  0  0  0
  1  2  1  0
  1  4  1  0
  3  1  1  0
  3  2  1  0
  4  9  1  0
  5  4  2  0
  5  6  1  0
  6  7  2  0
  7  8  1  0
  9  8  2  0
 10 12  1  0
 10  3  1  0
 11 10  1  0
 13 10  1  0
 14 13  1  0
  1 15  1  6
  2 16  1  0
  2 17  1  0
  3 18  1  6
  5 19  1  0
  6 20  1  0
  8 21  1  0
 11 22  1  0
 11 23  1  0
 11 24  1  0
 12 25  1  0
 12 26  1  0
 12 27  1  0
 13 28  1  0
 13 29  1  0
 14 30  1  0
 14 31  1  0
M  ISO  8  15  13  16  13  17  13  18  13  19  14  20  14  21  14  22   8
M  ISO  8  23   8  24   8  25   8  26   8  27   8  28   8  29   8  30   5
M  ISO  1  31   5
M  END
>  <minimizedAffinity>  (1) 
-4.15531874

>  <minimizedRMSD>  (1) 
0.0339394696

$$$$
