
     RDKit          3D

 30 31  0  0  1  0  0  0  0  0999 V2000
   37.7550   25.7300   35.7350 C   0  0  1  0  0  0  0  0  0  0  0  0
   38.2950   27.1540   35.8940 C   0  0  0  0  0  0  0  0  0  0  0  0
   38.3840   26.4040   34.6300 C   0  0  2  0  0  0  0  0  0  0  0  0
   38.4240   24.6750   36.5420 C   0  0  0  0  0  0  0  0  0  0  0  0
   39.5200   23.9650   35.9280 C   0  0  0  0  0  0  0  0  0  0  0  0
   40.1720   22.9780   36.6840 C   0  0  0  0  0  0  0  0  0  0  0  0
   39.7190   22.7500   37.9700 N   0  0  0  0  0  0  0  0  0  0  0  0
   38.6760   23.4630   38.4820 C   0  0  0  0  0  0  0  0  0  0  0  0
   38.0370   24.4040   37.7900 N   0  0  0  0  0  0  0  0  0  0  0  0
   37.6640   26.8810   33.4050 C   0  0  0  0  0  0  0  0  0  0  0  0
   36.9130   25.7190   32.7870 C   0  0  0  0  0  0  0  0  0  0  0  0
   36.6420   27.9530   33.7100 C   0  0  0  0  0  0  0  0  0  0  0  0
   38.5570   27.4160   32.3190 C   0  0  0  0  0  0  0  0  0  0  0  0
   39.4010   26.3760   31.9020 O   0  0  0  0  0  0  0  0  0  0  0  0
   36.7970   25.1976   35.8288 H   0  0  0  0  0  0  0  0  0  0  0  0
   37.6043   28.0047   35.9901 H   0  0  0  0  0  0  0  0  0  0  0  0
   39.0009   27.6649   36.5653 H   0  0  0  0  0  0  0  0  0  0  0  0
   39.1995   26.1044   33.9553 H   0  0  0  0  0  0  0  0  0  0  0  0
   39.8351   24.1904   34.8985 H   0  0  0  0  0  0  0  0  0  0  0  0
   41.0142   22.4059   36.2675 H   0  0  0  0  0  0  0  0  0  0  0  0
   38.3484   23.2519   39.5106 H   0  0  0  0  0  0  0  0  0  0  0  0
   36.5017   25.0826   33.5844 H   0  0  0  0  0  0  0  0  0  0  0  0
   36.0918   26.1030   32.1640 H   0  0  0  0  0  0  0  0  0  0  0  0
   37.6004   25.1279   32.1640 H   0  0  0  0  0  0  0  0  0  0  0  0
   36.5385   28.0615   34.7997 H   0  0  0  0  0  0  0  0  0  0  0  0
   36.9721   28.9084   33.2761 H   0  0  0  0  0  0  0  0  0  0  0  0
   35.6720   27.6689   33.2761 H   0  0  0  0  0  0  0  0  0  0  0  0
   37.9476   27.7648   31.4723 H   0  0  0  0  0  0  0  0  0  0  0  0
   39.1501   28.2632   32.6939 H   0  0  0  0  0  0  0  0  0  0  0  0
   39.7744   25.9159   32.6951 H   0  0  0  0  0  0  0  0  0  0  0  0
  1  2  1  0
  1  4  1  0
  3  1  1  0
  3  2  1  0
  4  9  1  0
  5  4  2  0
  5  6  1  0
  6  7  2  0
  7  8  1  0
  9  8  2  0
 10 12  1  0
 10  3  1  0
 11 10  1  0
 13 10  1  0
 14 13  1  0
  1 15  1  6
  2 16  1  0
  2 17  1  0
  3 18  1  6
  5 19  1  0
  6 20  1  0
  8 21  1  0
 11 22  1  0
 11 23  1  0
 11 24  1  0
 12 25  1  0
 12 26  1  0
 12 27  1  0
 13 28  1  0
 13 29  1  0
 14 30  1  0
M  ISO  8  15  13  16  13  17  13  18  13  19  14  20  14  21  14  22   8
M  ISO  8  23   8  24   8  25   8  26   8  27   8  28   8  29   8  30   3
M  END
>  <minimizedAffinity>  (1) 
-4.15347576

>  <minimizedRMSD>  (1) 
0.0309065469

$$$$
