
     RDKit          3D

 31 33  0  0  1  0  0  0  0  0999 V2000
   40.7610   22.1870   36.1630 C   0  0  0  0  0  0  0  0  0  0  0  0
   40.9100   22.1340   34.7750 C   0  0  0  0  0  0  0  0  0  0  0  0
   41.9950   21.2670   34.5980 C   0  0  0  0  0  0  0  0  0  0  0  0
   42.4590   20.8340   35.8030 N   0  0  0  0  0  0  0  0  0  0  0  0
   41.6890   21.4120   36.7060 N   0  0  0  0  0  0  0  0  0  0  0  0
   43.6110   19.4190   37.3460 N   0  0  0  0  0  0  0  0  0  0  0  0
   44.6630   18.4010   37.2350 C   0  0  0  0  0  0  0  0  0  0  0  0
   44.5750   17.8490   35.8250 C   0  0  0  0  0  0  0  0  0  0  0  0
   43.4460   18.6590   35.1930 C   0  0  0  0  0  0  0  0  0  0  0  0
   43.5530   19.9410   36.0060 C   0  0  1  0  0  0  0  0  0  0  0  0
   44.8020   20.6950   35.7140 C   0  0  0  0  0  0  0  0  0  0  0  0
   45.0780   21.8350   36.0330 O   0  0  0  0  0  0  0  0  0  0  0  0
   38.8660   23.7940   36.1460 C   0  0  0  0  0  0  0  0  0  0  0  0
   39.7550   22.9660   36.8360 C   0  0  0  0  0  0  0  0  0  0  0  0
   39.6730   22.8860   38.2260 C   0  0  0  0  0  0  0  0  0  0  0  0
   38.7020   23.6410   38.8380 N   0  0  0  0  0  0  0  0  0  0  0  0
   37.8540   24.4360   38.1300 C   0  0  0  0  0  0  0  0  0  0  0  0
   37.9480   24.4990   36.8040 N   0  0  0  0  0  0  0  0  0  0  0  0
   40.3169   22.6499   34.0055 H   0  0  0  0  0  0  0  0  0  0  0  0
   42.4136   20.9765   33.6231 H   0  0  0  0  0  0  0  0  0  0  0  0
   42.7122   18.9990   37.6227 H   0  0  0  0  0  0  0  0  0  0  0  0
   45.6508   18.8540   37.4056 H   0  0  0  0  0  0  0  0  0  0  0  0
   44.5308   17.6064   37.9841 H   0  0  0  0  0  0  0  0  0  0  0  0
   45.5199   18.0029   35.2832 H   0  0  0  0  0  0  0  0  0  0  0  0
   44.3891   16.7651   35.8009 H   0  0  0  0  0  0  0  0  0  0  0  0
   43.6225   18.8388   34.1222 H   0  0  0  0  0  0  0  0  0  0  0  0
   42.4584   18.1753   35.2186 H   0  0  0  0  0  0  0  0  0  0  0  0
   45.5690   20.1550   35.1395 H   0  0  0  0  0  0  0  0  0  0  0  0
   38.9250   23.8640   35.0498 H   0  0  0  0  0  0  0  0  0  0  0  0
   40.3551   22.2471   38.8062 H   0  0  0  0  0  0  0  0  0  0  0  0
   37.0894   25.0276   38.6548 H   0  0  0  0  0  0  0  0  0  0  0  0
  1  5  2  0
  1 14  1  0
  2  1  1  0
  3  2  2  0
  3  4  1  0
 10  4  1  1
  4  5  1  0
  7  6  1  0
  8  7  1  0
  9  8  1  0
  9 10  1  0
 10 11  1  0
 10  6  1  0
 11 12  2  0
 13 18  2  0
 13 14  1  0
 14 15  2  0
 15 16  1  0
 17 16  2  0
 18 17  1  0
  2 19  1  0
  3 20  1  0
  6 21  1  0
  7 22  1  0
  7 23  1  0
  8 24  1  0
  8 25  1  0
  9 26  1  0
  9 27  1  0
 11 28  1  0
 13 29  1  0
 15 30  1  0
 17 31  1  0
M  ISO  8  19  14  20  14  21   5  22  13  23  13  24  13  25  13  26  13
M  ISO  5  27  13  28   6  29  14  30  14  31  14
M  END
>  <minimizedAffinity>  (1) 
-3.59936953

>  <minimizedRMSD>  (1) 
1.34719765

$$$$
