
     RDKit          3D

 48 51  0  0  1  0  0  0  0  0999 V2000
   39.8460   24.0620   34.3160 C   0  0  0  0  0  0  0  0  0  0  0  0
   38.7360   24.8810   34.5030 C   0  0  0  0  0  0  0  0  0  0  0  0
   37.7960   24.3540   33.6160 C   0  0  0  0  0  0  0  0  0  0  0  0
   38.3120   23.2920   32.9440 N   0  0  0  0  0  0  0  0  0  0  0  0
   39.5410   23.1450   33.3890 N   0  0  0  0  0  0  0  0  0  0  0  0
   37.9400   21.1220   32.0320 N   0  0  0  0  0  0  0  0  0  0  0  0
   36.9730   20.5310   31.0990 C   0  0  0  0  0  0  0  0  0  0  0  0
   35.7370   21.4050   31.1460 C   0  0  0  0  0  0  0  0  0  0  0  0
   36.1230   22.5050   32.1320 C   0  0  0  0  0  0  0  0  0  0  0  0
   37.6120   22.5300   31.9670 C   0  0  1  0  0  0  0  0  0  0  0  0
   37.9370   23.1060   30.6110 C   0  0  0  0  0  0  0  0  0  0  0  0
   39.4180   23.0430   30.3170 C   0  0  0  0  0  0  0  0  0  0  0  0
   37.5530   24.5590   30.5910 C   0  0  0  0  0  0  0  0  0  0  0  0
   41.5130   23.2610   35.9520 C   0  0  0  0  0  0  0  0  0  0  0  0
   41.0980   24.2010   35.0150 C   0  0  0  0  0  0  0  0  0  0  0  0
   41.9040   25.2900   34.7480 C   0  0  0  0  0  0  0  0  0  0  0  0
   43.0890   25.3850   35.4350 N   0  0  0  0  0  0  0  0  0  0  0  0
   43.4640   24.4410   36.3510 C   0  0  0  0  0  0  0  0  0  0  0  0
   42.6730   23.4020   36.5900 N   0  0  0  0  0  0  0  0  0  0  0  0
   44.7340   24.5850   37.0560 C   0  0  0  0  0  0  0  0  0  0  0  0
   45.8660   23.9310   36.6020 C   0  0  0  0  0  0  0  0  0  0  0  0
   47.0500   24.0940   37.2990 C   0  0  0  0  0  0  0  0  0  0  0  0
   47.0910   24.8930   38.4220 C   0  0  0  0  0  0  0  0  0  0  0  0
   45.9870   25.5620   38.9110 C   0  0  0  0  0  0  0  0  0  0  0  0
   44.8080   25.3830   38.1920 C   0  0  0  0  0  0  0  0  0  0  0  0
   38.6262   25.7369   35.1852 H   0  0  0  0  0  0  0  0  0  0  0  0
   36.7769   24.7450   33.4797 H   0  0  0  0  0  0  0  0  0  0  0  0
   37.8120   20.7530   32.9851 H   0  0  0  0  0  0  0  0  0  0  0  0
   36.7246   19.5052   31.4090 H   0  0  0  0  0  0  0  0  0  0  0  0
   37.3846   20.4803   30.0802 H   0  0  0  0  0  0  0  0  0  0  0  0
   35.5134   21.8252   30.1543 H   0  0  0  0  0  0  0  0  0  0  0  0
   34.8322   20.8559   31.4457 H   0  0  0  0  0  0  0  0  0  0  0  0
   35.6703   23.4694   31.8583 H   0  0  0  0  0  0  0  0  0  0  0  0
   35.7848   22.3274   33.1635 H   0  0  0  0  0  0  0  0  0  0  0  0
   37.3857   22.5177   29.8627 H   0  0  0  0  0  0  0  0  0  0  0  0
   39.9789   23.0191   31.2629 H   0  0  0  0  0  0  0  0  0  0  0  0
   39.6384   22.1347   29.7370 H   0  0  0  0  0  0  0  0  0  0  0  0
   39.7147   23.9293   29.7370 H   0  0  0  0  0  0  0  0  0  0  0  0
   37.4558   24.9268   31.6231 H   0  0  0  0  0  0  0  0  0  0  0  0
   38.3294   25.1363   30.0676 H   0  0  0  0  0  0  0  0  0  0  0  0
   36.5928   24.6773   30.0676 H   0  0  0  0  0  0  0  0  0  0  0  0
   40.8756   22.3910   36.1685 H   0  0  0  0  0  0  0  0  0  0  0  0
   41.6079   26.0526   34.0127 H   0  0  0  0  0  0  0  0  0  0  0  0
   45.8253   23.2948   35.7056 H   0  0  0  0  0  0  0  0  0  0  0  0
   47.9623   23.5841   36.9559 H   0  0  0  0  0  0  0  0  0  0  0  0
   48.0481   25.0024   38.9530 H   0  0  0  0  0  0  0  0  0  0  0  0
   46.0354   26.1948   39.8094 H   0  0  0  0  0  0  0  0  0  0  0  0
   43.8973   25.8943   38.5372 H   0  0  0  0  0  0  0  0  0  0  0  0
  1  2  1  0
  1 15  1  0
  3  2  2  0
  4  5  1  0
  4  3  1  0
  5  1  2  0
  7  8  1  0
  7  6  1  0
  8  9  1  0
 10 11  1  6
 10  6  1  0
 10  9  1  0
 10  4  1  0
 12 11  1  0
 13 11  1  0
 14 19  2  0
 15 14  1  0
 16 15  2  0
 16 17  1  0
 17 18  2  0
 18 19  1  0
 18 20  1  0
 20 25  1  0
 21 20  2  0
 21 22  1  0
 22 23  2  0
 23 24  1  0
 25 24  2  0
  2 26  1  0
  3 27  1  0
  6 28  1  0
  7 29  1  0
  7 30  1  0
  8 31  1  0
  8 32  1  0
  9 33  1  0
  9 34  1  0
 11 35  1  0
 12 36  1  0
 12 37  1  0
 12 38  1  0
 13 39  1  0
 13 40  1  0
 13 41  1  0
 14 42  1  0
 16 43  1  0
 21 44  1  0
 22 45  1  0
 23 46  1  0
 24 47  1  0
 25 48  1  0
M  ISO  8  26  14  27  14  28   5  29  13  30  13  31  13  32  13  33  13
M  ISO  8  34  13  35   8  36   8  37   8  38   8  39   8  40   8  41   8
M  ISO  7  42  14  43  14  44  14  45  14  46  14  47  14  48  14
M  END
>  <minimizedAffinity>  (1) 
-5.5714798

>  <minimizedRMSD>  (1) 
9.53565979

$$$$
