
     RDKit          3D

 52 56  0  0  1  0  0  0  0  0999 V2000
   38.1560   25.9460   34.0600 C   0  0  0  0  0  0  0  0  0  0  0  0
   37.3950   26.1160   35.2280 C   0  0  0  0  0  0  0  0  0  0  0  0
   37.8680   25.1010   36.0610 C   0  0  0  0  0  0  0  0  0  0  0  0
   38.8410   24.3790   35.4370 N   0  0  0  0  0  0  0  0  0  0  0  0
   38.9910   24.9120   34.2330 N   0  0  0  0  0  0  0  0  0  0  0  0
   40.9550   23.3190   35.7480 N   0  0  0  0  0  0  0  0  0  0  0  0
   41.4570   22.2170   36.5770 C   0  0  0  0  0  0  0  0  0  0  0  0
   40.5380   22.1330   37.7730 C   0  0  0  0  0  0  0  0  0  0  0  0
   39.4920   23.2030   37.5020 C   0  0  0  0  0  0  0  0  0  0  0  0
   39.5380   23.2690   36.0010 C   0  0  1  0  0  0  0  0  0  0  0  0
   38.9130   22.0080   35.4540 C   0  0  0  0  0  0  0  0  0  0  0  0
   38.9970   21.9420   33.9370 C   0  0  0  0  0  0  0  0  0  0  0  0
   37.4460   21.9900   35.7890 C   0  0  0  0  0  0  0  0  0  0  0  0
   39.1430   27.3240   32.2730 C   0  0  0  0  0  0  0  0  0  0  0  0
   38.0380   26.7670   32.8860 C   0  0  0  0  0  0  0  0  0  0  0  0
   36.8050   27.0190   32.3410 C   0  0  0  0  0  0  0  0  0  0  0  0
   36.7450   27.8020   31.2290 N   0  0  0  0  0  0  0  0  0  0  0  0
   37.8180   28.3370   30.6430 C   0  0  0  0  0  0  0  0  0  0  0  0
   38.9890   28.0820   31.1840 N   0  0  0  0  0  0  0  0  0  0  0  0
   37.9500   29.1930   29.4580 C   0  0  0  0  0  0  0  0  0  0  0  0
   37.2690   30.3390   29.2770 N   0  0  0  0  0  0  0  0  0  0  0  0
   37.3680   31.1310   28.2150 C   0  0  0  0  0  0  0  0  0  0  0  0
   38.1990   30.8180   27.2050 N   0  0  0  0  0  0  0  0  0  0  0  0
   38.9460   29.6770   27.2740 C   0  0  0  0  0  0  0  0  0  0  0  0
   39.7880   29.3820   26.2270 C   0  0  0  0  0  0  0  0  0  0  0  0
   40.5520   28.2370   26.2720 C   0  0  0  0  0  0  0  0  0  0  0  0
   40.4240   27.4280   27.3970 C   0  0  0  0  0  0  0  0  0  0  0  0
   39.5670   27.7930   28.3910 C   0  0  0  0  0  0  0  0  0  0  0  0
   38.7850   28.9130   28.4040 C   0  0  0  0  0  0  0  0  0  0  0  0
   36.6169   26.8654   35.4355 H   0  0  0  0  0  0  0  0  0  0  0  0
   37.5051   24.9099   37.0817 H   0  0  0  0  0  0  0  0  0  0  0  0
   41.1622   23.1611   34.7515 H   0  0  0  0  0  0  0  0  0  0  0  0
   41.4333   21.2737   36.0116 H   0  0  0  0  0  0  0  0  0  0  0  0
   42.4987   22.3908   36.8848 H   0  0  0  0  0  0  0  0  0  0  0  0
   40.0729   21.1385   37.8408 H   0  0  0  0  0  0  0  0  0  0  0  0
   41.0653   22.2851   38.7264 H   0  0  0  0  0  0  0  0  0  0  0  0
   38.4987   22.8987   37.8635 H   0  0  0  0  0  0  0  0  0  0  0  0
   39.6811   24.1624   38.0058 H   0  0  0  0  0  0  0  0  0  0  0  0
   39.4600   21.1645   35.9004 H   0  0  0  0  0  0  0  0  0  0  0  0
   39.8307   21.2869   33.6441 H   0  0  0  0  0  0  0  0  0  0  0  0
   38.0556   21.5394   33.5348 H   0  0  0  0  0  0  0  0  0  0  0  0
   39.1654   22.9519   33.5348 H   0  0  0  0  0  0  0  0  0  0  0  0
   37.3194   21.9884   36.8817 H   0  0  0  0  0  0  0  0  0  0  0  0
   36.9621   22.8823   35.3651 H   0  0  0  0  0  0  0  0  0  0  0  0
   36.9842   21.0861   35.3651 H   0  0  0  0  0  0  0  0  0  0  0  0
   40.1485   27.1437   32.6809 H   0  0  0  0  0  0  0  0  0  0  0  0
   35.8916   26.6008   32.7891 H   0  0  0  0  0  0  0  0  0  0  0  0
   36.7656   32.0499   28.1614 H   0  0  0  0  0  0  0  0  0  0  0  0
   39.8507   30.0559   25.3599 H   0  0  0  0  0  0  0  0  0  0  0  0
   41.2357   27.9727   25.4519 H   0  0  0  0  0  0  0  0  0  0  0  0
   41.0102   26.5012   27.4829 H   0  0  0  0  0  0  0  0  0  0  0  0
   39.4984   27.1252   29.2624 H   0  0  0  0  0  0  0  0  0  0  0  0
  1  5  2  0
  1  2  1  0
  2  3  2  0
  4 10  1  0
  4  3  1  0
  5  4  1  0
  6 10  1  0
  6  7  1  0
  7  8  1  0
  9  8  1  0
 10 11  1  6
 10  9  1  0
 11 13  1  0
 12 11  1  0
 14 15  2  0
 15  1  1  0
 16 15  1  0
 17 16  2  0
 18 19  2  0
 18 17  1  0
 19 14  1  0
 20 18  1  0
 21 20  2  0
 22 21  1  0
 23 24  1  0
 23 22  2  0
 24 29  2  0
 25 26  2  0
 25 24  1  0
 26 27  1  0
 27 28  2  0
 28 29  1  0
 29 20  1  0
  2 30  1  0
  3 31  1  0
  6 32  1  0
  7 33  1  0
  7 34  1  0
  8 35  1  0
  8 36  1  0
  9 37  1  0
  9 38  1  0
 11 39  1  0
 12 40  1  0
 12 41  1  0
 12 42  1  0
 13 43  1  0
 13 44  1  0
 13 45  1  0
 14 46  1  0
 16 47  1  0
 22 48  1  0
 25 49  1  0
 26 50  1  0
 27 51  1  0
 28 52  1  0
M  ISO  8  30  14  31  14  32   5  33  13  34  13  35  13  36  13  37  13
M  ISO  8  38  13  39   8  40   8  41   8  42   8  43   8  44   8  45   8
M  ISO  7  46  14  47  14  48  14  49  14  50  14  51  14  52  14
M  END
>  <minimizedAffinity>  (1) 
-5.0653758

>  <minimizedRMSD>  (1) 
6.30295277

$$$$
