
     RDKit          3D

 48 51  0  0  1  0  0  0  0  0999 V2000
   39.1800   22.8540   33.4840 C   0  0  0  0  0  0  0  0  0  0  0  0
   38.3160   22.4850   34.5210 C   0  0  0  0  0  0  0  0  0  0  0  0
   37.4030   21.6340   33.9090 C   0  0  0  0  0  0  0  0  0  0  0  0
   37.6970   21.5020   32.5990 N   0  0  0  0  0  0  0  0  0  0  0  0
   38.7730   22.2480   32.3720 N   0  0  0  0  0  0  0  0  0  0  0  0
   41.3130   23.8060   32.6830 C   0  0  0  0  0  0  0  0  0  0  0  0
   40.3130   23.7450   33.6400 C   0  0  0  0  0  0  0  0  0  0  0  0
   40.3880   24.5390   34.7600 C   0  0  0  0  0  0  0  0  0  0  0  0
   41.4730   25.3690   34.8740 N   0  0  0  0  0  0  0  0  0  0  0  0
   42.4420   25.4040   33.9090 C   0  0  0  0  0  0  0  0  0  0  0  0
   42.3500   24.6300   32.8370 N   0  0  0  0  0  0  0  0  0  0  0  0
   43.5600   26.2880   34.0690 N   0  0  0  0  0  0  0  0  0  0  0  0
   44.5530   26.0300   34.9400 C   0  0  0  0  0  0  0  0  0  0  0  0
   45.6220   26.9100   35.0680 C   0  0  0  0  0  0  0  0  0  0  0  0
   45.6000   28.0270   34.2710 C   0  0  0  0  0  0  0  0  0  0  0  0
   46.5650   28.8220   34.3870 O   0  0  0  0  0  0  0  0  0  0  0  0
   44.5770   28.2270   33.4210 N   0  0  0  0  0  0  0  0  0  0  0  0
   43.5390   27.3820   33.2900 C   0  0  0  0  0  0  0  0  0  0  0  0
   42.6380   27.6720   32.4600 O   0  0  0  0  0  0  0  0  0  0  0  0
   37.7200   20.4830   30.4290 N   0  0  0  0  0  0  0  0  0  0  0  0
   36.8880   19.4890   29.7370 C   0  0  0  0  0  0  0  0  0  0  0  0
   36.2330   18.6570   30.8140 C   0  0  0  0  0  0  0  0  0  0  0  0
   36.7360   19.2910   32.1060 C   0  0  0  0  0  0  0  0  0  0  0  0
   36.9770   20.7050   31.6480 C   0  0  1  0  0  0  0  0  0  0  0  0
   35.6500   21.3700   31.3990 C   0  0  0  0  0  0  0  0  0  0  0  0
   35.8070   22.8620   31.1710 C   0  0  0  0  0  0  0  0  0  0  0  0
   34.7820   21.2080   32.6120 C   0  0  0  0  0  0  0  0  0  0  0  0
   38.3511   22.7961   35.5755 H   0  0  0  0  0  0  0  0  0  0  0  0
   36.5628   21.1399   34.4188 H   0  0  0  0  0  0  0  0  0  0  0  0
   41.2509   23.1691   31.7883 H   0  0  0  0  0  0  0  0  0  0  0  0
   39.6075   24.5093   35.5346 H   0  0  0  0  0  0  0  0  0  0  0  0
   44.5188   25.1180   35.5540 H   0  0  0  0  0  0  0  0  0  0  0  0
   46.4446   26.7202   35.7732 H   0  0  0  0  0  0  0  0  0  0  0  0
   44.5893   29.0755   32.8372 H   0  0  0  0  0  0  0  0  0  0  0  0
   37.8025   21.3496   29.8785 H   0  0  0  0  0  0  0  0  0  0  0  0
   36.1232   19.9916   29.1267 H   0  0  0  0  0  0  0  0  0  0  0  0
   37.4915   18.8642   29.0622 H   0  0  0  0  0  0  0  0  0  0  0  0
   35.1368   18.7182   30.7464 H   0  0  0  0  0  0  0  0  0  0  0  0
   36.4768   17.5871   30.7376 H   0  0  0  0  0  0  0  0  0  0  0  0
   35.9775   19.2464   32.9014 H   0  0  0  0  0  0  0  0  0  0  0  0
   37.6156   18.7971   32.5446 H   0  0  0  0  0  0  0  0  0  0  0  0
   35.2096   20.9006   30.5070 H   0  0  0  0  0  0  0  0  0  0  0  0
   35.8612   23.3775   32.1412 H   0  0  0  0  0  0  0  0  0  0  0  0
   36.7300   23.0510   30.6032 H   0  0  0  0  0  0  0  0  0  0  0  0
   34.9436   23.2390   30.6032 H   0  0  0  0  0  0  0  0  0  0  0  0
   35.3941   21.3222   33.5188 H   0  0  0  0  0  0  0  0  0  0  0  0
   33.9930   21.9744   32.6033 H   0  0  0  0  0  0  0  0  0  0  0  0
   34.3225   20.2086   32.6033 H   0  0  0  0  0  0  0  0  0  0  0  0
  1  7  1  0
  1  2  1  0
  3  2  2  0
  4  3  1  0
  5  4  1  0
  5  1  2  0
  6 11  2  0
  6  7  1  0
  7  8  2  0
  8  9  1  0
 10 12  1  0
 10  9  2  0
 11 10  1  0
 12 13  1  0
 13 14  2  0
 15 16  2  0
 15 14  1  0
 17 15  1  0
 18 17  1  0
 18 12  1  0
 19 18  2  0
 20 24  1  0
 21 20  1  0
 21 22  1  0
 22 23  1  0
 24 25  1  6
 24 23  1  0
 24  4  1  0
 25 27  1  0
 26 25  1  0
  2 28  1  0
  3 29  1  0
  6 30  1  0
  8 31  1  0
 13 32  1  0
 14 33  1  0
 17 34  1  0
 20 35  1  0
 21 36  1  0
 21 37  1  0
 22 38  1  0
 22 39  1  0
 23 40  1  0
 23 41  1  0
 25 42  1  0
 26 43  1  0
 26 44  1  0
 26 45  1  0
 27 46  1  0
 27 47  1  0
 27 48  1  0
M  ISO  8  28  14  29  14  30  14  31  14  32  14  33  14  34   9  35   5
M  ISO  8  36  13  37  13  38  13  39  13  40  13  41  13  42   8  43   8
M  ISO  5  44   8  45   8  46   8  47   8  48   8
M  END
>  <minimizedAffinity>  (1) 
-4.96828079

>  <minimizedRMSD>  (1) 
9.18963528

$$$$
