
     RDKit          3D

 45 48  0  0  1  0  0  0  0  0999 V2000
   40.2010   25.3600   34.9140 C   0  0  0  0  0  0  0  0  0  0  0  0
   40.1410   23.9970   35.2370 C   0  0  0  0  0  0  0  0  0  0  0  0
   41.4730   23.6670   35.5240 C   0  0  0  0  0  0  0  0  0  0  0  0
   42.2660   24.7540   35.3830 N   0  0  0  0  0  0  0  0  0  0  0  0
   41.4780   25.7380   35.0210 N   0  0  0  0  0  0  0  0  0  0  0  0
   39.0590   26.9050   33.3730 C   0  0  0  0  0  0  0  0  0  0  0  0
   39.0680   26.1650   34.5420 C   0  0  0  0  0  0  0  0  0  0  0  0
   37.9680   26.2000   35.3650 C   0  0  0  0  0  0  0  0  0  0  0  0
   36.9040   26.9760   34.9830 N   0  0  0  0  0  0  0  0  0  0  0  0
   36.9350   27.6910   33.8220 C   0  0  0  0  0  0  0  0  0  0  0  0
   38.0110   27.6460   33.0350 N   0  0  0  0  0  0  0  0  0  0  0  0
   35.8340   28.4990   33.4190 N   0  0  0  0  0  0  0  0  0  0  0  0
   34.9800   28.4460   32.4110 N   0  0  0  0  0  0  0  0  0  0  0  0
   34.1060   29.4710   32.4830 C   0  0  0  0  0  0  0  0  0  0  0  0
   34.4580   30.1990   33.6170 C   0  0  0  0  0  0  0  0  0  0  0  0
   35.5590   29.5680   34.2020 C   0  0  0  0  0  0  0  0  0  0  0  0
   44.1370   26.0310   36.1620 N   0  0  0  0  0  0  0  0  0  0  0  0
   45.5420   25.7420   36.4750 C   0  0  0  0  0  0  0  0  0  0  0  0
   45.6080   24.2710   36.8110 C   0  0  0  0  0  0  0  0  0  0  0  0
   44.1670   23.8020   36.6270 C   0  0  0  0  0  0  0  0  0  0  0  0
   43.6840   24.7730   35.5990 C   0  0  1  0  0  0  0  0  0  0  0  0
   44.3560   24.4900   34.2840 C   0  0  0  0  0  0  0  0  0  0  0  0
   43.9130   25.4510   33.1930 C   0  0  0  0  0  0  0  0  0  0  0  0
   43.9370   23.1070   33.8260 C   0  0  0  0  0  0  0  0  0  0  0  0
   39.2578   23.3416   35.2598 H   0  0  0  0  0  0  0  0  0  0  0  0
   41.8232   22.6675   35.8212 H   0  0  0  0  0  0  0  0  0  0  0  0
   39.9372   26.8787   32.7111 H   0  0  0  0  0  0  0  0  0  0  0  0
   37.9419   25.6233   36.3013 H   0  0  0  0  0  0  0  0  0  0  0  0
   33.2822   29.6879   31.7871 H   0  0  0  0  0  0  0  0  0  0  0  0
   33.9590   31.1073   33.9858 H   0  0  0  0  0  0  0  0  0  0  0  0
   36.0930   29.8770   35.1127 H   0  0  0  0  0  0  0  0  0  0  0  0
   43.6071   26.2724   37.0116 H   0  0  0  0  0  0  0  0  0  0  0  0
   46.1790   25.9630   35.6059 H   0  0  0  0  0  0  0  0  0  0  0  0
   45.9002   26.3595   37.3119 H   0  0  0  0  0  0  0  0  0  0  0  0
   46.2853   23.7405   36.1255 H   0  0  0  0  0  0  0  0  0  0  0  0
   45.9971   24.0780   37.8216 H   0  0  0  0  0  0  0  0  0  0  0  0
   44.1225   22.7667   36.2581 H   0  0  0  0  0  0  0  0  0  0  0  0
   43.5723   23.7858   37.5522 H   0  0  0  0  0  0  0  0  0  0  0  0
   45.4405   24.5881   34.4394 H   0  0  0  0  0  0  0  0  0  0  0  0
   43.4945   26.3589   33.6519 H   0  0  0  0  0  0  0  0  0  0  0  0
   44.7776   25.7208   32.5688 H   0  0  0  0  0  0  0  0  0  0  0  0
   43.1463   24.9688   32.5688 H   0  0  0  0  0  0  0  0  0  0  0  0
   43.7448   22.4726   34.7038 H   0  0  0  0  0  0  0  0  0  0  0  0
   43.0215   23.1828   33.2209 H   0  0  0  0  0  0  0  0  0  0  0  0
   44.7406   22.6620   33.2209 H   0  0  0  0  0  0  0  0  0  0  0  0
  1  5  2  0
  1  2  1  0
  2  3  2  0
  4  3  1  0
  4 21  1  0
  5  4  1  0
  6  7  2  0
  7  1  1  0
  7  8  1  0
  9  8  2  0
 10  9  1  0
 11  6  1  0
 11 10  2  0
 12 10  1  0
 12 16  1  0
 13 14  2  0
 13 12  1  0
 14 15  1  0
 15 16  2  0
 17 18  1  0
 18 19  1  0
 20 19  1  0
 21 22  1  6
 21 17  1  0
 21 20  1  0
 23 22  1  0
 24 22  1  0
  2 25  1  0
  3 26  1  0
  6 27  1  0
  8 28  1  0
 14 29  1  0
 15 30  1  0
 16 31  1  0
 17 32  1  0
 18 33  1  0
 18 34  1  0
 19 35  1  0
 19 36  1  0
 20 37  1  0
 20 38  1  0
 22 39  1  0
 23 40  1  0
 23 41  1  0
 23 42  1  0
 24 43  1  0
 24 44  1  0
 24 45  1  0
M  ISO  8  25  14  26  14  27  14  28  14  29  14  30  14  31  14  32   5
M  ISO  8  33  13  34  13  35  13  36  13  37  13  38  13  39   8  40   8
M  ISO  5  41   8  42   8  43   8  44   8  45   8
M  END
>  <minimizedAffinity>  (1) 
-4.92644691

>  <minimizedRMSD>  (1) 
4.17296505

$$$$
