
     RDKit          3D

 45 48  0  0  1  0  0  0  0  0999 V2000
   44.5400   25.9730   38.0190 N   0  0  0  0  0  0  0  0  0  0  0  0
   45.8040   26.2920   38.6970 C   0  0  0  0  0  0  0  0  0  0  0  0
   46.7140   25.1100   38.4990 C   0  0  0  0  0  0  0  0  0  0  0  0
   45.8810   24.1570   37.6590 C   0  0  0  0  0  0  0  0  0  0  0  0
   44.9910   25.1260   36.9340 C   0  0  1  0  0  0  0  0  0  0  0  0
   42.0590   24.2180   35.0920 C   0  0  0  0  0  0  0  0  0  0  0  0
   42.6010   22.9390   35.2940 C   0  0  0  0  0  0  0  0  0  0  0  0
   43.7670   23.1920   36.0160 C   0  0  0  0  0  0  0  0  0  0  0  0
   43.9100   24.5180   36.2290 N   0  0  0  0  0  0  0  0  0  0  0  0
   42.8670   25.1040   35.6600 N   0  0  0  0  0  0  0  0  0  0  0  0
   40.8390   24.9260   33.0640 C   0  0  0  0  0  0  0  0  0  0  0  0
   40.8330   24.4810   34.3840 C   0  0  0  0  0  0  0  0  0  0  0  0
   39.6160   24.2850   35.0260 C   0  0  0  0  0  0  0  0  0  0  0  0
   38.4840   24.5500   34.3040 N   0  0  0  0  0  0  0  0  0  0  0  0
   38.5290   24.9850   33.0160 C   0  0  0  0  0  0  0  0  0  0  0  0
   39.7040   25.1660   32.4180 N   0  0  0  0  0  0  0  0  0  0  0  0
   37.2750   25.2440   32.3160 C   0  0  0  0  0  0  0  0  0  0  0  0
   36.7640   26.4940   32.0330 C   0  0  0  0  0  0  0  0  0  0  0  0
   35.5980   26.3420   31.3810 N   0  0  0  0  0  0  0  0  0  0  0  0
   35.3980   25.0040   31.2670 C   0  0  0  0  0  0  0  0  0  0  0  0
   36.4270   24.3150   31.8400 N   0  0  0  0  0  0  0  0  0  0  0  0
   45.8140   25.9070   35.9320 C   0  0  0  0  0  0  0  0  0  0  0  0
   44.9740   26.8950   35.1510 C   0  0  0  0  0  0  0  0  0  0  0  0
   46.3910   24.9450   34.9320 C   0  0  0  0  0  0  0  0  0  0  0  0
   43.8955   25.4693   38.6449 H   0  0  0  0  0  0  0  0  0  0  0  0
   46.2533   27.1939   38.2557 H   0  0  0  0  0  0  0  0  0  0  0  0
   45.6394   26.4886   39.7667 H   0  0  0  0  0  0  0  0  0  0  0  0
   47.6306   25.4044   37.9669 H   0  0  0  0  0  0  0  0  0  0  0  0
   47.0490   24.6640   39.4471 H   0  0  0  0  0  0  0  0  0  0  0  0
   46.5059   23.5808   36.9608 H   0  0  0  0  0  0  0  0  0  0  0  0
   45.3443   23.3903   38.2371 H   0  0  0  0  0  0  0  0  0  0  0  0
   42.2016   21.9693   34.9622 H   0  0  0  0  0  0  0  0  0  0  0  0
   44.4706   22.4208   36.3629 H   0  0  0  0  0  0  0  0  0  0  0  0
   41.7986   25.0809   32.5490 H   0  0  0  0  0  0  0  0  0  0  0  0
   39.5650   23.9330   36.0669 H   0  0  0  0  0  0  0  0  0  0  0  0
   37.2320   27.4539   32.2966 H   0  0  0  0  0  0  0  0  0  0  0  0
   34.5275   24.5399   30.7804 H   0  0  0  0  0  0  0  0  0  0  0  0
   36.5327   23.2920   31.8965 H   0  0  0  0  0  0  0  0  0  0  0  0
   46.5871   26.4516   36.4939 H   0  0  0  0  0  0  0  0  0  0  0  0
   44.4240   27.5419   35.8503 H   0  0  0  0  0  0  0  0  0  0  0  0
   45.6281   27.5123   34.5176 H   0  0  0  0  0  0  0  0  0  0  0  0
   44.2596   26.3487   34.5176 H   0  0  0  0  0  0  0  0  0  0  0  0
   46.8868   24.1185   35.4622 H   0  0  0  0  0  0  0  0  0  0  0  0
   45.5841   24.5442   34.3009 H   0  0  0  0  0  0  0  0  0  0  0  0
   47.1245   25.4682   34.3009 H   0  0  0  0  0  0  0  0  0  0  0  0
  1  2  1  0
  3  2  1  0
  4  3  1  0
  5 22  1  6
  5  4  1  0
  5  1  1  0
  6  7  1  0
  6 10  2  0
  7  8  2  0
  8  9  1  0
  9  5  1  0
 10  9  1  0
 11 12  2  0
 12 13  1  0
 12  6  1  0
 14 13  2  0
 15 14  1  0
 16 15  2  0
 16 11  1  0
 17 15  1  0
 18 17  2  0
 19 18  1  0
 20 19  2  0
 20 21  1  0
 21 17  1  0
 23 22  1  0
 24 22  1  0
  1 25  1  0
  2 26  1  0
  2 27  1  0
  3 28  1  0
  3 29  1  0
  4 30  1  0
  4 31  1  0
  7 32  1  0
  8 33  1  0
 11 34  1  0
 13 35  1  0
 18 36  1  0
 20 37  1  0
 21 38  1  0
 22 39  1  0
 23 40  1  0
 23 41  1  0
 23 42  1  0
 24 43  1  0
 24 44  1  0
 24 45  1  0
M  ISO  8  25   5  26  13  27  13  28  13  29  13  30  13  31  13  32  14
M  ISO  8  33  14  34  14  35  14  36  14  37  14  38   9  39   8  40   8
M  ISO  5  41   8  42   8  43   8  44   8  45   8
M  END
>  <minimizedAffinity>  (1) 
-4.52853298

>  <minimizedRMSD>  (1) 
4.63356113

$$$$
