
     RDKit          3D

 34 37  0  0  0  0  0  0  0  0999 V2000
   39.0150   23.1980   34.4350 C   0  0  0  0  0  0  0  0  0  0  0  0
   40.1620   22.5660   34.0220 C   0  0  0  0  0  0  0  0  0  0  0  0
   41.1270   22.0650   34.8510 C   0  0  0  0  0  0  0  0  0  0  0  0
   40.9820   22.1830   36.2200 C   0  0  0  0  0  0  0  0  0  0  0  0
   39.8720   22.7970   36.6840 C   0  0  0  0  0  0  0  0  0  0  0  0
   39.7250   22.9160   38.0630 C   0  0  0  0  0  0  0  0  0  0  0  0
   38.6330   23.5230   38.6230 C   0  0  0  0  0  0  0  0  0  0  0  0
   37.6680   24.0220   37.7570 C   0  0  0  0  0  0  0  0  0  0  0  0
   37.8450   23.8890   36.4060 C   0  0  0  0  0  0  0  0  0  0  0  0
   38.9150   23.2920   35.8200 C   0  0  0  0  0  0  0  0  0  0  0  0
   36.3740   22.9670   32.0100 C   0  0  0  0  0  0  0  0  0  0  0  0
   36.0180   24.2610   31.6480 C   0  0  0  0  0  0  0  0  0  0  0  0
   36.7370   25.2600   32.2840 C   0  0  0  0  0  0  0  0  0  0  0  0
   37.6730   24.9140   33.1540 N   0  0  0  0  0  0  0  0  0  0  0  0
   38.0290   23.7070   33.5130 C   0  0  0  0  0  0  0  0  0  0  0  0
   37.3420   22.7590   32.9050 N   0  0  0  0  0  0  0  0  0  0  0  0
   36.4830   26.6360   32.0140 N   0  0  0  0  0  0  0  0  0  0  0  0
   36.3230   27.1830   30.7950 C   0  0  0  0  0  0  0  0  0  0  0  0
   36.1020   28.4930   30.9240 N   0  0  0  0  0  0  0  0  0  0  0  0
   36.1220   28.7770   32.2310 C   0  0  0  0  0  0  0  0  0  0  0  0
   36.3560   27.6340   32.8830 N   0  0  0  0  0  0  0  0  0  0  0  0
   35.9180   30.0910   32.6940 N   0  0  0  0  0  0  0  0  0  0  0  0
   40.3167   22.4539   32.9387 H   0  0  0  0  0  0  0  0  0  0  0  0
   42.0147   21.5703   34.4300 H   0  0  0  0  0  0  0  0  0  0  0  0
   41.7446   21.7903   36.9086 H   0  0  0  0  0  0  0  0  0  0  0  0
   40.5079   22.5111   38.7211 H   0  0  0  0  0  0  0  0  0  0  0  0
   38.5242   23.6120   39.7140 H   0  0  0  0  0  0  0  0  0  0  0  0
   36.7703   24.5192   38.1531 H   0  0  0  0  0  0  0  0  0  0  0  0
   37.0636   24.2953   35.7470 H   0  0  0  0  0  0  0  0  0  0  0  0
   35.8551   22.1097   31.5563 H   0  0  0  0  0  0  0  0  0  0  0  0
   35.2272   24.4751   30.9139 H   0  0  0  0  0  0  0  0  0  0  0  0
   36.3674   26.6362   29.8416 H   0  0  0  0  0  0  0  0  0  0  0  0
   35.9371   30.2898   33.7045 H   0  0  0  0  0  0  0  0  0  0  0  0
   35.7497   30.8534   32.0222 H   0  0  0  0  0  0  0  0  0  0  0  0
  1 10  1  0
  2  1  2  0
  2  3  1  0
  3  4  2  0
  4  5  1  0
  5  6  2  0
  6  7  1  0
  8  7  2  0
  9  8  1  0
 10  9  2  0
 10  5  1  0
 11 16  2  0
 12 11  1  0
 12 13  2  0
 13 14  1  0
 14 15  2  0
 15  1  1  0
 16 15  1  0
 17 13  1  0
 17 21  1  0
 18 19  2  0
 18 17  1  0
 19 20  1  0
 20 22  1  0
 20 21  2  0
  2 23  1  0
  3 24  1  0
  4 25  1  0
  6 26  1  0
  7 27  1  0
  8 28  1  0
  9 29  1  0
 11 30  1  0
 12 31  1  0
 18 32  1  0
 22 33  1  0
 22 34  1  0
M  ISO  8  23  14  24  14  25  14  26  14  27  14  28  14  29  14  30  14
M  ISO  2  31  14  32  14
M  END
>  <minimizedAffinity>  (1) 
-5.79559422

>  <minimizedRMSD>  (1) 
0.204866797

$$$$
