
     RDKit          3D

 45 47  0  0  1  0  0  0  0  0999 V2000
   38.8790   25.1550   32.5710 C   0  0  0  0  0  0  0  0  0  0  0  0
   39.3740   24.0770   31.8460 C   0  0  0  0  0  0  0  0  0  0  0  0
   40.0540   23.3210   32.7890 C   0  0  0  0  0  0  0  0  0  0  0  0
   39.9740   23.9100   34.0090 N   0  0  0  0  0  0  0  0  0  0  0  0
   39.2610   25.0120   33.8520 N   0  0  0  0  0  0  0  0  0  0  0  0
   36.7020   26.1050   31.8900 C   0  0  0  0  0  0  0  0  0  0  0  0
   38.0900   26.2340   32.0270 C   0  0  0  0  0  0  0  0  0  0  0  0
   38.7140   27.3970   31.6410 C   0  0  0  0  0  0  0  0  0  0  0  0
   37.9010   28.3900   31.1290 N   0  0  0  0  0  0  0  0  0  0  0  0
   36.5610   28.2430   31.0060 C   0  0  0  0  0  0  0  0  0  0  0  0
   35.9830   27.1180   31.3830 N   0  0  0  0  0  0  0  0  0  0  0  0
   35.7920   29.3150   30.4680 N   0  0  0  0  0  0  0  0  0  0  0  0
   34.9810   30.1430   31.2940 C   0  0  0  0  0  0  0  0  0  0  0  0
   34.8690   29.8540   32.5470 N   0  0  0  0  0  0  0  0  0  0  0  0
   34.3200   31.2590   30.7210 N   0  0  0  0  0  0  0  0  0  0  0  0
   34.2970   30.4090   33.2080 H   0  0  0  0  0  0  0  0  0  0  0  0
   39.7340   23.6200   36.3700 N   0  0  0  0  0  0  0  0  0  0  0  0
   40.4300   22.8430   37.4030 C   0  0  0  0  0  0  0  0  0  0  0  0
   41.0890   21.6760   36.6930 C   0  0  0  0  0  0  0  0  0  0  0  0
   40.7300   21.9070   35.2350 C   0  0  0  0  0  0  0  0  0  0  0  0
   40.5620   23.4040   35.2140 C   0  0  1  0  0  0  0  0  0  0  0  0
   41.9150   24.0580   35.3730 C   0  0  0  0  0  0  0  0  0  0  0  0
   41.8690   25.5310   35.0650 C   0  0  0  0  0  0  0  0  0  0  0  0
   42.8690   23.4340   34.3900 C   0  0  0  0  0  0  0  0  0  0  0  0
   39.2540   23.8712   30.7721 H   0  0  0  0  0  0  0  0  0  0  0  0
   40.5822   22.3794   32.5784 H   0  0  0  0  0  0  0  0  0  0  0  0
   36.2022   25.1746   32.1976 H   0  0  0  0  0  0  0  0  0  0  0  0
   39.8019   27.5297   31.7348 H   0  0  0  0  0  0  0  0  0  0  0  0
   35.8238   29.4955   29.4544 H   0  0  0  0  0  0  0  0  0  0  0  0
   33.7303   31.8657   31.3084 H   0  0  0  0  0  0  0  0  0  0  0  0
   34.4296   31.4629   29.7174 H   0  0  0  0  0  0  0  0  0  0  0  0
   38.7792   23.2654   36.2165 H   0  0  0  0  0  0  0  0  0  0  0  0
   41.1902   23.4647   37.8985 H   0  0  0  0  0  0  0  0  0  0  0  0
   39.7307   22.4942   38.1772 H   0  0  0  0  0  0  0  0  0  0  0  0
   42.1793   21.6914   36.8377 H   0  0  0  0  0  0  0  0  0  0  0  0
   40.7541   20.6981   37.0693 H   0  0  0  0  0  0  0  0  0  0  0  0
   41.5383   21.5818   34.5635 H   0  0  0  0  0  0  0  0  0  0  0  0
   39.8480   21.3469   34.8909 H   0  0  0  0  0  0  0  0  0  0  0  0
   42.2317   23.9159   36.4168 H   0  0  0  0  0  0  0  0  0  0  0  0
   41.8512   26.1018   36.0051 H   0  0  0  0  0  0  0  0  0  0  0  0
   42.7588   25.8117   34.4824 H   0  0  0  0  0  0  0  0  0  0  0  0
   40.9634   25.7557   34.4824 H   0  0  0  0  0  0  0  0  0  0  0  0
   43.6682   22.9113   34.9360 H   0  0  0  0  0  0  0  0  0  0  0  0
   42.3264   22.7157   33.7578 H   0  0  0  0  0  0  0  0  0  0  0  0
   43.3096   24.2190   33.7578 H   0  0  0  0  0  0  0  0  0  0  0  0
  1  5  2  0
  2  1  1  0
  2  3  2  0
  3  4  1  0
  4 21  1  0
  5  4  1  0
  6  7  2  0
  7  1  1  0
  8  7  1  0
  9  8  2  0
 10  9  1  0
 10 11  2  0
 11  6  1  0
 12 10  1  0
 12 13  1  0
 13 14  2  0
 14 16  1  0
 15 13  1  0
 17 18  1  0
 19 18  1  0
 20 19  1  0
 21 20  1  0
 21 22  1  1
 21 17  1  0
 23 22  1  0
 24 22  1  0
  2 25  1  0
  3 26  1  0
  6 27  1  0
  8 28  1  0
 12 29  1  0
 15 30  1  0
 15 31  1  0
 17 32  1  0
 18 33  1  0
 18 34  1  0
 19 35  1  0
 19 36  1  0
 20 37  1  0
 20 38  1  0
 22 39  1  0
 23 40  1  0
 23 41  1  0
 23 42  1  0
 24 43  1  0
 24 44  1  0
 24 45  1  0
M  ISO  8  25  14  26  14  27  14  28  14  32   5  33  13  34  13  35  13
M  ISO  8  36  13  37  13  38  13  39   8  40   8  41   8  42   8  43   8
M  ISO  2  44   8  45   8
M  END
>  <minimizedAffinity>  (1) 
-4.43051481

>  <minimizedRMSD>  (1) 
2.78399968

$$$$
