
     RDKit          3D

 40 42  0  0  1  0  0  0  0  0999 V2000
   39.2170   22.1190   37.0250 N   0  0  0  0  0  0  0  0  0  0  0  0
   40.3800   22.6360   37.7570 C   0  0  0  0  0  0  0  0  0  0  0  0
   41.5440   22.6190   36.7930 C   0  0  0  0  0  0  0  0  0  0  0  0
   40.9230   22.0990   35.5070 C   0  0  0  0  0  0  0  0  0  0  0  0
   39.5070   22.5600   35.6760 C   0  0  1  0  0  0  0  0  0  0  0  0
   37.7510   21.0920   32.9040 C   0  0  0  0  0  0  0  0  0  0  0  0
   36.6740   21.2870   33.7820 C   0  0  0  0  0  0  0  0  0  0  0  0
   37.2660   21.8620   34.9030 C   0  0  0  0  0  0  0  0  0  0  0  0
   38.5930   22.0020   34.7190 N   0  0  0  0  0  0  0  0  0  0  0  0
   38.8530   21.5290   33.5060 N   0  0  0  0  0  0  0  0  0  0  0  0
   38.7240   20.5400   30.7070 C   0  0  0  0  0  0  0  0  0  0  0  0
   37.6410   20.5160   31.5890 C   0  0  0  0  0  0  0  0  0  0  0  0
   36.4570   19.9360   31.1980 C   0  0  0  0  0  0  0  0  0  0  0  0
   36.4030   19.4010   29.9390 N   0  0  0  0  0  0  0  0  0  0  0  0
   37.4770   19.4390   29.0980 C   0  0  0  0  0  0  0  0  0  0  0  0
   38.6090   20.0000   29.4870 N   0  0  0  0  0  0  0  0  0  0  0  0
   37.2800   18.8310   27.7800 C   0  0  0  0  0  0  0  0  0  0  0  0
   36.1150   18.7480   27.3250 O   0  0  0  0  0  0  0  0  0  0  0  0
   39.4420   24.0640   35.5580 C   0  0  0  0  0  0  0  0  0  0  0  0
   38.0600   24.5880   35.8750 C   0  0  0  0  0  0  0  0  0  0  0  0
   39.7320   24.4310   34.1150 C   0  0  0  0  0  0  0  0  0  0  0  0
   39.1625   21.0920   37.0818 H   0  0  0  0  0  0  0  0  0  0  0  0
   40.1863   23.6634   38.0991 H   0  0  0  0  0  0  0  0  0  0  0  0
   40.5930   22.0223   38.6447 H   0  0  0  0  0  0  0  0  0  0  0  0
   41.9542   23.6299   36.6522 H   0  0  0  0  0  0  0  0  0  0  0  0
   42.3860   22.0045   37.1445 H   0  0  0  0  0  0  0  0  0  0  0  0
   40.9872   21.0029   35.4402 H   0  0  0  0  0  0  0  0  0  0  0  0
   41.4120   22.4538   34.5878 H   0  0  0  0  0  0  0  0  0  0  0  0
   35.6133   21.0433   33.6223 H   0  0  0  0  0  0  0  0  0  0  0  0
   36.7251   22.1607   35.8130 H   0  0  0  0  0  0  0  0  0  0  0  0
   39.6729   21.0033   31.0152 H   0  0  0  0  0  0  0  0  0  0  0  0
   35.5872   19.9032   31.8706 H   0  0  0  0  0  0  0  0  0  0  0  0
   38.1367   18.4550   27.2015 H   0  0  0  0  0  0  0  0  0  0  0  0
   40.1656   24.4976   36.2640 H   0  0  0  0  0  0  0  0  0  0  0  0
   37.9281   24.6380   36.9659 H   0  0  0  0  0  0  0  0  0  0  0  0
   37.9415   25.5935   35.4449 H   0  0  0  0  0  0  0  0  0  0  0  0
   37.3047   23.9139   35.4449 H   0  0  0  0  0  0  0  0  0  0  0  0
   40.4138   25.2938   34.0860 H   0  0  0  0  0  0  0  0  0  0  0  0
   40.2010   23.5758   33.6063 H   0  0  0  0  0  0  0  0  0  0  0  0
   38.7916   24.6895   33.6063 H   0  0  0  0  0  0  0  0  0  0  0  0
  1  2  1  0
  3  2  1  0
  4  5  1  0
  4  3  1  0
  5 19  1  1
  5  1  1  0
  6 10  2  0
  6  7  1  0
  7  8  2  0
  9  8  1  0
  9  5  1  0
 10  9  1  0
 11 12  2  0
 12  6  1  0
 13 12  1  0
 14 13  2  0
 15 16  2  0
 15 14  1  0
 16 11  1  0
 17 15  1  0
 18 17  2  0
 19 20  1  0
 21 19  1  0
  1 22  1  0
  2 23  1  0
  2 24  1  0
  3 25  1  0
  3 26  1  0
  4 27  1  0
  4 28  1  0
  7 29  1  0
  8 30  1  0
 11 31  1  0
 13 32  1  0
 17 33  1  0
 19 34  1  0
 20 35  1  0
 20 36  1  0
 20 37  1  0
 21 38  1  0
 21 39  1  0
 21 40  1  0
M  ISO  8  22   5  23  13  24  13  25  13  26  13  27  13  28  13  29  14
M  ISO  8  30  14  31  14  32  14  33   6  34   8  35   8  36   8  37   8
M  ISO  3  38   8  39   8  40   8
M  END
>  <minimizedAffinity>  (1) 
-4.36596966

>  <minimizedRMSD>  (1) 
4.74304056

$$$$
