
     RDKit          3D

 41 43  0  0  1  0  0  0  0  0999 V2000
   41.4760   21.7120   36.8630 N   0  0  0  0  0  0  0  0  0  0  0  0
   42.2510   20.7430   37.6470 C   0  0  0  0  0  0  0  0  0  0  0  0
   43.0820   19.9520   36.6640 C   0  0  0  0  0  0  0  0  0  0  0  0
   42.7310   20.5740   35.3210 C   0  0  0  0  0  0  0  0  0  0  0  0
   42.3470   21.9680   35.7470 C   0  0  1  0  0  0  0  0  0  0  0  0
   40.4150   24.1660   33.6810 C   0  0  0  0  0  0  0  0  0  0  0  0
   41.2290   23.5840   32.6960 C   0  0  0  0  0  0  0  0  0  0  0  0
   42.0310   22.7000   33.4050 C   0  0  0  0  0  0  0  0  0  0  0  0
   41.7250   22.7430   34.7170 N   0  0  0  0  0  0  0  0  0  0  0  0
   40.7520   23.6300   34.8610 N   0  0  0  0  0  0  0  0  0  0  0  0
   38.0560   24.8860   33.6180 C   0  0  0  0  0  0  0  0  0  0  0  0
   39.4070   25.1610   33.4180 C   0  0  0  0  0  0  0  0  0  0  0  0
   39.7900   26.4000   32.9630 C   0  0  0  0  0  0  0  0  0  0  0  0
   38.7820   27.3130   32.7270 N   0  0  0  0  0  0  0  0  0  0  0  0
   37.4750   27.0120   32.9320 C   0  0  0  0  0  0  0  0  0  0  0  0
   37.1280   25.8100   33.3730 N   0  0  0  0  0  0  0  0  0  0  0  0
   36.4450   28.0680   32.6510 C   0  0  0  0  0  0  0  0  0  0  0  0
   35.3840   27.4890   31.9430 F   0  0  0  0  0  0  0  0  0  0  0  0
   35.9540   28.4990   33.8610 F   0  0  0  0  0  0  0  0  0  0  0  0
   36.9830   29.1180   31.9680 F   0  0  0  0  0  0  0  0  0  0  0  0
   43.6040   22.7030   36.1790 C   0  0  0  0  0  0  0  0  0  0  0  0
   43.3180   24.1460   36.5190 C   0  0  0  0  0  0  0  0  0  0  0  0
   44.5840   22.6990   35.0370 C   0  0  0  0  0  0  0  0  0  0  0  0
   40.5801   21.3096   36.5526 H   0  0  0  0  0  0  0  0  0  0  0  0
   42.9046   21.2681   38.3591 H   0  0  0  0  0  0  0  0  0  0  0  0
   41.5881   20.0824   38.2252 H   0  0  0  0  0  0  0  0  0  0  0  0
   44.1552   20.0610   36.8793 H   0  0  0  0  0  0  0  0  0  0  0  0
   42.8779   18.8718   36.7023 H   0  0  0  0  0  0  0  0  0  0  0  0
   41.8907   20.0517   34.8402 H   0  0  0  0  0  0  0  0  0  0  0  0
   43.5381   20.5319   34.5748 H   0  0  0  0  0  0  0  0  0  0  0  0
   41.2308   23.7824   31.6140 H   0  0  0  0  0  0  0  0  0  0  0  0
   42.8048   22.0571   32.9601 H   0  0  0  0  0  0  0  0  0  0  0  0
   37.7517   23.8938   33.9827 H   0  0  0  0  0  0  0  0  0  0  0  0
   40.8476   26.6517   32.7952 H   0  0  0  0  0  0  0  0  0  0  0  0
   44.0018   22.1928   37.0687 H   0  0  0  0  0  0  0  0  0  0  0  0
   43.2939   24.2673   37.6120 H   0  0  0  0  0  0  0  0  0  0  0  0
   44.1069   24.7856   36.0963 H   0  0  0  0  0  0  0  0  0  0  0  0
   42.3448   24.4364   36.0963 H   0  0  0  0  0  0  0  0  0  0  0  0
   45.6098   22.6948   35.4341 H   0  0  0  0  0  0  0  0  0  0  0  0
   44.4256   21.8015   34.4210 H   0  0  0  0  0  0  0  0  0  0  0  0
   44.4329   23.5978   34.4210 H   0  0  0  0  0  0  0  0  0  0  0  0
  1  2  1  0
  3  2  1  0
  4  5  1  0
  4  3  1  0
  5 21  1  1
  5  1  1  0
  6 10  2  0
  7  8  2  0
  7  6  1  0
  8  9  1  0
  9 10  1  0
  9  5  1  0
 12 11  2  0
 12  6  1  0
 13 12  1  0
 14 15  1  0
 14 13  2  0
 15 16  2  0
 16 11  1  0
 17 15  1  0
 17 19  1  0
 18 17  1  0
 20 17  1  0
 21 22  1  0
 23 21  1  0
  1 24  1  0
  2 25  1  0
  2 26  1  0
  3 27  1  0
  3 28  1  0
  4 29  1  0
  4 30  1  0
  7 31  1  0
  8 32  1  0
 11 33  1  0
 13 34  1  0
 21 35  1  0
 22 36  1  0
 22 37  1  0
 22 38  1  0
 23 39  1  0
 23 40  1  0
 23 41  1  0
M  ISO  8  24   5  25  13  26  13  27  13  28  13  29  13  30  13  31  14
M  ISO  8  32  14  33  14  34  14  35   8  36   8  37   8  38   8  39   8
M  ISO  2  40   8  41   8
M  END
>  <minimizedAffinity>  (1) 
-3.99564385

>  <minimizedRMSD>  (1) 
3.2949245

$$$$
