
     RDKit          3D

 56 59  0  0  1  0  0  0  0  0999 V2000
   37.5630   24.7720   36.4720 N   0  0  0  0  0  0  0  0  0  0  0  0
   38.2360   23.7370   37.2780 C   0  0  0  0  0  0  0  0  0  0  0  0
   38.7220   22.6870   36.3080 C   0  0  0  0  0  0  0  0  0  0  0  0
   38.3080   23.2420   34.9660 C   0  0  0  0  0  0  0  0  0  0  0  0
   38.3010   24.6980   35.2310 C   0  0  1  0  0  0  0  0  0  0  0  0
   36.7140   27.1240   33.1170 C   0  0  0  0  0  0  0  0  0  0  0  0
   36.9610   26.1280   32.1650 C   0  0  0  0  0  0  0  0  0  0  0  0
   37.5860   25.1290   32.9100 C   0  0  0  0  0  0  0  0  0  0  0  0
   37.7040   25.4940   34.1970 N   0  0  0  0  0  0  0  0  0  0  0  0
   37.1710   26.7010   34.2930 N   0  0  0  0  0  0  0  0  0  0  0  0
   35.5690   29.1740   33.8600 C   0  0  0  0  0  0  0  0  0  0  0  0
   36.0690   28.3860   32.8270 C   0  0  0  0  0  0  0  0  0  0  0  0
   35.9580   28.7960   31.5110 C   0  0  0  0  0  0  0  0  0  0  0  0
   35.3380   30.0020   31.2950 N   0  0  0  0  0  0  0  0  0  0  0  0
   34.8530   30.7650   32.3150 C   0  0  0  0  0  0  0  0  0  0  0  0
   34.9730   30.3440   33.5720 N   0  0  0  0  0  0  0  0  0  0  0  0
   34.2060   32.0570   31.9250 C   0  0  0  0  0  0  0  0  0  0  0  0
   39.7240   25.2020   35.4260 C   0  0  2  0  0  0  0  0  0  0  0  0
   39.8440   26.6880   35.2660 C   0  0  0  0  0  0  0  0  0  0  0  0
   40.5950   24.5700   34.3520 C   0  0  0  0  0  0  0  0  0  0  0  0
   41.9000   24.5110   34.9360 N   0  0  0  0  0  0  0  0  0  0  0  0
   42.1170   23.6420   35.9950 C   0  0  0  0  0  0  0  0  0  0  0  0
   43.5040   23.1560   36.2240 C   0  0  0  0  0  0  0  0  0  0  0  0
   44.4950   24.2420   35.8300 C   0  0  0  0  0  0  0  0  0  0  0  0
   44.2920   24.3940   34.3150 C   0  0  0  0  0  0  0  0  0  0  0  0
   42.9510   25.0210   34.1590 C   0  0  0  0  0  0  0  0  0  0  0  0
   36.5671   24.5503   36.3310 H   0  0  0  0  0  0  0  0  0  0  0  0
   39.0860   24.1730   37.8234 H   0  0  0  0  0  0  0  0  0  0  0  0
   37.5511   23.3045   38.0222 H   0  0  0  0  0  0  0  0  0  0  0  0
   39.8142   22.5703   36.3670 H   0  0  0  0  0  0  0  0  0  0  0  0
   38.3077   21.6880   36.5090 H   0  0  0  0  0  0  0  0  0  0  0  0
   37.3100   22.8829   34.6745 H   0  0  0  0  0  0  0  0  0  0  0  0
   38.9665   22.9427   34.1373 H   0  0  0  0  0  0  0  0  0  0  0  0
   36.7207   26.1324   31.0916 H   0  0  0  0  0  0  0  0  0  0  0  0
   37.9356   24.1705   32.4988 H   0  0  0  0  0  0  0  0  0  0  0  0
   35.6610   28.8416   34.9045 H   0  0  0  0  0  0  0  0  0  0  0  0
   36.3461   28.1878   30.6806 H   0  0  0  0  0  0  0  0  0  0  0  0
   33.9265   32.6152   32.8307 H   0  0  0  0  0  0  0  0  0  0  0  0
   34.9111   32.6549   31.3288 H   0  0  0  0  0  0  0  0  0  0  0  0
   33.3049   31.8505   31.3288 H   0  0  0  0  0  0  0  0  0  0  0  0
   40.0303   24.9366   36.4486 H   0  0  0  0  0  0  0  0  0  0  0  0
   39.8823   27.1617   36.2580 H   0  0  0  0  0  0  0  0  0  0  0  0
   40.7641   26.9239   34.7113 H   0  0  0  0  0  0  0  0  0  0  0  0
   38.9737   27.0685   34.7113 H   0  0  0  0  0  0  0  0  0  0  0  0
   40.6035   25.1904   33.4437 H   0  0  0  0  0  0  0  0  0  0  0  0
   40.2287   23.5787   34.0469 H   0  0  0  0  0  0  0  0  0  0  0  0
   41.7947   24.1566   36.9122 H   0  0  0  0  0  0  0  0  0  0  0  0
   41.5483   22.7382   35.7309 H   0  0  0  0  0  0  0  0  0  0  0  0
   43.6348   22.9091   37.2879 H   0  0  0  0  0  0  0  0  0  0  0  0
   43.6828   22.2583   35.6139 H   0  0  0  0  0  0  0  0  0  0  0  0
   44.2711   25.1843   36.3515 H   0  0  0  0  0  0  0  0  0  0  0  0
   45.5316   23.9877   36.0961 H   0  0  0  0  0  0  0  0  0  0  0  0
   45.0716   25.0398   33.8847 H   0  0  0  0  0  0  0  0  0  0  0  0
   44.3558   23.4274   33.7938 H   0  0  0  0  0  0  0  0  0  0  0  0
   43.0558   26.0876   34.4070 H   0  0  0  0  0  0  0  0  0  0  0  0
   42.6608   24.8038   33.1204 H   0  0  0  0  0  0  0  0  0  0  0  0
  1  2  1  0
  3  2  1  0
  4  5  1  0
  4  3  1  0
  5 18  1  0
  5  1  1  0
  6 10  2  0
  7  8  2  0
  7  6  1  0
  8  9  1  0
  9 10  1  0
  5  9  1  6
 12  6  1  0
 12 11  2  0
 13 12  1  0
 14 13  2  0
 14 15  1  0
 15 16  2  0
 16 11  1  0
 17 15  1  0
 19 18  1  0
 20 21  1  0
 20 18  1  0
 21 22  1  0
 22 23  1  0
 24 23  1  0
 25 24  1  0
 26 25  1  0
 26 21  1  0
  1 27  1  0
  2 28  1  0
  2 29  1  0
  3 30  1  0
  3 31  1  0
  4 32  1  0
  4 33  1  0
  7 34  1  0
  8 35  1  0
 11 36  1  0
 13 37  1  0
 17 38  1  0
 17 39  1  0
 17 40  1  0
 18 41  1  1
 19 42  1  0
 19 43  1  0
 19 44  1  0
 20 45  1  0
 20 46  1  0
 22 47  1  0
 22 48  1  0
 23 49  1  0
 23 50  1  0
 24 51  1  0
 24 52  1  0
 25 53  1  0
 25 54  1  0
 26 55  1  0
 26 56  1  0
M  ISO  8  27   5  28  13  29  13  30  13  31  13  32  13  33  13  34  14
M  ISO  8  35  14  36  14  37  14  38   8  39   8  40   8  41   8  42   8
M  ISO  8  43   8  44   8  45   8  46   8  47  13  48  13  49  13  50  13
M  ISO  6  51  13  52  13  53  13  54  13  55  13  56  13
M  END
>  <minimizedAffinity>  (1) 
-4.93907404

>  <minimizedRMSD>  (1) 
4.70090294

$$$$
