
     RDKit          3D

 57 60  0  0  1  0  0  0  0  0999 V2000
   38.9480   23.8050   36.8560 N   0  0  0  0  0  0  0  0  0  0  0  0
   39.8430   22.9780   37.6760 C   0  0  0  0  0  0  0  0  0  0  0  0
   40.4120   21.8950   36.7710 C   0  0  0  0  0  0  0  0  0  0  0  0
   39.7470   22.2090   35.4370 C   0  0  0  0  0  0  0  0  0  0  0  0
   39.5590   23.6770   35.5350 C   0  0  1  0  0  0  0  0  0  0  0  0
   37.5390   25.6480   33.3120 C   0  0  0  0  0  0  0  0  0  0  0  0
   37.5270   24.4170   32.6180 C   0  0  0  0  0  0  0  0  0  0  0  0
   38.2960   23.5780   33.4160 C   0  0  0  0  0  0  0  0  0  0  0  0
   38.7400   24.2370   34.5020 N   0  0  0  0  0  0  0  0  0  0  0  0
   38.2700   25.4800   34.4130 N   0  0  0  0  0  0  0  0  0  0  0  0
   36.5950   27.8770   33.7630 C   0  0  0  0  0  0  0  0  0  0  0  0
   36.8700   26.8390   32.8680 C   0  0  0  0  0  0  0  0  0  0  0  0
   36.5020   26.9390   31.5310 C   0  0  0  0  0  0  0  0  0  0  0  0
   35.8640   28.1000   31.1630 N   0  0  0  0  0  0  0  0  0  0  0  0
   35.6070   29.0950   32.0470 C   0  0  0  0  0  0  0  0  0  0  0  0
   35.9710   28.9800   33.3350 N   0  0  0  0  0  0  0  0  0  0  0  0
   34.9030   30.3270   31.5440 C   0  0  0  0  0  0  0  0  0  0  0  0
   40.8890   24.3920   35.5000 C   0  0  2  0  0  0  0  0  0  0  0  0
   40.7540   25.8430   35.1070 C   0  0  0  0  0  0  0  0  0  0  0  0
   41.7510   23.7370   34.4640 C   0  0  0  0  0  0  0  0  0  0  0  0
   43.2070   23.6650   34.8760 C   0  0  0  0  0  0  0  0  0  0  0  0
   43.6220   22.2190   34.6980 C   0  0  0  0  0  0  0  0  0  0  0  0
   44.6290   21.7520   35.7110 C   0  0  0  0  0  0  0  0  0  0  0  0
   45.5840   22.8160   36.1410 C   0  0  0  0  0  0  0  0  0  0  0  0
   44.9400   24.1120   36.5040 C   0  0  0  0  0  0  0  0  0  0  0  0
   43.4200   23.9900   36.3390 C   0  0  0  0  0  0  0  0  0  0  0  0
   37.9858   23.4377   36.8624 H   0  0  0  0  0  0  0  0  0  0  0  0
   40.6576   23.5947   38.0835 H   0  0  0  0  0  0  0  0  0  0  0  0
   39.2974   22.5330   38.5212 H   0  0  0  0  0  0  0  0  0  0  0  0
   41.5070   21.9704   36.6984 H   0  0  0  0  0  0  0  0  0  0  0  0
   40.2204   20.8732   37.1305 H   0  0  0  0  0  0  0  0  0  0  0  0
   38.7841   21.6870   35.3359 H   0  0  0  0  0  0  0  0  0  0  0  0
   40.3303   21.8903   34.5605 H   0  0  0  0  0  0  0  0  0  0  0  0
   37.0261   24.1785   31.6682 H   0  0  0  0  0  0  0  0  0  0  0  0
   38.5115   22.5230   33.1912 H   0  0  0  0  0  0  0  0  0  0  0  0
   36.8915   27.7868   34.8184 H   0  0  0  0  0  0  0  0  0  0  0  0
   36.7094   26.1354   30.8090 H   0  0  0  0  0  0  0  0  0  0  0  0
   34.5596   30.9279   32.3990 H   0  0  0  0  0  0  0  0  0  0  0  0
   35.5973   30.9222   30.9327 H   0  0  0  0  0  0  0  0  0  0  0  0
   34.0377   30.0310   30.9327 H   0  0  0  0  0  0  0  0  0  0  0  0
   41.3188   24.3366   36.5110 H   0  0  0  0  0  0  0  0  0  0  0  0
   40.6962   26.4644   36.0128 H   0  0  0  0  0  0  0  0  0  0  0  0
   41.6280   26.1443   34.5109 H   0  0  0  0  0  0  0  0  0  0  0  0
   39.8394   25.9779   34.5109 H   0  0  0  0  0  0  0  0  0  0  0  0
   41.6776   24.3129   33.5297 H   0  0  0  0  0  0  0  0  0  0  0  0
   41.3906   22.7057   34.3353 H   0  0  0  0  0  0  0  0  0  0  0  0
   43.7773   24.3875   34.2738 H   0  0  0  0  0  0  0  0  0  0  0  0
   42.7255   21.5872   34.7823 H   0  0  0  0  0  0  0  0  0  0  0  0
   44.0987   22.1400   33.7098 H   0  0  0  0  0  0  0  0  0  0  0  0
   44.0878   21.3916   36.5983 H   0  0  0  0  0  0  0  0  0  0  0  0
   45.2237   20.9600   35.2323 H   0  0  0  0  0  0  0  0  0  0  0  0
   46.1362   22.4485   37.0185 H   0  0  0  0  0  0  0  0  0  0  0  0
   46.2359   23.0200   35.2787 H   0  0  0  0  0  0  0  0  0  0  0  0
   45.1769   24.3593   37.5493 H   0  0  0  0  0  0  0  0  0  0  0  0
   45.3183   24.9073   35.8449 H   0  0  0  0  0  0  0  0  0  0  0  0
   42.9259   24.9375   36.6000 H   0  0  0  0  0  0  0  0  0  0  0  0
   42.9944   23.2194   36.9986 H   0  0  0  0  0  0  0  0  0  0  0  0
  1  2  1  0
  3  2  1  0
  4  5  1  0
  4  3  1  0
  5 18  1  0
  5  1  1  0
  6 10  2  0
  7  6  1  0
  7  8  2  0
  8  9  1  0
  5  9  1  6
 10  9  1  0
 12  6  1  0
 12 11  2  0
 13 12  1  0
 14 13  2  0
 14 15  1  0
 15 16  2  0
 16 11  1  0
 17 15  1  0
 19 18  1  0
 20 21  1  0
 20 18  1  0
 21 26  1  0
 22 21  1  0
 22 23  1  0
 23 24  1  0
 24 25  1  0
 26 25  1  0
  1 27  1  0
  2 28  1  0
  2 29  1  0
  3 30  1  0
  3 31  1  0
  4 32  1  0
  4 33  1  0
  7 34  1  0
  8 35  1  0
 11 36  1  0
 13 37  1  0
 17 38  1  0
 17 39  1  0
 17 40  1  0
 18 41  1  1
 19 42  1  0
 19 43  1  0
 19 44  1  0
 20 45  1  0
 20 46  1  0
 21 47  1  0
 22 48  1  0
 22 49  1  0
 23 50  1  0
 23 51  1  0
 24 52  1  0
 24 53  1  0
 25 54  1  0
 25 55  1  0
 26 56  1  0
 26 57  1  0
M  ISO  8  27   5  28  13  29  13  30  13  31  13  32  13  33  13  34  14
M  ISO  8  35  14  36  14  37  14  38   8  39   8  40   8  41   8  42   8
M  ISO  8  43   8  44   8  45   8  46   8  47  13  48  13  49  13  50  13
M  ISO  7  51  13  52  13  53  13  54  13  55  13  56  13  57  13
M  END
>  <minimizedAffinity>  (1) 
-4.92505646

>  <minimizedRMSD>  (1) 
3.93042541

$$$$
