
     RDKit          3D

 52 56  0  0  1  0  0  0  0  0999 V2000
   38.2730   24.2590   36.6010 N   0  0  0  0  0  0  0  0  0  0  0  0
   39.0640   23.3520   37.4540 C   0  0  0  0  0  0  0  0  0  0  0  0
   39.5430   22.2120   36.5840 C   0  0  0  0  0  0  0  0  0  0  0  0
   38.9730   22.5830   35.2210 C   0  0  0  0  0  0  0  0  0  0  0  0
   38.9250   24.0660   35.3080 C   0  0  1  0  0  0  0  0  0  0  0  0
   37.1790   26.1950   33.0090 C   0  0  0  0  0  0  0  0  0  0  0  0
   37.1100   24.9820   32.2940 C   0  0  0  0  0  0  0  0  0  0  0  0
   37.7720   24.0760   33.1220 C   0  0  0  0  0  0  0  0  0  0  0  0
   38.2040   24.6920   34.2390 N   0  0  0  0  0  0  0  0  0  0  0  0
   37.8330   25.9630   34.1420 N   0  0  0  0  0  0  0  0  0  0  0  0
   36.1530   28.3910   33.4380 C   0  0  0  0  0  0  0  0  0  0  0  0
   36.6270   27.4390   32.5470 C   0  0  0  0  0  0  0  0  0  0  0  0
   36.5750   27.6760   31.1720 C   0  0  0  0  0  0  0  0  0  0  0  0
   36.0370   28.8820   30.7760 N   0  0  0  0  0  0  0  0  0  0  0  0
   35.5810   29.7920   31.6740 C   0  0  0  0  0  0  0  0  0  0  0  0
   35.6420   29.5420   32.9820 N   0  0  0  0  0  0  0  0  0  0  0  0
   35.0140   31.0740   31.1210 C   0  0  0  0  0  0  0  0  0  0  0  0
   40.3280   24.6370   35.3110 C   0  0  2  0  0  0  0  0  0  0  0  0
   40.3310   26.1330   35.1280 C   0  0  0  0  0  0  0  0  0  0  0  0
   41.0960   24.0240   34.1790 C   0  0  0  0  0  0  0  0  0  0  0  0
   42.3570   23.5120   34.7240 N   0  0  0  0  0  0  0  0  0  0  0  0
   43.3320   24.2950   35.2740 C   0  0  0  0  0  0  0  0  0  0  0  0
   44.3800   23.5590   35.6860 N   0  0  0  0  0  0  0  0  0  0  0  0
   44.1010   22.2590   35.4100 C   0  0  0  0  0  0  0  0  0  0  0  0
   44.7770   21.0930   35.6030 C   0  0  0  0  0  0  0  0  0  0  0  0
   44.2140   19.9500   35.2110 N   0  0  0  0  0  0  0  0  0  0  0  0
   42.9820   19.9400   34.6280 C   0  0  0  0  0  0  0  0  0  0  0  0
   42.3420   21.1020   34.4520 N   0  0  0  0  0  0  0  0  0  0  0  0
   42.8600   22.2830   34.8260 C   0  0  0  0  0  0  0  0  0  0  0  0
   37.2818   23.9805   36.5700 H   0  0  0  0  0  0  0  0  0  0  0  0
   39.9256   23.8898   37.8763 H   0  0  0  0  0  0  0  0  0  0  0  0
   38.4537   22.9734   38.2872 H   0  0  0  0  0  0  0  0  0  0  0  0
   40.6417   22.1656   36.5572 H   0  0  0  0  0  0  0  0  0  0  0  0
   39.2239   21.2215   36.9404 H   0  0  0  0  0  0  0  0  0  0  0  0
   37.9691   22.1571   35.0768 H   0  0  0  0  0  0  0  0  0  0  0  0
   39.5619   22.2043   34.3726 H   0  0  0  0  0  0  0  0  0  0  0  0
   36.6444   24.7946   31.3152 H   0  0  0  0  0  0  0  0  0  0  0  0
   37.9202   23.0099   32.8951 H   0  0  0  0  0  0  0  0  0  0  0  0
   36.1969   28.2002   34.5204 H   0  0  0  0  0  0  0  0  0  0  0  0
   36.9438   26.9393   30.4431 H   0  0  0  0  0  0  0  0  0  0  0  0
   34.7221   31.7340   31.9512 H   0  0  0  0  0  0  0  0  0  0  0  0
   35.7744   31.5752   30.5041 H   0  0  0  0  0  0  0  0  0  0  0  0
   34.1316   30.8486   30.5041 H   0  0  0  0  0  0  0  0  0  0  0  0
   40.7847   24.4078   36.2851 H   0  0  0  0  0  0  0  0  0  0  0  0
   40.3320   26.6229   36.1129 H   0  0  0  0  0  0  0  0  0  0  0  0
   41.2297   26.4322   34.5688 H   0  0  0  0  0  0  0  0  0  0  0  0
   39.4335   26.4358   34.5688 H   0  0  0  0  0  0  0  0  0  0  0  0
   41.3007   24.7835   33.4101 H   0  0  0  0  0  0  0  0  0  0  0  0
   40.5175   23.2113   33.7154 H   0  0  0  0  0  0  0  0  0  0  0  0
   43.2682   25.3891   35.3681 H   0  0  0  0  0  0  0  0  0  0  0  0
   45.7709   21.0941   36.0744 H   0  0  0  0  0  0  0  0  0  0  0  0
   42.5219   18.9935   34.3078 H   0  0  0  0  0  0  0  0  0  0  0  0
  1  2  1  0
  3  2  1  0
  4  5  1  0
  4  3  1  0
  5 18  1  0
  5  1  1  0
  6 10  2  0
  7  6  1  0
  7  8  2  0
  8  9  1  0
  5  9  1  6
 10  9  1  0
 12  6  1  0
 12 11  2  0
 13 12  1  0
 14 13  2  0
 14 15  1  0
 15 16  2  0
 16 11  1  0
 17 15  1  0
 19 18  1  0
 20 21  1  0
 20 18  1  0
 21 29  1  0
 21 22  1  0
 22 23  2  0
 24 25  2  0
 24 23  1  0
 26 25  1  0
 27 26  2  0
 28 27  1  0
 28 29  2  0
 29 24  1  0
  1 30  1  0
  2 31  1  0
  2 32  1  0
  3 33  1  0
  3 34  1  0
  4 35  1  0
  4 36  1  0
  7 37  1  0
  8 38  1  0
 11 39  1  0
 13 40  1  0
 17 41  1  0
 17 42  1  0
 17 43  1  0
 18 44  1  1
 19 45  1  0
 19 46  1  0
 19 47  1  0
 20 48  1  0
 20 49  1  0
 22 50  1  0
 25 51  1  0
 27 52  1  0
M  ISO  8  30   5  31  13  32  13  33  13  34  13  35  13  36  13  37  14
M  ISO  8  38  14  39  14  40  14  41   8  42   8  43   8  44   8  45   8
M  ISO  7  46   8  47   8  48   8  49   8  50  14  51  14  52  14
M  END
>  <minimizedAffinity>  (1) 
-4.82464886

>  <minimizedRMSD>  (1) 
5.03876114

$$$$
