
     RDKit          3D

 54 57  0  0  1  0  0  0  0  0999 V2000
   41.8760   23.4620   35.8820 N   0  0  0  0  0  0  0  0  0  0  0  0
   43.0780   23.5390   36.7240 C   0  0  0  0  0  0  0  0  0  0  0  0
   44.2660   23.3310   35.8030 C   0  0  0  0  0  0  0  0  0  0  0  0
   43.6050   23.1590   34.4500 C   0  0  0  0  0  0  0  0  0  0  0  0
   42.3710   23.9550   34.6040 C   0  0  1  0  0  0  0  0  0  0  0  0
   39.5790   23.9030   32.3410 C   0  0  0  0  0  0  0  0  0  0  0  0
   40.4810   23.1200   31.6240 C   0  0  0  0  0  0  0  0  0  0  0  0
   41.6120   23.0800   32.4300 C   0  0  0  0  0  0  0  0  0  0  0  0
   41.4070   23.7930   33.5630 N   0  0  0  0  0  0  0  0  0  0  0  0
   40.1720   24.2780   33.4840 N   0  0  0  0  0  0  0  0  0  0  0  0
   37.3700   23.2290   31.4760 C   0  0  0  0  0  0  0  0  0  0  0  0
   38.2460   24.2370   31.9090 C   0  0  0  0  0  0  0  0  0  0  0  0
   37.8480   25.5530   31.9310 C   0  0  0  0  0  0  0  0  0  0  0  0
   36.5590   25.8170   31.5070 N   0  0  0  0  0  0  0  0  0  0  0  0
   35.7170   24.8260   31.0880 C   0  0  0  0  0  0  0  0  0  0  0  0
   36.1320   23.5630   31.0780 N   0  0  0  0  0  0  0  0  0  0  0  0
   34.3550   25.2600   30.6610 C   0  0  0  0  0  0  0  0  0  0  0  0
   42.6940   25.4360   34.6990 C   0  0  2  0  0  0  0  0  0  0  0  0
   41.4620   26.2910   34.7680 C   0  0  0  0  0  0  0  0  0  0  0  0
   43.4430   25.8290   33.4630 C   0  0  0  0  0  0  0  0  0  0  0  0
   44.4570   26.8210   33.7440 N   0  0  0  0  0  0  0  0  0  0  0  0
   44.5830   27.6590   32.5700 C   0  0  0  0  0  0  0  0  0  0  0  0
   45.7050   28.6380   32.8540 C   0  0  0  0  0  0  0  0  0  0  0  0
   46.0280   28.6800   34.1980 O   0  0  0  0  0  0  0  0  0  0  0  0
   46.5130   27.4890   34.6890 C   0  0  0  0  0  0  0  0  0  0  0  0
   45.7500   26.3160   34.0520 C   0  0  0  0  0  0  0  0  0  0  0  0
   41.5355   22.4931   35.8031 H   0  0  0  0  0  0  0  0  0  0  0  0
   43.1404   24.5252   37.2073 H   0  0  0  0  0  0  0  0  0  0  0  0
   43.0547   22.7795   37.5194 H   0  0  0  0  0  0  0  0  0  0  0  0
   44.9334   24.2054   35.8112 H   0  0  0  0  0  0  0  0  0  0  0  0
   44.9018   22.4811   36.0920 H   0  0  0  0  0  0  0  0  0  0  0  0
   43.3757   22.1020   34.2493 H   0  0  0  0  0  0  0  0  0  0  0  0
   44.2347   23.4782   33.6065 H   0  0  0  0  0  0  0  0  0  0  0  0
   40.3319   22.6427   30.6442 H   0  0  0  0  0  0  0  0  0  0  0  0
   42.5412   22.5456   32.1831 H   0  0  0  0  0  0  0  0  0  0  0  0
   37.6941   22.1779   31.4630 H   0  0  0  0  0  0  0  0  0  0  0  0
   38.5210   26.3548   32.2688 H   0  0  0  0  0  0  0  0  0  0  0  0
   33.7374   25.4568   31.5498 H   0  0  0  0  0  0  0  0  0  0  0  0
   34.4343   26.1774   30.0592 H   0  0  0  0  0  0  0  0  0  0  0  0
   33.8890   24.4659   30.0592 H   0  0  0  0  0  0  0  0  0  0  0  0
   43.2766   25.5924   35.6188 H   0  0  0  0  0  0  0  0  0  0  0  0
   41.2003   26.4727   35.8208 H   0  0  0  0  0  0  0  0  0  0  0  0
   41.6536   27.2513   34.2669 H   0  0  0  0  0  0  0  0  0  0  0  0
   40.6294   25.7756   34.2669 H   0  0  0  0  0  0  0  0  0  0  0  0
   42.7325   26.2427   32.7322 H   0  0  0  0  0  0  0  0  0  0  0  0
   43.9414   24.9328   33.0649 H   0  0  0  0  0  0  0  0  0  0  0  0
   43.6433   28.2012   32.3883 H   0  0  0  0  0  0  0  0  0  0  0  0
   44.7991   27.0573   31.6749 H   0  0  0  0  0  0  0  0  0  0  0  0
   46.5951   28.3331   32.2842 H   0  0  0  0  0  0  0  0  0  0  0  0
   45.3651   29.6405   32.5547 H   0  0  0  0  0  0  0  0  0  0  0  0
   47.5829   27.4029   34.4482 H   0  0  0  0  0  0  0  0  0  0  0  0
   46.3763   27.4625   35.7802 H   0  0  0  0  0  0  0  0  0  0  0  0
   45.6757   25.4771   34.7597 H   0  0  0  0  0  0  0  0  0  0  0  0
   46.2624   25.9370   33.1554 H   0  0  0  0  0  0  0  0  0  0  0  0
  1  2  1  0
  3  2  1  0
  4  5  1  0
  4  3  1  0
  5 18  1  0
  5  1  1  0
  6 10  2  0
  7  6  1  0
  7  8  2  0
  8  9  1  0
  5  9  1  6
 10  9  1  0
 11 12  2  0
 12 13  1  0
 12  6  1  0
 14 13  2  0
 15 14  1  0
 16 15  2  0
 16 11  1  0
 17 15  1  0
 18 19  1  0
 20 21  1  0
 20 18  1  0
 21 26  1  0
 22 23  1  0
 22 21  1  0
 23 24  1  0
 24 25  1  0
 26 25  1  0
  1 27  1  0
  2 28  1  0
  2 29  1  0
  3 30  1  0
  3 31  1  0
  4 32  1  0
  4 33  1  0
  7 34  1  0
  8 35  1  0
 11 36  1  0
 13 37  1  0
 17 38  1  0
 17 39  1  0
 17 40  1  0
 18 41  1  1
 19 42  1  0
 19 43  1  0
 19 44  1  0
 20 45  1  0
 20 46  1  0
 22 47  1  0
 22 48  1  0
 23 49  1  0
 23 50  1  0
 25 51  1  0
 25 52  1  0
 26 53  1  0
 26 54  1  0
M  ISO  8  27   5  28  13  29  13  30  13  31  13  32  13  33  13  34  14
M  ISO  8  35  14  36  14  37  14  38   8  39   8  40   8  41   8  42   8
M  ISO  8  43   8  44   8  45   8  46   8  47  13  48  13  49  13  50  13
M  ISO  4  51  13  52  13  53  13  54  13
M  END
>  <minimizedAffinity>  (1) 
-3.79525304

>  <minimizedRMSD>  (1) 
0.760294735

$$$$
