
     RDKit          3D

 48 51  0  0  1  0  0  0  0  0999 V2000
   41.6530   23.2520   35.8410 N   0  0  0  0  0  0  0  0  0  0  0  0
   42.7900   23.1250   36.7580 C   0  0  0  0  0  0  0  0  0  0  0  0
   44.0500   23.0490   35.9190 C   0  0  0  0  0  0  0  0  0  0  0  0
   43.4950   23.1440   34.5020 C   0  0  0  0  0  0  0  0  0  0  0  0
   42.2680   23.9510   34.7150 C   0  0  1  0  0  0  0  0  0  0  0  0
   39.6120   24.2590   32.3220 C   0  0  0  0  0  0  0  0  0  0  0  0
   40.6770   23.9300   31.4530 C   0  0  0  0  0  0  0  0  0  0  0  0
   41.7670   23.7890   32.3090 C   0  0  0  0  0  0  0  0  0  0  0  0
   41.3940   24.0140   33.5850 N   0  0  0  0  0  0  0  0  0  0  0  0
   40.0980   24.2910   33.5580 N   0  0  0  0  0  0  0  0  0  0  0  0
   37.4730   23.4860   31.3800 C   0  0  0  0  0  0  0  0  0  0  0  0
   38.2610   24.5040   31.8970 C   0  0  0  0  0  0  0  0  0  0  0  0
   37.7500   25.7990   32.0140 C   0  0  0  0  0  0  0  0  0  0  0  0
   36.4530   25.9850   31.5920 N   0  0  0  0  0  0  0  0  0  0  0  0
   35.7120   24.9580   31.0880 C   0  0  0  0  0  0  0  0  0  0  0  0
   36.2200   23.7360   30.9880 N   0  0  0  0  0  0  0  0  0  0  0  0
   34.3060   25.2760   30.6480 C   0  0  0  0  0  0  0  0  0  0  0  0
   42.6210   25.3670   35.1020 C   0  0  2  0  0  0  0  0  0  0  0  0
   41.5060   26.3440   34.8100 C   0  0  0  0  0  0  0  0  0  0  0  0
   43.8060   25.8020   34.2860 C   0  0  0  0  0  0  0  0  0  0  0  0
   44.7840   26.6250   35.1110 C   0  0  0  0  0  0  0  0  0  0  0  0
   46.2710   26.4900   34.7920 C   0  0  0  0  0  0  0  0  0  0  0  0
   45.5390   27.7240   34.3870 C   0  0  0  0  0  0  0  0  0  0  0  0
   41.2910   22.3297   35.5596 H   0  0  0  0  0  0  0  0  0  0  0  0
   42.8347   23.9999   37.4233 H   0  0  0  0  0  0  0  0  0  0  0  0
   42.6855   22.2238   37.3800 H   0  0  0  0  0  0  0  0  0  0  0  0
   44.7279   23.8868   36.1395 H   0  0  0  0  0  0  0  0  0  0  0  0
   44.6492   22.1445   36.1004 H   0  0  0  0  0  0  0  0  0  0  0  0
   43.2560   22.1495   34.0971 H   0  0  0  0  0  0  0  0  0  0  0  0
   44.1964   23.5797   33.7752 H   0  0  0  0  0  0  0  0  0  0  0  0
   40.6513   23.8130   30.3595 H   0  0  0  0  0  0  0  0  0  0  0  0
   42.7873   23.5307   31.9892 H   0  0  0  0  0  0  0  0  0  0  0  0
   37.8813   22.4684   31.2923 H   0  0  0  0  0  0  0  0  0  0  0  0
   38.3514   26.6251   32.4212 H   0  0  0  0  0  0  0  0  0  0  0  0
   33.6686   25.4202   31.5329 H   0  0  0  0  0  0  0  0  0  0  0  0
   34.3097   26.1960   30.0450 H   0  0  0  0  0  0  0  0  0  0  0  0
   33.9135   24.4440   30.0450 H   0  0  0  0  0  0  0  0  0  0  0  0
   42.8209   25.3690   36.1837 H   0  0  0  0  0  0  0  0  0  0  0  0
   41.0847   26.7132   35.7567 H   0  0  0  0  0  0  0  0  0  0  0  0
   41.9027   27.1906   34.2304 H   0  0  0  0  0  0  0  0  0  0  0  0
   40.7189   25.8395   34.2304 H   0  0  0  0  0  0  0  0  0  0  0  0
   44.3237   24.9094   33.9049 H   0  0  0  0  0  0  0  0  0  0  0  0
   43.4419   26.4290   33.4588 H   0  0  0  0  0  0  0  0  0  0  0  0
   44.1701   26.5547   36.0210 H   0  0  0  0  0  0  0  0  0  0  0  0
   47.0126   26.5329   35.6032 H   0  0  0  0  0  0  0  0  0  0  0  0
   46.8871   25.7457   34.2662 H   0  0  0  0  0  0  0  0  0  0  0  0
   45.7450   28.6754   34.8992 H   0  0  0  0  0  0  0  0  0  0  0  0
   45.3978   28.2612   33.4375 H   0  0  0  0  0  0  0  0  0  0  0  0
  1  2  1  0
  3  2  1  0
  4  5  1  0
  4  3  1  0
  5 18  1  0
  5  1  1  0
  6 10  2  0
  7  8  2  0
  7  6  1  0
  8  9  1  0
  5  9  1  6
 10  9  1  0
 11 12  2  0
 12 13  1  0
 12  6  1  0
 14 13  2  0
 15 14  1  0
 16 15  2  0
 16 11  1  0
 17 15  1  0
 19 18  1  0
 20 18  1  0
 20 21  1  0
 22 21  1  0
 23 22  1  0
 23 21  1  0
  1 24  1  0
  2 25  1  0
  2 26  1  0
  3 27  1  0
  3 28  1  0
  4 29  1  0
  4 30  1  0
  7 31  1  0
  8 32  1  0
 11 33  1  0
 13 34  1  0
 17 35  1  0
 17 36  1  0
 17 37  1  0
 18 38  1  1
 19 39  1  0
 19 40  1  0
 19 41  1  0
 20 42  1  0
 20 43  1  0
 21 44  1  0
 22 45  1  0
 22 46  1  0
 23 47  1  0
 23 48  1  0
M  ISO  8  24   5  25  13  26  13  27  13  28  13  29  13  30  13  31  14
M  ISO  8  32  14  33  14  34  14  35   8  36   8  37   8  38   8  39   8
M  ISO  8  40   8  41   8  42   8  43   8  44  13  45  13  46  13  47  13
M  ISO  1  48  13
M  END
>  <minimizedAffinity>  (1) 
-3.53696394

>  <minimizedRMSD>  (1) 
0.744482756

$$$$
