
     RDKit          3D

 42 44  0  0  1  0  0  0  0  0999 V2000
   41.6500   23.3220   35.9020 N   0  0  0  0  0  0  0  0  0  0  0  0
   42.8490   23.3430   36.7590 C   0  0  0  0  0  0  0  0  0  0  0  0
   44.0480   23.1220   35.8600 C   0  0  0  0  0  0  0  0  0  0  0  0
   43.4030   23.0130   34.4860 C   0  0  0  0  0  0  0  0  0  0  0  0
   42.1870   23.8440   34.6550 C   0  0  1  0  0  0  0  0  0  0  0  0
   39.4340   23.9240   32.3460 C   0  0  0  0  0  0  0  0  0  0  0  0
   40.3560   23.1950   31.5810 C   0  0  0  0  0  0  0  0  0  0  0  0
   41.4770   23.1070   32.4010 C   0  0  0  0  0  0  0  0  0  0  0  0
   41.2470   23.7390   33.5780 N   0  0  0  0  0  0  0  0  0  0  0  0
   40.0090   24.2240   33.5200 N   0  0  0  0  0  0  0  0  0  0  0  0
   37.0720   23.3410   31.9740 C   0  0  0  0  0  0  0  0  0  0  0  0
   38.1070   24.2740   31.9140 C   0  0  0  0  0  0  0  0  0  0  0  0
   37.8700   25.5550   31.4390 C   0  0  0  0  0  0  0  0  0  0  0  0
   36.5800   25.8310   31.0400 N   0  0  0  0  0  0  0  0  0  0  0  0
   35.5900   24.9050   31.1070 C   0  0  0  0  0  0  0  0  0  0  0  0
   35.8410   23.6740   31.5700 N   0  0  0  0  0  0  0  0  0  0  0  0
   34.2340   25.3430   30.6400 C   0  0  0  0  0  0  0  0  0  0  0  0
   42.5570   25.3030   34.7900 C   0  0  2  0  0  0  0  0  0  0  0  0
   41.3550   26.2160   34.8120 C   0  0  0  0  0  0  0  0  0  0  0  0
   43.3850   25.7000   33.6030 C   0  0  0  0  0  0  0  0  0  0  0  0
   44.6710   26.8450   34.2370 S   0  0  0  0  0  0  0  0  0  0  0  0
   41.2857   22.3656   35.7854 H   0  0  0  0  0  0  0  0  0  0  0  0
   42.9326   24.3156   37.2659 H   0  0  0  0  0  0  0  0  0  0  0  0
   42.7906   22.5609   37.5303 H   0  0  0  0  0  0  0  0  0  0  0  0
   44.7444   23.9722   35.9075 H   0  0  0  0  0  0  0  0  0  0  0  0
   44.6512   22.2444   36.1358 H   0  0  0  0  0  0  0  0  0  0  0  0
   43.1457   21.9708   34.2459 H   0  0  0  0  0  0  0  0  0  0  0  0
   44.0540   23.3386   33.6612 H   0  0  0  0  0  0  0  0  0  0  0  0
   40.2238   22.7873   30.5679 H   0  0  0  0  0  0  0  0  0  0  0  0
   42.4145   22.5980   32.1327 H   0  0  0  0  0  0  0  0  0  0  0  0
   37.2686   22.3279   32.3548 H   0  0  0  0  0  0  0  0  0  0  0  0
   38.6682   26.3099   31.3837 H   0  0  0  0  0  0  0  0  0  0  0  0
   33.5951   25.5494   31.5113 H   0  0  0  0  0  0  0  0  0  0  0  0
   34.3322   26.2551   30.0331 H   0  0  0  0  0  0  0  0  0  0  0  0
   33.7800   24.5458   30.0331 H   0  0  0  0  0  0  0  0  0  0  0  0
   43.0958   25.4088   35.7432 H   0  0  0  0  0  0  0  0  0  0  0  0
   41.0751   26.4286   35.8543 H   0  0  0  0  0  0  0  0  0  0  0  0
   41.6003   27.1576   34.2989 H   0  0  0  0  0  0  0  0  0  0  0  0
   40.5138   25.7271   34.2989 H   0  0  0  0  0  0  0  0  0  0  0  0
   42.7591   26.2066   32.8536 H   0  0  0  0  0  0  0  0  0  0  0  0
   43.8344   24.8222   33.1157 H   0  0  0  0  0  0  0  0  0  0  0  0
   44.6577   26.8332   35.6069 H   0  0  0  0  0  0  0  0  0  0  0  0
  1  2  1  0
  3  2  1  0
  4  5  1  0
  4  3  1  0
  5 18  1  0
  5  1  1  0
  6 10  2  0
  7  6  1  0
  7  8  2  0
  8  9  1  0
  5  9  1  6
 10  9  1  0
 12 11  2  0
 12  6  1  0
 13 12  1  0
 14 15  1  0
 14 13  2  0
 15 16  2  0
 16 11  1  0
 17 15  1  0
 18 19  1  0
 20 21  1  0
 20 18  1  0
  1 22  1  0
  2 23  1  0
  2 24  1  0
  3 25  1  0
  3 26  1  0
  4 27  1  0
  4 28  1  0
  7 29  1  0
  8 30  1  0
 11 31  1  0
 13 32  1  0
 17 33  1  0
 17 34  1  0
 17 35  1  0
 18 36  1  1
 19 37  1  0
 19 38  1  0
 19 39  1  0
 20 40  1  0
 20 41  1  0
 21 42  1  0
M  ISO  8  22   5  23  13  24  13  25  13  26  13  27  13  28  13  29  14
M  ISO  8  30  14  31  14  32  14  33   8  34   8  35   8  36   8  37   8
M  ISO  5  38   8  39   8  40   8  41   8  42  11
M  END
>  <minimizedAffinity>  (1) 
-3.31832147

>  <minimizedRMSD>  (1) 
0.241055131

$$$$
