
     RDKit          3D

 20 21  0  0  0  0  0  0  0  0999 V2000
   38.6670   23.4370   38.4530 C   0  0  0  0  0  0  0  0  0  0  0  0
   38.0690   24.3990   37.5890 C   0  0  0  0  0  0  0  0  0  0  0  0
   38.6430   24.5550   36.3280 C   0  0  0  0  0  0  0  0  0  0  0  0
   39.7100   23.8080   35.9930 N   0  0  0  0  0  0  0  0  0  0  0  0
   40.2530   22.8980   36.8490 C   0  0  0  0  0  0  0  0  0  0  0  0
   39.7220   22.7300   38.0590 N   0  0  0  0  0  0  0  0  0  0  0  0
   38.0860   25.5220   35.3880 C   0  0  0  0  0  0  0  0  0  0  0  0
   37.9120   26.8220   35.7820 C   0  0  0  0  0  0  0  0  0  0  0  0
   37.3770   27.7350   34.8700 C   0  0  0  0  0  0  0  0  0  0  0  0
   37.0290   27.3330   33.5910 C   0  0  0  0  0  0  0  0  0  0  0  0
   37.2310   25.9980   33.2570 C   0  0  0  0  0  0  0  0  0  0  0  0
   37.7490   25.1290   34.1520 N   0  0  0  0  0  0  0  0  0  0  0  0
   41.3480   22.1220   36.5220 O   0  0  0  0  0  0  0  0  0  0  0  0
   38.2508   23.2771   39.4586 H   0  0  0  0  0  0  0  0  0  0  0  0
   37.1960   24.9906   37.9019 H   0  0  0  0  0  0  0  0  0  0  0  0
   38.1884   27.1413   36.7977 H   0  0  0  0  0  0  0  0  0  0  0  0
   37.2307   28.7830   35.1704 H   0  0  0  0  0  0  0  0  0  0  0  0
   36.6079   28.0443   32.8652 H   0  0  0  0  0  0  0  0  0  0  0  0
   36.9651   25.6449   32.2497 H   0  0  0  0  0  0  0  0  0  0  0  0
   41.7083   21.4732   37.1772 H   0  0  0  0  0  0  0  0  0  0  0  0
  2  1  2  0
  3  2  1  0
  4  3  2  0
  4  5  1  0
  5  6  2  0
  6  1  1  0
  7  8  2  0
  7  3  1  0
  9  8  1  0
 10  9  2  0
 11 10  1  0
 11 12  2  0
 12  7  1  0
 13  5  1  0
  1 14  1  0
  2 15  1  0
  8 16  1  0
  9 17  1  0
 10 18  1  0
 11 19  1  0
 13 20  1  0
M  ISO  7  14  14  15  14  16  14  17  14  18  14  19  14  20   3
M  END
>  <minimizedAffinity>  (1) 
-4.19323587

>  <minimizedRMSD>  (1) 
4.36125135

$$$$
