
     RDKit          3D

 18 19  0  0  0  0  0  0  0  0999 V2000
   42.7530   20.9480   37.0040 C   0  0  0  0  0  0  0  0  0  0  0  0
   41.4260   21.2860   37.3990 C   0  0  0  0  0  0  0  0  0  0  0  0
   40.9580   22.5410   37.0170 C   0  0  0  0  0  0  0  0  0  0  0  0
   41.7470   23.3690   36.3080 N   0  0  0  0  0  0  0  0  0  0  0  0
   43.0130   23.0080   35.9490 C   0  0  0  0  0  0  0  0  0  0  0  0
   43.5010   21.8140   36.2970 N   0  0  0  0  0  0  0  0  0  0  0  0
   39.6130   22.9790   37.3720 C   0  0  0  0  0  0  0  0  0  0  0  0
   38.6800   23.5760   36.5490 C   0  0  0  0  0  0  0  0  0  0  0  0
   37.5820   23.8060   37.3100 N   0  0  0  0  0  0  0  0  0  0  0  0
   37.8230   23.3620   38.5790 C   0  0  0  0  0  0  0  0  0  0  0  0
   39.0730   22.8630   38.5850 N   0  0  0  0  0  0  0  0  0  0  0  0
   43.8630   23.8240   35.2220 O   0  0  0  0  0  0  0  0  0  0  0  0
   43.1700   19.9683   37.2803 H   0  0  0  0  0  0  0  0  0  0  0  0
   40.8016   20.5894   37.9776 H   0  0  0  0  0  0  0  0  0  0  0  0
   38.8032   23.8181   35.4831 H   0  0  0  0  0  0  0  0  0  0  0  0
   37.1293   23.4041   39.4316 H   0  0  0  0  0  0  0  0  0  0  0  0
   39.5424   22.4526   39.4049 H   0  0  0  0  0  0  0  0  0  0  0  0
   43.5609   24.7216   34.9336 H   0  0  0  0  0  0  0  0  0  0  0  0
  1  2  2  0
  3  7  1  0
  3  2  1  0
  4  3  2  0
  5  6  2  0
  5  4  1  0
  6  1  1  0
  7 11  1  0
  8  9  1  0
  8  7  2  0
  9 10  2  0
 10 11  1  0
 12  5  1  0
  1 13  1  0
  2 14  1  0
  8 15  1  0
 10 16  1  0
 11 17  1  0
 12 18  1  0
M  ISO  6  13  14  14  14  15  14  16  14  17   9  18   3
M  END
>  <minimizedAffinity>  (1) 
-3.80944753

>  <minimizedRMSD>  (1) 
4.0429368

$$$$
