
     RDKit          3D

 18 19  0  0  0  0  0  0  0  0999 V2000
   38.6490   23.4380   38.3960 C   0  0  0  0  0  0  0  0  0  0  0  0
   38.0610   24.4160   37.5730 C   0  0  0  0  0  0  0  0  0  0  0  0
   38.6300   24.6250   36.3180 C   0  0  0  0  0  0  0  0  0  0  0  0
   39.7000   23.8940   35.9570 N   0  0  0  0  0  0  0  0  0  0  0  0
   40.2390   22.9640   36.7690 C   0  0  0  0  0  0  0  0  0  0  0  0
   39.7050   22.7440   37.9890 N   0  0  0  0  0  0  0  0  0  0  0  0
   38.1100   25.5830   35.4280 C   0  0  0  0  0  0  0  0  0  0  0  0
   37.7550   26.9070   35.5920 C   0  0  0  0  0  0  0  0  0  0  0  0
   37.2660   27.5930   34.5070 C   0  0  0  0  0  0  0  0  0  0  0  0
   37.1400   26.9740   33.3160 C   0  0  0  0  0  0  0  0  0  0  0  0
   37.7430   25.2580   33.6440 S   0  0  0  0  0  0  0  0  0  0  0  0
   41.3500   22.1850   36.4310 O   0  0  0  0  0  0  0  0  0  0  0  0
   38.2267   23.2452   39.3932 H   0  0  0  0  0  0  0  0  0  0  0  0
   37.1862   24.9932   37.9071 H   0  0  0  0  0  0  0  0  0  0  0  0
   37.8613   27.4012   36.5690 H   0  0  0  0  0  0  0  0  0  0  0  0
   36.9767   28.6493   34.6101 H   0  0  0  0  0  0  0  0  0  0  0  0
   36.7658   27.3925   32.3701 H   0  0  0  0  0  0  0  0  0  0  0  0
   41.6997   21.5168   37.0724 H   0  0  0  0  0  0  0  0  0  0  0  0
  2  1  2  0
  3  2  1  0
  4  3  2  0
  4  5  1  0
  5  6  2  0
  6  1  1  0
  7  8  2  0
  7  3  1  0
  9  8  1  0
 10 11  1  0
 10  9  2  0
 11  7  1  0
 12  5  1  0
  1 13  1  0
  2 14  1  0
  8 15  1  0
  9 16  1  0
 10 17  1  0
 12 18  1  0
M  ISO  6  13  14  14  14  15  14  16  14  17  14  18   3
M  END
>  <minimizedAffinity>  (1) 
-3.80489707

>  <minimizedRMSD>  (1) 
4.24923468

$$$$
