
     RDKit          3D

 18 18  0  0  0  0  0  0  0  0999 V2000
   40.2400   22.9850   36.6750 C   0  0  0  0  0  0  0  0  0  0  0  0
   39.0520   22.5850   37.3130 C   0  0  0  0  0  0  0  0  0  0  0  0
   37.8520   22.7810   36.6200 C   0  0  0  0  0  0  0  0  0  0  0  0
   37.8860   23.3350   35.3900 N   0  0  0  0  0  0  0  0  0  0  0  0
   39.0630   23.7070   34.8130 C   0  0  0  0  0  0  0  0  0  0  0  0
   40.2160   23.5300   35.4520 N   0  0  0  0  0  0  0  0  0  0  0  0
   36.5820   22.4060   37.1840 N   0  0  0  0  0  0  0  0  0  0  0  0
   35.8690   21.2420   36.7430 C   0  0  0  0  0  0  0  0  0  0  0  0
   36.0370   20.9480   35.4960 N   0  0  0  0  0  0  0  0  0  0  0  0
   35.0880   20.5860   37.7390 N   0  0  0  0  0  0  0  0  0  0  0  0
   35.5300   20.1050   35.1440 H   0  0  0  0  0  0  0  0  0  0  0  0
   39.1260   24.2810   33.5470 O   0  0  0  0  0  0  0  0  0  0  0  0
   41.2032   22.8481   37.1883 H   0  0  0  0  0  0  0  0  0  0  0  0
   39.0656   22.1358   38.3170 H   0  0  0  0  0  0  0  0  0  0  0  0
   36.1729   22.9910   37.9265 H   0  0  0  0  0  0  0  0  0  0  0  0
   34.5479   19.7429   37.4973 H   0  0  0  0  0  0  0  0  0  0  0  0
   35.0638   20.9551   38.7003 H   0  0  0  0  0  0  0  0  0  0  0  0
   40.0016   24.5375   33.1628 H   0  0  0  0  0  0  0  0  0  0  0  0
  1  2  2  0
  3  7  1  0
  3  2  1  0
  4  3  2  0
  5  4  1  0
  5  6  2  0
  6  1  1  0
  8  7  1  0
  8 10  1  0
  9  8  2  0
 11  9  1  0
 12  5  1  0
  1 13  1  0
  2 14  1  0
  7 15  1  0
 10 16  1  0
 10 17  1  0
 12 18  1  0
M  ISO  3  13  14  14  14  18   3
M  END
>  <minimizedAffinity>  (1) 
-3.63996482

>  <minimizedRMSD>  (1) 
2.50976086

$$$$
