
     RDKit          3D

 24 25  0  0  0  0  0  0  0  0999 V2000
   44.3920   20.7830   36.0690 C   0  0  0  0  0  0  0  0  0  0  0  0
   43.5310   21.9080   36.1560 C   0  0  0  0  0  0  0  0  0  0  0  0
   42.4130   21.9200   35.3240 C   0  0  0  0  0  0  0  0  0  0  0  0
   42.2120   20.8780   34.4940 N   0  0  0  0  0  0  0  0  0  0  0  0
   43.0620   19.8190   34.4430 C   0  0  0  0  0  0  0  0  0  0  0  0
   44.1410   19.7800   35.2270 N   0  0  0  0  0  0  0  0  0  0  0  0
   39.4680   25.0270   35.3460 C   0  0  0  0  0  0  0  0  0  0  0  0
   39.2520   23.7730   35.8760 C   0  0  0  0  0  0  0  0  0  0  0  0
   40.2090   22.7710   35.8660 C   0  0  0  0  0  0  0  0  0  0  0  0
   41.4460   23.0090   35.3060 C   0  0  0  0  0  0  0  0  0  0  0  0
   41.6730   24.2530   34.7760 C   0  0  0  0  0  0  0  0  0  0  0  0
   40.7120   25.2430   34.7910 C   0  0  0  0  0  0  0  0  0  0  0  0
   38.2150   26.2480   35.3920 S   0  0  0  0  0  0  0  0  0  0  0  0
   38.3320   27.0830   36.6380 O   0  0  0  0  0  0  0  0  0  0  0  0
   38.4430   27.1800   34.2150 O   0  0  0  0  0  0  0  0  0  0  0  0
   42.8590   18.7520   33.5940 O   0  0  0  0  0  0  0  0  0  0  0  0
   45.2851   20.7376   36.7096 H   0  0  0  0  0  0  0  0  0  0  0  0
   43.7374   22.7355   36.8508 H   0  0  0  0  0  0  0  0  0  0  0  0
   38.2729   23.5574   36.3286 H   0  0  0  0  0  0  0  0  0  0  0  0
   39.9822   21.7878   36.3040 H   0  0  0  0  0  0  0  0  0  0  0  0
   42.6526   24.4687   34.3244 H   0  0  0  0  0  0  0  0  0  0  0  0
   40.9427   26.2246   34.3513 H   0  0  0  0  0  0  0  0  0  0  0  0
   36.9896   25.6364   35.3572 H   0  0  0  0  0  0  0  0  0  0  0  0
   43.5003   17.9978   33.5847 H   0  0  0  0  0  0  0  0  0  0  0  0
  1  2  2  0
  3  2  1  0
  4  3  2  0
  5  4  1  0
  5  6  2  0
  6  1  1  0
  7 13  1  0
  7  8  2  0
  9  8  1  0
 10  3  1  0
 10  9  2  0
 11 12  2  0
 11 10  1  0
 12  7  1  0
 13 14  2  0
 15 13  2  0
 16  5  1  0
  1 17  1  0
  2 18  1  0
  8 19  1  0
  9 20  1  0
 11 21  1  0
 12 22  1  0
 13 23  1  0
 16 24  1  0
M  ISO  8  17  14  18  14  19  14  20  14  21  14  22  14  23  11  24   3
M  END
>  <minimizedAffinity>  (1) 
-2.89392471

>  <minimizedRMSD>  (1) 
6.4266119

$$$$
