
     RDKit          3D

 13 13  0  0  0  0  0  0  0  0999 V2000
   40.1890   22.2500   37.0120 C   0  0  0  0  0  0  0  0  0  0  0  0
   39.7050   23.0970   38.0290 C   0  0  0  0  0  0  0  0  0  0  0  0
   38.3870   23.5740   37.8790 C   0  0  0  0  0  0  0  0  0  0  0  0
   37.6660   23.2060   36.7920 N   0  0  0  0  0  0  0  0  0  0  0  0
   38.1890   22.3830   35.8410 C   0  0  0  0  0  0  0  0  0  0  0  0
   39.4340   21.9230   35.9680 N   0  0  0  0  0  0  0  0  0  0  0  0
   37.8630   24.4330   38.8870 N   0  0  0  0  0  0  0  0  0  0  0  0
   37.4810   21.9900   34.7220 O   0  0  0  0  0  0  0  0  0  0  0  0
   41.2118   21.8516   37.0835 H   0  0  0  0  0  0  0  0  0  0  0  0
   40.3241   23.3719   38.8957 H   0  0  0  0  0  0  0  0  0  0  0  0
   36.9031   24.7975   38.8051 H   0  0  0  0  0  0  0  0  0  0  0  0
   38.4439   24.6897   39.6979 H   0  0  0  0  0  0  0  0  0  0  0  0
   36.5531   22.3074   34.5866 H   0  0  0  0  0  0  0  0  0  0  0  0
  1  2  2  0
  3  2  1  0
  3  7  1  0
  4  3  2  0
  5  6  2  0
  5  4  1  0
  6  1  1  0
  8  5  1  0
  1  9  1  0
  2 10  1  0
  7 11  1  0
  7 12  1  0
  8 13  1  0
M  ISO  3   9  14  10  14  13   3
M  END
>  <minimizedAffinity>  (1) 
-2.89206147

>  <minimizedRMSD>  (1) 
0.696819842

$$$$
