
     RDKit          3D

 12 12  0  0  0  0  0  0  0  0999 V2000
   41.0710   21.9770   36.8630 C   0  0  0  0  0  0  0  0  0  0  0  0
   40.3030   22.6800   37.8250 C   0  0  0  0  0  0  0  0  0  0  0  0
   39.0660   23.1690   37.4030 C   0  0  0  0  0  0  0  0  0  0  0  0
   38.6580   22.9610   36.1310 N   0  0  0  0  0  0  0  0  0  0  0  0
   39.4420   22.2770   35.2490 C   0  0  0  0  0  0  0  0  0  0  0  0
   40.6380   21.7910   35.6170 N   0  0  0  0  0  0  0  0  0  0  0  0
   39.0720   22.0370   33.9380 O   0  0  0  0  0  0  0  0  0  0  0  0
   37.9720   24.0820   38.5020 S   0  0  0  0  0  0  0  0  0  0  0  0
   42.0523   21.5737   37.1536 H   0  0  0  0  0  0  0  0  0  0  0  0
   40.6641   22.8324   38.8528 H   0  0  0  0  0  0  0  0  0  0  0  0
   38.2020   22.3678   33.6007 H   0  0  0  0  0  0  0  0  0  0  0  0
   38.3000   23.8083   39.8037 H   0  0  0  0  0  0  0  0  0  0  0  0
  1  2  2  0
  3  2  1  0
  3  8  1  0
  4  3  2  0
  5  6  2  0
  5  4  1  0
  6  1  1  0
  7  5  1  0
  1  9  1  0
  2 10  1  0
  7 11  1  0
  8 12  1  0
M  ISO  4   9  14  10  14  11   3  12  11
M  END
>  <minimizedAffinity>  (1) 
-2.53108501

>  <minimizedRMSD>  (1) 
1.4120338

$$$$
