
     RDKit          3D

 30 31  0  0  0  0  0  0  0  0999 V2000
   38.2990   23.2640   37.3390 C   0  0  0  0  0  0  0  0  0  0  0  0
   38.0320   24.6250   37.1010 C   0  0  0  0  0  0  0  0  0  0  0  0
   37.9120   25.0350   35.7690 C   0  0  0  0  0  0  0  0  0  0  0  0
   38.0560   24.1090   34.7650 N   0  0  0  0  0  0  0  0  0  0  0  0
   38.3130   22.8060   35.0520 C   0  0  0  0  0  0  0  0  0  0  0  0
   38.4310   22.3990   36.3370 N   0  0  0  0  0  0  0  0  0  0  0  0
   37.6120   26.4380   35.4060 C   0  0  0  0  0  0  0  0  0  0  0  0
   37.2260   26.6200   33.9720 C   0  0  0  0  0  0  0  0  0  0  0  0
   38.7820   27.3650   35.7340 C   0  0  0  0  0  0  0  0  0  0  0  0
   38.4600   21.8570   34.0630 O   0  0  0  0  0  0  0  0  0  0  0  0
   37.3950   21.5780   33.2340 C   0  0  0  0  0  0  0  0  0  0  0  0
   37.3760   21.8960   31.8760 C   0  0  0  0  0  0  0  0  0  0  0  0
   36.2580   21.5710   31.1360 C   0  0  0  0  0  0  0  0  0  0  0  0
   35.1400   20.9450   31.6560 C   0  0  0  0  0  0  0  0  0  0  0  0
   35.1560   20.6260   33.0180 C   0  0  0  0  0  0  0  0  0  0  0  0
   36.2790   20.9550   33.7460 C   0  0  0  0  0  0  0  0  0  0  0  0
   38.4006   22.9081   38.3749 H   0  0  0  0  0  0  0  0  0  0  0  0
   37.9219   25.3390   37.9305 H   0  0  0  0  0  0  0  0  0  0  0  0
   36.7392   26.7081   36.0186 H   0  0  0  0  0  0  0  0  0  0  0  0
   36.2323   27.0885   33.9164 H   0  0  0  0  0  0  0  0  0  0  0  0
   37.9640   27.2650   33.4727 H   0  0  0  0  0  0  0  0  0  0  0  0
   37.1979   25.6403   33.4727 H   0  0  0  0  0  0  0  0  0  0  0  0
   38.8882   27.4492   36.8256 H   0  0  0  0  0  0  0  0  0  0  0  0
   39.7077   26.9525   35.3062 H   0  0  0  0  0  0  0  0  0  0  0  0
   38.5922   28.3605   35.3062 H   0  0  0  0  0  0  0  0  0  0  0  0
   38.2351   22.3958   31.4047 H   0  0  0  0  0  0  0  0  0  0  0  0
   36.2557   21.8256   30.0659 H   0  0  0  0  0  0  0  0  0  0  0  0
   34.2721   20.7072   31.0235 H   0  0  0  0  0  0  0  0  0  0  0  0
   34.2983   20.1277   33.4934 H   0  0  0  0  0  0  0  0  0  0  0  0
   36.2841   20.7008   34.8162 H   0  0  0  0  0  0  0  0  0  0  0  0
  2  1  2  0
  3  2  1  0
  4  5  1  0
  4  3  2  0
  5  6  2  0
  6  1  1  0
  7  9  1  0
  7  3  1  0
  8  7  1  0
 10  5  1  0
 11 16  1  0
 11 10  1  0
 12 11  2  0
 13 14  2  0
 13 12  1  0
 14 15  1  0
 15 16  2  0
  1 17  1  0
  2 18  1  0
  7 19  1  0
  8 20  1  0
  8 21  1  0
  8 22  1  0
  9 23  1  0
  9 24  1  0
  9 25  1  0
 12 26  1  0
 13 27  1  0
 14 28  1  0
 15 29  1  0
 16 30  1  0
M  ISO  8  17  14  18  14  19   8  20   8  21   8  22   8  23   8  24   8
M  ISO  6  25   8  26  14  27  14  28  14  29  14  30  14
M  END
>  <minimizedAffinity>  (1) 
-4.6808672

>  <minimizedRMSD>  (1) 
5.33802938

$$$$
