
     RDKit          3D

 33 34  0  0  0  0  0  0  0  0999 V2000
   38.3830   23.2120   37.4510 C   0  0  0  0  0  0  0  0  0  0  0  0
   37.6380   24.3040   36.9820 C   0  0  0  0  0  0  0  0  0  0  0  0
   38.1720   25.0530   35.9290 C   0  0  0  0  0  0  0  0  0  0  0  0
   39.3890   24.6940   35.4040 N   0  0  0  0  0  0  0  0  0  0  0  0
   40.0570   23.6290   35.9020 C   0  0  0  0  0  0  0  0  0  0  0  0
   39.5650   22.8930   36.9140 N   0  0  0  0  0  0  0  0  0  0  0  0
   37.4710   26.2090   35.3330 C   0  0  0  0  0  0  0  0  0  0  0  0
   37.2990   26.1100   33.8490 C   0  0  0  0  0  0  0  0  0  0  0  0
   38.1540   27.5310   35.6860 C   0  0  0  0  0  0  0  0  0  0  0  0
   41.2930   23.2400   35.3870 O   0  0  0  0  0  0  0  0  0  0  0  0
   44.8160   25.2260   36.0940 C   0  0  0  0  0  0  0  0  0  0  0  0
   44.4570   24.1350   36.8740 C   0  0  0  0  0  0  0  0  0  0  0  0
   43.2560   23.5010   36.5920 C   0  0  0  0  0  0  0  0  0  0  0  0
   42.4390   23.9510   35.5550 C   0  0  0  0  0  0  0  0  0  0  0  0
   42.8330   25.0460   34.7970 C   0  0  0  0  0  0  0  0  0  0  0  0
   44.0190   25.6980   35.0510 C   0  0  0  0  0  0  0  0  0  0  0  0
   46.3370   26.0680   36.4140 S   0  0  0  0  0  0  0  0  0  0  0  0
   47.4640   25.4160   35.6670 O   0  0  0  0  0  0  0  0  0  0  0  0
   46.6040   25.9540   37.8800 O   0  0  0  0  0  0  0  0  0  0  0  0
   37.9862   22.6052   38.2783 H   0  0  0  0  0  0  0  0  0  0  0  0
   36.6661   24.5625   37.4277 H   0  0  0  0  0  0  0  0  0  0  0  0
   36.4654   26.1892   35.7783 H   0  0  0  0  0  0  0  0  0  0  0  0
   36.3660   25.5730   33.6230 H   0  0  0  0  0  0  0  0  0  0  0  0
   37.2543   27.1206   33.4168 H   0  0  0  0  0  0  0  0  0  0  0  0
   38.1504   25.5637   33.4168 H   0  0  0  0  0  0  0  0  0  0  0  0
   38.2079   27.6353   36.7797 H   0  0  0  0  0  0  0  0  0  0  0  0
   39.1706   27.5421   35.2661 H   0  0  0  0  0  0  0  0  0  0  0  0
   37.5748   28.3666   35.2661 H   0  0  0  0  0  0  0  0  0  0  0  0
   45.1051   23.7842   37.6906 H   0  0  0  0  0  0  0  0  0  0  0  0
   42.9445   22.6338   37.1928 H   0  0  0  0  0  0  0  0  0  0  0  0
   42.1866   25.3985   33.9797 H   0  0  0  0  0  0  0  0  0  0  0  0
   44.3287   26.5652   34.4493 H   0  0  0  0  0  0  0  0  0  0  0  0
   46.2456   27.3750   36.0137 H   0  0  0  0  0  0  0  0  0  0  0  0
  2  1  2  0
  3  2  1  0
  4  5  1  0
  4  3  2  0
  5  6  2  0
  6  1  1  0
  7  9  1  0
  7  3  1  0
  8  7  1  0
 10 14  1  0
 10  5  1  0
 11 17  1  0
 11 12  2  0
 13 12  1  0
 14 13  2  0
 15 16  2  0
 15 14  1  0
 16 11  1  0
 17 19  2  0
 18 17  2  0
  1 20  1  0
  2 21  1  0
  7 22  1  0
  8 23  1  0
  8 24  1  0
  8 25  1  0
  9 26  1  0
  9 27  1  0
  9 28  1  0
 12 29  1  0
 13 30  1  0
 15 31  1  0
 16 32  1  0
 17 33  1  0
M  ISO  8  20  14  21  14  22   8  23   8  24   8  25   8  26   8  27   8
M  ISO  6  28   8  29  14  30  14  31  14  32  14  33  11
M  END
>  <minimizedAffinity>  (1) 
-4.59189606

>  <minimizedRMSD>  (1) 
4.6258378

$$$$
