
     RDKit          3D

 29 29  0  0  0  0  0  0  0  0999 V2000
   38.5860   23.4720   38.5330 C   0  0  0  0  0  0  0  0  0  0  0  0
   37.9410   24.4850   37.8140 C   0  0  0  0  0  0  0  0  0  0  0  0
   38.3850   24.7420   36.5120 C   0  0  0  0  0  0  0  0  0  0  0  0
   39.4090   24.0020   36.0210 N   0  0  0  0  0  0  0  0  0  0  0  0
   39.9990   23.0350   36.7550 C   0  0  0  0  0  0  0  0  0  0  0  0
   39.5920   22.7690   38.0050 N   0  0  0  0  0  0  0  0  0  0  0  0
   37.7710   25.7670   35.6450 C   0  0  0  0  0  0  0  0  0  0  0  0
   37.8200   25.4350   34.1860 C   0  0  0  0  0  0  0  0  0  0  0  0
   38.3840   27.1470   35.8840 C   0  0  0  0  0  0  0  0  0  0  0  0
   41.0530   22.2550   36.2740 O   0  0  0  0  0  0  0  0  0  0  0  0
   42.2200   21.9960   36.9870 C   0  0  0  0  0  0  0  0  0  0  0  0
   42.5430   20.5240   36.9530 C   0  0  0  0  0  0  0  0  0  0  0  0
   43.3530   22.7530   36.3110 C   0  0  0  0  0  0  0  0  0  0  0  0
   38.2564   23.2491   39.5585 H   0  0  0  0  0  0  0  0  0  0  0  0
   37.1139   25.0591   38.2570 H   0  0  0  0  0  0  0  0  0  0  0  0
   36.7096   25.7838   35.9335 H   0  0  0  0  0  0  0  0  0  0  0  0
   37.9796   24.3538   34.0611 H   0  0  0  0  0  0  0  0  0  0  0  0
   36.8697   25.7225   33.7124 H   0  0  0  0  0  0  0  0  0  0  0  0
   38.6467   25.9848   33.7124 H   0  0  0  0  0  0  0  0  0  0  0  0
   38.4652   27.3298   36.9657 H   0  0  0  0  0  0  0  0  0  0  0  0
   39.3847   27.1875   35.4292 H   0  0  0  0  0  0  0  0  0  0  0  0
   37.7431   27.9167   35.4292 H   0  0  0  0  0  0  0  0  0  0  0  0
   42.0910   22.3089   38.0336 H   0  0  0  0  0  0  0  0  0  0  0  0
   42.6266   20.1431   37.9816 H   0  0  0  0  0  0  0  0  0  0  0  0
   41.7418   19.9849   36.4263 H   0  0  0  0  0  0  0  0  0  0  0  0
   43.4963   20.3699   36.4263 H   0  0  0  0  0  0  0  0  0  0  0  0
   44.0093   23.1915   37.0771 H   0  0  0  0  0  0  0  0  0  0  0  0
   43.9335   22.0607   35.6835 H   0  0  0  0  0  0  0  0  0  0  0  0
   42.9355   23.5542   35.6835 H   0  0  0  0  0  0  0  0  0  0  0  0
  2  1  2  0
  3  2  1  0
  4  3  2  0
  4  5  1  0
  5  6  2  0
  6  1  1  0
  7  9  1  0
  7  3  1  0
  8  7  1  0
 10  5  1  0
 10 11  1  0
 12 11  1  0
 13 11  1  0
  1 14  1  0
  2 15  1  0
  7 16  1  0
  8 17  1  0
  8 18  1  0
  8 19  1  0
  9 20  1  0
  9 21  1  0
  9 22  1  0
 11 23  1  0
 12 24  1  0
 12 25  1  0
 12 26  1  0
 13 27  1  0
 13 28  1  0
 13 29  1  0
M  ISO  8  14  14  15  14  16   8  17   8  18   8  19   8  20   8  21   8
M  ISO  8  22   8  23   8  24   8  25   8  26   8  27   8  28   8  29   8
M  END
>  <minimizedAffinity>  (1) 
-3.94084597

>  <minimizedRMSD>  (1) 
1.01650202

$$$$
