
     RDKit          3D

 41 44  0  0  0  0  0  0  0  0999 V2000
   41.2090   23.0480   35.5570 O   0  0  0  0  0  0  0  0  0  0  0  0
   38.3810   23.3010   37.6970 C   0  0  0  0  0  0  0  0  0  0  0  0
   37.6580   24.3980   37.1800 C   0  0  0  0  0  0  0  0  0  0  0  0
   38.1990   25.0450   36.0560 C   0  0  0  0  0  0  0  0  0  0  0  0
   39.3900   24.5940   35.5110 N   0  0  0  0  0  0  0  0  0  0  0  0
   40.0140   23.5400   36.0660 C   0  0  0  0  0  0  0  0  0  0  0  0
   39.5310   22.8960   37.1400 N   0  0  0  0  0  0  0  0  0  0  0  0
   37.5160   26.1860   35.4060 C   0  0  0  0  0  0  0  0  0  0  0  0
   37.3640   26.0320   33.9410 C   0  0  0  0  0  0  0  0  0  0  0  0
   38.2200   27.5200   35.7330 C   0  0  0  0  0  0  0  0  0  0  0  0
   42.3840   23.5870   35.8220 C   0  0  0  0  0  0  0  0  0  0  0  0
   43.3470   23.4010   36.7870 C   0  0  0  0  0  0  0  0  0  0  0  0
   44.4680   24.1550   36.7520 C   0  0  0  0  0  0  0  0  0  0  0  0
   44.6320   25.1050   35.7440 C   0  0  0  0  0  0  0  0  0  0  0  0
   43.0580   24.9230   34.7480 S   0  0  0  0  0  0  0  0  0  0  0  0
   45.5360   26.0980   35.3490 C   0  0  0  0  0  0  0  0  0  0  0  0
   45.1440   27.0230   34.4170 N   0  0  0  0  0  0  0  0  0  0  0  0
   45.8790   28.0680   34.0440 C   0  0  0  0  0  0  0  0  0  0  0  0
   47.0900   28.3000   34.5630 N   0  0  0  0  0  0  0  0  0  0  0  0
   47.5970   27.4690   35.4850 C   0  0  0  0  0  0  0  0  0  0  0  0
   48.8510   27.6420   36.0300 C   0  0  0  0  0  0  0  0  0  0  0  0
   49.3690   26.7570   36.9490 C   0  0  0  0  0  0  0  0  0  0  0  0
   48.5480   25.6760   37.2930 C   0  0  0  0  0  0  0  0  0  0  0  0
   47.3020   25.5330   36.7340 C   0  0  0  0  0  0  0  0  0  0  0  0
   46.7840   26.4160   35.8200 C   0  0  0  0  0  0  0  0  0  0  0  0
   37.9919   22.7668   38.5764 H   0  0  0  0  0  0  0  0  0  0  0  0
   36.7141   24.7311   37.6363 H   0  0  0  0  0  0  0  0  0  0  0  0
   36.5001   26.1991   35.8277 H   0  0  0  0  0  0  0  0  0  0  0  0
   36.6057   25.2637   33.7298 H   0  0  0  0  0  0  0  0  0  0  0  0
   37.0475   26.9899   33.5025 H   0  0  0  0  0  0  0  0  0  0  0  0
   38.3259   25.7280   33.5025 H   0  0  0  0  0  0  0  0  0  0  0  0
   38.2847   27.6426   36.8242 H   0  0  0  0  0  0  0  0  0  0  0  0
   39.2328   27.5149   35.3039 H   0  0  0  0  0  0  0  0  0  0  0  0
   37.6442   28.3533   35.3039 H   0  0  0  0  0  0  0  0  0  0  0  0
   43.2063   22.6483   37.5767 H   0  0  0  0  0  0  0  0  0  0  0  0
   45.2482   24.0200   37.5156 H   0  0  0  0  0  0  0  0  0  0  0  0
   45.4797   28.7601   33.2880 H   0  0  0  0  0  0  0  0  0  0  0  0
   49.4536   28.5095   35.7229 H   0  0  0  0  0  0  0  0  0  0  0  0
   50.3690   26.8913   37.3872 H   0  0  0  0  0  0  0  0  0  0  0  0
   48.9057   24.9321   38.0201 H   0  0  0  0  0  0  0  0  0  0  0  0
   46.6898   24.6694   37.0331 H   0  0  0  0  0  0  0  0  0  0  0  0
  1 11  1  0
  1  6  1  0
  3  2  2  0
  4  3  1  0
  5  4  2  0
  5  6  1  0
  6  7  2  0
  7  2  1  0
  8 10  1  0
  8  4  1  0
  9  8  1  0
 11 12  2  0
 13 12  1  0
 14 13  2  0
 15 14  1  0
 15 11  1  0
 16 14  1  0
 16 25  1  0
 17 16  2  0
 18 17  1  0
 18 19  2  0
 19 20  1  0
 20 25  2  0
 20 21  1  0
 21 22  2  0
 22 23  1  0
 24 23  2  0
 25 24  1  0
  2 26  1  0
  3 27  1  0
  8 28  1  0
  9 29  1  0
  9 30  1  0
  9 31  1  0
 10 32  1  0
 10 33  1  0
 10 34  1  0
 12 35  1  0
 13 36  1  0
 18 37  1  0
 21 38  1  0
 22 39  1  0
 23 40  1  0
 24 41  1  0
M  ISO  8  26  14  27  14  28   8  29   8  30   8  31   8  32   8  33   8
M  ISO  8  34   8  35  14  36  14  37  14  38  14  39  14  40  14  41  14
M  END
>  <minimizedAffinity>  (1) 
-5.52611399

>  <minimizedRMSD>  (1) 
3.42637134

$$$$
