
     RDKit          3D

 43 45  0  0  0  0  0  0  0  0999 V2000
   38.5510   23.3200   37.5950 C   0  0  0  0  0  0  0  0  0  0  0  0
   37.7670   24.3860   37.1070 C   0  0  0  0  0  0  0  0  0  0  0  0
   38.2390   25.0660   35.9830 C   0  0  0  0  0  0  0  0  0  0  0  0
   39.4330   24.6820   35.3970 N   0  0  0  0  0  0  0  0  0  0  0  0
   40.1180   23.6560   35.9230 C   0  0  0  0  0  0  0  0  0  0  0  0
   39.6990   22.9750   37.0040 N   0  0  0  0  0  0  0  0  0  0  0  0
   37.4920   26.1850   35.3590 C   0  0  0  0  0  0  0  0  0  0  0  0
   37.3150   26.0520   33.8970 C   0  0  0  0  0  0  0  0  0  0  0  0
   38.1370   27.5450   35.6990 C   0  0  0  0  0  0  0  0  0  0  0  0
   41.3190   23.2360   35.3660 O   0  0  0  0  0  0  0  0  0  0  0  0
   42.4940   23.7950   35.6020 C   0  0  0  0  0  0  0  0  0  0  0  0
   42.9830   25.0690   35.4410 C   0  0  0  0  0  0  0  0  0  0  0  0
   44.2640   25.3310   35.7860 C   0  0  0  0  0  0  0  0  0  0  0  0
   45.0530   24.2840   36.2990 C   0  0  0  0  0  0  0  0  0  0  0  0
   43.8840   22.8210   36.2910 S   0  0  0  0  0  0  0  0  0  0  0  0
   46.4200   24.0020   36.8080 C   0  0  0  0  0  0  0  0  0  0  0  0
   47.4870   24.3790   35.8110 C   0  0  0  0  0  0  0  0  0  0  0  0
   48.0800   25.7490   36.1290 C   0  0  0  0  0  0  0  0  0  0  0  0
   48.7690   25.7040   37.4740 C   0  0  0  0  0  0  0  0  0  0  0  0
   48.1460   24.6690   38.3770 C   0  0  0  0  0  0  0  0  0  0  0  0
   46.6400   24.7400   38.1160 C   0  0  0  0  0  0  0  0  0  0  0  0
   38.2109   22.7615   38.4795 H   0  0  0  0  0  0  0  0  0  0  0  0
   36.8217   24.6701   37.5925 H   0  0  0  0  0  0  0  0  0  0  0  0
   36.4836   26.1386   35.7961 H   0  0  0  0  0  0  0  0  0  0  0  0
   36.4513   25.4030   33.6898 H   0  0  0  0  0  0  0  0  0  0  0  0
   37.1415   27.0450   33.4568 H   0  0  0  0  0  0  0  0  0  0  0  0
   38.2205   25.6090   33.4568 H   0  0  0  0  0  0  0  0  0  0  0  0
   38.1923   27.6617   36.7914 H   0  0  0  0  0  0  0  0  0  0  0  0
   39.1507   27.5865   35.2740 H   0  0  0  0  0  0  0  0  0  0  0  0
   37.5277   28.3563   35.2740 H   0  0  0  0  0  0  0  0  0  0  0  0
   42.3408   25.8654   35.0368 H   0  0  0  0  0  0  0  0  0  0  0  0
   44.6812   26.3420   35.6682 H   0  0  0  0  0  0  0  0  0  0  0  0
   46.4993   22.9175   36.9742 H   0  0  0  0  0  0  0  0  0  0  0  0
   47.0445   24.4044   34.8042 H   0  0  0  0  0  0  0  0  0  0  0  0
   48.2916   23.6307   35.8621 H   0  0  0  0  0  0  0  0  0  0  0  0
   48.8102   26.0209   35.3526 H   0  0  0  0  0  0  0  0  0  0  0  0
   47.2749   26.4980   36.1560 H   0  0  0  0  0  0  0  0  0  0  0  0
   49.8302   25.4562   37.3244 H   0  0  0  0  0  0  0  0  0  0  0  0
   48.6618   26.6893   37.9511 H   0  0  0  0  0  0  0  0  0  0  0  0
   48.5301   23.6674   38.1337 H   0  0  0  0  0  0  0  0  0  0  0  0
   48.3830   24.8589   39.4342 H   0  0  0  0  0  0  0  0  0  0  0  0
   46.3143   25.7868   38.0263 H   0  0  0  0  0  0  0  0  0  0  0  0
   46.0617   24.2939   38.9386 H   0  0  0  0  0  0  0  0  0  0  0  0
  2  1  2  0
  3  2  1  0
  4  5  1  0
  4  3  2  0
  5  6  2  0
  6  1  1  0
  7  9  1  0
  7  3  1  0
  8  7  1  0
 10 11  1  0
 10  5  1  0
 11 15  1  0
 12 11  2  0
 12 13  1  0
 13 14  2  0
 14 16  1  0
 15 14  1  0
 16 21  1  0
 17 18  1  0
 17 16  1  0
 18 19  1  0
 19 20  1  0
 21 20  1  0
  1 22  1  0
  2 23  1  0
  7 24  1  0
  8 25  1  0
  8 26  1  0
  8 27  1  0
  9 28  1  0
  9 29  1  0
  9 30  1  0
 12 31  1  0
 13 32  1  0
 16 33  1  0
 17 34  1  0
 17 35  1  0
 18 36  1  0
 18 37  1  0
 19 38  1  0
 19 39  1  0
 20 40  1  0
 20 41  1  0
 21 42  1  0
 21 43  1  0
M  ISO  8  22  14  23  14  24   8  25   8  26   8  27   8  28   8  29   8
M  ISO  8  30   8  31  14  32  14  33  13  34  13  35  13  36  13  37  13
M  ISO  6  38  13  39  13  40  13  41  13  42  13  43  13
M  END
>  <minimizedAffinity>  (1) 
-4.95917797

>  <minimizedRMSD>  (1) 
2.8039875

$$$$
