
     RDKit          3D

 39 40  0  0  0  0  0  0  0  0999 V2000
   38.7340   23.3290   38.4360 C   0  0  0  0  0  0  0  0  0  0  0  0
   38.0310   24.3390   37.7530 C   0  0  0  0  0  0  0  0  0  0  0  0
   38.4790   24.6900   36.4790 C   0  0  0  0  0  0  0  0  0  0  0  0
   39.5800   24.0430   35.9410 N   0  0  0  0  0  0  0  0  0  0  0  0
   40.1900   23.0890   36.6620 C   0  0  0  0  0  0  0  0  0  0  0  0
   39.7890   22.7250   37.8920 N   0  0  0  0  0  0  0  0  0  0  0  0
   37.8070   25.7210   35.6530 C   0  0  0  0  0  0  0  0  0  0  0  0
   37.8080   25.4280   34.2030 C   0  0  0  0  0  0  0  0  0  0  0  0
   38.4080   27.1210   35.9100 C   0  0  0  0  0  0  0  0  0  0  0  0
   41.3060   22.4150   36.1440 O   0  0  0  0  0  0  0  0  0  0  0  0
   42.5360   22.8420   36.2280 C   0  0  0  0  0  0  0  0  0  0  0  0
   43.1080   24.0350   36.5910 C   0  0  0  0  0  0  0  0  0  0  0  0
   44.4440   24.1840   36.5800 C   0  0  0  0  0  0  0  0  0  0  0  0
   45.2350   23.0690   36.1840 C   0  0  0  0  0  0  0  0  0  0  0  0
   43.9460   21.7510   35.8120 S   0  0  0  0  0  0  0  0  0  0  0  0
   46.6960   22.9260   36.0750 C   0  0  0  0  0  0  0  0  0  0  0  0
   47.3190   23.7650   37.1720 C   0  0  0  0  0  0  0  0  0  0  0  0
   47.1880   21.5220   36.2320 C   0  0  0  0  0  0  0  0  0  0  0  0
   47.0680   23.4640   34.7100 C   0  0  0  0  0  0  0  0  0  0  0  0
   38.4045   23.0316   39.4424 H   0  0  0  0  0  0  0  0  0  0  0  0
   37.1598   24.8338   38.2071 H   0  0  0  0  0  0  0  0  0  0  0  0
   36.7548   25.7055   35.9732 H   0  0  0  0  0  0  0  0  0  0  0  0
   37.8117   24.3388   34.0490 H   0  0  0  0  0  0  0  0  0  0  0  0
   36.9084   25.8606   33.7409 H   0  0  0  0  0  0  0  0  0  0  0  0
   38.7047   25.8667   33.7409 H   0  0  0  0  0  0  0  0  0  0  0  0
   38.4826   27.2947   36.9936 H   0  0  0  0  0  0  0  0  0  0  0  0
   39.4100   27.1782   35.4597 H   0  0  0  0  0  0  0  0  0  0  0  0
   37.7593   27.8868   35.4597 H   0  0  0  0  0  0  0  0  0  0  0  0
   42.4679   24.8769   36.8937 H   0  0  0  0  0  0  0  0  0  0  0  0
   44.9110   25.1374   36.8679 H   0  0  0  0  0  0  0  0  0  0  0  0
   47.0221   23.3652   38.1528 H   0  0  0  0  0  0  0  0  0  0  0  0
   48.4147   23.7340   37.0798 H   0  0  0  0  0  0  0  0  0  0  0  0
   46.9725   24.8049   37.0798 H   0  0  0  0  0  0  0  0  0  0  0  0
   47.2726   21.2806   37.3018 H   0  0  0  0  0  0  0  0  0  0  0  0
   46.4790   20.8295   35.7548 H   0  0  0  0  0  0  0  0  0  0  0  0
   48.1742   21.4235   35.7548 H   0  0  0  0  0  0  0  0  0  0  0  0
   47.6900   24.3636   34.8275 H   0  0  0  0  0  0  0  0  0  0  0  0
   47.6309   22.6989   34.1553 H   0  0  0  0  0  0  0  0  0  0  0  0
   46.1534   23.7205   34.1553 H   0  0  0  0  0  0  0  0  0  0  0  0
  2  1  2  0
  3  2  1  0
  4  3  2  0
  4  5  1  0
  5  6  2  0
  6  1  1  0
  7  9  1  0
  7  3  1  0
  8  7  1  0
 10 11  1  0
 10  5  1  0
 11 12  2  0
 13 12  1  0
 14 13  2  0
 15 14  1  0
 15 11  1  0
 16 14  1  0
 16 18  1  0
 16 17  1  0
 19 16  1  0
  1 20  1  0
  2 21  1  0
  7 22  1  0
  8 23  1  0
  8 24  1  0
  8 25  1  0
  9 26  1  0
  9 27  1  0
  9 28  1  0
 12 29  1  0
 13 30  1  0
 17 31  1  0
 17 32  1  0
 17 33  1  0
 18 34  1  0
 18 35  1  0
 18 36  1  0
 19 37  1  0
 19 38  1  0
 19 39  1  0
M  ISO  8  20  14  21  14  22   8  23   8  24   8  25   8  26   8  27   8
M  ISO  8  28   8  29  14  30  14  31   8  32   8  33   8  34   8  35   8
M  ISO  4  36   8  37   8  38   8  39   8
M  END
>  <minimizedAffinity>  (1) 
-4.53524351

>  <minimizedRMSD>  (1) 
0.537704647

$$$$
