
     RDKit          3D

 36 38  0  0  0  0  0  0  0  0999 V2000
   38.7150   23.3140   38.3420 C   0  0  0  0  0  0  0  0  0  0  0  0
   37.9880   24.3340   37.6890 C   0  0  0  0  0  0  0  0  0  0  0  0
   38.4390   24.7310   36.4290 C   0  0  0  0  0  0  0  0  0  0  0  0
   39.5570   24.1290   35.8750 N   0  0  0  0  0  0  0  0  0  0  0  0
   40.1880   23.1640   36.5690 C   0  0  0  0  0  0  0  0  0  0  0  0
   39.7890   22.7540   37.7770 N   0  0  0  0  0  0  0  0  0  0  0  0
   37.7440   25.7710   35.6330 C   0  0  0  0  0  0  0  0  0  0  0  0
   37.7190   25.5040   34.1790 C   0  0  0  0  0  0  0  0  0  0  0  0
   38.3490   27.1680   35.8970 C   0  0  0  0  0  0  0  0  0  0  0  0
   41.3130   22.5370   36.0350 O   0  0  0  0  0  0  0  0  0  0  0  0
   42.5420   22.9860   36.1560 C   0  0  0  0  0  0  0  0  0  0  0  0
   43.0780   24.2240   36.4280 C   0  0  0  0  0  0  0  0  0  0  0  0
   44.4270   24.3440   36.4840 C   0  0  0  0  0  0  0  0  0  0  0  0
   45.2270   23.2010   36.2610 C   0  0  0  0  0  0  0  0  0  0  0  0
   43.9710   21.8550   35.9480 S   0  0  0  0  0  0  0  0  0  0  0  0
   46.6240   23.0680   36.2630 C   0  0  0  0  0  0  0  0  0  0  0  0
   47.2570   21.8410   36.2790 C   0  0  0  0  0  0  0  0  0  0  0  0
   48.6370   21.8450   36.2800 C   0  0  0  0  0  0  0  0  0  0  0  0
   49.3600   23.0430   36.2650 C   0  0  0  0  0  0  0  0  0  0  0  0
   48.6810   24.2450   36.2480 C   0  0  0  0  0  0  0  0  0  0  0  0
   47.3350   24.2210   36.2480 N   0  0  0  0  0  0  0  0  0  0  0  0
   38.3904   22.9735   39.3363 H   0  0  0  0  0  0  0  0  0  0  0  0
   37.1042   24.7957   38.1535 H   0  0  0  0  0  0  0  0  0  0  0  0
   36.6988   25.7436   35.9746 H   0  0  0  0  0  0  0  0  0  0  0  0
   37.6177   24.4223   34.0065 H   0  0  0  0  0  0  0  0  0  0  0  0
   36.8661   26.0292   33.7244 H   0  0  0  0  0  0  0  0  0  0  0  0
   38.6546   25.8618   33.7244 H   0  0  0  0  0  0  0  0  0  0  0  0
   38.4222   27.3369   36.9815 H   0  0  0  0  0  0  0  0  0  0  0  0
   39.3520   27.2239   35.4487 H   0  0  0  0  0  0  0  0  0  0  0  0
   37.7036   27.9378   35.4487 H   0  0  0  0  0  0  0  0  0  0  0  0
   42.4275   25.0950   36.5959 H   0  0  0  0  0  0  0  0  0  0  0  0
   44.8921   25.3172   36.6999 H   0  0  0  0  0  0  0  0  0  0  0  0
   46.6860   20.9009   36.2905 H   0  0  0  0  0  0  0  0  0  0  0  0
   49.1791   20.8880   36.2928 H   0  0  0  0  0  0  0  0  0  0  0  0
   50.4599   23.0272   36.2667 H   0  0  0  0  0  0  0  0  0  0  0  0
   49.2270   25.1998   36.2348 H   0  0  0  0  0  0  0  0  0  0  0  0
  2  1  2  0
  3  2  1  0
  4  3  2  0
  4  5  1  0
  5  6  2  0
  6  1  1  0
  7  9  1  0
  7  3  1  0
  8  7  1  0
 10 11  1  0
 10  5  1  0
 11 12  2  0
 12 13  1  0
 14 16  1  0
 14 13  2  0
 15 11  1  0
 15 14  1  0
 16 17  2  0
 17 18  1  0
 19 18  2  0
 20 19  1  0
 21 20  2  0
 21 16  1  0
  1 22  1  0
  2 23  1  0
  7 24  1  0
  8 25  1  0
  8 26  1  0
  8 27  1  0
  9 28  1  0
  9 29  1  0
  9 30  1  0
 12 31  1  0
 13 32  1  0
 17 33  1  0
 18 34  1  0
 19 35  1  0
 20 36  1  0
M  ISO  8  22  14  23  14  24   8  25   8  26   8  27   8  28   8  29   8
M  ISO  7  30   8  31  14  32  14  33  14  34  14  35  14  36  14
M  END
>  <minimizedAffinity>  (1) 
-4.49902964

>  <minimizedRMSD>  (1) 
0.611550868

$$$$
