
     RDKit          3D

 34 36  0  0  0  0  0  0  0  0999 V2000
   38.7160   23.3420   38.4200 C   0  0  0  0  0  0  0  0  0  0  0  0
   38.0090   24.3530   37.7450 C   0  0  0  0  0  0  0  0  0  0  0  0
   38.4470   24.7070   36.4650 C   0  0  0  0  0  0  0  0  0  0  0  0
   39.5390   24.0630   35.9180 N   0  0  0  0  0  0  0  0  0  0  0  0
   40.1590   23.1060   36.6290 C   0  0  0  0  0  0  0  0  0  0  0  0
   39.7680   22.7410   37.8580 N   0  0  0  0  0  0  0  0  0  0  0  0
   37.7630   25.7360   35.6490 C   0  0  0  0  0  0  0  0  0  0  0  0
   37.7790   25.4560   34.1950 C   0  0  0  0  0  0  0  0  0  0  0  0
   38.3450   27.1400   35.9250 C   0  0  0  0  0  0  0  0  0  0  0  0
   41.2680   22.4220   36.1220 O   0  0  0  0  0  0  0  0  0  0  0  0
   42.5080   22.8310   36.2240 C   0  0  0  0  0  0  0  0  0  0  0  0
   43.0810   24.0370   36.5590 C   0  0  0  0  0  0  0  0  0  0  0  0
   44.4360   24.1290   36.5670 C   0  0  0  0  0  0  0  0  0  0  0  0
   45.2020   22.9910   36.2350 C   0  0  0  0  0  0  0  0  0  0  0  0
   43.9000   21.6860   35.8810 S   0  0  0  0  0  0  0  0  0  0  0  0
   46.6570   22.9610   36.2070 N   0  0  0  0  0  0  0  0  0  0  0  0
   47.4250   24.0220   36.1110 N   0  0  0  0  0  0  0  0  0  0  0  0
   48.7360   23.6400   36.1130 C   0  0  0  0  0  0  0  0  0  0  0  0
   48.6490   22.2510   36.2190 C   0  0  0  0  0  0  0  0  0  0  0  0
   47.3360   21.8210   36.2790 C   0  0  0  0  0  0  0  0  0  0  0  0
   38.3969   23.0409   39.4287 H   0  0  0  0  0  0  0  0  0  0  0  0
   37.1422   24.8478   38.2074 H   0  0  0  0  0  0  0  0  0  0  0  0
   36.7089   25.7051   35.9619 H   0  0  0  0  0  0  0  0  0  0  0  0
   37.8411   24.3700   34.0314 H   0  0  0  0  0  0  0  0  0  0  0  0
   36.8572   25.8438   33.7368 H   0  0  0  0  0  0  0  0  0  0  0  0
   38.6506   25.9462   33.7368 H   0  0  0  0  0  0  0  0  0  0  0  0
   38.4122   27.3021   37.0109 H   0  0  0  0  0  0  0  0  0  0  0  0
   39.3483   27.2149   35.4803 H   0  0  0  0  0  0  0  0  0  0  0  0
   37.6889   27.9028   35.4803 H   0  0  0  0  0  0  0  0  0  0  0  0
   42.4562   24.9056   36.8142 H   0  0  0  0  0  0  0  0  0  0  0  0
   44.9293   25.0768   36.8285 H   0  0  0  0  0  0  0  0  0  0  0  0
   49.6357   24.2695   36.0475 H   0  0  0  0  0  0  0  0  0  0  0  0
   49.5196   21.5795   36.2510 H   0  0  0  0  0  0  0  0  0  0  0  0
   46.9508   20.7942   36.3647 H   0  0  0  0  0  0  0  0  0  0  0  0
  2  1  2  0
  3  2  1  0
  4  3  2  0
  4  5  1  0
  5  6  2  0
  6  1  1  0
  7  9  1  0
  7  3  1  0
  8  7  1  0
 10 11  1  0
 10  5  1  0
 11 12  2  0
 12 13  1  0
 14 13  2  0
 15 11  1  0
 15 14  1  0
 16 14  1  0
 16 20  1  0
 17 18  2  0
 17 16  1  0
 18 19  1  0
 19 20  2  0
  1 21  1  0
  2 22  1  0
  7 23  1  0
  8 24  1  0
  8 25  1  0
  8 26  1  0
  9 27  1  0
  9 28  1  0
  9 29  1  0
 12 30  1  0
 13 31  1  0
 18 32  1  0
 19 33  1  0
 20 34  1  0
M  ISO  8  21  14  22  14  23   8  24   8  25   8  26   8  27   8  28   8
M  ISO  6  29   8  30  14  31  14  32  14  33  14  34  14
M  END
>  <minimizedAffinity>  (1) 
-4.4301486

>  <minimizedRMSD>  (1) 
0.373036563

$$$$
