
     RDKit          3D

 33 35  0  0  0  0  0  0  0  0999 V2000
   38.7110   23.3540   38.4130 C   0  0  0  0  0  0  0  0  0  0  0  0
   37.9990   24.3730   37.7460 C   0  0  0  0  0  0  0  0  0  0  0  0
   38.4310   24.7150   36.4640 C   0  0  0  0  0  0  0  0  0  0  0  0
   39.5160   24.0640   35.8990 N   0  0  0  0  0  0  0  0  0  0  0  0
   40.1330   23.1050   36.6120 C   0  0  0  0  0  0  0  0  0  0  0  0
   39.7500   22.7420   37.8520 N   0  0  0  0  0  0  0  0  0  0  0  0
   37.7540   25.7490   35.6470 C   0  0  0  0  0  0  0  0  0  0  0  0
   37.7510   25.4760   34.1940 C   0  0  0  0  0  0  0  0  0  0  0  0
   38.3440   27.1500   35.9270 C   0  0  0  0  0  0  0  0  0  0  0  0
   41.2300   22.4180   36.0850 O   0  0  0  0  0  0  0  0  0  0  0  0
   42.4790   22.8130   36.2000 C   0  0  0  0  0  0  0  0  0  0  0  0
   43.0830   24.0100   36.5000 C   0  0  0  0  0  0  0  0  0  0  0  0
   44.4220   24.0910   36.5400 C   0  0  0  0  0  0  0  0  0  0  0  0
   45.1660   22.9190   36.2690 C   0  0  0  0  0  0  0  0  0  0  0  0
   43.8580   21.6250   35.9360 S   0  0  0  0  0  0  0  0  0  0  0  0
   46.5460   22.7220   36.2440 N   0  0  0  0  0  0  0  0  0  0  0  0
   47.3440   21.8640   35.5750 C   0  0  0  0  0  0  0  0  0  0  0  0
   48.6180   22.1200   35.9360 N   0  0  0  0  0  0  0  0  0  0  0  0
   48.5920   23.1450   36.8340 C   0  0  0  0  0  0  0  0  0  0  0  0
   47.2930   23.5170   37.0230 N   0  0  0  0  0  0  0  0  0  0  0  0
   38.3982   23.0574   39.4250 H   0  0  0  0  0  0  0  0  0  0  0  0
   37.1409   24.8759   38.2159 H   0  0  0  0  0  0  0  0  0  0  0  0
   36.7005   25.7190   35.9621 H   0  0  0  0  0  0  0  0  0  0  0  0
   37.7391   24.3891   34.0252 H   0  0  0  0  0  0  0  0  0  0  0  0
   36.8578   25.9278   33.7379 H   0  0  0  0  0  0  0  0  0  0  0  0
   38.6539   25.9080   33.7379 H   0  0  0  0  0  0  0  0  0  0  0  0
   38.4110   27.3092   37.0134 H   0  0  0  0  0  0  0  0  0  0  0  0
   39.3482   27.2203   35.4835 H   0  0  0  0  0  0  0  0  0  0  0  0
   37.6927   27.9175   35.4835 H   0  0  0  0  0  0  0  0  0  0  0  0
   42.4705   24.8999   36.7069 H   0  0  0  0  0  0  0  0  0  0  0  0
   44.9256   25.0400   36.7764 H   0  0  0  0  0  0  0  0  0  0  0  0
   47.0144   21.0935   34.8625 H   0  0  0  0  0  0  0  0  0  0  0  0
   49.4685   23.5953   37.3228 H   0  0  0  0  0  0  0  0  0  0  0  0
  2  1  2  0
  3  2  1  0
  4  3  2  0
  4  5  1  0
  5  6  2  0
  6  1  1  0
  7  9  1  0
  7  3  1  0
  8  7  1  0
 10 11  1  0
 10  5  1  0
 11 12  2  0
 12 13  1  0
 14 13  2  0
 15 11  1  0
 15 14  1  0
 16 14  1  0
 16 20  1  0
 17 18  2  0
 17 16  1  0
 18 19  1  0
 19 20  2  0
  1 21  1  0
  2 22  1  0
  7 23  1  0
  8 24  1  0
  8 25  1  0
  8 26  1  0
  9 27  1  0
  9 28  1  0
  9 29  1  0
 12 30  1  0
 13 31  1  0
 17 32  1  0
 19 33  1  0
M  ISO  8  21  14  22  14  23   8  24   8  25   8  26   8  27   8  28   8
M  ISO  5  29   8  30  14  31  14  32  14  33  14
M  END
>  <minimizedAffinity>  (1) 
-4.4196806

>  <minimizedRMSD>  (1) 
0.380713135

$$$$
