
     RDKit          3D

 34 36  0  0  0  0  0  0  0  0999 V2000
   38.7290   23.3300   38.4170 C   0  0  0  0  0  0  0  0  0  0  0  0
   38.0170   24.3400   37.7430 C   0  0  0  0  0  0  0  0  0  0  0  0
   38.4570   24.6970   36.4690 C   0  0  0  0  0  0  0  0  0  0  0  0
   39.5590   24.0610   35.9200 N   0  0  0  0  0  0  0  0  0  0  0  0
   40.1790   23.1060   36.6360 C   0  0  0  0  0  0  0  0  0  0  0  0
   39.7840   22.7380   37.8600 N   0  0  0  0  0  0  0  0  0  0  0  0
   37.7750   25.7260   35.6480 C   0  0  0  0  0  0  0  0  0  0  0  0
   37.7910   25.4500   34.1950 C   0  0  0  0  0  0  0  0  0  0  0  0
   38.3510   27.1320   35.9250 C   0  0  0  0  0  0  0  0  0  0  0  0
   41.2920   22.4420   36.1130 O   0  0  0  0  0  0  0  0  0  0  0  0
   42.5290   22.8520   36.2220 C   0  0  0  0  0  0  0  0  0  0  0  0
   43.0970   24.0580   36.5630 C   0  0  0  0  0  0  0  0  0  0  0  0
   44.4490   24.1650   36.5830 C   0  0  0  0  0  0  0  0  0  0  0  0
   45.2210   23.0280   36.2500 C   0  0  0  0  0  0  0  0  0  0  0  0
   43.9310   21.7150   35.8850 S   0  0  0  0  0  0  0  0  0  0  0  0
   46.6460   22.9280   36.2100 N   0  0  0  0  0  0  0  0  0  0  0  0
   47.3420   21.7900   36.2630 C   0  0  0  0  0  0  0  0  0  0  0  0
   48.6650   22.2230   36.1910 C   0  0  0  0  0  0  0  0  0  0  0  0
   48.6930   23.5790   36.0990 N   0  0  0  0  0  0  0  0  0  0  0  0
   47.4150   24.0210   36.1120 C   0  0  0  0  0  0  0  0  0  0  0  0
   38.4078   23.0237   39.4235 H   0  0  0  0  0  0  0  0  0  0  0  0
   37.1463   24.8292   38.2040 H   0  0  0  0  0  0  0  0  0  0  0  0
   36.7207   25.6889   35.9595 H   0  0  0  0  0  0  0  0  0  0  0  0
   37.8539   24.3645   34.0286 H   0  0  0  0  0  0  0  0  0  0  0  0
   36.8688   25.8382   33.7379 H   0  0  0  0  0  0  0  0  0  0  0  0
   38.6621   25.9421   33.7379 H   0  0  0  0  0  0  0  0  0  0  0  0
   38.4172   27.2937   37.0110 H   0  0  0  0  0  0  0  0  0  0  0  0
   39.3541   27.2114   35.4806 H   0  0  0  0  0  0  0  0  0  0  0  0
   37.6919   27.8923   35.4806 H   0  0  0  0  0  0  0  0  0  0  0  0
   42.4645   24.9218   36.8154 H   0  0  0  0  0  0  0  0  0  0  0  0
   44.9340   25.1149   36.8522 H   0  0  0  0  0  0  0  0  0  0  0  0
   46.9633   20.7604   36.3439 H   0  0  0  0  0  0  0  0  0  0  0  0
   49.5493   21.5689   36.2063 H   0  0  0  0  0  0  0  0  0  0  0  0
   47.0756   25.0657   36.0539 H   0  0  0  0  0  0  0  0  0  0  0  0
  2  1  2  0
  3  2  1  0
  4  3  2  0
  4  5  1  0
  5  6  2  0
  6  1  1  0
  7  9  1  0
  7  3  1  0
  8  7  1  0
 10 11  1  0
 10  5  1  0
 11 12  2  0
 12 13  1  0
 14 13  2  0
 15 11  1  0
 15 14  1  0
 16 14  1  0
 16 17  1  0
 18 17  2  0
 19 20  2  0
 19 18  1  0
 20 16  1  0
  1 21  1  0
  2 22  1  0
  7 23  1  0
  8 24  1  0
  8 25  1  0
  8 26  1  0
  9 27  1  0
  9 28  1  0
  9 29  1  0
 12 30  1  0
 13 31  1  0
 17 32  1  0
 18 33  1  0
 20 34  1  0
M  ISO  8  21  14  22  14  23   8  24   8  25   8  26   8  27   8  28   8
M  ISO  6  29   8  30  14  31  14  32  14  33  14  34  14
M  END
>  <minimizedAffinity>  (1) 
-4.40498066

>  <minimizedRMSD>  (1) 
0.483044922

$$$$
