
     RDKit          3D

 30 31  0  0  0  0  0  0  0  0999 V2000
   38.7200   23.3450   38.4310 C   0  0  0  0  0  0  0  0  0  0  0  0
   38.0110   24.3590   37.7580 C   0  0  0  0  0  0  0  0  0  0  0  0
   38.4630   24.6990   36.4690 C   0  0  0  0  0  0  0  0  0  0  0  0
   39.5560   24.0500   35.9180 N   0  0  0  0  0  0  0  0  0  0  0  0
   40.1630   23.0920   36.6500 C   0  0  0  0  0  0  0  0  0  0  0  0
   39.7640   22.7330   37.8910 N   0  0  0  0  0  0  0  0  0  0  0  0
   37.7830   25.7290   35.6630 C   0  0  0  0  0  0  0  0  0  0  0  0
   37.7860   25.4600   34.2080 C   0  0  0  0  0  0  0  0  0  0  0  0
   38.3820   27.1310   35.9110 C   0  0  0  0  0  0  0  0  0  0  0  0
   41.2670   22.4100   36.1340 O   0  0  0  0  0  0  0  0  0  0  0  0
   42.5120   22.8210   36.2220 C   0  0  0  0  0  0  0  0  0  0  0  0
   43.0930   24.0220   36.5540 C   0  0  0  0  0  0  0  0  0  0  0  0
   44.4330   24.1340   36.5540 C   0  0  0  0  0  0  0  0  0  0  0  0
   45.1920   22.9940   36.2080 C   0  0  0  0  0  0  0  0  0  0  0  0
   43.9050   21.6850   35.8620 S   0  0  0  0  0  0  0  0  0  0  0  0
   46.6150   22.8270   36.1250 C   0  0  0  0  0  0  0  0  0  0  0  0
   47.1750   22.1150   35.2510 O   0  0  0  0  0  0  0  0  0  0  0  0
   47.3690   23.4960   37.0670 O   0  0  0  0  0  0  0  0  0  0  0  0
   38.3958   23.0508   39.4401 H   0  0  0  0  0  0  0  0  0  0  0  0
   37.1464   24.8606   38.2172 H   0  0  0  0  0  0  0  0  0  0  0  0
   36.7371   25.6957   36.0022 H   0  0  0  0  0  0  0  0  0  0  0  0
   37.7981   24.3736   34.0360 H   0  0  0  0  0  0  0  0  0  0  0  0
   36.8830   25.8932   33.7532 H   0  0  0  0  0  0  0  0  0  0  0  0
   38.6791   25.9132   33.7532 H   0  0  0  0  0  0  0  0  0  0  0  0
   38.4588   27.3107   36.9935 H   0  0  0  0  0  0  0  0  0  0  0  0
   39.3828   27.1875   35.4581 H   0  0  0  0  0  0  0  0  0  0  0  0
   37.7310   27.8932   35.4581 H   0  0  0  0  0  0  0  0  0  0  0  0
   42.4655   24.8860   36.8180 H   0  0  0  0  0  0  0  0  0  0  0  0
   44.9228   25.0836   36.8153 H   0  0  0  0  0  0  0  0  0  0  0  0
   48.3558   23.4174   37.0579 H   0  0  0  0  0  0  0  0  0  0  0  0
  2  1  2  0
  3  2  1  0
  4  3  2  0
  4  5  1  0
  5  6  2  0
  6  1  1  0
  7  9  1  0
  7  3  1  0
  8  7  1  0
 10 11  1  0
 10  5  1  0
 11 12  2  0
 12 13  1  0
 14 13  2  0
 15 14  1  0
 15 11  1  0
 16 14  1  0
 16 18  1  0
 17 16  2  0
  1 19  1  0
  2 20  1  0
  7 21  1  0
  8 22  1  0
  8 23  1  0
  8 24  1  0
  9 25  1  0
  9 26  1  0
  9 27  1  0
 12 28  1  0
 13 29  1  0
 18 30  1  0
M  ISO  8  19  14  20  14  21   8  22   8  23   8  24   8  25   8  26   8
M  ISO  4  27   8  28  14  29  14  30   3
M  END
>  <minimizedAffinity>  (1) 
-4.29686546

>  <minimizedRMSD>  (1) 
0.35105744

$$$$
