
     RDKit          3D

 29 30  0  0  0  0  0  0  0  0999 V2000
   38.7230   23.3870   38.4670 C   0  0  0  0  0  0  0  0  0  0  0  0
   38.0370   24.4120   37.7890 C   0  0  0  0  0  0  0  0  0  0  0  0
   38.4500   24.7100   36.4850 C   0  0  0  0  0  0  0  0  0  0  0  0
   39.4950   24.0010   35.9240 N   0  0  0  0  0  0  0  0  0  0  0  0
   40.0960   23.0350   36.6460 C   0  0  0  0  0  0  0  0  0  0  0  0
   39.7280   22.7240   37.8930 N   0  0  0  0  0  0  0  0  0  0  0  0
   37.7870   25.7470   35.6630 C   0  0  0  0  0  0  0  0  0  0  0  0
   37.7930   25.4540   34.2120 C   0  0  0  0  0  0  0  0  0  0  0  0
   38.3910   27.1420   35.9240 C   0  0  0  0  0  0  0  0  0  0  0  0
   41.1580   22.3090   36.0820 O   0  0  0  0  0  0  0  0  0  0  0  0
   42.4120   22.6650   36.1530 C   0  0  0  0  0  0  0  0  0  0  0  0
   43.0600   23.8040   36.5630 C   0  0  0  0  0  0  0  0  0  0  0  0
   44.4020   23.8870   36.5230 C   0  0  0  0  0  0  0  0  0  0  0  0
   45.1130   22.7320   36.0330 C   0  0  0  0  0  0  0  0  0  0  0  0
   43.7410   21.5200   35.6300 S   0  0  0  0  0  0  0  0  0  0  0  0
   46.4720   22.5260   35.8800 N   0  0  0  0  0  0  0  0  0  0  0  0
   38.4237   23.1269   39.4930 H   0  0  0  0  0  0  0  0  0  0  0  0
   37.2089   24.9575   38.2650 H   0  0  0  0  0  0  0  0  0  0  0  0
   36.7343   25.7397   35.9820 H   0  0  0  0  0  0  0  0  0  0  0  0
   37.8153   24.3651   34.0579 H   0  0  0  0  0  0  0  0  0  0  0  0
   36.8861   25.8712   33.7499 H   0  0  0  0  0  0  0  0  0  0  0  0
   38.6820   25.9080   33.7499 H   0  0  0  0  0  0  0  0  0  0  0  0
   38.4649   27.3126   37.0082 H   0  0  0  0  0  0  0  0  0  0  0  0
   39.3937   27.1973   35.4750 H   0  0  0  0  0  0  0  0  0  0  0  0
   37.7452   27.9110   35.4750 H   0  0  0  0  0  0  0  0  0  0  0  0
   42.4740   24.6599   36.9290 H   0  0  0  0  0  0  0  0  0  0  0  0
   44.9325   24.7938   36.8489 H   0  0  0  0  0  0  0  0  0  0  0  0
   46.8186   21.6292   35.5105 H   0  0  0  0  0  0  0  0  0  0  0  0
   47.1376   23.2694   36.1356 H   0  0  0  0  0  0  0  0  0  0  0  0
  2  1  2  0
  3  2  1  0
  4  3  2  0
  4  5  1  0
  5  6  2  0
  6  1  1  0
  7  9  1  0
  7  3  1  0
  8  7  1  0
 10 11  1  0
 10  5  1  0
 11 12  2  0
 13 12  1  0
 14 13  2  0
 15 14  1  0
 15 11  1  0
 16 14  1  0
  1 17  1  0
  2 18  1  0
  7 19  1  0
  8 20  1  0
  8 21  1  0
  8 22  1  0
  9 23  1  0
  9 24  1  0
  9 25  1  0
 12 26  1  0
 13 27  1  0
 16 28  1  0
 16 29  1  0
M  ISO  8  17  14  18  14  19   8  20   8  21   8  22   8  23   8  24   8
M  ISO  3  25   8  26  14  27  14
M  END
>  <minimizedAffinity>  (1) 
-4.28413963

>  <minimizedRMSD>  (1) 
0.0366473757

$$$$
