
     RDKit          3D

 28 29  0  0  0  0  0  0  0  0999 V2000
   38.7230   23.3850   38.4670 C   0  0  0  0  0  0  0  0  0  0  0  0
   38.0340   24.4090   37.7870 C   0  0  0  0  0  0  0  0  0  0  0  0
   38.4440   24.7110   36.4880 C   0  0  0  0  0  0  0  0  0  0  0  0
   39.4940   24.0050   35.9260 N   0  0  0  0  0  0  0  0  0  0  0  0
   40.0950   23.0430   36.6450 C   0  0  0  0  0  0  0  0  0  0  0  0
   39.7310   22.7250   37.8900 N   0  0  0  0  0  0  0  0  0  0  0  0
   37.7850   25.7480   35.6610 C   0  0  0  0  0  0  0  0  0  0  0  0
   37.7870   25.4590   34.2110 C   0  0  0  0  0  0  0  0  0  0  0  0
   38.3930   27.1430   35.9280 C   0  0  0  0  0  0  0  0  0  0  0  0
   41.1580   22.3030   36.1160 O   0  0  0  0  0  0  0  0  0  0  0  0
   42.4150   22.6550   36.1710 C   0  0  0  0  0  0  0  0  0  0  0  0
   43.0630   23.7990   36.5650 C   0  0  0  0  0  0  0  0  0  0  0  0
   44.4040   23.8710   36.5100 C   0  0  0  0  0  0  0  0  0  0  0  0
   45.1230   22.7380   36.0350 C   0  0  0  0  0  0  0  0  0  0  0  0
   43.7470   21.5110   35.6550 S   0  0  0  0  0  0  0  0  0  0  0  0
   46.4610   22.5460   35.8800 O   0  0  0  0  0  0  0  0  0  0  0  0
   38.4250   23.1240   39.4932 H   0  0  0  0  0  0  0  0  0  0  0  0
   37.2032   24.9505   38.2630 H   0  0  0  0  0  0  0  0  0  0  0  0
   36.7306   25.7388   35.9743 H   0  0  0  0  0  0  0  0  0  0  0  0
   37.7945   24.3703   34.0541 H   0  0  0  0  0  0  0  0  0  0  0  0
   36.8859   25.8896   33.7500 H   0  0  0  0  0  0  0  0  0  0  0  0
   38.6821   25.9021   33.7500 H   0  0  0  0  0  0  0  0  0  0  0  0
   38.4657   27.3098   37.0129 H   0  0  0  0  0  0  0  0  0  0  0  0
   39.3964   27.1974   35.4806 H   0  0  0  0  0  0  0  0  0  0  0  0
   37.7498   27.9151   35.4806 H   0  0  0  0  0  0  0  0  0  0  0  0
   42.4825   24.6603   36.9272 H   0  0  0  0  0  0  0  0  0  0  0  0
   44.9328   24.7829   36.8243 H   0  0  0  0  0  0  0  0  0  0  0  0
   46.8002   21.6838   35.5313 H   0  0  0  0  0  0  0  0  0  0  0  0
  2  1  2  0
  3  2  1  0
  4  3  2  0
  4  5  1  0
  5  6  2  0
  6  1  1  0
  7  9  1  0
  7  3  1  0
  8  7  1  0
 10 11  1  0
 10  5  1  0
 11 12  2  0
 13 12  1  0
 14 13  2  0
 15 14  1  0
 15 11  1  0
 16 14  1  0
  1 17  1  0
  2 18  1  0
  7 19  1  0
  8 20  1  0
  8 21  1  0
  8 22  1  0
  9 23  1  0
  9 24  1  0
  9 25  1  0
 12 26  1  0
 13 27  1  0
 16 28  1  0
M  ISO  8  17  14  18  14  19   8  20   8  21   8  22   8  23   8  24   8
M  ISO  4  25   8  26  14  27  14  28   3
M  END
>  <minimizedAffinity>  (1) 
-4.28259563

>  <minimizedRMSD>  (1) 
0.0581304431

$$$$
