
     RDKit          3D

 50 53  0  0  0  0  0  0  0  0999 V2000
   41.3330   21.8610   36.2290 C   0  0  0  0  0  0  0  0  0  0  0  0
   42.4720   21.3650   36.7930 C   0  0  0  0  0  0  0  0  0  0  0  0
   43.6620   21.5660   36.2080 C   0  0  0  0  0  0  0  0  0  0  0  0
   43.6870   22.3030   34.9940 C   0  0  0  0  0  0  0  0  0  0  0  0
   41.8900   22.7130   34.7130 S   0  0  0  0  0  0  0  0  0  0  0  0
   44.7960   22.6720   34.1460 C   0  0  0  0  0  0  0  0  0  0  0  0
   45.0420   22.0200   32.9770 C   0  0  0  0  0  0  0  0  0  0  0  0
   46.1020   22.4660   32.2300 C   0  0  0  0  0  0  0  0  0  0  0  0
   46.8760   23.5210   32.6480 C   0  0  0  0  0  0  0  0  0  0  0  0
   46.6060   24.1740   33.8510 C   0  0  0  0  0  0  0  0  0  0  0  0
   45.5360   23.7210   34.6020 C   0  0  0  0  0  0  0  0  0  0  0  0
   45.4720   24.5050   35.7900 N   0  0  0  0  0  0  0  0  0  0  0  0
   46.3500   24.2090   36.7950 C   0  0  0  0  0  0  0  0  0  0  0  0
   46.3300   24.9120   37.9800 C   0  0  0  0  0  0  0  0  0  0  0  0
   47.3090   24.5390   39.0290 C   0  0  0  0  0  0  0  0  0  0  0  0
   45.3960   25.9180   38.1080 C   0  0  0  0  0  0  0  0  0  0  0  0
   45.3800   26.5620   39.1980 O   0  0  0  0  0  0  0  0  0  0  0  0
   44.5460   26.1890   37.1080 N   0  0  0  0  0  0  0  0  0  0  0  0
   44.5490   25.5060   35.9320 C   0  0  0  0  0  0  0  0  0  0  0  0
   43.7440   25.7720   35.0010 O   0  0  0  0  0  0  0  0  0  0  0  0
   40.0680   21.8240   36.5620 O   0  0  0  0  0  0  0  0  0  0  0  0
   38.2870   23.9720   38.7570 C   0  0  0  0  0  0  0  0  0  0  0  0
   37.8500   25.0120   37.9210 C   0  0  0  0  0  0  0  0  0  0  0  0
   38.1890   24.9480   36.5770 C   0  0  0  0  0  0  0  0  0  0  0  0
   38.9410   23.8760   36.1000 N   0  0  0  0  0  0  0  0  0  0  0  0
   39.3210   22.9160   36.9820 C   0  0  0  0  0  0  0  0  0  0  0  0
   39.0040   22.9580   38.2770 N   0  0  0  0  0  0  0  0  0  0  0  0
   37.7660   25.9740   35.5830 C   0  0  0  0  0  0  0  0  0  0  0  0
   37.8220   25.5200   34.1920 C   0  0  0  0  0  0  0  0  0  0  0  0
   38.5780   27.2910   35.7630 C   0  0  0  0  0  0  0  0  0  0  0  0
   42.4140   20.7969   37.7331 H   0  0  0  0  0  0  0  0  0  0  0  0
   44.5879   21.1732   36.6535 H   0  0  0  0  0  0  0  0  0  0  0  0
   44.4199   21.1750   32.6469 H   0  0  0  0  0  0  0  0  0  0  0  0
   46.3371   21.9691   31.2772 H   0  0  0  0  0  0  0  0  0  0  0  0
   47.7196   23.8553   32.0262 H   0  0  0  0  0  0  0  0  0  0  0  0
   47.2223   25.0195   34.1905 H   0  0  0  0  0  0  0  0  0  0  0  0
   47.0817   23.3995   36.6561 H   0  0  0  0  0  0  0  0  0  0  0  0
   46.8654   24.7080   40.0213 H   0  0  0  0  0  0  0  0  0  0  0  0
   47.5742   23.4768   38.9220 H   0  0  0  0  0  0  0  0  0  0  0  0
   48.2138   25.1554   38.9220 H   0  0  0  0  0  0  0  0  0  0  0  0
   43.8608   26.9474   37.2356 H   0  0  0  0  0  0  0  0  0  0  0  0
   38.0326   23.9954   39.8269 H   0  0  0  0  0  0  0  0  0  0  0  0
   37.2584   25.8499   38.3184 H   0  0  0  0  0  0  0  0  0  0  0  0
   36.7037   26.1669   35.7936 H   0  0  0  0  0  0  0  0  0  0  0  0
   37.9566   24.4285   34.1677 H   0  0  0  0  0  0  0  0  0  0  0  0
   36.8843   25.7853   33.6817 H   0  0  0  0  0  0  0  0  0  0  0  0
   38.6671   26.0052   33.6817 H   0  0  0  0  0  0  0  0  0  0  0  0
   38.7062   27.4990   36.8355 H   0  0  0  0  0  0  0  0  0  0  0  0
   39.5651   27.1807   35.2903 H   0  0  0  0  0  0  0  0  0  0  0  0
   38.0361   28.1234   35.2903 H   0  0  0  0  0  0  0  0  0  0  0  0
  1 21  1  0
  1  2  2  0
  3  2  1  0
  4  3  2  0
  5  4  1  0
  5  1  1  0
  6 11  1  0
  6  4  1  0
  7  6  2  0
  8  9  2  0
  8  7  1  0
  9 10  1  0
 10 11  2  0
 11 12  1  0
 12 19  1  0
 12 13  1  0
 13 14  2  0
 14 16  1  0
 14 15  1  0
 16 17  2  0
 18 16  1  0
 19 18  1  0
 20 19  2  0
 21 26  1  0
 23 22  2  0
 24 23  1  0
 25 24  2  0
 25 26  1  0
 26 27  2  0
 27 22  1  0
 28 30  1  0
 28 24  1  0
 29 28  1  0
  2 31  1  0
  3 32  1  0
  7 33  1  0
  8 34  1  0
  9 35  1  0
 10 36  1  0
 13 37  1  0
 15 38  1  0
 15 39  1  0
 15 40  1  0
 18 41  1  0
 22 42  1  0
 23 43  1  0
 28 44  1  0
 29 45  1  0
 29 46  1  0
 29 47  1  0
 30 48  1  0
 30 49  1  0
 30 50  1  0
M  ISO  8  31  14  32  14  33  14  34  14  35  14  36  14  37  14  38   8
M  ISO  8  39   8  40   8  41   9  42  14  43  14  44   8  45   8  46   8
M  ISO  4  47   8  48   8  49   8  50   8
M  END
>  <minimizedAffinity>  (1) 
-6.01585197

>  <minimizedRMSD>  (1) 
2.39859319

$$$$
