
     RDKit          3D

 39 41  0  0  0  0  0  0  0  0999 V2000
   42.3550   24.1050   35.3020 C   0  0  0  0  0  0  0  0  0  0  0  0
   43.0710   25.2440   35.0550 C   0  0  0  0  0  0  0  0  0  0  0  0
   44.2680   25.4130   35.6260 C   0  0  0  0  0  0  0  0  0  0  0  0
   44.7520   24.3800   36.4800 C   0  0  0  0  0  0  0  0  0  0  0  0
   43.3930   23.1130   36.4420 S   0  0  0  0  0  0  0  0  0  0  0  0
   46.0030   24.2900   37.2180 C   0  0  0  0  0  0  0  0  0  0  0  0
   47.0600   23.5780   36.7310 C   0  0  0  0  0  0  0  0  0  0  0  0
   48.2050   23.5860   37.5060 C   0  0  0  0  0  0  0  0  0  0  0  0
   48.2500   24.2780   38.6900 C   0  0  0  0  0  0  0  0  0  0  0  0
   47.1520   24.9940   39.1590 C   0  0  0  0  0  0  0  0  0  0  0  0
   46.0210   24.9770   38.3790 C   0  0  0  0  0  0  0  0  0  0  0  0
   44.9860   25.7490   39.0070 N   0  0  0  0  0  0  0  0  0  0  0  0
   41.1900   23.6530   34.9110 O   0  0  0  0  0  0  0  0  0  0  0  0
   38.4270   23.4990   37.1600 C   0  0  0  0  0  0  0  0  0  0  0  0
   37.6010   24.5550   36.7350 C   0  0  0  0  0  0  0  0  0  0  0  0
   38.0300   25.3140   35.6540 C   0  0  0  0  0  0  0  0  0  0  0  0
   39.2440   25.0200   35.0290 N   0  0  0  0  0  0  0  0  0  0  0  0
   39.9730   23.9780   35.5120 C   0  0  0  0  0  0  0  0  0  0  0  0
   39.5830   23.2350   36.5480 N   0  0  0  0  0  0  0  0  0  0  0  0
   37.2380   26.4350   35.0990 C   0  0  0  0  0  0  0  0  0  0  0  0
   37.0830   26.4020   33.6420 C   0  0  0  0  0  0  0  0  0  0  0  0
   37.8270   27.8130   35.5260 C   0  0  0  0  0  0  0  0  0  0  0  0
   42.6632   26.0184   34.3887 H   0  0  0  0  0  0  0  0  0  0  0  0
   44.8608   26.3212   35.4423 H   0  0  0  0  0  0  0  0  0  0  0  0
   47.0046   23.0303   35.7787 H   0  0  0  0  0  0  0  0  0  0  0  0
   49.0921   23.0299   37.1687 H   0  0  0  0  0  0  0  0  0  0  0  0
   49.1763   24.2668   39.2831 H   0  0  0  0  0  0  0  0  0  0  0  0
   47.1882   25.5472   40.1091 H   0  0  0  0  0  0  0  0  0  0  0  0
   45.1666   26.2173   39.9064 H   0  0  0  0  0  0  0  0  0  0  0  0
   44.0629   25.8345   38.5581 H   0  0  0  0  0  0  0  0  0  0  0  0
   38.1142   22.8790   38.0131 H   0  0  0  0  0  0  0  0  0  0  0  0
   36.6487   24.7721   37.2410 H   0  0  0  0  0  0  0  0  0  0  0  0
   36.2337   26.3048   35.5285 H   0  0  0  0  0  0  0  0  0  0  0  0
   36.0358   26.1791   33.3896 H   0  0  0  0  0  0  0  0  0  0  0  0
   37.3614   27.3795   33.2214 H   0  0  0  0  0  0  0  0  0  0  0  0
   37.7355   25.6226   33.2214 H   0  0  0  0  0  0  0  0  0  0  0  0
   37.8539   27.8759   36.6239 H   0  0  0  0  0  0  0  0  0  0  0  0
   38.8473   27.9149   35.1278 H   0  0  0  0  0  0  0  0  0  0  0  0
   37.1956   28.6209   35.1278 H   0  0  0  0  0  0  0  0  0  0  0  0
  1  5  1  0
  2  1  2  0
  2  3  1  0
  3  4  2  0
  4  6  1  0
  5  4  1  0
  6 11  1  0
  7  6  2  0
  7  8  1  0
  8  9  2  0
  9 10  1  0
 11 12  1  0
 11 10  2  0
 13  1  1  0
 13 18  1  0
 15 14  2  0
 16 15  1  0
 17 18  1  0
 17 16  2  0
 18 19  2  0
 19 14  1  0
 20 22  1  0
 20 16  1  0
 21 20  1  0
  2 23  1  0
  3 24  1  0
  7 25  1  0
  8 26  1  0
  9 27  1  0
 10 28  1  0
 12 29  1  0
 12 30  1  0
 14 31  1  0
 15 32  1  0
 20 33  1  0
 21 34  1  0
 21 35  1  0
 21 36  1  0
 22 37  1  0
 22 38  1  0
 22 39  1  0
M  ISO  8  23  14  24  14  25  14  26  14  27  14  28  14  31  14  32  14
M  ISO  7  33   8  34   8  35   8  36   8  37   8  38   8  39   8
M  END
>  <minimizedAffinity>  (1) 
-5.30090857

>  <minimizedRMSD>  (1) 
1.85868514

$$$$
