
     RDKit          3D

 43 45  0  0  0  0  0  0  0  0999 V2000
   41.9090   22.8840   34.9550 C   0  0  0  0  0  0  0  0  0  0  0  0
   42.8230   23.3100   34.0360 C   0  0  0  0  0  0  0  0  0  0  0  0
   44.1080   23.5470   34.3730 C   0  0  0  0  0  0  0  0  0  0  0  0
   44.4500   23.3240   35.7610 C   0  0  0  0  0  0  0  0  0  0  0  0
   42.8620   22.7710   36.5120 S   0  0  0  0  0  0  0  0  0  0  0  0
   45.7250   23.4830   36.4320 C   0  0  0  0  0  0  0  0  0  0  0  0
   46.7240   22.5890   36.2430 C   0  0  0  0  0  0  0  0  0  0  0  0
   47.9430   22.8700   36.8270 C   0  0  0  0  0  0  0  0  0  0  0  0
   48.1080   24.0250   37.5670 C   0  0  0  0  0  0  0  0  0  0  0  0
   47.0670   24.9310   37.7480 C   0  0  0  0  0  0  0  0  0  0  0  0
   45.8350   24.6390   37.1570 C   0  0  0  0  0  0  0  0  0  0  0  0
   44.8580   25.6350   37.6660 C   0  0  0  0  0  0  0  0  0  0  0  0
   45.2520   26.1640   39.0620 C   0  0  0  0  0  0  0  0  0  0  0  0
   40.6500   22.5960   34.8740 O   0  0  0  0  0  0  0  0  0  0  0  0
   38.1550   23.0950   37.3490 C   0  0  0  0  0  0  0  0  0  0  0  0
   37.5990   24.3330   37.0050 C   0  0  0  0  0  0  0  0  0  0  0  0
   38.1160   24.9770   35.8940 C   0  0  0  0  0  0  0  0  0  0  0  0
   39.1550   24.3910   35.1640 N   0  0  0  0  0  0  0  0  0  0  0  0
   39.6220   23.2050   35.5710 C   0  0  0  0  0  0  0  0  0  0  0  0
   39.1420   22.5580   36.6400 N   0  0  0  0  0  0  0  0  0  0  0  0
   37.5990   26.2920   35.4200 C   0  0  0  0  0  0  0  0  0  0  0  0
   37.2600   26.3220   33.9900 C   0  0  0  0  0  0  0  0  0  0  0  0
   38.5930   27.4360   35.7700 C   0  0  0  0  0  0  0  0  0  0  0  0
   42.5045   23.4641   32.9945 H   0  0  0  0  0  0  0  0  0  0  0  0
   44.8505   23.8890   33.6370 H   0  0  0  0  0  0  0  0  0  0  0  0
   46.5707   21.6762   35.6485 H   0  0  0  0  0  0  0  0  0  0  0  0
   48.7847   22.1728   36.7029 H   0  0  0  0  0  0  0  0  0  0  0  0
   49.0863   24.2337   38.0245 H   0  0  0  0  0  0  0  0  0  0  0  0
   47.2097   25.8484   38.3380 H   0  0  0  0  0  0  0  0  0  0  0  0
   44.8137   26.4809   36.9643 H   0  0  0  0  0  0  0  0  0  0  0  0
   43.8792   25.1404   37.7518 H   0  0  0  0  0  0  0  0  0  0  0  0
   44.7855   25.5376   39.8366 H   0  0  0  0  0  0  0  0  0  0  0  0
   46.3459   26.1292   39.1720 H   0  0  0  0  0  0  0  0  0  0  0  0
   44.9053   27.2021   39.1720 H   0  0  0  0  0  0  0  0  0  0  0  0
   37.7663   22.5553   38.2251 H   0  0  0  0  0  0  0  0  0  0  0  0
   36.7832   24.7767   37.5945 H   0  0  0  0  0  0  0  0  0  0  0  0
   36.6529   26.4504   35.9583 H   0  0  0  0  0  0  0  0  0  0  0  0
   36.1705   26.4184   33.8734 H   0  0  0  0  0  0  0  0  0  0  0  0
   37.7571   27.1797   33.5132 H   0  0  0  0  0  0  0  0  0  0  0  0
   37.5988   25.3904   33.5132 H   0  0  0  0  0  0  0  0  0  0  0  0
   38.6743   27.5295   36.8630 H   0  0  0  0  0  0  0  0  0  0  0  0
   39.5818   27.2047   35.3473 H   0  0  0  0  0  0  0  0  0  0  0  0
   38.2259   28.3828   35.3473 H   0  0  0  0  0  0  0  0  0  0  0  0
  1  5  1  0
  2  3  1  0
  2  1  2  0
  3  4  2  0
  4  6  1  0
  4  5  1  0
  6 11  1  0
  7  6  2  0
  7  8  1  0
  8  9  2  0
  9 10  1  0
 11 12  1  0
 11 10  2  0
 12 13  1  0
 14  1  1  0
 14 19  1  0
 16 15  2  0
 17 16  1  0
 18 19  1  0
 18 17  2  0
 19 20  2  0
 20 15  1  0
 21 23  1  0
 21 17  1  0
 22 21  1  0
  2 24  1  0
  3 25  1  0
  7 26  1  0
  8 27  1  0
  9 28  1  0
 10 29  1  0
 12 30  1  0
 12 31  1  0
 13 32  1  0
 13 33  1  0
 13 34  1  0
 15 35  1  0
 16 36  1  0
 21 37  1  0
 22 38  1  0
 22 39  1  0
 22 40  1  0
 23 41  1  0
 23 42  1  0
 23 43  1  0
M  ISO  8  24  14  25  14  26  14  27  14  28  14  29  14  30   8  31   8
M  ISO  8  32   8  33   8  34   8  35  14  36  14  37   8  38   8  39   8
M  ISO  4  40   8  41   8  42   8  43   8
M  END
>  <minimizedAffinity>  (1) 
-5.28874493

>  <minimizedRMSD>  (1) 
1.57562613

$$$$
