
     RDKit          3D

 41 43  0  0  0  0  0  0  0  0999 V2000
   42.0770   23.2230   35.0700 C   0  0  0  0  0  0  0  0  0  0  0  0
   42.9140   23.9460   34.2870 C   0  0  0  0  0  0  0  0  0  0  0  0
   44.1760   24.2090   34.6890 C   0  0  0  0  0  0  0  0  0  0  0  0
   44.5670   23.6890   35.9620 C   0  0  0  0  0  0  0  0  0  0  0  0
   43.0520   22.8060   36.5610 S   0  0  0  0  0  0  0  0  0  0  0  0
   45.8380   23.8180   36.6490 C   0  0  0  0  0  0  0  0  0  0  0  0
   46.8710   22.9690   36.3740 C   0  0  0  0  0  0  0  0  0  0  0  0
   48.0430   23.1480   37.0390 C   0  0  0  0  0  0  0  0  0  0  0  0
   48.1660   24.1620   37.9620 C   0  0  0  0  0  0  0  0  0  0  0  0
   47.1030   25.0050   38.2180 C   0  0  0  0  0  0  0  0  0  0  0  0
   45.9050   24.8280   37.5440 C   0  0  0  0  0  0  0  0  0  0  0  0
   44.8830   25.8150   37.9820 C   0  0  0  0  0  0  0  0  0  0  0  0
   44.9650   25.8990   39.3840 O   0  0  0  0  0  0  0  0  0  0  0  0
   40.8370   22.8300   34.9380 O   0  0  0  0  0  0  0  0  0  0  0  0
   38.2340   23.1320   37.3190 C   0  0  0  0  0  0  0  0  0  0  0  0
   37.6020   24.3380   36.9690 C   0  0  0  0  0  0  0  0  0  0  0  0
   38.1080   25.0460   35.8760 C   0  0  0  0  0  0  0  0  0  0  0  0
   39.1980   24.5390   35.1910 N   0  0  0  0  0  0  0  0  0  0  0  0
   39.7400   23.3730   35.5990 C   0  0  0  0  0  0  0  0  0  0  0  0
   39.2770   22.6890   36.6300 N   0  0  0  0  0  0  0  0  0  0  0  0
   37.5230   26.3220   35.4010 C   0  0  0  0  0  0  0  0  0  0  0  0
   37.2200   26.3540   33.9790 C   0  0  0  0  0  0  0  0  0  0  0  0
   38.4220   27.5370   35.8040 C   0  0  0  0  0  0  0  0  0  0  0  0
   42.5621   24.3221   33.3150 H   0  0  0  0  0  0  0  0  0  0  0  0
   44.8693   24.7947   34.0674 H   0  0  0  0  0  0  0  0  0  0  0  0
   46.7581   22.1623   35.6347 H   0  0  0  0  0  0  0  0  0  0  0  0
   48.8948   22.4813   36.8392 H   0  0  0  0  0  0  0  0  0  0  0  0
   49.1162   24.3013   38.4984 H   0  0  0  0  0  0  0  0  0  0  0  0
   47.2066   25.8150   38.9550 H   0  0  0  0  0  0  0  0  0  0  0  0
   45.0896   26.7973   37.5322 H   0  0  0  0  0  0  0  0  0  0  0  0
   43.8764   25.5035   37.6661 H   0  0  0  0  0  0  0  0  0  0  0  0
   44.3345   25.2531   39.7907 H   0  0  0  0  0  0  0  0  0  0  0  0
   37.8594   22.5495   38.1736 H   0  0  0  0  0  0  0  0  0  0  0  0
   36.7374   24.7119   37.5371 H   0  0  0  0  0  0  0  0  0  0  0  0
   36.5516   26.4015   35.9110 H   0  0  0  0  0  0  0  0  0  0  0  0
   36.1351   26.4686   33.8378 H   0  0  0  0  0  0  0  0  0  0  0  0
   37.7422   27.2020   33.5118 H   0  0  0  0  0  0  0  0  0  0  0  0
   37.5535   25.4156   33.5118 H   0  0  0  0  0  0  0  0  0  0  0  0
   38.4738   27.6070   36.9005 H   0  0  0  0  0  0  0  0  0  0  0  0
   39.4342   27.3950   35.3974 H   0  0  0  0  0  0  0  0  0  0  0  0
   37.9902   28.4634   35.3974 H   0  0  0  0  0  0  0  0  0  0  0  0
  1  5  1  0
  2  3  1  0
  2  1  2  0
  3  4  2  0
  4  5  1  0
  4  6  1  0
  6 11  1  0
  7  6  2  0
  7  8  1  0
  8  9  2  0
  9 10  1  0
 11 12  1  0
 11 10  2  0
 12 13  1  0
 14  1  1  0
 14 19  1  0
 16 15  2  0
 17 16  1  0
 18 19  1  0
 18 17  2  0
 19 20  2  0
 20 15  1  0
 21 23  1  0
 21 17  1  0
 22 21  1  0
  2 24  1  0
  3 25  1  0
  7 26  1  0
  8 27  1  0
  9 28  1  0
 10 29  1  0
 12 30  1  0
 12 31  1  0
 13 32  1  0
 15 33  1  0
 16 34  1  0
 21 35  1  0
 22 36  1  0
 22 37  1  0
 22 38  1  0
 23 39  1  0
 23 40  1  0
 23 41  1  0
M  ISO  8  24  14  25  14  26  14  27  14  28  14  29  14  30   8  31   8
M  ISO  8  32   3  33  14  34  14  35   8  36   8  37   8  38   8  39   8
M  ISO  2  40   8  41   8
M  END
>  <minimizedAffinity>  (1) 
-5.34495592

>  <minimizedRMSD>  (1) 
0.626487315

$$$$
