
     RDKit          3D

 42 44  0  0  0  0  0  0  0  0999 V2000
   42.0790   23.1200   34.9900 C   0  0  0  0  0  0  0  0  0  0  0  0
   42.9460   23.7770   34.1790 C   0  0  0  0  0  0  0  0  0  0  0  0
   44.2070   24.0580   34.5840 C   0  0  0  0  0  0  0  0  0  0  0  0
   44.5600   23.6300   35.8950 C   0  0  0  0  0  0  0  0  0  0  0  0
   43.0240   22.8090   36.5230 S   0  0  0  0  0  0  0  0  0  0  0  0
   45.8210   23.7950   36.6030 C   0  0  0  0  0  0  0  0  0  0  0  0
   46.8680   22.9370   36.3870 C   0  0  0  0  0  0  0  0  0  0  0  0
   48.0320   23.1330   37.0660 C   0  0  0  0  0  0  0  0  0  0  0  0
   48.1200   24.1860   37.9500 C   0  0  0  0  0  0  0  0  0  0  0  0
   47.0520   25.0390   38.1530 C   0  0  0  0  0  0  0  0  0  0  0  0
   45.8760   24.8320   37.4580 C   0  0  0  0  0  0  0  0  0  0  0  0
   44.8510   25.8390   37.8280 C   0  0  0  0  0  0  0  0  0  0  0  0
   44.8920   26.1240   39.2710 N   0  0  0  0  0  0  0  0  0  0  0  0
   40.8380   22.7260   34.8700 O   0  0  0  0  0  0  0  0  0  0  0  0
   38.2500   23.0510   37.2690 C   0  0  0  0  0  0  0  0  0  0  0  0
   37.6310   24.2760   36.9340 C   0  0  0  0  0  0  0  0  0  0  0  0
   38.1440   24.9730   35.8600 C   0  0  0  0  0  0  0  0  0  0  0  0
   39.2280   24.4730   35.1440 N   0  0  0  0  0  0  0  0  0  0  0  0
   39.7560   23.2790   35.5460 C   0  0  0  0  0  0  0  0  0  0  0  0
   39.2840   22.5920   36.5720 N   0  0  0  0  0  0  0  0  0  0  0  0
   37.5720   26.2800   35.3970 C   0  0  0  0  0  0  0  0  0  0  0  0
   37.2560   26.3110   33.9780 C   0  0  0  0  0  0  0  0  0  0  0  0
   38.5010   27.4640   35.8000 C   0  0  0  0  0  0  0  0  0  0  0  0
   42.6188   24.0866   33.1755 H   0  0  0  0  0  0  0  0  0  0  0  0
   44.9199   24.5881   33.9354 H   0  0  0  0  0  0  0  0  0  0  0  0
   46.7695   22.1032   35.6763 H   0  0  0  0  0  0  0  0  0  0  0  0
   48.8889   22.4609   36.9110 H   0  0  0  0  0  0  0  0  0  0  0  0
   49.0562   24.3505   38.5036 H   0  0  0  0  0  0  0  0  0  0  0  0
   47.1374   25.8757   38.8619 H   0  0  0  0  0  0  0  0  0  0  0  0
   45.0420   26.7685   37.2717 H   0  0  0  0  0  0  0  0  0  0  0  0
   43.8578   25.4383   37.5769 H   0  0  0  0  0  0  0  0  0  0  0  0
   44.7660   25.2479   39.7977 H   0  0  0  0  0  0  0  0  0  0  0  0
   45.8018   26.5421   39.5127 H   0  0  0  0  0  0  0  0  0  0  0  0
   37.8698   22.4677   38.1206 H   0  0  0  0  0  0  0  0  0  0  0  0
   36.7737   24.6588   37.5071 H   0  0  0  0  0  0  0  0  0  0  0  0
   36.6082   26.3942   35.9148 H   0  0  0  0  0  0  0  0  0  0  0  0
   36.1691   26.4176   33.8466 H   0  0  0  0  0  0  0  0  0  0  0  0
   37.7676   27.1633   33.5069 H   0  0  0  0  0  0  0  0  0  0  0  0
   37.5922   25.3756   33.5069 H   0  0  0  0  0  0  0  0  0  0  0  0
   38.5540   27.5316   36.8966 H   0  0  0  0  0  0  0  0  0  0  0  0
   39.5090   27.2938   35.3939 H   0  0  0  0  0  0  0  0  0  0  0  0
   38.0958   28.4026   35.3939 H   0  0  0  0  0  0  0  0  0  0  0  0
  1  5  1  0
  2  3  1  0
  2  1  2  0
  3  4  2  0
  4  5  1  0
  4  6  1  0
  6 11  1  0
  7  6  2  0
  7  8  1  0
  8  9  2  0
  9 10  1  0
 11 12  1  0
 11 10  2  0
 12 13  1  0
 14  1  1  0
 14 19  1  0
 16 15  2  0
 17 16  1  0
 18 19  1  0
 18 17  2  0
 19 20  2  0
 20 15  1  0
 21 23  1  0
 21 17  1  0
 22 21  1  0
  2 24  1  0
  3 25  1  0
  7 26  1  0
  8 27  1  0
  9 28  1  0
 10 29  1  0
 12 30  1  0
 12 31  1  0
 13 32  1  0
 13 33  1  0
 15 34  1  0
 16 35  1  0
 21 36  1  0
 22 37  1  0
 22 38  1  0
 22 39  1  0
 23 40  1  0
 23 41  1  0
 23 42  1  0
M  ISO  8  24  14  25  14  26  14  27  14  28  14  29  14  30   8  31   8
M  ISO  8  32   5  33   5  34  14  35  14  36   8  37   8  38   8  39   8
M  ISO  3  40   8  41   8  42   8
M  END
>  <minimizedAffinity>  (1) 
-5.31951666

>  <minimizedRMSD>  (1) 
0.70946908

$$$$
