
     RDKit          3D

 37 40  0  0  0  0  0  0  0  0999 V2000
   43.2090   24.4360   35.4240 C   0  0  0  0  0  0  0  0  0  0  0  0
   42.1270   23.7370   35.9920 C   0  0  0  0  0  0  0  0  0  0  0  0
   40.8410   24.0660   35.5850 C   0  0  0  0  0  0  0  0  0  0  0  0
   40.6830   25.0370   34.6670 N   0  0  0  0  0  0  0  0  0  0  0  0
   41.7290   25.7080   34.1220 C   0  0  0  0  0  0  0  0  0  0  0  0
   42.9800   25.3830   34.5230 N   0  0  0  0  0  0  0  0  0  0  0  0
   39.6970   23.4220   36.0970 N   0  0  0  0  0  0  0  0  0  0  0  0
   39.5560   22.8550   37.4210 C   0  0  0  0  0  0  0  0  0  0  0  0
   38.1940   23.3650   37.9120 C   0  0  0  0  0  0  0  0  0  0  0  0
   37.2010   22.5500   37.2480 N   0  0  0  0  0  0  0  0  0  0  0  0
   37.5480   22.2710   35.8910 C   0  0  0  0  0  0  0  0  0  0  0  0
   38.5030   23.2640   35.2960 C   0  0  0  0  0  0  0  0  0  0  0  0
   44.5630   24.1570   35.7920 N   0  0  0  0  0  0  0  0  0  0  0  0
   45.4410   23.4260   35.0860 C   0  0  0  0  0  0  0  0  0  0  0  0
   46.5980   23.4190   35.7990 N   0  0  0  0  0  0  0  0  0  0  0  0
   46.4190   24.1260   36.9040 C   0  0  0  0  0  0  0  0  0  0  0  0
   47.1930   24.4830   38.0040 C   0  0  0  0  0  0  0  0  0  0  0  0
   46.7100   25.2540   39.0260 N   0  0  0  0  0  0  0  0  0  0  0  0
   45.4280   25.6980   38.9870 C   0  0  0  0  0  0  0  0  0  0  0  0
   44.6270   25.3840   37.9410 N   0  0  0  0  0  0  0  0  0  0  0  0
   45.1260   24.6240   36.9490 C   0  0  0  0  0  0  0  0  0  0  0  0
   48.5390   24.0290   38.0650 N   0  0  0  0  0  0  0  0  0  0  0  0
   42.2964   22.9489   36.7405 H   0  0  0  0  0  0  0  0  0  0  0  0
   41.5642   26.4965   33.3729 H   0  0  0  0  0  0  0  0  0  0  0  0
   39.5672   21.7559   37.3769 H   0  0  0  0  0  0  0  0  0  0  0  0
   40.3787   23.1453   38.0911 H   0  0  0  0  0  0  0  0  0  0  0  0
   38.1141   23.2517   39.0032 H   0  0  0  0  0  0  0  0  0  0  0  0
   38.0572   24.4325   37.6844 H   0  0  0  0  0  0  0  0  0  0  0  0
   37.1100   21.6589   37.7565 H   0  0  0  0  0  0  0  0  0  0  0  0
   38.0122   21.2746   35.8491 H   0  0  0  0  0  0  0  0  0  0  0  0
   36.6194   22.3265   35.3039 H   0  0  0  0  0  0  0  0  0  0  0  0
   38.7928   22.9192   34.2925 H   0  0  0  0  0  0  0  0  0  0  0  0
   37.9939   24.2381   35.2533 H   0  0  0  0  0  0  0  0  0  0  0  0
   45.2594   22.9306   34.1208 H   0  0  0  0  0  0  0  0  0  0  0  0
   45.0376   26.3159   39.8090 H   0  0  0  0  0  0  0  0  0  0  0  0
   49.1314   24.2804   38.8692 H   0  0  0  0  0  0  0  0  0  0  0  0
   48.9217   23.4487   37.3049 H   0  0  0  0  0  0  0  0  0  0  0  0
  1 13  1  0
  1  2  2  0
  3  2  1  0
  3  7  1  0
  4  3  2  0
  5  6  2  0
  5  4  1  0
  6  1  1  0
  7  8  1  0
  8  9  1  0
 10  9  1  0
 11 10  1  0
 12 11  1  0
 12  7  1  0
 13 21  1  0
 14 13  1  0
 14 15  2  0
 15 16  1  0
 16 21  2  0
 16 17  1  0
 17 22  1  0
 17 18  2  0
 19 18  1  0
 20 19  2  0
 21 20  1  0
  2 23  1  0
  5 24  1  0
  8 25  1  0
  8 26  1  0
  9 27  1  0
  9 28  1  0
 10 29  1  0
 11 30  1  0
 11 31  1  0
 12 32  1  0
 12 33  1  0
 14 34  1  0
 19 35  1  0
 22 36  1  0
 22 37  1  0
M  ISO  8  23  14  24  14  25  13  26  13  27  13  28  13  29   5  30  13
M  ISO  5  31  13  32  13  33  13  34  14  35  14
M  END
>  <minimizedAffinity>  (1) 
-5.41295624

>  <minimizedRMSD>  (1) 
4.61409378

$$$$
