
     RDKit          3D

 43 47  0  0  0  0  0  0  0  0999 V2000
   37.5440   24.0190   31.5180 C   0  0  0  0  0  0  0  0  0  0  0  0
   36.9650   25.2830   31.4960 C   0  0  0  0  0  0  0  0  0  0  0  0
   37.2710   26.0870   32.5840 C   0  0  0  0  0  0  0  0  0  0  0  0
   38.0670   25.5870   33.5200 N   0  0  0  0  0  0  0  0  0  0  0  0
   38.6200   24.3930   33.5530 C   0  0  0  0  0  0  0  0  0  0  0  0
   38.3300   23.6420   32.5290 N   0  0  0  0  0  0  0  0  0  0  0  0
   36.7570   27.4040   32.7070 N   0  0  0  0  0  0  0  0  0  0  0  0
   36.8610   28.3950   31.8140 C   0  0  0  0  0  0  0  0  0  0  0  0
   36.2700   29.4890   32.2480 N   0  0  0  0  0  0  0  0  0  0  0  0
   35.7680   29.2020   33.4550 C   0  0  0  0  0  0  0  0  0  0  0  0
   36.0780   27.9210   33.7160 N   0  0  0  0  0  0  0  0  0  0  0  0
   39.4980   23.7460   34.5150 C   0  0  0  0  0  0  0  0  0  0  0  0
   40.7030   23.1760   34.1360 C   0  0  0  0  0  0  0  0  0  0  0  0
   41.5580   22.5600   35.0010 C   0  0  0  0  0  0  0  0  0  0  0  0
   41.2560   22.4670   36.3520 C   0  0  0  0  0  0  0  0  0  0  0  0
   40.0890   23.0120   36.7610 C   0  0  0  0  0  0  0  0  0  0  0  0
   39.7610   22.9320   38.1140 C   0  0  0  0  0  0  0  0  0  0  0  0
   38.6130   23.4480   38.6240 C   0  0  0  0  0  0  0  0  0  0  0  0
   37.7500   24.0750   37.7200 C   0  0  0  0  0  0  0  0  0  0  0  0
   38.0940   24.1390   36.4030 C   0  0  0  0  0  0  0  0  0  0  0  0
   39.2330   23.6320   35.8790 C   0  0  0  0  0  0  0  0  0  0  0  0
   35.0100   29.9620   34.4500 C   0  0  0  0  0  0  0  0  0  0  0  0
   33.7390   29.9570   34.8870 N   0  0  0  0  0  0  0  0  0  0  0  0
   33.5890   30.8680   35.8150 O   0  0  0  0  0  0  0  0  0  0  0  0
   34.7430   31.4710   35.9920 C   0  0  0  0  0  0  0  0  0  0  0  0
   35.6520   30.9260   35.1530 N   0  0  0  0  0  0  0  0  0  0  0  0
   34.9480   32.5810   36.9870 C   0  0  0  0  0  0  0  0  0  0  0  0
   33.6340   33.1440   37.4280 C   0  0  0  0  0  0  0  0  0  0  0  0
   37.3517   23.3199   30.6908 H   0  0  0  0  0  0  0  0  0  0  0  0
   36.3129   25.6202   30.6768 H   0  0  0  0  0  0  0  0  0  0  0  0
   37.3730   28.3074   30.8444 H   0  0  0  0  0  0  0  0  0  0  0  0
   40.9864   23.2234   33.0742 H   0  0  0  0  0  0  0  0  0  0  0  0
   42.4982   22.1317   34.6234 H   0  0  0  0  0  0  0  0  0  0  0  0
   41.9369   21.9712   37.0595 H   0  0  0  0  0  0  0  0  0  0  0  0
   40.4618   22.4297   38.7971 H   0  0  0  0  0  0  0  0  0  0  0  0
   38.3739   23.3762   39.6953 H   0  0  0  0  0  0  0  0  0  0  0  0
   36.8027   24.5123   38.0685 H   0  0  0  0  0  0  0  0  0  0  0  0
   37.3949   24.6391   35.7166 H   0  0  0  0  0  0  0  0  0  0  0  0
   35.4842   32.1867   37.8627 H   0  0  0  0  0  0  0  0  0  0  0  0
   35.5335   33.3806   36.5097 H   0  0  0  0  0  0  0  0  0  0  0  0
   33.5930   33.1616   38.5271 H   0  0  0  0  0  0  0  0  0  0  0  0
   33.5252   34.1677   37.0406 H   0  0  0  0  0  0  0  0  0  0  0  0
   32.8177   32.5166   37.0406 H   0  0  0  0  0  0  0  0  0  0  0  0
  1  6  2  0
  2  1  1  0
  2  3  2  0
  3  7  1  0
  3  4  1  0
  4  5  2  0
  5 12  1  0
  6  5  1  0
  7 11  1  0
  8  9  2  0
  8  7  1  0
  9 10  1  0
 10 11  2  0
 10 22  1  0
 12 21  1  0
 13 12  2  0
 13 14  1  0
 14 15  2  0
 15 16  1  0
 16 17  2  0
 17 18  1  0
 19 18  2  0
 20 19  1  0
 21 20  2  0
 21 16  1  0
 22 23  2  0
 22 26  1  0
 23 24  1  0
 24 25  1  0
 25 27  1  0
 26 25  2  0
 27 28  1  0
  1 29  1  0
  2 30  1  0
  8 31  1  0
 13 32  1  0
 14 33  1  0
 15 34  1  0
 17 35  1  0
 18 36  1  0
 19 37  1  0
 20 38  1  0
 27 39  1  0
 27 40  1  0
 28 41  1  0
 28 42  1  0
 28 43  1  0
M  ISO  8  29  14  30  14  31  14  32  14  33  14  34  14  35  14  36  14
M  ISO  7  37  14  38  14  39   8  40   8  41   8  42   8  43   8
M  END
>  <minimizedAffinity>  (1) 
-6.70255947

>  <minimizedRMSD>  (1) 
0.805677116

$$$$
