
     RDKit          3D

 30 33  0  0  0  0  0  0  0  0999 V2000
   43.1890   23.3880   35.5470 C   0  0  0  0  0  0  0  0  0  0  0  0
   42.0940   23.3070   36.4380 C   0  0  0  0  0  0  0  0  0  0  0  0
   40.8140   23.2700   35.8940 C   0  0  0  0  0  0  0  0  0  0  0  0
   40.6700   23.3110   34.5560 N   0  0  0  0  0  0  0  0  0  0  0  0
   41.7350   23.3890   33.7090 C   0  0  0  0  0  0  0  0  0  0  0  0
   42.9920   23.4260   34.2180 N   0  0  0  0  0  0  0  0  0  0  0  0
   44.5280   23.4300   36.0130 N   0  0  0  0  0  0  0  0  0  0  0  0
   45.5470   22.6290   35.6010 C   0  0  0  0  0  0  0  0  0  0  0  0
   46.6470   23.0030   36.2960 N   0  0  0  0  0  0  0  0  0  0  0  0
   46.3130   23.9980   37.1030 C   0  0  0  0  0  0  0  0  0  0  0  0
   46.9750   24.7840   38.0380 C   0  0  0  0  0  0  0  0  0  0  0  0
   46.3510   25.7660   38.7410 N   0  0  0  0  0  0  0  0  0  0  0  0
   45.0240   26.0030   38.5370 C   0  0  0  0  0  0  0  0  0  0  0  0
   44.3360   25.2620   37.6360 N   0  0  0  0  0  0  0  0  0  0  0  0
   44.9770   24.3050   36.9600 C   0  0  0  0  0  0  0  0  0  0  0  0
   48.3640   24.5610   38.2740 N   0  0  0  0  0  0  0  0  0  0  0  0
   39.6780   23.1880   36.8080 C   0  0  0  0  0  0  0  0  0  0  0  0
   38.3590   23.4620   36.5270 C   0  0  0  0  0  0  0  0  0  0  0  0
   37.7150   23.2270   37.7270 C   0  0  0  0  0  0  0  0  0  0  0  0
   38.6070   22.8320   38.6820 N   0  0  0  0  0  0  0  0  0  0  0  0
   39.8130   22.8140   38.0930 N   0  0  0  0  0  0  0  0  0  0  0  0
   42.2492   23.2743   37.5265 H   0  0  0  0  0  0  0  0  0  0  0  0
   41.5765   23.4217   32.6210 H   0  0  0  0  0  0  0  0  0  0  0  0
   45.4886   21.8300   34.8472 H   0  0  0  0  0  0  0  0  0  0  0  0
   44.5127   26.7952   39.1036 H   0  0  0  0  0  0  0  0  0  0  0  0
   48.8679   25.1360   38.9642 H   0  0  0  0  0  0  0  0  0  0  0  0
   48.8630   23.8250   37.7542 H   0  0  0  0  0  0  0  0  0  0  0  0
   37.9209   23.7904   35.5729 H   0  0  0  0  0  0  0  0  0  0  0  0
   36.6333   23.3423   37.8901 H   0  0  0  0  0  0  0  0  0  0  0  0
   38.3961   22.5945   39.6618 H   0  0  0  0  0  0  0  0  0  0  0  0
  1  7  1  0
  1  2  2  0
  3  2  1  0
  3 17  1  0
  4  3  2  0
  5  6  2  0
  5  4  1  0
  6  1  1  0
  7 15  1  0
  8  7  1  0
  8  9  2  0
  9 10  1  0
 10 11  2  0
 11 16  1  0
 11 12  1  0
 13 12  2  0
 14 13  1  0
 15 10  1  0
 15 14  2  0
 17 21  2  0
 18 17  1  0
 18 19  2  0
 19 20  1  0
 21 20  1  0
  2 22  1  0
  5 23  1  0
  8 24  1  0
 13 25  1  0
 16 26  1  0
 16 27  1  0
 18 28  1  0
 19 29  1  0
 20 30  1  0
M  ISO  7  22  14  23  14  24  14  25  14  28  14  29  14  30   9
M  END
>  <minimizedAffinity>  (1) 
-5.20685339

>  <minimizedRMSD>  (1) 
4.2008934

$$$$
