
     RDKit          3D

 33 36  0  0  0  0  0  0  0  0999 V2000
   43.6500   22.7460   35.5150 C   0  0  0  0  0  0  0  0  0  0  0  0
   42.5580   23.2200   36.2620 C   0  0  0  0  0  0  0  0  0  0  0  0
   41.2740   22.7790   35.9620 C   0  0  0  0  0  0  0  0  0  0  0  0
   41.1240   21.9020   34.9530 N   0  0  0  0  0  0  0  0  0  0  0  0
   42.1940   21.4460   34.2310 C   0  0  0  0  0  0  0  0  0  0  0  0
   43.4380   21.8820   34.5310 N   0  0  0  0  0  0  0  0  0  0  0  0
   44.9820   23.1580   35.7730 N   0  0  0  0  0  0  0  0  0  0  0  0
   46.0010   22.3710   36.1840 C   0  0  0  0  0  0  0  0  0  0  0  0
   47.0930   23.1730   36.3040 N   0  0  0  0  0  0  0  0  0  0  0  0
   46.7380   24.4170   35.9730 C   0  0  0  0  0  0  0  0  0  0  0  0
   47.3840   25.6330   35.9000 C   0  0  0  0  0  0  0  0  0  0  0  0
   46.7540   26.7730   35.5210 N   0  0  0  0  0  0  0  0  0  0  0  0
   45.4250   26.7360   35.1920 C   0  0  0  0  0  0  0  0  0  0  0  0
   44.7460   25.5700   35.2460 N   0  0  0  0  0  0  0  0  0  0  0  0
   45.4070   24.4510   35.6290 C   0  0  0  0  0  0  0  0  0  0  0  0
   48.7650   25.7150   36.2280 N   0  0  0  0  0  0  0  0  0  0  0  0
   40.0900   23.2190   36.6840 C   0  0  0  0  0  0  0  0  0  0  0  0
   39.2000   24.0160   35.9990 C   0  0  0  0  0  0  0  0  0  0  0  0
   38.0300   24.4960   36.5920 C   0  0  0  0  0  0  0  0  0  0  0  0
   37.7880   24.1340   37.9220 C   0  0  0  0  0  0  0  0  0  0  0  0
   38.6690   23.3340   38.6270 C   0  0  0  0  0  0  0  0  0  0  0  0
   39.8170   22.8830   37.9930 C   0  0  0  0  0  0  0  0  0  0  0  0
   42.7185   23.9370   37.0807 H   0  0  0  0  0  0  0  0  0  0  0  0
   42.0423   20.7286   33.4110 H   0  0  0  0  0  0  0  0  0  0  0  0
   45.9559   21.2901   36.3831 H   0  0  0  0  0  0  0  0  0  0  0  0
   44.9099   27.6576   34.8833 H   0  0  0  0  0  0  0  0  0  0  0  0
   49.2539   26.6201   36.1757 H   0  0  0  0  0  0  0  0  0  0  0  0
   49.2766   24.8693   36.5179 H   0  0  0  0  0  0  0  0  0  0  0  0
   39.4169   24.2824   34.9540 H   0  0  0  0  0  0  0  0  0  0  0  0
   37.3268   25.1332   36.0357 H   0  0  0  0  0  0  0  0  0  0  0  0
   36.8751   24.4944   38.4187 H   0  0  0  0  0  0  0  0  0  0  0  0
   38.4627   23.0603   39.6722 H   0  0  0  0  0  0  0  0  0  0  0  0
   40.5231   22.2452   38.5449 H   0  0  0  0  0  0  0  0  0  0  0  0
  1  7  1  0
  1  2  2  0
  3  2  1  0
  3 17  1  0
  4  3  2  0
  5  6  2  0
  5  4  1  0
  6  1  1  0
  7  8  1  0
  8  9  2  0
 10  9  1  0
 11 10  2  0
 11 16  1  0
 12 11  1  0
 13 14  1  0
 13 12  2  0
 14 15  2  0
 15  7  1  0
 15 10  1  0
 17 22  2  0
 18 19  2  0
 18 17  1  0
 19 20  1  0
 20 21  2  0
 22 21  1  0
  2 23  1  0
  5 24  1  0
  8 25  1  0
 13 26  1  0
 16 27  1  0
 16 28  1  0
 18 29  1  0
 19 30  1  0
 20 31  1  0
 21 32  1  0
 22 33  1  0
M  ISO  8  23  14  24  14  25  14  26  14  29  14  30  14  31  14  32  14
M  ISO  1  33  14
M  END
>  <minimizedAffinity>  (1) 
-4.7705617

>  <minimizedRMSD>  (1) 
4.10935307

$$$$
