
     RDKit          3D

 32 35  0  0  0  0  0  0  0  0999 V2000
   41.8440   24.0700   34.7590 C   0  0  0  0  0  0  0  0  0  0  0  0
   42.8070   24.7200   35.5870 C   0  0  0  0  0  0  0  0  0  0  0  0
   43.7060   23.8980   36.2650 C   0  0  0  0  0  0  0  0  0  0  0  0
   43.6260   22.5610   36.1130 N   0  0  0  0  0  0  0  0  0  0  0  0
   42.6900   21.9730   35.3110 C   0  0  0  0  0  0  0  0  0  0  0  0
   41.8060   22.7480   34.6420 N   0  0  0  0  0  0  0  0  0  0  0  0
   40.8830   24.8370   34.0270 N   0  0  0  0  0  0  0  0  0  0  0  0
   41.0350   25.2540   32.7400 C   0  0  0  0  0  0  0  0  0  0  0  0
   39.8950   25.9490   32.4280 N   0  0  0  0  0  0  0  0  0  0  0  0
   39.1020   25.9420   33.4900 C   0  0  0  0  0  0  0  0  0  0  0  0
   37.8570   26.4540   33.7950 C   0  0  0  0  0  0  0  0  0  0  0  0
   37.2650   26.2820   35.0220 N   0  0  0  0  0  0  0  0  0  0  0  0
   37.9150   25.5830   35.9860 C   0  0  0  0  0  0  0  0  0  0  0  0
   39.1390   25.0640   35.7280 N   0  0  0  0  0  0  0  0  0  0  0  0
   39.6950   25.2450   34.5250 C   0  0  0  0  0  0  0  0  0  0  0  0
   37.1450   27.1960   32.8020 N   0  0  0  0  0  0  0  0  0  0  0  0
   44.7160   24.5000   37.1290 C   0  0  0  0  0  0  0  0  0  0  0  0
   46.0240   24.0760   37.0150 C   0  0  0  0  0  0  0  0  0  0  0  0
   46.9640   24.6740   37.8550 C   0  0  0  0  0  0  0  0  0  0  0  0
   46.4980   25.6420   38.7310 C   0  0  0  0  0  0  0  0  0  0  0  0
   45.2080   26.0560   38.8370 C   0  0  0  0  0  0  0  0  0  0  0  0
   44.3500   25.4450   38.0040 N   0  0  0  0  0  0  0  0  0  0  0  0
   42.8386   25.8151   35.6855 H   0  0  0  0  0  0  0  0  0  0  0  0
   42.6553   20.8782   35.2099 H   0  0  0  0  0  0  0  0  0  0  0  0
   41.8980   25.0704   32.0831 H   0  0  0  0  0  0  0  0  0  0  0  0
   37.4501   25.4385   36.9724 H   0  0  0  0  0  0  0  0  0  0  0  0
   36.2151   27.5834   33.0168 H   0  0  0  0  0  0  0  0  0  0  0  0
   37.5619   27.3432   31.8717 H   0  0  0  0  0  0  0  0  0  0  0  0
   46.3136   23.2991   36.2922 H   0  0  0  0  0  0  0  0  0  0  0  0
   48.0263   24.3903   37.8235 H   0  0  0  0  0  0  0  0  0  0  0  0
   47.2348   26.1151   39.3967 H   0  0  0  0  0  0  0  0  0  0  0  0
   44.8912   26.8315   39.5499 H   0  0  0  0  0  0  0  0  0  0  0  0
  1  2  2  0
  2  3  1  0
  3 17  1  0
  4  3  2  0
  5  4  1  0
  6  1  1  0
  6  5  2  0
  7 15  1  0
  7  1  1  0
  8  7  1  0
  9  8  2  0
  9 10  1  0
 10 11  2  0
 10 15  1  0
 11 12  1  0
 12 13  2  0
 14 13  1  0
 15 14  2  0
 16 11  1  0
 17 22  1  0
 18 17  2  0
 18 19  1  0
 19 20  2  0
 20 21  1  0
 22 21  2  0
  2 23  1  0
  5 24  1  0
  8 25  1  0
 13 26  1  0
 16 27  1  0
 16 28  1  0
 18 29  1  0
 19 30  1  0
 20 31  1  0
 21 32  1  0
M  ISO  8  23  14  24  14  25  14  26  14  29  14  30  14  31  14  32  14
M  END
>  <minimizedAffinity>  (1) 
-4.72323322

>  <minimizedRMSD>  (1) 
6.61981678

$$$$
