
     RDKit          3D

 33 36  0  0  0  0  0  0  0  0999 V2000
   42.9470   25.2520   34.0530 C   0  0  0  0  0  0  0  0  0  0  0  0
   41.9140   24.9060   34.9390 C   0  0  0  0  0  0  0  0  0  0  0  0
   40.8070   24.2250   34.4470 C   0  0  0  0  0  0  0  0  0  0  0  0
   40.7790   23.9260   33.1260 N   0  0  0  0  0  0  0  0  0  0  0  0
   41.7860   24.2680   32.2830 C   0  0  0  0  0  0  0  0  0  0  0  0
   42.8620   24.9310   32.7630 N   0  0  0  0  0  0  0  0  0  0  0  0
   39.7210   23.8390   35.2690 N   0  0  0  0  0  0  0  0  0  0  0  0
   39.1330   24.6450   36.1580 C   0  0  0  0  0  0  0  0  0  0  0  0
   38.0750   24.3050   36.9770 C   0  0  0  0  0  0  0  0  0  0  0  0
   37.6330   23.0110   36.8150 C   0  0  0  0  0  0  0  0  0  0  0  0
   36.6600   22.5560   37.5030 O   0  0  0  0  0  0  0  0  0  0  0  0
   38.1740   22.1300   35.9360 N   0  0  0  0  0  0  0  0  0  0  0  0
   39.2030   22.5770   35.1910 C   0  0  0  0  0  0  0  0  0  0  0  0
   39.7000   21.7470   34.3750 O   0  0  0  0  0  0  0  0  0  0  0  0
   44.1070   25.9490   34.4900 N   0  0  0  0  0  0  0  0  0  0  0  0
   44.4410   27.2280   34.1680 C   0  0  0  0  0  0  0  0  0  0  0  0
   45.6220   27.4950   34.7970 N   0  0  0  0  0  0  0  0  0  0  0  0
   45.9800   26.4170   35.4700 C   0  0  0  0  0  0  0  0  0  0  0  0
   47.0460   26.0700   36.2810 C   0  0  0  0  0  0  0  0  0  0  0  0
   47.1670   24.8410   36.8680 N   0  0  0  0  0  0  0  0  0  0  0  0
   46.2000   23.8990   36.6540 C   0  0  0  0  0  0  0  0  0  0  0  0
   45.1380   24.1840   35.8700 N   0  0  0  0  0  0  0  0  0  0  0  0
   45.0570   25.3980   35.3130 C   0  0  0  0  0  0  0  0  0  0  0  0
   48.0800   27.0100   36.5380 N   0  0  0  0  0  0  0  0  0  0  0  0
   41.9799   25.1696   36.0049 H   0  0  0  0  0  0  0  0  0  0  0  0
   41.7271   24.0074   31.2159 H   0  0  0  0  0  0  0  0  0  0  0  0
   39.5263   25.6686   36.2448 H   0  0  0  0  0  0  0  0  0  0  0  0
   37.6249   25.0058   37.6955 H   0  0  0  0  0  0  0  0  0  0  0  0
   37.8160   21.1687   35.8434 H   0  0  0  0  0  0  0  0  0  0  0  0
   43.8697   27.9139   33.5252 H   0  0  0  0  0  0  0  0  0  0  0  0
   46.2870   22.9070   37.1212 H   0  0  0  0  0  0  0  0  0  0  0  0
   48.8732   26.7509   37.1418 H   0  0  0  0  0  0  0  0  0  0  0  0
   48.0364   27.9506   36.1205 H   0  0  0  0  0  0  0  0  0  0  0  0
  1 15  1  0
  1  2  2  0
  3  2  1  0
  3  7  1  0
  4  3  2  0
  5  6  2  0
  5  4  1  0
  6  1  1  0
  7  8  1  0
  8  9  2  0
 10  9  1  0
 10 11  2  0
 12 10  1  0
 13  7  1  0
 13 12  1  0
 14 13  2  0
 15 23  1  0
 16 15  1  0
 16 17  2  0
 17 18  1  0
 18 19  2  0
 19 24  1  0
 19 20  1  0
 21 20  2  0
 22 21  1  0
 23 18  1  0
 23 22  2  0
  2 25  1  0
  5 26  1  0
  8 27  1  0
  9 28  1  0
 12 29  1  0
 16 30  1  0
 21 31  1  0
 24 32  1  0
 24 33  1  0
M  ISO  7  25  14  26  14  27  14  28  14  29   9  30  14  31  14
M  END
>  <minimizedAffinity>  (1) 
-4.65820122

>  <minimizedRMSD>  (1) 
4.9190979

$$$$
