
     RDKit          3D

 30 33  0  0  0  0  0  0  0  0999 V2000
   38.2100   25.2950   34.5920 N   0  0  0  0  0  0  0  0  0  0  0  0
   37.8160   24.7760   35.7840 C   0  0  0  0  0  0  0  0  0  0  0  0
   38.9090   24.1480   36.3100 N   0  0  0  0  0  0  0  0  0  0  0  0
   39.9150   24.2860   35.4690 C   0  0  0  0  0  0  0  0  0  0  0  0
   41.2460   23.8900   35.4200 C   0  0  0  0  0  0  0  0  0  0  0  0
   42.0830   24.1860   34.3810 N   0  0  0  0  0  0  0  0  0  0  0  0
   41.6040   24.9030   33.3330 C   0  0  0  0  0  0  0  0  0  0  0  0
   40.3190   25.3210   33.3140 N   0  0  0  0  0  0  0  0  0  0  0  0
   39.5260   25.0110   34.3530 C   0  0  0  0  0  0  0  0  0  0  0  0
   37.3930   26.0300   33.6960 C   0  0  0  0  0  0  0  0  0  0  0  0
   37.0190   27.3610   33.9510 C   0  0  0  0  0  0  0  0  0  0  0  0
   36.2140   28.0180   33.0240 C   0  0  0  0  0  0  0  0  0  0  0  0
   35.8260   27.3540   31.9200 N   0  0  0  0  0  0  0  0  0  0  0  0
   36.1970   26.0570   31.6850 C   0  0  0  0  0  0  0  0  0  0  0  0
   36.9760   25.4090   32.5730 N   0  0  0  0  0  0  0  0  0  0  0  0
   35.7710   29.4180   33.2070 C   0  0  0  0  0  0  0  0  0  0  0  0
   35.6790   29.9380   34.5980 C   0  0  0  0  0  0  0  0  0  0  0  0
   34.4170   29.6670   33.8570 C   0  0  0  0  0  0  0  0  0  0  0  0
   41.7640   23.1250   36.5080 N   0  0  0  0  0  0  0  0  0  0  0  0
   36.8156   24.8473   36.2358 H   0  0  0  0  0  0  0  0  0  0  0  0
   42.2683   25.1463   32.4907 H   0  0  0  0  0  0  0  0  0  0  0  0
   37.3555   27.8731   34.8645 H   0  0  0  0  0  0  0  0  0  0  0  0
   35.8593   25.5446   30.7721 H   0  0  0  0  0  0  0  0  0  0  0  0
   36.2605   29.7432   32.2772 H   0  0  0  0  0  0  0  0  0  0  0  0
   35.9656   29.2931   35.4418 H   0  0  0  0  0  0  0  0  0  0  0  0
   36.0910   30.8143   35.1199 H   0  0  0  0  0  0  0  0  0  0  0  0
   33.7863   30.5016   33.5168 H   0  0  0  0  0  0  0  0  0  0  0  0
   33.5152   29.0648   34.0417 H   0  0  0  0  0  0  0  0  0  0  0  0
   42.7469   22.8174   36.4993 H   0  0  0  0  0  0  0  0  0  0  0  0
   41.1549   22.8806   37.3018 H   0  0  0  0  0  0  0  0  0  0  0  0
  1  2  1  0
  2  3  2  0
  4  3  1  0
  5  4  2  0
  5 19  1  0
  6  5  1  0
  7  6  2  0
  8  7  1  0
  8  9  2  0
  9  1  1  0
  9  4  1  0
 10 11  2  0
 10  1  1  0
 12 16  1  0
 12 11  1  0
 13 12  2  0
 14 13  1  0
 14 15  2  0
 15 10  1  0
 16 18  1  0
 16 17  1  0
 18 17  1  0
  2 20  1  0
  7 21  1  0
 11 22  1  0
 14 23  1  0
 16 24  1  0
 17 25  1  0
 17 26  1  0
 18 27  1  0
 18 28  1  0
 19 29  1  0
 19 30  1  0
M  ISO  8  20  14  21  14  22  14  23  14  24  13  25  13  26  13  27  13
M  ISO  1  28  13
M  END
>  <minimizedAffinity>  (1) 
-4.27421999

>  <minimizedRMSD>  (1) 
5.33603096

$$$$
