
     RDKit          3D

 26 28  0  0  0  0  0  0  0  0999 V2000
   41.9800   23.5340   35.9550 N   0  0  0  0  0  0  0  0  0  0  0  0
   43.0030   22.8560   36.5280 C   0  0  0  0  0  0  0  0  0  0  0  0
   44.1390   23.5530   36.2550 N   0  0  0  0  0  0  0  0  0  0  0  0
   43.8020   24.6290   35.5310 C   0  0  0  0  0  0  0  0  0  0  0  0
   44.4860   25.6830   34.9700 C   0  0  0  0  0  0  0  0  0  0  0  0
   43.8610   26.6620   34.2660 N   0  0  0  0  0  0  0  0  0  0  0  0
   42.5110   26.6140   34.1000 C   0  0  0  0  0  0  0  0  0  0  0  0
   41.8060   25.5980   34.6340 N   0  0  0  0  0  0  0  0  0  0  0  0
   42.4410   24.6460   35.3240 C   0  0  0  0  0  0  0  0  0  0  0  0
   40.5990   23.1580   35.9910 C   0  0  0  0  0  0  0  0  0  0  0  0
   39.8110   23.4510   37.1440 C   0  0  0  0  0  0  0  0  0  0  0  0
   38.4660   23.0500   37.1030 C   0  0  0  0  0  0  0  0  0  0  0  0
   38.0020   22.4200   35.9900 N   0  0  0  0  0  0  0  0  0  0  0  0
   38.7850   22.1640   34.9230 C   0  0  0  0  0  0  0  0  0  0  0  0
   40.0870   22.5390   34.9360 N   0  0  0  0  0  0  0  0  0  0  0  0
   37.6060   23.3270   38.2630 C   0  0  0  0  0  0  0  0  0  0  0  0
   45.8970   25.7730   35.1170 N   0  0  0  0  0  0  0  0  0  0  0  0
   42.9294   21.9214   37.1035 H   0  0  0  0  0  0  0  0  0  0  0  0
   41.9970   27.4028   33.5312 H   0  0  0  0  0  0  0  0  0  0  0  0
   40.2352   23.9644   38.0195 H   0  0  0  0  0  0  0  0  0  0  0  0
   38.3678   21.6517   34.0435 H   0  0  0  0  0  0  0  0  0  0  0  0
   38.1703   23.1452   39.1895 H   0  0  0  0  0  0  0  0  0  0  0  0
   37.2775   24.3764   38.2336 H   0  0  0  0  0  0  0  0  0  0  0  0
   36.7268   22.6666   38.2336 H   0  0  0  0  0  0  0  0  0  0  0  0
   46.4092   26.5618   34.6972 H   0  0  0  0  0  0  0  0  0  0  0  0
   46.4072   25.0494   35.6433 H   0  0  0  0  0  0  0  0  0  0  0  0
  1 10  1  0
  1  2  1  0
  3  2  2  0
  4  3  1  0
  5 17  1  0
  5  4  2  0
  6  5  1  0
  7  6  2  0
  7  8  1  0
  8  9  2  0
  9  4  1  0
  9  1  1  0
 10 11  2  0
 12 11  1  0
 12 16  1  0
 13 12  2  0
 14 15  2  0
 14 13  1  0
 15 10  1  0
  2 18  1  0
  7 19  1  0
 11 20  1  0
 14 21  1  0
 16 22  1  0
 16 23  1  0
 16 24  1  0
 17 25  1  0
 17 26  1  0
M  ISO  7  18  14  19  14  20  14  21  14  22   8  23   8  24   8
M  END
>  <minimizedAffinity>  (1) 
-3.71759415

>  <minimizedRMSD>  (1) 
1.10085189

$$$$
