
     RDKit          3D

 38 41  0  0  0  0  0  0  0  0999 V2000
   39.7220   23.4450   35.5300 C   0  0  0  0  0  0  0  0  0  0  0  0
   39.0590   23.4030   36.7630 C   0  0  0  0  0  0  0  0  0  0  0  0
   37.8860   22.6390   36.8560 C   0  0  0  0  0  0  0  0  0  0  0  0
   37.4600   21.9910   35.7630 N   0  0  0  0  0  0  0  0  0  0  0  0
   38.1060   22.0360   34.5770 C   0  0  0  0  0  0  0  0  0  0  0  0
   39.2350   22.7650   34.4710 N   0  0  0  0  0  0  0  0  0  0  0  0
   37.1850   22.5740   38.0940 N   0  0  0  0  0  0  0  0  0  0  0  0
   37.6580   21.3490   33.4110 N   0  0  0  0  0  0  0  0  0  0  0  0
   36.3310   21.1490   33.3090 C   0  0  0  0  0  0  0  0  0  0  0  0
   35.8440   20.4870   32.1960 C   0  0  0  0  0  0  0  0  0  0  0  0
   34.4040   20.2430   32.0370 C   0  0  0  0  0  0  0  0  0  0  0  0
   36.7720   20.0750   31.2600 C   0  0  0  0  0  0  0  0  0  0  0  0
   36.3180   19.4720   30.2490 O   0  0  0  0  0  0  0  0  0  0  0  0
   38.0900   20.2970   31.4040 N   0  0  0  0  0  0  0  0  0  0  0  0
   38.5690   20.9510   32.5020 C   0  0  0  0  0  0  0  0  0  0  0  0
   39.7990   21.1490   32.6190 O   0  0  0  0  0  0  0  0  0  0  0  0
   40.9200   24.1940   35.3430 N   0  0  0  0  0  0  0  0  0  0  0  0
   42.1370   23.8880   35.8020 C   0  0  0  0  0  0  0  0  0  0  0  0
   42.9740   24.8810   35.3840 N   0  0  0  0  0  0  0  0  0  0  0  0
   42.2740   25.7610   34.6890 C   0  0  0  0  0  0  0  0  0  0  0  0
   42.5490   26.9400   34.0310 C   0  0  0  0  0  0  0  0  0  0  0  0
   41.6030   27.6600   33.3790 N   0  0  0  0  0  0  0  0  0  0  0  0
   40.3110   27.2080   33.3640 C   0  0  0  0  0  0  0  0  0  0  0  0
   39.9840   26.0640   33.9900 N   0  0  0  0  0  0  0  0  0  0  0  0
   40.9540   25.3660   34.6330 C   0  0  0  0  0  0  0  0  0  0  0  0
   43.8630   27.4550   34.0120 N   0  0  0  0  0  0  0  0  0  0  0  0
   39.4467   23.9530   37.6331 H   0  0  0  0  0  0  0  0  0  0  0  0
   36.3232   22.0149   38.1691 H   0  0  0  0  0  0  0  0  0  0  0  0
   37.5398   23.0861   38.9142 H   0  0  0  0  0  0  0  0  0  0  0  0
   35.6477   21.5045   34.0943 H   0  0  0  0  0  0  0  0  0  0  0  0
   33.9340   20.1634   33.0283 H   0  0  0  0  0  0  0  0  0  0  0  0
   33.9499   21.0770   31.4818 H   0  0  0  0  0  0  0  0  0  0  0  0
   34.2500   19.3060   31.4818 H   0  0  0  0  0  0  0  0  0  0  0  0
   38.7445   19.9705   30.6789 H   0  0  0  0  0  0  0  0  0  0  0  0
   42.4108   23.0067   36.4006 H   0  0  0  0  0  0  0  0  0  0  0  0
   39.5361   27.7839   32.8369 H   0  0  0  0  0  0  0  0  0  0  0  0
   44.0635   28.3367   33.5188 H   0  0  0  0  0  0  0  0  0  0  0  0
   44.6214   26.9491   34.4914 H   0  0  0  0  0  0  0  0  0  0  0  0
  1  2  2  0
  2  3  1  0
  3  7  1  0
  4  3  2  0
  5  4  1  0
  6  5  2  0
  6  1  1  0
  8  5  1  0
  9  8  1  0
 10  9  2  0
 11 10  1  0
 12 14  1  0
 12 10  1  0
 13 12  2  0
 14 15  1  0
 15 16  2  0
 15  8  1  0
 17  1  1  0
 17 18  1  0
 19 18  2  0
 20 19  1  0
 21 20  2  0
 22 21  1  0
 23 22  2  0
 23 24  1  0
 24 25  2  0
 25 20  1  0
 25 17  1  0
 26 21  1  0
  2 27  1  0
  7 28  1  0
  7 29  1  0
  9 30  1  0
 11 31  1  0
 11 32  1  0
 11 33  1  0
 14 34  1  0
 18 35  1  0
 23 36  1  0
 26 37  1  0
 26 38  1  0
M  ISO  8  27  14  30  14  31   8  32   8  33   8  34   9  35  14  36  14
M  END
>  <minimizedAffinity>  (1) 
-6.37445927

>  <minimizedRMSD>  (1) 
1.38769972

$$$$
