
     RDKit          3D

 35 38  0  0  0  0  0  0  0  0999 V2000
   39.6260   23.5340   35.6840 C   0  0  0  0  0  0  0  0  0  0  0  0
   39.1470   23.4520   36.9930 C   0  0  0  0  0  0  0  0  0  0  0  0
   37.9340   22.7440   37.1930 C   0  0  0  0  0  0  0  0  0  0  0  0
   37.3120   22.1920   36.1210 N   0  0  0  0  0  0  0  0  0  0  0  0
   37.7960   22.2870   34.8760 C   0  0  0  0  0  0  0  0  0  0  0  0
   38.9500   22.9550   34.6580 N   0  0  0  0  0  0  0  0  0  0  0  0
   37.4220   22.6440   38.5200 N   0  0  0  0  0  0  0  0  0  0  0  0
   40.8320   24.2180   35.3690 N   0  0  0  0  0  0  0  0  0  0  0  0
   42.0690   23.8570   35.7050 C   0  0  0  0  0  0  0  0  0  0  0  0
   42.9180   24.7870   35.2040 N   0  0  0  0  0  0  0  0  0  0  0  0
   42.2020   25.6970   34.5720 C   0  0  0  0  0  0  0  0  0  0  0  0
   42.4700   26.8600   33.8710 C   0  0  0  0  0  0  0  0  0  0  0  0
   41.4890   27.6290   33.3020 N   0  0  0  0  0  0  0  0  0  0  0  0
   40.1960   27.2460   33.4240 C   0  0  0  0  0  0  0  0  0  0  0  0
   39.8660   26.1280   34.0910 N   0  0  0  0  0  0  0  0  0  0  0  0
   40.8540   25.3820   34.6460 C   0  0  0  0  0  0  0  0  0  0  0  0
   43.8170   27.2880   33.7310 N   0  0  0  0  0  0  0  0  0  0  0  0
   37.0840   21.6730   33.7600 C   0  0  0  0  0  0  0  0  0  0  0  0
   37.4870   21.9160   32.4630 C   0  0  0  0  0  0  0  0  0  0  0  0
   36.7670   21.3020   31.4610 C   0  0  0  0  0  0  0  0  0  0  0  0
   35.6960   20.4790   31.7130 C   0  0  0  0  0  0  0  0  0  0  0  0
   35.2840   20.2280   33.0240 C   0  0  0  0  0  0  0  0  0  0  0  0
   36.0100   20.8480   34.0200 C   0  0  0  0  0  0  0  0  0  0  0  0
   39.6863   23.9158   37.8320 H   0  0  0  0  0  0  0  0  0  0  0  0
   36.5434   22.1362   38.6961 H   0  0  0  0  0  0  0  0  0  0  0  0
   37.9308   23.0796   39.3025 H   0  0  0  0  0  0  0  0  0  0  0  0
   42.3507   22.9654   36.2843 H   0  0  0  0  0  0  0  0  0  0  0  0
   39.4040   27.8597   32.9700 H   0  0  0  0  0  0  0  0  0  0  0  0
   44.0317   28.1514   33.2121 H   0  0  0  0  0  0  0  0  0  0  0  0
   44.5791   26.7350   34.1484 H   0  0  0  0  0  0  0  0  0  0  0  0
   38.3431   22.5694   32.2391 H   0  0  0  0  0  0  0  0  0  0  0  0
   37.0620   21.4781   30.4160 H   0  0  0  0  0  0  0  0  0  0  0  0
   35.1578   20.0133   30.8743 H   0  0  0  0  0  0  0  0  0  0  0  0
   34.4293   19.5732   33.2494 H   0  0  0  0  0  0  0  0  0  0  0  0
   35.7195   20.6768   35.0670 H   0  0  0  0  0  0  0  0  0  0  0  0
  1  2  2  0
  2  3  1  0
  3  7  1  0
  4  3  2  0
  5  4  1  0
  6  5  2  0
  6  1  1  0
  8  1  1  0
  8  9  1  0
 10  9  2  0
 11 16  2  0
 11 10  1  0
 12 11  1  0
 13 14  1  0
 13 12  2  0
 14 15  2  0
 15 16  1  0
 16  8  1  0
 17 12  1  0
 18 23  1  0
 18  5  1  0
 19 18  2  0
 20 21  2  0
 20 19  1  0
 21 22  1  0
 22 23  2  0
  2 24  1  0
  7 25  1  0
  7 26  1  0
  9 27  1  0
 14 28  1  0
 17 29  1  0
 17 30  1  0
 19 31  1  0
 20 32  1  0
 21 33  1  0
 22 34  1  0
 23 35  1  0
M  ISO  8  24  14  27  14  28  14  31  14  32  14  33  14  34  14  35  14
M  END
>  <minimizedAffinity>  (1) 
-5.7095933

>  <minimizedRMSD>  (1) 
1.5622716

$$$$
