
     RDKit          3D

 37 40  0  0  0  0  0  0  0  0999 V2000
   39.5950   23.5200   35.6580 C   0  0  0  0  0  0  0  0  0  0  0  0
   39.1100   23.4610   36.9820 C   0  0  0  0  0  0  0  0  0  0  0  0
   37.9160   22.7420   37.1730 C   0  0  0  0  0  0  0  0  0  0  0  0
   37.3070   22.1580   36.1110 N   0  0  0  0  0  0  0  0  0  0  0  0
   37.7980   22.2360   34.8680 C   0  0  0  0  0  0  0  0  0  0  0  0
   38.9430   22.9200   34.6560 N   0  0  0  0  0  0  0  0  0  0  0  0
   37.3890   22.6450   38.5060 N   0  0  0  0  0  0  0  0  0  0  0  0
   37.1310   21.6100   33.7790 N   0  0  0  0  0  0  0  0  0  0  0  0
   37.5680   21.6260   32.3950 C   0  0  0  0  0  0  0  0  0  0  0  0
   36.2560   21.8470   31.6710 C   0  0  0  0  0  0  0  0  0  0  0  0
   35.2200   21.2760   32.5820 C   0  0  0  0  0  0  0  0  0  0  0  0
   35.9000   20.8470   33.8650 C   0  0  0  0  0  0  0  0  0  0  0  0
   40.8050   24.2230   35.3410 N   0  0  0  0  0  0  0  0  0  0  0  0
   42.0560   23.8530   35.6950 C   0  0  0  0  0  0  0  0  0  0  0  0
   42.8880   24.8090   35.1840 N   0  0  0  0  0  0  0  0  0  0  0  0
   42.1500   25.7070   34.5540 C   0  0  0  0  0  0  0  0  0  0  0  0
   42.4340   26.8660   33.8640 C   0  0  0  0  0  0  0  0  0  0  0  0
   41.4420   27.6280   33.2940 N   0  0  0  0  0  0  0  0  0  0  0  0
   40.1470   27.2380   33.4070 C   0  0  0  0  0  0  0  0  0  0  0  0
   39.8330   26.1060   34.0780 N   0  0  0  0  0  0  0  0  0  0  0  0
   40.8210   25.3740   34.6280 C   0  0  0  0  0  0  0  0  0  0  0  0
   43.7520   27.3260   33.7090 N   0  0  0  0  0  0  0  0  0  0  0  0
   39.6352   23.9490   37.8163 H   0  0  0  0  0  0  0  0  0  0  0  0
   36.5165   22.1254   38.6783 H   0  0  0  0  0  0  0  0  0  0  0  0
   37.8837   23.0951   39.2894 H   0  0  0  0  0  0  0  0  0  0  0  0
   38.2754   22.4468   32.2057 H   0  0  0  0  0  0  0  0  0  0  0  0
   38.1073   20.7195   32.0828 H   0  0  0  0  0  0  0  0  0  0  0  0
   36.0794   22.9203   31.5070 H   0  0  0  0  0  0  0  0  0  0  0  0
   36.2436   21.3739   30.6780 H   0  0  0  0  0  0  0  0  0  0  0  0
   34.4574   22.0376   32.8018 H   0  0  0  0  0  0  0  0  0  0  0  0
   34.7301   20.4138   32.1059 H   0  0  0  0  0  0  0  0  0  0  0  0
   36.0934   19.7642   33.8798 H   0  0  0  0  0  0  0  0  0  0  0  0
   35.3124   21.0259   34.7775 H   0  0  0  0  0  0  0  0  0  0  0  0
   42.3450   22.9644   36.2755 H   0  0  0  0  0  0  0  0  0  0  0  0
   39.3501   27.8443   32.9515 H   0  0  0  0  0  0  0  0  0  0  0  0
   43.9361   28.1955   33.1885 H   0  0  0  0  0  0  0  0  0  0  0  0
   44.5344   26.7938   34.1158 H   0  0  0  0  0  0  0  0  0  0  0  0
  1  2  2  0
  2  3  1  0
  3  7  1  0
  4  3  2  0
  5  4  1  0
  6  5  2  0
  6  1  1  0
  8 12  1  0
  8  5  1  0
  9  8  1  0
 10  9  1  0
 10 11  1  0
 11 12  1  0
 13  1  1  0
 13 14  1  0
 15 14  2  0
 16 21  2  0
 16 15  1  0
 17 16  1  0
 18 19  1  0
 18 17  2  0
 19 20  2  0
 20 21  1  0
 21 13  1  0
 22 17  1  0
  2 23  1  0
  7 24  1  0
  7 25  1  0
  9 26  1  0
  9 27  1  0
 10 28  1  0
 10 29  1  0
 11 30  1  0
 11 31  1  0
 12 32  1  0
 12 33  1  0
 14 34  1  0
 19 35  1  0
 22 36  1  0
 22 37  1  0
M  ISO  8  23  14  26  13  27  13  28  13  29  13  30  13  31  13  32  13
M  ISO  3  33  13  34  14  35  14
M  END
>  <minimizedAffinity>  (1) 
-5.67385244

>  <minimizedRMSD>  (1) 
1.55521631

$$$$
