
     RDKit          3D

 39 42  0  0  0  0  0  0  0  0999 V2000
   39.6050   23.4560   35.6150 C   0  0  0  0  0  0  0  0  0  0  0  0
   39.0030   23.3960   36.8730 C   0  0  0  0  0  0  0  0  0  0  0  0
   37.8160   22.6410   37.0030 C   0  0  0  0  0  0  0  0  0  0  0  0
   37.3290   22.0170   35.8980 N   0  0  0  0  0  0  0  0  0  0  0  0
   37.9340   22.0970   34.7050 C   0  0  0  0  0  0  0  0  0  0  0  0
   39.0620   22.8070   34.5520 N   0  0  0  0  0  0  0  0  0  0  0  0
   37.1810   22.5610   38.2720 N   0  0  0  0  0  0  0  0  0  0  0  0
   37.3970   21.4300   33.5680 N   0  0  0  0  0  0  0  0  0  0  0  0
   35.9720   21.1990   33.4160 C   0  0  0  0  0  0  0  0  0  0  0  0
   35.6090   21.8460   32.0730 C   0  0  0  0  0  0  0  0  0  0  0  0
   36.2360   21.0110   31.0640 N   0  0  0  0  0  0  0  0  0  0  0  0
   37.6510   21.2130   31.1340 C   0  0  0  0  0  0  0  0  0  0  0  0
   38.2240   20.9500   32.5060 C   0  0  0  0  0  0  0  0  0  0  0  0
   40.8050   24.1930   35.3880 N   0  0  0  0  0  0  0  0  0  0  0  0
   42.0340   23.8690   35.8180 C   0  0  0  0  0  0  0  0  0  0  0  0
   42.8740   24.8490   35.3750 N   0  0  0  0  0  0  0  0  0  0  0  0
   42.1600   25.7380   34.6960 C   0  0  0  0  0  0  0  0  0  0  0  0
   42.4320   26.9150   34.0250 C   0  0  0  0  0  0  0  0  0  0  0  0
   41.4680   27.6430   33.3960 N   0  0  0  0  0  0  0  0  0  0  0  0
   40.1830   27.2060   33.4220 C   0  0  0  0  0  0  0  0  0  0  0  0
   39.8560   26.0660   34.0600 N   0  0  0  0  0  0  0  0  0  0  0  0
   40.8370   25.3580   34.6790 C   0  0  0  0  0  0  0  0  0  0  0  0
   43.7640   27.4060   33.9740 N   0  0  0  0  0  0  0  0  0  0  0  0
   39.4392   23.9202   37.7361 H   0  0  0  0  0  0  0  0  0  0  0  0
   36.3151   22.0140   38.3810 H   0  0  0  0  0  0  0  0  0  0  0  0
   37.5867   23.0500   39.0827 H   0  0  0  0  0  0  0  0  0  0  0  0
   35.7544   20.1209   33.3977 H   0  0  0  0  0  0  0  0  0  0  0  0
   35.3924   21.6219   34.2498 H   0  0  0  0  0  0  0  0  0  0  0  0
   34.5177   21.8626   31.9357 H   0  0  0  0  0  0  0  0  0  0  0  0
   35.9530   22.8892   32.0139 H   0  0  0  0  0  0  0  0  0  0  0  0
   35.8918   21.2748   30.1298 H   0  0  0  0  0  0  0  0  0  0  0  0
   38.1365   20.5348   30.4168 H   0  0  0  0  0  0  0  0  0  0  0  0
   37.8415   22.2704   30.8982 H   0  0  0  0  0  0  0  0  0  0  0  0
   38.3528   19.8644   32.6278 H   0  0  0  0  0  0  0  0  0  0  0  0
   39.1794   21.4917   32.5682 H   0  0  0  0  0  0  0  0  0  0  0  0
   42.3106   22.9854   36.4120 H   0  0  0  0  0  0  0  0  0  0  0  0
   39.3999   27.7898   32.9161 H   0  0  0  0  0  0  0  0  0  0  0  0
   43.9709   28.2829   33.4749 H   0  0  0  0  0  0  0  0  0  0  0  0
   44.5229   26.8851   34.4361 H   0  0  0  0  0  0  0  0  0  0  0  0
  1  2  2  0
  2  3  1  0
  3  7  1  0
  4  3  2  0
  5  4  1  0
  6  5  2  0
  6  1  1  0
  8  5  1  0
  9  8  1  0
 10  9  1  0
 11 12  1  0
 11 10  1  0
 12 13  1  0
 13  8  1  0
 14  1  1  0
 14 15  1  0
 16 15  2  0
 17 16  1  0
 18 17  2  0
 19 20  2  0
 19 18  1  0
 20 21  1  0
 21 22  2  0
 22 17  1  0
 22 14  1  0
 23 18  1  0
  2 24  1  0
  7 25  1  0
  7 26  1  0
  9 27  1  0
  9 28  1  0
 10 29  1  0
 10 30  1  0
 11 31  1  0
 12 32  1  0
 12 33  1  0
 13 34  1  0
 13 35  1  0
 15 36  1  0
 20 37  1  0
 23 38  1  0
 23 39  1  0
M  ISO  8  24  14  27  13  28  13  29  13  30  13  31   5  32  13  33  13
M  ISO  4  34  13  35  13  36  14  37  14
M  END
>  <minimizedAffinity>  (1) 
-5.6374445

>  <minimizedRMSD>  (1) 
1.48355758

$$$$
