
     RDKit          3D

 33 36  0  0  0  0  0  0  0  0999 V2000
   39.5300   23.4820   35.7220 C   0  0  0  0  0  0  0  0  0  0  0  0
   38.9900   23.4080   37.0060 C   0  0  0  0  0  0  0  0  0  0  0  0
   37.7940   22.6810   37.1680 C   0  0  0  0  0  0  0  0  0  0  0  0
   37.2400   22.1020   36.0930 N   0  0  0  0  0  0  0  0  0  0  0  0
   37.7810   22.1870   34.8550 C   0  0  0  0  0  0  0  0  0  0  0  0
   38.9280   22.8780   34.6650 N   0  0  0  0  0  0  0  0  0  0  0  0
   37.2010   22.5760   38.4580 N   0  0  0  0  0  0  0  0  0  0  0  0
   40.7380   24.1930   35.4520 N   0  0  0  0  0  0  0  0  0  0  0  0
   41.9700   23.8430   35.8350 C   0  0  0  0  0  0  0  0  0  0  0  0
   42.8180   24.7970   35.3690 N   0  0  0  0  0  0  0  0  0  0  0  0
   42.1120   25.7060   34.7170 C   0  0  0  0  0  0  0  0  0  0  0  0
   42.3920   26.8830   34.0380 C   0  0  0  0  0  0  0  0  0  0  0  0
   41.4240   27.6300   33.4500 N   0  0  0  0  0  0  0  0  0  0  0  0
   40.1190   27.2280   33.5160 C   0  0  0  0  0  0  0  0  0  0  0  0
   39.7930   26.0980   34.1630 N   0  0  0  0  0  0  0  0  0  0  0  0
   40.7820   25.3640   34.7450 C   0  0  0  0  0  0  0  0  0  0  0  0
   43.7150   27.3420   33.9380 N   0  0  0  0  0  0  0  0  0  0  0  0
   37.1320   21.5370   33.7240 C   0  0  0  0  0  0  0  0  0  0  0  0
   35.9610   20.8450   33.8960 C   0  0  0  0  0  0  0  0  0  0  0  0
   35.2750   20.2010   32.8910 C   0  0  0  0  0  0  0  0  0  0  0  0
   35.8170   20.2700   31.6670 N   0  0  0  0  0  0  0  0  0  0  0  0
   36.9810   20.9520   31.4710 C   0  0  0  0  0  0  0  0  0  0  0  0
   37.6410   21.5840   32.4810 N   0  0  0  0  0  0  0  0  0  0  0  0
   39.4795   23.8988   37.8601 H   0  0  0  0  0  0  0  0  0  0  0  0
   36.3267   22.0456   38.5813 H   0  0  0  0  0  0  0  0  0  0  0  0
   37.6462   23.0304   39.2680 H   0  0  0  0  0  0  0  0  0  0  0  0
   42.2453   22.9513   36.4173 H   0  0  0  0  0  0  0  0  0  0  0  0
   39.3340   27.8322   33.0376 H   0  0  0  0  0  0  0  0  0  0  0  0
   43.9201   28.2162   33.4333 H   0  0  0  0  0  0  0  0  0  0  0  0
   44.4805   26.8046   34.3693 H   0  0  0  0  0  0  0  0  0  0  0  0
   35.5389   20.8012   34.9108 H   0  0  0  0  0  0  0  0  0  0  0  0
   34.3359   19.6608   33.0815 H   0  0  0  0  0  0  0  0  0  0  0  0
   37.4042   20.9936   30.4565 H   0  0  0  0  0  0  0  0  0  0  0  0
  1  2  2  0
  2  3  1  0
  3  7  1  0
  4  3  2  0
  5  4  1  0
  6  5  2  0
  6  1  1  0
  8  1  1  0
  8  9  1  0
 10  9  2  0
 11 16  2  0
 11 10  1  0
 12 11  1  0
 13 14  1  0
 13 12  2  0
 14 15  2  0
 15 16  1  0
 16  8  1  0
 17 12  1  0
 18 19  2  0
 18  5  1  0
 20 19  1  0
 21 20  2  0
 22 21  1  0
 22 23  2  0
 23 18  1  0
  2 24  1  0
  7 25  1  0
  7 26  1  0
  9 27  1  0
 14 28  1  0
 17 29  1  0
 17 30  1  0
 19 31  1  0
 20 32  1  0
 22 33  1  0
M  ISO  6  24  14  27  14  28  14  31  14  32  14  33  14
M  END
>  <minimizedAffinity>  (1) 
-5.44287348

>  <minimizedRMSD>  (1) 
1.58290958

$$$$
