
     RDKit          3D

 31 34  0  0  0  0  0  0  0  0999 V2000
   39.6590   23.5340   35.7170 C   0  0  0  0  0  0  0  0  0  0  0  0
   39.1320   23.5310   37.0120 C   0  0  0  0  0  0  0  0  0  0  0  0
   37.9350   22.8090   37.2220 C   0  0  0  0  0  0  0  0  0  0  0  0
   37.3750   22.1740   36.1790 N   0  0  0  0  0  0  0  0  0  0  0  0
   37.8970   22.1850   34.9270 C   0  0  0  0  0  0  0  0  0  0  0  0
   39.0390   22.8690   34.7090 N   0  0  0  0  0  0  0  0  0  0  0  0
   37.3640   22.7780   38.5180 N   0  0  0  0  0  0  0  0  0  0  0  0
   37.3300   21.5280   33.8150 N   0  0  0  0  0  0  0  0  0  0  0  0
   36.1100   20.9620   33.8500 C   0  0  0  0  0  0  0  0  0  0  0  0
   35.9070   20.4380   32.6290 N   0  0  0  0  0  0  0  0  0  0  0  0
   36.9660   20.6620   31.8340 C   0  0  0  0  0  0  0  0  0  0  0  0
   37.8460   21.3520   32.6140 N   0  0  0  0  0  0  0  0  0  0  0  0
   40.8650   24.2310   35.3890 N   0  0  0  0  0  0  0  0  0  0  0  0
   42.1020   23.8670   35.7320 C   0  0  0  0  0  0  0  0  0  0  0  0
   42.9510   24.7930   35.2260 N   0  0  0  0  0  0  0  0  0  0  0  0
   42.2250   25.6980   34.5870 C   0  0  0  0  0  0  0  0  0  0  0  0
   42.4960   26.8600   33.8800 C   0  0  0  0  0  0  0  0  0  0  0  0
   41.5080   27.6200   33.3110 N   0  0  0  0  0  0  0  0  0  0  0  0
   40.2080   27.2370   33.4340 C   0  0  0  0  0  0  0  0  0  0  0  0
   39.8940   26.1120   34.1140 N   0  0  0  0  0  0  0  0  0  0  0  0
   40.8930   25.3790   34.6670 C   0  0  0  0  0  0  0  0  0  0  0  0
   43.8190   27.3040   33.7180 N   0  0  0  0  0  0  0  0  0  0  0  0
   39.6284   24.0683   37.8335 H   0  0  0  0  0  0  0  0  0  0  0  0
   36.4920   22.2555   38.6842 H   0  0  0  0  0  0  0  0  0  0  0  0
   37.8208   23.2779   39.2941 H   0  0  0  0  0  0  0  0  0  0  0  0
   35.4185   20.9338   34.7050 H   0  0  0  0  0  0  0  0  0  0  0  0
   37.0949   20.3563   30.7852 H   0  0  0  0  0  0  0  0  0  0  0  0
   42.3808   22.9786   36.3177 H   0  0  0  0  0  0  0  0  0  0  0  0
   39.4114   27.8441   32.9792 H   0  0  0  0  0  0  0  0  0  0  0  0
   44.0114   28.1681   33.1915 H   0  0  0  0  0  0  0  0  0  0  0  0
   44.5965   26.7654   34.1258 H   0  0  0  0  0  0  0  0  0  0  0  0
  1  2  2  0
  2  3  1  0
  3  7  1  0
  4  3  2  0
  5  4  1  0
  6  5  2  0
  6  1  1  0
  8  9  1  0
  8  5  1  0
 10  9  2  0
 11 12  2  0
 11 10  1  0
 12  8  1  0
 13  1  1  0
 13 14  1  0
 15 14  2  0
 16 21  2  0
 16 15  1  0
 17 16  1  0
 18 19  1  0
 18 17  2  0
 19 20  2  0
 20 21  1  0
 21 13  1  0
 22 17  1  0
  2 23  1  0
  7 24  1  0
  7 25  1  0
  9 26  1  0
 11 27  1  0
 14 28  1  0
 19 29  1  0
 22 30  1  0
 22 31  1  0
M  ISO  5  23  14  26  14  27  14  28  14  29  14
M  END
>  <minimizedAffinity>  (1) 
-5.23280239

>  <minimizedRMSD>  (1) 
1.48478818

$$$$
