
     RDKit          3D

 31 34  0  0  0  0  0  0  0  0999 V2000
   39.6810   23.5470   35.6930 C   0  0  0  0  0  0  0  0  0  0  0  0
   39.1750   23.4750   36.9910 C   0  0  0  0  0  0  0  0  0  0  0  0
   37.9800   22.7680   37.2040 C   0  0  0  0  0  0  0  0  0  0  0  0
   37.3820   22.1950   36.1460 N   0  0  0  0  0  0  0  0  0  0  0  0
   37.8770   22.2690   34.8960 C   0  0  0  0  0  0  0  0  0  0  0  0
   39.0210   22.9430   34.6700 N   0  0  0  0  0  0  0  0  0  0  0  0
   37.4500   22.6840   38.5200 N   0  0  0  0  0  0  0  0  0  0  0  0
   40.8870   24.2420   35.3760 N   0  0  0  0  0  0  0  0  0  0  0  0
   42.1250   23.8850   35.7290 C   0  0  0  0  0  0  0  0  0  0  0  0
   42.9660   24.8230   35.2210 N   0  0  0  0  0  0  0  0  0  0  0  0
   42.2370   25.7310   34.5720 C   0  0  0  0  0  0  0  0  0  0  0  0
   42.5120   26.8900   33.8660 C   0  0  0  0  0  0  0  0  0  0  0  0
   41.5310   27.6340   33.2940 N   0  0  0  0  0  0  0  0  0  0  0  0
   40.2380   27.2420   33.4090 C   0  0  0  0  0  0  0  0  0  0  0  0
   39.9100   26.1260   34.0830 N   0  0  0  0  0  0  0  0  0  0  0  0
   40.9010   25.3930   34.6480 C   0  0  0  0  0  0  0  0  0  0  0  0
   43.8500   27.3200   33.7300 N   0  0  0  0  0  0  0  0  0  0  0  0
   37.2000   21.6290   33.7440 C   0  0  0  0  0  0  0  0  0  0  0  0
   37.6350   21.6940   32.2980 C   0  0  0  0  0  0  0  0  0  0  0  0
   36.2860   20.6670   31.5780 S   0  0  0  0  0  0  0  0  0  0  0  0
   35.4360   20.3580   33.2490 C   0  0  0  0  0  0  0  0  0  0  0  0
   36.1130   20.9590   34.1520 N   0  0  0  0  0  0  0  0  0  0  0  0
   39.6992   23.9602   37.8276 H   0  0  0  0  0  0  0  0  0  0  0  0
   36.5746   22.1688   38.6907 H   0  0  0  0  0  0  0  0  0  0  0  0
   37.9413   23.1383   39.3030 H   0  0  0  0  0  0  0  0  0  0  0  0
   42.4090   23.0006   36.3183 H   0  0  0  0  0  0  0  0  0  0  0  0
   39.4454   27.8464   32.9437 H   0  0  0  0  0  0  0  0  0  0  0  0
   44.0636   28.1810   33.2065 H   0  0  0  0  0  0  0  0  0  0  0  0
   44.6125   26.7727   34.1543 H   0  0  0  0  0  0  0  0  0  0  0  0
   38.4903   22.1975   31.8236 H   0  0  0  0  0  0  0  0  0  0  0  0
   34.5228   19.7665   33.4110 H   0  0  0  0  0  0  0  0  0  0  0  0
  1  2  2  0
  2  3  1  0
  3  7  1  0
  4  3  2  0
  5  4  1  0
  6  5  2  0
  6  1  1  0
  8  1  1  0
  8  9  1  0
 10  9  2  0
 11 16  2  0
 11 10  1  0
 12 11  1  0
 13 14  1  0
 13 12  2  0
 14 15  2  0
 15 16  1  0
 16  8  1  0
 17 12  1  0
 18 22  1  0
 18  5  1  0
 19 18  2  0
 20 19  1  0
 20 21  1  0
 21 22  2  0
  2 23  1  0
  7 24  1  0
  7 25  1  0
  9 26  1  0
 14 27  1  0
 17 28  1  0
 17 29  1  0
 19 30  1  0
 21 31  1  0
M  ISO  5  23  14  26  14  27  14  30  14  31  14
M  END
>  <minimizedAffinity>  (1) 
-5.14068699

>  <minimizedRMSD>  (1) 
1.60623825

$$$$
