
     RDKit          3D

 32 35  0  0  0  0  0  0  0  0999 V2000
   40.8700   24.2650   35.4100 N   0  0  0  0  0  0  0  0  0  0  0  0
   42.0950   23.9300   35.8660 C   0  0  0  0  0  0  0  0  0  0  0  0
   42.9510   24.8820   35.4220 N   0  0  0  0  0  0  0  0  0  0  0  0
   42.2550   25.7720   34.7130 C   0  0  0  0  0  0  0  0  0  0  0  0
   42.5530   26.9300   34.0280 C   0  0  0  0  0  0  0  0  0  0  0  0
   41.5990   27.6590   33.3710 N   0  0  0  0  0  0  0  0  0  0  0  0
   40.3000   27.2390   33.3860 C   0  0  0  0  0  0  0  0  0  0  0  0
   39.9690   26.1100   34.0470 N   0  0  0  0  0  0  0  0  0  0  0  0
   40.9250   25.4070   34.6870 C   0  0  0  0  0  0  0  0  0  0  0  0
   39.6580   23.5300   35.6430 C   0  0  0  0  0  0  0  0  0  0  0  0
   39.0780   23.4410   36.9070 C   0  0  0  0  0  0  0  0  0  0  0  0
   37.8910   22.6910   37.0050 C   0  0  0  0  0  0  0  0  0  0  0  0
   37.3880   22.1120   35.9000 N   0  0  0  0  0  0  0  0  0  0  0  0
   37.9610   22.2100   34.6930 C   0  0  0  0  0  0  0  0  0  0  0  0
   39.1030   22.9230   34.5620 N   0  0  0  0  0  0  0  0  0  0  0  0
   37.2670   22.5790   38.2920 N   0  0  0  0  0  0  0  0  0  0  0  0
   37.3970   21.5660   33.4770 C   0  0  0  0  0  0  0  0  0  0  0  0
   38.3640   20.7530   32.6040 C   0  0  0  0  0  0  0  0  0  0  0  0
   37.7600   22.0270   32.1250 C   0  0  0  0  0  0  0  0  0  0  0  0
   43.8800   27.4070   33.9820 N   0  0  0  0  0  0  0  0  0  0  0  0
   42.3496   23.0533   36.4797 H   0  0  0  0  0  0  0  0  0  0  0  0
   39.5262   27.8186   32.8613 H   0  0  0  0  0  0  0  0  0  0  0  0
   39.5252   23.9321   37.7838 H   0  0  0  0  0  0  0  0  0  0  0  0
   36.3974   22.0372   38.3973 H   0  0  0  0  0  0  0  0  0  0  0  0
   37.6886   23.0404   39.1107 H   0  0  0  0  0  0  0  0  0  0  0  0
   36.4370   21.4005   33.9880 H   0  0  0  0  0  0  0  0  0  0  0  0
   39.4337   20.7067   32.8563 H   0  0  0  0  0  0  0  0  0  0  0  0
   38.4125   19.7173   32.2367 H   0  0  0  0  0  0  0  0  0  0  0  0
   38.3941   22.9181   32.0070 H   0  0  0  0  0  0  0  0  0  0  0  0
   37.1805   22.3092   31.2336 H   0  0  0  0  0  0  0  0  0  0  0  0
   44.0985   28.2730   33.4689 H   0  0  0  0  0  0  0  0  0  0  0  0
   44.6303   26.8893   34.4615 H   0  0  0  0  0  0  0  0  0  0  0  0
  1 10  1  0
  1  2  1  0
  3  2  2  0
  4  3  1  0
  5  4  2  0
  6  7  2  0
  6  5  1  0
  7  8  1  0
  8  9  2  0
  9  4  1  0
  9  1  1  0
 10 11  2  0
 11 12  1  0
 12 16  1  0
 13 12  2  0
 14 13  1  0
 15 14  2  0
 15 10  1  0
 17 14  1  0
 18 17  1  0
 19 18  1  0
 19 17  1  0
 20  5  1  0
  2 21  1  0
  7 22  1  0
 11 23  1  0
 16 24  1  0
 16 25  1  0
 17 26  1  0
 18 27  1  0
 18 28  1  0
 19 29  1  0
 19 30  1  0
 20 31  1  0
 20 32  1  0
M  ISO  8  21  14  22  14  23  14  26  13  27  13  28  13  29  13  30  13
M  END
>  <minimizedAffinity>  (1) 
-4.56933784

>  <minimizedRMSD>  (1) 
1.47808051

$$$$
