
     RDKit          3D

 27 29  0  0  0  0  0  0  0  0999 V2000
   40.9870   24.0700   35.4150 N   0  0  0  0  0  0  0  0  0  0  0  0
   42.2130   23.6050   35.7420 C   0  0  0  0  0  0  0  0  0  0  0  0
   43.1080   24.5070   35.2630 N   0  0  0  0  0  0  0  0  0  0  0  0
   42.4500   25.4810   34.6690 C   0  0  0  0  0  0  0  0  0  0  0  0
   42.7940   26.6520   34.0080 C   0  0  0  0  0  0  0  0  0  0  0  0
   41.8690   27.4910   33.4800 N   0  0  0  0  0  0  0  0  0  0  0  0
   40.5440   27.1930   33.5900 C   0  0  0  0  0  0  0  0  0  0  0  0
   40.1560   26.0670   34.2220 N   0  0  0  0  0  0  0  0  0  0  0  0
   41.0930   25.2450   34.7410 C   0  0  0  0  0  0  0  0  0  0  0  0
   39.7450   23.4480   35.7160 C   0  0  0  0  0  0  0  0  0  0  0  0
   39.2150   23.4490   37.0240 C   0  0  0  0  0  0  0  0  0  0  0  0
   37.9750   22.8030   37.2110 C   0  0  0  0  0  0  0  0  0  0  0  0
   37.3720   22.2270   36.1480 N   0  0  0  0  0  0  0  0  0  0  0  0
   37.9050   22.2430   34.9090 C   0  0  0  0  0  0  0  0  0  0  0  0
   39.0840   22.8510   34.7020 N   0  0  0  0  0  0  0  0  0  0  0  0
   37.3970   22.7740   38.5070 N   0  0  0  0  0  0  0  0  0  0  0  0
   37.2200   21.6090   33.7890 C   0  0  0  0  0  0  0  0  0  0  0  0
   36.1210   21.0200   33.9520 O   0  0  0  0  0  0  0  0  0  0  0  0
   44.1640   26.9950   33.8750 N   0  0  0  0  0  0  0  0  0  0  0  0
   42.4411   22.6781   36.2887 H   0  0  0  0  0  0  0  0  0  0  0  0
   39.7906   27.8713   33.1630 H   0  0  0  0  0  0  0  0  0  0  0  0
   39.7444   23.9312   37.8590 H   0  0  0  0  0  0  0  0  0  0  0  0
   36.4920   22.3056   38.6569 H   0  0  0  0  0  0  0  0  0  0  0  0
   37.8825   23.2214   39.2976 H   0  0  0  0  0  0  0  0  0  0  0  0
   37.6712   21.6464   32.7865 H   0  0  0  0  0  0  0  0  0  0  0  0
   44.4330   27.8611   33.3868 H   0  0  0  0  0  0  0  0  0  0  0  0
   44.8898   26.3779   34.2666 H   0  0  0  0  0  0  0  0  0  0  0  0
  1 10  1  0
  1  2  1  0
  3  2  2  0
  4  9  2  0
  4  3  1  0
  5  4  1  0
  6  7  1  0
  6  5  2  0
  7  8  2  0
  8  9  1  0
  9  1  1  0
 10 11  2  0
 11 12  1  0
 12 16  1  0
 13 12  2  0
 14 13  1  0
 15 14  2  0
 15 10  1  0
 17 18  2  0
 17 14  1  0
 19  5  1  0
  2 20  1  0
  7 21  1  0
 11 22  1  0
 16 23  1  0
 16 24  1  0
 17 25  1  0
 19 26  1  0
 19 27  1  0
M  ISO  4  20  14  21  14  22  14  25   6
M  END
>  <minimizedAffinity>  (1) 
-4.33376551

>  <minimizedRMSD>  (1) 
1.30088031

$$$$
