
     RDKit          3D

 28 29  0  0  0  0  0  0  0  0999 V2000
   43.2790   22.8710   32.5850 C   0  0  0  0  0  0  0  0  0  0  0  0
   42.3060   22.5270   33.5490 C   0  0  0  0  0  0  0  0  0  0  0  0
   42.1580   23.3550   34.6570 C   0  0  0  0  0  0  0  0  0  0  0  0
   42.9770   24.4490   34.7240 N   0  0  0  0  0  0  0  0  0  0  0  0
   43.8900   24.7570   33.8030 C   0  0  0  0  0  0  0  0  0  0  0  0
   44.0340   23.9590   32.7340 N   0  0  0  0  0  0  0  0  0  0  0  0
   44.7110   25.9160   33.9380 N   0  0  0  0  0  0  0  0  0  0  0  0
   44.1430   27.1520   34.3240 C   0  0  0  0  0  0  0  0  0  0  0  0
   42.8450   27.2520   34.3810 N   0  0  0  0  0  0  0  0  0  0  0  0
   44.9940   28.2640   34.6440 N   0  0  0  0  0  0  0  0  0  0  0  0
   42.4270   28.1620   34.6940 H   0  0  0  0  0  0  0  0  0  0  0  0
   41.2590   23.1900   35.7160 N   0  0  0  0  0  0  0  0  0  0  0  0
   40.0450   23.8120   35.6730 C   0  0  0  0  0  0  0  0  0  0  0  0
   39.0920   23.7200   36.6520 C   0  0  0  0  0  0  0  0  0  0  0  0
   39.3610   22.9510   37.7640 C   0  0  0  0  0  0  0  0  0  0  0  0
   38.4070   22.8160   38.8200 N   0  0  0  0  0  0  0  0  0  0  0  0
   40.5640   22.3250   37.8220 N   0  0  0  0  0  0  0  0  0  0  0  0
   41.4550   22.4620   36.8210 C   0  0  0  0  0  0  0  0  0  0  0  0
   42.5550   21.8590   36.9270 O   0  0  0  0  0  0  0  0  0  0  0  0
   43.4155   22.2326   31.6997 H   0  0  0  0  0  0  0  0  0  0  0  0
   41.6824   21.6291   33.4271 H   0  0  0  0  0  0  0  0  0  0  0  0
   45.7223   25.8521   33.7534 H   0  0  0  0  0  0  0  0  0  0  0  0
   44.5807   29.1646   34.9252 H   0  0  0  0  0  0  0  0  0  0  0  0
   46.0175   28.1608   34.5922 H   0  0  0  0  0  0  0  0  0  0  0  0
   39.8164   24.4294   34.7918 H   0  0  0  0  0  0  0  0  0  0  0  0
   38.1323   24.2484   36.5532 H   0  0  0  0  0  0  0  0  0  0  0  0
   38.6277   22.2365   39.6424 H   0  0  0  0  0  0  0  0  0  0  0  0
   37.4989   23.2982   38.7584 H   0  0  0  0  0  0  0  0  0  0  0  0
  1  6  2  0
  1  2  1  0
  2  3  2  0
  3  4  1  0
  3 12  1  0
  5  7  1  0
  5  4  2  0
  6  5  1  0
  7  8  1  0
  8  9  2  0
  8 10  1  0
  9 11  1  0
 12 18  1  0
 13 12  1  0
 13 14  2  0
 14 15  1  0
 15 17  2  0
 15 16  1  0
 18 19  2  0
 18 17  1  0
  1 20  1  0
  2 21  1  0
  7 22  1  0
 10 23  1  0
 10 24  1  0
 13 25  1  0
 14 26  1  0
 16 27  1  0
 16 28  1  0
M  ISO  4  20  14  21  14  25  14  26  14
M  END
>  <minimizedAffinity>  (1) 
-5.16240931

>  <minimizedRMSD>  (1) 
7.28952122

$$$$
