
     RDKit          3D

 23 24  0  0  0  0  0  0  0  0999 V2000
   36.5150   25.5840   31.9600 C   0  0  0  0  0  0  0  0  0  0  0  0
   37.4000   24.7810   32.6480 C   0  0  0  0  0  0  0  0  0  0  0  0
   37.2320   23.3990   32.6270 C   0  0  0  0  0  0  0  0  0  0  0  0
   36.1930   22.8020   31.9320 C   0  0  0  0  0  0  0  0  0  0  0  0
   35.2870   23.6040   31.2280 C   0  0  0  0  0  0  0  0  0  0  0  0
   35.4940   24.9610   31.2780 C   0  0  0  0  0  0  0  0  0  0  0  0
   37.1830   20.4710   31.9040 C   0  0  0  0  0  0  0  0  0  0  0  0
   36.0910   21.3500   31.9620 C   0  0  0  0  0  0  0  0  0  0  0  0
   34.8070   20.7860   32.0560 C   0  0  0  0  0  0  0  0  0  0  0  0
   34.6990   19.4270   32.0850 N   0  0  0  0  0  0  0  0  0  0  0  0
   35.7800   18.6120   32.0260 C   0  0  0  0  0  0  0  0  0  0  0  0
   37.0240   19.1440   31.9360 N   0  0  0  0  0  0  0  0  0  0  0  0
   36.7630   27.3080   32.0140 S   0  0  0  0  0  0  0  0  0  0  0  0
   38.2100   27.6100   32.2920 O   0  0  0  0  0  0  0  0  0  0  0  0
   36.3230   27.9080   30.7070 O   0  0  0  0  0  0  0  0  0  0  0  0
   38.2330   25.2292   33.2095 H   0  0  0  0  0  0  0  0  0  0  0  0
   37.9429   22.7646   33.1767 H   0  0  0  0  0  0  0  0  0  0  0  0
   34.4500   23.1687   30.6623 H   0  0  0  0  0  0  0  0  0  0  0  0
   34.7875   25.6012   30.7293 H   0  0  0  0  0  0  0  0  0  0  0  0
   38.1992   20.8856   31.8301 H   0  0  0  0  0  0  0  0  0  0  0  0
   33.9125   21.4243   32.1049 H   0  0  0  0  0  0  0  0  0  0  0  0
   35.6485   17.5202   32.0511 H   0  0  0  0  0  0  0  0  0  0  0  0
   36.0186   27.8582   33.0240 H   0  0  0  0  0  0  0  0  0  0  0  0
  1 13  1  0
  1  2  2  0
  3  2  1  0
  4  8  1  0
  4  3  2  0
  5  6  2  0
  5  4  1  0
  6  1  1  0
  7 12  2  0
  7  8  1  0
  8  9  2  0
  9 10  1  0
 11 10  2  0
 12 11  1  0
 13 14  2  0
 15 13  2  0
  2 16  1  0
  3 17  1  0
  5 18  1  0
  6 19  1  0
  7 20  1  0
  9 21  1  0
 11 22  1  0
 13 23  1  0
M  ISO  8  16  14  17  14  18  14  19  14  20  14  21  14  22  14  23  11
M  END
>  <minimizedAffinity>  (1) 
-3.93287849

>  <minimizedRMSD>  (1) 
9.39022923

$$$$
