
     RDKit          3D

 34 37  0  0  0  0  0  0  0  0999 V2000
   36.8750   25.1560   31.4580 C   0  0  0  0  0  0  0  0  0  0  0  0
   37.9320   24.2670   31.6110 C   0  0  0  0  0  0  0  0  0  0  0  0
   37.6440   22.9130   31.7190 C   0  0  0  0  0  0  0  0  0  0  0  0
   36.3550   22.4140   31.6810 C   0  0  0  0  0  0  0  0  0  0  0  0
   35.3010   23.3110   31.5270 C   0  0  0  0  0  0  0  0  0  0  0  0
   35.5990   24.6370   31.4220 C   0  0  0  0  0  0  0  0  0  0  0  0
   37.1910   20.0270   31.7380 C   0  0  0  0  0  0  0  0  0  0  0  0
   36.1780   20.9820   31.8040 C   0  0  0  0  0  0  0  0  0  0  0  0
   34.8630   20.5050   32.0090 C   0  0  0  0  0  0  0  0  0  0  0  0
   34.6800   19.1640   32.1270 N   0  0  0  0  0  0  0  0  0  0  0  0
   35.6940   18.2790   32.0560 C   0  0  0  0  0  0  0  0  0  0  0  0
   36.9680   18.7210   31.8580 N   0  0  0  0  0  0  0  0  0  0  0  0
   37.2680   26.8580   31.3240 S   0  0  0  0  0  0  0  0  0  0  0  0
   38.7280   27.0190   31.0440 O   0  0  0  0  0  0  0  0  0  0  0  0
   36.4130   27.4630   30.2520 O   0  0  0  0  0  0  0  0  0  0  0  0
   38.6460   27.5850   35.9300 N   0  0  0  0  0  0  0  0  0  0  0  0
   39.4660   26.7610   35.2640 C   0  0  0  0  0  0  0  0  0  0  0  0
   38.9580   26.6600   34.0190 N   0  0  0  0  0  0  0  0  0  0  0  0
   37.8370   27.4240   33.9490 C   0  0  0  0  0  0  0  0  0  0  0  0
   36.9790   27.6380   32.8850 C   0  0  0  0  0  0  0  0  0  0  0  0
   35.9030   28.4550   33.0440 N   0  0  0  0  0  0  0  0  0  0  0  0
   35.7120   29.0380   34.2540 C   0  0  0  0  0  0  0  0  0  0  0  0
   36.5560   28.8170   35.2730 N   0  0  0  0  0  0  0  0  0  0  0  0
   37.6280   28.0210   35.1660 C   0  0  0  0  0  0  0  0  0  0  0  0
   38.9709   24.6269   31.6457 H   0  0  0  0  0  0  0  0  0  0  0  0
   38.4781   22.2061   31.8401 H   0  0  0  0  0  0  0  0  0  0  0  0
   34.2591   22.9600   31.4912 H   0  0  0  0  0  0  0  0  0  0  0  0
   34.7630   25.3415   31.3001 H   0  0  0  0  0  0  0  0  0  0  0  0
   38.2242   20.3695   31.5791 H   0  0  0  0  0  0  0  0  0  0  0  0
   34.0124   21.1997   32.0712 H   0  0  0  0  0  0  0  0  0  0  0  0
   35.4938   17.2022   32.1576 H   0  0  0  0  0  0  0  0  0  0  0  0
   38.7798   27.8542   36.9152 H   0  0  0  0  0  0  0  0  0  0  0  0
   40.3689   26.2678   35.6532 H   0  0  0  0  0  0  0  0  0  0  0  0
   34.8493   29.7041   34.4022 H   0  0  0  0  0  0  0  0  0  0  0  0
  1  2  2  0
  2  3  1  0
  4  3  2  0
  4  8  1  0
  5  4  1  0
  6  1  1  0
  6  5  2  0
  7  8  2  0
  7 12  1  0
  8  9  1  0
  9 10  2  0
 11 10  1  0
 12 11  2  0
 13  1  1  0
 13 20  1  0
 14 13  2  0
 15 13  2  0
 17 16  1  0
 18 17  2  0
 19 18  1  0
 19 24  2  0
 20 21  2  0
 20 19  1  0
 21 22  1  0
 22 23  2  0
 24 23  1  0
 24 16  1  0
  2 25  1  0
  3 26  1  0
  5 27  1  0
  6 28  1  0
  7 29  1  0
  9 30  1  0
 11 31  1  0
 16 32  1  0
 17 33  1  0
 22 34  1  0
M  ISO  8  25  14  26  14  27  14  28  14  29  14  30  14  31  14  32   9
M  ISO  2  33  14  34  14
M  END
>  <minimizedAffinity>  (1) 
-5.48753119

>  <minimizedRMSD>  (1) 
1.28057587

$$$$
