
     RDKit          3D

 33 35  0  0  0  0  0  0  0  0999 V2000
   36.9090   25.9160   31.0490 C   0  0  0  0  0  0  0  0  0  0  0  0
   37.8930   24.9670   31.0480 C   0  0  0  0  0  0  0  0  0  0  0  0
   37.5440   23.6160   31.1740 C   0  0  0  0  0  0  0  0  0  0  0  0
   36.2190   23.2150   31.3010 C   0  0  0  0  0  0  0  0  0  0  0  0
   35.2080   24.1690   31.3030 C   0  0  0  0  0  0  0  0  0  0  0  0
   35.6160   25.4770   31.1760 C   0  0  0  0  0  0  0  0  0  0  0  0
   36.5410   20.7920   30.6420 C   0  0  0  0  0  0  0  0  0  0  0  0
   35.9650   21.7930   31.4270 C   0  0  0  0  0  0  0  0  0  0  0  0
   35.0680   21.3720   32.4150 C   0  0  0  0  0  0  0  0  0  0  0  0
   34.8060   20.0440   32.5610 N   0  0  0  0  0  0  0  0  0  0  0  0
   35.3860   19.1080   31.7780 C   0  0  0  0  0  0  0  0  0  0  0  0
   36.2520   19.4980   30.8240 N   0  0  0  0  0  0  0  0  0  0  0  0
   37.3810   27.5790   30.9020 S   0  0  0  0  0  0  0  0  0  0  0  0
   38.8880   27.6940   30.9130 O   0  0  0  0  0  0  0  0  0  0  0  0
   36.8000   28.1550   29.6560 O   0  0  0  0  0  0  0  0  0  0  0  0
   36.7010   28.4430   32.2850 C   0  0  0  0  0  0  0  0  0  0  0  0
   36.0560   29.6550   32.1520 C   0  0  0  0  0  0  0  0  0  0  0  0
   35.5170   30.3560   33.1960 C   0  0  0  0  0  0  0  0  0  0  0  0
   35.6270   29.8070   34.4760 C   0  0  0  0  0  0  0  0  0  0  0  0
   36.2770   28.5870   34.6040 C   0  0  0  0  0  0  0  0  0  0  0  0
   36.8190   27.8830   33.5550 C   0  0  0  0  0  0  0  0  0  0  0  0
   38.9483   25.2612   30.9492 H   0  0  0  0  0  0  0  0  0  0  0  0
   38.3375   22.8542   31.1724 H   0  0  0  0  0  0  0  0  0  0  0  0
   34.1471   23.8952   31.4001 H   0  0  0  0  0  0  0  0  0  0  0  0
   34.8286   26.2451   31.1764 H   0  0  0  0  0  0  0  0  0  0  0  0
   37.2522   21.0750   29.8519 H   0  0  0  0  0  0  0  0  0  0  0  0
   34.5782   22.1086   33.0689 H   0  0  0  0  0  0  0  0  0  0  0  0
   35.1538   18.0420   31.9182 H   0  0  0  0  0  0  0  0  0  0  0  0
   35.9696   30.0849   31.1432 H   0  0  0  0  0  0  0  0  0  0  0  0
   35.0135   31.3203   33.0329 H   0  0  0  0  0  0  0  0  0  0  0  0
   35.2122   30.3245   35.3536 H   0  0  0  0  0  0  0  0  0  0  0  0
   36.3641   28.1549   35.6118 H   0  0  0  0  0  0  0  0  0  0  0  0
   37.3243   26.9186   33.7118 H   0  0  0  0  0  0  0  0  0  0  0  0
  1  6  1  0
  2  1  2  0
  2  3  1  0
  3  4  2  0
  4  5  1  0
  4  8  1  0
  6  5  2  0
  7 12  2  0
  7  8  1  0
  8  9  2  0
  9 10  1  0
 11 10  2  0
 12 11  1  0
 13 14  2  0
 13  1  1  0
 13 16  1  0
 15 13  2  0
 16 21  1  0
 17 16  2  0
 17 18  1  0
 18 19  2  0
 19 20  1  0
 21 20  2  0
  2 22  1  0
  3 23  1  0
  5 24  1  0
  6 25  1  0
  7 26  1  0
  9 27  1  0
 11 28  1  0
 17 29  1  0
 18 30  1  0
 19 31  1  0
 20 32  1  0
 21 33  1  0
M  ISO  8  22  14  23  14  24  14  25  14  26  14  27  14  28  14  29  14
M  ISO  4  30  14  31  14  32  14  33  14
M  END
>  <minimizedAffinity>  (1) 
-5.44198656

>  <minimizedRMSD>  (1) 
1.35367644

$$$$
