
     RDKit          3D

 32 34  0  0  0  0  0  0  0  0999 V2000
   36.9190   25.8540   31.0510 C   0  0  0  0  0  0  0  0  0  0  0  0
   37.9010   24.9070   31.0280 C   0  0  0  0  0  0  0  0  0  0  0  0
   37.5600   23.5580   31.1510 C   0  0  0  0  0  0  0  0  0  0  0  0
   36.2310   23.1540   31.2980 C   0  0  0  0  0  0  0  0  0  0  0  0
   35.2110   24.1100   31.3240 C   0  0  0  0  0  0  0  0  0  0  0  0
   35.6090   25.4240   31.1980 C   0  0  0  0  0  0  0  0  0  0  0  0
   36.5650   20.7390   30.6170 C   0  0  0  0  0  0  0  0  0  0  0  0
   35.9620   21.7370   31.4160 C   0  0  0  0  0  0  0  0  0  0  0  0
   35.0470   21.3150   32.3800 C   0  0  0  0  0  0  0  0  0  0  0  0
   34.7880   19.9830   32.4980 N   0  0  0  0  0  0  0  0  0  0  0  0
   35.3960   19.0530   31.7010 C   0  0  0  0  0  0  0  0  0  0  0  0
   36.2980   19.4410   30.7470 N   0  0  0  0  0  0  0  0  0  0  0  0
   37.3630   27.5210   30.9070 S   0  0  0  0  0  0  0  0  0  0  0  0
   38.8680   27.6560   30.8740 O   0  0  0  0  0  0  0  0  0  0  0  0
   36.7500   28.1060   29.6800 O   0  0  0  0  0  0  0  0  0  0  0  0
   36.6960   28.3540   32.2940 C   0  0  0  0  0  0  0  0  0  0  0  0
   36.8460   27.8730   33.5940 C   0  0  0  0  0  0  0  0  0  0  0  0
   36.3100   28.5500   34.6770 C   0  0  0  0  0  0  0  0  0  0  0  0
   35.6160   29.7300   34.4100 C   0  0  0  0  0  0  0  0  0  0  0  0
   35.4850   30.1810   33.1010 C   0  0  0  0  0  0  0  0  0  0  0  0
   36.0280   29.4810   32.0900 N   0  0  0  0  0  0  0  0  0  0  0  0
   38.9540   25.2038   30.9134 H   0  0  0  0  0  0  0  0  0  0  0  0
   38.3548   22.7978   31.1317 H   0  0  0  0  0  0  0  0  0  0  0  0
   34.1533   23.8302   31.4383 H   0  0  0  0  0  0  0  0  0  0  0  0
   34.8234   26.1938   31.2155 H   0  0  0  0  0  0  0  0  0  0  0  0
   37.2902   21.0498   29.8505 H   0  0  0  0  0  0  0  0  0  0  0  0
   34.5441   22.0438   33.0326 H   0  0  0  0  0  0  0  0  0  0  0  0
   35.1588   17.9863   31.8272 H   0  0  0  0  0  0  0  0  0  0  0  0
   37.4005   26.9381   33.7628 H   0  0  0  0  0  0  0  0  0  0  0  0
   36.4267   28.1731   35.7038 H   0  0  0  0  0  0  0  0  0  0  0  0
   35.1716   30.3047   35.2360 H   0  0  0  0  0  0  0  0  0  0  0  0
   34.9365   31.1115   32.8927 H   0  0  0  0  0  0  0  0  0  0  0  0
  1  6  1  0
  2  1  2  0
  2  3  1  0
  3  4  2  0
  4  5  1  0
  4  8  1  0
  6  5  2  0
  7 12  2  0
  7  8  1  0
  8  9  2  0
  9 10  1  0
 11 10  2  0
 12 11  1  0
 13  1  1  0
 13 16  1  0
 14 13  2  0
 15 13  2  0
 16 17  2  0
 17 18  1  0
 19 18  2  0
 20 19  1  0
 21 16  1  0
 21 20  2  0
  2 22  1  0
  3 23  1  0
  5 24  1  0
  6 25  1  0
  7 26  1  0
  9 27  1  0
 11 28  1  0
 17 29  1  0
 18 30  1  0
 19 31  1  0
 20 32  1  0
M  ISO  8  22  14  23  14  24  14  25  14  26  14  27  14  28  14  29  14
M  ISO  3  30  14  31  14  32  14
M  END
>  <minimizedAffinity>  (1) 
-5.25333881

>  <minimizedRMSD>  (1) 
1.3139751

$$$$
