
     RDKit          3D

 31 33  0  0  0  0  0  0  0  0999 V2000
   36.9100   26.0530   31.0040 C   0  0  0  0  0  0  0  0  0  0  0  0
   37.8980   25.1070   31.0040 C   0  0  0  0  0  0  0  0  0  0  0  0
   37.5820   23.7540   31.1380 C   0  0  0  0  0  0  0  0  0  0  0  0
   36.2830   23.3320   31.2730 C   0  0  0  0  0  0  0  0  0  0  0  0
   35.2530   24.2920   31.2750 C   0  0  0  0  0  0  0  0  0  0  0  0
   35.6080   25.6040   31.1410 C   0  0  0  0  0  0  0  0  0  0  0  0
   36.6770   20.9180   30.6650 C   0  0  0  0  0  0  0  0  0  0  0  0
   36.0030   21.9120   31.4100 C   0  0  0  0  0  0  0  0  0  0  0  0
   35.0050   21.5180   32.3190 C   0  0  0  0  0  0  0  0  0  0  0  0
   34.7380   20.1860   32.4360 N   0  0  0  0  0  0  0  0  0  0  0  0
   35.3930   19.2610   31.7140 C   0  0  0  0  0  0  0  0  0  0  0  0
   36.3510   19.6260   30.8410 N   0  0  0  0  0  0  0  0  0  0  0  0
   37.3670   27.7240   30.8490 S   0  0  0  0  0  0  0  0  0  0  0  0
   38.8710   27.8550   30.9410 O   0  0  0  0  0  0  0  0  0  0  0  0
   36.8380   28.2670   29.5630 O   0  0  0  0  0  0  0  0  0  0  0  0
   36.6570   28.5880   32.1930 C   0  0  0  0  0  0  0  0  0  0  0  0
   36.0130   29.8080   32.0810 C   0  0  0  0  0  0  0  0  0  0  0  0
   35.5100   30.3460   33.2600 C   0  0  0  0  0  0  0  0  0  0  0  0
   35.6100   29.7730   34.4540 N   0  0  0  0  0  0  0  0  0  0  0  0
   36.2510   28.5730   34.5260 C   0  0  0  0  0  0  0  0  0  0  0  0
   36.7500   28.0260   33.4000 N   0  0  0  0  0  0  0  0  0  0  0  0
   38.9488   25.4146   30.8977 H   0  0  0  0  0  0  0  0  0  0  0  0
   38.3919   23.0096   31.1353 H   0  0  0  0  0  0  0  0  0  0  0  0
   34.1990   23.9956   31.3808 H   0  0  0  0  0  0  0  0  0  0  0  0
   34.8043   26.3551   31.1420 H   0  0  0  0  0  0  0  0  0  0  0  0
   37.4617   21.1993   29.9473 H   0  0  0  0  0  0  0  0  0  0  0  0
   34.4569   22.2611   32.9169 H   0  0  0  0  0  0  0  0  0  0  0  0
   35.1444   18.1966   31.8372 H   0  0  0  0  0  0  0  0  0  0  0  0
   35.9054   30.3223   31.1146 H   0  0  0  0  0  0  0  0  0  0  0  0
   34.9926   31.3148   33.1998 H   0  0  0  0  0  0  0  0  0  0  0  0
   36.3599   28.0570   35.4913 H   0  0  0  0  0  0  0  0  0  0  0  0
  1  6  1  0
  2  1  2  0
  2  3  1  0
  3  4  2  0
  4  5  1  0
  4  8  1  0
  6  5  2  0
  7 12  2  0
  7  8  1  0
  8  9  2  0
  9 10  1  0
 11 10  2  0
 12 11  1  0
 13 14  2  0
 13  1  1  0
 13 16  1  0
 15 13  2  0
 16 21  1  0
 17 16  2  0
 17 18  1  0
 18 19  2  0
 19 20  1  0
 21 20  2  0
  2 22  1  0
  3 23  1  0
  5 24  1  0
  6 25  1  0
  7 26  1  0
  9 27  1  0
 11 28  1  0
 17 29  1  0
 18 30  1  0
 20 31  1  0
M  ISO  8  22  14  23  14  24  14  25  14  26  14  27  14  28  14  29  14
M  ISO  2  30  14  31  14
M  END
>  <minimizedAffinity>  (1) 
-5.0645237

>  <minimizedRMSD>  (1) 
1.40660846

$$$$
