
     RDKit          3D

 26 27  0  0  0  0  0  0  0  0999 V2000
   36.6470   25.7280   32.3260 C   0  0  0  0  0  0  0  0  0  0  0  0
   37.5200   24.8030   32.8830 C   0  0  0  0  0  0  0  0  0  0  0  0
   37.3040   23.4510   32.6380 C   0  0  0  0  0  0  0  0  0  0  0  0
   36.2540   22.9970   31.8620 C   0  0  0  0  0  0  0  0  0  0  0  0
   35.3860   23.9320   31.3100 C   0  0  0  0  0  0  0  0  0  0  0  0
   35.6020   25.2570   31.5530 C   0  0  0  0  0  0  0  0  0  0  0  0
   36.9280   20.8040   30.8130 C   0  0  0  0  0  0  0  0  0  0  0  0
   36.0960   21.5710   31.6540 C   0  0  0  0  0  0  0  0  0  0  0  0
   35.0620   20.9120   32.3170 C   0  0  0  0  0  0  0  0  0  0  0  0
   34.9040   19.5730   32.1280 N   0  0  0  0  0  0  0  0  0  0  0  0
   35.7160   18.8660   31.3180 C   0  0  0  0  0  0  0  0  0  0  0  0
   36.7250   19.4850   30.6650 N   0  0  0  0  0  0  0  0  0  0  0  0
   36.9560   27.4190   32.6600 S   0  0  0  0  0  0  0  0  0  0  0  0
   38.2440   27.8400   32.0280 O   0  0  0  0  0  0  0  0  0  0  0  0
   35.7990   28.2280   32.1740 O   0  0  0  0  0  0  0  0  0  0  0  0
   37.1760   27.5880   34.4250 C   0  0  0  0  0  0  0  0  0  0  0  0
   38.5300   27.5250   34.6860 F   0  0  0  0  0  0  0  0  0  0  0  0
   36.7130   28.8040   34.8780 F   0  0  0  0  0  0  0  0  0  0  0  0
   36.5120   26.5960   35.0790 F   0  0  0  0  0  0  0  0  0  0  0  0
   38.3651   25.1327   33.5052 H   0  0  0  0  0  0  0  0  0  0  0  0
   37.9941   22.7160   33.0779 H   0  0  0  0  0  0  0  0  0  0  0  0
   34.5387   23.6088   30.6874 H   0  0  0  0  0  0  0  0  0  0  0  0
   34.9091   25.9882   31.1112 H   0  0  0  0  0  0  0  0  0  0  0  0
   37.7525   21.2915   30.2721 H   0  0  0  0  0  0  0  0  0  0  0  0
   34.3838   21.4656   32.9830 H   0  0  0  0  0  0  0  0  0  0  0  0
   35.5580   17.7852   31.1880 H   0  0  0  0  0  0  0  0  0  0  0  0
  1 13  1  0
  1  2  2  0
  3  2  1  0
  4  3  2  0
  5  6  2  0
  5  4  1  0
  6  1  1  0
  7  8  2  0
  8  4  1  0
  8  9  1  0
 10  9  2  0
 11 10  1  0
 12  7  1  0
 12 11  2  0
 13 16  1  0
 14 13  2  0
 15 13  2  0
 16 17  1  0
 16 18  1  0
 16 19  1  0
  2 20  1  0
  3 21  1  0
  5 22  1  0
  6 23  1  0
  7 24  1  0
  9 25  1  0
 11 26  1  0
M  ISO  7  20  14  21  14  22  14  23  14  24  14  25  14  26  14
M  END
>  <minimizedAffinity>  (1) 
-4.8410244

>  <minimizedRMSD>  (1) 
1.1277647

$$$$
