
     RDKit          3D

 30 32  0  0  0  0  0  0  0  0999 V2000
   36.4250   25.8780   31.6380 C   0  0  0  0  0  0  0  0  0  0  0  0
   37.3390   25.1330   32.3350 C   0  0  0  0  0  0  0  0  0  0  0  0
   37.1850   23.7520   32.4100 C   0  0  0  0  0  0  0  0  0  0  0  0
   36.1380   23.0970   31.8050 C   0  0  0  0  0  0  0  0  0  0  0  0
   35.1840   23.8430   31.0830 C   0  0  0  0  0  0  0  0  0  0  0  0
   35.3750   25.2000   31.0350 C   0  0  0  0  0  0  0  0  0  0  0  0
   37.1570   20.7950   31.8510 C   0  0  0  0  0  0  0  0  0  0  0  0
   36.0380   21.6540   31.9240 C   0  0  0  0  0  0  0  0  0  0  0  0
   34.7790   21.0810   32.1170 C   0  0  0  0  0  0  0  0  0  0  0  0
   34.7240   19.7140   32.2240 N   0  0  0  0  0  0  0  0  0  0  0  0
   35.8100   18.9220   32.1510 C   0  0  0  0  0  0  0  0  0  0  0  0
   37.0270   19.4640   31.9640 N   0  0  0  0  0  0  0  0  0  0  0  0
   36.6500   27.6040   31.5640 S   0  0  0  0  0  0  0  0  0  0  0  0
   37.9990   27.9530   32.1520 O   0  0  0  0  0  0  0  0  0  0  0  0
   36.5560   28.0530   30.1460 O   0  0  0  0  0  0  0  0  0  0  0  0
   35.4520   28.4790   32.5300 C   0  0  0  0  0  0  0  0  0  0  0  0
   35.8140   29.8710   32.9370 C   0  0  0  0  0  0  0  0  0  0  0  0
   35.8050   28.8060   33.9500 C   0  0  0  0  0  0  0  0  0  0  0  0
   38.1891   25.6231   32.8321 H   0  0  0  0  0  0  0  0  0  0  0  0
   37.9257   23.1644   32.9722 H   0  0  0  0  0  0  0  0  0  0  0  0
   34.3304   23.3612   30.5839 H   0  0  0  0  0  0  0  0  0  0  0  0
   34.6396   25.7969   30.4757 H   0  0  0  0  0  0  0  0  0  0  0  0
   38.1572   21.2266   31.6981 H   0  0  0  0  0  0  0  0  0  0  0  0
   33.8710   21.6986   32.1805 H   0  0  0  0  0  0  0  0  0  0  0  0
   35.7023   17.8313   32.2443 H   0  0  0  0  0  0  0  0  0  0  0  0
   34.5989   27.9949   32.0321 H   0  0  0  0  0  0  0  0  0  0  0  0
   36.7691   30.3069   32.6088 H   0  0  0  0  0  0  0  0  0  0  0  0
   35.3299   30.8544   32.8444 H   0  0  0  0  0  0  0  0  0  0  0  0
   35.0256   28.7934   34.7261 H   0  0  0  0  0  0  0  0  0  0  0  0
   36.5362   28.4201   34.6756 H   0  0  0  0  0  0  0  0  0  0  0  0
  1  2  2  0
  2  3  1  0
  4  8  1  0
  4  3  2  0
  5  4  1  0
  6  5  2  0
  6  1  1  0
  7  8  2  0
  7 12  1  0
  8  9  1  0
  9 10  2  0
 11 10  1  0
 12 11  2  0
 13  1  1  0
 13 14  2  0
 13 16  1  0
 15 13  2  0
 16 17  1  0
 16 18  1  0
 17 18  1  0
  2 19  1  0
  3 20  1  0
  5 21  1  0
  6 22  1  0
  7 23  1  0
  9 24  1  0
 11 25  1  0
 16 26  1  0
 17 27  1  0
 17 28  1  0
 18 29  1  0
 18 30  1  0
M  ISO  8  19  14  20  14  21  14  22  14  23  14  24  14  25  14  26  13
M  ISO  4  27  13  28  13  29  13  30  13
M  END
>  <minimizedAffinity>  (1) 
-4.46894121

>  <minimizedRMSD>  (1) 
0.697494507

$$$$
