
     RDKit          3D

 29 30  0  0  0  0  0  0  0  0999 V2000
   36.5480   25.7160   32.0690 C   0  0  0  0  0  0  0  0  0  0  0  0
   37.4110   24.8620   32.7360 C   0  0  0  0  0  0  0  0  0  0  0  0
   37.2330   23.4860   32.6130 C   0  0  0  0  0  0  0  0  0  0  0  0
   36.2090   22.9460   31.8360 C   0  0  0  0  0  0  0  0  0  0  0  0
   35.3480   23.8110   31.1700 C   0  0  0  0  0  0  0  0  0  0  0  0
   35.5520   25.1610   31.3140 C   0  0  0  0  0  0  0  0  0  0  0  0
   37.1220   20.6350   31.3780 C   0  0  0  0  0  0  0  0  0  0  0  0
   36.1090   21.5050   31.7750 C   0  0  0  0  0  0  0  0  0  0  0  0
   34.8690   20.9350   32.1530 C   0  0  0  0  0  0  0  0  0  0  0  0
   34.7580   19.5730   32.1020 N   0  0  0  0  0  0  0  0  0  0  0  0
   35.7760   18.7700   31.7070 C   0  0  0  0  0  0  0  0  0  0  0  0
   36.9750   19.3110   31.3400 N   0  0  0  0  0  0  0  0  0  0  0  0
   36.8130   27.4360   32.2550 S   0  0  0  0  0  0  0  0  0  0  0  0
   38.1860   27.8010   31.7770 O   0  0  0  0  0  0  0  0  0  0  0  0
   35.7500   28.1830   31.5260 O   0  0  0  0  0  0  0  0  0  0  0  0
   36.7760   27.7640   34.0030 C   0  0  0  0  0  0  0  0  0  0  0  0
   35.8850   28.9470   34.3210 C   0  0  0  0  0  0  0  0  0  0  0  0
   38.2262   25.2653   33.3547 H   0  0  0  0  0  0  0  0  0  0  0  0
   37.9181   22.8077   33.1427 H   0  0  0  0  0  0  0  0  0  0  0  0
   34.5280   23.4253   30.5464 H   0  0  0  0  0  0  0  0  0  0  0  0
   34.8681   25.8422   30.7865 H   0  0  0  0  0  0  0  0  0  0  0  0
   38.0913   21.0621   31.0812 H   0  0  0  0  0  0  0  0  0  0  0  0
   34.0265   21.5644   32.4756 H   0  0  0  0  0  0  0  0  0  0  0  0
   35.6360   17.6792   31.6820 H   0  0  0  0  0  0  0  0  0  0  0  0
   36.3929   26.8756   34.5265 H   0  0  0  0  0  0  0  0  0  0  0  0
   37.7981   27.9995   34.3343 H   0  0  0  0  0  0  0  0  0  0  0  0
   35.8003   29.0594   35.4120 H   0  0  0  0  0  0  0  0  0  0  0  0
   36.3213   29.8607   33.8910 H   0  0  0  0  0  0  0  0  0  0  0  0
   34.8864   28.7800   33.8910 H   0  0  0  0  0  0  0  0  0  0  0  0
  1 13  1  0
  1  2  2  0
  3  2  1  0
  4  3  2  0
  5  6  2  0
  5  4  1  0
  6  1  1  0
  7  8  2  0
  8  4  1  0
  8  9  1  0
 10  9  2  0
 11 10  1  0
 12  7  1  0
 12 11  2  0
 13 16  1  0
 14 13  2  0
 15 13  2  0
 16 17  1  0
  2 18  1  0
  3 19  1  0
  5 20  1  0
  6 21  1  0
  7 22  1  0
  9 23  1  0
 11 24  1  0
 16 25  1  0
 16 26  1  0
 17 27  1  0
 17 28  1  0
 17 29  1  0
M  ISO  8  18  14  19  14  20  14  21  14  22  14  23  14  24  14  25   8
M  ISO  4  26   8  27   8  28   8  29   8
M  END
>  <minimizedAffinity>  (1) 
-4.36894131

>  <minimizedRMSD>  (1) 
0.5341627

$$$$
