
     RDKit          3D

 32 33  0  0  1  0  0  0  0  0999 V2000
   46.1470   33.6900   45.3190 C   0  0  2  0  0  0  0  0  0  0  0  0
   44.9820   34.7390   45.4700 C   0  0  0  0  0  0  0  0  0  0  0  0
   44.7260   35.6180   44.3580 C   0  0  0  0  0  0  0  0  0  0  0  0
   45.5260   35.5190   43.1450 C   0  0  1  0  0  0  0  0  0  0  0  0
   46.6430   34.5600   43.1660 C   0  0  0  0  0  0  0  0  0  0  0  0
   46.1620   33.3280   43.9250 C   0  0  0  0  0  0  0  0  0  0  0  0
   45.1730   32.9110   47.4730 C   0  0  0  0  0  0  0  0  0  0  0  0
   45.9540   32.7200   46.3480 C   0  0  0  0  0  0  0  0  0  0  0  0
   46.5210   31.4440   46.1930 C   0  0  0  0  0  0  0  0  0  0  0  0
   46.2820   30.4920   47.1140 N   0  0  0  0  0  0  0  0  0  0  0  0
   45.5070   30.7160   48.2010 C   0  0  0  0  0  0  0  0  0  0  0  0
   44.9550   31.9090   48.3880 N   0  0  0  0  0  0  0  0  0  0  0  0
   45.3060   29.6490   49.1410 N   0  0  0  0  0  0  0  0  0  0  0  0
   47.4570   30.9440   45.1540 C   0  0  0  0  0  0  0  0  0  0  0  0
   44.5590   35.1730   41.9840 C   0  0  0  0  0  0  0  0  0  0  0  0
   43.5750   34.2910   42.3520 F   0  0  0  0  0  0  0  0  0  0  0  0
   43.9240   36.3620   41.6360 F   0  0  0  0  0  0  0  0  0  0  0  0
   45.2900   34.7600   40.8780 F   0  0  0  0  0  0  0  0  0  0  0  0
   47.1844   34.0079   45.5002 H   0  0  0  0  0  0  0  0  0  0  0  0
   44.3850   34.7983   46.3920 H   0  0  0  0  0  0  0  0  0  0  0  0
   43.9232   36.3670   44.4252 H   0  0  0  0  0  0  0  0  0  0  0  0
   46.0258   36.4917   43.0267 H   0  0  0  0  0  0  0  0  0  0  0  0
   46.9233   34.2846   42.1386 H   0  0  0  0  0  0  0  0  0  0  0  0
   47.5268   34.9990   43.6520 H   0  0  0  0  0  0  0  0  0  0  0  0
   45.1512   33.0476   43.5938 H   0  0  0  0  0  0  0  0  0  0  0  0
   46.8202   32.4655   43.7438 H   0  0  0  0  0  0  0  0  0  0  0  0
   44.7119   33.8955   47.6408 H   0  0  0  0  0  0  0  0  0  0  0  0
   44.7196   29.8003   49.9741 H   0  0  0  0  0  0  0  0  0  0  0  0
   45.7483   28.7325   48.9820 H   0  0  0  0  0  0  0  0  0  0  0  0
   48.3281   30.4787   45.6385 H   0  0  0  0  0  0  0  0  0  0  0  0
   46.9449   30.1993   44.5270 H   0  0  0  0  0  0  0  0  0  0  0  0
   47.7913   31.7837   44.5270 H   0  0  0  0  0  0  0  0  0  0  0  0
  1  2  1  0
  1  8  1  0
  3  2  2  0
  4  5  1  0
  4  3  1  0
  5  6  1  0
  6  1  1  0
  7 12  2  0
  8  7  1  0
  9  8  2  0
  9 10  1  0
 10 11  2  0
 11 12  1  0
 11 13  1  0
 14  9  1  0
 15 16  1  0
 15  4  1  0
 17 15  1  0
 18 15  1  0
  1 19  1  1
  2 20  1  0
  3 21  1  0
  4 22  1  6
  5 23  1  0
  5 24  1  0
  6 25  1  0
  6 26  1  0
  7 27  1  0
 13 28  1  0
 13 29  1  0
 14 30  1  0
 14 31  1  0
 14 32  1  0
M  ISO  8  19  13  20  13  21  13  22  13  23  13  24  13  25  13  26  13
M  ISO  4  27  14  30   8  31   8  32   8
M  END
>  <minimizedAffinity>  (1) 
-5.6839118

>  <minimizedRMSD>  (1) 
0.125691086

$$$$
