
     RDKit          3D

 20 21  0  0  0  0  0  0  0  0999 V2000
   44.4610   36.0180   44.4700 C   0  0  0  0  0  0  0  0  0  0  0  0
   45.1510   35.8450   43.2350 C   0  0  0  0  0  0  0  0  0  0  0  0
   46.0710   34.7700   43.1270 C   0  0  0  0  0  0  0  0  0  0  0  0
   46.2450   33.9590   44.2160 N   0  0  0  0  0  0  0  0  0  0  0  0
   45.5660   34.1670   45.3630 C   0  0  0  0  0  0  0  0  0  0  0  0
   44.6860   35.1820   45.4930 N   0  0  0  0  0  0  0  0  0  0  0  0
   45.8200   33.2560   46.4560 C   0  0  0  0  0  0  0  0  0  0  0  0
   45.1150   33.0700   47.6290 C   0  0  0  0  0  0  0  0  0  0  0  0
   45.5490   32.1400   48.5230 C   0  0  0  0  0  0  0  0  0  0  0  0
   46.7030   31.4340   48.1660 C   0  0  0  0  0  0  0  0  0  0  0  0
   47.1560   32.0980   46.5710 S   0  0  0  0  0  0  0  0  0  0  0  0
   47.3990   30.3770   48.9280 C   0  0  0  0  0  0  0  0  0  0  0  0
   43.7406   36.8414   44.5840 H   0  0  0  0  0  0  0  0  0  0  0  0
   44.9753   36.5258   42.3891 H   0  0  0  0  0  0  0  0  0  0  0  0
   46.6282   34.5935   42.1952 H   0  0  0  0  0  0  0  0  0  0  0  0
   44.2143   33.6658   47.8380 H   0  0  0  0  0  0  0  0  0  0  0  0
   45.0231   31.9542   49.4711 H   0  0  0  0  0  0  0  0  0  0  0  0
   47.2776   30.5614   50.0056 H   0  0  0  0  0  0  0  0  0  0  0  0
   46.9687   29.3973   48.6729 H   0  0  0  0  0  0  0  0  0  0  0  0
   48.4690   30.3852   48.6729 H   0  0  0  0  0  0  0  0  0  0  0  0
  1  6  2  0
  2  1  1  0
  3  2  2  0
  3  4  1  0
  4  5  2  0
  5  6  1  0
  5  7  1  0
  7 11  1  0
  7  8  2  0
  8  9  1  0
 10  9  2  0
 10 12  1  0
 11 10  1  0
  1 13  1  0
  2 14  1  0
  3 15  1  0
  8 16  1  0
  9 17  1  0
 12 18  1  0
 12 19  1  0
 12 20  1  0
M  ISO  8  13  14  14  14  15  14  16  14  17  14  18   8  19   8  20   8
M  END
>  <minimizedAffinity>  (1) 
-4.09998703

>  <minimizedRMSD>  (1) 
0.388335258

$$$$
