
     RDKit          3D

 47 49  0  0  1  0  0  0  0  0999 V2000
   46.6170   33.5760   42.5770 C   0  0  0  0  0  0  0  0  0  0  0  0
   43.0710   33.0520   41.7670 C   0  0  0  0  0  0  0  0  0  0  0  0
   42.9320   31.7690   42.1670 C   0  0  0  0  0  0  0  0  0  0  0  0
   44.5690   31.3520   42.7710 S   0  0  0  0  0  0  0  0  0  0  0  0
   45.2250   33.0790   42.3640 C   0  0  0  0  0  0  0  0  0  0  0  0
   44.2490   33.5160   41.9400 N   0  0  0  0  0  0  0  0  0  0  0  0
   40.9790   35.6610   39.9630 C   0  0  0  0  0  0  0  0  0  0  0  0
   42.0870   34.9970   40.4870 C   0  0  0  0  0  0  0  0  0  0  0  0
   41.9330   33.7900   41.1950 C   0  0  0  0  0  0  0  0  0  0  0  0
   40.6630   33.3790   41.2970 N   0  0  0  0  0  0  0  0  0  0  0  0
   39.5860   33.9850   40.8110 C   0  0  0  0  0  0  0  0  0  0  0  0
   39.7630   35.1160   40.1520 N   0  0  0  0  0  0  0  0  0  0  0  0
   46.9660   33.2650   44.0170 C   0  0  0  0  0  0  0  0  0  0  0  0
   46.6150   35.0490   42.3620 C   0  0  0  0  0  0  0  0  0  0  0  0
   47.5410   32.8850   41.6400 C   0  0  1  0  0  0  0  0  0  0  0  0
   47.2450   33.0280   40.2250 N   0  0  0  0  0  0  0  0  0  0  0  0
   46.4780   32.0950   39.5750 C   0  0  0  0  0  0  0  0  0  0  0  0
   46.1340   32.1050   38.2570 C   0  0  0  0  0  0  0  0  0  0  0  0
   46.5860   33.1460   37.4620 C   0  0  0  0  0  0  0  0  0  0  0  0
   46.3070   33.2210   36.2410 O   0  0  0  0  0  0  0  0  0  0  0  0
   47.3380   34.0690   38.0750 N   0  0  0  0  0  0  0  0  0  0  0  0
   47.6320   33.9850   39.3770 C   0  0  0  0  0  0  0  0  0  0  0  0
   48.3340   34.9130   39.7740 O   0  0  0  0  0  0  0  0  0  0  0  0
   48.8950   33.0630   41.9930 N   0  0  0  0  0  0  0  0  0  0  0  0
   50.0660   33.7550   42.3870 C   0  0  0  0  0  0  0  0  0  0  0  0
   51.2830   33.9170   42.6190 O   0  0  0  0  0  0  0  0  0  0  0  0
   49.7650   35.1150   42.7800 N   0  0  0  0  0  0  0  0  0  0  0  0
   49.7970   31.8790   41.8860 C   0  0  0  0  0  0  0  0  0  0  0  0
   48.9070   30.8230   41.6120 F   0  0  0  0  0  0  0  0  0  0  0  0
   50.4980   31.6490   42.9430 F   0  0  0  0  0  0  0  0  0  0  0  0
   50.5420   32.0250   40.7010 F   0  0  0  0  0  0  0  0  0  0  0  0
   42.0340   31.1347   42.1311 H   0  0  0  0  0  0  0  0  0  0  0  0
   41.0953   36.6048   39.4100 H   0  0  0  0  0  0  0  0  0  0  0  0
   43.0923   35.4206   40.3458 H   0  0  0  0  0  0  0  0  0  0  0  0
   38.5813   33.5599   40.9523 H   0  0  0  0  0  0  0  0  0  0  0  0
   46.3141   33.8459   44.6860 H   0  0  0  0  0  0  0  0  0  0  0  0
   46.8212   32.1910   44.2056 H   0  0  0  0  0  0  0  0  0  0  0  0
   48.0163   33.5321   44.2056 H   0  0  0  0  0  0  0  0  0  0  0  0
   46.6143   35.5616   43.3353 H   0  0  0  0  0  0  0  0  0  0  0  0
   47.5128   35.3381   41.7959 H   0  0  0  0  0  0  0  0  0  0  0  0
   45.7165   35.3357   41.7959 H   0  0  0  0  0  0  0  0  0  0  0  0
   47.3322   31.8148   41.7850 H   0  0  0  0  0  0  0  0  0  0  0  0
   46.1033   31.2549   40.1782 H   0  0  0  0  0  0  0  0  0  0  0  0
   45.5108   31.3039   37.8329 H   0  0  0  0  0  0  0  0  0  0  0  0
   47.6994   34.8644   37.5295 H   0  0  0  0  0  0  0  0  0  0  0  0
   50.5216   35.7404   43.0919 H   0  0  0  0  0  0  0  0  0  0  0  0
   48.7941   35.4575   42.7478 H   0  0  0  0  0  0  0  0  0  0  0  0
  1 13  1  0
  2  6  1  0
  2  3  2  0
  3  4  1  0
  5  1  1  0
  5  4  1  0
  6  5  2  0
  7 12  2  0
  7  8  1  0
  8  9  2  0
  9 10  1  0
  9  2  1  0
 11 10  2  0
 12 11  1  0
 14  1  1  0
 15 24  1  0
 15  1  1  0
 16 15  1  0
 17 16  1  0
 18 17  2  0
 19 21  1  0
 19 18  1  0
 20 19  2  0
 21 22  1  0
 22 23  2  0
 22 16  1  0
 24 25  1  0
 25 26  2  0
 25 27  1  0
 28 24  1  0
 28 30  1  0
 29 28  1  0
 31 28  1  0
  3 32  1  0
  7 33  1  0
  8 34  1  0
 11 35  1  0
 13 36  1  0
 13 37  1  0
 13 38  1  0
 14 39  1  0
 14 40  1  0
 14 41  1  0
 15 42  1  1
 17 43  1  0
 18 44  1  0
 21 45  1  0
 27 46  1  0
 27 47  1  0
M  ISO  8  32  14  33  14  34  14  35  14  36   8  37   8  38   8  39   8
M  ISO  6  40   8  41   8  42   8  43  14  44  14  45   9
M  END
>  <minimizedAffinity>  (1) 
-5.92858028

>  <minimizedRMSD>  (1) 
5.77449274

$$$$
