
     RDKit          3D

 23 24  0  0  0  0  0  0  0  0999 V2000
   48.2540   34.0640   41.1700 C   0  0  0  0  0  0  0  0  0  0  0  0
   48.9150   32.9070   40.6910 C   0  0  0  0  0  0  0  0  0  0  0  0
   48.2400   32.0800   39.7930 C   0  0  0  0  0  0  0  0  0  0  0  0
   46.9740   32.4300   39.4210 N   0  0  0  0  0  0  0  0  0  0  0  0
   46.3910   33.5390   39.9050 C   0  0  0  0  0  0  0  0  0  0  0  0
   47.0030   34.3460   40.7590 N   0  0  0  0  0  0  0  0  0  0  0  0
   49.0920   34.8450   42.1160 C   0  0  0  0  0  0  0  0  0  0  0  0
   49.2730   36.2660   41.6020 C   0  0  0  0  0  0  0  0  0  0  0  0
   48.9870   30.6190   39.1450 S   0  0  0  0  0  0  0  0  0  0  0  0
   50.7420   30.9270   39.0040 C   0  0  0  0  0  0  0  0  0  0  0  0
   51.6340   30.4690   40.0630 C   0  0  0  0  0  0  0  0  0  0  0  0
   53.3110   31.0320   39.4310 S   0  0  0  0  0  0  0  0  0  0  0  0
   52.4830   31.7640   37.8840 C   0  0  0  0  0  0  0  0  0  0  0  0
   51.3400   31.5510   37.9990 N   0  0  0  0  0  0  0  0  0  0  0  0
   49.9368   32.6660   41.0193 H   0  0  0  0  0  0  0  0  0  0  0  0
   45.3693   33.7859   39.5808 H   0  0  0  0  0  0  0  0  0  0  0  0
   48.6004   34.8735   43.0996 H   0  0  0  0  0  0  0  0  0  0  0  0
   50.0780   34.3654   42.2047 H   0  0  0  0  0  0  0  0  0  0  0  0
   49.3609   36.9558   42.4543 H   0  0  0  0  0  0  0  0  0  0  0  0
   50.1854   36.3211   40.9901 H   0  0  0  0  0  0  0  0  0  0  0  0
   48.4035   36.5481   40.9901 H   0  0  0  0  0  0  0  0  0  0  0  0
   51.3884   29.9327   40.9915 H   0  0  0  0  0  0  0  0  0  0  0  0
   52.9791   32.2825   37.0503 H   0  0  0  0  0  0  0  0  0  0  0  0
  1  7  1  0
  2  1  2  0
  3  2  1  0
  4  3  2  0
  4  5  1  0
  5  6  2  0
  6  1  1  0
  8  7  1  0
  9  3  1  0
 10  9  1  0
 10 11  2  0
 12 11  1  0
 13 14  2  0
 13 12  1  0
 14 10  1  0
  2 15  1  0
  5 16  1  0
  7 17  1  0
  7 18  1  0
  8 19  1  0
  8 20  1  0
  8 21  1  0
 11 22  1  0
 13 23  1  0
M  ISO  8  15  14  16  14  17   8  18   8  19   8  20   8  21   8  22  14
M  ISO  1  23  14
M  END
>  <minimizedAffinity>  (1) 
-3.1080749

>  <minimizedRMSD>  (1) 
8.00889492

$$$$
