
     RDKit          3D

 44 48  0  0  1  0  0  0  0  0999 V2000
   46.3870   32.6600   46.9500 C   0  0  0  0  0  0  0  0  0  0  0  0
   45.5540   32.4980   48.0430 C   0  0  0  0  0  0  0  0  0  0  0  0
   46.2700   31.7100   48.9190 C   0  0  0  0  0  0  0  0  0  0  0  0
   47.4940   31.4300   48.3290 C   0  0  0  0  0  0  0  0  0  0  0  0
   47.4870   32.0220   47.1760 O   0  0  0  0  0  0  0  0  0  0  0  0
   46.6780   34.0190   43.6690 C   0  0  0  0  0  0  0  0  0  0  0  0
   45.5450   34.6720   44.1500 C   0  0  0  0  0  0  0  0  0  0  0  0
   45.2950   34.2370   45.4550 C   0  0  0  0  0  0  0  0  0  0  0  0
   46.2790   33.3390   45.7210 N   0  0  0  0  0  0  0  0  0  0  0  0
   47.0970   33.1980   44.6880 N   0  0  0  0  0  0  0  0  0  0  0  0
   48.6670   35.3570   40.8980 C   0  0  0  0  0  0  0  0  0  0  0  0
   48.1000   34.7140   39.8030 C   0  0  0  0  0  0  0  0  0  0  0  0
   47.0340   33.8220   40.0250 C   0  0  0  0  0  0  0  0  0  0  0  0
   46.5930   33.6170   41.3080 N   0  0  0  0  0  0  0  0  0  0  0  0
   47.1870   34.2720   42.3220 C   0  0  0  0  0  0  0  0  0  0  0  0
   48.2070   35.1330   42.1510 N   0  0  0  0  0  0  0  0  0  0  0  0
   48.5140   30.6300   48.9480 N   0  0  0  0  0  0  0  0  0  0  0  0
   49.3380   30.8570   50.0110 C   0  0  0  0  0  0  0  0  0  0  0  0
   50.1190   29.7190   50.1550 C   0  0  0  0  0  0  0  0  0  0  0  0
   49.7400   28.8530   49.1810 N   0  0  0  0  0  0  0  0  0  0  0  0
   48.7620   29.4190   48.4520 C   0  0  0  0  0  0  0  0  0  0  0  0
   48.1420   28.6920   47.2840 C   0  0  1  0  0  0  0  0  0  0  0  0
   47.7810   27.2080   47.5370 C   0  0  0  0  0  0  0  0  0  0  0  0
   46.7280   28.2760   47.3800 C   0  0  2  0  0  0  0  0  0  0  0  0
   45.8370   28.1780   46.1810 C   0  0  0  0  0  0  0  0  0  0  0  0
   44.6020   29.0720   46.3160 C   0  0  0  0  0  0  0  0  0  0  0  0
   44.5428   32.9079   48.1824 H   0  0  0  0  0  0  0  0  0  0  0  0
   45.9318   31.3655   49.9074 H   0  0  0  0  0  0  0  0  0  0  0  0
   44.9459   35.4085   43.5945 H   0  0  0  0  0  0  0  0  0  0  0  0
   44.4790   34.5532   46.1214 H   0  0  0  0  0  0  0  0  0  0  0  0
   49.5010   36.0574   40.7436 H   0  0  0  0  0  0  0  0  0  0  0  0
   48.4762   34.8984   38.7859 H   0  0  0  0  0  0  0  0  0  0  0  0
   46.5613   33.2968   39.1820 H   0  0  0  0  0  0  0  0  0  0  0  0
   49.3760   31.7640   50.6322 H   0  0  0  0  0  0  0  0  0  0  0  0
   50.8972   29.5508   50.9141 H   0  0  0  0  0  0  0  0  0  0  0  0
   48.7218   29.2560   46.5385 H   0  0  0  0  0  0  0  0  0  0  0  0
   47.9328   26.4565   46.7481 H   0  0  0  0  0  0  0  0  0  0  0  0
   48.0327   26.4512   48.2946 H   0  0  0  0  0  0  0  0  0  0  0  0
   45.8920   28.6639   47.9806 H   0  0  0  0  0  0  0  0  0  0  0  0
   45.5100   27.1342   46.0648 H   0  0  0  0  0  0  0  0  0  0  0  0
   46.4077   28.5137   45.3026 H   0  0  0  0  0  0  0  0  0  0  0  0
   44.3802   29.2325   47.3814 H   0  0  0  0  0  0  0  0  0  0  0  0
   44.7957   30.0405   45.8318 H   0  0  0  0  0  0  0  0  0  0  0  0
   43.7424   28.5855   45.8318 H   0  0  0  0  0  0  0  0  0  0  0  0
  1  5  1  0
  1  2  2  0
  2  3  1  0
  4  3  2  0
  4 17  1  0
  5  4  1  0
  6  7  1  0
  6 10  2  0
  7  8  2  0
  8  9  1  0
  9  1  1  0
 10  9  1  0
 11 16  2  0
 12 13  2  0
 12 11  1  0
 13 14  1  0
 14 15  2  0
 15  6  1  0
 16 15  1  0
 17 18  1  0
 18 19  2  0
 20 19  1  0
 21 17  1  0
 21 20  2  0
 22 24  1  0
 22 23  1  0
 22 21  1  0
 24 23  1  0
 25 26  1  0
 25 24  1  0
  2 27  1  0
  3 28  1  0
  7 29  1  0
  8 30  1  0
 11 31  1  0
 12 32  1  0
 13 33  1  0
 18 34  1  0
 19 35  1  0
 22 36  1  6
 23 37  1  0
 23 38  1  0
 24 39  1  1
 25 40  1  0
 25 41  1  0
 26 42  1  0
 26 43  1  0
 26 44  1  0
M  ISO  8  27  14  28  14  29  14  30  14  31  14  32  14  33  14  34  14
M  ISO  8  35  14  36  13  37  13  38  13  39  13  40   8  41   8  42   8
M  ISO  2  43   8  44   8
M  END
>  <minimizedAffinity>  (1) 
-5.86984253

>  <minimizedRMSD>  (1) 
0.178045496

$$$$
