
     RDKit          3D

 52 54  0  0  1  0  0  0  0  0999 V2000
   50.2980   31.9760   41.2720 C   0  0  1  0  0  0  0  0  0  0  0  0
   51.6430   31.6820   40.8250 C   0  0  0  0  0  0  0  0  0  0  0  0
   51.3480   31.4200   42.2590 C   0  0  2  0  0  0  0  0  0  0  0  0
   51.1120   30.0040   42.7150 C   0  0  1  0  0  0  0  0  0  0  0  0
   49.8090   29.4230   42.2430 C   0  0  0  0  0  0  0  0  0  0  0  0
   52.2250   29.1180   42.2410 C   0  0  0  0  0  0  0  0  0  0  0  0
   53.5090   29.3730   42.7960 N   0  0  0  0  0  0  0  0  0  0  0  0
   53.6170   29.4580   44.1560 C   0  0  0  0  0  0  0  0  0  0  0  0
   54.7690   29.6850   44.8800 C   0  0  0  0  0  0  0  0  0  0  0  0
   55.9310   29.8440   44.1550 C   0  0  0  0  0  0  0  0  0  0  0  0
   57.1220   30.0790   44.8970 N   0  0  0  0  0  0  0  0  0  0  0  0
   55.8510   29.7650   42.8150 N   0  0  0  0  0  0  0  0  0  0  0  0
   54.6900   29.5410   42.1780 C   0  0  0  0  0  0  0  0  0  0  0  0
   54.6790   29.4800   40.9220 O   0  0  0  0  0  0  0  0  0  0  0  0
   49.8880   33.2470   41.5780 O   0  0  0  0  0  0  0  0  0  0  0  0
   48.4700   33.1180   41.6040 C   0  0  0  0  0  0  0  0  0  0  0  0
   47.9510   34.4220   41.1830 C   0  0  0  0  0  0  0  0  0  0  0  0
   44.1820   34.8070   41.3370 C   0  0  0  0  0  0  0  0  0  0  0  0
   45.4290   34.4210   40.8300 C   0  0  0  0  0  0  0  0  0  0  0  0
   46.5820   34.7490   41.5570 C   0  0  0  0  0  0  0  0  0  0  0  0
   46.4280   35.4290   42.7230 N   0  0  0  0  0  0  0  0  0  0  0  0
   45.1920   35.7860   43.1800 C   0  0  0  0  0  0  0  0  0  0  0  0
   44.0960   35.4830   42.5070 N   0  0  0  0  0  0  0  0  0  0  0  0
   43.0240   34.4310   40.5340 C   0  0  0  0  0  0  0  0  0  0  0  0
   42.4680   35.0780   39.6650 O   0  0  0  0  0  0  0  0  0  0  0  0
   48.8510   35.5890   41.4870 C   0  0  0  0  0  0  0  0  0  0  0  0
   48.0020   34.3410   39.6310 C   0  0  0  0  0  0  0  0  0  0  0  0
   49.3165   31.7028   40.8572 H   0  0  0  0  0  0  0  0  0  0  0  0
   51.8129   30.8343   40.1449 H   0  0  0  0  0  0  0  0  0  0  0  0
   52.4137   32.2711   40.3064 H   0  0  0  0  0  0  0  0  0  0  0  0
   51.8148   31.7155   43.2102 H   0  0  0  0  0  0  0  0  0  0  0  0
   51.0745   30.0480   43.8135 H   0  0  0  0  0  0  0  0  0  0  0  0
   49.1936   29.1486   43.1124 H   0  0  0  0  0  0  0  0  0  0  0  0
   49.2741   30.1679   41.6355 H   0  0  0  0  0  0  0  0  0  0  0  0
   50.0056   28.5273   41.6355 H   0  0  0  0  0  0  0  0  0  0  0  0
   51.9544   28.0798   42.4839 H   0  0  0  0  0  0  0  0  0  0  0  0
   52.3240   29.3196   41.1642 H   0  0  0  0  0  0  0  0  0  0  0  0
   52.6889   29.3323   44.7330 H   0  0  0  0  0  0  0  0  0  0  0  0
   54.7610   29.7365   45.9788 H   0  0  0  0  0  0  0  0  0  0  0  0
   58.0185   30.2050   44.4057 H   0  0  0  0  0  0  0  0  0  0  0  0
   57.0878   30.1232   45.9255 H   0  0  0  0  0  0  0  0  0  0  0  0
   48.1427   32.3311   40.9085 H   0  0  0  0  0  0  0  0  0  0  0  0
   48.1039   32.8358   42.6022 H   0  0  0  0  0  0  0  0  0  0  0  0
   45.5024   33.8713   39.8800 H   0  0  0  0  0  0  0  0  0  0  0  0
   45.1068   36.3373   44.1281 H   0  0  0  0  0  0  0  0  0  0  0  0
   42.5991   33.4373   40.7393 H   0  0  0  0  0  0  0  0  0  0  0  0
   48.9423   35.7075   42.5768 H   0  0  0  0  0  0  0  0  0  0  0  0
   49.8455   35.4078   41.0532 H   0  0  0  0  0  0  0  0  0  0  0  0
   48.4231   36.5048   41.0532 H   0  0  0  0  0  0  0  0  0  0  0  0
   48.5656   33.4459   39.3289 H   0  0  0  0  0  0  0  0  0  0  0  0
   46.9782   34.2813   39.2331 H   0  0  0  0  0  0  0  0  0  0  0  0
   48.4983   35.2384   39.2331 H   0  0  0  0  0  0  0  0  0  0  0  0
  1 15  1  0
  1  3  1  0
  2  1  1  0
  2  3  1  0
  3  4  1  0
  5  4  1  0
  6  4  1  0
  6  7  1  0
  7  8  1  0
  8  9  2  0
 10  9  1  0
 10 11  1  0
 12 10  2  0
 13  7  1  0
 13 12  1  0
 14 13  2  0
 15 16  1  0
 17 26  1  0
 17 20  1  0
 17 16  1  0
 18 23  2  0
 19 18  1  0
 19 20  2  0
 20 21  1  0
 21 22  2  0
 23 22  1  0
 24 18  1  0
 25 24  2  0
 27 17  1  0
  1 28  1  6
  2 29  1  0
  2 30  1  0
  3 31  1  1
  4 32  1  1
  5 33  1  0
  5 34  1  0
  5 35  1  0
  6 36  1  0
  6 37  1  0
  8 38  1  0
  9 39  1  0
 11 40  1  0
 11 41  1  0
 16 42  1  0
 16 43  1  0
 19 44  1  0
 22 45  1  0
 24 46  1  0
 26 47  1  0
 26 48  1  0
 26 49  1  0
 27 50  1  0
 27 51  1  0
 27 52  1  0
M  ISO  8  28  13  29  13  30  13  31  13  32   8  33   8  34   8  35   8
M  ISO  8  36   8  37   8  38  14  39  14  42   8  43   8  44  14  45  14
M  ISO  7  46   6  47   8  48   8  49   8  50   8  51   8  52   8
M  END
>  <minimizedAffinity>  (1) 
-4.5287056

>  <minimizedRMSD>  (1) 
3.33716774

$$$$
