
     RDKit          3D

 48 52  0  0  1  0  0  0  0  0999 V2000
   46.8910   34.5340   41.2630 C   0  0  0  0  0  0  0  0  0  0  0  0
   48.1720   34.9450   40.8830 C   0  0  0  0  0  0  0  0  0  0  0  0
   48.4290   34.6070   39.6450 N   0  0  0  0  0  0  0  0  0  0  0  0
   47.3400   33.9700   39.1780 C   0  0  0  0  0  0  0  0  0  0  0  0
   47.1070   33.4170   37.9130 C   0  0  0  0  0  0  0  0  0  0  0  0
   45.8940   32.8240   37.7000 C   0  0  0  0  0  0  0  0  0  0  0  0
   44.8710   32.7250   38.6380 C   0  0  0  0  0  0  0  0  0  0  0  0
   45.1650   33.2880   39.8520 C   0  0  0  0  0  0  0  0  0  0  0  0
   46.3460   33.9000   40.1570 C   0  0  0  0  0  0  0  0  0  0  0  0
   44.7930   36.0090   43.9660 C   0  0  0  0  0  0  0  0  0  0  0  0
   45.4310   35.8560   42.7240 C   0  0  0  0  0  0  0  0  0  0  0  0
   46.2220   34.7130   42.5460 C   0  0  0  0  0  0  0  0  0  0  0  0
   46.3430   33.8040   43.5690 N   0  0  0  0  0  0  0  0  0  0  0  0
   45.7030   34.0060   44.7470 C   0  0  0  0  0  0  0  0  0  0  0  0
   44.9300   35.0990   44.9510 N   0  0  0  0  0  0  0  0  0  0  0  0
   49.0920   35.6780   41.7990 C   0  0  0  0  0  0  0  0  0  0  0  0
   50.0010   34.7420   42.5260 C   0  0  0  0  0  0  0  0  0  0  0  0
   50.0460   33.3460   41.9700 C   0  0  1  0  0  0  0  0  0  0  0  0
   50.9570   32.2980   42.4470 C   0  0  0  0  0  0  0  0  0  0  0  0
   49.5590   32.2870   42.9680 C   0  0  2  0  0  0  0  0  0  0  0  0
   48.7640   31.2480   42.5210 O   0  0  0  0  0  0  0  0  0  0  0  0
   47.9660   30.4390   43.2780 C   0  0  0  0  0  0  0  0  0  0  0  0
   47.1080   29.6700   42.7920 O   0  0  0  0  0  0  0  0  0  0  0  0
   47.9580   30.3090   44.7790 C   0  0  0  0  0  0  0  0  0  0  0  0
   48.8770   29.4700   45.3680 C   0  0  0  0  0  0  0  0  0  0  0  0
   48.9500   29.2940   46.7570 C   0  0  0  0  0  0  0  0  0  0  0  0
   48.0940   29.9710   47.5220 N   0  0  0  0  0  0  0  0  0  0  0  0
   47.2110   30.7810   46.9150 C   0  0  0  0  0  0  0  0  0  0  0  0
   47.1360   30.9530   45.5950 N   0  0  0  0  0  0  0  0  0  0  0  0
   49.2995   34.7933   39.1268 H   0  0  0  0  0  0  0  0  0  0  0  0
   47.8700   33.4581   37.1217 H   0  0  0  0  0  0  0  0  0  0  0  0
   45.7117   32.3896   36.7060 H   0  0  0  0  0  0  0  0  0  0  0  0
   43.9090   32.2367   38.4233 H   0  0  0  0  0  0  0  0  0  0  0  0
   44.3948   33.2436   40.6361 H   0  0  0  0  0  0  0  0  0  0  0  0
   44.1648   36.8951   44.1395 H   0  0  0  0  0  0  0  0  0  0  0  0
   45.3146   36.6023   41.9244 H   0  0  0  0  0  0  0  0  0  0  0  0
   45.8140   33.2666   45.5539 H   0  0  0  0  0  0  0  0  0  0  0  0
   49.6995   36.3800   41.2089 H   0  0  0  0  0  0  0  0  0  0  0  0
   48.4838   36.2150   42.5418 H   0  0  0  0  0  0  0  0  0  0  0  0
   51.0190   35.1573   42.4904 H   0  0  0  0  0  0  0  0  0  0  0  0
   49.6025   34.6552   43.5476 H   0  0  0  0  0  0  0  0  0  0  0  0
   49.8391   33.7059   40.9514 H   0  0  0  0  0  0  0  0  0  0  0  0
   51.2852   31.5078   41.7557 H   0  0  0  0  0  0  0  0  0  0  0  0
   51.9487   32.3074   42.9228 H   0  0  0  0  0  0  0  0  0  0  0  0
   49.0568   32.3269   43.9459 H   0  0  0  0  0  0  0  0  0  0  0  0
   49.5791   28.9180   44.7259 H   0  0  0  0  0  0  0  0  0  0  0  0
   49.6929   28.6162   47.2029 H   0  0  0  0  0  0  0  0  0  0  0  0
   46.5044   31.3382   47.5476 H   0  0  0  0  0  0  0  0  0  0  0  0
  1 12  1  0
  2  1  2  0
  2 16  1  0
  3  2  1  0
  4  3  1  0
  4  9  2  0
  5  4  1  0
  6  5  2  0
  6  7  1  0
  7  8  2  0
  8  9  1  0
  9  1  1  0
 10 15  2  0
 11 10  1  0
 12 11  2  0
 12 13  1  0
 13 14  2  0
 14 15  1  0
 16 17  1  0
 18 19  1  0
 18 17  1  0
 18 20  1  0
 19 20  1  0
 21 20  1  0
 21 22  1  0
 22 24  1  0
 23 22  2  0
 24 25  2  0
 24 29  1  0
 25 26  1  0
 26 27  2  0
 28 27  1  0
 29 28  2  0
  3 30  1  0
  5 31  1  0
  6 32  1  0
  7 33  1  0
  8 34  1  0
 10 35  1  0
 11 36  1  0
 14 37  1  0
 16 38  1  0
 16 39  1  0
 17 40  1  0
 17 41  1  0
 18 42  1  6
 19 43  1  0
 19 44  1  0
 20 45  1  1
 25 46  1  0
 26 47  1  0
 28 48  1  0
M  ISO  8  30   9  31  14  32  14  33  14  34  14  35  14  36  14  37  14
M  ISO  8  38   8  39   8  40   8  41   8  42  13  43  13  44  13  45  13
M  ISO  3  46  14  47  14  48  14
M  END
>  <minimizedAffinity>  (1) 
-5.78138447

>  <minimizedRMSD>  (1) 
2.27955198

$$$$
