
     RDKit          3D

 48 52  0  0  0  0  0  0  0  0999 V2000
   46.9510   34.7660   41.9480 C   0  0  0  0  0  0  0  0  0  0  0  0
   48.2170   35.3240   41.7090 C   0  0  0  0  0  0  0  0  0  0  0  0
   48.5180   34.8870   40.4220 C   0  0  0  0  0  0  0  0  0  0  0  0
   47.4400   34.1120   39.9740 C   0  0  0  0  0  0  0  0  0  0  0  0
   46.5310   34.0750   40.9300 O   0  0  0  0  0  0  0  0  0  0  0  0
   44.5030   36.0420   44.4440 C   0  0  0  0  0  0  0  0  0  0  0  0
   45.2610   35.9310   43.2330 C   0  0  0  0  0  0  0  0  0  0  0  0
   46.1650   34.9100   43.1560 C   0  0  0  0  0  0  0  0  0  0  0  0
   46.2920   34.0650   44.2210 N   0  0  0  0  0  0  0  0  0  0  0  0
   45.5720   34.1820   45.3510 C   0  0  0  0  0  0  0  0  0  0  0  0
   44.6750   35.1720   45.4640 N   0  0  0  0  0  0  0  0  0  0  0  0
   45.8290   33.2210   46.3580 N   0  0  0  0  0  0  0  0  0  0  0  0
   45.1750   33.1540   47.5230 N   0  0  0  0  0  0  0  0  0  0  0  0
   45.6350   32.1390   48.2760 C   0  0  0  0  0  0  0  0  0  0  0  0
   46.6480   31.5160   47.5480 C   0  0  0  0  0  0  0  0  0  0  0  0
   46.7540   32.2060   46.3530 C   0  0  0  0  0  0  0  0  0  0  0  0
   47.3700   33.4880   38.7020 N   0  0  0  0  0  0  0  0  0  0  0  0
   46.7080   32.3230   38.6200 C   0  0  0  0  0  0  0  0  0  0  0  0
   46.5800   31.6380   37.4280 C   0  0  0  0  0  0  0  0  0  0  0  0
   47.1660   32.1990   36.3030 C   0  0  0  0  0  0  0  0  0  0  0  0
   47.0740   31.6060   35.2060 O   0  0  0  0  0  0  0  0  0  0  0  0
   47.8230   33.3750   36.4340 N   0  0  0  0  0  0  0  0  0  0  0  0
   47.9240   34.0170   37.6310 C   0  0  0  0  0  0  0  0  0  0  0  0
   48.5450   35.1020   37.6900 O   0  0  0  0  0  0  0  0  0  0  0  0
   45.8090   30.3870   37.4090 C   0  0  0  0  0  0  0  0  0  0  0  0
   44.4020   30.6670   37.5160 N   0  0  0  0  0  0  0  0  0  0  0  0
   43.9450   30.6330   38.8040 C   0  0  0  0  0  0  0  0  0  0  0  0
   42.6500   30.8920   39.1740 C   0  0  0  0  0  0  0  0  0  0  0  0
   41.7100   31.2110   38.2220 C   0  0  0  0  0  0  0  0  0  0  0  0
   40.3400   31.5060   38.4190 N   0  0  0  0  0  0  0  0  0  0  0  0
   42.1590   31.2450   36.9390 N   0  0  0  0  0  0  0  0  0  0  0  0
   43.4340   30.9830   36.6500 C   0  0  0  0  0  0  0  0  0  0  0  0
   43.7810   31.0250   35.4630 O   0  0  0  0  0  0  0  0  0  0  0  0
   48.8237   35.9536   42.3765 H   0  0  0  0  0  0  0  0  0  0  0  0
   49.4361   35.1098   39.8586 H   0  0  0  0  0  0  0  0  0  0  0  0
   43.7658   36.8521   44.5456 H   0  0  0  0  0  0  0  0  0  0  0  0
   45.1209   36.6374   42.4015 H   0  0  0  0  0  0  0  0  0  0  0  0
   45.2793   31.8541   49.2771 H   0  0  0  0  0  0  0  0  0  0  0  0
   47.2453   30.6472   47.8617 H   0  0  0  0  0  0  0  0  0  0  0  0
   47.4584   31.9801   45.5388 H   0  0  0  0  0  0  0  0  0  0  0  0
   46.2542   31.9017   39.5292 H   0  0  0  0  0  0  0  0  0  0  0  0
   48.2602   33.7976   35.6027 H   0  0  0  0  0  0  0  0  0  0  0  0
   46.0027   29.8555   36.4656 H   0  0  0  0  0  0  0  0  0  0  0  0
   46.1161   29.7640   38.2619 H   0  0  0  0  0  0  0  0  0  0  0  0
   44.6644   30.3809   39.5970 H   0  0  0  0  0  0  0  0  0  0  0  0
   42.3625   30.8445   40.2347 H   0  0  0  0  0  0  0  0  0  0  0  0
   39.7404   31.7309   37.6122 H   0  0  0  0  0  0  0  0  0  0  0  0
   39.9425   31.4958   39.3691 H   0  0  0  0  0  0  0  0  0  0  0  0
  1  8  1  0
  2  1  2  0
  3  2  1  0
  4  3  2  0
  4  5  1  0
  5  1  1  0
  6 11  2  0
  7  6  1  0
  8  7  2  0
  8  9  1  0
  9 10  2  0
 10 11  1  0
 10 12  1  0
 12 13  1  0
 13 14  2  0
 15 14  1  0
 16 12  1  0
 16 15  2  0
 17  4  1  0
 18 17  1  0
 19 18  2  0
 20 22  1  0
 20 19  1  0
 21 20  2  0
 22 23  1  0
 23 24  2  0
 23 17  1  0
 25 19  1  0
 25 26  1  0
 26 27  1  0
 27 28  2  0
 29 30  1  0
 29 28  1  0
 31 29  2  0
 32 31  1  0
 32 26  1  0
 33 32  2  0
  2 34  1  0
  3 35  1  0
  6 36  1  0
  7 37  1  0
 14 38  1  0
 15 39  1  0
 16 40  1  0
 18 41  1  0
 22 42  1  0
 25 43  1  0
 25 44  1  0
 27 45  1  0
 28 46  1  0
 30 47  1  0
 30 48  1  0
M  END
>  <minimizedAffinity>  (1) 
-7.501019

>  <minimizedRMSD>  (1) 
0.985588133

$$$$
