
     RDKit          3D

 44 47  0  0  1  0  0  0  0  0999 V2000
   45.8390   33.7000   42.1950 N   0  0  0  0  0  0  0  0  0  0  0  0
   47.0280   33.9450   41.3880 C   0  0  0  0  0  0  0  0  0  0  0  0
   46.4390   33.8410   40.0090 C   0  0  0  0  0  0  0  0  0  0  0  0
   45.6820   32.5520   40.1090 C   0  0  0  0  0  0  0  0  0  0  0  0
   45.1100   32.6300   41.4950 C   0  0  2  0  0  0  0  0  0  0  0  0
   44.5030   36.1310   44.6590 C   0  0  0  0  0  0  0  0  0  0  0  0
   44.8970   35.5940   43.4280 C   0  0  0  0  0  0  0  0  0  0  0  0
   45.4250   34.3070   43.3750 C   0  0  0  0  0  0  0  0  0  0  0  0
   45.5210   33.6470   44.5670 N   0  0  0  0  0  0  0  0  0  0  0  0
   45.1400   34.1700   45.7450 C   0  0  0  0  0  0  0  0  0  0  0  0
   44.6330   35.4120   45.7760 N   0  0  0  0  0  0  0  0  0  0  0  0
   45.3240   33.3180   46.8700 N   0  0  0  0  0  0  0  0  0  0  0  0
   43.6980   32.7350   41.5840 N   0  0  0  0  0  0  0  0  0  0  0  0
   42.9330   33.7730   41.2040 C   0  0  0  0  0  0  0  0  0  0  0  0
   41.5550   33.7740   41.3350 C   0  0  0  0  0  0  0  0  0  0  0  0
   40.9200   32.6760   41.8740 C   0  0  0  0  0  0  0  0  0  0  0  0
   39.6660   32.6210   42.0170 O   0  0  0  0  0  0  0  0  0  0  0  0
   41.6880   31.6480   42.2500 N   0  0  0  0  0  0  0  0  0  0  0  0
   43.0060   31.6770   42.1120 C   0  0  0  0  0  0  0  0  0  0  0  0
   43.6480   30.6560   42.4960 O   0  0  0  0  0  0  0  0  0  0  0  0
   40.7620   34.9360   40.9030 C   0  0  0  0  0  0  0  0  0  0  0  0
   40.4710   34.9740   39.5150 N   0  0  0  0  0  0  0  0  0  0  0  0
   39.4580   34.3110   38.9270 C   0  0  0  0  0  0  0  0  0  0  0  0
   39.4430   34.5480   37.5610 C   0  0  0  0  0  0  0  0  0  0  0  0
   40.4890   35.3880   37.3120 N   0  0  0  0  0  0  0  0  0  0  0  0
   41.0770   35.6200   38.4980 C   0  0  0  0  0  0  0  0  0  0  0  0
   47.4500   34.9432   41.5767 H   0  0  0  0  0  0  0  0  0  0  0  0
   47.8677   33.2620   41.5840 H   0  0  0  0  0  0  0  0  0  0  0  0
   47.2230   33.7888   39.2392 H   0  0  0  0  0  0  0  0  0  0  0  0
   45.8225   34.7037   39.7165 H   0  0  0  0  0  0  0  0  0  0  0  0
   44.8865   32.4963   39.3513 H   0  0  0  0  0  0  0  0  0  0  0  0
   46.3019   31.6600   39.9355 H   0  0  0  0  0  0  0  0  0  0  0  0
   45.2639   31.6612   41.9927 H   0  0  0  0  0  0  0  0  0  0  0  0
   44.0854   37.1476   44.7060 H   0  0  0  0  0  0  0  0  0  0  0  0
   44.7900   36.1859   42.5070 H   0  0  0  0  0  0  0  0  0  0  0  0
   45.0576   33.6423   47.8106 H   0  0  0  0  0  0  0  0  0  0  0  0
   45.7236   32.3771   46.7436 H   0  0  0  0  0  0  0  0  0  0  0  0
   43.4222   34.6580   40.7711 H   0  0  0  0  0  0  0  0  0  0  0  0
   41.2442   30.8124   42.6572 H   0  0  0  0  0  0  0  0  0  0  0  0
   39.8091   34.9235   41.4523 H   0  0  0  0  0  0  0  0  0  0  0  0
   41.3736   35.8251   41.1159 H   0  0  0  0  0  0  0  0  0  0  0  0
   38.7399   33.6687   39.4578 H   0  0  0  0  0  0  0  0  0  0  0  0
   38.7320   34.1413   36.8268 H   0  0  0  0  0  0  0  0  0  0  0  0
   41.9575   36.2669   38.6255 H   0  0  0  0  0  0  0  0  0  0  0  0
  1  8  1  0
  2  1  1  0
  3  4  1  0
  3  2  1  0
  4  5  1  0
  5 13  1  0
  5  1  1  0
  6 11  2  0
  7  6  1  0
  8  7  2  0
  8  9  1  0
  9 10  2  0
 10 11  1  0
 10 12  1  0
 13 19  1  0
 14 15  2  0
 14 13  1  0
 15 16  1  0
 16 17  2  0
 16 18  1  0
 19 18  1  0
 19 20  2  0
 21 15  1  0
 22 21  1  0
 23 22  1  0
 24 23  2  0
 25 24  1  0
 25 26  2  0
 26 22  1  0
  2 27  1  0
  2 28  1  0
  3 29  1  0
  3 30  1  0
  4 31  1  0
  4 32  1  0
  5 33  1  1
  6 34  1  0
  7 35  1  0
 12 36  1  0
 12 37  1  0
 14 38  1  0
 18 39  1  0
 21 40  1  0
 21 41  1  0
 23 42  1  0
 24 43  1  0
 26 44  1  0
M  ISO  8  27  13  28  13  29  13  30  13  31  13  32  13  33  13  34  14
M  ISO  8  35  14  38  14  39   9  40   8  41   8  42  14  43  14  44  14
M  END
>  <minimizedAffinity>  (1) 
-6.23808336

>  <minimizedRMSD>  (1) 
1.29022491

$$$$
