
     RDKit          3D

 38 41  0  0  0  0  0  0  0  0999 V2000
   47.0000   30.1030   45.8010 C   0  0  0  0  0  0  0  0  0  0  0  0
   47.1150   30.3130   47.1890 C   0  0  0  0  0  0  0  0  0  0  0  0
   46.2570   29.4260   47.7750 C   0  0  0  0  0  0  0  0  0  0  0  0
   45.6370   28.6990   46.8150 N   0  0  0  0  0  0  0  0  0  0  0  0
   46.0860   29.1070   45.6210 N   0  0  0  0  0  0  0  0  0  0  0  0
   44.6800   27.6860   47.1090 C   0  0  0  0  0  0  0  0  0  0  0  0
   44.9020   27.0920   48.3100 N   0  0  0  0  0  0  0  0  0  0  0  0
   44.0310   26.1070   48.6770 C   0  0  0  0  0  0  0  0  0  0  0  0
   42.9680   25.6780   47.9390 N   0  0  0  0  0  0  0  0  0  0  0  0
   42.7730   26.2850   46.7510 C   0  0  0  0  0  0  0  0  0  0  0  0
   41.7210   25.9280   45.9170 C   0  0  0  0  0  0  0  0  0  0  0  0
   41.5560   26.5770   44.7050 C   0  0  0  0  0  0  0  0  0  0  0  0
   42.4360   27.5900   44.3070 C   0  0  0  0  0  0  0  0  0  0  0  0
   43.4860   27.9570   45.1230 C   0  0  0  0  0  0  0  0  0  0  0  0
   43.6230   27.2890   46.3290 C   0  0  0  0  0  0  0  0  0  0  0  0
   47.6860   30.7470   44.2810 S   0  0  0  0  0  0  0  0  0  0  0  0
   47.2610   34.5110   42.8370 C   0  0  0  0  0  0  0  0  0  0  0  0
   47.7870   33.2310   43.0690 C   0  0  0  0  0  0  0  0  0  0  0  0
   47.1120   32.3650   43.9230 C   0  0  0  0  0  0  0  0  0  0  0  0
   45.9500   32.8200   44.4990 N   0  0  0  0  0  0  0  0  0  0  0  0
   45.4890   34.0530   44.2420 C   0  0  0  0  0  0  0  0  0  0  0  0
   46.1280   34.8840   43.4290 N   0  0  0  0  0  0  0  0  0  0  0  0
   48.1230   35.2870   41.9000 C   0  0  0  0  0  0  0  0  0  0  0  0
   49.5780   35.1860   42.2890 C   0  0  0  0  0  0  0  0  0  0  0  0
   47.7631   31.0421   47.6972 H   0  0  0  0  0  0  0  0  0  0  0  0
   46.0949   29.3189   48.8577 H   0  0  0  0  0  0  0  0  0  0  0  0
   44.2008   25.6192   49.6482 H   0  0  0  0  0  0  0  0  0  0  0  0
   41.0223   25.1335   46.2180 H   0  0  0  0  0  0  0  0  0  0  0  0
   40.7222   26.2927   44.0462 H   0  0  0  0  0  0  0  0  0  0  0  0
   42.2899   28.0950   43.3407 H   0  0  0  0  0  0  0  0  0  0  0  0
   44.1882   28.7503   44.8272 H   0  0  0  0  0  0  0  0  0  0  0  0
   48.7215   32.9163   42.5816 H   0  0  0  0  0  0  0  0  0  0  0  0
   44.5548   34.3845   44.7188 H   0  0  0  0  0  0  0  0  0  0  0  0
   47.8177   36.3435   41.9227 H   0  0  0  0  0  0  0  0  0  0  0  0
   48.0023   34.8709   40.8889 H   0  0  0  0  0  0  0  0  0  0  0  0
   49.6648   35.1800   43.3856 H   0  0  0  0  0  0  0  0  0  0  0  0
   50.0025   34.2562   41.8825 H   0  0  0  0  0  0  0  0  0  0  0  0
   50.1269   36.0482   41.8825 H   0  0  0  0  0  0  0  0  0  0  0  0
  1  2  1  0
  2  3  2  0
  4  6  1  0
  4  3  1  0
  5  1  2  0
  5  4  1  0
  6  7  2  0
  7  8  1  0
  9  8  2  0
 10  9  1  0
 11 10  2  0
 12 11  1  0
 13 12  2  0
 13 14  1  0
 14 15  2  0
 15 10  1  0
 15  6  1  0
 16  1  1  0
 17 18  2  0
 17 22  1  0
 18 19  1  0
 19 16  1  0
 19 20  2  0
 21 20  1  0
 22 21  2  0
 23 24  1  0
 23 17  1  0
  2 25  1  0
  3 26  1  0
  8 27  1  0
 11 28  1  0
 12 29  1  0
 13 30  1  0
 14 31  1  0
 18 32  1  0
 21 33  1  0
 23 34  1  0
 23 35  1  0
 24 36  1  0
 24 37  1  0
 24 38  1  0
M  ISO  8  25  14  26  14  27  14  28  14  29  14  30  14  31  14  32  14
M  ISO  6  33  14  34   8  35   8  36   8  37   8  38   8
M  END
>  <minimizedAffinity>  (1) 
-5.2185092

>  <minimizedRMSD>  (1) 
1.77233863

$$$$
