
     RDKit          3D

 47 51  0  0  1  0  0  0  0  0999 V2000
   46.8250   34.5510   41.3720 C   0  0  0  0  0  0  0  0  0  0  0  0
   48.0920   34.9560   40.9520 C   0  0  0  0  0  0  0  0  0  0  0  0
   48.3240   34.5810   39.7160 N   0  0  0  0  0  0  0  0  0  0  0  0
   47.2250   33.9250   39.2950 C   0  0  0  0  0  0  0  0  0  0  0  0
   46.9590   33.3330   38.0590 C   0  0  0  0  0  0  0  0  0  0  0  0
   45.7420   32.7280   37.8880 C   0  0  0  0  0  0  0  0  0  0  0  0
   44.7490   32.6600   38.8590 C   0  0  0  0  0  0  0  0  0  0  0  0
   45.0670   33.2570   40.0450 C   0  0  0  0  0  0  0  0  0  0  0  0
   46.2550   33.8810   40.3000 C   0  0  0  0  0  0  0  0  0  0  0  0
   44.7050   36.0430   44.0520 C   0  0  0  0  0  0  0  0  0  0  0  0
   45.3110   35.8550   42.7860 C   0  0  0  0  0  0  0  0  0  0  0  0
   46.1860   34.7670   42.6680 C   0  0  0  0  0  0  0  0  0  0  0  0
   46.4190   33.9490   43.7430 N   0  0  0  0  0  0  0  0  0  0  0  0
   45.8050   34.1850   44.9290 C   0  0  0  0  0  0  0  0  0  0  0  0
   44.9520   35.2240   45.0870 N   0  0  0  0  0  0  0  0  0  0  0  0
   49.0350   35.7220   41.8180 C   0  0  0  0  0  0  0  0  0  0  0  0
   49.9770   34.8130   42.5320 C   0  0  0  0  0  0  0  0  0  0  0  0
   50.0960   33.4310   41.9430 C   0  0  1  0  0  0  0  0  0  0  0  0
   51.0220   32.4080   42.4410 C   0  0  0  0  0  0  0  0  0  0  0  0
   49.6080   32.3330   42.8900 C   0  0  2  0  0  0  0  0  0  0  0  0
   48.8670   31.2800   42.3810 O   0  0  0  0  0  0  0  0  0  0  0  0
   47.6440   30.8520   42.8060 C   0  0  0  0  0  0  0  0  0  0  0  0
   46.6700   30.6670   42.0360 O   0  0  0  0  0  0  0  0  0  0  0  0
   47.2240   30.5240   44.2100 C   0  0  0  0  0  0  0  0  0  0  0  0
   45.9590   30.4460   44.7510 C   0  0  0  0  0  0  0  0  0  0  0  0
   45.9800   30.1140   46.0800 C   0  0  0  0  0  0  0  0  0  0  0  0
   47.2880   29.9900   46.3390 N   0  0  0  0  0  0  0  0  0  0  0  0
   47.9970   30.2250   45.2640 N   0  0  0  0  0  0  0  0  0  0  0  0
   49.1814   34.7547   39.1723 H   0  0  0  0  0  0  0  0  0  0  0  0
   47.7026   33.3518   37.2487 H   0  0  0  0  0  0  0  0  0  0  0  0
   45.5355   32.2627   36.9129 H   0  0  0  0  0  0  0  0  0  0  0  0
   43.7827   32.1640   38.6852 H   0  0  0  0  0  0  0  0  0  0  0  0
   44.3164   33.2339   40.8488 H   0  0  0  0  0  0  0  0  0  0  0  0
   44.0112   36.8851   44.1917 H   0  0  0  0  0  0  0  0  0  0  0  0
   45.1057   36.5275   41.9401 H   0  0  0  0  0  0  0  0  0  0  0  0
   46.0044   33.5179   45.7806 H   0  0  0  0  0  0  0  0  0  0  0  0
   49.6135   36.4163   41.1908 H   0  0  0  0  0  0  0  0  0  0  0  0
   48.4478   36.2715   42.5685 H   0  0  0  0  0  0  0  0  0  0  0  0
   50.9744   35.2766   42.5194 H   0  0  0  0  0  0  0  0  0  0  0  0
   49.5698   34.6819   43.5454 H   0  0  0  0  0  0  0  0  0  0  0  0
   49.9199   33.8070   40.9244 H   0  0  0  0  0  0  0  0  0  0  0  0
   51.4135   31.6471   41.7499 H   0  0  0  0  0  0  0  0  0  0  0  0
   51.9885   32.4434   42.9651 H   0  0  0  0  0  0  0  0  0  0  0  0
   49.0627   32.3273   43.8453 H   0  0  0  0  0  0  0  0  0  0  0  0
   45.0367   30.6295   44.1803 H   0  0  0  0  0  0  0  0  0  0  0  0
   45.1305   29.9817   46.7662 H   0  0  0  0  0  0  0  0  0  0  0  0
   47.6822   29.7435   47.2581 H   0  0  0  0  0  0  0  0  0  0  0  0
  1 12  1  0
  2  1  2  0
  2 16  1  0
  3  2  1  0
  4  3  1  0
  4  9  2  0
  5  4  1  0
  6  5  2  0
  6  7  1  0
  7  8  2  0
  8  9  1  0
  9  1  1  0
 10 15  2  0
 11 10  1  0
 12 11  2  0
 12 13  1  0
 13 14  2  0
 14 15  1  0
 16 17  1  0
 18 19  1  0
 18 17  1  0
 18 20  1  0
 19 20  1  0
 21 22  1  0
 21 20  1  0
 22 24  1  0
 23 22  2  0
 24 25  1  0
 24 28  2  0
 25 26  2  0
 26 27  1  0
 28 27  1  0
  3 29  1  0
  5 30  1  0
  6 31  1  0
  7 32  1  0
  8 33  1  0
 10 34  1  0
 11 35  1  0
 14 36  1  0
 16 37  1  0
 16 38  1  0
 17 39  1  0
 17 40  1  0
 18 41  1  6
 19 42  1  0
 19 43  1  0
 20 44  1  1
 25 45  1  0
 26 46  1  0
 27 47  1  0
M  ISO  8  29   9  30  14  31  14  32  14  33  14  34  14  35  14  36  14
M  ISO  8  37   8  38   8  39   8  40   8  41  13  42  13  43  13  44  13
M  ISO  3  45  14  46  14  47   9
M  END
>  <minimizedAffinity>  (1) 
-5.60640764

>  <minimizedRMSD>  (1) 
1.76848435

$$$$
