
     RDKit          3D

 32 33  0  0  1  0  0  0  0  0999 V2000
   44.1370   34.8240   41.6320 C   0  0  2  0  0  0  0  0  0  0  0  0
   42.6040   35.0130   41.4720 C   0  0  0  0  0  0  0  0  0  0  0  0
   42.6330   35.2240   39.9420 C   0  0  1  0  0  0  0  0  0  0  0  0
   43.4600   34.0480   39.5170 C   0  0  0  0  0  0  0  0  0  0  0  0
   44.3720   33.7240   40.6980 C   0  0  0  0  0  0  0  0  0  0  0  0
   44.2850   35.6770   43.9270 C   0  0  0  0  0  0  0  0  0  0  0  0
   44.5380   34.6120   43.0220 C   0  0  0  0  0  0  0  0  0  0  0  0
   45.1710   33.4250   43.4920 C   0  0  0  0  0  0  0  0  0  0  0  0
   45.5060   33.3740   44.8070 N   0  0  0  0  0  0  0  0  0  0  0  0
   45.2530   34.4110   45.6540 C   0  0  0  0  0  0  0  0  0  0  0  0
   44.6480   35.5520   45.2200 N   0  0  0  0  0  0  0  0  0  0  0  0
   41.2530   35.2350   39.3460 C   0  0  0  0  0  0  0  0  0  0  0  0
   40.2950   36.0560   40.1940 C   0  0  0  0  0  0  0  0  0  0  0  0
   41.2190   35.8790   37.9780 C   0  0  0  0  0  0  0  0  0  0  0  0
   44.7602   35.6993   41.3964 H   0  0  0  0  0  0  0  0  0  0  0  0
   42.0317   34.1216   41.7683 H   0  0  0  0  0  0  0  0  0  0  0  0
   42.1263   35.7955   42.0799 H   0  0  0  0  0  0  0  0  0  0  0  0
   43.0408   36.1913   39.6133 H   0  0  0  0  0  0  0  0  0  0  0  0
   42.8126   33.1888   39.2874 H   0  0  0  0  0  0  0  0  0  0  0  0
   44.0406   34.2713   38.6098 H   0  0  0  0  0  0  0  0  0  0  0  0
   44.0985   32.7598   41.1513 H   0  0  0  0  0  0  0  0  0  0  0  0
   45.4287   33.6316   40.4067 H   0  0  0  0  0  0  0  0  0  0  0  0
   43.7962   36.5977   43.5757 H   0  0  0  0  0  0  0  0  0  0  0  0
   45.3801   32.5828   42.8160 H   0  0  0  0  0  0  0  0  0  0  0  0
   45.5436   34.3250   46.7114 H   0  0  0  0  0  0  0  0  0  0  0  0
   40.9599   34.1762   39.2910 H   0  0  0  0  0  0  0  0  0  0  0  0
   40.5032   35.8776   41.2593 H   0  0  0  0  0  0  0  0  0  0  0  0
   40.4287   37.1242   39.9682 H   0  0  0  0  0  0  0  0  0  0  0  0
   39.2598   35.7603   39.9682 H   0  0  0  0  0  0  0  0  0  0  0  0
   41.1613   36.9719   38.0886 H   0  0  0  0  0  0  0  0  0  0  0  0
   42.1324   35.6141   37.4252 H   0  0  0  0  0  0  0  0  0  0  0  0
   40.3386   35.5194   37.4252 H   0  0  0  0  0  0  0  0  0  0  0  0
  1  7  1  0
  2  1  1  0
  3  2  1  0
  4  3  1  0
  4  5  1  0
  5  1  1  0
  6 11  2  0
  7  8  2  0
  7  6  1  0
  8  9  1  0
  9 10  2  0
 11 10  1  0
 12  3  1  0
 12 13  1  0
 14 12  1  0
  1 15  1  6
  2 16  1  0
  2 17  1  0
  3 18  1  1
  4 19  1  0
  4 20  1  0
  5 21  1  0
  5 22  1  0
  6 23  1  0
  8 24  1  0
 10 25  1  0
 12 26  1  0
 13 27  1  0
 13 28  1  0
 13 29  1  0
 14 30  1  0
 14 31  1  0
 14 32  1  0
M  ISO  8  15  13  16  13  17  13  18  13  19  13  20  13  21  13  22  13
M  ISO  8  23  14  24  14  25  14  26   8  27   8  28   8  29   8  30   8
M  ISO  2  31   8  32   8
M  END
>  <minimizedAffinity>  (1) 
-4.72163057

>  <minimizedRMSD>  (1) 
0.424745798

$$$$
