
     RDKit          3D

 41 43  0  0  1  0  0  0  0  0999 V2000
   48.4730   29.1980   48.2130 N   0  0  0  0  0  0  0  0  0  0  0  0
   48.3140   27.8600   47.7220 C   0  0  0  0  0  0  0  0  0  0  0  0
   49.6230   27.2200   47.3320 C   0  0  0  0  0  0  0  0  0  0  0  0
   50.7400   27.6300   48.2530 C   0  0  0  0  0  0  0  0  0  0  0  0
   50.2350   28.2190   49.5450 C   0  0  0  0  0  0  0  0  0  0  0  0
   49.4410   29.4360   49.2430 C   0  0  1  0  0  0  0  0  0  0  0  0
   46.6280   32.4540   46.6520 C   0  0  0  0  0  0  0  0  0  0  0  0
   46.4970   32.3340   48.0080 C   0  0  0  0  0  0  0  0  0  0  0  0
   47.0820   31.2730   48.6250 C   0  0  0  0  0  0  0  0  0  0  0  0
   47.7720   30.3900   47.8120 C   0  0  0  0  0  0  0  0  0  0  0  0
   47.6030   31.0480   46.1700 S   0  0  0  0  0  0  0  0  0  0  0  0
   44.6570   35.2350   45.2830 C   0  0  0  0  0  0  0  0  0  0  0  0
   45.2030   35.3380   43.9750 C   0  0  0  0  0  0  0  0  0  0  0  0
   46.2250   34.4580   43.6000 C   0  0  0  0  0  0  0  0  0  0  0  0
   46.6570   33.5330   44.5110 N   0  0  0  0  0  0  0  0  0  0  0  0
   46.1230   33.4600   45.7370 C   0  0  0  0  0  0  0  0  0  0  0  0
   45.1330   34.2950   46.1310 N   0  0  0  0  0  0  0  0  0  0  0  0
   50.2200   30.7010   49.0660 C   0  0  0  0  0  0  0  0  0  0  0  0
   51.6150   30.5600   48.5900 C   0  0  0  0  0  0  0  0  0  0  0  0
   50.2200   31.4570   50.3930 C   0  0  0  0  0  0  0  0  0  0  0  0
   47.8456   27.2504   48.5088 H   0  0  0  0  0  0  0  0  0  0  0  0
   47.6888   27.9114   46.8184 H   0  0  0  0  0  0  0  0  0  0  0  0
   49.5110   26.1265   47.3725 H   0  0  0  0  0  0  0  0  0  0  0  0
   49.8777   27.5532   46.3151 H   0  0  0  0  0  0  0  0  0  0  0  0
   51.3503   26.7444   48.4837 H   0  0  0  0  0  0  0  0  0  0  0  0
   51.3293   28.4044   47.7401 H   0  0  0  0  0  0  0  0  0  0  0  0
   49.6011   27.4840   50.0626 H   0  0  0  0  0  0  0  0  0  0  0  0
   51.0854   28.4809   50.1917 H   0  0  0  0  0  0  0  0  0  0  0  0
   48.8847   29.6415   50.1694 H   0  0  0  0  0  0  0  0  0  0  0  0
   45.9311   33.0791   48.5865 H   0  0  0  0  0  0  0  0  0  0  0  0
   47.0108   31.1241   49.7125 H   0  0  0  0  0  0  0  0  0  0  0  0
   43.8535   35.9145   45.6033 H   0  0  0  0  0  0  0  0  0  0  0  0
   44.8294   36.0954   43.2702 H   0  0  0  0  0  0  0  0  0  0  0  0
   46.6707   34.5090   42.5956 H   0  0  0  0  0  0  0  0  0  0  0  0
   49.7079   31.2426   48.2571 H   0  0  0  0  0  0  0  0  0  0  0  0
   52.2921   30.4916   49.4542 H   0  0  0  0  0  0  0  0  0  0  0  0
   51.7043   29.6483   47.9811 H   0  0  0  0  0  0  0  0  0  0  0  0
   51.8849   31.4354   47.9811 H   0  0  0  0  0  0  0  0  0  0  0  0
   51.2571   31.6385   50.7116 H   0  0  0  0  0  0  0  0  0  0  0  0
   49.7015   32.4189   50.2670 H   0  0  0  0  0  0  0  0  0  0  0  0
   49.7015   30.8581   51.1562 H   0  0  0  0  0  0  0  0  0  0  0  0
  1  6  1  0
  2  1  1  0
  3  2  1  0
  3  4  1  0
  4  5  1  0
  6  5  1  0
  7  8  2  0
  8  9  1  0
 10  1  1  0
 10  9  2  0
 11  7  1  0
 11 10  1  0
 12 17  2  0
 13 12  1  0
 14 13  2  0
 14 15  1  0
 15 16  2  0
 16 17  1  0
 16  7  1  0
 18  6  1  0
 18 20  1  0
 19 18  1  0
  2 21  1  0
  2 22  1  0
  3 23  1  0
  3 24  1  0
  4 25  1  0
  4 26  1  0
  5 27  1  0
  5 28  1  0
  6 29  1  1
  8 30  1  0
  9 31  1  0
 12 32  1  0
 13 33  1  0
 14 34  1  0
 18 35  1  0
 19 36  1  0
 19 37  1  0
 19 38  1  0
 20 39  1  0
 20 40  1  0
 20 41  1  0
M  ISO  8  21  13  22  13  23  13  24  13  25  13  26  13  27  13  28  13
M  ISO  8  29  13  30  14  31  14  32  14  33  14  34  14  35   8  36   8
M  ISO  5  37   8  38   8  39   8  40   8  41   8
M  END
>  <minimizedAffinity>  (1) 
-4.51407814

>  <minimizedRMSD>  (1) 
1.69925618

$$$$
