
     RDKit          3D

 41 42  0  0  1  0  0  0  0  0999 V2000
   46.1500   33.5820   45.2050 C   0  0  2  0  0  0  0  0  0  0  0  0
   45.0300   34.7130   45.4520 C   0  0  0  0  0  0  0  0  0  0  0  0
   44.7840   35.6320   44.3700 C   0  0  0  0  0  0  0  0  0  0  0  0
   45.4800   35.4950   43.1060 C   0  0  1  0  0  0  0  0  0  0  0  0
   46.4990   34.4440   43.0380 C   0  0  0  0  0  0  0  0  0  0  0  0
   45.9810   33.2490   43.8330 C   0  0  0  0  0  0  0  0  0  0  0  0
   45.2780   32.9060   47.4680 C   0  0  0  0  0  0  0  0  0  0  0  0
   45.9150   32.6240   46.2570 C   0  0  0  0  0  0  0  0  0  0  0  0
   46.2760   31.2600   45.9860 C   0  0  0  0  0  0  0  0  0  0  0  0
   45.9500   30.3990   46.9380 N   0  0  0  0  0  0  0  0  0  0  0  0
   45.3320   30.6800   48.0970 C   0  0  0  0  0  0  0  0  0  0  0  0
   44.9970   31.9190   48.3700 N   0  0  0  0  0  0  0  0  0  0  0  0
   45.0760   29.5830   49.0090 N   0  0  0  0  0  0  0  0  0  0  0  0
   46.8430   30.5680   44.8260 C   0  0  0  0  0  0  0  0  0  0  0  0
   47.2320   29.1030   45.3960 C   0  0  0  0  0  0  0  0  0  0  0  0
   45.7750   30.0020   43.8590 C   0  0  0  0  0  0  0  0  0  0  0  0
   48.1590   30.8540   44.2900 C   0  0  0  0  0  0  0  0  0  0  0  0
   44.3930   35.2370   42.0250 C   0  0  0  0  0  0  0  0  0  0  0  0
   43.3560   34.4620   42.4780 F   0  0  0  0  0  0  0  0  0  0  0  0
   43.8530   36.4770   41.7060 F   0  0  0  0  0  0  0  0  0  0  0  0
   44.9850   34.7440   40.8740 F   0  0  0  0  0  0  0  0  0  0  0  0
   47.2248   33.7980   45.2953 H   0  0  0  0  0  0  0  0  0  0  0  0
   44.4791   34.7805   46.4017 H   0  0  0  0  0  0  0  0  0  0  0  0
   44.0588   36.4480   44.5049 H   0  0  0  0  0  0  0  0  0  0  0  0
   46.0498   36.4233   42.9526 H   0  0  0  0  0  0  0  0  0  0  0  0
   46.6688   34.1530   41.9909 H   0  0  0  0  0  0  0  0  0  0  0  0
   47.4522   34.8018   43.4543 H   0  0  0  0  0  0  0  0  0  0  0  0
   44.9178   33.0752   43.6109 H   0  0  0  0  0  0  0  0  0  0  0  0
   46.5252   32.3288   43.5739 H   0  0  0  0  0  0  0  0  0  0  0  0
   44.9969   33.9439   47.7000 H   0  0  0  0  0  0  0  0  0  0  0  0
   44.6042   29.7596   49.9074 H   0  0  0  0  0  0  0  0  0  0  0  0
   45.3659   28.6269   48.7587 H   0  0  0  0  0  0  0  0  0  0  0  0
   47.2264   29.1241   46.4958 H   0  0  0  0  0  0  0  0  0  0  0  0
   46.4989   28.3644   45.0397 H   0  0  0  0  0  0  0  0  0  0  0  0
   48.2350   28.8254   45.0397 H   0  0  0  0  0  0  0  0  0  0  0  0
   44.9496   29.5645   44.4398 H   0  0  0  0  0  0  0  0  0  0  0  0
   45.3877   30.8132   43.2250 H   0  0  0  0  0  0  0  0  0  0  0  0
   46.2288   29.2260   43.2250 H   0  0  0  0  0  0  0  0  0  0  0  0
   48.8667   31.0078   45.1180 H   0  0  0  0  0  0  0  0  0  0  0  0
   48.4953   30.0080   43.6726 H   0  0  0  0  0  0  0  0  0  0  0  0
   48.1138   31.7633   43.6726 H   0  0  0  0  0  0  0  0  0  0  0  0
  1  2  1  0
  1  8  1  0
  3  2  2  0
  4  3  1  0
  5  4  1  0
  5  6  1  0
  6  1  1  0
  7 12  2  0
  8  7  1  0
  9  8  2  0
  9 10  1  0
 10 11  2  0
 11 12  1  0
 11 13  1  0
 14 15  1  0
 14  9  1  0
 16 14  1  0
 17 14  1  0
 18 19  1  0
 18  4  1  0
 20 18  1  0
 21 18  1  0
  1 22  1  6
  2 23  1  0
  3 24  1  0
  4 25  1  6
  5 26  1  0
  5 27  1  0
  6 28  1  0
  6 29  1  0
  7 30  1  0
 13 31  1  0
 13 32  1  0
 15 33  1  0
 15 34  1  0
 15 35  1  0
 16 36  1  0
 16 37  1  0
 16 38  1  0
 17 39  1  0
 17 40  1  0
 17 41  1  0
M  ISO  8  22  13  23  13  24  13  25  13  26  13  27  13  28  13  29  13
M  ISO  8  30  14  33   8  34   8  35   8  36   8  37   8  38   8  39   8
M  ISO  2  40   8  41   8
M  END
>  <minimizedAffinity>  (1) 
-5.51310968

>  <minimizedRMSD>  (1) 
0.213674635

$$$$
