
     RDKit          3D

 38 39  0  0  0  0  0  0  0  0999 V2000
   47.4180   34.2010   42.1820 C   0  0  0  0  0  0  0  0  0  0  0  0
   48.2720   35.3380   41.7210 C   0  0  0  0  0  0  0  0  0  0  0  0
   49.6450   35.4180   42.3010 C   0  0  0  0  0  0  0  0  0  0  0  0
   50.3630   34.1220   42.3850 C   0  0  0  0  0  0  0  0  0  0  0  0
   49.5130   32.9280   42.0990 C   0  0  0  0  0  0  0  0  0  0  0  0
   48.2080   33.0760   42.7950 C   0  0  0  0  0  0  0  0  0  0  0  0
   45.2260   34.3540   45.1670 C   0  0  0  0  0  0  0  0  0  0  0  0
   44.5370   35.5610   45.0210 C   0  0  0  0  0  0  0  0  0  0  0  0
   44.8420   36.3330   43.8820 C   0  0  0  0  0  0  0  0  0  0  0  0
   45.7870   35.8450   43.0020 N   0  0  0  0  0  0  0  0  0  0  0  0
   46.4200   34.6850   43.1810 C   0  0  0  0  0  0  0  0  0  0  0  0
   46.1430   33.9480   44.2520 N   0  0  0  0  0  0  0  0  0  0  0  0
   46.5480   33.6300   41.0950 C   0  0  0  0  0  0  0  0  0  0  0  0
   46.3640   32.1140   41.2950 C   0  0  0  0  0  0  0  0  0  0  0  0
   47.1910   33.7580   39.7400 C   0  0  0  0  0  0  0  0  0  0  0  0
   45.1850   34.2030   40.9230 C   0  0  0  0  0  0  0  0  0  0  0  0
   48.3749   35.2572   40.6288 H   0  0  0  0  0  0  0  0  0  0  0  0
   47.7572   36.2469   42.0656 H   0  0  0  0  0  0  0  0  0  0  0  0
   50.2411   36.0992   41.6760 H   0  0  0  0  0  0  0  0  0  0  0  0
   49.5234   35.7715   43.3355 H   0  0  0  0  0  0  0  0  0  0  0  0
   51.1892   34.1384   41.6590 H   0  0  0  0  0  0  0  0  0  0  0  0
   50.7086   34.0205   43.4244 H   0  0  0  0  0  0  0  0  0  0  0  0
   49.3443   32.8482   41.0149 H   0  0  0  0  0  0  0  0  0  0  0  0
   50.0206   32.0201   42.4568 H   0  0  0  0  0  0  0  0  0  0  0  0
   48.3858   33.2939   43.8585 H   0  0  0  0  0  0  0  0  0  0  0  0
   47.6386   32.1403   42.6941 H   0  0  0  0  0  0  0  0  0  0  0  0
   45.0210   33.7195   46.0418 H   0  0  0  0  0  0  0  0  0  0  0  0
   43.7924   35.8926   45.7596 H   0  0  0  0  0  0  0  0  0  0  0  0
   44.3419   37.2957   43.6997 H   0  0  0  0  0  0  0  0  0  0  0  0
   46.3364   31.8868   42.3709 H   0  0  0  0  0  0  0  0  0  0  0  0
   45.4205   31.7945   40.8285 H   0  0  0  0  0  0  0  0  0  0  0  0
   47.2037   31.5780   40.8285 H   0  0  0  0  0  0  0  0  0  0  0  0
   48.2632   33.9714   39.8616 H   0  0  0  0  0  0  0  0  0  0  0  0
   47.0652   32.8172   39.1841 H   0  0  0  0  0  0  0  0  0  0  0  0
   46.7145   34.5789   39.1841 H   0  0  0  0  0  0  0  0  0  0  0  0
   44.7388   34.3906   41.9108 H   0  0  0  0  0  0  0  0  0  0  0  0
   45.2526   35.1489   40.3656 H   0  0  0  0  0  0  0  0  0  0  0  0
   44.5564   33.4930   40.3656 H   0  0  0  0  0  0  0  0  0  0  0  0
  1  6  1  0
  1 11  1  0
  2  1  1  0
  2  3  1  0
  3  4  1  0
  5  4  1  0
  5  6  1  0
  8  7  2  0
  9  8  1  0
 10 11  1  0
 10  9  2  0
 11 12  2  0
 12  7  1  0
 13 14  1  0
 13  1  1  0
 15 13  1  0
 16 13  1  0
  2 17  1  0
  2 18  1  0
  3 19  1  0
  3 20  1  0
  4 21  1  0
  4 22  1  0
  5 23  1  0
  5 24  1  0
  6 25  1  0
  6 26  1  0
  7 27  1  0
  8 28  1  0
  9 29  1  0
 14 30  1  0
 14 31  1  0
 14 32  1  0
 15 33  1  0
 15 34  1  0
 15 35  1  0
 16 36  1  0
 16 37  1  0
 16 38  1  0
M  ISO  8  17  13  18  13  19  13  20  13  21  13  22  13  23  13  24  13
M  ISO  8  25  13  26  13  27  14  28  14  29  14  30   8  31   8  32   8
M  ISO  6  33   8  34   8  35   8  36   8  37   8  38   8
M  END
>  <minimizedAffinity>  (1) 
-5.35887337

>  <minimizedRMSD>  (1) 
0.389428854

$$$$
