
     RDKit          3D

 41 44  0  0  1  0  0  0  0  0999 V2000
   44.6460   35.6960   44.5970 C   0  0  0  0  0  0  0  0  0  0  0  0
   45.4760   35.3520   43.5480 C   0  0  0  0  0  0  0  0  0  0  0  0
   46.3520   34.2310   43.7100 C   0  0  0  0  0  0  0  0  0  0  0  0
   46.3130   33.5690   44.9000 N   0  0  0  0  0  0  0  0  0  0  0  0
   45.4790   33.9560   45.8830 C   0  0  0  0  0  0  0  0  0  0  0  0
   44.6400   35.0150   45.7510 N   0  0  0  0  0  0  0  0  0  0  0  0
   47.2910   33.8040   42.6190 C   0  0  2  0  0  0  0  0  0  0  0  0
   48.3520   34.9000   42.2590 C   0  0  0  0  0  0  0  0  0  0  0  0
   47.2660   34.4630   41.3130 C   0  0  1  0  0  0  0  0  0  0  0  0
   47.5960   33.7440   40.0350 C   0  0  0  0  0  0  0  0  0  0  0  0
   48.3170   34.6130   39.0380 C   0  0  0  0  0  0  0  0  0  0  0  0
   46.3050   33.2890   39.3990 C   0  0  0  0  0  0  0  0  0  0  0  0
   48.5040   32.5810   40.3790 C   0  0  0  0  0  0  0  0  0  0  0  0
   45.4640   33.0610   47.4300 S   0  0  0  0  0  0  0  0  0  0  0  0
   48.6150   29.5380   48.6390 N   0  0  0  0  0  0  0  0  0  0  0  0
   48.6890   30.6470   49.3930 C   0  0  0  0  0  0  0  0  0  0  0  0
   47.7830   31.5260   48.9620 N   0  0  0  0  0  0  0  0  0  0  0  0
   47.1050   31.0060   47.9220 C   0  0  0  0  0  0  0  0  0  0  0  0
   46.0720   31.4100   47.0680 C   0  0  0  0  0  0  0  0  0  0  0  0
   45.6200   30.6140   46.1010 N   0  0  0  0  0  0  0  0  0  0  0  0
   46.2160   29.3830   45.9870 C   0  0  0  0  0  0  0  0  0  0  0  0
   47.2230   28.9210   46.7810 N   0  0  0  0  0  0  0  0  0  0  0  0
   47.6570   29.7470   47.7450 C   0  0  0  0  0  0  0  0  0  0  0  0
   43.9691   36.5554   44.4816 H   0  0  0  0  0  0  0  0  0  0  0  0
   45.4643   35.9260   42.6097 H   0  0  0  0  0  0  0  0  0  0  0  0
   47.2655   32.7439   42.9115 H   0  0  0  0  0  0  0  0  0  0  0  0
   48.3138   35.8917   42.7335 H   0  0  0  0  0  0  0  0  0  0  0  0
   49.4496   34.9675   42.2341 H   0  0  0  0  0  0  0  0  0  0  0  0
   46.4751   34.9900   40.7592 H   0  0  0  0  0  0  0  0  0  0  0  0
   48.9308   35.3528   39.5727 H   0  0  0  0  0  0  0  0  0  0  0  0
   48.9646   33.9869   38.4066 H   0  0  0  0  0  0  0  0  0  0  0  0
   47.5821   35.1339   38.4066 H   0  0  0  0  0  0  0  0  0  0  0  0
   45.5792   33.0332   40.1850 H   0  0  0  0  0  0  0  0  0  0  0  0
   45.8989   34.0982   38.7742 H   0  0  0  0  0  0  0  0  0  0  0  0
   46.4960   32.4040   38.7742 H   0  0  0  0  0  0  0  0  0  0  0  0
   48.5788   32.4851   41.4723 H   0  0  0  0  0  0  0  0  0  0  0  0
   48.0883   31.6540   39.9573 H   0  0  0  0  0  0  0  0  0  0  0  0
   49.5041   32.7594   39.9573 H   0  0  0  0  0  0  0  0  0  0  0  0
   49.1906   28.6894   48.7360 H   0  0  0  0  0  0  0  0  0  0  0  0
   49.3844   30.8049   50.2306 H   0  0  0  0  0  0  0  0  0  0  0  0
   45.8521   28.7161   45.1915 H   0  0  0  0  0  0  0  0  0  0  0  0
  1  6  2  0
  2  3  2  0
  2  1  1  0
  3  4  1  0
  4  5  2  0
  5 14  1  0
  6  5  1  0
  7  3  1  0
  8  7  1  0
  9  8  1  0
  9  7  1  0
 10 13  1  0
 10  9  1  0
 11 10  1  0
 12 10  1  0
 15 16  1  0
 17 16  2  0
 18 17  1  0
 19 14  1  0
 19 18  2  0
 20 19  1  0
 21 20  2  0
 21 22  1  0
 22 23  2  0
 23 18  1  0
 23 15  1  0
  1 24  1  0
  2 25  1  0
  7 26  1  6
  8 27  1  0
  8 28  1  0
  9 29  1  6
 11 30  1  0
 11 31  1  0
 11 32  1  0
 12 33  1  0
 12 34  1  0
 12 35  1  0
 13 36  1  0
 13 37  1  0
 13 38  1  0
 15 39  1  0
 16 40  1  0
 21 41  1  0
M  ISO  8  24  14  25  14  26  13  27  13  28  13  29  13  30   8  31   8
M  ISO  8  32   8  33   8  34   8  35   8  36   8  37   8  38   8  39   9
M  ISO  2  40  14  41  14
M  END
>  <minimizedAffinity>  (1) 
-5.82013893

>  <minimizedRMSD>  (1) 
0.614403248

$$$$
