
     RDKit          3D

 51 56  0  0  0  0  0  0  0  0999 V2000
   46.8140   33.5660   38.6450 N   0  0  0  0  0  0  0  0  0  0  0  0
   45.7770   32.7110   38.4780 C   0  0  0  0  0  0  0  0  0  0  0  0
   45.4900   32.1630   37.2520 C   0  0  0  0  0  0  0  0  0  0  0  0
   46.2840   32.4990   36.1770 C   0  0  0  0  0  0  0  0  0  0  0  0
   46.0420   32.0120   35.0490 O   0  0  0  0  0  0  0  0  0  0  0  0
   47.3210   33.3640   36.3850 N   0  0  0  0  0  0  0  0  0  0  0  0
   47.5740   33.8880   37.6190 C   0  0  0  0  0  0  0  0  0  0  0  0
   48.5320   34.6710   37.7450 O   0  0  0  0  0  0  0  0  0  0  0  0
   46.7230   34.6760   41.9680 C   0  0  0  0  0  0  0  0  0  0  0  0
   48.0550   35.0410   41.7070 C   0  0  0  0  0  0  0  0  0  0  0  0
   48.2300   34.6440   40.3810 C   0  0  0  0  0  0  0  0  0  0  0  0
   47.0370   34.0860   39.9380 C   0  0  0  0  0  0  0  0  0  0  0  0
   46.1650   34.1280   40.9270 O   0  0  0  0  0  0  0  0  0  0  0  0
   44.5170   36.1070   44.6050 C   0  0  0  0  0  0  0  0  0  0  0  0
   45.2000   35.9500   43.3520 C   0  0  0  0  0  0  0  0  0  0  0  0
   46.0180   34.8650   43.2190 C   0  0  0  0  0  0  0  0  0  0  0  0
   46.1430   33.9990   44.2640 N   0  0  0  0  0  0  0  0  0  0  0  0
   45.4840   34.1720   45.4350 C   0  0  0  0  0  0  0  0  0  0  0  0
   44.6730   35.2230   45.6080 N   0  0  0  0  0  0  0  0  0  0  0  0
   45.7330   33.1610   46.4250 N   0  0  0  0  0  0  0  0  0  0  0  0
   45.1240   33.1490   47.6190 N   0  0  0  0  0  0  0  0  0  0  0  0
   45.5530   32.0870   48.3300 C   0  0  0  0  0  0  0  0  0  0  0  0
   46.4740   31.3950   47.5560 C   0  0  0  0  0  0  0  0  0  0  0  0
   46.5710   32.0920   46.3550 C   0  0  0  0  0  0  0  0  0  0  0  0
   44.3460   31.2540   37.1260 C   0  0  0  0  0  0  0  0  0  0  0  0
   43.5940   31.1160   38.3350 N   0  0  0  0  0  0  0  0  0  0  0  0
   43.6480   30.2530   39.3650 C   0  0  0  0  0  0  0  0  0  0  0  0
   42.6740   30.6150   40.2360 N   0  0  0  0  0  0  0  0  0  0  0  0
   42.0090   31.6870   39.7770 C   0  0  0  0  0  0  0  0  0  0  0  0
   40.9500   32.4330   40.2740 C   0  0  0  0  0  0  0  0  0  0  0  0
   40.4160   32.1390   41.3800 O   0  0  0  0  0  0  0  0  0  0  0  0
   40.4450   33.4900   39.6170 N   0  0  0  0  0  0  0  0  0  0  0  0
   41.0350   33.7730   38.4460 C   0  0  0  0  0  0  0  0  0  0  0  0
   40.5980   34.8710   37.6470 N   0  0  0  0  0  0  0  0  0  0  0  0
   42.0600   33.0740   37.9350 N   0  0  0  0  0  0  0  0  0  0  0  0
   42.5890   32.0040   38.5760 C   0  0  0  0  0  0  0  0  0  0  0  0
   45.1507   32.4497   39.3437 H   0  0  0  0  0  0  0  0  0  0  0  0
   47.9249   33.6262   35.5929 H   0  0  0  0  0  0  0  0  0  0  0  0
   48.7798   35.5208   42.3811 H   0  0  0  0  0  0  0  0  0  0  0  0
   49.1511   34.7535   39.7898 H   0  0  0  0  0  0  0  0  0  0  0  0
   43.8504   36.9701   44.7488 H   0  0  0  0  0  0  0  0  0  0  0  0
   45.0698   36.6734   42.5336 H   0  0  0  0  0  0  0  0  0  0  0  0
   45.2296   31.8163   49.3459 H   0  0  0  0  0  0  0  0  0  0  0  0
   47.0176   30.4804   47.8352 H   0  0  0  0  0  0  0  0  0  0  0  0
   47.2114   31.8256   45.5012 H   0  0  0  0  0  0  0  0  0  0  0  0
   43.6781   31.6407   36.3422 H   0  0  0  0  0  0  0  0  0  0  0  0
   44.7468   30.2602   36.8777 H   0  0  0  0  0  0  0  0  0  0  0  0
   44.3491   29.4131   39.4791 H   0  0  0  0  0  0  0  0  0  0  0  0
   39.6596   34.0445   39.9865 H   0  0  0  0  0  0  0  0  0  0  0  0
   41.0633   35.0729   36.7506 H   0  0  0  0  0  0  0  0  0  0  0  0
   39.8172   35.4618   37.9665 H   0  0  0  0  0  0  0  0  0  0  0  0
  1 12  1  0
  2  1  1  0
  3  2  2  0
  4  6  1  0
  4  3  1  0
  5  4  2  0
  6  7  1  0
  7  8  2  0
  7  1  1  0
  9 16  1  0
 10  9  2  0
 11 10  1  0
 12 11  2  0
 12 13  1  0
 13  9  1  0
 14 19  2  0
 15 14  1  0
 16 15  2  0
 16 17  1  0
 17 18  2  0
 18 19  1  0
 18 20  1  0
 20 21  1  0
 21 22  2  0
 23 22  1  0
 24 20  1  0
 24 23  2  0
 25  3  1  0
 25 26  1  0
 26 36  1  0
 26 27  1  0
 27 28  2  0
 29 28  1  0
 29 30  1  0
 30 31  2  0
 32 30  1  0
 33 32  1  0
 34 33  1  0
 35 33  2  0
 35 36  1  0
 36 29  2  0
  2 37  1  0
  6 38  1  0
 10 39  1  0
 11 40  1  0
 14 41  1  0
 15 42  1  0
 22 43  1  0
 23 44  1  0
 24 45  1  0
 25 46  1  0
 25 47  1  0
 27 48  1  0
 32 49  1  0
 34 50  1  0
 34 51  1  0
M  END
>  <minimizedAffinity>  (1) 
-8.35073853

>  <minimizedRMSD>  (1) 
2.34507489

$$$$
