
     RDKit          3D

 36 38  0  0  0  0  0  0  0  0999 V2000
   48.3470   30.7570   48.2380 N   0  0  0  0  0  0  0  0  0  0  0  0
   47.8200   30.7500   47.0230 C   0  0  0  0  0  0  0  0  0  0  0  0
   47.1700   31.9450   46.7960 C   0  0  0  0  0  0  0  0  0  0  0  0
   47.3130   32.6800   47.8990 N   0  0  0  0  0  0  0  0  0  0  0  0
   48.0280   31.9650   48.7810 C   0  0  0  0  0  0  0  0  0  0  0  0
   49.6050   30.1280   50.1560 C   0  0  0  0  0  0  0  0  0  0  0  0
   49.0900   29.7700   48.8940 C   0  0  0  0  0  0  0  0  0  0  0  0
   49.3560   28.4820   48.4100 C   0  0  0  0  0  0  0  0  0  0  0  0
   50.1010   27.6560   49.1970 N   0  0  0  0  0  0  0  0  0  0  0  0
   50.5800   28.0210   50.3930 C   0  0  0  0  0  0  0  0  0  0  0  0
   50.3260   29.2550   50.8580 N   0  0  0  0  0  0  0  0  0  0  0  0
   46.4610   32.3490   45.6000 C   0  0  0  0  0  0  0  0  0  0  0  0
   45.8870   31.4810   44.6760 C   0  0  0  0  0  0  0  0  0  0  0  0
   45.3160   32.2750   43.6950 C   0  0  0  0  0  0  0  0  0  0  0  0
   45.5730   33.5800   44.0750 C   0  0  0  0  0  0  0  0  0  0  0  0
   46.2400   33.5760   45.1860 O   0  0  0  0  0  0  0  0  0  0  0  0
   45.1560   34.8240   43.3380 C   0  0  0  0  0  0  0  0  0  0  0  0
   44.5550   35.7950   44.3310 C   0  0  0  0  0  0  0  0  0  0  0  0
   44.0470   34.4690   42.3420 C   0  0  0  0  0  0  0  0  0  0  0  0
   46.2940   35.4470   42.5860 C   0  0  0  0  0  0  0  0  0  0  0  0
   47.8899   29.9191   46.3055 H   0  0  0  0  0  0  0  0  0  0  0  0
   48.3130   32.3026   49.7884 H   0  0  0  0  0  0  0  0  0  0  0  0
   49.4110   31.1315   50.5627 H   0  0  0  0  0  0  0  0  0  0  0  0
   48.9777   28.1504   47.4318 H   0  0  0  0  0  0  0  0  0  0  0  0
   51.1768   27.3156   50.9899 H   0  0  0  0  0  0  0  0  0  0  0  0
   45.8868   30.3818   44.7166 H   0  0  0  0  0  0  0  0  0  0  0  0
   44.7717   31.9381   42.8004 H   0  0  0  0  0  0  0  0  0  0  0  0
   44.7675   35.4516   45.3542 H   0  0  0  0  0  0  0  0  0  0  0  0
   44.9940   36.7923   44.1803 H   0  0  0  0  0  0  0  0  0  0  0  0
   43.4666   35.8469   44.1803 H   0  0  0  0  0  0  0  0  0  0  0  0
   43.1396   34.1785   42.8918 H   0  0  0  0  0  0  0  0  0  0  0  0
   43.8288   35.3422   41.7096 H   0  0  0  0  0  0  0  0  0  0  0  0
   44.3765   33.6314   41.7096 H   0  0  0  0  0  0  0  0  0  0  0  0
   47.0285   35.8491   43.2994 H   0  0  0  0  0  0  0  0  0  0  0  0
   46.7755   34.6866   41.9535 H   0  0  0  0  0  0  0  0  0  0  0  0
   45.9129   36.2623   41.9535 H   0  0  0  0  0  0  0  0  0  0  0  0
  1  5  1  0
  1  7  1  0
  2  1  1  0
  3  2  2  0
  3  4  1  0
  4  5  2  0
  6 11  2  0
  7  6  1  0
  8  7  2  0
  8  9  1  0
  9 10  2  0
 10 11  1  0
 12  3  1  0
 13 12  2  0
 14 15  2  0
 14 13  1  0
 15 16  1  0
 16 12  1  0
 17 15  1  0
 17 18  1  0
 19 17  1  0
 20 17  1  0
  2 21  1  0
  5 22  1  0
  6 23  1  0
  8 24  1  0
 10 25  1  0
 13 26  1  0
 14 27  1  0
 18 28  1  0
 18 29  1  0
 18 30  1  0
 19 31  1  0
 19 32  1  0
 19 33  1  0
 20 34  1  0
 20 35  1  0
 20 36  1  0
M  ISO  8  21  14  22  14  23  14  24  14  25  14  26  14  27  14  28   8
M  ISO  8  29   8  30   8  31   8  32   8  33   8  34   8  35   8  36   8
M  END
>  <minimizedAffinity>  (1) 
-4.79294872

>  <minimizedRMSD>  (1) 
2.42908835

$$$$
