
     RDKit          3D

 45 49  0  0  0  0  0  0  0  0999 V2000
   46.1280   33.1790   38.7470 C   0  0  0  0  0  0  0  0  0  0  0  0
   46.8490   32.6790   37.7120 C   0  0  0  0  0  0  0  0  0  0  0  0
   46.2530   31.9520   36.6850 C   0  0  0  0  0  0  0  0  0  0  0  0
   44.8690   31.7990   36.8370 C   0  0  0  0  0  0  0  0  0  0  0  0
   44.1100   32.2940   37.8760 C   0  0  0  0  0  0  0  0  0  0  0  0
   44.7770   32.9970   38.8380 N   0  0  0  0  0  0  0  0  0  0  0  0
   46.7780   34.7540   42.0040 C   0  0  0  0  0  0  0  0  0  0  0  0
   48.0350   35.3090   41.9030 C   0  0  0  0  0  0  0  0  0  0  0  0
   48.6410   35.1260   40.6820 C   0  0  0  0  0  0  0  0  0  0  0  0
   48.0300   34.4340   39.6340 C   0  0  0  0  0  0  0  0  0  0  0  0
   46.7640   33.9050   39.8130 C   0  0  0  0  0  0  0  0  0  0  0  0
   46.1850   34.0940   41.0160 N   0  0  0  0  0  0  0  0  0  0  0  0
   44.4970   36.0270   44.6480 C   0  0  0  0  0  0  0  0  0  0  0  0
   45.1920   35.9350   43.4310 C   0  0  0  0  0  0  0  0  0  0  0  0
   46.0390   34.8860   43.2560 C   0  0  0  0  0  0  0  0  0  0  0  0
   46.1650   33.9780   44.2830 N   0  0  0  0  0  0  0  0  0  0  0  0
   45.4830   34.0980   45.4400 C   0  0  0  0  0  0  0  0  0  0  0  0
   44.6460   35.1300   45.6190 N   0  0  0  0  0  0  0  0  0  0  0  0
   42.6710   32.0460   37.9210 C   0  0  0  0  0  0  0  0  0  0  0  0
   42.4030   31.5400   39.2770 N   0  0  0  0  0  0  0  0  0  0  0  0
   43.0720   30.6920   40.0490 C   0  0  0  0  0  0  0  0  0  0  0  0
   42.4310   30.5350   41.2210 N   0  0  0  0  0  0  0  0  0  0  0  0
   41.3080   31.3090   41.2120 C   0  0  0  0  0  0  0  0  0  0  0  0
   40.2790   31.5580   42.1080 C   0  0  0  0  0  0  0  0  0  0  0  0
   40.3350   30.9540   43.2210 O   0  0  0  0  0  0  0  0  0  0  0  0
   39.2720   32.3980   41.8100 N   0  0  0  0  0  0  0  0  0  0  0  0
   39.3310   32.9740   40.5970 C   0  0  0  0  0  0  0  0  0  0  0  0
   38.3050   33.8830   40.1880 N   0  0  0  0  0  0  0  0  0  0  0  0
   40.3050   32.7670   39.6920 N   0  0  0  0  0  0  0  0  0  0  0  0
   41.3190   31.9360   39.9630 C   0  0  0  0  0  0  0  0  0  0  0  0
   47.9348   32.8529   37.6835 H   0  0  0  0  0  0  0  0  0  0  0  0
   46.8153   31.5374   35.8354 H   0  0  0  0  0  0  0  0  0  0  0  0
   44.3397   31.2325   36.0566 H   0  0  0  0  0  0  0  0  0  0  0  0
   48.5141   35.8533   42.7302 H   0  0  0  0  0  0  0  0  0  0  0  0
   49.6473   35.5414   40.5246 H   0  0  0  0  0  0  0  0  0  0  0  0
   48.5514   34.3104   38.6733 H   0  0  0  0  0  0  0  0  0  0  0  0
   43.8064   36.8689   44.8034 H   0  0  0  0  0  0  0  0  0  0  0  0
   45.0550   36.6896   42.6425 H   0  0  0  0  0  0  0  0  0  0  0  0
   45.6132   33.3501   46.2361 H   0  0  0  0  0  0  0  0  0  0  0  0
   42.1143   32.9775   37.7409 H   0  0  0  0  0  0  0  0  0  0  0  0
   42.3552   31.3302   37.1478 H   0  0  0  0  0  0  0  0  0  0  0  0
   44.0115   30.1918   39.7712 H   0  0  0  0  0  0  0  0  0  0  0  0
   38.5040   32.5880   42.4696 H   0  0  0  0  0  0  0  0  0  0  0  0
   38.3491   34.3250   39.2587 H   0  0  0  0  0  0  0  0  0  0  0  0
   37.5222   34.0955   40.8228 H   0  0  0  0  0  0  0  0  0  0  0  0
  1  6  1  0
  1 11  1  0
  2  1  2  0
  3  4  2  0
  3  2  1  0
  4  5  1  0
  5 19  1  0
  5  6  2  0
  7 15  1  0
  8  7  2  0
  9  8  1  0
 10 11  1  0
 10  9  2  0
 11 12  2  0
 12  7  1  0
 13 18  2  0
 14 13  1  0
 15 14  2  0
 15 16  1  0
 16 17  2  0
 17 18  1  0
 19 20  1  0
 20 30  1  0
 20 21  1  0
 21 22  2  0
 23 22  1  0
 23 24  1  0
 24 25  2  0
 26 24  1  0
 27 26  1  0
 28 27  1  0
 29 30  1  0
 29 27  2  0
 30 23  2  0
  2 31  1  0
  3 32  1  0
  4 33  1  0
  8 34  1  0
  9 35  1  0
 10 36  1  0
 13 37  1  0
 14 38  1  0
 17 39  1  0
 19 40  1  0
 19 41  1  0
 21 42  1  0
 26 43  1  0
 28 44  1  0
 28 45  1  0
M  END
>  <minimizedAffinity>  (1) 
-7.11802959

>  <minimizedRMSD>  (1) 
3.32903767

$$$$
