
     RDKit          3D

 45 47  0  0  1  0  0  0  0  0999 V2000
   46.9070   34.3610   40.3550 C   0  0  1  0  0  0  0  0  0  0  0  0
   48.1380   34.0010   39.5020 C   0  0  0  0  0  0  0  0  0  0  0  0
   47.5760   33.7190   38.1120 C   0  0  0  0  0  0  0  0  0  0  0  0
   46.7900   32.4410   38.1610 C   0  0  0  0  0  0  0  0  0  0  0  0
   46.5190   32.0460   39.5750 C   0  0  0  0  0  0  0  0  0  0  0  0
   45.9970   33.2350   40.4130 C   0  0  2  0  0  0  0  0  0  0  0  0
   47.3830   34.7400   41.7760 C   0  0  0  0  0  0  0  0  0  0  0  0
   46.8180   33.7490   42.6890 C   0  0  0  0  0  0  0  0  0  0  0  0
   45.9680   33.6690   44.9400 C   0  0  0  0  0  0  0  0  0  0  0  0
   46.0410   34.3720   43.7360 C   0  0  0  0  0  0  0  0  0  0  0  0
   45.3800   35.5320   43.5410 C   0  0  0  0  0  0  0  0  0  0  0  0
   44.6280   36.0010   44.5690 N   0  0  0  0  0  0  0  0  0  0  0  0
   44.5290   35.3520   45.7470 C   0  0  0  0  0  0  0  0  0  0  0  0
   45.1980   34.1860   45.9360 N   0  0  0  0  0  0  0  0  0  0  0  0
   44.6770   33.5410   39.7710 C   0  0  0  0  0  0  0  0  0  0  0  0
   43.8250   34.4630   40.6340 C   0  0  0  0  0  0  0  0  0  0  0  0
   42.6260   34.8110   39.8300 N   0  0  0  0  0  0  0  0  0  0  0  0
   41.4940   35.2990   40.3670 N   0  0  0  0  0  0  0  0  0  0  0  0
   40.5770   35.5220   39.4090 C   0  0  0  0  0  0  0  0  0  0  0  0
   41.1580   35.1550   38.2130 C   0  0  0  0  0  0  0  0  0  0  0  0
   42.4340   34.7160   38.4990 C   0  0  0  0  0  0  0  0  0  0  0  0
   46.3747   35.2117   39.9044 H   0  0  0  0  0  0  0  0  0  0  0  0
   48.8475   34.8410   39.4706 H   0  0  0  0  0  0  0  0  0  0  0  0
   48.6906   33.1418   39.9100 H   0  0  0  0  0  0  0  0  0  0  0  0
   48.4017   33.6184   37.3923 H   0  0  0  0  0  0  0  0  0  0  0  0
   46.9252   34.5475   37.7956 H   0  0  0  0  0  0  0  0  0  0  0  0
   45.8341   32.5839   37.6358 H   0  0  0  0  0  0  0  0  0  0  0  0
   47.3748   31.6456   37.6759 H   0  0  0  0  0  0  0  0  0  0  0  0
   45.7639   31.2462   39.5828 H   0  0  0  0  0  0  0  0  0  0  0  0
   47.4638   31.7020   40.0210 H   0  0  0  0  0  0  0  0  0  0  0  0
   45.9062   33.0100   41.4859 H   0  0  0  0  0  0  0  0  0  0  0  0
   48.4816   34.7178   41.8258 H   0  0  0  0  0  0  0  0  0  0  0  0
   47.0557   35.7554   42.0441 H   0  0  0  0  0  0  0  0  0  0  0  0
   46.1683   33.0683   42.1193 H   0  0  0  0  0  0  0  0  0  0  0  0
   47.6482   33.1999   43.1572 H   0  0  0  0  0  0  0  0  0  0  0  0
   46.5163   32.7257   45.0794 H   0  0  0  0  0  0  0  0  0  0  0  0
   45.4478   36.0758   42.5872 H   0  0  0  0  0  0  0  0  0  0  0  0
   43.9069   35.7669   46.5537 H   0  0  0  0  0  0  0  0  0  0  0  0
   44.8577   34.0281   38.8014 H   0  0  0  0  0  0  0  0  0  0  0  0
   44.1323   32.5938   39.6439 H   0  0  0  0  0  0  0  0  0  0  0  0
   43.5253   33.9475   41.5584 H   0  0  0  0  0  0  0  0  0  0  0  0
   44.3846   35.3653   40.9216 H   0  0  0  0  0  0  0  0  0  0  0  0
   39.5613   35.9197   39.5514 H   0  0  0  0  0  0  0  0  0  0  0  0
   40.6914   35.2033   37.2180 H   0  0  0  0  0  0  0  0  0  0  0  0
   43.1690   34.3509   37.7665 H   0  0  0  0  0  0  0  0  0  0  0  0
  1  6  1  0
  1  7  1  0
  2  1  1  0
  3  4  1  0
  3  2  1  0
  4  5  1  0
  5  6  1  0
  7  8  1  0
  8 10  1  0
  9 14  2  0
 10  9  1  0
 11 10  2  0
 11 12  1  0
 12 13  2  0
 13 14  1  0
 15  6  1  0
 15 16  1  0
 17 18  1  0
 17 16  1  0
 19 18  2  0
 20 21  2  0
 20 19  1  0
 21 17  1  0
  1 22  1  6
  2 23  1  0
  2 24  1  0
  3 25  1  0
  3 26  1  0
  4 27  1  0
  4 28  1  0
  5 29  1  0
  5 30  1  0
  6 31  1  1
  7 32  1  0
  7 33  1  0
  8 34  1  0
  8 35  1  0
  9 36  1  0
 11 37  1  0
 13 38  1  0
 15 39  1  0
 15 40  1  0
 16 41  1  0
 16 42  1  0
 19 43  1  0
 20 44  1  0
 21 45  1  0
M  ISO  8  22  13  23  13  24  13  25  13  26  13  27  13  28  13  29  13
M  ISO  8  30  13  31  13  32   8  33   8  34   8  35   8  36  14  37  14
M  ISO  8  38  14  39   8  40   8  41   8  42   8  43  14  44  14  45  14
M  END
>  <minimizedAffinity>  (1) 
-4.94643354

>  <minimizedRMSD>  (1) 
1.9786607

$$$$
