
     RDKit          3D

 43 47  0  0  0  0  0  0  0  0999 V2000
   45.5890   33.3370   45.6870 C   0  0  0  0  0  0  0  0  0  0  0  0
   45.7570   33.0720   47.0550 C   0  0  0  0  0  0  0  0  0  0  0  0
   45.9870   31.7160   47.1310 C   0  0  0  0  0  0  0  0  0  0  0  0
   45.9610   31.1880   45.8810 N   0  0  0  0  0  0  0  0  0  0  0  0
   45.7250   32.1540   45.0270 N   0  0  0  0  0  0  0  0  0  0  0  0
   46.1700   29.7980   45.6540 C   0  0  0  0  0  0  0  0  0  0  0  0
   46.2660   29.2070   44.3020 C   0  0  0  0  0  0  0  0  0  0  0  0
   46.5320   27.4070   44.7630 S   0  0  0  0  0  0  0  0  0  0  0  0
   46.4590   27.8160   46.6100 C   0  0  0  0  0  0  0  0  0  0  0  0
   46.2940   28.9290   46.6480 N   0  0  0  0  0  0  0  0  0  0  0  0
   46.6190   26.7060   47.4920 N   0  0  0  0  0  0  0  0  0  0  0  0
   47.7040   25.9200   47.3760 C   0  0  0  0  0  0  0  0  0  0  0  0
   47.5980   24.9530   48.3330 N   0  0  0  0  0  0  0  0  0  0  0  0
   46.4680   25.1480   49.0190 C   0  0  0  0  0  0  0  0  0  0  0  0
   45.7880   24.5510   50.0790 C   0  0  0  0  0  0  0  0  0  0  0  0
   44.6200   25.0610   50.5100 N   0  0  0  0  0  0  0  0  0  0  0  0
   44.0420   26.1480   49.9670 C   0  0  0  0  0  0  0  0  0  0  0  0
   44.6790   26.7440   48.9400 N   0  0  0  0  0  0  0  0  0  0  0  0
   45.8310   26.2690   48.4910 C   0  0  0  0  0  0  0  0  0  0  0  0
   46.4160   23.4030   50.6380 N   0  0  0  0  0  0  0  0  0  0  0  0
   45.2640   34.7620   44.6750 S   0  0  0  0  0  0  0  0  0  0  0  0
   47.0770   34.5800   41.0820 C   0  0  0  0  0  0  0  0  0  0  0  0
   46.8790   34.8070   42.4580 C   0  0  0  0  0  0  0  0  0  0  0  0
   45.6320   34.5210   42.9810 C   0  0  0  0  0  0  0  0  0  0  0  0
   44.6670   34.0400   42.1490 N   0  0  0  0  0  0  0  0  0  0  0  0
   44.9080   33.8400   40.8340 C   0  0  0  0  0  0  0  0  0  0  0  0
   46.0950   34.1090   40.3210 N   0  0  0  0  0  0  0  0  0  0  0  0
   48.4540   34.9230   40.6400 C   0  0  0  0  0  0  0  0  0  0  0  0
   49.0890   35.9160   41.5810 C   0  0  0  0  0  0  0  0  0  0  0  0
   45.7143   33.7912   47.8862 H   0  0  0  0  0  0  0  0  0  0  0  0
   46.1637   31.1507   48.0579 H   0  0  0  0  0  0  0  0  0  0  0  0
   46.2005   29.6839   43.3129 H   0  0  0  0  0  0  0  0  0  0  0  0
   48.5211   26.0347   46.6485 H   0  0  0  0  0  0  0  0  0  0  0  0
   43.0853   26.5356   50.3472 H   0  0  0  0  0  0  0  0  0  0  0  0
   45.9745   22.9063   51.4249 H   0  0  0  0  0  0  0  0  0  0  0  0
   47.3121   23.0687   50.2557 H   0  0  0  0  0  0  0  0  0  0  0  0
   47.6875   35.1977   43.0933 H   0  0  0  0  0  0  0  0  0  0  0  0
   44.1092   33.4501   40.1860 H   0  0  0  0  0  0  0  0  0  0  0  0
   49.0636   34.0076   40.6172 H   0  0  0  0  0  0  0  0  0  0  0  0
   48.3998   35.3732   39.6378 H   0  0  0  0  0  0  0  0  0  0  0  0
   48.8948   35.6123   42.6202 H   0  0  0  0  0  0  0  0  0  0  0  0
   50.1743   35.9461   41.4045 H   0  0  0  0  0  0  0  0  0  0  0  0
   48.6610   36.9138   41.4045 H   0  0  0  0  0  0  0  0  0  0  0  0
  1  2  1  0
  2  3  2  0
  4  3  1  0
  5  1  2  0
  5  4  1  0
  6  4  1  0
  6 10  1  0
  7  8  1  0
  7  6  2  0
  8  9  1  0
  9 10  2  0
  9 11  1  0
 11 19  1  0
 12 11  1  0
 12 13  2  0
 13 14  1  0
 14 15  2  0
 15 16  1  0
 15 20  1  0
 17 16  2  0
 18 17  1  0
 19 18  2  0
 19 14  1  0
 21  1  1  0
 22 23  2  0
 23 24  1  0
 24 21  1  0
 25 24  2  0
 26 25  1  0
 27 26  2  0
 27 22  1  0
 28 22  1  0
 28 29  1  0
  2 30  1  0
  3 31  1  0
  7 32  1  0
 12 33  1  0
 17 34  1  0
 20 35  1  0
 20 36  1  0
 23 37  1  0
 26 38  1  0
 28 39  1  0
 28 40  1  0
 29 41  1  0
 29 42  1  0
 29 43  1  0
M  ISO  8  30  14  31  14  32  14  33  14  34  14  37  14  38  14  39   8
M  ISO  4  40   8  41   8  42   8  43   8
M  END
>  <minimizedAffinity>  (1) 
-5.76537132

>  <minimizedRMSD>  (1) 
3.21011209

$$$$
