
     RDKit          3D

 27 29  0  0  0  0  0  0  0  0999 V2000
   43.6750   33.1460   41.8250 C   0  0  0  0  0  0  0  0  0  0  0  0
   44.3440   34.3770   42.0760 C   0  0  0  0  0  0  0  0  0  0  0  0
   43.7980   35.5450   41.5920 C   0  0  0  0  0  0  0  0  0  0  0  0
   42.6320   35.4870   40.8870 N   0  0  0  0  0  0  0  0  0  0  0  0
   42.0200   34.3060   40.6650 C   0  0  0  0  0  0  0  0  0  0  0  0
   42.5290   33.1350   41.1270 N   0  0  0  0  0  0  0  0  0  0  0  0
   40.7690   34.2010   39.9230 C   0  0  0  0  0  0  0  0  0  0  0  0
   40.7240   34.4450   38.5800 C   0  0  0  0  0  0  0  0  0  0  0  0
   39.5870   34.3630   37.8050 C   0  0  0  0  0  0  0  0  0  0  0  0
   38.4050   34.0120   38.4160 C   0  0  0  0  0  0  0  0  0  0  0  0
   38.4500   33.7640   39.7910 C   0  0  0  0  0  0  0  0  0  0  0  0
   39.5970   33.8570   40.5090 N   0  0  0  0  0  0  0  0  0  0  0  0
   45.8880   34.3260   43.0270 S   0  0  0  0  0  0  0  0  0  0  0  0
   48.2790   34.8180   39.9600 N   0  0  0  0  0  0  0  0  0  0  0  0
   47.1990   34.3190   40.5660 N   0  0  0  0  0  0  0  0  0  0  0  0
   47.1700   34.7490   41.8330 C   0  0  0  0  0  0  0  0  0  0  0  0
   48.2860   35.5440   41.9970 C   0  0  0  0  0  0  0  0  0  0  0  0
   48.9870   35.5820   40.7990 C   0  0  0  0  0  0  0  0  0  0  0  0
   44.0975   32.2035   42.2033 H   0  0  0  0  0  0  0  0  0  0  0  0
   44.2947   36.5099   41.7713 H   0  0  0  0  0  0  0  0  0  0  0  0
   41.6627   34.7273   38.0808 H   0  0  0  0  0  0  0  0  0  0  0  0
   39.6236   34.5728   36.7258 H   0  0  0  0  0  0  0  0  0  0  0  0
   37.4667   33.9302   37.8478 H   0  0  0  0  0  0  0  0  0  0  0  0
   37.5214   33.4832   40.3096 H   0  0  0  0  0  0  0  0  0  0  0  0
   48.5329   34.6386   38.9780 H   0  0  0  0  0  0  0  0  0  0  0  0
   48.5729   36.0622   42.9239 H   0  0  0  0  0  0  0  0  0  0  0  0
   49.9211   36.1226   40.5863 H   0  0  0  0  0  0  0  0  0  0  0  0
  1  2  2  0
  2 13  1  0
  3  2  1  0
  4  3  2  0
  5  4  1  0
  5  6  2  0
  6  1  1  0
  7 12  1  0
  7  5  1  0
  8  7  2  0
  9 10  2  0
  9  8  1  0
 10 11  1  0
 11 12  2  0
 14 15  1  0
 14 18  1  0
 15 16  2  0
 16 17  1  0
 16 13  1  0
 18 17  2  0
  1 19  1  0
  3 20  1  0
  8 21  1  0
  9 22  1  0
 10 23  1  0
 11 24  1  0
 14 25  1  0
 17 26  1  0
 18 27  1  0
M  ISO  8  19  14  20  14  21  14  22  14  23  14  24  14  25   9  26  14
M  ISO  1  27  14
M  END
>  <minimizedAffinity>  (1) 
-5.28789091

>  <minimizedRMSD>  (1) 
7.2799201

$$$$
