
     RDKit          3D

 38 41  0  0  0  0  0  0  0  0999 V2000
   47.5830   33.9590   39.5370 C   0  0  0  0  0  0  0  0  0  0  0  0
   46.3700   33.4570   39.9060 C   0  0  0  0  0  0  0  0  0  0  0  0
   45.8040   33.7200   41.1320 C   0  0  0  0  0  0  0  0  0  0  0  0
   46.4700   34.5180   42.0310 C   0  0  0  0  0  0  0  0  0  0  0  0
   47.6820   35.0150   41.6500 C   0  0  0  0  0  0  0  0  0  0  0  0
   48.2760   34.7750   40.4440 C   0  0  0  0  0  0  0  0  0  0  0  0
   44.4610   36.0710   44.8330 C   0  0  0  0  0  0  0  0  0  0  0  0
   45.0460   35.9070   43.5500 C   0  0  0  0  0  0  0  0  0  0  0  0
   45.8340   34.7660   43.3070 C   0  0  0  0  0  0  0  0  0  0  0  0
   45.9990   33.8820   44.3000 N   0  0  0  0  0  0  0  0  0  0  0  0
   45.4250   34.0670   45.5150 C   0  0  0  0  0  0  0  0  0  0  0  0
   44.6720   35.1420   45.7730 N   0  0  0  0  0  0  0  0  0  0  0  0
   48.2520   33.5840   37.9560 S   0  0  0  0  0  0  0  0  0  0  0  0
   48.7940   34.8910   37.3620 O   0  0  0  0  0  0  0  0  0  0  0  0
   49.3310   32.5610   38.0760 O   0  0  0  0  0  0  0  0  0  0  0  0
   46.9610   33.0110   36.9300 C   0  0  0  0  0  0  0  0  0  0  0  0
   45.6880   33.4010   36.7950 N   0  0  0  0  0  0  0  0  0  0  0  0
   45.0920   32.6900   35.9130 O   0  0  0  0  0  0  0  0  0  0  0  0
   45.9270   31.7870   35.4110 C   0  0  0  0  0  0  0  0  0  0  0  0
   47.0880   32.0030   36.0580 N   0  0  0  0  0  0  0  0  0  0  0  0
   45.6030   30.8280   34.4100 N   0  0  0  0  0  0  0  0  0  0  0  0
   44.3520   30.3390   34.4050 C   0  0  0  0  0  0  0  0  0  0  0  0
   44.0240   29.4090   33.4390 C   0  0  0  0  0  0  0  0  0  0  0  0
   44.9500   28.9880   32.5010 C   0  0  0  0  0  0  0  0  0  0  0  0
   44.7500   28.1490   31.5840 O   0  0  0  0  0  0  0  0  0  0  0  0
   46.1680   29.5520   32.6120 N   0  0  0  0  0  0  0  0  0  0  0  0
   46.5530   30.4670   33.5310 C   0  0  0  0  0  0  0  0  0  0  0  0
   47.7270   30.9160   33.5250 O   0  0  0  0  0  0  0  0  0  0  0  0
   45.8236   32.8178   39.1968 H   0  0  0  0  0  0  0  0  0  0  0  0
   44.8236   33.2938   41.3913 H   0  0  0  0  0  0  0  0  0  0  0  0
   48.2193   35.6549   42.3655 H   0  0  0  0  0  0  0  0  0  0  0  0
   49.2576   35.2038   40.1939 H   0  0  0  0  0  0  0  0  0  0  0  0
   43.8407   36.9525   45.0523 H   0  0  0  0  0  0  0  0  0  0  0  0
   44.8867   36.6568   42.7611 H   0  0  0  0  0  0  0  0  0  0  0  0
   45.5820   33.3174   46.3046 H   0  0  0  0  0  0  0  0  0  0  0  0
   43.6114   30.6696   35.1481 H   0  0  0  0  0  0  0  0  0  0  0  0
   43.0055   28.9941   33.4144 H   0  0  0  0  0  0  0  0  0  0  0  0
   46.8787   29.2566   31.9275 H   0  0  0  0  0  0  0  0  0  0  0  0
  1  2  2  0
  1  6  1  0
  2  3  1  0
  3  4  2  0
  4  9  1  0
  5  4  1  0
  6  5  2  0
  7 12  2  0
  8  7  1  0
  9  8  2  0
  9 10  1  0
 10 11  2  0
 11 12  1  0
 13 15  2  0
 13  1  1  0
 14 13  2  0
 16 13  1  0
 17 16  2  0
 18 17  1  0
 19 18  1  0
 19 20  2  0
 20 16  1  0
 21 19  1  0
 22 21  1  0
 23 22  2  0
 24 26  1  0
 24 23  1  0
 25 24  2  0
 26 27  1  0
 27 21  1  0
 28 27  2  0
  2 29  1  0
  3 30  1  0
  5 31  1  0
  6 32  1  0
  7 33  1  0
  8 34  1  0
 11 35  1  0
 22 36  1  0
 23 37  1  0
 26 38  1  0
M  END
>  <minimizedAffinity>  (1) 
-7.06581497

>  <minimizedRMSD>  (1) 
1.24849319

$$$$
