
     RDKit          3D

 40 43  0  0  0  0  0  0  0  0999 V2000
   42.9790   33.9980   41.4390 C   0  0  0  0  0  0  0  0  0  0  0  0
   42.9360   33.5200   40.1300 C   0  0  0  0  0  0  0  0  0  0  0  0
   43.7000   32.3860   39.8660 C   0  0  0  0  0  0  0  0  0  0  0  0
   44.4300   31.8160   40.8740 N   0  0  0  0  0  0  0  0  0  0  0  0
   44.4280   32.3190   42.0990 C   0  0  0  0  0  0  0  0  0  0  0  0
   43.7050   33.4120   42.3920 N   0  0  0  0  0  0  0  0  0  0  0  0
   43.6740   31.8740   38.5270 N   0  0  0  0  0  0  0  0  0  0  0  0
   44.5290   32.4270   37.6150 C   0  0  0  0  0  0  0  0  0  0  0  0
   44.4910   31.9270   36.3440 C   0  0  0  0  0  0  0  0  0  0  0  0
   43.6380   30.9040   35.9620 C   0  0  0  0  0  0  0  0  0  0  0  0
   43.6620   30.5020   34.7830 O   0  0  0  0  0  0  0  0  0  0  0  0
   42.8120   30.3890   36.8990 N   0  0  0  0  0  0  0  0  0  0  0  0
   42.8460   30.8770   38.1460 C   0  0  0  0  0  0  0  0  0  0  0  0
   42.0660   30.3730   38.9790 O   0  0  0  0  0  0  0  0  0  0  0  0
   45.4330   32.5390   35.3450 C   0  0  0  0  0  0  0  0  0  0  0  0
   42.1480   34.2060   39.2020 N   0  0  0  0  0  0  0  0  0  0  0  0
   42.6390   35.1710   38.4880 N   0  0  0  0  0  0  0  0  0  0  0  0
   41.6620   35.6650   37.6700 C   0  0  0  0  0  0  0  0  0  0  0  0
   40.5300   34.9060   37.9560 C   0  0  0  0  0  0  0  0  0  0  0  0
   40.8640   33.9710   38.9470 C   0  0  0  0  0  0  0  0  0  0  0  0
   39.9410   33.0500   39.4610 N   0  0  0  0  0  0  0  0  0  0  0  0
   39.5350   31.8540   38.9970 C   0  0  0  0  0  0  0  0  0  0  0  0
   38.6010   31.1000   39.6760 C   0  0  0  0  0  0  0  0  0  0  0  0
   38.0420   31.5430   40.8660 C   0  0  0  0  0  0  0  0  0  0  0  0
   37.1910   30.8200   41.4530 O   0  0  0  0  0  0  0  0  0  0  0  0
   38.4690   32.7410   41.3030 N   0  0  0  0  0  0  0  0  0  0  0  0
   39.3810   33.4710   40.6350 C   0  0  0  0  0  0  0  0  0  0  0  0
   39.6630   34.5810   41.2020 O   0  0  0  0  0  0  0  0  0  0  0  0
   42.3920   34.8922   41.6954 H   0  0  0  0  0  0  0  0  0  0  0  0
   45.0257   31.8357   42.8859 H   0  0  0  0  0  0  0  0  0  0  0  0
   45.2174   33.2389   37.8922 H   0  0  0  0  0  0  0  0  0  0  0  0
   42.1618   29.6278   36.6566 H   0  0  0  0  0  0  0  0  0  0  0  0
   46.2407   33.0637   35.8763 H   0  0  0  0  0  0  0  0  0  0  0  0
   45.8631   31.7474   34.7138 H   0  0  0  0  0  0  0  0  0  0  0  0
   44.8845   33.2537   34.7138 H   0  0  0  0  0  0  0  0  0  0  0  0
   41.7507   36.4853   36.9425 H   0  0  0  0  0  0  0  0  0  0  0  0
   39.5424   35.0202   37.4852 H   0  0  0  0  0  0  0  0  0  0  0  0
   39.9568   31.4697   38.0566 H   0  0  0  0  0  0  0  0  0  0  0  0
   38.2928   30.1271   39.2655 H   0  0  0  0  0  0  0  0  0  0  0  0
   38.0834   33.1139   42.1823 H   0  0  0  0  0  0  0  0  0  0  0  0
  1  6  2  0
  2  1  1  0
  3  2  2  0
  3  4  1  0
  4  5  2  0
  5  6  1  0
  7  3  1  0
  8  7  1  0
  9  8  2  0
 10  9  1  0
 10 12  1  0
 11 10  2  0
 12 13  1  0
 13  7  1  0
 13 14  2  0
 15  9  1  0
 16  2  1  0
 17 16  1  0
 18 19  1  0
 18 17  2  0
 19 20  2  0
 20 16  1  0
 20 21  1  0
 21 27  1  0
 22 21  1  0
 22 23  2  0
 23 24  1  0
 24 26  1  0
 24 25  2  0
 27 28  2  0
 27 26  1  0
  1 29  1  0
  5 30  1  0
  8 31  1  0
 12 32  1  0
 15 33  1  0
 15 34  1  0
 15 35  1  0
 18 36  1  0
 19 37  1  0
 22 38  1  0
 23 39  1  0
 26 40  1  0
M  ISO  8  29  14  30  14  31  14  32   9  33   8  34   8  35   8  36  14
M  ISO  4  37  14  38  14  39  14  40   9
M  END
>  <minimizedAffinity>  (1) 
-5.31419516

>  <minimizedRMSD>  (1) 
4.26109648

$$$$
