
     RDKit          3D

 43 46  0  0  1  0  0  0  0  0999 V2000
   45.7400   33.6950   42.1250 N   0  0  0  0  0  0  0  0  0  0  0  0
   46.9290   33.9050   41.3120 C   0  0  0  0  0  0  0  0  0  0  0  0
   46.3220   33.8360   39.9320 C   0  0  0  0  0  0  0  0  0  0  0  0
   45.5160   32.5790   40.0460 C   0  0  0  0  0  0  0  0  0  0  0  0
   44.9590   32.6580   41.4310 C   0  0  2  0  0  0  0  0  0  0  0  0
   44.5000   36.1420   44.6190 C   0  0  0  0  0  0  0  0  0  0  0  0
   44.8530   35.6010   43.3880 C   0  0  0  0  0  0  0  0  0  0  0  0
   45.3580   34.3130   43.3250 C   0  0  0  0  0  0  0  0  0  0  0  0
   45.4790   33.6420   44.5070 N   0  0  0  0  0  0  0  0  0  0  0  0
   45.1310   34.1800   45.6960 C   0  0  0  0  0  0  0  0  0  0  0  0
   44.6440   35.4280   45.7390 N   0  0  0  0  0  0  0  0  0  0  0  0
   45.3270   33.3300   46.8190 N   0  0  0  0  0  0  0  0  0  0  0  0
   43.5620   32.8250   41.5310 N   0  0  0  0  0  0  0  0  0  0  0  0
   42.8350   33.8810   41.1810 C   0  0  0  0  0  0  0  0  0  0  0  0
   41.4540   33.9550   41.3190 C   0  0  0  0  0  0  0  0  0  0  0  0
   40.7750   32.8740   41.8500 C   0  0  0  0  0  0  0  0  0  0  0  0
   39.5190   32.8740   42.0030 O   0  0  0  0  0  0  0  0  0  0  0  0
   41.4960   31.8050   42.2060 N   0  0  0  0  0  0  0  0  0  0  0  0
   42.8220   31.7980   42.0470 C   0  0  0  0  0  0  0  0  0  0  0  0
   43.4300   30.7380   42.4140 O   0  0  0  0  0  0  0  0  0  0  0  0
   40.6980   35.1540   40.9100 C   0  0  0  0  0  0  0  0  0  0  0  0
   40.3860   35.0480   39.5030 N   0  0  0  0  0  0  0  0  0  0  0  0
   40.9800   35.4330   38.3770 C   0  0  0  0  0  0  0  0  0  0  0  0
   40.2380   35.0750   37.3160 N   0  0  0  0  0  0  0  0  0  0  0  0
   39.1290   34.4350   37.7950 C   0  0  0  0  0  0  0  0  0  0  0  0
   39.2770   34.4520   39.1120 N   0  0  0  0  0  0  0  0  0  0  0  0
   47.3883   34.8853   41.5069 H   0  0  0  0  0  0  0  0  0  0  0  0
   47.7455   33.1907   41.4940 H   0  0  0  0  0  0  0  0  0  0  0  0
   47.0943   33.7531   39.1531 H   0  0  0  0  0  0  0  0  0  0  0  0
   45.7427   34.7253   39.6429 H   0  0  0  0  0  0  0  0  0  0  0  0
   44.7106   32.5570   39.2971 H   0  0  0  0  0  0  0  0  0  0  0  0
   46.1074   31.6685   39.8690 H   0  0  0  0  0  0  0  0  0  0  0  0
   45.0700   31.6787   41.9195 H   0  0  0  0  0  0  0  0  0  0  0  0
   44.0993   37.1651   44.6713 H   0  0  0  0  0  0  0  0  0  0  0  0
   44.7318   36.1929   42.4688 H   0  0  0  0  0  0  0  0  0  0  0  0
   45.0874   33.6619   47.7642 H   0  0  0  0  0  0  0  0  0  0  0  0
   45.7086   32.3824   46.6873 H   0  0  0  0  0  0  0  0  0  0  0  0
   43.3585   34.7500   40.7559 H   0  0  0  0  0  0  0  0  0  0  0  0
   41.0249   30.9809   42.6058 H   0  0  0  0  0  0  0  0  0  0  0  0
   39.7667   35.2205   41.4916 H   0  0  0  0  0  0  0  0  0  0  0  0
   41.2994   36.0566   41.0933 H   0  0  0  0  0  0  0  0  0  0  0  0
   41.9400   35.9673   38.3225 H   0  0  0  0  0  0  0  0  0  0  0  0
   38.2992   34.0026   37.2166 H   0  0  0  0  0  0  0  0  0  0  0  0
  1  8  1  0
  2  1  1  0
  3  4  1  0
  3  2  1  0
  4  5  1  0
  5 13  1  0
  5  1  1  0
  6 11  2  0
  7  6  1  0
  8  7  2  0
  8  9  1  0
  9 10  2  0
 10 11  1  0
 10 12  1  0
 13 19  1  0
 14 15  2  0
 14 13  1  0
 15 16  1  0
 16 17  2  0
 16 18  1  0
 19 18  1  0
 19 20  2  0
 21 15  1  0
 22 21  1  0
 23 22  1  0
 24 25  1  0
 24 23  2  0
 25 26  2  0
 26 22  1  0
  2 27  1  0
  2 28  1  0
  3 29  1  0
  3 30  1  0
  4 31  1  0
  4 32  1  0
  5 33  1  1
  6 34  1  0
  7 35  1  0
 12 36  1  0
 12 37  1  0
 14 38  1  0
 18 39  1  0
 21 40  1  0
 21 41  1  0
 23 42  1  0
 25 43  1  0
M  ISO  8  27  13  28  13  29  13  30  13  31  13  32  13  33  13  34  14
M  ISO  7  35  14  38  14  39   9  40   8  41   8  42  14  43  14
M  END
>  <minimizedAffinity>  (1) 
-6.31434393

>  <minimizedRMSD>  (1) 
1.14870119

$$$$
