
     RDKit          3D

 34 37  0  0  0  0  0  0  0  0999 V2000
   44.0330   32.9380   41.6230 C   0  0  0  0  0  0  0  0  0  0  0  0
   43.8440   34.0230   40.7630 C   0  0  0  0  0  0  0  0  0  0  0  0
   44.8630   34.8870   40.9570 N   0  0  0  0  0  0  0  0  0  0  0  0
   45.6690   34.3830   41.8960 C   0  0  0  0  0  0  0  0  0  0  0  0
   46.8270   34.9080   42.4230 C   0  0  0  0  0  0  0  0  0  0  0  0
   47.4790   34.1700   43.4030 C   0  0  0  0  0  0  0  0  0  0  0  0
   47.0410   32.9290   43.8940 C   0  0  0  0  0  0  0  0  0  0  0  0
   45.8740   32.4840   43.3070 C   0  0  0  0  0  0  0  0  0  0  0  0
   45.1810   33.1440   42.3480 C   0  0  0  0  0  0  0  0  0  0  0  0
   42.7560   29.4370   41.3880 C   0  0  0  0  0  0  0  0  0  0  0  0
   43.6140   30.5470   41.2640 C   0  0  0  0  0  0  0  0  0  0  0  0
   43.1630   31.7720   41.7390 C   0  0  0  0  0  0  0  0  0  0  0  0
   41.9080   31.8410   42.3050 N   0  0  0  0  0  0  0  0  0  0  0  0
   41.1200   30.7450   42.4010 C   0  0  0  0  0  0  0  0  0  0  0  0
   41.5310   29.5500   41.9500 N   0  0  0  0  0  0  0  0  0  0  0  0
   42.7840   34.2270   39.8320 N   0  0  0  0  0  0  0  0  0  0  0  0
   41.6920   34.8770   40.3050 C   0  0  0  0  0  0  0  0  0  0  0  0
   40.5890   35.1510   39.5350 C   0  0  0  0  0  0  0  0  0  0  0  0
   40.6220   34.7330   38.2260 C   0  0  0  0  0  0  0  0  0  0  0  0
   39.6610   34.9300   37.4180 O   0  0  0  0  0  0  0  0  0  0  0  0
   41.7150   34.0860   37.7620 N   0  0  0  0  0  0  0  0  0  0  0  0
   42.7830   33.8320   38.5440 C   0  0  0  0  0  0  0  0  0  0  0  0
   43.8070   33.2340   38.1410 O   0  0  0  0  0  0  0  0  0  0  0  0
   44.9964   35.7821   40.4651 H   0  0  0  0  0  0  0  0  0  0  0  0
   47.2217   35.8761   42.0809 H   0  0  0  0  0  0  0  0  0  0  0  0
   48.4051   34.5877   43.8249 H   0  0  0  0  0  0  0  0  0  0  0  0
   47.5770   32.3657   44.6721 H   0  0  0  0  0  0  0  0  0  0  0  0
   45.4746   31.5163   43.6447 H   0  0  0  0  0  0  0  0  0  0  0  0
   43.0898   28.4558   41.0194 H   0  0  0  0  0  0  0  0  0  0  0  0
   44.6090   30.4471   40.8058 H   0  0  0  0  0  0  0  0  0  0  0  0
   40.1233   30.8356   42.8576 H   0  0  0  0  0  0  0  0  0  0  0  0
   41.6899   35.2003   41.3564 H   0  0  0  0  0  0  0  0  0  0  0  0
   39.7178   35.6813   39.9471 H   0  0  0  0  0  0  0  0  0  0  0  0
   41.7319   33.7774   36.7795 H   0  0  0  0  0  0  0  0  0  0  0  0
  1 12  1  0
  1  9  1  0
  2  3  1  0
  2  1  2  0
  3  4  1  0
  4  9  2  0
  4  5  1  0
  5  6  2  0
  6  7  1  0
  8  7  2  0
  9  8  1  0
 10 15  2  0
 11 10  1  0
 11 12  2  0
 12 13  1  0
 13 14  2  0
 15 14  1  0
 16 17  1  0
 16  2  1  0
 18 17  2  0
 19 18  1  0
 20 19  2  0
 21 19  1  0
 21 22  1  0
 22 16  1  0
 23 22  2  0
  3 24  1  0
  5 25  1  0
  6 26  1  0
  7 27  1  0
  8 28  1  0
 10 29  1  0
 11 30  1  0
 14 31  1  0
 17 32  1  0
 18 33  1  0
 21 34  1  0
M  ISO  8  24   9  25  14  26  14  27  14  28  14  29  14  30  14  31  14
M  ISO  3  32  14  33  14  34   9
M  END
>  <minimizedAffinity>  (1) 
-5.19936657

>  <minimizedRMSD>  (1) 
7.43152761

$$$$
