
     RDKit          3D

 51 54  0  0  1  0  0  0  0  0999 V2000
   43.5610   35.5500   41.3920 C   0  0  0  0  0  0  0  0  0  0  0  0
   43.6620   34.1080   40.9970 C   0  0  1  0  0  0  0  0  0  0  0  0
   42.6990   33.1090   41.4990 C   0  0  0  0  0  0  0  0  0  0  0  0
   42.6890   33.5560   40.0400 C   0  0  1  0  0  0  0  0  0  0  0  0
   41.6250   34.2040   39.6190 O   0  0  0  0  0  0  0  0  0  0  0  0
   38.8260   33.0030   38.8170 N   0  0  0  0  0  0  0  0  0  0  0  0
   39.8370   32.0590   38.4990 C   0  0  0  0  0  0  0  0  0  0  0  0
   41.0980   32.5980   38.0020 C   0  0  0  0  0  0  0  0  0  0  0  0
   41.2920   34.1710   38.2830 C   0  0  1  0  0  0  0  0  0  0  0  0
   40.1370   34.8040   37.7300 C   0  0  0  0  0  0  0  0  0  0  0  0
   38.8370   34.1930   38.0500 C   0  0  0  0  0  0  0  0  0  0  0  0
   44.1070   35.8460   42.7540 C   0  0  0  0  0  0  0  0  0  0  0  0
   47.6630   34.9150   42.3580 C   0  0  0  0  0  0  0  0  0  0  0  0
   47.8240   33.9140   43.3270 C   0  0  0  0  0  0  0  0  0  0  0  0
   46.7070   33.5700   44.1090 C   0  0  0  0  0  0  0  0  0  0  0  0
   45.5690   34.2340   43.8600 N   0  0  0  0  0  0  0  0  0  0  0  0
   45.4390   35.2000   42.9160 C   0  0  0  0  0  0  0  0  0  0  0  0
   46.4870   35.5350   42.1690 N   0  0  0  0  0  0  0  0  0  0  0  0
   46.7970   32.5640   45.1110 N   0  0  0  0  0  0  0  0  0  0  0  0
   47.5810   31.4730   44.9790 C   0  0  0  0  0  0  0  0  0  0  0  0
   47.6180   30.5360   45.9950 C   0  0  0  0  0  0  0  0  0  0  0  0
   46.8560   30.7210   47.1330 C   0  0  0  0  0  0  0  0  0  0  0  0
   46.8210   29.8080   48.2490 N   0  0  0  0  0  0  0  0  0  0  0  0
   46.0800   31.8330   47.2280 N   0  0  0  0  0  0  0  0  0  0  0  0
   46.0450   32.7500   46.2310 C   0  0  0  0  0  0  0  0  0  0  0  0
   45.3110   33.7630   46.3620 O   0  0  0  0  0  0  0  0  0  0  0  0
   48.8690   35.2620   41.5320 C   0  0  0  0  0  0  0  0  0  0  0  0
   48.5790   35.1700   40.2040 F   0  0  0  0  0  0  0  0  0  0  0  0
   49.2990   36.5300   41.8420 F   0  0  0  0  0  0  0  0  0  0  0  0
   49.8560   34.3000   41.7800 F   0  0  0  0  0  0  0  0  0  0  0  0
   42.5002   35.8406   41.3735 H   0  0  0  0  0  0  0  0  0  0  0  0
   44.1681   36.1208   40.6739 H   0  0  0  0  0  0  0  0  0  0  0  0
   44.7591   34.1793   41.0338 H   0  0  0  0  0  0  0  0  0  0  0  0
   43.0392   32.0975   41.7657 H   0  0  0  0  0  0  0  0  0  0  0  0
   41.9607   33.0701   42.3135 H   0  0  0  0  0  0  0  0  0  0  0  0
   42.7991   33.1094   39.0408 H   0  0  0  0  0  0  0  0  0  0  0  0
   38.1300   32.8335   39.5571 H   0  0  0  0  0  0  0  0  0  0  0  0
   40.0557   31.4837   39.4107 H   0  0  0  0  0  0  0  0  0  0  0  0
   39.4282   31.4631   37.6696 H   0  0  0  0  0  0  0  0  0  0  0  0
   41.1408   32.4326   36.9153 H   0  0  0  0  0  0  0  0  0  0  0  0
   41.9024   32.0762   38.5411 H   0  0  0  0  0  0  0  0  0  0  0  0
   42.0892   34.7627   37.8094 H   0  0  0  0  0  0  0  0  0  0  0  0
   40.2152   35.7010   37.0982 H   0  0  0  0  0  0  0  0  0  0  0  0
   37.8983   34.6490   37.7023 H   0  0  0  0  0  0  0  0  0  0  0  0
   44.2117   36.9341   42.8767 H   0  0  0  0  0  0  0  0  0  0  0  0
   43.4175   35.4514   43.5148 H   0  0  0  0  0  0  0  0  0  0  0  0
   48.7931   33.4139   43.4707 H   0  0  0  0  0  0  0  0  0  0  0  0
   48.1852   31.3307   44.0709 H   0  0  0  0  0  0  0  0  0  0  0  0
   48.2537   29.6436   45.8976 H   0  0  0  0  0  0  0  0  0  0  0  0
   46.2269   30.0143   49.0647 H   0  0  0  0  0  0  0  0  0  0  0  0
   47.3901   28.9497   48.2303 H   0  0  0  0  0  0  0  0  0  0  0  0
  1 12  1  0
  2  1  1  0
  2  3  1  0
  4  2  1  0
  4  3  1  0
  5  4  1  0
  7  6  1  0
  8  9  1  0
  8  7  1  0
  9  5  1  0
 10 11  2  0
 10  9  1  0
 11  6  1  0
 12 17  1  0
 13 14  2  0
 14 15  1  0
 15 19  1  0
 16 15  2  0
 17 16  1  0
 18 13  1  0
 18 17  2  0
 19 25  1  0
 20 19  1  0
 20 21  2  0
 21 22  1  0
 22 24  2  0
 22 23  1  0
 25 26  2  0
 25 24  1  0
 27 30  1  0
 27 29  1  0
 27 13  1  0
 28 27  1  0
  1 31  1  0
  1 32  1  0
  2 33  1  6
  3 34  1  0
  3 35  1  0
  4 36  1  6
  6 37  1  0
  7 38  1  0
  7 39  1  0
  8 40  1  0
  8 41  1  0
  9 42  1  6
 10 43  1  0
 11 44  1  0
 12 45  1  0
 12 46  1  0
 14 47  1  0
 20 48  1  0
 21 49  1  0
 23 50  1  0
 23 51  1  0
M  END
>  <minimizedAffinity>  (1) 
-7.10357904

>  <minimizedRMSD>  (1) 
0.329181254

$$$$
