
     RDKit          3D

 22 23  0  0  0  0  0  0  0  0999 V2000
   42.2830   35.5910   40.9690 C   0  0  0  0  0  0  0  0  0  0  0  0
   42.4850   34.8650   39.7630 C   0  0  0  0  0  0  0  0  0  0  0  0
   43.4460   33.8450   39.7520 C   0  0  0  0  0  0  0  0  0  0  0  0
   44.1460   33.5950   40.9010 N   0  0  0  0  0  0  0  0  0  0  0  0
   43.9140   34.3140   42.0160 C   0  0  0  0  0  0  0  0  0  0  0  0
   43.0070   35.2880   42.0550 N   0  0  0  0  0  0  0  0  0  0  0  0
   44.6450   34.0500   43.2100 N   0  0  0  0  0  0  0  0  0  0  0  0
   44.5970   35.0110   44.1650 C   0  0  0  0  0  0  0  0  0  0  0  0
   45.2820   34.8070   45.3320 C   0  0  0  0  0  0  0  0  0  0  0  0
   45.9800   33.6240   45.4500 C   0  0  0  0  0  0  0  0  0  0  0  0
   46.7340   33.2770   46.6010 N   0  0  0  0  0  0  0  0  0  0  0  0
   46.0020   32.6900   44.4730 N   0  0  0  0  0  0  0  0  0  0  0  0
   45.3330   32.8760   43.3180 C   0  0  0  0  0  0  0  0  0  0  0  0
   45.2790   32.0920   42.3510 O   0  0  0  0  0  0  0  0  0  0  0  0
   41.5370   35.2370   38.2830 S   0  0  0  0  0  0  0  0  0  0  0  0
   41.5360   36.3974   41.0101 H   0  0  0  0  0  0  0  0  0  0  0  0
   43.6334   33.2586   38.8404 H   0  0  0  0  0  0  0  0  0  0  0  0
   44.0204   35.9341   44.0054 H   0  0  0  0  0  0  0  0  0  0  0  0
   45.2760   35.5536   46.1398 H   0  0  0  0  0  0  0  0  0  0  0  0
   47.2369   32.3788   46.6357 H   0  0  0  0  0  0  0  0  0  0  0  0
   46.7783   33.9233   47.4017 H   0  0  0  0  0  0  0  0  0  0  0  0
   40.3055   35.7203   38.6390 H   0  0  0  0  0  0  0  0  0  0  0  0
  1  6  2  0
  2  1  1  0
  3  2  2  0
  3  4  1  0
  4  5  2  0
  5  6  1  0
  5  7  1  0
  7 13  1  0
  7  8  1  0
  8  9  2  0
  9 10  1  0
 10 11  1  0
 12 10  2  0
 13 12  1  0
 14 13  2  0
 15  2  1  0
  1 16  1  0
  3 17  1  0
  8 18  1  0
  9 19  1  0
 11 20  1  0
 11 21  1  0
 15 22  1  0
M  ISO  5  16  14  17  14  18  14  19  14  22  11
M  END
>  <minimizedAffinity>  (1) 
-4.41311169

>  <minimizedRMSD>  (1) 
3.97510624

$$$$
