
     RDKit          3D

 48 51  0  0  1  0  0  0  0  0999 V2000
   46.0330   31.9390   42.2660 C   0  0  0  0  0  0  0  0  0  0  0  0
   46.7430   32.1880   45.8600 C   0  0  0  0  0  0  0  0  0  0  0  0
   46.0350   33.3010   46.1580 C   0  0  0  0  0  0  0  0  0  0  0  0
   45.3240   33.7610   44.5760 S   0  0  0  0  0  0  0  0  0  0  0  0
   46.1590   32.2720   43.7190 C   0  0  0  0  0  0  0  0  0  0  0  0
   46.6830   31.8460   44.6340 N   0  0  0  0  0  0  0  0  0  0  0  0
   48.4640   31.3010   49.1310 C   0  0  0  0  0  0  0  0  0  0  0  0
   47.7470   32.0160   48.1750 C   0  0  0  0  0  0  0  0  0  0  0  0
   47.4970   31.4790   46.9090 C   0  0  0  0  0  0  0  0  0  0  0  0
   48.0080   30.2490   46.7340 N   0  0  0  0  0  0  0  0  0  0  0  0
   48.6970   29.5320   47.6200 C   0  0  0  0  0  0  0  0  0  0  0  0
   48.9090   30.0870   48.8100 N   0  0  0  0  0  0  0  0  0  0  0  0
   44.6630   31.3410   42.0600 C   0  0  0  0  0  0  0  0  0  0  0  0
   47.1010   30.9480   41.9550 C   0  0  0  0  0  0  0  0  0  0  0  0
   46.2120   33.1550   41.4470 C   0  0  1  0  0  0  0  0  0  0  0  0
   45.1720   34.1890   41.6020 N   0  0  0  0  0  0  0  0  0  0  0  0
   45.2840   35.3400   42.3280 C   0  0  0  0  0  0  0  0  0  0  0  0
   44.1590   36.0740   42.2490 N   0  0  0  0  0  0  0  0  0  0  0  0
   43.2860   35.4200   41.4710 C   0  0  0  0  0  0  0  0  0  0  0  0
   42.0010   35.6790   41.0360 C   0  0  0  0  0  0  0  0  0  0  0  0
   41.3820   34.7990   40.2330 N   0  0  0  0  0  0  0  0  0  0  0  0
   41.9980   33.6730   39.8510 C   0  0  0  0  0  0  0  0  0  0  0  0
   43.2440   33.4440   40.2870 N   0  0  0  0  0  0  0  0  0  0  0  0
   43.9300   34.2740   41.0900 C   0  0  0  0  0  0  0  0  0  0  0  0
   47.5120   33.7050   41.5010 N   0  0  0  0  0  0  0  0  0  0  0  0
   48.6610   34.2460   42.0940 C   0  0  0  0  0  0  0  0  0  0  0  0
   49.7940   34.7820   42.1190 O   0  0  0  0  0  0  0  0  0  0  0  0
   48.5820   34.2030   43.5290 N   0  0  0  0  0  0  0  0  0  0  0  0
   48.1890   33.9840   40.2090 C   0  0  0  0  0  0  0  0  0  0  0  0
   47.1640   33.7920   39.2560 F   0  0  0  0  0  0  0  0  0  0  0  0
   49.2010   33.2180   39.9690 F   0  0  0  0  0  0  0  0  0  0  0  0
   48.4490   35.3690   40.1640 F   0  0  0  0  0  0  0  0  0  0  0  0
   45.9226   33.8014   47.1311 H   0  0  0  0  0  0  0  0  0  0  0  0
   48.6580   31.7278   50.1261 H   0  0  0  0  0  0  0  0  0  0  0  0
   47.3711   33.0202   48.4203 H   0  0  0  0  0  0  0  0  0  0  0  0
   49.0734   28.5270   47.3787 H   0  0  0  0  0  0  0  0  0  0  0  0
   44.2003   31.1391   43.0373 H   0  0  0  0  0  0  0  0  0  0  0  0
   44.0357   32.0472   41.4963 H   0  0  0  0  0  0  0  0  0  0  0  0
   44.7543   30.4009   41.4963 H   0  0  0  0  0  0  0  0  0  0  0  0
   47.5226   30.5568   42.8927 H   0  0  0  0  0  0  0  0  0  0  0  0
   46.6736   30.1193   41.3713 H   0  0  0  0  0  0  0  0  0  0  0  0
   47.8954   31.4361   41.3713 H   0  0  0  0  0  0  0  0  0  0  0  0
   46.0749   32.7647   40.4277 H   0  0  0  0  0  0  0  0  0  0  0  0
   46.1766   35.6292   42.9020 H   0  0  0  0  0  0  0  0  0  0  0  0
   41.4876   36.6012   41.3458 H   0  0  0  0  0  0  0  0  0  0  0  0
   41.4917   32.9513   39.1931 H   0  0  0  0  0  0  0  0  0  0  0  0
   49.3586   34.5680   44.0987 H   0  0  0  0  0  0  0  0  0  0  0  0
   47.7488   33.8072   43.9873 H   0  0  0  0  0  0  0  0  0  0  0  0
  1  5  1  0
  2  3  2  0
  2  9  1  0
  4  3  1  0
  5  4  1  0
  5  6  2  0
  6  2  1  0
  8  7  2  0
  9  8  1  0
 10  9  2  0
 10 11  1  0
 11 12  2  0
 12  7  1  0
 13  1  1  0
 14  1  1  0
 15 25  1  0
 15 16  1  0
 15  1  1  0
 16 17  1  0
 18 17  2  0
 19 18  1  0
 20 19  2  0
 21 20  1  0
 22 21  2  0
 22 23  1  0
 23 24  2  0
 24 19  1  0
 24 16  1  0
 25 26  1  0
 26 27  2  0
 26 28  1  0
 29 25  1  0
 30 29  1  0
 31 29  1  0
 32 29  1  0
  3 33  1  0
  7 34  1  0
  8 35  1  0
 11 36  1  0
 13 37  1  0
 13 38  1  0
 13 39  1  0
 14 40  1  0
 14 41  1  0
 14 42  1  0
 15 43  1  6
 17 44  1  0
 20 45  1  0
 22 46  1  0
 28 47  1  0
 28 48  1  0
M  ISO  8  33  14  34  14  35  14  36  14  37   8  38   8  39   8  40   8
M  ISO  6  41   8  42   8  43   8  44  14  45  14  46  14
M  END
>  <minimizedAffinity>  (1) 
-6.05459642

>  <minimizedRMSD>  (1) 
1.86382413

$$$$
