
     RDKit          3D

 47 51  0  0  0  0  0  0  0  0999 V2000
   44.4770   35.1160   46.1620 C   0  0  0  0  0  0  0  0  0  0  0  0
   44.7280   35.0990   44.7800 C   0  0  0  0  0  0  0  0  0  0  0  0
   45.4410   34.0160   44.2370 C   0  0  0  0  0  0  0  0  0  0  0  0
   45.8460   33.0420   45.0870 N   0  0  0  0  0  0  0  0  0  0  0  0
   45.5850   33.0920   46.4170 C   0  0  0  0  0  0  0  0  0  0  0  0
   44.9100   34.1170   46.9420 N   0  0  0  0  0  0  0  0  0  0  0  0
   45.6700   34.0390   42.8520 N   0  0  0  0  0  0  0  0  0  0  0  0
   44.9100   33.8330   41.7630 C   0  0  0  0  0  0  0  0  0  0  0  0
   45.6470   33.9820   40.6420 N   0  0  0  0  0  0  0  0  0  0  0  0
   46.9070   34.2900   41.0210 C   0  0  0  0  0  0  0  0  0  0  0  0
   48.0450   34.5420   40.2590 C   0  0  0  0  0  0  0  0  0  0  0  0
   48.0470   34.5140   39.0200 O   0  0  0  0  0  0  0  0  0  0  0  0
   49.2050   34.8320   40.8750 N   0  0  0  0  0  0  0  0  0  0  0  0
   49.1880   34.8580   42.2250 C   0  0  0  0  0  0  0  0  0  0  0  0
   50.3480   35.1510   42.9810 N   0  0  0  0  0  0  0  0  0  0  0  0
   48.1010   34.6180   42.9490 N   0  0  0  0  0  0  0  0  0  0  0  0
   46.9030   34.3200   42.3980 C   0  0  0  0  0  0  0  0  0  0  0  0
   46.0180   32.0470   47.3480 C   0  0  0  0  0  0  0  0  0  0  0  0
   45.5320   32.3470   48.7650 C   0  0  0  0  0  0  0  0  0  0  0  0
   45.5930   30.6660   46.9640 C   0  0  0  0  0  0  0  0  0  0  0  0
   47.5420   32.1110   47.4010 C   0  0  0  0  0  0  0  0  0  0  0  0
   48.1380   30.8110   47.5260 N   0  0  0  0  0  0  0  0  0  0  0  0
   48.1090   29.8480   46.5750 C   0  0  0  0  0  0  0  0  0  0  0  0
   48.7610   28.7450   47.0090 N   0  0  0  0  0  0  0  0  0  0  0  0
   49.2070   29.0140   48.2440 C   0  0  0  0  0  0  0  0  0  0  0  0
   49.9330   28.2830   49.1830 C   0  0  0  0  0  0  0  0  0  0  0  0
   50.2630   28.8070   50.3970 N   0  0  0  0  0  0  0  0  0  0  0  0
   49.8490   30.0750   50.6430 C   0  0  0  0  0  0  0  0  0  0  0  0
   49.1430   30.8230   49.7690 N   0  0  0  0  0  0  0  0  0  0  0  0
   48.8170   30.2990   48.5630 C   0  0  0  0  0  0  0  0  0  0  0  0
   43.9214   35.9550   46.6064 H   0  0  0  0  0  0  0  0  0  0  0  0
   44.3737   35.9169   44.1355 H   0  0  0  0  0  0  0  0  0  0  0  0
   43.8399   33.5791   41.7824 H   0  0  0  0  0  0  0  0  0  0  0  0
   50.0652   35.0250   40.3424 H   0  0  0  0  0  0  0  0  0  0  0  0
   50.3027   35.1631   44.0099 H   0  0  0  0  0  0  0  0  0  0  0  0
   51.2375   35.3521   42.5023 H   0  0  0  0  0  0  0  0  0  0  0  0
   46.2339   31.9137   49.4928 H   0  0  0  0  0  0  0  0  0  0  0  0
   45.4779   33.4359   48.9112 H   0  0  0  0  0  0  0  0  0  0  0  0
   44.5343   31.9074   48.9112 H   0  0  0  0  0  0  0  0  0  0  0  0
   45.4104   30.0727   47.8721 H   0  0  0  0  0  0  0  0  0  0  0  0
   44.6695   30.7188   46.3687 H   0  0  0  0  0  0  0  0  0  0  0  0
   46.3864   30.1904   46.3687 H   0  0  0  0  0  0  0  0  0  0  0  0
   47.9087   32.5808   46.4764 H   0  0  0  0  0  0  0  0  0  0  0  0
   47.8235   32.6969   48.2884 H   0  0  0  0  0  0  0  0  0  0  0  0
   47.6255   29.9479   45.5920 H   0  0  0  0  0  0  0  0  0  0  0  0
   50.2473   27.2577   48.9380 H   0  0  0  0  0  0  0  0  0  0  0  0
   50.1045   30.5215   51.6153 H   0  0  0  0  0  0  0  0  0  0  0  0
  1  6  2  0
  2  1  1  0
  3  2  2  0
  3  4  1  0
  4  5  2  0
  5  6  1  0
  5 18  1  0
  7  3  1  0
  8  7  1  0
  9 10  1  0
  9  8  2  0
 10 17  2  0
 11 13  1  0
 11 10  1  0
 12 11  2  0
 13 14  1  0
 14 16  2  0
 14 15  1  0
 17  7  1  0
 17 16  1  0
 18 21  1  0
 18 19  1  0
 20 18  1  0
 21 22  1  0
 22 30  1  0
 23 24  2  0
 23 22  1  0
 24 25  1  0
 25 30  2  0
 25 26  1  0
 26 27  2  0
 27 28  1  0
 29 28  2  0
 30 29  1  0
  1 31  1  0
  2 32  1  0
  8 33  1  0
 13 34  1  0
 15 35  1  0
 15 36  1  0
 19 37  1  0
 19 38  1  0
 19 39  1  0
 20 40  1  0
 20 41  1  0
 20 42  1  0
 21 43  1  0
 21 44  1  0
 23 45  1  0
 26 46  1  0
 28 47  1  0
M  END
>  <minimizedAffinity>  (1) 
-7.51158953

>  <minimizedRMSD>  (1) 
1.59381831

$$$$
