
     RDKit          3D

 49 53  0  0  1  0  0  0  0  0999 V2000
   46.3080   33.6130   44.6830 C   0  0  2  0  0  0  0  0  0  0  0  0
   45.0120   34.4250   44.7890 C   0  0  0  0  0  0  0  0  0  0  0  0
   44.8890   35.5590   43.9000 C   0  0  0  0  0  0  0  0  0  0  0  0
   45.9590   35.9050   42.9530 C   0  0  0  0  0  0  0  0  0  0  0  0
   47.1220   35.0090   42.9320 C   0  0  1  0  0  0  0  0  0  0  0  0
   46.8130   33.6190   43.2810 C   0  0  0  0  0  0  0  0  0  0  0  0
   46.0900   32.0690   46.6190 C   0  0  0  0  0  0  0  0  0  0  0  0
   46.0320   32.2570   45.2320 C   0  0  0  0  0  0  0  0  0  0  0  0
   45.7170   31.1380   44.3900 C   0  0  0  0  0  0  0  0  0  0  0  0
   45.4880   29.9430   45.0030 N   0  0  0  0  0  0  0  0  0  0  0  0
   45.5530   29.8080   46.3280 C   0  0  0  0  0  0  0  0  0  0  0  0
   45.8470   30.8440   47.1350 N   0  0  0  0  0  0  0  0  0  0  0  0
   45.2930   28.5050   46.8640 N   0  0  0  0  0  0  0  0  0  0  0  0
   45.4330   27.5110   45.9770 C   0  0  0  0  0  0  0  0  0  0  0  0
   45.1950   26.2230   46.4360 C   0  0  0  0  0  0  0  0  0  0  0  0
   44.8350   26.0880   47.7620 C   0  0  0  0  0  0  0  0  0  0  0  0
   44.5790   24.7870   48.2800 N   0  0  0  0  0  0  0  0  0  0  0  0
   44.7090   27.1290   48.6030 N   0  0  0  0  0  0  0  0  0  0  0  0
   44.9420   28.3930   48.1580 C   0  0  0  0  0  0  0  0  0  0  0  0
   44.8600   29.4470   48.8400 O   0  0  0  0  0  0  0  0  0  0  0  0
   47.7340   35.0150   41.5780 C   0  0  0  0  0  0  0  0  0  0  0  0
   48.8760   35.7090   41.1780 C   0  0  0  0  0  0  0  0  0  0  0  0
   49.0150   35.3890   39.8890 N   0  0  0  0  0  0  0  0  0  0  0  0
   48.0550   34.5540   39.4550 C   0  0  0  0  0  0  0  0  0  0  0  0
   47.8790   34.0070   38.1760 C   0  0  0  0  0  0  0  0  0  0  0  0
   46.7950   33.1810   38.0560 C   0  0  0  0  0  0  0  0  0  0  0  0
   45.9060   32.8740   39.0770 C   0  0  0  0  0  0  0  0  0  0  0  0
   46.1690   33.4690   40.3010 C   0  0  0  0  0  0  0  0  0  0  0  0
   47.2260   34.3130   40.5440 C   0  0  0  0  0  0  0  0  0  0  0  0
   47.1222   34.0568   45.2748 H   0  0  0  0  0  0  0  0  0  0  0  0
   44.2184   34.1594   45.5028 H   0  0  0  0  0  0  0  0  0  0  0  0
   43.9777   36.1742   43.9330 H   0  0  0  0  0  0  0  0  0  0  0  0
   45.5234   35.9129   41.9430 H   0  0  0  0  0  0  0  0  0  0  0  0
   46.3445   36.8792   43.2881 H   0  0  0  0  0  0  0  0  0  0  0  0
   47.8092   35.3972   43.6982 H   0  0  0  0  0  0  0  0  0  0  0  0
   46.0430   33.2233   42.6024 H   0  0  0  0  0  0  0  0  0  0  0  0
   47.7086   32.9871   43.1882 H   0  0  0  0  0  0  0  0  0  0  0  0
   46.3315   32.9121   47.2830 H   0  0  0  0  0  0  0  0  0  0  0  0
   45.6628   31.2409   43.2962 H   0  0  0  0  0  0  0  0  0  0  0  0
   45.7229   27.7064   44.9340 H   0  0  0  0  0  0  0  0  0  0  0  0
   45.2889   25.3498   45.7737 H   0  0  0  0  0  0  0  0  0  0  0  0
   44.3094   24.6696   49.2671 H   0  0  0  0  0  0  0  0  0  0  0  0
   44.6633   23.9631   47.6677 H   0  0  0  0  0  0  0  0  0  0  0  0
   49.5147   36.3679   41.7845 H   0  0  0  0  0  0  0  0  0  0  0  0
   49.7756   35.7436   39.2918 H   0  0  0  0  0  0  0  0  0  0  0  0
   48.5571   34.2243   37.3376 H   0  0  0  0  0  0  0  0  0  0  0  0
   46.6134   32.7237   37.0722 H   0  0  0  0  0  0  0  0  0  0  0  0
   45.0485   32.2021   38.9246 H   0  0  0  0  0  0  0  0  0  0  0  0
   45.4852   33.2508   41.1345 H   0  0  0  0  0  0  0  0  0  0  0  0
  1  2  1  0
  1  8  1  0
  3  2  2  0
  4  3  1  0
  5  4  1  0
  5  6  1  0
  6  1  1  0
  7 12  2  0
  8  7  1  0
  9 10  1  0
  9  8  2  0
 10 11  2  0
 11 13  1  0
 11 12  1  0
 13 19  1  0
 14 15  2  0
 14 13  1  0
 15 16  1  0
 16 17  1  0
 16 18  2  0
 19 18  1  0
 19 20  2  0
 21  5  1  0
 22 21  2  0
 23 22  1  0
 24 23  1  0
 24 29  2  0
 25 24  1  0
 26 25  2  0
 26 27  1  0
 27 28  2  0
 28 29  1  0
 29 21  1  0
  1 30  1  1
  2 31  1  0
  3 32  1  0
  4 33  1  0
  4 34  1  0
  5 35  1  1
  6 36  1  0
  6 37  1  0
  7 38  1  0
  9 39  1  0
 14 40  1  0
 15 41  1  0
 17 42  1  0
 17 43  1  0
 22 44  1  0
 23 45  1  0
 25 46  1  0
 26 47  1  0
 27 48  1  0
 28 49  1  0
M  END
>  <minimizedAffinity>  (1) 
-7.13430023

>  <minimizedRMSD>  (1) 
1.40745616

$$$$
