
     RDKit          3D

 46 50  0  0  0  0  0  0  0  0999 V2000
   48.0250   31.0680   48.2870 C   0  0  0  0  0  0  0  0  0  0  0  0
   48.9080   31.5930   49.1840 C   0  0  0  0  0  0  0  0  0  0  0  0
   49.9160   30.8320   49.7070 C   0  0  0  0  0  0  0  0  0  0  0  0
   50.0310   29.5080   49.3120 C   0  0  0  0  0  0  0  0  0  0  0  0
   49.1420   28.9890   48.4130 C   0  0  0  0  0  0  0  0  0  0  0  0
   48.1320   29.7460   47.8860 C   0  0  0  0  0  0  0  0  0  0  0  0
   44.4380   35.9390   44.4770 C   0  0  0  0  0  0  0  0  0  0  0  0
   45.1600   35.8050   43.2800 C   0  0  0  0  0  0  0  0  0  0  0  0
   46.1220   34.8120   43.1860 C   0  0  0  0  0  0  0  0  0  0  0  0
   46.3350   34.0050   44.2520 N   0  0  0  0  0  0  0  0  0  0  0  0
   45.6150   34.1620   45.4070 C   0  0  0  0  0  0  0  0  0  0  0  0
   44.6660   35.1220   45.5330 N   0  0  0  0  0  0  0  0  0  0  0  0
   45.8370   33.3120   46.5310 N   0  0  0  0  0  0  0  0  0  0  0  0
   47.0220   32.6760   46.5990 C   0  0  0  0  0  0  0  0  0  0  0  0
   46.9740   31.9330   47.7690 C   0  0  0  0  0  0  0  0  0  0  0  0
   45.7790   32.1370   48.3670 N   0  0  0  0  0  0  0  0  0  0  0  0
   45.0850   32.9720   47.6230 C   0  0  0  0  0  0  0  0  0  0  0  0
   47.2170   29.2010   46.9580 N   0  0  0  0  0  0  0  0  0  0  0  0
   49.2590   27.5900   47.9920 C   0  0  0  0  0  0  0  0  0  0  0  0
   48.3870   26.7260   48.2570 O   0  0  0  0  0  0  0  0  0  0  0  0
   50.4650   27.1560   47.2120 C   0  0  0  0  0  0  0  0  0  0  0  0
   51.4400   26.3140   47.8500 C   0  0  0  0  0  0  0  0  0  0  0  0
   52.6660   26.0800   46.5250 S   0  0  0  0  0  0  0  0  0  0  0  0
   51.6690   27.1580   45.3140 C   0  0  0  0  0  0  0  0  0  0  0  0
   50.7480   27.4590   45.9860 N   0  0  0  0  0  0  0  0  0  0  0  0
   52.0780   27.4230   43.9860 N   0  0  0  0  0  0  0  0  0  0  0  0
   51.4160   25.8260   49.1480 N   0  0  0  0  0  0  0  0  0  0  0  0
   50.8790   24.6650   49.6290 C   0  0  0  0  0  0  0  0  0  0  0  0
   51.0680   24.5540   50.9790 C   0  0  0  0  0  0  0  0  0  0  0  0
   51.7370   25.6620   51.3620 N   0  0  0  0  0  0  0  0  0  0  0  0
   51.9300   26.4000   50.2500 C   0  0  0  0  0  0  0  0  0  0  0  0
   48.8076   32.6444   49.4912 H   0  0  0  0  0  0  0  0  0  0  0  0
   50.6245   31.2632   50.4296 H   0  0  0  0  0  0  0  0  0  0  0  0
   50.8346   28.8777   49.7206 H   0  0  0  0  0  0  0  0  0  0  0  0
   43.6714   36.7237   44.5587 H   0  0  0  0  0  0  0  0  0  0  0  0
   44.9652   36.4770   42.4312 H   0  0  0  0  0  0  0  0  0  0  0  0
   46.7027   34.6816   42.2609 H   0  0  0  0  0  0  0  0  0  0  0  0
   47.8519   32.7336   45.8793 H   0  0  0  0  0  0  0  0  0  0  0  0
   44.0703   33.3358   47.8421 H   0  0  0  0  0  0  0  0  0  0  0  0
   47.3043   28.2172   46.6657 H   0  0  0  0  0  0  0  0  0  0  0  0
   46.4625   29.7874   46.5736 H   0  0  0  0  0  0  0  0  0  0  0  0
   52.9583   27.0248   43.6291 H   0  0  0  0  0  0  0  0  0  0  0  0
   51.4955   28.0142   43.3760 H   0  0  0  0  0  0  0  0  0  0  0  0
   50.3618   23.9167   49.0105 H   0  0  0  0  0  0  0  0  0  0  0  0
   50.7399   23.7260   51.6246 H   0  0  0  0  0  0  0  0  0  0  0  0
   52.4521   27.3682   50.2450 H   0  0  0  0  0  0  0  0  0  0  0  0
  1  2  2  0
  2  3  1  0
  4  3  2  0
  5  4  1  0
  6  1  1  0
  6  5  2  0
  7 12  2  0
  8  7  1  0
  9  8  2  0
  9 10  1  0
 10 11  2  0
 11 12  1  0
 11 13  1  0
 13 14  1  0
 13 17  1  0
 14 15  2  0
 15  1  1  0
 15 16  1  0
 17 16  2  0
 18  6  1  0
 19 20  2  0
 19  5  1  0
 21 22  2  0
 21 19  1  0
 22 27  1  0
 23 22  1  0
 24 25  2  0
 24 23  1  0
 25 21  1  0
 26 24  1  0
 27 28  1  0
 27 31  1  0
 28 29  2  0
 29 30  1  0
 31 30  2  0
  2 32  1  0
  3 33  1  0
  4 34  1  0
  7 35  1  0
  8 36  1  0
  9 37  1  0
 14 38  1  0
 17 39  1  0
 18 40  1  0
 18 41  1  0
 26 42  1  0
 26 43  1  0
 28 44  1  0
 29 45  1  0
 31 46  1  0
M  ISO  8  32  14  33  14  34  14  35  14  36  14  37  14  38  14  39  14
M  ISO  3  44  14  45  14  46  14
M  END
>  <minimizedAffinity>  (1) 
-5.88102818

>  <minimizedRMSD>  (1) 
0.86497736

$$$$
