
     RDKit          3D

 32 35  0  0  0  0  0  0  0  0999 V2000
   45.2370   33.9810   41.1430 C   0  0  0  0  0  0  0  0  0  0  0  0
   44.8660   33.8880   42.5020 C   0  0  0  0  0  0  0  0  0  0  0  0
   45.8390   34.2980   43.4200 C   0  0  0  0  0  0  0  0  0  0  0  0
   47.0390   34.7440   42.9500 N   0  0  0  0  0  0  0  0  0  0  0  0
   47.3450   34.8140   41.6460 C   0  0  0  0  0  0  0  0  0  0  0  0
   46.4330   34.4290   40.7570 N   0  0  0  0  0  0  0  0  0  0  0  0
   45.4930   34.2150   44.7770 N   0  0  0  0  0  0  0  0  0  0  0  0
   45.9770   33.2580   45.6160 C   0  0  0  0  0  0  0  0  0  0  0  0
   45.3990   33.5280   46.8330 C   0  0  0  0  0  0  0  0  0  0  0  0
   44.5990   34.6100   46.7190 N   0  0  0  0  0  0  0  0  0  0  0  0
   44.6620   35.0220   45.4610 C   0  0  0  0  0  0  0  0  0  0  0  0
   48.6600   35.3060   41.2060 C   0  0  0  0  0  0  0  0  0  0  0  0
   48.6610   35.4200   39.8120 F   0  0  0  0  0  0  0  0  0  0  0  0
   49.6460   34.3630   41.4910 F   0  0  0  0  0  0  0  0  0  0  0  0
   49.0560   36.4860   41.8210 F   0  0  0  0  0  0  0  0  0  0  0  0
   44.0350   33.4690   39.8890 S   0  0  0  0  0  0  0  0  0  0  0  0
   39.6720   32.9680   42.1630 N   0  0  0  0  0  0  0  0  0  0  0  0
   40.4170   31.8380   42.2360 C   0  0  0  0  0  0  0  0  0  0  0  0
   41.5830   32.1020   41.5790 N   0  0  0  0  0  0  0  0  0  0  0  0
   41.5050   33.3560   41.1400 C   0  0  0  0  0  0  0  0  0  0  0  0
   42.4390   34.0720   40.4220 C   0  0  0  0  0  0  0  0  0  0  0  0
   42.2040   35.3460   40.0520 N   0  0  0  0  0  0  0  0  0  0  0  0
   41.0020   35.8760   40.4240 C   0  0  0  0  0  0  0  0  0  0  0  0
   40.0850   35.1900   41.1240 N   0  0  0  0  0  0  0  0  0  0  0  0
   40.3240   33.9270   41.4880 C   0  0  0  0  0  0  0  0  0  0  0  0
   43.8792   33.5184   42.8176 H   0  0  0  0  0  0  0  0  0  0  0  0
   46.6779   32.4459   45.3726 H   0  0  0  0  0  0  0  0  0  0  0  0
   45.5624   32.9526   47.7561 H   0  0  0  0  0  0  0  0  0  0  0  0
   44.1220   35.8846   45.0435 H   0  0  0  0  0  0  0  0  0  0  0  0
   38.7323   33.0759   42.5706 H   0  0  0  0  0  0  0  0  0  0  0  0
   40.1368   30.8948   42.7277 H   0  0  0  0  0  0  0  0  0  0  0  0
   40.7746   36.9132   40.1367 H   0  0  0  0  0  0  0  0  0  0  0  0
  1  2  2  0
  2  3  1  0
  3  7  1  0
  4  3  2  0
  5  4  1  0
  6  1  1  0
  6  5  2  0
  7 11  1  0
  7  8  1  0
  8  9  2  0
 10  9  1  0
 11 10  2  0
 12 14  1  0
 12  5  1  0
 12 15  1  0
 13 12  1  0
 16 21  1  0
 16  1  1  0
 17 18  1  0
 19 18  2  0
 20 25  2  0
 20 19  1  0
 21 20  1  0
 22 21  2  0
 22 23  1  0
 23 24  2  0
 24 25  1  0
 25 17  1  0
  2 26  1  0
  8 27  1  0
  9 28  1  0
 11 29  1  0
 17 30  1  0
 18 31  1  0
 23 32  1  0
M  END
>  <minimizedAffinity>  (1) 
-7.11094999

>  <minimizedRMSD>  (1) 
0.214713544

$$$$
