
     RDKit          3D

 25 26  0  0  0  0  0  0  0  0999 V2000
   44.9180   35.0740   44.0140 C   0  0  0  0  0  0  0  0  0  0  0  0
   45.4100   35.1090   42.7100 C   0  0  0  0  0  0  0  0  0  0  0  0
   46.5310   34.3180   42.3990 C   0  0  0  0  0  0  0  0  0  0  0  0
   47.0620   33.5660   43.4000 N   0  0  0  0  0  0  0  0  0  0  0  0
   46.5650   33.5530   44.6460 C   0  0  0  0  0  0  0  0  0  0  0  0
   45.5030   34.3050   44.9370 N   0  0  0  0  0  0  0  0  0  0  0  0
   43.8010   35.8220   44.4470 N   0  0  0  0  0  0  0  0  0  0  0  0
   47.0700   34.3130   41.1070 N   0  0  0  0  0  0  0  0  0  0  0  0
   46.5240   33.5850   40.1160 C   0  0  0  0  0  0  0  0  0  0  0  0
   47.1200   33.6370   38.8740 C   0  0  0  0  0  0  0  0  0  0  0  0
   46.5240   32.8340   37.7660 C   0  0  0  0  0  0  0  0  0  0  0  0
   48.2380   34.3850   38.5690 C   0  0  0  0  0  0  0  0  0  0  0  0
   48.7560   34.4100   37.4220 O   0  0  0  0  0  0  0  0  0  0  0  0
   48.7310   35.0910   39.6170 N   0  0  0  0  0  0  0  0  0  0  0  0
   48.1620   35.0510   40.8370 C   0  0  0  0  0  0  0  0  0  0  0  0
   48.6710   35.7300   41.7610 O   0  0  0  0  0  0  0  0  0  0  0  0
   44.9339   35.7389   41.9441 H   0  0  0  0  0  0  0  0  0  0  0  0
   47.0300   32.9268   45.4217 H   0  0  0  0  0  0  0  0  0  0  0  0
   43.3039   36.4352   43.7853 H   0  0  0  0  0  0  0  0  0  0  0  0
   43.4834   35.7543   45.4245 H   0  0  0  0  0  0  0  0  0  0  0  0
   45.6304   32.9679   40.2912 H   0  0  0  0  0  0  0  0  0  0  0  0
   45.9187   32.0185   38.1887 H   0  0  0  0  0  0  0  0  0  0  0  0
   45.8858   33.4811   37.1464 H   0  0  0  0  0  0  0  0  0  0  0  0
   47.3282   32.4105   37.1464 H   0  0  0  0  0  0  0  0  0  0  0  0
   49.5668   35.6761   39.4753 H   0  0  0  0  0  0  0  0  0  0  0  0
  1  7  1  0
  1  6  2  0
  2  1  1  0
  3  2  2  0
  3  4  1  0
  4  5  2  0
  5  6  1  0
  8  3  1  0
  9  8  1  0
 10  9  2  0
 11 10  1  0
 12 10  1  0
 12 14  1  0
 13 12  2  0
 14 15  1  0
 15  8  1  0
 15 16  2  0
  2 17  1  0
  5 18  1  0
  7 19  1  0
  7 20  1  0
  9 21  1  0
 11 22  1  0
 11 23  1  0
 11 24  1  0
 14 25  1  0
M  ISO  7  17  14  18  14  21  14  22   8  23   8  24   8  25   9
M  END
>  <minimizedAffinity>  (1) 
-5.53421116

>  <minimizedRMSD>  (1) 
2.12424946

$$$$
