
     RDKit          3D

 45 48  0  0  0  0  0  0  0  0999 V2000
   43.9570   35.3670   42.1890 C   0  0  0  0  0  0  0  0  0  0  0  0
   44.0640   34.0710   41.6880 C   0  0  0  0  0  0  0  0  0  0  0  0
   44.6570   33.1090   42.4870 C   0  0  0  0  0  0  0  0  0  0  0  0
   45.1130   33.4800   43.7380 N   0  0  0  0  0  0  0  0  0  0  0  0
   44.9910   34.7230   44.1730 C   0  0  0  0  0  0  0  0  0  0  0  0
   44.4210   35.6620   43.4160 N   0  0  0  0  0  0  0  0  0  0  0  0
   44.7680   31.8030   41.9760 N   0  0  0  0  0  0  0  0  0  0  0  0
   45.8870   31.4660   41.2780 C   0  0  0  0  0  0  0  0  0  0  0  0
   45.9640   30.1830   40.7960 C   0  0  0  0  0  0  0  0  0  0  0  0
   44.9740   29.2350   40.9860 C   0  0  0  0  0  0  0  0  0  0  0  0
   45.1320   28.0880   40.5070 O   0  0  0  0  0  0  0  0  0  0  0  0
   43.8820   29.6100   41.6830 N   0  0  0  0  0  0  0  0  0  0  0  0
   43.7920   30.8600   42.1600 C   0  0  0  0  0  0  0  0  0  0  0  0
   42.7560   31.1510   42.8000 O   0  0  0  0  0  0  0  0  0  0  0  0
   47.2090   29.8420   40.0150 C   0  0  0  0  0  0  0  0  0  0  0  0
   43.5550   33.8430   40.3880 N   0  0  0  0  0  0  0  0  0  0  0  0
   44.3320   33.7240   39.3740 N   0  0  0  0  0  0  0  0  0  0  0  0
   43.6010   33.5190   38.2530 C   0  0  0  0  0  0  0  0  0  0  0  0
   42.2810   33.5210   38.6900 C   0  0  0  0  0  0  0  0  0  0  0  0
   42.2600   33.7320   40.0760 C   0  0  0  0  0  0  0  0  0  0  0  0
   41.0620   33.8100   40.9060 C   0  0  0  0  0  0  0  0  0  0  0  0
   40.8140   34.7710   41.6830 O   0  0  0  0  0  0  0  0  0  0  0  0
   38.6540   30.2870   40.5150 C   0  0  0  0  0  0  0  0  0  0  0  0
   38.0520   31.4870   40.9050 C   0  0  0  0  0  0  0  0  0  0  0  0
   38.7820   32.6670   41.0360 C   0  0  0  0  0  0  0  0  0  0  0  0
   40.1210   32.6670   40.7790 C   0  0  0  0  0  0  0  0  0  0  0  0
   40.7750   31.4920   40.3850 C   0  0  0  0  0  0  0  0  0  0  0  0
   40.0050   30.3240   40.2640 C   0  0  0  0  0  0  0  0  0  0  0  0
   37.7330   28.8070   40.3620 S   0  0  0  0  0  0  0  0  0  0  0  0
   36.4140   29.0870   39.7230 O   0  0  0  0  0  0  0  0  0  0  0  0
   37.5440   28.1760   41.7380 O   0  0  0  0  0  0  0  0  0  0  0  0
   43.4903   36.1531   41.5772 H   0  0  0  0  0  0  0  0  0  0  0  0
   45.3649   34.9864   45.1734 H   0  0  0  0  0  0  0  0  0  0  0  0
   46.6959   32.1916   41.1073 H   0  0  0  0  0  0  0  0  0  0  0  0
   43.1191   28.9380   41.8485 H   0  0  0  0  0  0  0  0  0  0  0  0
   48.0294   29.6173   40.7125 H   0  0  0  0  0  0  0  0  0  0  0  0
   47.0154   28.9638   39.3815 H   0  0  0  0  0  0  0  0  0  0  0  0
   47.4899   30.6963   39.3815 H   0  0  0  0  0  0  0  0  0  0  0  0
   43.9692   33.3815   37.2256 H   0  0  0  0  0  0  0  0  0  0  0  0
   41.3964   33.3799   38.0517 H   0  0  0  0  0  0  0  0  0  0  0  0
   36.9722   31.5002   41.1143 H   0  0  0  0  0  0  0  0  0  0  0  0
   38.2795   33.5952   41.3457 H   0  0  0  0  0  0  0  0  0  0  0  0
   41.8552   31.4848   40.1775 H   0  0  0  0  0  0  0  0  0  0  0  0
   40.5063   29.3953   39.9539 H   0  0  0  0  0  0  0  0  0  0  0  0
   38.4167   27.9269   39.5652 H   0  0  0  0  0  0  0  0  0  0  0  0
  1  6  2  0
  2  1  1  0
  2  3  2  0
  3  4  1  0
  4  5  2  0
  6  5  1  0
  7 13  1  0
  7  3  1  0
  8  7  1  0
  9 10  1  0
  9  8  2  0
 10 12  1  0
 11 10  2  0
 12 13  1  0
 13 14  2  0
 15  9  1  0
 16  2  1  0
 17 16  1  0
 18 19  1  0
 18 17  2  0
 19 20  2  0
 20 16  1  0
 20 21  1  0
 21 22  2  0
 23 24  2  0
 24 25  1  0
 26 21  1  0
 26 25  2  0
 27 26  1  0
 28 27  2  0
 28 23  1  0
 29 23  1  0
 29 31  2  0
 30 29  2  0
  1 32  1  0
  5 33  1  0
  8 34  1  0
 12 35  1  0
 15 36  1  0
 15 37  1  0
 15 38  1  0
 18 39  1  0
 19 40  1  0
 24 41  1  0
 25 42  1  0
 27 43  1  0
 28 44  1  0
 29 45  1  0
M  ISO  8  32  14  33  14  34  14  35   9  36   8  37   8  38   8  39  14
M  ISO  6  40  14  41  14  42  14  43  14  44  14  45  11
M  END
>  <minimizedAffinity>  (1) 
-4.78750134

>  <minimizedRMSD>  (1) 
4.86892319

$$$$
