
     RDKit          3D

 34 36  0  0  0  0  0  0  0  0999 V2000
   44.6550   35.9000   44.3670 C   0  0  0  0  0  0  0  0  0  0  0  0
   45.1800   35.7760   43.0640 C   0  0  0  0  0  0  0  0  0  0  0  0
   46.0130   34.7110   42.7960 C   0  0  0  0  0  0  0  0  0  0  0  0
   46.2720   33.8480   43.8120 N   0  0  0  0  0  0  0  0  0  0  0  0
   45.7540   33.9870   45.0630 C   0  0  0  0  0  0  0  0  0  0  0  0
   44.9380   35.0280   45.3310 N   0  0  0  0  0  0  0  0  0  0  0  0
   46.6110   34.4640   41.5290 N   0  0  0  0  0  0  0  0  0  0  0  0
   46.0250   33.7400   40.5580 C   0  0  0  0  0  0  0  0  0  0  0  0
   46.6890   33.5580   39.3630 C   0  0  0  0  0  0  0  0  0  0  0  0
   46.0870   32.7620   38.2490 C   0  0  0  0  0  0  0  0  0  0  0  0
   47.9410   34.0880   39.1100 C   0  0  0  0  0  0  0  0  0  0  0  0
   48.5880   33.9540   38.0470 O   0  0  0  0  0  0  0  0  0  0  0  0
   48.4960   34.8060   40.1040 N   0  0  0  0  0  0  0  0  0  0  0  0
   47.8240   34.9670   41.2590 C   0  0  0  0  0  0  0  0  0  0  0  0
   48.3890   35.6500   42.1610 O   0  0  0  0  0  0  0  0  0  0  0  0
   46.0470   33.0500   46.1320 C   0  0  0  0  0  0  0  0  0  0  0  0
   45.4060   33.0960   47.3490 C   0  0  0  0  0  0  0  0  0  0  0  0
   45.6590   32.2280   48.3780 C   0  0  0  0  0  0  0  0  0  0  0  0
   46.6150   31.2940   48.0990 C   0  0  0  0  0  0  0  0  0  0  0  0
   47.2930   31.1910   46.9080 C   0  0  0  0  0  0  0  0  0  0  0  0
   46.9690   32.0910   45.9690 N   0  0  0  0  0  0  0  0  0  0  0  0
   44.4240   34.1320   47.5020 N   0  0  0  0  0  0  0  0  0  0  0  0
   43.9894   36.7459   44.5938 H   0  0  0  0  0  0  0  0  0  0  0  0
   44.9315   36.5093   42.2827 H   0  0  0  0  0  0  0  0  0  0  0  0
   45.0296   33.2991   40.7152 H   0  0  0  0  0  0  0  0  0  0  0  0
   45.4735   31.9508   38.6679 H   0  0  0  0  0  0  0  0  0  0  0  0
   45.4560   33.4167   37.6299 H   0  0  0  0  0  0  0  0  0  0  0  0
   46.8887   32.3331   37.6299 H   0  0  0  0  0  0  0  0  0  0  0  0
   49.4273   35.2287   39.9818 H   0  0  0  0  0  0  0  0  0  0  0  0
   45.1373   32.2790   49.3451 H   0  0  0  0  0  0  0  0  0  0  0  0
   46.8615   30.5683   48.8880 H   0  0  0  0  0  0  0  0  0  0  0  0
   48.0553   30.4169   46.7358 H   0  0  0  0  0  0  0  0  0  0  0  0
   43.9062   34.2241   48.3876 H   0  0  0  0  0  0  0  0  0  0  0  0
   44.2372   34.7832   46.7261 H   0  0  0  0  0  0  0  0  0  0  0  0
  1  6  2  0
  2  1  1  0
  3  2  2  0
  3  4  1  0
  4  5  2  0
  5  6  1  0
  5 16  1  0
  7  3  1  0
  8  7  1  0
  9  8  2  0
 10  9  1  0
 11  9  1  0
 11 13  1  0
 12 11  2  0
 13 14  1  0
 14  7  1  0
 14 15  2  0
 16 17  2  0
 17 22  1  0
 17 18  1  0
 19 18  2  0
 20 19  1  0
 21 16  1  0
 21 20  2  0
  1 23  1  0
  2 24  1  0
  8 25  1  0
 10 26  1  0
 10 27  1  0
 10 28  1  0
 13 29  1  0
 18 30  1  0
 19 31  1  0
 20 32  1  0
 22 33  1  0
 22 34  1  0
M  END
>  <minimizedAffinity>  (1) 
-7.22345877

>  <minimizedRMSD>  (1) 
0.646896899

$$$$
