
     RDKit          3D

 41 44  0  0  0  0  0  0  0  0999 V2000
   45.8540   33.1450   38.9010 C   0  0  0  0  0  0  0  0  0  0  0  0
   46.5520   32.5420   37.8850 C   0  0  0  0  0  0  0  0  0  0  0  0
   45.8810   31.8790   36.8640 C   0  0  0  0  0  0  0  0  0  0  0  0
   44.4880   31.9060   37.0020 C   0  0  0  0  0  0  0  0  0  0  0  0
   43.7600   32.4970   38.0000 C   0  0  0  0  0  0  0  0  0  0  0  0
   44.5000   33.1190   38.9510 N   0  0  0  0  0  0  0  0  0  0  0  0
   42.3470   32.4410   38.0090 N   0  0  0  0  0  0  0  0  0  0  0  0
   41.5410   33.4520   38.3690 C   0  0  0  0  0  0  0  0  0  0  0  0
   40.1540   33.3170   38.3490 C   0  0  0  0  0  0  0  0  0  0  0  0
   39.2910   34.4660   38.7590 C   0  0  0  0  0  0  0  0  0  0  0  0
   39.5750   32.1170   37.9470 C   0  0  0  0  0  0  0  0  0  0  0  0
   38.3290   31.9570   37.9160 O   0  0  0  0  0  0  0  0  0  0  0  0
   40.4390   31.1470   37.6000 N   0  0  0  0  0  0  0  0  0  0  0  0
   41.7850   31.2820   37.6200 C   0  0  0  0  0  0  0  0  0  0  0  0
   42.4780   30.2870   37.2680 O   0  0  0  0  0  0  0  0  0  0  0  0
   46.6590   34.6680   42.1580 C   0  0  0  0  0  0  0  0  0  0  0  0
   47.9240   35.1780   42.0240 C   0  0  0  0  0  0  0  0  0  0  0  0
   48.4980   34.9860   40.7870 C   0  0  0  0  0  0  0  0  0  0  0  0
   47.8370   34.3190   39.7450 C   0  0  0  0  0  0  0  0  0  0  0  0
   46.5680   33.8340   39.9530 C   0  0  0  0  0  0  0  0  0  0  0  0
   46.0240   34.0340   41.1770 N   0  0  0  0  0  0  0  0  0  0  0  0
   44.4630   35.9670   44.8780 C   0  0  0  0  0  0  0  0  0  0  0  0
   45.1090   35.8710   43.6360 C   0  0  0  0  0  0  0  0  0  0  0  0
   45.9620   34.8160   43.4280 C   0  0  0  0  0  0  0  0  0  0  0  0
   46.1350   33.9100   44.4510 N   0  0  0  0  0  0  0  0  0  0  0  0
   45.4940   34.0340   45.6360 C   0  0  0  0  0  0  0  0  0  0  0  0
   44.6640   35.0590   45.8410 N   0  0  0  0  0  0  0  0  0  0  0  0
   47.6512   32.5836   37.8785 H   0  0  0  0  0  0  0  0  0  0  0  0
   46.3948   31.3812   36.0284 H   0  0  0  0  0  0  0  0  0  0  0  0
   43.9116   31.3931   36.2180 H   0  0  0  0  0  0  0  0  0  0  0  0
   41.9845   34.4073   38.6865 H   0  0  0  0  0  0  0  0  0  0  0  0
   39.2501   34.5204   39.8569 H   0  0  0  0  0  0  0  0  0  0  0  0
   39.7119   35.4011   38.3610 H   0  0  0  0  0  0  0  0  0  0  0  0
   38.2757   34.3223   38.3610 H   0  0  0  0  0  0  0  0  0  0  0  0
   40.0506   30.2417   37.2992 H   0  0  0  0  0  0  0  0  0  0  0  0
   48.4413   35.7008   42.8420 H   0  0  0  0  0  0  0  0  0  0  0  0
   49.5133   35.3702   40.6093 H   0  0  0  0  0  0  0  0  0  0  0  0
   48.3297   34.1854   38.7706 H   0  0  0  0  0  0  0  0  0  0  0  0
   43.7768   36.8063   45.0643 H   0  0  0  0  0  0  0  0  0  0  0  0
   44.9364   36.6211   42.8502 H   0  0  0  0  0  0  0  0  0  0  0  0
   45.6568   33.2904   46.4301 H   0  0  0  0  0  0  0  0  0  0  0  0
  1  6  1  0
  1 20  1  0
  2  1  2  0
  3  4  2  0
  3  2  1  0
  4  5  1  0
  5  7  1  0
  5  6  2  0
  7  8  1  0
  9  8  2  0
  9 10  1  0
 11  9  1  0
 12 11  2  0
 13 14  1  0
 13 11  1  0
 14  7  1  0
 15 14  2  0
 16 24  1  0
 17 16  2  0
 18 17  1  0
 19 20  1  0
 19 18  2  0
 20 21  2  0
 21 16  1  0
 22 27  2  0
 23 22  1  0
 24 23  2  0
 24 25  1  0
 25 26  2  0
 26 27  1  0
  2 28  1  0
  3 29  1  0
  4 30  1  0
  8 31  1  0
 10 32  1  0
 10 33  1  0
 10 34  1  0
 13 35  1  0
 17 36  1  0
 18 37  1  0
 19 38  1  0
 22 39  1  0
 23 40  1  0
 26 41  1  0
M  END
>  <minimizedAffinity>  (1) 
-7.22964048

>  <minimizedRMSD>  (1) 
2.04553628

$$$$
