
     RDKit          3D

 37 39  0  0  1  0  0  0  0  0999 V2000
   46.0820   33.3190   45.6330 C   0  0  2  0  0  0  0  0  0  0  0  0
   45.1090   34.4640   45.8100 C   0  0  0  0  0  0  0  0  0  0  0  0
   44.9300   35.3430   44.6720 C   0  0  0  0  0  0  0  0  0  0  0  0
   45.6640   35.1210   43.4220 C   0  0  1  0  0  0  0  0  0  0  0  0
   46.6730   34.0290   43.4270 C   0  0  0  0  0  0  0  0  0  0  0  0
   46.0900   32.8550   44.2080 C   0  0  0  0  0  0  0  0  0  0  0  0
   44.7090   35.0080   42.3340 N   0  0  0  0  0  0  0  0  0  0  0  0
   43.3850   35.2150   42.4340 C   0  0  0  0  0  0  0  0  0  0  0  0
   42.5680   35.0840   41.3510 C   0  0  0  0  0  0  0  0  0  0  0  0
   41.1000   35.3080   41.4420 C   0  0  0  0  0  0  0  0  0  0  0  0
   43.1120   34.7300   40.1220 C   0  0  0  0  0  0  0  0  0  0  0  0
   42.3710   34.6040   39.1060 O   0  0  0  0  0  0  0  0  0  0  0  0
   44.4470   34.5190   40.0130 N   0  0  0  0  0  0  0  0  0  0  0  0
   45.2180   34.6620   41.1150 C   0  0  0  0  0  0  0  0  0  0  0  0
   46.4640   34.4560   40.9760 O   0  0  0  0  0  0  0  0  0  0  0  0
   45.3250   32.6370   47.8910 C   0  0  0  0  0  0  0  0  0  0  0  0
   45.8030   32.2850   46.6300 C   0  0  0  0  0  0  0  0  0  0  0  0
   46.0090   30.9120   46.3640 C   0  0  0  0  0  0  0  0  0  0  0  0
   45.7360   30.0130   47.3330 N   0  0  0  0  0  0  0  0  0  0  0  0
   45.2720   30.3870   48.5500 C   0  0  0  0  0  0  0  0  0  0  0  0
   45.0710   31.6880   48.8200 N   0  0  0  0  0  0  0  0  0  0  0  0
   47.1159   33.6428   45.8233 H   0  0  0  0  0  0  0  0  0  0  0  0
   44.5657   34.6210   46.7535 H   0  0  0  0  0  0  0  0  0  0  0  0
   44.2325   36.1902   44.7469 H   0  0  0  0  0  0  0  0  0  0  0  0
   46.3046   36.0038   43.2798 H   0  0  0  0  0  0  0  0  0  0  0  0
   46.8930   33.7188   42.3948 H   0  0  0  0  0  0  0  0  0  0  0  0
   47.6077   34.3732   43.8938 H   0  0  0  0  0  0  0  0  0  0  0  0
   45.0688   32.6298   43.8667 H   0  0  0  0  0  0  0  0  0  0  0  0
   46.6724   31.9318   44.0721 H   0  0  0  0  0  0  0  0  0  0  0  0
   42.9534   35.4949   43.4063 H   0  0  0  0  0  0  0  0  0  0  0  0
   40.8009   35.3536   42.4996 H   0  0  0  0  0  0  0  0  0  0  0  0
   40.8423   36.2559   40.9469 H   0  0  0  0  0  0  0  0  0  0  0  0
   40.5714   34.4801   40.9469 H   0  0  0  0  0  0  0  0  0  0  0  0
   44.8654   34.2552   39.1095 H   0  0  0  0  0  0  0  0  0  0  0  0
   45.1529   33.6962   48.1326 H   0  0  0  0  0  0  0  0  0  0  0  0
   46.3852   30.5821   45.3844 H   0  0  0  0  0  0  0  0  0  0  0  0
   45.0601   29.6265   49.3160 H   0  0  0  0  0  0  0  0  0  0  0  0
  1  2  1  0
  1 17  1  0
  3  2  2  0
  4  5  1  0
  4  3  1  0
  5  6  1  0
  6  1  1  0
  7  8  1  0
  7  4  1  0
  9 10  1  0
  9  8  2  0
 11  9  1  0
 12 11  2  0
 13 11  1  0
 13 14  1  0
 14  7  1  0
 15 14  2  0
 16 21  2  0
 17 16  1  0
 18 17  2  0
 18 19  1  0
 19 20  2  0
 20 21  1  0
  1 22  1  1
  2 23  1  0
  3 24  1  0
  4 25  1  6
  5 26  1  0
  5 27  1  0
  6 28  1  0
  6 29  1  0
  8 30  1  0
 10 31  1  0
 10 32  1  0
 10 33  1  0
 13 34  1  0
 16 35  1  0
 18 36  1  0
 20 37  1  0
M  ISO  8  22  13  23  13  24  13  25  13  26  13  27  13  28  13  29  13
M  ISO  8  30  14  31   8  32   8  33   8  34   9  35  14  36  14  37  14
M  END
>  <minimizedAffinity>  (1) 
-6.19176626

>  <minimizedRMSD>  (1) 
0.786594391

$$$$
