
     RDKit          3D

 37 39  0  0  0  0  0  0  0  0999 V2000
   44.5820   35.8320   44.4990 C   0  0  0  0  0  0  0  0  0  0  0  0
   45.3120   35.8220   43.2870 C   0  0  0  0  0  0  0  0  0  0  0  0
   46.2790   34.8480   43.1590 C   0  0  0  0  0  0  0  0  0  0  0  0
   46.5140   33.9420   44.1570 N   0  0  0  0  0  0  0  0  0  0  0  0
   45.7790   34.0010   45.3040 C   0  0  0  0  0  0  0  0  0  0  0  0
   44.8190   34.9400   45.4710 N   0  0  0  0  0  0  0  0  0  0  0  0
   45.9730   33.0890   46.3780 N   0  0  0  0  0  0  0  0  0  0  0  0
   46.8990   32.1130   46.3520 C   0  0  0  0  0  0  0  0  0  0  0  0
   46.9950   31.2940   47.4470 C   0  0  0  0  0  0  0  0  0  0  0  0
   47.9870   30.1990   47.4930 C   0  0  0  0  0  0  0  0  0  0  0  0
   46.1390   31.5240   48.5000 C   0  0  0  0  0  0  0  0  0  0  0  0
   46.2060   30.7800   49.5280 O   0  0  0  0  0  0  0  0  0  0  0  0
   45.2090   32.4970   48.5370 N   0  0  0  0  0  0  0  0  0  0  0  0
   45.1440   33.2880   47.4360 C   0  0  0  0  0  0  0  0  0  0  0  0
   44.2750   34.2030   47.4630 O   0  0  0  0  0  0  0  0  0  0  0  0
   47.0560   34.8050   41.9200 C   0  0  0  0  0  0  0  0  0  0  0  0
   48.3150   35.3120   41.7110 C   0  0  0  0  0  0  0  0  0  0  0  0
   48.5700   34.9970   40.3680 C   0  0  0  0  0  0  0  0  0  0  0  0
   47.4780   34.3340   39.8510 C   0  0  0  0  0  0  0  0  0  0  0  0
   46.6160   34.2560   40.8370 O   0  0  0  0  0  0  0  0  0  0  0  0
   47.3320   33.8430   38.5360 N   0  0  0  0  0  0  0  0  0  0  0  0
   48.3740   33.8980   37.5850 C   0  0  0  0  0  0  0  0  0  0  0  0
   49.1560   34.9600   37.6090 N   0  0  0  0  0  0  0  0  0  0  0  0
   48.4980   32.7860   36.6610 N   0  0  0  0  0  0  0  0  0  0  0  0
   49.9480   34.9210   36.9300 H   0  0  0  0  0  0  0  0  0  0  0  0
   43.8000   36.5912   44.6474 H   0  0  0  0  0  0  0  0  0  0  0  0
   45.1180   36.5533   42.4885 H   0  0  0  0  0  0  0  0  0  0  0  0
   47.5570   31.9769   45.4811 H   0  0  0  0  0  0  0  0  0  0  0  0
   48.2114   29.9513   48.5410 H   0  0  0  0  0  0  0  0  0  0  0  0
   47.5783   29.3124   46.9861 H   0  0  0  0  0  0  0  0  0  0  0  0
   48.9095   30.5184   46.9861 H   0  0  0  0  0  0  0  0  0  0  0  0
   44.5878   32.6321   49.3474 H   0  0  0  0  0  0  0  0  0  0  0  0
   48.9663   35.8381   42.4244 H   0  0  0  0  0  0  0  0  0  0  0  0
   49.4910   35.2395   39.8176 H   0  0  0  0  0  0  0  0  0  0  0  0
   46.4305   33.4286   38.2594 H   0  0  0  0  0  0  0  0  0  0  0  0
   47.8401   31.9954   36.7154 H   0  0  0  0  0  0  0  0  0  0  0  0
   49.2440   32.7873   35.9508 H   0  0  0  0  0  0  0  0  0  0  0  0
  1  6  2  0
  2  1  1  0
  3  2  2  0
  3  4  1  0
  4  5  2  0
  5  6  1  0
  5  7  1  0
  7 14  1  0
  8  7  1  0
  8  9  2  0
  9 10  1  0
  9 11  1  0
 11 13  1  0
 11 12  2  0
 14 15  2  0
 14 13  1  0
 16  3  1  0
 17 16  2  0
 18 17  1  0
 19 18  2  0
 19 20  1  0
 20 16  1  0
 21 19  1  0
 22 23  2  0
 22 21  1  0
 24 22  1  0
 25 23  1  0
  1 26  1  0
  2 27  1  0
  8 28  1  0
 10 29  1  0
 10 30  1  0
 10 31  1  0
 13 32  1  0
 17 33  1  0
 18 34  1  0
 21 35  1  0
 24 36  1  0
 24 37  1  0
M  END
>  <minimizedAffinity>  (1) 
-7.92732334

>  <minimizedRMSD>  (1) 
0.286840111

$$$$
