
     RDKit          3D

 41 44  0  0  0  0  0  0  0  0999 V2000
   44.5820   35.7230   44.8930 C   0  0  0  0  0  0  0  0  0  0  0  0
   45.1310   35.7760   43.6110 C   0  0  0  0  0  0  0  0  0  0  0  0
   46.0360   34.8320   43.1560 C   0  0  0  0  0  0  0  0  0  0  0  0
   46.3280   33.8580   44.0890 N   0  0  0  0  0  0  0  0  0  0  0  0
   45.7940   33.8190   45.3170 C   0  0  0  0  0  0  0  0  0  0  0  0
   44.9340   34.7490   45.6960 N   0  0  0  0  0  0  0  0  0  0  0  0
   46.1910   32.7470   46.1780 N   0  0  0  0  0  0  0  0  0  0  0  0
   45.5380   32.6000   47.3670 C   0  0  0  0  0  0  0  0  0  0  0  0
   45.9410   31.5540   48.1760 C   0  0  0  0  0  0  0  0  0  0  0  0
   46.9660   30.7340   47.7340 C   0  0  0  0  0  0  0  0  0  0  0  0
   47.3300   29.7800   48.4790 O   0  0  0  0  0  0  0  0  0  0  0  0
   47.5670   30.9250   46.5660 N   0  0  0  0  0  0  0  0  0  0  0  0
   47.1720   31.9360   45.7930 C   0  0  0  0  0  0  0  0  0  0  0  0
   47.7740   32.0740   44.6950 O   0  0  0  0  0  0  0  0  0  0  0  0
   46.7040   34.7160   41.8990 C   0  0  0  0  0  0  0  0  0  0  0  0
   47.9200   35.3480   41.7460 C   0  0  0  0  0  0  0  0  0  0  0  0
   48.6570   35.3050   40.5860 C   0  0  0  0  0  0  0  0  0  0  0  0
   48.1820   34.6020   39.5090 C   0  0  0  0  0  0  0  0  0  0  0  0
   46.9690   33.9400   39.5850 C   0  0  0  0  0  0  0  0  0  0  0  0
   46.4780   33.2320   38.5090 C   0  0  0  0  0  0  0  0  0  0  0  0
   45.2890   32.5730   38.5540 C   0  0  0  0  0  0  0  0  0  0  0  0
   44.6090   32.6650   39.7540 C   0  0  0  0  0  0  0  0  0  0  0  0
   45.1030   33.3660   40.8060 C   0  0  0  0  0  0  0  0  0  0  0  0
   46.2940   34.0280   40.7650 C   0  0  0  0  0  0  0  0  0  0  0  0
   44.3510   33.4120   41.9900 O   0  0  0  0  0  0  0  0  0  0  0  0
   45.2900   31.3130   49.5000 C   0  0  0  0  0  0  0  0  0  0  0  0
   44.8690   29.9800   49.5470 O   0  0  0  0  0  0  0  0  0  0  0  0
   43.8642   36.4877   45.2246 H   0  0  0  0  0  0  0  0  0  0  0  0
   44.8348   36.5953   42.9394 H   0  0  0  0  0  0  0  0  0  0  0  0
   44.7289   33.2818   47.6677 H   0  0  0  0  0  0  0  0  0  0  0  0
   48.3277   30.3008   46.2616 H   0  0  0  0  0  0  0  0  0  0  0  0
   48.3219   35.9169   42.5974 H   0  0  0  0  0  0  0  0  0  0  0  0
   49.6210   35.8310   40.5225 H   0  0  0  0  0  0  0  0  0  0  0  0
   48.7684   34.5639   38.5791 H   0  0  0  0  0  0  0  0  0  0  0  0
   47.0684   33.1988   37.5815 H   0  0  0  0  0  0  0  0  0  0  0  0
   44.8964   32.0070   37.6964 H   0  0  0  0  0  0  0  0  0  0  0  0
   43.6398   32.1555   39.8593 H   0  0  0  0  0  0  0  0  0  0  0  0
   44.6891   33.9165   42.7719 H   0  0  0  0  0  0  0  0  0  0  0  0
   46.0105   31.5041   50.3089 H   0  0  0  0  0  0  0  0  0  0  0  0
   44.4297   31.9865   49.6272 H   0  0  0  0  0  0  0  0  0  0  0  0
   44.7791   29.6954   50.4909 H   0  0  0  0  0  0  0  0  0  0  0  0
  1  6  2  0
  2  1  1  0
  3  2  2  0
  3  4  1  0
  4  5  2  0
  5  6  1  0
  5  7  1  0
  7  8  1  0
  8  9  2  0
  9 26  1  0
 10  9  1  0
 10 11  2  0
 12 10  1  0
 13  7  1  0
 13 12  1  0
 14 13  2  0
 15  3  1  0
 16 15  2  0
 17 16  1  0
 18 19  1  0
 18 17  2  0
 19 24  2  0
 20 21  2  0
 20 19  1  0
 21 22  1  0
 22 23  2  0
 23 25  1  0
 24 23  1  0
 24 15  1  0
 26 27  1  0
  1 28  1  0
  2 29  1  0
  8 30  1  0
 12 31  1  0
 16 32  1  0
 17 33  1  0
 18 34  1  0
 20 35  1  0
 21 36  1  0
 22 37  1  0
 25 38  1  0
 26 39  1  0
 26 40  1  0
 27 41  1  0
M  END
>  <minimizedAffinity>  (1) 
-7.59785509

>  <minimizedRMSD>  (1) 
0.245161474

$$$$
