
     RDKit          3D

 24 24  0  0  0  0  0  0  0  0999 V2000
   44.9040   35.2040   44.9170 C   0  0  0  0  0  0  0  0  0  0  0  0
   45.7720   34.7670   43.9310 C   0  0  0  0  0  0  0  0  0  0  0  0
   46.5300   33.6380   44.1890 C   0  0  0  0  0  0  0  0  0  0  0  0
   46.3770   33.0240   45.3980 N   0  0  0  0  0  0  0  0  0  0  0  0
   45.5350   33.4600   46.3350 C   0  0  0  0  0  0  0  0  0  0  0  0
   44.8180   34.5410   46.0720 N   0  0  0  0  0  0  0  0  0  0  0  0
   45.8910   35.4720   42.6460 C   0  0  0  0  0  0  0  0  0  0  0  0
   45.0020   36.5440   42.6680 F   0  0  0  0  0  0  0  0  0  0  0  0
   45.4230   34.6920   41.5910 F   0  0  0  0  0  0  0  0  0  0  0  0
   47.1480   35.8940   42.3700 F   0  0  0  0  0  0  0  0  0  0  0  0
   47.4790   33.0220   43.3130 C   0  0  0  0  0  0  0  0  0  0  0  0
   47.1360   32.2270   42.3740 O   0  0  0  0  0  0  0  0  0  0  0  0
   48.8460   33.0060   43.1250 O   0  0  0  0  0  0  0  0  0  0  0  0
   49.6420   33.6600   42.2710 C   0  0  0  0  0  0  0  0  0  0  0  0
   51.0440   33.7660   42.6180 N   0  0  0  0  0  0  0  0  0  0  0  0
   49.1040   34.1280   41.2390 O   0  0  0  0  0  0  0  0  0  0  0  0
   45.3520   32.8660   47.5670 O   0  0  0  0  0  0  0  0  0  0  0  0
   46.3430   32.1100   48.2100 C   0  0  0  0  0  0  0  0  0  0  0  0
   47.5370   32.7860   48.2380 F   0  0  0  0  0  0  0  0  0  0  0  0
   46.4520   30.8500   47.7220 F   0  0  0  0  0  0  0  0  0  0  0  0
   45.9600   32.0480   49.5670 F   0  0  0  0  0  0  0  0  0  0  0  0
   44.2852   36.0977   44.7484 H   0  0  0  0  0  0  0  0  0  0  0  0
   51.6939   34.2606   41.9904 H   0  0  0  0  0  0  0  0  0  0  0  0
   51.3912   33.3468   43.4924 H   0  0  0  0  0  0  0  0  0  0  0  0
  1  6  2  0
  2  3  2  0
  2  1  1  0
  3  4  1  0
  4  5  2  0
  5 17  1  0
  6  5  1  0
  7  8  1  0
  7  2  1  0
  9  7  1  0
 10  7  1  0
 11  3  1  0
 12 11  2  0
 13 11  1  0
 14 15  1  0
 14 13  1  0
 16 14  2  0
 17 18  1  0
 18 19  1  0
 18 21  1  0
 20 18  1  0
  1 22  1  0
 15 23  1  0
 15 24  1  0
M  ISO  1  22  14
M  END
>  <minimizedAffinity>  (1) 
-5.4633646

>  <minimizedRMSD>  (1) 
0.766505122

$$$$
