
     RDKit          3D

 28 29  0  0  0  0  0  0  0  0999 V2000
   46.5140   34.4310   41.5780 C   0  0  0  0  0  0  0  0  0  0  0  0
   45.2510   35.9560   43.0430 C   0  0  0  0  0  0  0  0  0  0  0  0
   45.9080   34.7370   42.8580 C   0  0  0  0  0  0  0  0  0  0  0  0
   45.9440   33.8690   43.9380 C   0  0  0  0  0  0  0  0  0  0  0  0
   45.3510   34.2470   45.0890 N   0  0  0  0  0  0  0  0  0  0  0  0
   44.7220   35.4370   45.2330 C   0  0  0  0  0  0  0  0  0  0  0  0
   44.6760   36.2790   44.2130 N   0  0  0  0  0  0  0  0  0  0  0  0
   46.5830   32.6240   43.8400 N   0  0  0  0  0  0  0  0  0  0  0  0
   47.8320   35.1970   41.4740 C   0  0  0  0  0  0  0  0  0  0  0  0
   48.9550   34.2220   41.6350 C   0  0  0  0  0  0  0  0  0  0  0  0
   49.8950   34.3280   42.6510 C   0  0  0  0  0  0  0  0  0  0  0  0
   50.7450   33.2990   42.4960 N   0  0  0  0  0  0  0  0  0  0  0  0
   50.3780   32.5490   41.4250 C   0  0  0  0  0  0  0  0  0  0  0  0
   49.2660   33.1260   40.8940 N   0  0  0  0  0  0  0  0  0  0  0  0
   48.4790   32.7080   39.7300 C   0  0  0  0  0  0  0  0  0  0  0  0
   46.7056   33.3502   41.5064 H   0  0  0  0  0  0  0  0  0  0  0  0
   45.8398   34.7253   40.7602 H   0  0  0  0  0  0  0  0  0  0  0  0
   45.2034   36.6705   42.2080 H   0  0  0  0  0  0  0  0  0  0  0  0
   44.2522   35.7024   46.1916 H   0  0  0  0  0  0  0  0  0  0  0  0
   46.6016   31.9894   44.6511 H   0  0  0  0  0  0  0  0  0  0  0  0
   47.0335   32.3445   42.9570 H   0  0  0  0  0  0  0  0  0  0  0  0
   47.9017   35.6858   40.4911 H   0  0  0  0  0  0  0  0  0  0  0  0
   47.8848   35.9689   42.2559 H   0  0  0  0  0  0  0  0  0  0  0  0
   49.9360   35.1029   43.4306 H   0  0  0  0  0  0  0  0  0  0  0  0
   50.8845   31.6449   41.0561 H   0  0  0  0  0  0  0  0  0  0  0  0
   47.5549   32.2172   40.0693 H   0  0  0  0  0  0  0  0  0  0  0  0
   48.2245   33.5898   39.1236 H   0  0  0  0  0  0  0  0  0  0  0  0
   49.0671   32.0034   39.1236 H   0  0  0  0  0  0  0  0  0  0  0  0
  1  3  1  0
  2  7  2  0
  3  2  1  0
  3  4  2  0
  4  5  1  0
  5  6  2  0
  7  6  1  0
  8  4  1  0
  9  1  1  0
  9 10  1  0
 10 11  2  0
 12 11  1  0
 13 12  2  0
 14 13  1  0
 14 10  1  0
 15 14  1  0
  1 16  1  0
  1 17  1  0
  2 18  1  0
  6 19  1  0
  8 20  1  0
  8 21  1  0
  9 22  1  0
  9 23  1  0
 11 24  1  0
 13 25  1  0
 15 26  1  0
 15 27  1  0
 15 28  1  0
M  ISO  8  16   8  17   8  18  14  19  14  22   8  23   8  24  14  25  14
M  ISO  3  26   8  27   8  28   8
M  END
>  <minimizedAffinity>  (1) 
-4.44376183

>  <minimizedRMSD>  (1) 
2.62133217

$$$$
