
     RDKit          3D

 55 59  0  0  1  0  0  0  0  0999 V2000
   46.4110   33.4320   45.5070 C   0  0  0  0  0  0  0  0  0  0  0  0
   46.4080   32.8340   44.2730 C   0  0  0  0  0  0  0  0  0  0  0  0
   46.9880   31.5080   44.1440 C   0  0  0  0  0  0  0  0  0  0  0  0
   47.5000   30.9360   45.2340 N   0  0  0  0  0  0  0  0  0  0  0  0
   47.4820   31.5570   46.4160 C   0  0  0  0  0  0  0  0  0  0  0  0
   46.9460   32.7830   46.5500 N   0  0  0  0  0  0  0  0  0  0  0  0
   48.0830   30.8760   47.5900 C   0  0  0  0  0  0  0  0  0  0  0  0
   48.4130   31.6200   48.7150 C   0  0  0  0  0  0  0  0  0  0  0  0
   48.9770   30.9670   49.8120 C   0  0  0  0  0  0  0  0  0  0  0  0
   49.2020   29.6490   49.7930 N   0  0  0  0  0  0  0  0  0  0  0  0
   48.8720   28.9490   48.6860 C   0  0  0  0  0  0  0  0  0  0  0  0
   48.3210   29.5580   47.6030 N   0  0  0  0  0  0  0  0  0  0  0  0
   49.1180   27.5450   48.6820 N   0  0  0  0  0  0  0  0  0  0  0  0
   48.5670   26.6030   47.8960 C   0  0  0  0  0  0  0  0  0  0  0  0
   49.0680   25.3870   48.2090 N   0  0  0  0  0  0  0  0  0  0  0  0
   49.9640   25.5280   49.2150 C   0  0  0  0  0  0  0  0  0  0  0  0
   50.7880   24.6750   49.9520 C   0  0  0  0  0  0  0  0  0  0  0  0
   50.7600   23.4440   49.6810 O   0  0  0  0  0  0  0  0  0  0  0  0
   51.5830   25.2070   50.9240 N   0  0  0  0  0  0  0  0  0  0  0  0
   51.5550   26.5320   51.1530 C   0  0  0  0  0  0  0  0  0  0  0  0
   52.4040   27.0460   52.1800 N   0  0  0  0  0  0  0  0  0  0  0  0
   50.7700   27.3860   50.4590 N   0  0  0  0  0  0  0  0  0  0  0  0
   49.9640   26.8830   49.4790 C   0  0  0  0  0  0  0  0  0  0  0  0
   45.8590   33.5770   43.1390 C   0  0  2  0  0  0  0  0  0  0  0  0
   45.7080   35.0110   43.5200 C   0  0  0  0  0  0  0  0  0  0  0  0
   44.8040   35.7890   42.7290 C   0  0  0  0  0  0  0  0  0  0  0  0
   44.0820   35.2490   41.6130 C   0  0  0  0  0  0  0  0  0  0  0  0
   44.1970   33.8150   41.3770 C   0  0  0  0  0  0  0  0  0  0  0  0
   44.5510   33.0590   42.6120 C   0  0  0  0  0  0  0  0  0  0  0  0
   46.9430   33.5730   42.0500 C   0  0  0  0  0  0  0  0  0  0  0  0
   46.9880   33.4520   40.7840 O   0  0  0  0  0  0  0  0  0  0  0  0
   48.2820   33.7620   42.6300 N   0  0  0  0  0  0  0  0  0  0  0  0
   49.0390   34.8890   42.4100 C   0  0  0  0  0  0  0  0  0  0  0  0
   48.7900   35.9480   41.8810 N   0  0  0  0  0  0  0  0  0  0  0  0
   50.4180   35.0240   42.8380 N   0  0  0  0  0  0  0  0  0  0  0  0
   47.9870   36.3810   41.5160 H   0  0  0  0  0  0  0  0  0  0  0  0
   45.9784   34.4347   45.6393 H   0  0  0  0  0  0  0  0  0  0  0  0
   47.0042   30.9903   43.1736 H   0  0  0  0  0  0  0  0  0  0  0  0
   48.2331   32.7049   48.7412 H   0  0  0  0  0  0  0  0  0  0  0  0
   49.2412   31.5471   50.7085 H   0  0  0  0  0  0  0  0  0  0  0  0
   47.8183   26.7940   47.1131 H   0  0  0  0  0  0  0  0  0  0  0  0
   52.2009   24.5980   51.4792 H   0  0  0  0  0  0  0  0  0  0  0  0
   52.4109   28.0553   52.3853 H   0  0  0  0  0  0  0  0  0  0  0  0
   53.0093   26.4074   52.7154 H   0  0  0  0  0  0  0  0  0  0  0  0
   46.2620   35.4475   44.3641 H   0  0  0  0  0  0  0  0  0  0  0  0
   44.6562   36.8478   42.9881 H   0  0  0  0  0  0  0  0  0  0  0  0
   43.0165   35.4747   41.7675 H   0  0  0  0  0  0  0  0  0  0  0  0
   44.5344   35.7196   40.7276 H   0  0  0  0  0  0  0  0  0  0  0  0
   43.2339   33.4415   40.9988 H   0  0  0  0  0  0  0  0  0  0  0  0
   45.0058   33.6605   40.6476 H   0  0  0  0  0  0  0  0  0  0  0  0
   43.7657   33.1996   43.3693 H   0  0  0  0  0  0  0  0  0  0  0  0
   44.6393   31.9871   42.3814 H   0  0  0  0  0  0  0  0  0  0  0  0
   48.6695   33.0175   43.2271 H   0  0  0  0  0  0  0  0  0  0  0  0
   50.9345   35.8938   42.6443 H   0  0  0  0  0  0  0  0  0  0  0  0
   50.8809   34.2501   43.3357 H   0  0  0  0  0  0  0  0  0  0  0  0
  1  6  2  0
  2  1  1  0
  3  2  2  0
  3  4  1  0
  4  5  2  0
  5  6  1  0
  5  7  1  0
  7 12  1  0
  7  8  2  0
  8  9  1  0
 10  9  2  0
 11 10  1  0
 12 11  2  0
 13 11  1  0
 13 23  1  0
 14 15  2  0
 14 13  1  0
 15 16  1  0
 16 23  2  0
 16 17  1  0
 17 19  1  0
 18 17  2  0
 19 20  1  0
 20 21  1  0
 22 20  2  0
 23 22  1  0
 24 30  1  6
 24 25  1  0
 24  2  1  0
 26 25  2  0
 27 26  1  0
 28 27  1  0
 28 29  1  0
 29 24  1  0
 30 32  1  0
 31 30  2  0
 33 32  1  0
 33 35  1  0
 34 33  2  0
 36 34  1  0
  1 37  1  0
  3 38  1  0
  8 39  1  0
  9 40  1  0
 14 41  1  0
 19 42  1  0
 21 43  1  0
 21 44  1  0
 25 45  1  0
 26 46  1  0
 27 47  1  0
 27 48  1  0
 28 49  1  0
 28 50  1  0
 29 51  1  0
 29 52  1  0
 32 53  1  0
 35 54  1  0
 35 55  1  0
M  END
>  <minimizedAffinity>  (1) 
-7.35438967

>  <minimizedRMSD>  (1) 
0.504481733

$$$$
