
     RDKit          3D

 46 50  0  0  0  0  0  0  0  0999 V2000
   46.6480   34.6040   41.6670 C   0  0  0  0  0  0  0  0  0  0  0  0
   44.5830   35.8150   44.5450 C   0  0  0  0  0  0  0  0  0  0  0  0
   45.1560   35.7240   43.2620 C   0  0  0  0  0  0  0  0  0  0  0  0
   46.0440   34.7010   43.0170 C   0  0  0  0  0  0  0  0  0  0  0  0
   46.3260   33.8280   44.0180 N   0  0  0  0  0  0  0  0  0  0  0  0
   45.7630   33.9320   45.2500 C   0  0  0  0  0  0  0  0  0  0  0  0
   44.8850   34.9380   45.5030 N   0  0  0  0  0  0  0  0  0  0  0  0
   46.0880   32.9820   46.2940 C   0  0  0  0  0  0  0  0  0  0  0  0
   45.3950   33.0210   47.5110 C   0  0  0  0  0  0  0  0  0  0  0  0
   45.6460   32.1490   48.5560 C   0  0  0  0  0  0  0  0  0  0  0  0
   46.6310   31.2490   48.2920 C   0  0  0  0  0  0  0  0  0  0  0  0
   47.3490   31.1650   47.1090 C   0  0  0  0  0  0  0  0  0  0  0  0
   47.0250   32.0630   46.1520 N   0  0  0  0  0  0  0  0  0  0  0  0
   44.3840   34.0120   47.6670 N   0  0  0  0  0  0  0  0  0  0  0  0
   47.9760   35.3250   41.5870 C   0  0  0  0  0  0  0  0  0  0  0  0
   49.1210   34.4290   41.8370 C   0  0  0  0  0  0  0  0  0  0  0  0
   50.1980   34.8210   42.5140 N   0  0  0  0  0  0  0  0  0  0  0  0
   51.0200   33.8330   42.5700 O   0  0  0  0  0  0  0  0  0  0  0  0
   50.5340   32.7790   41.9490 C   0  0  0  0  0  0  0  0  0  0  0  0
   49.3220   33.1580   41.4810 N   0  0  0  0  0  0  0  0  0  0  0  0
   51.1990   31.5260   41.8310 N   0  0  0  0  0  0  0  0  0  0  0  0
   50.9590   30.5370   42.7420 C   0  0  0  0  0  0  0  0  0  0  0  0
   51.6730   29.4200   42.4800 N   0  0  0  0  0  0  0  0  0  0  0  0
   52.3840   29.7010   41.3740 C   0  0  0  0  0  0  0  0  0  0  0  0
   53.2950   29.0200   40.5910 C   0  0  0  0  0  0  0  0  0  0  0  0
   53.5960   27.8510   40.9010 O   0  0  0  0  0  0  0  0  0  0  0  0
   53.8270   29.6450   39.5160 N   0  0  0  0  0  0  0  0  0  0  0  0
   53.5180   30.9200   39.1520 C   0  0  0  0  0  0  0  0  0  0  0  0
   54.1910   31.3840   37.9880 N   0  0  0  0  0  0  0  0  0  0  0  0
   52.6210   31.6030   39.9170 N   0  0  0  0  0  0  0  0  0  0  0  0
   52.0850   30.9910   40.9900 C   0  0  0  0  0  0  0  0  0  0  0  0
   46.8048   33.5428   41.4235 H   0  0  0  0  0  0  0  0  0  0  0  0
   45.9600   35.0788   40.9520 H   0  0  0  0  0  0  0  0  0  0  0  0
   43.8719   36.6259   44.7614 H   0  0  0  0  0  0  0  0  0  0  0  0
   44.9009   36.4508   42.4767 H   0  0  0  0  0  0  0  0  0  0  0  0
   45.1001   32.1808   49.5105 H   0  0  0  0  0  0  0  0  0  0  0  0
   46.8788   30.5269   49.0839 H   0  0  0  0  0  0  0  0  0  0  0  0
   48.1362   30.4117   46.9580 H   0  0  0  0  0  0  0  0  0  0  0  0
   43.8530   34.0718   48.5476 H   0  0  0  0  0  0  0  0  0  0  0  0
   44.1839   34.6688   46.8993 H   0  0  0  0  0  0  0  0  0  0  0  0
   48.0813   35.7601   40.5822 H   0  0  0  0  0  0  0  0  0  0  0  0
   47.9825   36.1012   42.3664 H   0  0  0  0  0  0  0  0  0  0  0  0
   50.2655   30.6380   43.5899 H   0  0  0  0  0  0  0  0  0  0  0  0
   54.5050   29.1265   38.9395 H   0  0  0  0  0  0  0  0  0  0  0  0
   54.0184   32.3376   37.6390 H   0  0  0  0  0  0  0  0  0  0  0  0
   54.8510   30.7664   37.4941 H   0  0  0  0  0  0  0  0  0  0  0  0
  1  4  1  0
  2  7  2  0
  3  2  1  0
  4  3  2  0
  4  5  1  0
  5  6  2  0
  6  7  1  0
  6  8  1  0
  8  9  2  0
  9 14  1  0
  9 10  1  0
 11 10  2  0
 12 11  1  0
 13  8  1  0
 13 12  2  0
 15  1  1  0
 15 16  1  0
 16 17  2  0
 17 18  1  0
 19 18  1  0
 20 16  1  0
 20 19  2  0
 21 19  1  0
 21 22  1  0
 23 22  2  0
 24 23  1  0
 25 26  2  0
 25 24  1  0
 27 25  1  0
 28 27  1  0
 28 30  2  0
 29 28  1  0
 30 31  1  0
 31 24  2  0
 31 21  1  0
  1 32  1  0
  1 33  1  0
  2 34  1  0
  3 35  1  0
 10 36  1  0
 11 37  1  0
 12 38  1  0
 14 39  1  0
 14 40  1  0
 15 41  1  0
 15 42  1  0
 22 43  1  0
 27 44  1  0
 29 45  1  0
 29 46  1  0
M  END
>  <minimizedAffinity>  (1) 
-7.88923645

>  <minimizedRMSD>  (1) 
0.538732469

$$$$
