
     RDKit          3D

 40 43  0  0  1  0  0  0  0  0999 V2000
   41.9140   35.2500   41.5680 C   0  0  1  0  0  0  0  0  0  0  0  0
   41.0810   36.4010   41.1090 C   0  0  0  0  0  0  0  0  0  0  0  0
   41.1590   35.1370   40.3070 C   0  0  2  0  0  0  0  0  0  0  0  0
   40.0550   34.2150   40.2980 N   0  0  0  0  0  0  0  0  0  0  0  0
   38.8940   34.3710   39.6450 C   0  0  0  0  0  0  0  0  0  0  0  0
   38.0980   33.2940   39.8760 N   0  0  0  0  0  0  0  0  0  0  0  0
   38.7380   32.4410   40.6770 C   0  0  0  0  0  0  0  0  0  0  0  0
   38.5160   31.2010   41.2800 C   0  0  0  0  0  0  0  0  0  0  0  0
   37.4060   30.6560   41.0520 O   0  0  0  0  0  0  0  0  0  0  0  0
   39.4490   30.6270   42.0630 N   0  0  0  0  0  0  0  0  0  0  0  0
   40.6320   31.2260   42.2950 C   0  0  0  0  0  0  0  0  0  0  0  0
   41.6630   30.6820   43.1080 N   0  0  0  0  0  0  0  0  0  0  0  0
   40.8410   32.4070   41.7180 N   0  0  0  0  0  0  0  0  0  0  0  0
   39.9570   33.0350   40.9290 C   0  0  0  0  0  0  0  0  0  0  0  0
   43.4150   35.3410   41.5530 C   0  0  0  0  0  0  0  0  0  0  0  0
   44.0380   35.7300   42.8600 C   0  0  0  0  0  0  0  0  0  0  0  0
   47.6100   34.9300   42.3020 C   0  0  0  0  0  0  0  0  0  0  0  0
   47.8510   33.9410   43.2800 C   0  0  0  0  0  0  0  0  0  0  0  0
   46.7810   33.5710   44.1060 C   0  0  0  0  0  0  0  0  0  0  0  0
   45.6030   34.1790   43.9180 N   0  0  0  0  0  0  0  0  0  0  0  0
   45.3910   35.1260   42.9750 C   0  0  0  0  0  0  0  0  0  0  0  0
   46.3950   35.4990   42.1710 N   0  0  0  0  0  0  0  0  0  0  0  0
   48.7640   35.3200   41.4200 C   0  0  0  0  0  0  0  0  0  0  0  0
   48.3990   35.2720   40.1180 F   0  0  0  0  0  0  0  0  0  0  0  0
   49.1810   36.5980   41.7320 F   0  0  0  0  0  0  0  0  0  0  0  0
   49.7660   34.3850   41.6040 F   0  0  0  0  0  0  0  0  0  0  0  0
   41.9707   34.6555   42.4918 H   0  0  0  0  0  0  0  0  0  0  0  0
   40.1549   36.6606   41.6428 H   0  0  0  0  0  0  0  0  0  0  0  0
   41.2606   37.4678   40.9096 H   0  0  0  0  0  0  0  0  0  0  0  0
   41.3930   34.9247   39.2533 H   0  0  0  0  0  0  0  0  0  0  0  0
   38.6275   35.2360   39.0198 H   0  0  0  0  0  0  0  0  0  0  0  0
   39.2537   29.7116   42.4929 H   0  0  0  0  0  0  0  0  0  0  0  0
   42.5433   31.2005   43.2389 H   0  0  0  0  0  0  0  0  0  0  0  0
   41.5299   29.7692   43.5663 H   0  0  0  0  0  0  0  0  0  0  0  0
   43.8139   34.3575   41.2639 H   0  0  0  0  0  0  0  0  0  0  0  0
   43.6680   36.1405   40.8411 H   0  0  0  0  0  0  0  0  0  0  0  0
   44.1220   36.8255   42.9123 H   0  0  0  0  0  0  0  0  0  0  0  0
   43.4075   35.3657   43.6844 H   0  0  0  0  0  0  0  0  0  0  0  0
   48.8426   33.4776   43.3898 H   0  0  0  0  0  0  0  0  0  0  0  0
   46.9052   32.8044   44.8851 H   0  0  0  0  0  0  0  0  0  0  0  0
  2  1  1  0
  3  2  1  0
  3  1  1  0
  4  3  1  0
  4 14  1  0
  5  6  2  0
  5  4  1  0
  6  7  1  0
  7 14  2  0
  7  8  1  0
  8 10  1  0
  9  8  2  0
 10 11  1  0
 11 12  1  0
 13 11  2  0
 14 13  1  0
 15  1  1  0
 15 16  1  0
 16 21  1  0
 17 18  2  0
 18 19  1  0
 20 19  2  0
 21 20  1  0
 22 17  1  0
 22 21  2  0
 23 26  1  0
 23 25  1  0
 23 17  1  0
 24 23  1  0
  1 27  1  1
  2 28  1  0
  2 29  1  0
  3 30  1  6
  5 31  1  0
 10 32  1  0
 12 33  1  0
 12 34  1  0
 15 35  1  0
 15 36  1  0
 16 37  1  0
 16 38  1  0
 18 39  1  0
 19 40  1  0
M  END
>  <minimizedAffinity>  (1) 
-7.04046535

>  <minimizedRMSD>  (1) 
1.03147531

$$$$
