
     RDKit          3D

 40 43  0  0  0  0  0  0  0  0999 V2000
   47.3840   33.3530   43.2240 C   0  0  0  0  0  0  0  0  0  0  0  0
   48.6440   33.4840   43.2810 O   0  0  0  0  0  0  0  0  0  0  0  0
   44.7760   35.3020   44.9940 C   0  0  0  0  0  0  0  0  0  0  0  0
   45.6330   34.9730   43.9530 C   0  0  0  0  0  0  0  0  0  0  0  0
   46.4430   33.8600   44.1520 C   0  0  0  0  0  0  0  0  0  0  0  0
   46.3640   33.1660   45.3170 N   0  0  0  0  0  0  0  0  0  0  0  0
   45.5410   33.4960   46.2970 C   0  0  0  0  0  0  0  0  0  0  0  0
   44.7690   34.5510   46.1160 N   0  0  0  0  0  0  0  0  0  0  0  0
   45.6930   35.7430   42.7080 C   0  0  0  0  0  0  0  0  0  0  0  0
   45.0140   36.9440   42.9370 F   0  0  0  0  0  0  0  0  0  0  0  0
   44.9490   35.1530   41.7180 F   0  0  0  0  0  0  0  0  0  0  0  0
   46.9630   35.9780   42.2880 F   0  0  0  0  0  0  0  0  0  0  0  0
   45.4170   32.8370   47.4930 O   0  0  0  0  0  0  0  0  0  0  0  0
   46.4700   32.1070   48.0800 C   0  0  0  0  0  0  0  0  0  0  0  0
   47.6400   32.8610   48.0930 F   0  0  0  0  0  0  0  0  0  0  0  0
   46.6420   30.8590   47.5260 F   0  0  0  0  0  0  0  0  0  0  0  0
   46.1400   31.9730   49.4410 F   0  0  0  0  0  0  0  0  0  0  0  0
   47.4640   32.6320   42.0570 O   0  0  0  0  0  0  0  0  0  0  0  0
   48.3800   31.7130   41.7130 C   0  0  0  0  0  0  0  0  0  0  0  0
   48.4000   30.3180   42.2020 C   0  0  0  0  0  0  0  0  0  0  0  0
   49.8490   29.6500   41.3770 S   0  0  0  0  0  0  0  0  0  0  0  0
   50.2270   31.2740   40.5130 C   0  0  0  0  0  0  0  0  0  0  0  0
   49.3570   31.9790   40.8980 N   0  0  0  0  0  0  0  0  0  0  0  0
   51.4200   31.3780   39.5920 C   0  0  0  0  0  0  0  0  0  0  0  0
   52.7220   31.2910   39.9160 C   0  0  0  0  0  0  0  0  0  0  0  0
   53.3140   31.4570   38.7250 N   0  0  0  0  0  0  0  0  0  0  0  0
   52.3700   31.6330   37.7520 C   0  0  0  0  0  0  0  0  0  0  0  0
   51.1420   31.5790   38.3280 N   0  0  0  0  0  0  0  0  0  0  0  0
   49.9250   31.7300   37.5710 C   0  0  0  0  0  0  0  0  0  0  0  0
   49.8380   31.3800   36.1520 C   0  0  0  0  0  0  0  0  0  0  0  0
   49.2900   30.4200   37.1440 C   0  0  0  0  0  0  0  0  0  0  0  0
   44.1061   36.1700   44.9054 H   0  0  0  0  0  0  0  0  0  0  0  0
   47.7059   29.8177   42.8934 H   0  0  0  0  0  0  0  0  0  0  0  0
   53.1816   31.1265   40.9017 H   0  0  0  0  0  0  0  0  0  0  0  0
   52.5716   31.7917   36.6823 H   0  0  0  0  0  0  0  0  0  0  0  0
   49.6480   32.6425   38.1193 H   0  0  0  0  0  0  0  0  0  0  0  0
   50.7529   31.1264   35.5965 H   0  0  0  0  0  0  0  0  0  0  0  0
   49.4278   31.8810   35.2628 H   0  0  0  0  0  0  0  0  0  0  0  0
   48.2033   30.2753   37.2339 H   0  0  0  0  0  0  0  0  0  0  0  0
   49.4446   29.3566   37.3791 H   0  0  0  0  0  0  0  0  0  0  0  0
  1  2  2  0
  1  5  1  0
  3  8  2  0
  4  5  2  0
  4  3  1  0
  5  6  1  0
  6  7  2  0
  7 13  1  0
  8  7  1  0
  9 10  1  0
  9  4  1  0
 11  9  1  0
 12  9  1  0
 13 14  1  0
 14 15  1  0
 14 17  1  0
 16 14  1  0
 18  1  1  0
 19 18  1  0
 19 20  2  0
 21 20  1  0
 22 23  2  0
 22 21  1  0
 23 19  1  0
 24 25  2  0
 24 22  1  0
 26 25  1  0
 27 28  1  0
 27 26  2  0
 28 24  1  0
 29 28  1  0
 30 31  1  0
 30 29  1  0
 31 29  1  0
  3 32  1  0
 20 33  1  0
 25 34  1  0
 27 35  1  0
 29 36  1  0
 30 37  1  0
 30 38  1  0
 31 39  1  0
 31 40  1  0
M  ISO  8  32  14  33  14  34  14  35  14  36  13  37  13  38  13  39  13
M  ISO  1  40  13
M  END
>  <minimizedAffinity>  (1) 
-5.77006578

>  <minimizedRMSD>  (1) 
1.3067764

$$$$
