
     RDKit          3D

 42 46  0  0  1  0  0  0  0  0999 V2000
   45.7220   33.7730   45.3540 C   0  0  0  0  0  0  0  0  0  0  0  0
   46.5200   33.8060   44.2130 C   0  0  0  0  0  0  0  0  0  0  0  0
   46.3400   34.8360   43.2940 C   0  0  0  0  0  0  0  0  0  0  0  0
   45.3920   35.7710   43.5420 N   0  0  0  0  0  0  0  0  0  0  0  0
   44.6280   35.7210   44.6560 C   0  0  0  0  0  0  0  0  0  0  0  0
   44.7980   34.7240   45.5520 N   0  0  0  0  0  0  0  0  0  0  0  0
   47.1800   34.8600   42.1070 C   0  0  0  0  0  0  0  0  0  0  0  0
   48.4250   35.5040   41.9900 C   0  0  0  0  0  0  0  0  0  0  0  0
   48.9080   35.3150   40.7550 N   0  0  0  0  0  0  0  0  0  0  0  0
   47.9970   34.5640   40.0810 C   0  0  0  0  0  0  0  0  0  0  0  0
   48.0120   34.0870   38.7750 C   0  0  0  0  0  0  0  0  0  0  0  0
   46.9640   33.3430   38.3330 C   0  0  0  0  0  0  0  0  0  0  0  0
   45.8530   33.0190   39.1190 C   0  0  0  0  0  0  0  0  0  0  0  0
   45.9020   33.5190   40.3960 C   0  0  0  0  0  0  0  0  0  0  0  0
   46.9090   34.2680   40.9050 C   0  0  0  0  0  0  0  0  0  0  0  0
   45.8510   32.7770   46.3060 O   0  0  0  0  0  0  0  0  0  0  0  0
   45.4340   32.8800   47.6370 C   0  0  1  0  0  0  0  0  0  0  0  0
   44.8710   31.6440   48.2490 C   0  0  0  0  0  0  0  0  0  0  0  0
   46.2750   32.1270   48.6180 C   0  0  1  0  0  0  0  0  0  0  0  0
   47.3980   31.2910   48.0860 C   0  0  0  0  0  0  0  0  0  0  0  0
   47.7080   31.3980   46.8670 O   0  0  0  0  0  0  0  0  0  0  0  0
   48.1520   30.3920   48.7740 O   0  0  0  0  0  0  0  0  0  0  0  0
   49.1640   30.7890   49.6380 C   0  0  0  0  0  0  0  0  0  0  0  0
   49.9100   31.9720   49.6200 C   0  0  0  0  0  0  0  0  0  0  0  0
   50.7760   31.8610   50.6920 C   0  0  0  0  0  0  0  0  0  0  0  0
   50.5810   30.6910   51.3270 N   0  0  0  0  0  0  0  0  0  0  0  0
   49.6060   30.0420   50.6910 N   0  0  0  0  0  0  0  0  0  0  0  0
   47.2806   33.0303   44.0407 H   0  0  0  0  0  0  0  0  0  0  0  0
   43.8658   36.4940   44.8336 H   0  0  0  0  0  0  0  0  0  0  0  0
   48.9239   36.0737   42.7878 H   0  0  0  0  0  0  0  0  0  0  0  0
   49.8010   35.6714   40.3857 H   0  0  0  0  0  0  0  0  0  0  0  0
   48.8594   34.3085   38.1095 H   0  0  0  0  0  0  0  0  0  0  0  0
   46.9909   32.9742   37.2970 H   0  0  0  0  0  0  0  0  0  0  0  0
   45.0126   32.4155   38.7456 H   0  0  0  0  0  0  0  0  0  0  0  0
   45.0546   33.2931   41.0601 H   0  0  0  0  0  0  0  0  0  0  0  0
   45.0782   33.9174   47.5521 H   0  0  0  0  0  0  0  0  0  0  0  0
   44.0532   31.7141   48.9813 H   0  0  0  0  0  0  0  0  0  0  0  0
   44.4429   30.7066   47.8644 H   0  0  0  0  0  0  0  0  0  0  0  0
   46.8118   32.3993   49.5387 H   0  0  0  0  0  0  0  0  0  0  0  0
   49.8261   32.8072   48.9091 H   0  0  0  0  0  0  0  0  0  0  0  0
   51.5173   32.6196   50.9836 H   0  0  0  0  0  0  0  0  0  0  0  0
   51.0932   30.3569   52.1558 H   0  0  0  0  0  0  0  0  0  0  0  0
  1  6  1  0
  1 16  1  0
  2  1  2  0
  3  4  2  0
  3  2  1  0
  4  5  1  0
  5  6  2  0
  7  3  1  0
  8  7  2  0
  9  8  1  0
 10  9  1  0
 10 15  2  0
 11 10  1  0
 12 11  2  0
 12 13  1  0
 13 14  2  0
 14 15  1  0
 15  7  1  0
 16 17  1  0
 17 18  1  0
 17 19  1  0
 18 19  1  0
 20 19  1  0
 20 22  1  0
 21 20  2  0
 22 23  1  0
 23 27  2  0
 24 23  1  0
 24 25  2  0
 25 26  1  0
 27 26  1  0
  2 28  1  0
  5 29  1  0
  8 30  1  0
  9 31  1  0
 11 32  1  0
 12 33  1  0
 13 34  1  0
 14 35  1  0
 17 36  1  1
 18 37  1  0
 18 38  1  0
 19 39  1  1
 24 40  1  0
 25 41  1  0
 26 42  1  0
M  END
>  <minimizedAffinity>  (1) 
-7.2663579

>  <minimizedRMSD>  (1) 
0.938684404

$$$$
