
     RDKit          3D

 43 45  0  0  1  0  0  0  0  0999 V2000
   42.2880   34.8910   40.7830 C   0  0  2  0  0  0  0  0  0  0  0  0
   41.0490   35.3920   41.5150 C   0  0  0  0  0  0  0  0  0  0  0  0
   40.1620   36.0540   40.4640 C   0  0  0  0  0  0  0  0  0  0  0  0
   40.5520   35.6930   39.0640 C   0  0  0  0  0  0  0  0  0  0  0  0
   40.8980   34.2280   38.9000 C   0  0  0  0  0  0  0  0  0  0  0  0
   41.8940   33.7580   39.9170 C   0  0  1  0  0  0  0  0  0  0  0  0
   43.0270   33.0810   39.3050 N   0  0  0  0  0  0  0  0  0  0  0  0
   43.8370   33.5460   38.3430 N   0  0  0  0  0  0  0  0  0  0  0  0
   44.7500   32.6340   38.0520 C   0  0  0  0  0  0  0  0  0  0  0  0
   44.5160   31.5320   38.8640 C   0  0  0  0  0  0  0  0  0  0  0  0
   43.4140   31.8390   39.6530 C   0  0  0  0  0  0  0  0  0  0  0  0
   43.3170   34.6340   41.6560 O   0  0  0  0  0  0  0  0  0  0  0  0
   44.0930   35.7820   41.9280 C   0  0  0  0  0  0  0  0  0  0  0  0
   45.4410   35.3140   42.2930 C   0  0  1  0  0  0  0  0  0  0  0  0
   45.4780   34.7580   43.6910 C   0  0  0  0  0  0  0  0  0  0  0  0
   44.6710   35.4570   44.6150 C   0  0  0  0  0  0  0  0  0  0  0  0
   44.6560   34.9920   45.9380 C   0  0  0  0  0  0  0  0  0  0  0  0
   45.4320   33.8870   46.2330 N   0  0  0  0  0  0  0  0  0  0  0  0
   46.1830   33.2570   45.3160 C   0  0  0  0  0  0  0  0  0  0  0  0
   46.2200   33.6800   44.0270 N   0  0  0  0  0  0  0  0  0  0  0  0
   46.0520   34.3540   41.2780 C   0  0  0  0  0  0  0  0  0  0  0  0
   42.6994   35.6683   40.1222 H   0  0  0  0  0  0  0  0  0  0  0  0
   40.5186   34.5502   41.9842 H   0  0  0  0  0  0  0  0  0  0  0  0
   41.3176   36.1009   42.3121 H   0  0  0  0  0  0  0  0  0  0  0  0
   39.1221   35.7372   40.6318 H   0  0  0  0  0  0  0  0  0  0  0  0
   40.2794   37.1426   40.5700 H   0  0  0  0  0  0  0  0  0  0  0  0
   39.7120   35.9309   38.3948 H   0  0  0  0  0  0  0  0  0  0  0  0
   41.4542   36.2716   38.8165 H   0  0  0  0  0  0  0  0  0  0  0  0
   39.9783   33.6340   39.0057 H   0  0  0  0  0  0  0  0  0  0  0  0
   41.3491   34.0996   37.9050 H   0  0  0  0  0  0  0  0  0  0  0  0
   41.4216   32.9961   40.5545 H   0  0  0  0  0  0  0  0  0  0  0  0
   45.5495   32.7310   37.3027 H   0  0  0  0  0  0  0  0  0  0  0  0
   45.0926   30.5954   38.8797 H   0  0  0  0  0  0  0  0  0  0  0  0
   42.9489   31.1939   40.4129 H   0  0  0  0  0  0  0  0  0  0  0  0
   44.1445   36.4233   41.0358 H   0  0  0  0  0  0  0  0  0  0  0  0
   43.6484   36.3723   42.7428 H   0  0  0  0  0  0  0  0  0  0  0  0
   46.0831   36.2069   42.2727 H   0  0  0  0  0  0  0  0  0  0  0  0
   44.0777   36.3314   44.3093 H   0  0  0  0  0  0  0  0  0  0  0  0
   44.0501   35.4875   46.7109 H   0  0  0  0  0  0  0  0  0  0  0  0
   46.7792   32.3821   45.6147 H   0  0  0  0  0  0  0  0  0  0  0  0
   46.5696   33.5408   41.8079 H   0  0  0  0  0  0  0  0  0  0  0  0
   45.2559   33.9321   40.6470 H   0  0  0  0  0  0  0  0  0  0  0  0
   46.7713   34.8966   40.6470 H   0  0  0  0  0  0  0  0  0  0  0  0
  1  2  1  0
  1 12  1  0
  3  2  1  0
  4  3  1  0
  5  4  1  0
  5  6  1  0
  6  1  1  0
  7 11  1  0
  7  6  1  0
  8  7  1  0
  9  8  2  0
  9 10  1  0
 10 11  2  0
 12 13  1  0
 13 14  1  0
 14 15  1  0
 15 20  1  0
 15 16  2  0
 16 17  1  0
 17 18  2  0
 19 18  1  0
 20 19  2  0
 21 14  1  0
  1 22  1  6
  2 23  1  0
  2 24  1  0
  3 25  1  0
  3 26  1  0
  4 27  1  0
  4 28  1  0
  5 29  1  0
  5 30  1  0
  6 31  1  1
  9 32  1  0
 10 33  1  0
 11 34  1  0
 13 35  1  0
 13 36  1  0
 14 37  1  1
 16 38  1  0
 17 39  1  0
 19 40  1  0
 21 41  1  0
 21 42  1  0
 21 43  1  0
M  ISO  8  22  13  23  13  24  13  25  13  26  13  27  13  28  13  29  13
M  ISO  8  30  13  31  13  32  14  33  14  34  14  35   8  36   8  37   8
M  ISO  6  38  14  39  14  40  14  41   8  42   8  43   8
M  END
>  <minimizedAffinity>  (1) 
-5.07844305

>  <minimizedRMSD>  (1) 
4.08908892

$$$$
