
     RDKit          3D

 39 42  0  0  1  0  0  0  0  0999 V2000
   49.0810   29.3110   48.7190 N   0  0  0  0  0  0  0  0  0  0  0  0
   49.3050   28.0410   48.0960 C   0  0  0  0  0  0  0  0  0  0  0  0
   50.7630   27.6620   48.0750 C   0  0  0  0  0  0  0  0  0  0  0  0
   51.4800   28.1080   49.3170 C   0  0  0  0  0  0  0  0  0  0  0  0
   50.4790   28.3860   50.4460 C   0  0  0  0  0  0  0  0  0  0  0  0
   49.6880   29.5840   50.0080 C   0  0  1  0  0  0  0  0  0  0  0  0
   47.0280   32.3030   46.9100 C   0  0  0  0  0  0  0  0  0  0  0  0
   46.9460   32.3210   48.2760 C   0  0  0  0  0  0  0  0  0  0  0  0
   47.5960   31.3650   48.9770 C   0  0  0  0  0  0  0  0  0  0  0  0
   48.3050   30.4280   48.2450 C   0  0  0  0  0  0  0  0  0  0  0  0
   48.0480   30.9050   46.5500 S   0  0  0  0  0  0  0  0  0  0  0  0
   44.8450   34.8060   45.3320 C   0  0  0  0  0  0  0  0  0  0  0  0
   45.3680   34.8410   44.0140 C   0  0  0  0  0  0  0  0  0  0  0  0
   46.4620   34.0000   43.7000 C   0  0  0  0  0  0  0  0  0  0  0  0
   46.9690   33.1870   44.6850 N   0  0  0  0  0  0  0  0  0  0  0  0
   46.4450   33.1860   45.9170 C   0  0  0  0  0  0  0  0  0  0  0  0
   45.3940   33.9850   46.2440 N   0  0  0  0  0  0  0  0  0  0  0  0
   50.5360   30.7370   50.0260 N   0  0  0  0  0  0  0  0  0  0  0  0
   50.5450   31.5830   51.0680 N   0  0  0  0  0  0  0  0  0  0  0  0
   51.4130   32.5540   50.8250 C   0  0  0  0  0  0  0  0  0  0  0  0
   51.9970   32.3630   49.6080 C   0  0  0  0  0  0  0  0  0  0  0  0
   51.4160   31.2020   49.1320 C   0  0  0  0  0  0  0  0  0  0  0  0
   48.7478   27.2719   48.6510 H   0  0  0  0  0  0  0  0  0  0  0  0
   48.9617   28.1131   47.0534 H   0  0  0  0  0  0  0  0  0  0  0  0
   50.8441   26.5681   47.9920 H   0  0  0  0  0  0  0  0  0  0  0  0
   51.2312   28.1631   47.2149 H   0  0  0  0  0  0  0  0  0  0  0  0
   52.1756   27.3181   49.6366 H   0  0  0  0  0  0  0  0  0  0  0  0
   52.0320   29.0334   49.0957 H   0  0  0  0  0  0  0  0  0  0  0  0
   49.8151   27.5209   50.5904 H   0  0  0  0  0  0  0  0  0  0  0  0
   50.9897   28.5669   51.4033 H   0  0  0  0  0  0  0  0  0  0  0  0
   48.8591   29.7979   50.6987 H   0  0  0  0  0  0  0  0  0  0  0  0
   46.3631   33.0975   48.7930 H   0  0  0  0  0  0  0  0  0  0  0  0
   47.5631   31.3332   50.0760 H   0  0  0  0  0  0  0  0  0  0  0  0
   43.9945   35.4474   45.6065 H   0  0  0  0  0  0  0  0  0  0  0  0
   44.9333   35.5064   43.2536 H   0  0  0  0  0  0  0  0  0  0  0  0
   46.8969   33.9972   42.6896 H   0  0  0  0  0  0  0  0  0  0  0  0
   51.6304   33.3909   51.5049 H   0  0  0  0  0  0  0  0  0  0  0  0
   52.7566   32.9892   49.1171 H   0  0  0  0  0  0  0  0  0  0  0  0
   51.6432   30.7316   48.1640 H   0  0  0  0  0  0  0  0  0  0  0  0
  1  6  1  0
  2  1  1  0
  3  2  1  0
  3  4  1  0
  4  5  1  0
  6 18  1  0
  6  5  1  0
  7  8  2  0
  8  9  1  0
 10  1  1  0
 10  9  2  0
 11  7  1  0
 11 10  1  0
 12 17  2  0
 13 12  1  0
 14 13  2  0
 14 15  1  0
 15 16  2  0
 16 17  1  0
 16  7  1  0
 18 19  1  0
 20 19  2  0
 21 20  1  0
 22 21  2  0
 22 18  1  0
  2 23  1  0
  2 24  1  0
  3 25  1  0
  3 26  1  0
  4 27  1  0
  4 28  1  0
  5 29  1  0
  5 30  1  0
  6 31  1  1
  8 32  1  0
  9 33  1  0
 12 34  1  0
 13 35  1  0
 14 36  1  0
 20 37  1  0
 21 38  1  0
 22 39  1  0
M  ISO  8  23  13  24  13  25  13  26  13  27  13  28  13  29  13  30  13
M  ISO  8  31  13  32  14  33  14  34  14  35  14  36  14  37  14  38  14
M  ISO  1  39  14
M  END
>  <minimizedAffinity>  (1) 
-4.75976896

>  <minimizedRMSD>  (1) 
1.99387765

$$$$
