
     RDKit          3D

 36 38  0  0  1  0  0  0  0  0999 V2000
   46.1240   33.7560   45.2450 C   0  0  2  0  0  0  0  0  0  0  0  0
   45.0000   34.8350   45.4390 C   0  0  0  0  0  0  0  0  0  0  0  0
   44.7270   35.7090   44.3290 C   0  0  0  0  0  0  0  0  0  0  0  0
   45.4580   35.5790   43.0810 C   0  0  1  0  0  0  0  0  0  0  0  0
   46.5470   34.5990   43.0580 C   0  0  0  0  0  0  0  0  0  0  0  0
   46.1580   33.3780   43.8610 C   0  0  0  0  0  0  0  0  0  0  0  0
   45.1210   32.9880   47.3460 C   0  0  0  0  0  0  0  0  0  0  0  0
   45.9500   32.7880   46.2860 C   0  0  0  0  0  0  0  0  0  0  0  0
   46.6210   31.5570   46.2310 C   0  0  0  0  0  0  0  0  0  0  0  0
   46.4500   30.6310   47.1790 N   0  0  0  0  0  0  0  0  0  0  0  0
   45.6060   30.8590   48.2430 C   0  0  0  0  0  0  0  0  0  0  0  0
   44.9580   32.0200   48.3140 N   0  0  0  0  0  0  0  0  0  0  0  0
   45.4490   29.8740   49.2680 N   0  0  0  0  0  0  0  0  0  0  0  0
   47.5390   30.9790   45.3140 N   0  0  0  0  0  0  0  0  0  0  0  0
   47.8280   31.3120   44.0380 N   0  0  0  0  0  0  0  0  0  0  0  0
   48.7520   30.3990   43.6150 C   0  0  0  0  0  0  0  0  0  0  0  0
   49.0700   29.4720   44.6000 C   0  0  0  0  0  0  0  0  0  0  0  0
   48.2780   29.8750   45.6640 C   0  0  0  0  0  0  0  0  0  0  0  0
   44.4260   35.2440   41.9760 C   0  0  0  0  0  0  0  0  0  0  0  0
   43.4240   34.4110   42.4120 F   0  0  0  0  0  0  0  0  0  0  0  0
   43.8170   36.4520   41.6300 F   0  0  0  0  0  0  0  0  0  0  0  0
   45.0840   34.7780   40.8450 F   0  0  0  0  0  0  0  0  0  0  0  0
   47.1654   34.0787   45.3908 H   0  0  0  0  0  0  0  0  0  0  0  0
   44.4442   34.9193   46.3845 H   0  0  0  0  0  0  0  0  0  0  0  0
   43.9544   36.4858   44.4271 H   0  0  0  0  0  0  0  0  0  0  0  0
   45.9724   36.5385   42.9240 H   0  0  0  0  0  0  0  0  0  0  0  0
   46.7489   34.3025   42.0181 H   0  0  0  0  0  0  0  0  0  0  0  0
   47.4489   35.0495   43.4981 H   0  0  0  0  0  0  0  0  0  0  0  0
   45.1658   33.0231   43.5455 H   0  0  0  0  0  0  0  0  0  0  0  0
   46.8832   32.5664   43.7020 H   0  0  0  0  0  0  0  0  0  0  0  0
   44.5720   33.9373   47.4321 H   0  0  0  0  0  0  0  0  0  0  0  0
   44.8158   30.0520   50.0607 H   0  0  0  0  0  0  0  0  0  0  0  0
   45.9691   28.9866   49.2135 H   0  0  0  0  0  0  0  0  0  0  0  0
   49.1945   30.3978   42.6079 H   0  0  0  0  0  0  0  0  0  0  0  0
   49.7744   28.6287   44.5484 H   0  0  0  0  0  0  0  0  0  0  0  0
   48.2459   29.3819   46.6468 H   0  0  0  0  0  0  0  0  0  0  0  0
  1  2  1  0
  1  8  1  0
  3  2  2  0
  4  3  1  0
  5  4  1  0
  5  6  1  0
  6  1  1  0
  7 12  2  0
  8  7  1  0
  9  8  2  0
  9 10  1  0
 10 11  2  0
 11 12  1  0
 11 13  1  0
 14 18  1  0
 14  9  1  0
 15 14  1  0
 16 15  2  0
 16 17  1  0
 17 18  2  0
 19 20  1  0
 19  4  1  0
 21 19  1  0
 22 19  1  0
  1 23  1  1
  2 24  1  0
  3 25  1  0
  4 26  1  6
  5 27  1  0
  5 28  1  0
  6 29  1  0
  6 30  1  0
  7 31  1  0
 13 32  1  0
 13 33  1  0
 16 34  1  0
 17 35  1  0
 18 36  1  0
M  ISO  8  23  13  24  13  25  13  26  13  27  13  28  13  29  13  30  13
M  ISO  4  31  14  34  14  35  14  36  14
M  END
>  <minimizedAffinity>  (1) 
-5.7706666

>  <minimizedRMSD>  (1) 
0.605446398

$$$$
