
     RDKit          3D

 36 39  0  0  0  0  0  0  0  0999 V2000
   46.3770   30.6860   46.1160 C   0  0  0  0  0  0  0  0  0  0  0  0
   45.6320   31.1310   47.2270 C   0  0  0  0  0  0  0  0  0  0  0  0
   44.9310   30.0260   47.6580 C   0  0  0  0  0  0  0  0  0  0  0  0
   45.2290   28.9910   46.8660 N   0  0  0  0  0  0  0  0  0  0  0  0
   46.0980   29.3630   45.9290 N   0  0  0  0  0  0  0  0  0  0  0  0
   44.6490   27.6990   47.0730 C   0  0  0  0  0  0  0  0  0  0  0  0
   43.4180   27.2350   46.3540 C   0  0  0  0  0  0  0  0  0  0  0  0
   43.2390   25.5280   47.0800 S   0  0  0  0  0  0  0  0  0  0  0  0
   44.7970   25.7740   48.1630 C   0  0  0  0  0  0  0  0  0  0  0  0
   45.1610   26.8120   47.9200 N   0  0  0  0  0  0  0  0  0  0  0  0
   45.3650   24.7680   49.1140 N   0  0  0  0  0  0  0  0  0  0  0  0
   46.0150   23.6140   48.8140 C   0  0  0  0  0  0  0  0  0  0  0  0
   46.3240   23.0670   50.0000 N   0  0  0  0  0  0  0  0  0  0  0  0
   45.8740   23.8660   50.9880 C   0  0  0  0  0  0  0  0  0  0  0  0
   45.2810   24.9190   50.4390 N   0  0  0  0  0  0  0  0  0  0  0  0
   47.5270   31.3960   44.9710 S   0  0  0  0  0  0  0  0  0  0  0  0
   47.1660   34.7190   42.7240 C   0  0  0  0  0  0  0  0  0  0  0  0
   47.7280   33.5470   43.2820 C   0  0  0  0  0  0  0  0  0  0  0  0
   46.9540   32.8600   44.2040 C   0  0  0  0  0  0  0  0  0  0  0  0
   45.7250   33.3380   44.5180 N   0  0  0  0  0  0  0  0  0  0  0  0
   45.2350   34.4650   43.9560 C   0  0  0  0  0  0  0  0  0  0  0  0
   45.9540   35.1360   43.0740 N   0  0  0  0  0  0  0  0  0  0  0  0
   48.0850   35.3710   41.7480 C   0  0  0  0  0  0  0  0  0  0  0  0
   49.5110   35.2870   42.2210 C   0  0  0  0  0  0  0  0  0  0  0  0
   45.6142   32.1432   47.6574 H   0  0  0  0  0  0  0  0  0  0  0  0
   44.2397   29.9997   48.5132 H   0  0  0  0  0  0  0  0  0  0  0  0
   42.7969   27.7545   45.6095 H   0  0  0  0  0  0  0  0  0  0  0  0
   46.2398   23.2138   47.8143 H   0  0  0  0  0  0  0  0  0  0  0  0
   45.9802   23.6773   52.0665 H   0  0  0  0  0  0  0  0  0  0  0  0
   48.7315   33.1975   42.9978 H   0  0  0  0  0  0  0  0  0  0  0  0
   44.2335   34.8251   44.2340 H   0  0  0  0  0  0  0  0  0  0  0  0
   47.8030   36.4285   41.6376 H   0  0  0  0  0  0  0  0  0  0  0  0
   48.0018   34.8506   40.7824 H   0  0  0  0  0  0  0  0  0  0  0  0
   49.5330   35.2857   43.3208 H   0  0  0  0  0  0  0  0  0  0  0  0
   49.9684   34.3604   41.8440 H   0  0  0  0  0  0  0  0  0  0  0  0
   50.0740   36.1535   41.8440 H   0  0  0  0  0  0  0  0  0  0  0  0
  1  2  1  0
  2  3  2  0
  4  6  1  0
  4  3  1  0
  5  1  2  0
  5  4  1  0
  6 10  1  0
  7  6  2  0
  7  8  1  0
  8  9  1  0
  9 11  1  0
 10  9  2  0
 11 15  1  0
 12 11  1  0
 12 13  2  0
 13 14  1  0
 15 14  2  0
 16  1  1  0
 17 22  2  0
 17 18  1  0
 18 19  2  0
 19 20  1  0
 19 16  1  0
 21 20  2  0
 22 21  1  0
 23 24  1  0
 23 17  1  0
  2 25  1  0
  3 26  1  0
  7 27  1  0
 12 28  1  0
 14 29  1  0
 18 30  1  0
 21 31  1  0
 23 32  1  0
 23 33  1  0
 24 34  1  0
 24 35  1  0
 24 36  1  0
M  ISO  8  25  14  26  14  27  14  28  14  29  14  30  14  31  14  32   8
M  ISO  4  33   8  34   8  35   8  36   8
M  END
>  <minimizedAffinity>  (1) 
-5.43394852

>  <minimizedRMSD>  (1) 
0.979683638

$$$$
