
     RDKit          3D

 43 45  0  0  0  0  0  0  0  0999 V2000
   50.7000   33.1000   42.0370 C   0  0  0  0  0  0  0  0  0  0  0  0
   50.7650   31.7080   42.1080 C   0  0  0  0  0  0  0  0  0  0  0  0
   49.6730   31.0450   42.6400 C   0  0  0  0  0  0  0  0  0  0  0  0
   48.6010   31.7900   43.0610 N   0  0  0  0  0  0  0  0  0  0  0  0
   48.5750   33.1300   42.9760 C   0  0  0  0  0  0  0  0  0  0  0  0
   49.6120   33.7470   42.4740 N   0  0  0  0  0  0  0  0  0  0  0  0
   47.3930   33.7340   43.4590 N   0  0  0  0  0  0  0  0  0  0  0  0
   46.9990   33.3830   44.6970 C   0  0  0  0  0  0  0  0  0  0  0  0
   45.8580   33.9110   45.2730 C   0  0  0  0  0  0  0  0  0  0  0  0
   45.1110   34.8260   44.5410 C   0  0  0  0  0  0  0  0  0  0  0  0
   44.0700   35.3300   45.0260 O   0  0  0  0  0  0  0  0  0  0  0  0
   45.5210   35.1690   43.2950 N   0  0  0  0  0  0  0  0  0  0  0  0
   46.6350   34.6330   42.7720 C   0  0  0  0  0  0  0  0  0  0  0  0
   47.0440   34.9300   41.6160 O   0  0  0  0  0  0  0  0  0  0  0  0
   45.4520   33.4970   46.6490 C   0  0  0  0  0  0  0  0  0  0  0  0
   44.7210   36.1220   42.5730 C   0  0  0  0  0  0  0  0  0  0  0  0
   43.6820   35.4160   41.8060 C   0  0  0  0  0  0  0  0  0  0  0  0
   42.3520   35.3610   42.3670 N   0  0  0  0  0  0  0  0  0  0  0  0
   41.2110   35.5230   41.5740 C   0  0  0  0  0  0  0  0  0  0  0  0
   40.7910   36.6510   41.0580 O   0  0  0  0  0  0  0  0  0  0  0  0
   40.2320   34.4550   41.1610 C   0  0  0  0  0  0  0  0  0  0  0  0
   39.3220   34.6850   40.1780 C   0  0  0  0  0  0  0  0  0  0  0  0
   38.4040   33.6950   39.8080 C   0  0  0  0  0  0  0  0  0  0  0  0
   38.3980   32.4670   40.4270 C   0  0  0  0  0  0  0  0  0  0  0  0
   39.2980   32.1810   41.4300 C   0  0  0  0  0  0  0  0  0  0  0  0
   40.1640   33.1990   41.7370 C   0  0  0  0  0  0  0  0  0  0  0  0
   51.5452   33.6678   41.6207 H   0  0  0  0  0  0  0  0  0  0  0  0
   51.6502   31.1588   41.7547 H   0  0  0  0  0  0  0  0  0  0  0  0
   49.6649   29.9482   42.7232 H   0  0  0  0  0  0  0  0  0  0  0  0
   47.5998   32.6576   45.2652 H   0  0  0  0  0  0  0  0  0  0  0  0
   46.0215   34.0777   47.3896 H   0  0  0  0  0  0  0  0  0  0  0  0
   44.3765   33.6830   46.7855 H   0  0  0  0  0  0  0  0  0  0  0  0
   45.6590   32.4253   46.7855 H   0  0  0  0  0  0  0  0  0  0  0  0
   44.2447   36.8131   43.2840 H   0  0  0  0  0  0  0  0  0  0  0  0
   45.3630   36.6881   41.8821 H   0  0  0  0  0  0  0  0  0  0  0  0
   44.0232   34.3794   41.6682 H   0  0  0  0  0  0  0  0  0  0  0  0
   43.5698   36.0050   40.8837 H   0  0  0  0  0  0  0  0  0  0  0  0
   42.2408   35.1981   43.3779 H   0  0  0  0  0  0  0  0  0  0  0  0
   39.3067   35.6594   39.6678 H   0  0  0  0  0  0  0  0  0  0  0  0
   37.6762   33.9026   39.0098 H   0  0  0  0  0  0  0  0  0  0  0  0
   37.6670   31.7053   40.1181 H   0  0  0  0  0  0  0  0  0  0  0  0
   39.3203   31.2096   41.9456 H   0  0  0  0  0  0  0  0  0  0  0  0
   40.8910   32.9924   42.5362 H   0  0  0  0  0  0  0  0  0  0  0  0
  1  2  2  0
  1  6  1  0
  2  3  1  0
  3  4  2  0
  5  4  1  0
  5  7  1  0
  6  5  2  0
  7  8  1  0
  8  9  2  0
  9 15  1  0
 10 11  2  0
 10  9  1  0
 12 10  1  0
 13 12  1  0
 13  7  1  0
 14 13  2  0
 16 12  1  0
 17 18  1  0
 17 16  1  0
 19 18  1  0
 20 19  2  0
 21 19  1  0
 21 26  1  0
 22 21  2  0
 23 22  1  0
 23 24  2  0
 24 25  1  0
 25 26  2  0
  1 27  1  0
  2 28  1  0
  3 29  1  0
  8 30  1  0
 15 31  1  0
 15 32  1  0
 15 33  1  0
 16 34  1  0
 16 35  1  0
 17 36  1  0
 17 37  1  0
 18 38  1  0
 22 39  1  0
 23 40  1  0
 24 41  1  0
 25 42  1  0
 26 43  1  0
M  END
>  <minimizedAffinity>  (1) 
-7.09604597

>  <minimizedRMSD>  (1) 
0.723021865

$$$$
