
     RDKit          3D

 50 52  0  0  1  0  0  0  0  0999 V2000
   47.7110   30.0100   44.8870 C   0  0  0  0  0  0  0  0  0  0  0  0
   46.3600   33.4390   45.0920 C   0  0  0  0  0  0  0  0  0  0  0  0
   45.3120   33.4770   44.1610 C   0  0  0  0  0  0  0  0  0  0  0  0
   45.1040   32.2700   43.4720 C   0  0  0  0  0  0  0  0  0  0  0  0
   45.8810   31.1980   43.7300 N   0  0  0  0  0  0  0  0  0  0  0  0
   46.8860   31.2170   44.6440 C   0  0  0  0  0  0  0  0  0  0  0  0
   47.0990   32.3520   45.3080 N   0  0  0  0  0  0  0  0  0  0  0  0
   44.5080   34.6290   43.9130 N   0  0  0  0  0  0  0  0  0  0  0  0
   44.7420   35.5460   42.8460 C   0  0  0  0  0  0  0  0  0  0  0  0
   45.9840   35.7980   42.5800 N   0  0  0  0  0  0  0  0  0  0  0  0
   43.5580   36.0600   42.2180 N   0  0  0  0  0  0  0  0  0  0  0  0
   46.2670   36.4500   41.8170 H   0  0  0  0  0  0  0  0  0  0  0  0
   47.0720   28.8420   44.0650 C   0  0  0  0  0  0  0  0  0  0  0  0
   49.0510   30.2640   44.2700 C   0  0  0  0  0  0  0  0  0  0  0  0
   47.7180   29.5540   46.3040 C   0  0  0  0  0  0  0  0  0  0  0  0
   48.7050   30.0500   47.1620 N   0  0  0  0  0  0  0  0  0  0  0  0
   49.7020   29.1860   47.6640 C   0  0  0  0  0  0  0  0  0  0  0  0
   49.5760   28.9670   49.1660 C   0  0  0  0  0  0  0  0  0  0  0  0
   49.4030   30.2300   49.9440 C   0  0  0  0  0  0  0  0  0  0  0  0
   49.2400   31.4650   49.0920 C   0  0  0  0  0  0  0  0  0  0  0  0
   48.2700   31.1070   47.9800 C   0  0  2  0  0  0  0  0  0  0  0  0
   46.9120   30.9980   48.4830 N   0  0  0  0  0  0  0  0  0  0  0  0
   46.1230   31.8990   49.1140 C   0  0  0  0  0  0  0  0  0  0  0  0
   44.9330   31.3990   49.4140 N   0  0  0  0  0  0  0  0  0  0  0  0
   44.9440   30.1320   48.9660 C   0  0  0  0  0  0  0  0  0  0  0  0
   46.1430   29.9000   48.4060 N   0  0  0  0  0  0  0  0  0  0  0  0
   46.5819   34.3481   45.6702 H   0  0  0  0  0  0  0  0  0  0  0  0
   44.3047   32.1992   42.7196 H   0  0  0  0  0  0  0  0  0  0  0  0
   43.7119   34.8091   44.5413 H   0  0  0  0  0  0  0  0  0  0  0  0
   43.6373   36.7283   41.4383 H   0  0  0  0  0  0  0  0  0  0  0  0
   42.6291   35.7605   42.5471 H   0  0  0  0  0  0  0  0  0  0  0  0
   46.6608   28.0903   44.7548 H   0  0  0  0  0  0  0  0  0  0  0  0
   46.2651   29.2383   43.4311 H   0  0  0  0  0  0  0  0  0  0  0  0
   47.8409   28.3762   43.4311 H   0  0  0  0  0  0  0  0  0  0  0  0
   49.7992   30.4058   45.0638 H   0  0  0  0  0  0  0  0  0  0  0  0
   49.3365   29.4040   43.6464 H   0  0  0  0  0  0  0  0  0  0  0  0
   49.0020   31.1688   43.6464 H   0  0  0  0  0  0  0  0  0  0  0  0
   46.7445   29.8271   46.7373 H   0  0  0  0  0  0  0  0  0  0  0  0
   47.9358   28.4778   46.2384 H   0  0  0  0  0  0  0  0  0  0  0  0
   49.6156   28.2139   47.1565 H   0  0  0  0  0  0  0  0  0  0  0  0
   50.6791   29.6539   47.4735 H   0  0  0  0  0  0  0  0  0  0  0  0
   48.7038   28.3228   49.3511 H   0  0  0  0  0  0  0  0  0  0  0  0
   50.5164   28.5073   49.5040 H   0  0  0  0  0  0  0  0  0  0  0  0
   48.5083   30.1262   50.5755 H   0  0  0  0  0  0  0  0  0  0  0  0
   50.3242   30.3692   50.5288 H   0  0  0  0  0  0  0  0  0  0  0  0
   48.8356   32.2908   49.6958 H   0  0  0  0  0  0  0  0  0  0  0  0
   50.2070   31.7915   48.6818 H   0  0  0  0  0  0  0  0  0  0  0  0
   48.2512   31.9491   47.2726 H   0  0  0  0  0  0  0  0  0  0  0  0
   46.4338   32.9274   49.3504 H   0  0  0  0  0  0  0  0  0  0  0  0
   44.1166   29.4114   49.0441 H   0  0  0  0  0  0  0  0  0  0  0  0
  1 15  1  0
  2  7  2  0
  3  2  1  0
  4  5  1  0
  4  3  2  0
  5  6  2  0
  6  1  1  0
  6  7  1  0
  8  3  1  0
  9  8  1  0
 10  9  2  0
 11  9  1  0
 12 10  1  0
 13  1  1  0
 14  1  1  0
 15 16  1  0
 16 17  1  0
 16 21  1  0
 17 18  1  0
 18 19  1  0
 20 19  1  0
 21 22  1  0
 21 20  1  0
 22 23  1  0
 23 24  2  0
 25 24  1  0
 26 22  1  0
 26 25  2  0
  2 27  1  0
  4 28  1  0
  8 29  1  0
 11 30  1  0
 11 31  1  0
 13 32  1  0
 13 33  1  0
 13 34  1  0
 14 35  1  0
 14 36  1  0
 14 37  1  0
 15 38  1  0
 15 39  1  0
 17 40  1  0
 17 41  1  0
 18 42  1  0
 18 43  1  0
 19 44  1  0
 19 45  1  0
 20 46  1  0
 20 47  1  0
 21 48  1  6
 23 49  1  0
 25 50  1  0
M  ISO  8  27  14  28  14  32   8  33   8  34   8  35   8  36   8  37   8
M  ISO  8  38   8  39   8  40  13  41  13  42  13  43  13  44  13  45  13
M  ISO  5  46  13  47  13  48  13  49  14  50  14
M  END
>  <minimizedAffinity>  (1) 
-4.82135677

>  <minimizedRMSD>  (1) 
1.53149331

$$$$
