
     RDKit          3D

 31 34  0  0  0  0  0  0  0  0999 V2000
   46.1870   30.3760   49.1380 N   0  0  0  0  0  0  0  0  0  0  0  0
   45.3110   31.3910   49.4480 C   0  0  0  0  0  0  0  0  0  0  0  0
   45.2420   32.2170   48.3690 N   0  0  0  0  0  0  0  0  0  0  0  0
   46.0670   31.6930   47.4430 C   0  0  0  0  0  0  0  0  0  0  0  0
   46.3120   32.2010   46.1860 C   0  0  0  0  0  0  0  0  0  0  0  0
   47.1860   31.5110   45.3980 N   0  0  0  0  0  0  0  0  0  0  0  0
   47.7870   30.3770   45.8300 C   0  0  0  0  0  0  0  0  0  0  0  0
   47.5090   29.9300   47.0660 N   0  0  0  0  0  0  0  0  0  0  0  0
   46.6790   30.5350   47.8900 C   0  0  0  0  0  0  0  0  0  0  0  0
   48.6990   29.6830   44.9730 N   0  0  0  0  0  0  0  0  0  0  0  0
   48.9850   30.0980   43.7180 C   0  0  0  0  0  0  0  0  0  0  0  0
   49.8700   29.2600   43.1390 N   0  0  0  0  0  0  0  0  0  0  0  0
   50.1200   28.3230   44.0650 C   0  0  0  0  0  0  0  0  0  0  0  0
   49.4040   28.5850   45.1820 N   0  0  0  0  0  0  0  0  0  0  0  0
   45.6370   33.6480   45.4500 S   0  0  0  0  0  0  0  0  0  0  0  0
   47.7790   34.7040   42.3440 C   0  0  0  0  0  0  0  0  0  0  0  0
   47.0650   34.3270   41.2220 C   0  0  0  0  0  0  0  0  0  0  0  0
   45.8490   33.7080   41.4430 C   0  0  0  0  0  0  0  0  0  0  0  0
   45.4140   33.5010   42.7220 N   0  0  0  0  0  0  0  0  0  0  0  0
   46.1730   33.9020   43.7780 C   0  0  0  0  0  0  0  0  0  0  0  0
   47.3350   34.4920   43.5820 N   0  0  0  0  0  0  0  0  0  0  0  0
   49.0880   35.3700   42.1390 C   0  0  0  0  0  0  0  0  0  0  0  0
   49.2360   36.1370   41.1560 O   0  0  0  0  0  0  0  0  0  0  0  0
   50.1160   35.1390   43.0220 O   0  0  0  0  0  0  0  0  0  0  0  0
   46.4336   29.6015   49.7706 H   0  0  0  0  0  0  0  0  0  0  0  0
   44.7658   31.5124   50.3956 H   0  0  0  0  0  0  0  0  0  0  0  0
   48.5575   30.9907   43.2381 H   0  0  0  0  0  0  0  0  0  0  0  0
   50.8035   27.4709   43.9358 H   0  0  0  0  0  0  0  0  0  0  0  0
   47.4448   34.5101   40.2060 H   0  0  0  0  0  0  0  0  0  0  0  0
   45.2330   33.3828   40.5916 H   0  0  0  0  0  0  0  0  0  0  0  0
   50.9916   35.5815   42.8890 H   0  0  0  0  0  0  0  0  0  0  0  0
  1  2  1  0
  3  2  2  0
  4  9  2  0
  4  3  1  0
  5  4  1  0
  6  7  1  0
  6  5  2  0
  7  8  2  0
  8  9  1  0
  9  1  1  0
 10 14  1  0
 10  7  1  0
 11 10  1  0
 12 11  2  0
 12 13  1  0
 13 14  2  0
 15  5  1  0
 16 21  2  0
 17 18  2  0
 17 16  1  0
 18 19  1  0
 19 20  2  0
 20 15  1  0
 21 20  1  0
 22 16  1  0
 22 24  1  0
 23 22  2  0
  1 25  1  0
  2 26  1  0
 11 27  1  0
 13 28  1  0
 17 29  1  0
 18 30  1  0
 24 31  1  0
M  ISO  7  25   9  26  14  27  14  28  14  29  14  30  14  31   3
M  END
>  <minimizedAffinity>  (1) 
-5.98041964

>  <minimizedRMSD>  (1) 
0.125484437

$$$$
