
     RDKit          3D

 35 38  0  0  0  0  0  0  0  0999 V2000
   44.4980   36.1040   44.5440 C   0  0  0  0  0  0  0  0  0  0  0  0
   45.1590   36.0420   43.3130 C   0  0  0  0  0  0  0  0  0  0  0  0
   46.0310   35.0260   43.0550 C   0  0  0  0  0  0  0  0  0  0  0  0
   46.2270   34.0960   44.0230 N   0  0  0  0  0  0  0  0  0  0  0  0
   45.5930   34.1520   45.2120 C   0  0  0  0  0  0  0  0  0  0  0  0
   44.7320   35.1420   45.4880 N   0  0  0  0  0  0  0  0  0  0  0  0
   46.7840   34.8370   41.8220 C   0  0  0  0  0  0  0  0  0  0  0  0
   48.0290   35.3390   41.5880 C   0  0  0  0  0  0  0  0  0  0  0  0
   48.7580   35.1820   40.4520 C   0  0  0  0  0  0  0  0  0  0  0  0
   48.1970   34.4610   39.4620 N   0  0  0  0  0  0  0  0  0  0  0  0
   46.9740   33.9470   39.6460 C   0  0  0  0  0  0  0  0  0  0  0  0
   46.2790   34.1170   40.7760 N   0  0  0  0  0  0  0  0  0  0  0  0
   46.4280   33.1920   38.5640 N   0  0  0  0  0  0  0  0  0  0  0  0
   45.4750   32.2870   38.4480 N   0  0  0  0  0  0  0  0  0  0  0  0
   45.3530   31.8820   37.1870 C   0  0  0  0  0  0  0  0  0  0  0  0
   46.2880   32.5720   36.4580 C   0  0  0  0  0  0  0  0  0  0  0  0
   46.9730   33.4050   37.3290 C   0  0  0  0  0  0  0  0  0  0  0  0
   45.7900   33.1630   46.2650 C   0  0  0  0  0  0  0  0  0  0  0  0
   46.9360   32.3770   46.1970 C   0  0  0  0  0  0  0  0  0  0  0  0
   46.9000   31.5360   47.2810 C   0  0  0  0  0  0  0  0  0  0  0  0
   45.7090   31.8570   47.9690 C   0  0  0  0  0  0  0  0  0  0  0  0
   45.1330   32.8010   47.3170 O   0  0  0  0  0  0  0  0  0  0  0  0
   45.3060   31.1750   49.1890 C   0  0  0  0  0  0  0  0  0  0  0  0
   44.9950   29.9550   49.1400 O   0  0  0  0  0  0  0  0  0  0  0  0
   45.2920   31.9380   50.3540 O   0  0  0  0  0  0  0  0  0  0  0  0
   43.7932   36.9225   44.7521 H   0  0  0  0  0  0  0  0  0  0  0  0
   44.9751   36.8143   42.5516 H   0  0  0  0  0  0  0  0  0  0  0  0
   48.4878   35.9277   42.3960 H   0  0  0  0  0  0  0  0  0  0  0  0
   49.7600   35.6233   40.3457 H   0  0  0  0  0  0  0  0  0  0  0  0
   44.6401   31.1376   36.8029 H   0  0  0  0  0  0  0  0  0  0  0  0
   46.4629   32.4807   35.3758 H   0  0  0  0  0  0  0  0  0  0  0  0
   47.7899   34.0973   37.0771 H   0  0  0  0  0  0  0  0  0  0  0  0
   47.7183   32.4210   45.4250 H   0  0  0  0  0  0  0  0  0  0  0  0
   47.6426   30.7725   47.5561 H   0  0  0  0  0  0  0  0  0  0  0  0
   45.0257   31.5246   51.2133 H   0  0  0  0  0  0  0  0  0  0  0  0
  1  6  2  0
  2  1  1  0
  3  2  2  0
  3  4  1  0
  4  5  2  0
  5  6  1  0
  5 18  1  0
  7  3  1  0
  8  7  2  0
  9  8  1  0
 10 11  1  0
 10  9  2  0
 11 12  2  0
 12  7  1  0
 13 11  1  0
 14 13  1  0
 15 14  2  0
 16 15  1  0
 16 17  2  0
 17 13  1  0
 18 22  1  0
 19 18  2  0
 19 20  1  0
 20 21  2  0
 21 23  1  0
 22 21  1  0
 23 25  1  0
 24 23  2  0
  1 26  1  0
  2 27  1  0
  8 28  1  0
  9 29  1  0
 15 30  1  0
 16 31  1  0
 17 32  1  0
 19 33  1  0
 20 34  1  0
 25 35  1  0
M  END
>  <minimizedAffinity>  (1) 
-7.20790625

>  <minimizedRMSD>  (1) 
0.162001058

$$$$
