
     RDKit          3D

 48 53  0  0  1  0  0  0  0  0999 V2000
   47.0020   34.5420   41.2360 C   0  0  0  0  0  0  0  0  0  0  0  0
   48.2660   35.0170   40.9210 C   0  0  0  0  0  0  0  0  0  0  0  0
   48.5470   34.7400   39.6560 N   0  0  0  0  0  0  0  0  0  0  0  0
   47.4870   34.0940   39.1450 C   0  0  0  0  0  0  0  0  0  0  0  0
   47.2540   33.5780   37.8630 C   0  0  0  0  0  0  0  0  0  0  0  0
   46.0750   32.9570   37.6010 C   0  0  0  0  0  0  0  0  0  0  0  0
   45.0570   32.7870   38.5190 C   0  0  0  0  0  0  0  0  0  0  0  0
   45.3230   33.3070   39.7660 C   0  0  0  0  0  0  0  0  0  0  0  0
   46.4880   33.9460   40.1030 C   0  0  0  0  0  0  0  0  0  0  0  0
   44.8100   35.8190   43.9880 C   0  0  0  0  0  0  0  0  0  0  0  0
   45.4660   35.7330   42.7430 C   0  0  0  0  0  0  0  0  0  0  0  0
   46.3100   34.6420   42.5330 C   0  0  0  0  0  0  0  0  0  0  0  0
   46.4790   33.7000   43.5190 N   0  0  0  0  0  0  0  0  0  0  0  0
   45.8120   33.8500   44.6960 C   0  0  0  0  0  0  0  0  0  0  0  0
   44.9950   34.8790   44.9350 N   0  0  0  0  0  0  0  0  0  0  0  0
   49.1450   35.7220   41.8730 C   0  0  0  0  0  0  0  0  0  0  0  0
   49.8450   34.7770   42.7880 C   0  0  0  0  0  0  0  0  0  0  0  0
   50.6000   33.6740   42.0950 C   0  0  1  0  0  0  0  0  0  0  0  0
   51.1300   32.5040   42.7900 C   0  0  0  0  0  0  0  0  0  0  0  0
   49.8470   32.3430   42.0710 C   0  0  2  0  0  0  0  0  0  0  0  0
   49.9030   31.5560   40.8540 N   0  0  0  0  0  0  0  0  0  0  0  0
   48.8440   31.0210   40.2270 C   0  0  0  0  0  0  0  0  0  0  0  0
   49.2930   30.3640   39.1370 N   0  0  0  0  0  0  0  0  0  0  0  0
   50.6320   30.5170   39.1260 C   0  0  0  0  0  0  0  0  0  0  0  0
   51.6300   30.0680   38.2570 C   0  0  0  0  0  0  0  0  0  0  0  0
   52.9390   30.3580   38.4620 N   0  0  0  0  0  0  0  0  0  0  0  0
   53.2980   31.0940   39.5250 C   0  0  0  0  0  0  0  0  0  0  0  0
   52.3620   31.5540   40.4020 N   0  0  0  0  0  0  0  0  0  0  0  0
   51.0570   31.2800   40.2180 C   0  0  0  0  0  0  0  0  0  0  0  0
   49.4168   34.9764   39.1576 H   0  0  0  0  0  0  0  0  0  0  0  0
   48.0179   33.6749   37.0774 H   0  0  0  0  0  0  0  0  0  0  0  0
   45.9198   32.5616   36.5863 H   0  0  0  0  0  0  0  0  0  0  0  0
   44.1127   32.2787   38.2743 H   0  0  0  0  0  0  0  0  0  0  0  0
   44.5505   33.2029   40.5421 H   0  0  0  0  0  0  0  0  0  0  0  0
   44.1374   36.6659   44.1890 H   0  0  0  0  0  0  0  0  0  0  0  0
   45.3179   36.4976   41.9661 H   0  0  0  0  0  0  0  0  0  0  0  0
   45.9515   33.0932   45.4820 H   0  0  0  0  0  0  0  0  0  0  0  0
   49.8969   36.2921   41.3076 H   0  0  0  0  0  0  0  0  0  0  0  0
   48.5195   36.3885   42.4850 H   0  0  0  0  0  0  0  0  0  0  0  0
   50.5596   35.3530   43.3943 H   0  0  0  0  0  0  0  0  0  0  0  0
   49.0631   34.2890   43.3884 H   0  0  0  0  0  0  0  0  0  0  0  0
   51.0759   34.3821   41.4007 H   0  0  0  0  0  0  0  0  0  0  0  0
   52.0332   32.0077   42.4055 H   0  0  0  0  0  0  0  0  0  0  0  0
   51.4525   32.3138   43.8243 H   0  0  0  0  0  0  0  0  0  0  0  0
   48.8238   32.0236   42.3179 H   0  0  0  0  0  0  0  0  0  0  0  0
   47.7944   31.1035   40.5455 H   0  0  0  0  0  0  0  0  0  0  0  0
   51.3463   29.4631   37.3832 H   0  0  0  0  0  0  0  0  0  0  0  0
   54.3599   31.3287   39.6903 H   0  0  0  0  0  0  0  0  0  0  0  0
  1 12  1  0
  2  1  2  0
  2 16  1  0
  3  2  1  0
  4  3  1  0
  4  9  2  0
  5  4  1  0
  6  5  2  0
  6  7  1  0
  7  8  2  0
  8  9  1  0
  9  1  1  0
 10 15  2  0
 11 10  1  0
 12 11  2  0
 12 13  1  0
 13 14  2  0
 14 15  1  0
 16 17  1  0
 18 17  1  0
 18 19  1  0
 20 18  1  0
 20 19  1  0
 21 20  1  0
 22 21  1  0
 23 22  2  0
 24 23  1  0
 24 29  2  0
 25 26  2  0
 25 24  1  0
 26 27  1  0
 27 28  2  0
 29 28  1  0
 29 21  1  0
  3 30  1  0
  5 31  1  0
  6 32  1  0
  7 33  1  0
  8 34  1  0
 10 35  1  0
 11 36  1  0
 14 37  1  0
 16 38  1  0
 16 39  1  0
 17 40  1  0
 17 41  1  0
 18 42  1  6
 19 43  1  0
 19 44  1  0
 20 45  1  1
 22 46  1  0
 25 47  1  0
 27 48  1  0
M  ISO  8  30   9  31  14  32  14  33  14  34  14  35  14  36  14  37  14
M  ISO  8  38   8  39   8  40   8  41   8  42  13  43  13  44  13  45  13
M  ISO  3  46  14  47  14  48  14
M  END
>  <minimizedAffinity>  (1) 
-6.24341631

>  <minimizedRMSD>  (1) 
1.752159

$$$$
