
     RDKit          3D

 38 41  0  0  1  0  0  0  0  0999 V2000
   46.5890   33.0200   44.9210 C   0  0  2  0  0  0  0  0  0  0  0  0
   45.3920   33.8150   45.3950 C   0  0  0  0  0  0  0  0  0  0  0  0
   44.9930   34.9510   44.6090 C   0  0  0  0  0  0  0  0  0  0  0  0
   45.7170   35.3110   43.4040 C   0  0  1  0  0  0  0  0  0  0  0  0
   46.9130   34.5150   43.0710 C   0  0  0  0  0  0  0  0  0  0  0  0
   46.7160   33.0780   43.4410 C   0  0  0  0  0  0  0  0  0  0  0  0
   47.2510   31.4550   46.6880 C   0  0  0  0  0  0  0  0  0  0  0  0
   46.5670   31.6920   45.5110 C   0  0  0  0  0  0  0  0  0  0  0  0
   45.8960   30.6060   44.9570 C   0  0  0  0  0  0  0  0  0  0  0  0
   45.9170   29.3900   45.5410 N   0  0  0  0  0  0  0  0  0  0  0  0
   46.6020   29.1900   46.7020 C   0  0  0  0  0  0  0  0  0  0  0  0
   47.2670   30.2340   47.2680 N   0  0  0  0  0  0  0  0  0  0  0  0
   46.5580   27.8680   47.2310 N   0  0  0  0  0  0  0  0  0  0  0  0
   47.4500   27.0640   47.8380 C   0  0  0  0  0  0  0  0  0  0  0  0
   46.8330   25.8860   48.1310 N   0  0  0  0  0  0  0  0  0  0  0  0
   45.5490   25.9560   47.7040 C   0  0  0  0  0  0  0  0  0  0  0  0
   44.5900   24.9720   47.8110 C   0  0  0  0  0  0  0  0  0  0  0  0
   43.3770   25.3150   47.2940 N   0  0  0  0  0  0  0  0  0  0  0  0
   43.1600   26.5120   46.7360 C   0  0  0  0  0  0  0  0  0  0  0  0
   44.1480   27.4210   46.6680 N   0  0  0  0  0  0  0  0  0  0  0  0
   45.3870   27.1890   47.1470 C   0  0  0  0  0  0  0  0  0  0  0  0
   44.7250   35.2580   42.2310 C   0  0  0  0  0  0  0  0  0  0  0  0
   43.6560   34.4290   42.4720 F   0  0  0  0  0  0  0  0  0  0  0  0
   44.1960   36.5430   42.0740 F   0  0  0  0  0  0  0  0  0  0  0  0
   45.3960   34.9440   41.0590 F   0  0  0  0  0  0  0  0  0  0  0  0
   47.5247   33.4735   45.2798 H   0  0  0  0  0  0  0  0  0  0  0  0
   44.8467   33.5340   46.3080 H   0  0  0  0  0  0  0  0  0  0  0  0
   44.1290   35.5541   44.9248 H   0  0  0  0  0  0  0  0  0  0  0  0
   46.1238   36.3146   43.5975 H   0  0  0  0  0  0  0  0  0  0  0  0
   47.1038   34.5860   41.9900 H   0  0  0  0  0  0  0  0  0  0  0  0
   47.7685   34.9106   43.6380 H   0  0  0  0  0  0  0  0  0  0  0  0
   45.8021   32.6888   42.9685 H   0  0  0  0  0  0  0  0  0  0  0  0
   47.5628   32.4660   43.0969 H   0  0  0  0  0  0  0  0  0  0  0  0
   47.7970   32.2818   47.1657 H   0  0  0  0  0  0  0  0  0  0  0  0
   45.3351   30.7423   44.0206 H   0  0  0  0  0  0  0  0  0  0  0  0
   48.4978   27.3152   48.0595 H   0  0  0  0  0  0  0  0  0  0  0  0
   44.7870   23.9938   48.2740 H   0  0  0  0  0  0  0  0  0  0  0  0
   42.1665   26.7536   46.3303 H   0  0  0  0  0  0  0  0  0  0  0  0
  1  2  1  0
  1  8  1  0
  3  2  2  0
  4  3  1  0
  5  4  1  0
  5  6  1  0
  6  1  1  0
  7 12  2  0
  8  7  1  0
  9  8  2  0
  9 10  1  0
 10 11  2  0
 11 13  1  0
 11 12  1  0
 13 14  1  0
 14 15  2  0
 16 17  2  0
 16 15  1  0
 18 17  1  0
 19 18  2  0
 20 19  1  0
 20 21  2  0
 21 13  1  0
 21 16  1  0
 22 23  1  0
 22  4  1  0
 24 22  1  0
 25 22  1  0
  1 26  1  1
  2 27  1  0
  3 28  1  0
  4 29  1  1
  5 30  1  0
  5 31  1  0
  6 32  1  0
  6 33  1  0
  7 34  1  0
  9 35  1  0
 14 36  1  0
 17 37  1  0
 19 38  1  0
M  ISO  8  26  13  27  13  28  13  29  13  30  13  31  13  32  13  33  13
M  ISO  5  34  14  35  14  36  14  37  14  38  14
M  END
>  <minimizedAffinity>  (1) 
-5.43754148

>  <minimizedRMSD>  (1) 
1.93779588

$$$$
