
     RDKit          3D

 49 54  0  0  1  0  0  0  0  0999 V2000
   47.2660   34.9370   41.8970 C   0  0  0  0  0  0  0  0  0  0  0  0
   48.4950   35.5910   41.7980 C   0  0  0  0  0  0  0  0  0  0  0  0
   48.9890   35.3830   40.5680 N   0  0  0  0  0  0  0  0  0  0  0  0
   48.1140   34.6230   39.8960 C   0  0  0  0  0  0  0  0  0  0  0  0
   48.1570   34.1390   38.6100 C   0  0  0  0  0  0  0  0  0  0  0  0
   47.1270   33.3800   38.1580 C   0  0  0  0  0  0  0  0  0  0  0  0
   46.0020   33.0470   38.9240 C   0  0  0  0  0  0  0  0  0  0  0  0
   46.0290   33.5700   40.2090 C   0  0  0  0  0  0  0  0  0  0  0  0
   47.0140   34.3230   40.7090 C   0  0  0  0  0  0  0  0  0  0  0  0
   44.5970   35.9130   44.3210 C   0  0  0  0  0  0  0  0  0  0  0  0
   45.4150   35.9250   43.2010 C   0  0  0  0  0  0  0  0  0  0  0  0
   46.4150   34.9270   43.0600 C   0  0  0  0  0  0  0  0  0  0  0  0
   46.4840   34.0220   44.0640 N   0  0  0  0  0  0  0  0  0  0  0  0
   45.7010   34.0080   45.1410 C   0  0  0  0  0  0  0  0  0  0  0  0
   44.7580   34.9500   45.2730 N   0  0  0  0  0  0  0  0  0  0  0  0
   45.9040   32.9730   46.1210 N   0  0  0  0  0  0  0  0  0  0  0  0
   45.4870   32.7520   47.3960 C   0  0  0  0  0  0  0  0  0  0  0  0
   46.0270   31.5760   47.7940 N   0  0  0  0  0  0  0  0  0  0  0  0
   46.7690   31.0680   46.7920 C   0  0  0  0  0  0  0  0  0  0  0  0
   47.4950   29.8790   46.7810 C   0  0  0  0  0  0  0  0  0  0  0  0
   48.1780   29.5550   45.6560 N   0  0  0  0  0  0  0  0  0  0  0  0
   48.1050   30.4140   44.6220 C   0  0  0  0  0  0  0  0  0  0  0  0
   47.4020   31.5560   44.6470 N   0  0  0  0  0  0  0  0  0  0  0  0
   46.6940   31.9470   45.7350 C   0  0  0  0  0  0  0  0  0  0  0  0
   44.8430   33.1690   40.9280 N   0  0  0  0  0  0  0  0  0  0  0  0
   43.4800   33.5750   41.1330 C   0  0  0  0  0  0  0  0  0  0  0  0
   42.7940   32.3580   41.7170 C   0  0  0  0  0  0  0  0  0  0  0  0
   43.9030   31.8720   42.6400 C   0  0  0  0  0  0  0  0  0  0  0  0
   45.0850   31.9450   41.7120 C   0  0  1  0  0  0  0  0  0  0  0  0
   45.2180   30.7360   40.9040 C   0  0  0  0  0  0  0  0  0  0  0  0
   44.3680   30.2020   40.1840 O   0  0  0  0  0  0  0  0  0  0  0  0
   48.9771   36.1777   42.5938 H   0  0  0  0  0  0  0  0  0  0  0  0
   49.8827   35.7438   40.2047 H   0  0  0  0  0  0  0  0  0  0  0  0
   49.0134   34.3636   37.9573 H   0  0  0  0  0  0  0  0  0  0  0  0
   47.1784   33.0027   37.1260 H   0  0  0  0  0  0  0  0  0  0  0  0
   45.1755   32.4293   38.5427 H   0  0  0  0  0  0  0  0  0  0  0  0
   43.8182   36.6805   44.4414 H   0  0  0  0  0  0  0  0  0  0  0  0
   45.2903   36.6996   42.4300 H   0  0  0  0  0  0  0  0  0  0  0  0
   44.8336   33.4059   47.9922 H   0  0  0  0  0  0  0  0  0  0  0  0
   47.5134   29.2206   47.6620 H   0  0  0  0  0  0  0  0  0  0  0  0
   48.6544   30.1646   43.7022 H   0  0  0  0  0  0  0  0  0  0  0  0
   43.4296   34.4212   41.8340 H   0  0  0  0  0  0  0  0  0  0  0  0
   43.0035   33.9109   40.2002 H   0  0  0  0  0  0  0  0  0  0  0  0
   41.8836   32.6261   42.2732 H   0  0  0  0  0  0  0  0  0  0  0  0
   42.4361   31.6215   40.9825 H   0  0  0  0  0  0  0  0  0  0  0  0
   44.0276   32.5349   43.5090 H   0  0  0  0  0  0  0  0  0  0  0  0
   43.7288   30.8802   43.0827 H   0  0  0  0  0  0  0  0  0  0  0  0
   46.0495   31.9965   42.2383 H   0  0  0  0  0  0  0  0  0  0  0  0
   46.1982   30.2382   40.9411 H   0  0  0  0  0  0  0  0  0  0  0  0
  1 12  1  0
  2  1  2  0
  3  2  1  0
  4  3  1  0
  4  9  2  0
  5  4  1  0
  6  5  2  0
  6  7  1  0
  7  8  2  0
  8  9  1  0
  8 25  1  0
  9  1  1  0
 10 15  2  0
 11 10  1  0
 12 11  2  0
 12 13  1  0
 13 14  2  0
 14 15  1  0
 14 16  1  0
 16 17  1  0
 17 18  2  0
 19 18  1  0
 20 19  2  0
 21 20  1  0
 22 23  1  0
 22 21  2  0
 23 24  2  0
 24 16  1  0
 24 19  1  0
 25 26  1  0
 25 29  1  0
 26 27  1  0
 27 28  1  0
 29 28  1  0
 30 29  1  0
 31 30  2  0
  2 32  1  0
  3 33  1  0
  5 34  1  0
  6 35  1  0
  7 36  1  0
 10 37  1  0
 11 38  1  0
 17 39  1  0
 20 40  1  0
 22 41  1  0
 26 42  1  0
 26 43  1  0
 27 44  1  0
 27 45  1  0
 28 46  1  0
 28 47  1  0
 29 48  1  1
 30 49  1  0
M  END
>  <minimizedAffinity>  (1) 
-7.49552822

>  <minimizedRMSD>  (1) 
0.185350701

$$$$
