
     RDKit          3D

 44 47  0  0  1  0  0  0  0  0999 V2000
   45.5500   33.1470   43.1600 C   0  0  2  0  0  0  0  0  0  0  0  0
   45.8260   34.3170   44.0230 C   0  0  0  0  0  0  0  0  0  0  0  0
   45.4360   35.6030   43.5020 C   0  0  0  0  0  0  0  0  0  0  0  0
   44.8060   35.7480   42.2100 C   0  0  0  0  0  0  0  0  0  0  0  0
   44.5150   34.5290   41.4650 C   0  0  0  0  0  0  0  0  0  0  0  0
   44.2730   33.3670   42.3880 C   0  0  0  0  0  0  0  0  0  0  0  0
   45.9360   32.0530   45.3070 C   0  0  0  0  0  0  0  0  0  0  0  0
   45.5580   31.9270   43.9840 C   0  0  0  0  0  0  0  0  0  0  0  0
   45.2460   30.6150   43.4610 C   0  0  0  0  0  0  0  0  0  0  0  0
   45.3370   29.5550   44.2770 N   0  0  0  0  0  0  0  0  0  0  0  0
   45.7180   29.7270   45.5720 C   0  0  0  0  0  0  0  0  0  0  0  0
   46.0040   30.9360   46.0660 N   0  0  0  0  0  0  0  0  0  0  0  0
   45.7900   28.5290   46.3690 N   0  0  0  0  0  0  0  0  0  0  0  0
   46.8930   28.1270   47.0610 C   0  0  0  0  0  0  0  0  0  0  0  0
   46.6700   26.9790   47.7080 N   0  0  0  0  0  0  0  0  0  0  0  0
   45.4090   26.6180   47.4420 C   0  0  0  0  0  0  0  0  0  0  0  0
   44.5890   25.5510   47.8020 C   0  0  0  0  0  0  0  0  0  0  0  0
   43.3230   25.4900   47.3430 N   0  0  0  0  0  0  0  0  0  0  0  0
   42.8270   26.4270   46.5470 C   0  0  0  0  0  0  0  0  0  0  0  0
   43.6100   27.4820   46.1790 N   0  0  0  0  0  0  0  0  0  0  0  0
   44.8660   27.5810   46.6120 C   0  0  0  0  0  0  0  0  0  0  0  0
   46.7700   33.0360   42.2410 C   0  0  0  0  0  0  0  0  0  0  0  0
   46.9990   32.6780   41.0420 O   0  0  0  0  0  0  0  0  0  0  0  0
   48.0180   33.4420   42.8820 N   0  0  0  0  0  0  0  0  0  0  0  0
   48.7030   34.6060   42.5550 C   0  0  0  0  0  0  0  0  0  0  0  0
   48.4250   35.5300   41.8020 N   0  0  0  0  0  0  0  0  0  0  0  0
   49.9790   35.0000   43.1090 N   0  0  0  0  0  0  0  0  0  0  0  0
   47.6580   35.7860   41.2290 H   0  0  0  0  0  0  0  0  0  0  0  0
   46.3029   34.2110   45.0086 H   0  0  0  0  0  0  0  0  0  0  0  0
   45.6239   36.5022   44.1070 H   0  0  0  0  0  0  0  0  0  0  0  0
   43.8532   36.2755   42.3648 H   0  0  0  0  0  0  0  0  0  0  0  0
   45.5444   36.2838   41.5955 H   0  0  0  0  0  0  0  0  0  0  0  0
   43.6173   34.6909   40.8503 H   0  0  0  0  0  0  0  0  0  0  0  0
   45.3837   34.2939   40.8325 H   0  0  0  0  0  0  0  0  0  0  0  0
   43.4485   33.5979   43.0786 H   0  0  0  0  0  0  0  0  0  0  0  0
   43.9951   32.4658   41.8218 H   0  0  0  0  0  0  0  0  0  0  0  0
   46.1759   33.0385   45.7327 H   0  0  0  0  0  0  0  0  0  0  0  0
   44.9394   30.4891   42.4121 H   0  0  0  0  0  0  0  0  0  0  0  0
   47.8453   28.6771   47.0841 H   0  0  0  0  0  0  0  0  0  0  0  0
   44.9744   24.7586   48.4605 H   0  0  0  0  0  0  0  0  0  0  0  0
   41.7906   26.3543   46.1855 H   0  0  0  0  0  0  0  0  0  0  0  0
   48.4109   32.8338   43.6146 H   0  0  0  0  0  0  0  0  0  0  0  0
   50.4195   35.8821   42.8111 H   0  0  0  0  0  0  0  0  0  0  0  0
   50.4476   34.3986   43.8016 H   0  0  0  0  0  0  0  0  0  0  0  0
  1 22  1  6
  1  8  1  0
  1  2  1  0
  3  2  2  0
  4  3  1  0
  5  4  1  0
  5  6  1  0
  6  1  1  0
  7 12  2  0
  8  7  1  0
  9  8  2  0
  9 10  1  0
 10 11  2  0
 11 12  1  0
 11 13  1  0
 13 21  1  0
 13 14  1  0
 14 15  2  0
 16 15  1  0
 16 17  2  0
 18 17  1  0
 19 18  2  0
 20 19  1  0
 20 21  2  0
 21 16  1  0
 22 24  1  0
 23 22  2  0
 25 24  1  0
 25 27  1  0
 26 25  2  0
 28 26  1  0
  2 29  1  0
  3 30  1  0
  4 31  1  0
  4 32  1  0
  5 33  1  0
  5 34  1  0
  6 35  1  0
  6 36  1  0
  7 37  1  0
  9 38  1  0
 14 39  1  0
 17 40  1  0
 19 41  1  0
 24 42  1  0
 27 43  1  0
 27 44  1  0
M  ISO  8  29  13  30  13  31  13  32  13  33  13  34  13  35  13  36  13
M  ISO  5  37  14  38  14  39  14  40  14  41  14
M  END
>  <minimizedAffinity>  (1) 
-6.00476074

>  <minimizedRMSD>  (1) 
2.47893429

$$$$
