
     RDKit          3D

 44 48  0  0  0  0  0  0  0  0999 V2000
   47.5430   34.1160   42.2310 C   0  0  0  0  0  0  0  0  0  0  0  0
   48.3810   35.2350   41.6870 C   0  0  0  0  0  0  0  0  0  0  0  0
   49.7220   35.3840   42.2850 C   0  0  0  0  0  0  0  0  0  0  0  0
   50.4710   34.1120   42.4750 C   0  0  0  0  0  0  0  0  0  0  0  0
   49.6400   32.8660   42.2490 C   0  0  0  0  0  0  0  0  0  0  0  0
   48.3220   33.0710   42.9760 C   0  0  0  0  0  0  0  0  0  0  0  0
   45.2260   34.4850   45.0970 C   0  0  0  0  0  0  0  0  0  0  0  0
   44.5200   35.6480   44.7810 C   0  0  0  0  0  0  0  0  0  0  0  0
   44.8450   36.2960   43.5890 C   0  0  0  0  0  0  0  0  0  0  0  0
   45.8200   35.7660   42.8120 N   0  0  0  0  0  0  0  0  0  0  0  0
   46.4890   34.6320   43.1490 C   0  0  0  0  0  0  0  0  0  0  0  0
   46.1750   33.9980   44.3080 N   0  0  0  0  0  0  0  0  0  0  0  0
   46.8880   33.4170   41.0660 C   0  0  0  0  0  0  0  0  0  0  0  0
   45.8370   32.5360   40.8630 C   0  0  0  0  0  0  0  0  0  0  0  0
   45.5920   32.1500   39.5970 C   0  0  0  0  0  0  0  0  0  0  0  0
   46.3230   32.5880   38.5580 C   0  0  0  0  0  0  0  0  0  0  0  0
   47.5450   33.7040   39.4040 S   0  0  0  0  0  0  0  0  0  0  0  0
   46.2820   32.3540   37.2040 N   0  0  0  0  0  0  0  0  0  0  0  0
   47.2270   32.6150   36.2820 C   0  0  0  0  0  0  0  0  0  0  0  0
   46.7890   32.2320   35.0730 N   0  0  0  0  0  0  0  0  0  0  0  0
   45.5380   31.7180   35.2320 C   0  0  0  0  0  0  0  0  0  0  0  0
   44.6310   31.1830   34.3250 C   0  0  0  0  0  0  0  0  0  0  0  0
   43.4490   30.7540   34.8330 N   0  0  0  0  0  0  0  0  0  0  0  0
   43.1230   30.8190   36.1250 C   0  0  0  0  0  0  0  0  0  0  0  0
   44.0100   31.3420   37.0020 N   0  0  0  0  0  0  0  0  0  0  0  0
   45.2270   31.8020   36.5930 C   0  0  0  0  0  0  0  0  0  0  0  0
   48.5099   35.0659   40.6077 H   0  0  0  0  0  0  0  0  0  0  0  0
   47.8398   36.1602   41.9341 H   0  0  0  0  0  0  0  0  0  0  0  0
   50.3176   36.0359   41.6291 H   0  0  0  0  0  0  0  0  0  0  0  0
   49.5655   35.8016   43.2905 H   0  0  0  0  0  0  0  0  0  0  0  0
   51.3137   34.0983   41.7681 H   0  0  0  0  0  0  0  0  0  0  0  0
   50.7975   34.0897   43.5252 H   0  0  0  0  0  0  0  0  0  0  0  0
   49.4595   32.7227   41.1734 H   0  0  0  0  0  0  0  0  0  0  0  0
   50.1610   31.9738   42.6265 H   0  0  0  0  0  0  0  0  0  0  0  0
   48.5114   33.4090   44.0055 H   0  0  0  0  0  0  0  0  0  0  0  0
   47.7565   32.1284   43.0182 H   0  0  0  0  0  0  0  0  0  0  0  0
   44.9873   33.9553   46.0310 H   0  0  0  0  0  0  0  0  0  0  0  0
   43.7367   36.0385   45.4473 H   0  0  0  0  0  0  0  0  0  0  0  0
   44.3220   37.2154   43.2872 H   0  0  0  0  0  0  0  0  0  0  0  0
   45.2284   32.1676   41.7020 H   0  0  0  0  0  0  0  0  0  0  0  0
   44.7641   31.4513   39.4062 H   0  0  0  0  0  0  0  0  0  0  0  0
   48.2065   33.0715   36.4877 H   0  0  0  0  0  0  0  0  0  0  0  0
   44.8598   31.1113   33.2515 H   0  0  0  0  0  0  0  0  0  0  0  0
   42.1459   30.4522   36.4724 H   0  0  0  0  0  0  0  0  0  0  0  0
  1  6  1  0
  1 11  1  0
  2  1  1  0
  2  3  1  0
  3  4  1  0
  5  4  1  0
  5  6  1  0
  8  7  2  0
  9  8  1  0
 10 11  1  0
 10  9  2  0
 11 12  2  0
 12  7  1  0
 13  1  1  0
 14 13  2  0
 15 14  1  0
 16 17  1  0
 16 15  2  0
 17 13  1  0
 18 16  1  0
 19 18  1  0
 20 21  1  0
 20 19  2  0
 21 26  2  0
 22 23  2  0
 22 21  1  0
 23 24  1  0
 24 25  2  0
 26 25  1  0
 26 18  1  0
  2 27  1  0
  2 28  1  0
  3 29  1  0
  3 30  1  0
  4 31  1  0
  4 32  1  0
  5 33  1  0
  5 34  1  0
  6 35  1  0
  6 36  1  0
  7 37  1  0
  8 38  1  0
  9 39  1  0
 14 40  1  0
 15 41  1  0
 19 42  1  0
 22 43  1  0
 24 44  1  0
M  ISO  8  27  13  28  13  29  13  30  13  31  13  32  13  33  13  34  13
M  ISO  8  35  13  36  13  37  14  38  14  39  14  40  14  41  14  42  14
M  ISO  2  43  14  44  14
M  END
>  <minimizedAffinity>  (1) 
-6.41336346

>  <minimizedRMSD>  (1) 
0.654572725

$$$$
