
     RDKit          3D

 34 36  0  0  0  0  0  0  0  0999 V2000
   46.8820   32.1800   45.4540 S   0  0  0  0  0  0  0  0  0  0  0  0
   45.0080   35.0800   43.3300 C   0  0  0  0  0  0  0  0  0  0  0  0
   45.7890   33.9580   43.6330 C   0  0  0  0  0  0  0  0  0  0  0  0
   45.9310   33.5650   44.9510 C   0  0  0  0  0  0  0  0  0  0  0  0
   45.2900   34.3060   45.9010 N   0  0  0  0  0  0  0  0  0  0  0  0
   44.5440   35.3840   45.5760 C   0  0  0  0  0  0  0  0  0  0  0  0
   44.4070   35.7620   44.3030 N   0  0  0  0  0  0  0  0  0  0  0  0
   44.9620   35.3620   41.8720 C   0  0  0  0  0  0  0  0  0  0  0  0
   43.5430   35.5720   41.4040 C   0  0  0  0  0  0  0  0  0  0  0  0
   46.0670   31.1970   46.7040 C   0  0  0  0  0  0  0  0  0  0  0  0
   45.7200   31.2790   48.0450 C   0  0  0  0  0  0  0  0  0  0  0  0
   45.0860   30.0850   48.3380 C   0  0  0  0  0  0  0  0  0  0  0  0
   45.0500   29.3200   47.2300 N   0  0  0  0  0  0  0  0  0  0  0  0
   45.6360   29.9860   46.2560 N   0  0  0  0  0  0  0  0  0  0  0  0
   44.4470   28.0310   47.2590 C   0  0  0  0  0  0  0  0  0  0  0  0
   44.6440   27.1580   48.3210 C   0  0  0  0  0  0  0  0  0  0  0  0
   44.0720   25.9010   48.3750 C   0  0  0  0  0  0  0  0  0  0  0  0
   43.2820   25.5560   47.2990 C   0  0  0  0  0  0  0  0  0  0  0  0
   43.0370   26.3650   46.2060 C   0  0  0  0  0  0  0  0  0  0  0  0
   43.6440   27.6170   46.2150 C   0  0  0  0  0  0  0  0  0  0  0  0
   46.2853   33.3941   42.8294 H   0  0  0  0  0  0  0  0  0  0  0  0
   44.0432   35.9575   46.3699 H   0  0  0  0  0  0  0  0  0  0  0  0
   45.5473   36.2696   41.6630 H   0  0  0  0  0  0  0  0  0  0  0  0
   45.3827   34.4987   41.3357 H   0  0  0  0  0  0  0  0  0  0  0  0
   42.8800   35.6701   42.2762 H   0  0  0  0  0  0  0  0  0  0  0  0
   43.4888   36.4880   40.7973 H   0  0  0  0  0  0  0  0  0  0  0  0
   43.2258   34.7110   40.7973 H   0  0  0  0  0  0  0  0  0  0  0  0
   45.9094   32.1176   48.7312 H   0  0  0  0  0  0  0  0  0  0  0  0
   44.6764   29.8048   49.3197 H   0  0  0  0  0  0  0  0  0  0  0  0
   45.2833   27.4812   49.1558 H   0  0  0  0  0  0  0  0  0  0  0  0
   44.2365   25.2193   49.2224 H   0  0  0  0  0  0  0  0  0  0  0  0
   42.8113   24.5619   47.3116 H   0  0  0  0  0  0  0  0  0  0  0  0
   42.3968   26.0370   45.3738 H   0  0  0  0  0  0  0  0  0  0  0  0
   43.4793   28.2965   45.3658 H   0  0  0  0  0  0  0  0  0  0  0  0
  1 10  1  0
  2  3  2  0
  2  7  1  0
  3  4  1  0
  4  1  1  0
  4  5  2  0
  6  5  1  0
  7  6  2  0
  8  2  1  0
  9  8  1  0
 10 11  1  0
 11 12  2  0
 13 15  1  0
 13 12  1  0
 14 10  2  0
 14 13  1  0
 15 16  2  0
 16 17  1  0
 18 17  2  0
 19 20  2  0
 19 18  1  0
 20 15  1  0
  3 21  1  0
  6 22  1  0
  8 23  1  0
  8 24  1  0
  9 25  1  0
  9 26  1  0
  9 27  1  0
 11 28  1  0
 12 29  1  0
 16 30  1  0
 17 31  1  0
 18 32  1  0
 19 33  1  0
 20 34  1  0
M  ISO  8  21  14  22  14  23   8  24   8  25   8  26   8  27   8  28  14
M  ISO  6  29  14  30  14  31  14  32  14  33  14  34  14
M  END
>  <minimizedAffinity>  (1) 
-5.18289423

>  <minimizedRMSD>  (1) 
2.46785617

$$$$
