
     RDKit          3D

 48 51  0  0  0  0  0  0  0  0999 V2000
   49.2770   33.8670   41.8490 C   0  0  0  0  0  0  0  0  0  0  0  0
   50.4200   33.6280   42.5290 N   0  0  0  0  0  0  0  0  0  0  0  0
   51.1510   32.7380   41.8860 O   0  0  0  0  0  0  0  0  0  0  0  0
   50.5170   32.3850   40.7980 C   0  0  0  0  0  0  0  0  0  0  0  0
   49.3700   33.0670   40.7630 N   0  0  0  0  0  0  0  0  0  0  0  0
   48.1190   34.7380   42.0830 C   0  0  0  0  0  0  0  0  0  0  0  0
   46.8150   34.0240   42.2520 C   0  0  0  0  0  0  0  0  0  0  0  0
   45.3370   34.1890   45.5950 C   0  0  0  0  0  0  0  0  0  0  0  0
   44.5980   35.3760   45.5720 C   0  0  0  0  0  0  0  0  0  0  0  0
   44.6110   36.1250   44.3960 C   0  0  0  0  0  0  0  0  0  0  0  0
   45.3400   35.6610   43.3320 N   0  0  0  0  0  0  0  0  0  0  0  0
   46.0360   34.5000   43.4160 C   0  0  0  0  0  0  0  0  0  0  0  0
   46.0280   33.7770   44.5440 N   0  0  0  0  0  0  0  0  0  0  0  0
   46.0040   34.2640   40.9980 C   0  0  0  0  0  0  0  0  0  0  0  0
   47.0130   32.5300   42.3550 C   0  0  0  0  0  0  0  0  0  0  0  0
   51.1470   31.4420   39.9830 O   0  0  0  0  0  0  0  0  0  0  0  0
   50.7050   31.1250   38.7160 C   0  0  0  0  0  0  0  0  0  0  0  0
   50.1750   29.8590   38.4690 C   0  0  0  0  0  0  0  0  0  0  0  0
   49.8210   29.8320   37.1220 C   0  0  0  0  0  0  0  0  0  0  0  0
   50.1340   31.0400   36.6020 N   0  0  0  0  0  0  0  0  0  0  0  0
   50.6660   31.8290   37.5470 N   0  0  0  0  0  0  0  0  0  0  0  0
   49.6860   31.7960   32.4650 C   0  0  0  0  0  0  0  0  0  0  0  0
   50.6830   30.9840   32.9940 C   0  0  0  0  0  0  0  0  0  0  0  0
   50.7900   30.7650   34.3490 C   0  0  0  0  0  0  0  0  0  0  0  0
   49.9000   31.3550   35.2340 C   0  0  0  0  0  0  0  0  0  0  0  0
   48.9030   32.1650   34.7300 C   0  0  0  0  0  0  0  0  0  0  0  0
   48.8040   32.3770   33.3620 C   0  0  0  0  0  0  0  0  0  0  0  0
   49.5350   32.0830   30.7380 S   0  0  0  0  0  0  0  0  0  0  0  0
   48.3130   31.4630   30.1570 O   0  0  0  0  0  0  0  0  0  0  0  0
   49.6080   33.5600   30.4690 O   0  0  0  0  0  0  0  0  0  0  0  0
   48.3096   35.3212   42.9960 H   0  0  0  0  0  0  0  0  0  0  0  0
   48.0147   35.3597   41.1816 H   0  0  0  0  0  0  0  0  0  0  0  0
   45.3442   33.5811   46.5117 H   0  0  0  0  0  0  0  0  0  0  0  0
   44.0262   35.7074   46.4513 H   0  0  0  0  0  0  0  0  0  0  0  0
   44.0486   37.0676   44.3237 H   0  0  0  0  0  0  0  0  0  0  0  0
   44.9829   34.5662   41.2739 H   0  0  0  0  0  0  0  0  0  0  0  0
   46.4745   35.0614   40.4041 H   0  0  0  0  0  0  0  0  0  0  0  0
   45.9648   33.3390   40.4041 H   0  0  0  0  0  0  0  0  0  0  0  0
   47.0518   32.2375   43.4147 H   0  0  0  0  0  0  0  0  0  0  0  0
   46.1753   32.0143   41.8627 H   0  0  0  0  0  0  0  0  0  0  0  0
   47.9561   32.2503   41.8627 H   0  0  0  0  0  0  0  0  0  0  0  0
   50.0591   29.0415   39.1958 H   0  0  0  0  0  0  0  0  0  0  0  0
   49.3709   28.9858   36.5822 H   0  0  0  0  0  0  0  0  0  0  0  0
   51.4031   30.5054   32.3140 H   0  0  0  0  0  0  0  0  0  0  0  0
   51.5898   30.1152   34.7337 H   0  0  0  0  0  0  0  0  0  0  0  0
   48.1858   32.6433   35.4133 H   0  0  0  0  0  0  0  0  0  0  0  0
   48.0021   33.0251   32.9787 H   0  0  0  0  0  0  0  0  0  0  0  0
   50.5836   31.4678   30.1064 H   0  0  0  0  0  0  0  0  0  0  0  0
  1  6  1  0
  1  2  2  0
  3  2  1  0
  4  3  1  0
  5  4  2  0
  5  1  1  0
  6  7  1  0
  7 15  1  0
  7 12  1  0
  9  8  2  0
 10  9  1  0
 11 12  1  0
 11 10  2  0
 12 13  2  0
 13  8  1  0
 14  7  1  0
 16  4  1  0
 17 16  1  0
 18 17  1  0
 19 18  2  0
 20 19  1  0
 20 21  1  0
 21 17  2  0
 22 23  2  0
 22 27  1  0
 23 24  1  0
 24 25  2  0
 25 20  1  0
 26 25  1  0
 27 26  2  0
 28 22  1  0
 29 28  2  0
 30 28  2  0
  6 31  1  0
  6 32  1  0
  8 33  1  0
  9 34  1  0
 10 35  1  0
 14 36  1  0
 14 37  1  0
 14 38  1  0
 15 39  1  0
 15 40  1  0
 15 41  1  0
 18 42  1  0
 19 43  1  0
 23 44  1  0
 24 45  1  0
 26 46  1  0
 27 47  1  0
 28 48  1  0
M  ISO  8  31   8  32   8  33  14  34  14  35  14  36   8  37   8  38   8
M  ISO  8  39   8  40   8  41   8  42  14  43  14  44  14  45  14  46  14
M  ISO  2  47  14  48  11
M  END
>  <minimizedAffinity>  (1) 
-5.8931818

>  <minimizedRMSD>  (1) 
3.93937945

$$$$
