
     RDKit          3D

 30 32  0  0  1  0  0  0  0  0999 V2000
   45.5290   34.7050   43.7080 C   0  0  0  0  0  0  0  0  0  0  0  0
   46.5830   34.4420   42.8160 C   0  0  0  0  0  0  0  0  0  0  0  0
   47.5740   33.5100   43.1830 C   0  0  0  0  0  0  0  0  0  0  0  0
   47.4460   32.9090   44.4010 N   0  0  0  0  0  0  0  0  0  0  0  0
   46.4390   33.1820   45.2170 C   0  0  0  0  0  0  0  0  0  0  0  0
   45.4710   34.0760   44.8880 N   0  0  0  0  0  0  0  0  0  0  0  0
   46.3080   32.5380   46.5450 C   0  0  0  0  0  0  0  0  0  0  0  0
   47.2810   31.5760   46.8890 C   0  0  0  0  0  0  0  0  0  0  0  0
   46.6910   31.1150   48.6020 S   0  0  0  0  0  0  0  0  0  0  0  0
   45.2540   32.3180   48.4910 C   0  0  0  0  0  0  0  0  0  0  0  0
   45.4000   32.7540   47.4770 N   0  0  0  0  0  0  0  0  0  0  0  0
   44.4920   35.6880   43.3170 C   0  0  1  0  0  0  0  0  0  0  0  0
   44.9930   37.1010   43.5700 C   0  0  0  0  0  0  0  0  0  0  0  0
   44.0970   35.5670   41.8790 C   0  0  0  0  0  0  0  0  0  0  0  0
   42.7500   35.0280   41.6790 C   0  0  0  0  0  0  0  0  0  0  0  0
   42.5860   33.7080   41.3690 N   0  0  0  0  0  0  0  0  0  0  0  0
   41.3220   33.4700   41.2430 O   0  0  0  0  0  0  0  0  0  0  0  0
   40.6140   34.5380   41.4460 C   0  0  0  0  0  0  0  0  0  0  0  0
   41.5120   35.5290   41.7220 N   0  0  0  0  0  0  0  0  0  0  0  0
   46.6335   34.9565   41.8451 H   0  0  0  0  0  0  0  0  0  0  0  0
   48.4162   33.2766   42.5149 H   0  0  0  0  0  0  0  0  0  0  0  0
   48.1413   31.2035   46.3135 H   0  0  0  0  0  0  0  0  0  0  0  0
   44.4722   32.5353   49.2336 H   0  0  0  0  0  0  0  0  0  0  0  0
   43.6053   35.4738   43.9318 H   0  0  0  0  0  0  0  0  0  0  0  0
   45.0562   37.2791   44.6536 H   0  0  0  0  0  0  0  0  0  0  0  0
   45.9892   37.2230   43.1197 H   0  0  0  0  0  0  0  0  0  0  0  0
   44.2962   37.8232   43.1197 H   0  0  0  0  0  0  0  0  0  0  0  0
   44.1420   36.5665   41.4218 H   0  0  0  0  0  0  0  0  0  0  0  0
   44.7978   34.8587   41.4129 H   0  0  0  0  0  0  0  0  0  0  0  0
   39.5184   34.6268   41.4044 H   0  0  0  0  0  0  0  0  0  0  0  0
  1  6  2  0
  2  3  2  0
  2  1  1  0
  3  4  1  0
  4  5  2  0
  5  7  1  0
  6  5  1  0
  7  8  2  0
  7 11  1  0
  8  9  1  0
 10  9  1  0
 11 10  2  0
 12 13  1  0
 12  1  1  0
 14 12  1  0
 15 19  1  0
 15 14  1  0
 16 15  2  0
 17 16  1  0
 17 18  1  0
 18 19  2  0
  2 20  1  0
  3 21  1  0
  8 22  1  0
 10 23  1  0
 12 24  1  1
 13 25  1  0
 13 26  1  0
 13 27  1  0
 14 28  1  0
 14 29  1  0
 18 30  1  0
M  ISO  8  20  14  21  14  22  14  23  14  24   8  25   8  26   8  27   8
M  ISO  3  28   8  29   8  30  14
M  END
>  <minimizedAffinity>  (1) 
-4.95340633

>  <minimizedRMSD>  (1) 
1.09149945

$$$$
