
     RDKit          3D

 45 48  0  0  1  0  0  0  0  0999 V2000
   46.7740   33.9270   42.4130 N   0  0  0  0  0  0  0  0  0  0  0  0
   47.9050   34.4630   41.6580 C   0  0  0  0  0  0  0  0  0  0  0  0
   47.5870   33.9070   40.2970 C   0  0  0  0  0  0  0  0  0  0  0  0
   47.3290   32.4580   40.6330 C   0  0  0  0  0  0  0  0  0  0  0  0
   46.5770   32.5490   41.9200 C   0  0  2  0  0  0  0  0  0  0  0  0
   44.5480   36.2640   44.2600 C   0  0  0  0  0  0  0  0  0  0  0  0
   45.3050   35.7200   43.2110 C   0  0  0  0  0  0  0  0  0  0  0  0
   45.9960   34.5350   43.4080 C   0  0  0  0  0  0  0  0  0  0  0  0
   45.8910   33.9580   44.6460 N   0  0  0  0  0  0  0  0  0  0  0  0
   45.1680   34.4790   45.6400 C   0  0  0  0  0  0  0  0  0  0  0  0
   44.4970   35.6340   45.4430 N   0  0  0  0  0  0  0  0  0  0  0  0
   45.1720   33.7460   46.8530 N   0  0  0  0  0  0  0  0  0  0  0  0
   45.2180   32.1270   41.8850 N   0  0  0  0  0  0  0  0  0  0  0  0
   44.2920   32.4430   40.9890 C   0  0  0  0  0  0  0  0  0  0  0  0
   42.9970   31.9800   41.0440 C   0  0  0  0  0  0  0  0  0  0  0  0
   42.6070   31.1470   42.0680 C   0  0  0  0  0  0  0  0  0  0  0  0
   41.4290   30.6870   42.1750 O   0  0  0  0  0  0  0  0  0  0  0  0
   43.5440   30.8300   42.9740 N   0  0  0  0  0  0  0  0  0  0  0  0
   44.7830   31.3030   42.8740 C   0  0  0  0  0  0  0  0  0  0  0  0
   45.5990   30.9450   43.7810 O   0  0  0  0  0  0  0  0  0  0  0  0
   41.9850   32.3610   40.0170 C   0  0  0  0  0  0  0  0  0  0  0  0
   41.3350   33.6530   40.2470 C   0  0  0  0  0  0  0  0  0  0  0  0
   40.2390   34.2340   39.6580 C   0  0  0  0  0  0  0  0  0  0  0  0
   39.7880   35.4780   40.0310 C   0  0  0  0  0  0  0  0  0  0  0  0
   40.4120   36.1840   41.0000 N   0  0  0  0  0  0  0  0  0  0  0  0
   41.5010   35.6170   41.5920 C   0  0  0  0  0  0  0  0  0  0  0  0
   41.9450   34.3880   41.2220 N   0  0  0  0  0  0  0  0  0  0  0  0
   47.9138   35.5630   41.6592 H   0  0  0  0  0  0  0  0  0  0  0  0
   48.8969   34.1954   42.0510 H   0  0  0  0  0  0  0  0  0  0  0  0
   48.4364   34.0169   39.6068 H   0  0  0  0  0  0  0  0  0  0  0  0
   46.7536   34.4097   39.7844 H   0  0  0  0  0  0  0  0  0  0  0  0
   46.7241   31.9716   39.8536 H   0  0  0  0  0  0  0  0  0  0  0  0
   48.2470   31.8562   40.7051 H   0  0  0  0  0  0  0  0  0  0  0  0
   46.9839   31.8117   42.6276 H   0  0  0  0  0  0  0  0  0  0  0  0
   43.9977   37.2050   44.1124 H   0  0  0  0  0  0  0  0  0  0  0  0
   45.3496   36.2312   42.2380 H   0  0  0  0  0  0  0  0  0  0  0  0
   44.6361   34.0882   47.6633 H   0  0  0  0  0  0  0  0  0  0  0  0
   45.7109   32.8711   46.9243 H   0  0  0  0  0  0  0  0  0  0  0  0
   44.5735   33.1089   40.1600 H   0  0  0  0  0  0  0  0  0  0  0  0
   43.3000   30.2103   43.7597 H   0  0  0  0  0  0  0  0  0  0  0  0
   41.2063   31.5843   39.9989 H   0  0  0  0  0  0  0  0  0  0  0  0
   42.5283   32.4521   39.0649 H   0  0  0  0  0  0  0  0  0  0  0  0
   39.7066   33.6884   38.8650 H   0  0  0  0  0  0  0  0  0  0  0  0
   38.9053   35.9055   39.5329 H   0  0  0  0  0  0  0  0  0  0  0  0
   42.0306   36.1655   42.3849 H   0  0  0  0  0  0  0  0  0  0  0  0
  1  8  1  0
  2  1  1  0
  3  4  1  0
  3  2  1  0
  4  5  1  0
  5  1  1  0
  6 11  2  0
  7  8  2  0
  7  6  1  0
  8  9  1  0
  9 10  2  0
 10 12  1  0
 11 10  1  0
 13  5  1  0
 13 19  1  0
 14 15  2  0
 14 13  1  0
 15 16  1  0
 16 17  2  0
 16 18  1  0
 19 18  1  0
 19 20  2  0
 21 22  1  0
 21 15  1  0
 22 27  2  0
 23 24  2  0
 23 22  1  0
 24 25  1  0
 25 26  2  0
 27 26  1  0
  2 28  1  0
  2 29  1  0
  3 30  1  0
  3 31  1  0
  4 32  1  0
  4 33  1  0
  5 34  1  1
  6 35  1  0
  7 36  1  0
 12 37  1  0
 12 38  1  0
 14 39  1  0
 18 40  1  0
 21 41  1  0
 21 42  1  0
 23 43  1  0
 24 44  1  0
 26 45  1  0
M  ISO  8  28  13  29  13  30  13  31  13  32  13  33  13  34  13  35  14
M  ISO  8  36  14  39  14  40   9  41   8  42   8  43  14  44  14  45  14
M  END
>  <minimizedAffinity>  (1) 
-6.33446789

>  <minimizedRMSD>  (1) 
1.98366416

$$$$
