
     RDKit          3D

 33 36  0  0  0  0  0  0  0  0999 V2000
   46.1940   30.3690   49.0680 N   0  0  0  0  0  0  0  0  0  0  0  0
   45.3640   31.3800   49.4230 C   0  0  0  0  0  0  0  0  0  0  0  0
   45.2730   32.2410   48.3810 N   0  0  0  0  0  0  0  0  0  0  0  0
   46.0620   31.7200   47.4100 C   0  0  0  0  0  0  0  0  0  0  0  0
   46.2750   32.2720   46.1660 C   0  0  0  0  0  0  0  0  0  0  0  0
   47.1220   31.5830   45.3310 N   0  0  0  0  0  0  0  0  0  0  0  0
   47.7060   30.4350   45.7090 C   0  0  0  0  0  0  0  0  0  0  0  0
   47.4580   29.9480   46.9360 N   0  0  0  0  0  0  0  0  0  0  0  0
   46.6510   30.5490   47.8120 C   0  0  0  0  0  0  0  0  0  0  0  0
   48.6040   29.7280   44.7900 C   0  0  0  0  0  0  0  0  0  0  0  0
   48.9100   30.3100   43.5730 C   0  0  0  0  0  0  0  0  0  0  0  0
   49.7550   29.5780   42.7790 C   0  0  0  0  0  0  0  0  0  0  0  0
   50.2680   28.3890   43.1170 N   0  0  0  0  0  0  0  0  0  0  0  0
   49.9340   27.8680   44.3180 C   0  0  0  0  0  0  0  0  0  0  0  0
   49.1070   28.5490   45.1330 N   0  0  0  0  0  0  0  0  0  0  0  0
   45.6100   33.7510   45.4900 S   0  0  0  0  0  0  0  0  0  0  0  0
   47.6820   34.7870   42.3330 C   0  0  0  0  0  0  0  0  0  0  0  0
   46.8980   34.4930   41.2330 C   0  0  0  0  0  0  0  0  0  0  0  0
   45.6440   33.9370   41.4700 C   0  0  0  0  0  0  0  0  0  0  0  0
   45.2690   33.7190   42.7610 N   0  0  0  0  0  0  0  0  0  0  0  0
   46.0760   34.0260   43.7950 C   0  0  0  0  0  0  0  0  0  0  0  0
   47.2720   34.5550   43.5890 N   0  0  0  0  0  0  0  0  0  0  0  0
   49.0170   35.3790   42.1030 C   0  0  0  0  0  0  0  0  0  0  0  0
   49.2060   36.0890   41.0890 O   0  0  0  0  0  0  0  0  0  0  0  0
   50.0310   35.1400   43.0040 O   0  0  0  0  0  0  0  0  0  0  0  0
   46.4414   29.5734   49.6736 H   0  0  0  0  0  0  0  0  0  0  0  0
   44.8521   31.4836   50.3911 H   0  0  0  0  0  0  0  0  0  0  0  0
   48.5062   31.2859   43.2655 H   0  0  0  0  0  0  0  0  0  0  0  0
   50.0294   29.9958   41.7991 H   0  0  0  0  0  0  0  0  0  0  0  0
   50.3359   26.8922   44.6283 H   0  0  0  0  0  0  0  0  0  0  0  0
   47.2513   34.6907   40.2102 H   0  0  0  0  0  0  0  0  0  0  0  0
   44.9736   33.6805   40.6365 H   0  0  0  0  0  0  0  0  0  0  0  0
   50.9274   35.5333   42.8562 H   0  0  0  0  0  0  0  0  0  0  0  0
  1  2  1  0
  3  2  2  0
  4  9  2  0
  4  3  1  0
  5  4  1  0
  6  7  1  0
  6  5  2  0
  7  8  2  0
  8  9  1  0
  9  1  1  0
 10 15  1  0
 10  7  1  0
 11 10  2  0
 12 13  2  0
 12 11  1  0
 13 14  1  0
 14 15  2  0
 16  5  1  0
 17 22  2  0
 18 19  2  0
 18 17  1  0
 19 20  1  0
 20 21  2  0
 21 16  1  0
 22 21  1  0
 23 17  1  0
 23 25  1  0
 24 23  2  0
  1 26  1  0
  2 27  1  0
 11 28  1  0
 12 29  1  0
 14 30  1  0
 18 31  1  0
 19 32  1  0
 25 33  1  0
M  ISO  8  26   9  27  14  28  14  29  14  30  14  31  14  32  14  33   3
M  END
>  <minimizedAffinity>  (1) 
-5.76704121

>  <minimizedRMSD>  (1) 
0.562891424

$$$$
