
     RDKit          3D

 45 48  0  0  1  0  0  0  0  0999 V2000
   48.3590   30.7140   47.9010 C   0  0  2  0  0  0  0  0  0  0  0  0
   47.0190   32.0880   46.2670 C   0  0  2  0  0  0  0  0  0  0  0  0
   46.6290   30.6690   45.9170 C   0  0  0  0  0  0  0  0  0  0  0  0
   47.0660   30.9790   47.2840 C   0  0  1  0  0  0  0  0  0  0  0  0
   45.8890   33.0910   46.4420 C   0  0  0  0  0  0  0  0  0  0  0  0
   45.2280   32.9720   47.5340 O   0  0  0  0  0  0  0  0  0  0  0  0
   44.4810   35.9310   44.6700 C   0  0  0  0  0  0  0  0  0  0  0  0
   45.1160   35.8860   43.4140 C   0  0  0  0  0  0  0  0  0  0  0  0
   46.0370   34.8620   43.2240 C   0  0  0  0  0  0  0  0  0  0  0  0
   46.2440   34.0030   44.2430 N   0  0  0  0  0  0  0  0  0  0  0  0
   45.6160   34.0760   45.4340 C   0  0  0  0  0  0  0  0  0  0  0  0
   44.7090   35.0570   45.6720 N   0  0  0  0  0  0  0  0  0  0  0  0
   49.0880   29.5470   47.2600 C   0  0  0  0  0  0  0  0  0  0  0  0
   48.2240   30.4190   49.3710 C   0  0  0  0  0  0  0  0  0  0  0  0
   49.4750   30.4270   50.1240 C   0  0  0  0  0  0  0  0  0  0  0  0
   50.2310   29.3860   50.6160 C   0  0  0  0  0  0  0  0  0  0  0  0
   51.3900   29.6050   51.3000 C   0  0  0  0  0  0  0  0  0  0  0  0
   51.7930   30.8860   51.4920 N   0  0  0  0  0  0  0  0  0  0  0  0
   51.0760   31.9240   51.0230 C   0  0  0  0  0  0  0  0  0  0  0  0
   49.9400   31.6880   50.3540 N   0  0  0  0  0  0  0  0  0  0  0  0
   51.5800   33.2760   51.2720 C   0  0  0  0  0  0  0  0  0  0  0  0
   52.3720   33.4800   52.4020 C   0  0  0  0  0  0  0  0  0  0  0  0
   52.8370   34.7490   52.6220 C   0  0  0  0  0  0  0  0  0  0  0  0
   52.4950   35.7400   51.7190 C   0  0  0  0  0  0  0  0  0  0  0  0
   51.7030   35.5080   50.6010 C   0  0  0  0  0  0  0  0  0  0  0  0
   51.2510   34.2410   50.3990 N   0  0  0  0  0  0  0  0  0  0  0  0
   48.9427   31.6336   47.7474 H   0  0  0  0  0  0  0  0  0  0  0  0
   47.7247   32.8271   45.8599 H   0  0  0  0  0  0  0  0  0  0  0  0
   45.5750   30.4226   45.7210 H   0  0  0  0  0  0  0  0  0  0  0  0
   46.9433   29.9470   45.1489 H   0  0  0  0  0  0  0  0  0  0  0  0
   46.6118   30.6996   48.2461 H   0  0  0  0  0  0  0  0  0  0  0  0
   43.7494   36.7333   44.8461 H   0  0  0  0  0  0  0  0  0  0  0  0
   44.8954   36.6211   42.6260 H   0  0  0  0  0  0  0  0  0  0  0  0
   46.5795   34.7558   42.2730 H   0  0  0  0  0  0  0  0  0  0  0  0
   49.4961   28.8937   48.0453 H   0  0  0  0  0  0  0  0  0  0  0  0
   48.3863   28.9750   46.6351 H   0  0  0  0  0  0  0  0  0  0  0  0
   49.9098   29.9267   46.6351 H   0  0  0  0  0  0  0  0  0  0  0  0
   47.5576   31.1759   49.8102 H   0  0  0  0  0  0  0  0  0  0  0  0
   47.8315   29.3939   49.4419 H   0  0  0  0  0  0  0  0  0  0  0  0
   49.8913   28.3525   50.4531 H   0  0  0  0  0  0  0  0  0  0  0  0
   51.9837   28.7636   51.6867 H   0  0  0  0  0  0  0  0  0  0  0  0
   52.6132   32.6550   53.0884 H   0  0  0  0  0  0  0  0  0  0  0  0
   53.4669   34.9750   53.4950 H   0  0  0  0  0  0  0  0  0  0  0  0
   52.8678   36.7599   51.8944 H   0  0  0  0  0  0  0  0  0  0  0  0
   51.4504   36.3205   49.9038 H   0  0  0  0  0  0  0  0  0  0  0  0
  1 14  1  0
  2  5  1  0
  2  4  1  0
  3  2  1  0
  3  4  1  0
  4  1  1  0
  5  6  2  0
  7 12  2  0
  8  7  1  0
  9  8  2  0
  9 10  1  0
 10 11  2  0
 11 12  1  0
 11  5  1  0
 13  1  1  0
 14 15  1  0
 15 20  1  0
 15 16  2  0
 16 17  1  0
 17 18  2  0
 19 21  1  0
 19 18  1  0
 20 19  2  0
 21 22  2  0
 22 23  1  0
 24 23  2  0
 25 24  1  0
 26 25  2  0
 26 21  1  0
  1 27  1  1
  2 28  1  6
  3 29  1  0
  3 30  1  0
  4 31  1  1
  7 32  1  0
  8 33  1  0
  9 34  1  0
 13 35  1  0
 13 36  1  0
 13 37  1  0
 14 38  1  0
 14 39  1  0
 16 40  1  0
 17 41  1  0
 22 42  1  0
 23 43  1  0
 24 44  1  0
 25 45  1  0
M  ISO  8  27   8  28  13  29  13  30  13  31  13  32  14  33  14  34  14
M  ISO  8  35   8  36   8  37   8  38   8  39   8  40  14  41  14  42  14
M  ISO  3  43  14  44  14  45  14
M  END
>  <minimizedAffinity>  (1) 
-6.04570627

>  <minimizedRMSD>  (1) 
1.14455116

$$$$
