
     RDKit          3D

 30 32  0  0  0  0  0  0  0  0999 V2000
   43.5720   35.6420   42.3720 C   0  0  0  0  0  0  0  0  0  0  0  0
   42.7260   35.3340   41.2730 C   0  0  0  0  0  0  0  0  0  0  0  0
   43.2360   34.5970   40.2290 C   0  0  0  0  0  0  0  0  0  0  0  0
   44.5430   34.1690   40.2490 N   0  0  0  0  0  0  0  0  0  0  0  0
   45.3130   34.4880   41.3200 C   0  0  0  0  0  0  0  0  0  0  0  0
   44.8370   35.2070   42.3550 N   0  0  0  0  0  0  0  0  0  0  0  0
   46.7150   34.0690   41.4190 C   0  0  0  0  0  0  0  0  0  0  0  0
   47.6940   34.9810   41.7020 C   0  0  0  0  0  0  0  0  0  0  0  0
   49.0290   34.6280   41.8050 C   0  0  0  0  0  0  0  0  0  0  0  0
   49.4100   33.3140   41.6180 C   0  0  0  0  0  0  0  0  0  0  0  0
   48.3930   32.4040   41.3290 C   0  0  0  0  0  0  0  0  0  0  0  0
   47.1020   32.7840   41.2380 N   0  0  0  0  0  0  0  0  0  0  0  0
   41.0000   35.8740   41.1970 S   0  0  0  0  0  0  0  0  0  0  0  0
   39.9650   34.4570   40.8420 C   0  0  0  0  0  0  0  0  0  0  0  0
   40.0300   33.3400   41.6310 C   0  0  0  0  0  0  0  0  0  0  0  0
   39.2800   32.2110   41.4380 C   0  0  0  0  0  0  0  0  0  0  0  0
   38.4100   32.2500   40.3540 C   0  0  0  0  0  0  0  0  0  0  0  0
   38.3270   33.3760   39.5370 C   0  0  0  0  0  0  0  0  0  0  0  0
   39.1110   34.4970   39.7760 C   0  0  0  0  0  0  0  0  0  0  0  0
   43.1934   36.2281   43.2224 H   0  0  0  0  0  0  0  0  0  0  0  0
   42.5934   34.3481   39.3716 H   0  0  0  0  0  0  0  0  0  0  0  0
   47.4107   36.0331   41.8533 H   0  0  0  0  0  0  0  0  0  0  0  0
   49.7849   35.3932   42.0354 H   0  0  0  0  0  0  0  0  0  0  0  0
   50.4618   33.0008   41.6931 H   0  0  0  0  0  0  0  0  0  0  0  0
   48.6512   31.3465   41.1708 H   0  0  0  0  0  0  0  0  0  0  0  0
   40.7325   33.3504   42.4774 H   0  0  0  0  0  0  0  0  0  0  0  0
   39.3602   31.3329   42.0956 H   0  0  0  0  0  0  0  0  0  0  0  0
   37.7764   31.3772   40.1376 H   0  0  0  0  0  0  0  0  0  0  0  0
   37.6280   33.3768   38.6877 H   0  0  0  0  0  0  0  0  0  0  0  0
   39.0469   35.3853   39.1304 H   0  0  0  0  0  0  0  0  0  0  0  0
  2  1  2  0
  3  4  2  0
  3  2  1  0
  4  5  1  0
  5  7  1  0
  5  6  2  0
  6  1  1  0
  7  8  2  0
  8  9  1  0
 10  9  2  0
 11 10  1  0
 12 11  2  0
 12  7  1  0
 13  2  1  0
 14 13  1  0
 14 15  2  0
 16 15  1  0
 17 16  2  0
 18 19  2  0
 18 17  1  0
 19 14  1  0
  1 20  1  0
  3 21  1  0
  8 22  1  0
  9 23  1  0
 10 24  1  0
 11 25  1  0
 15 26  1  0
 16 27  1  0
 17 28  1  0
 18 29  1  0
 19 30  1  0
M  ISO  8  20  14  21  14  22  14  23  14  24  14  25  14  26  14  27  14
M  ISO  3  28  14  29  14  30  14
M  END
>  <minimizedAffinity>  (1) 
-5.44574594

>  <minimizedRMSD>  (1) 
1.60427201

$$$$
