
     RDKit          3D

 23 25  0  0  0  0  0  0  0  0999 V2000
   45.8550   33.0960   46.3820 C   0  0  0  0  0  0  0  0  0  0  0  0
   45.3790   32.8730   47.6580 C   0  0  0  0  0  0  0  0  0  0  0  0
   46.0680   32.0450   48.4870 C   0  0  0  0  0  0  0  0  0  0  0  0
   47.2360   31.4660   47.9750 C   0  0  0  0  0  0  0  0  0  0  0  0
   47.3300   32.1130   46.3180 S   0  0  0  0  0  0  0  0  0  0  0  0
   44.3440   35.9090   44.5950 C   0  0  0  0  0  0  0  0  0  0  0  0
   44.3350   35.4040   43.2610 C   0  0  0  0  0  0  0  0  0  0  0  0
   44.8500   34.1040   43.0110 C   0  0  0  0  0  0  0  0  0  0  0  0
   45.3330   33.3980   44.0750 N   0  0  0  0  0  0  0  0  0  0  0  0
   45.3250   33.9130   45.3230 C   0  0  0  0  0  0  0  0  0  0  0  0
   44.8380   35.1460   45.5750 N   0  0  0  0  0  0  0  0  0  0  0  0
   48.1900   30.5630   48.5560 C   0  0  0  0  0  0  0  0  0  0  0  0
   48.5310   29.3620   47.9420 C   0  0  0  0  0  0  0  0  0  0  0  0
   49.7500   28.6480   49.0960 S   0  0  0  0  0  0  0  0  0  0  0  0
   49.5840   30.1480   50.2520 C   0  0  0  0  0  0  0  0  0  0  0  0
   48.8210   30.7700   49.6940 N   0  0  0  0  0  0  0  0  0  0  0  0
   44.4535   33.3593   48.0000 H   0  0  0  0  0  0  0  0  0  0  0  0
   45.7245   31.8394   49.5116 H   0  0  0  0  0  0  0  0  0  0  0  0
   43.9499   36.9123   44.8142 H   0  0  0  0  0  0  0  0  0  0  0  0
   43.9347   36.0130   42.4371 H   0  0  0  0  0  0  0  0  0  0  0  0
   44.8593   33.6809   41.9956 H   0  0  0  0  0  0  0  0  0  0  0  0
   48.1577   28.9458   46.9947 H   0  0  0  0  0  0  0  0  0  0  0  0
   50.0921   30.3552   51.2053 H   0  0  0  0  0  0  0  0  0  0  0  0
  1  2  2  0
  2  3  1  0
  4  3  2  0
  4 12  1  0
  5  1  1  0
  5  4  1  0
  6 11  2  0
  7  6  1  0
  8  7  2  0
  8  9  1  0
  9 10  2  0
 10 11  1  0
 10  1  1  0
 12 16  1  0
 13 12  2  0
 13 14  1  0
 14 15  1  0
 16 15  2  0
  2 17  1  0
  3 18  1  0
  6 19  1  0
  7 20  1  0
  8 21  1  0
 13 22  1  0
 15 23  1  0
M  ISO  7  17  14  18  14  19  14  20  14  21  14  22  14  23  14
M  END
>  <minimizedAffinity>  (1) 
-4.49301291

>  <minimizedRMSD>  (1) 
1.01662529

$$$$
