
     RDKit          3D

 55 58  0  0  0  0  0  0  0  0999 V2000
   46.6710   34.3850   41.4000 N   0  0  0  0  0  0  0  0  0  0  0  0
   46.0430   33.8530   40.3310 C   0  0  0  0  0  0  0  0  0  0  0  0
   46.7080   33.7490   39.1070 C   0  0  0  0  0  0  0  0  0  0  0  0
   48.0140   34.2240   39.1010 C   0  0  0  0  0  0  0  0  0  0  0  0
   48.6510   34.1500   38.0170 O   0  0  0  0  0  0  0  0  0  0  0  0
   48.6160   34.7480   40.1810 N   0  0  0  0  0  0  0  0  0  0  0  0
   47.9210   34.8240   41.3450 C   0  0  0  0  0  0  0  0  0  0  0  0
   48.5480   35.3210   42.3040 O   0  0  0  0  0  0  0  0  0  0  0  0
   44.6150   33.3940   40.5020 C   0  0  0  0  0  0  0  0  0  0  0  0
   44.4180   32.2740   41.4560 C   0  0  0  0  0  0  0  0  0  0  0  0
   42.9610   32.3320   41.8840 C   0  0  0  0  0  0  0  0  0  0  0  0
   42.1710   32.5790   40.6110 C   0  0  0  0  0  0  0  0  0  0  0  0
   42.2990   33.9760   40.0460 C   0  0  0  0  0  0  0  0  0  0  0  0
   43.6170   34.4900   40.6110 C   0  0  0  0  0  0  0  0  0  0  0  0
   44.7630   35.9960   44.1240 C   0  0  0  0  0  0  0  0  0  0  0  0
   45.3690   35.7980   42.8580 C   0  0  0  0  0  0  0  0  0  0  0  0
   46.0770   34.5680   42.6720 C   0  0  0  0  0  0  0  0  0  0  0  0
   46.0970   33.7320   43.7070 N   0  0  0  0  0  0  0  0  0  0  0  0
   45.5200   33.9460   44.8820 C   0  0  0  0  0  0  0  0  0  0  0  0
   44.8510   35.0780   45.0950 N   0  0  0  0  0  0  0  0  0  0  0  0
   46.0710   33.1770   37.9440 C   0  0  0  0  0  0  0  0  0  0  0  0
   46.2860   31.7100   37.7000 C   0  0  0  0  0  0  0  0  0  0  0  0
   46.7050   31.5500   36.2310 C   0  0  0  0  0  0  0  0  0  0  0  0
   47.0390   30.0740   35.9670 C   0  0  0  0  0  0  0  0  0  0  0  0
   45.7250   29.3310   36.0980 C   0  0  0  0  0  0  0  0  0  0  0  0
   45.2540   29.5080   37.5290 C   0  0  0  0  0  0  0  0  0  0  0  0
   44.9410   30.9560   37.7900 C   0  0  0  0  0  0  0  0  0  0  0  0
   49.5874   35.0862   40.1274 H   0  0  0  0  0  0  0  0  0  0  0  0
   44.3866   32.9315   39.5304 H   0  0  0  0  0  0  0  0  0  0  0  0
   44.6333   31.3132   40.9656 H   0  0  0  0  0  0  0  0  0  0  0  0
   45.0931   32.3605   42.3202 H   0  0  0  0  0  0  0  0  0  0  0  0
   42.6581   31.3804   42.3453 H   0  0  0  0  0  0  0  0  0  0  0  0
   42.7872   33.1210   42.6305 H   0  0  0  0  0  0  0  0  0  0  0  0
   42.5205   31.8679   39.8480 H   0  0  0  0  0  0  0  0  0  0  0  0
   41.1110   32.4473   40.8739 H   0  0  0  0  0  0  0  0  0  0  0  0
   42.3295   33.9507   38.9467 H   0  0  0  0  0  0  0  0  0  0  0  0
   41.4472   34.6181   40.3146 H   0  0  0  0  0  0  0  0  0  0  0  0
   43.4868   34.7742   41.6656 H   0  0  0  0  0  0  0  0  0  0  0  0
   43.9555   35.3754   40.0530 H   0  0  0  0  0  0  0  0  0  0  0  0
   44.2071   36.9261   44.3134 H   0  0  0  0  0  0  0  0  0  0  0  0
   45.2988   36.5511   42.0593 H   0  0  0  0  0  0  0  0  0  0  0  0
   45.5937   33.1908   45.6783 H   0  0  0  0  0  0  0  0  0  0  0  0
   44.9880   33.3413   38.0444 H   0  0  0  0  0  0  0  0  0  0  0  0
   46.5391   33.6807   37.0855 H   0  0  0  0  0  0  0  0  0  0  0  0
   47.0187   31.3304   38.4274 H   0  0  0  0  0  0  0  0  0  0  0  0
   45.8799   31.8649   35.5752 H   0  0  0  0  0  0  0  0  0  0  0  0
   47.5868   32.1744   36.0247 H   0  0  0  0  0  0  0  0  0  0  0  0
   47.7642   29.7057   36.7076 H   0  0  0  0  0  0  0  0  0  0  0  0
   47.4919   29.9296   34.9750 H   0  0  0  0  0  0  0  0  0  0  0  0
   44.9834   29.7501   35.4020 H   0  0  0  0  0  0  0  0  0  0  0  0
   45.8517   28.2654   35.8562 H   0  0  0  0  0  0  0  0  0  0  0  0
   44.3492   28.9041   37.6924 H   0  0  0  0  0  0  0  0  0  0  0  0
   46.0490   29.1802   38.2149 H   0  0  0  0  0  0  0  0  0  0  0  0
   44.5022   31.0769   38.7914 H   0  0  0  0  0  0  0  0  0  0  0  0
   44.2130   31.3462   37.0635 H   0  0  0  0  0  0  0  0  0  0  0  0
  1 17  1  0
  2  9  1  0
  2  1  1  0
  3  2  2  0
  4  3  1  0
  4  6  1  0
  5  4  2  0
  6  7  1  0
  7  1  1  0
  7  8  2  0
  9 14  1  0
  9 10  1  0
 10 11  1  0
 12 11  1  0
 13 12  1  0
 13 14  1  0
 15 20  2  0
 16 15  1  0
 17 16  2  0
 17 18  1  0
 18 19  2  0
 19 20  1  0
 21  3  1  0
 22 27  1  0
 22 21  1  0
 23 22  1  0
 24 25  1  0
 24 23  1  0
 25 26  1  0
 26 27  1  0
  6 28  1  0
  9 29  1  0
 10 30  1  0
 10 31  1  0
 11 32  1  0
 11 33  1  0
 12 34  1  0
 12 35  1  0
 13 36  1  0
 13 37  1  0
 14 38  1  0
 14 39  1  0
 15 40  1  0
 16 41  1  0
 19 42  1  0
 21 43  1  0
 21 44  1  0
 22 45  1  0
 23 46  1  0
 23 47  1  0
 24 48  1  0
 24 49  1  0
 25 50  1  0
 25 51  1  0
 26 52  1  0
 26 53  1  0
 27 54  1  0
 27 55  1  0
M  ISO  8  28   9  29  13  30  13  31  13  32  13  33  13  34  13  35  13
M  ISO  8  36  13  37  13  38  13  39  13  40  14  41  14  42  14  43   8
M  ISO  8  44   8  45  13  46  13  47  13  48  13  49  13  50  13  51  13
M  ISO  4  52  13  53  13  54  13  55  13
M  END
>  <minimizedAffinity>  (1) 
-5.48916912

>  <minimizedRMSD>  (1) 
0.502918541

$$$$
