
     RDKit          3D

 43 46  0  0  1  0  0  0  0  0999 V2000
   40.9460   33.6480   39.4220 C   0  0  2  0  0  0  0  0  0  0  0  0
   40.5360   34.2370   38.1050 C   0  0  0  0  0  0  0  0  0  0  0  0
   39.1960   33.8130   37.5990 C   0  0  0  0  0  0  0  0  0  0  0  0
   38.1250   34.0940   38.6030 C   0  0  0  0  0  0  0  0  0  0  0  0
   38.7220   34.4260   39.9670 C   0  0  0  0  0  0  0  0  0  0  0  0
   39.7520   33.4490   40.2590 C   0  0  1  0  0  0  0  0  0  0  0  0
   42.3460   34.4770   41.4980 C   0  0  1  0  0  0  0  0  0  0  0  0
   41.5870   35.6970   40.9100 C   0  0  0  0  0  0  0  0  0  0  0  0
   41.9460   34.5660   40.1090 C   0  0  2  0  0  0  0  0  0  0  0  0
   46.0270   34.6300   41.3960 C   0  0  0  0  0  0  0  0  0  0  0  0
   46.3480   35.2560   42.6120 C   0  0  0  0  0  0  0  0  0  0  0  0
   45.2770   35.6390   43.4620 C   0  0  0  0  0  0  0  0  0  0  0  0
   44.0100   35.3780   43.0550 N   0  0  0  0  0  0  0  0  0  0  0  0
   43.7570   34.7760   41.8830 C   0  0  0  0  0  0  0  0  0  0  0  0
   44.7510   34.3920   41.0340 N   0  0  0  0  0  0  0  0  0  0  0  0
   47.1500   34.2190   40.5120 C   0  0  0  0  0  0  0  0  0  0  0  0
   39.2460   32.0640   40.1330 C   0  0  0  0  0  0  0  0  0  0  0  0
   38.1960   31.6210   40.9610 C   0  0  0  0  0  0  0  0  0  0  0  0
   37.8410   30.2830   40.7080 C   0  0  0  0  0  0  0  0  0  0  0  0
   38.7310   29.9780   39.7000 C   0  0  0  0  0  0  0  0  0  0  0  0
   39.4780   30.9920   39.4240 O   0  0  0  0  0  0  0  0  0  0  0  0
   41.4299   32.6734   39.2610 H   0  0  0  0  0  0  0  0  0  0  0  0
   40.5268   35.3318   38.2118 H   0  0  0  0  0  0  0  0  0  0  0  0
   41.2664   33.8687   37.3695 H   0  0  0  0  0  0  0  0  0  0  0  0
   38.9722   34.3621   36.6725 H   0  0  0  0  0  0  0  0  0  0  0  0
   39.2216   32.7294   37.4113 H   0  0  0  0  0  0  0  0  0  0  0  0
   37.5237   34.9476   38.2570 H   0  0  0  0  0  0  0  0  0  0  0  0
   37.4990   33.1954   38.7058 H   0  0  0  0  0  0  0  0  0  0  0  0
   39.1603   35.4347   39.9464 H   0  0  0  0  0  0  0  0  0  0  0  0
   37.9410   34.3985   40.7411 H   0  0  0  0  0  0  0  0  0  0  0  0
   40.0476   33.6041   41.3071 H   0  0  0  0  0  0  0  0  0  0  0  0
   42.2153   33.7165   42.2820 H   0  0  0  0  0  0  0  0  0  0  0  0
   40.5352   35.8781   41.1762 H   0  0  0  0  0  0  0  0  0  0  0  0
   41.7537   36.7833   40.8629 H   0  0  0  0  0  0  0  0  0  0  0  0
   42.5036   34.4555   39.1673 H   0  0  0  0  0  0  0  0  0  0  0  0
   47.3940   35.4432   42.8962 H   0  0  0  0  0  0  0  0  0  0  0  0
   45.4699   36.1343   44.4251 H   0  0  0  0  0  0  0  0  0  0  0  0
   48.0058   33.9058   41.1280 H   0  0  0  0  0  0  0  0  0  0  0  0
   46.8287   33.3802   39.8771 H   0  0  0  0  0  0  0  0  0  0  0  0
   47.4461   35.0670   39.8771 H   0  0  0  0  0  0  0  0  0  0  0  0
   37.7083   32.2503   41.7201 H   0  0  0  0  0  0  0  0  0  0  0  0
   37.0704   29.6567   41.1812 H   0  0  0  0  0  0  0  0  0  0  0  0
   38.7951   29.0010   39.1987 H   0  0  0  0  0  0  0  0  0  0  0  0
  1  9  1  0
  1  6  1  0
  2  1  1  0
  3  2  1  0
  3  4  1  0
  4  5  1  0
  5  6  1  0
  7 14  1  0
  8  7  1  0
  9  8  1  0
  9  7  1  0
 10 11  2  0
 11 12  1  0
 13 12  2  0
 14 13  1  0
 15 10  1  0
 15 14  2  0
 16 10  1  0
 17  6  1  0
 17 18  2  0
 19 18  1  0
 20 19  2  0
 21 20  1  0
 21 17  1  0
  1 22  1  6
  2 23  1  0
  2 24  1  0
  3 25  1  0
  3 26  1  0
  4 27  1  0
  4 28  1  0
  5 29  1  0
  5 30  1  0
  6 31  1  1
  7 32  1  1
  8 33  1  0
  8 34  1  0
  9 35  1  6
 11 36  1  0
 12 37  1  0
 16 38  1  0
 16 39  1  0
 16 40  1  0
 18 41  1  0
 19 42  1  0
 20 43  1  0
M  ISO  8  22  13  23  13  24  13  25  13  26  13  27  13  28  13  29  13
M  ISO  8  30  13  31  13  32  13  33  13  34  13  35  13  36  14  37  14
M  ISO  6  38   8  39   8  40   8  41  14  42  14  43  14
M  END
>  <minimizedAffinity>  (1) 
-5.82932711

>  <minimizedRMSD>  (1) 
1.23940504

$$$$
