
     RDKit          3D

 35 38  0  0  0  0  0  0  0  0999 V2000
   46.9740   34.8470   41.9790 C   0  0  0  0  0  0  0  0  0  0  0  0
   48.2150   35.4570   41.9700 C   0  0  0  0  0  0  0  0  0  0  0  0
   48.9320   35.3650   40.8280 C   0  0  0  0  0  0  0  0  0  0  0  0
   48.4520   34.7060   39.7510 N   0  0  0  0  0  0  0  0  0  0  0  0
   47.2410   34.1220   39.7850 C   0  0  0  0  0  0  0  0  0  0  0  0
   46.5030   34.2040   40.9280 N   0  0  0  0  0  0  0  0  0  0  0  0
   46.7870   33.4390   38.6110 N   0  0  0  0  0  0  0  0  0  0  0  0
   45.8570   32.4840   38.8410 C   0  0  0  0  0  0  0  0  0  0  0  0
   45.3290   31.7400   37.7750 C   0  0  0  0  0  0  0  0  0  0  0  0
   45.8250   32.0610   36.5380 C   0  0  0  0  0  0  0  0  0  0  0  0
   45.3210   31.3650   35.5950 O   0  0  0  0  0  0  0  0  0  0  0  0
   46.7460   33.0060   36.3050 N   0  0  0  0  0  0  0  0  0  0  0  0
   47.2290   33.7000   37.3610 C   0  0  0  0  0  0  0  0  0  0  0  0
   48.0880   34.5920   37.2090 O   0  0  0  0  0  0  0  0  0  0  0  0
   44.4520   35.9610   44.4980 C   0  0  0  0  0  0  0  0  0  0  0  0
   45.2060   35.9220   43.3000 C   0  0  0  0  0  0  0  0  0  0  0  0
   46.1800   34.9260   43.1840 C   0  0  0  0  0  0  0  0  0  0  0  0
   46.3440   34.0680   44.2110 N   0  0  0  0  0  0  0  0  0  0  0  0
   45.5990   34.1380   45.3470 C   0  0  0  0  0  0  0  0  0  0  0  0
   44.6490   35.0920   45.4870 N   0  0  0  0  0  0  0  0  0  0  0  0
   45.7960   33.1980   46.4430 C   0  0  0  0  0  0  0  0  0  0  0  0
   46.9130   32.3690   46.3470 C   0  0  0  0  0  0  0  0  0  0  0  0
   46.9320   31.5470   47.4770 C   0  0  0  0  0  0  0  0  0  0  0  0
   45.7990   31.9460   48.1940 C   0  0  0  0  0  0  0  0  0  0  0  0
   45.1780   32.9020   47.5540 O   0  0  0  0  0  0  0  0  0  0  0  0
   48.6004   35.9918   42.8506 H   0  0  0  0  0  0  0  0  0  0  0  0
   49.9249   35.8355   40.7746 H   0  0  0  0  0  0  0  0  0  0  0  0
   45.5133   32.2899   39.8678 H   0  0  0  0  0  0  0  0  0  0  0  0
   44.5717   30.9557   37.9213 H   0  0  0  0  0  0  0  0  0  0  0  0
   47.0769   33.1986   35.3488 H   0  0  0  0  0  0  0  0  0  0  0  0
   43.6785   36.7343   44.6152 H   0  0  0  0  0  0  0  0  0  0  0  0
   45.0320   36.6476   42.4917 H   0  0  0  0  0  0  0  0  0  0  0  0
   47.6477   32.3631   45.5284 H   0  0  0  0  0  0  0  0  0  0  0  0
   47.6647   30.7699   47.7404 H   0  0  0  0  0  0  0  0  0  0  0  0
   45.4778   31.5182   49.1551 H   0  0  0  0  0  0  0  0  0  0  0  0
  1 17  1  0
  2  1  2  0
  3  2  1  0
  4  5  1  0
  4  3  2  0
  5  6  2  0
  6  1  1  0
  7  8  1  0
  7  5  1  0
  9  8  2  0
 10  9  1  0
 11 10  2  0
 12 10  1  0
 12 13  1  0
 13  7  1  0
 14 13  2  0
 15 20  2  0
 16 15  1  0
 17 16  2  0
 17 18  1  0
 18 19  2  0
 19 20  1  0
 19 21  1  0
 21 25  1  0
 22 21  2  0
 22 23  1  0
 23 24  2  0
 25 24  1  0
  2 26  1  0
  3 27  1  0
  8 28  1  0
  9 29  1  0
 12 30  1  0
 15 31  1  0
 16 32  1  0
 22 33  1  0
 23 34  1  0
 24 35  1  0
M  END
>  <minimizedAffinity>  (1) 
-7.22006559

>  <minimizedRMSD>  (1) 
0.342667401

$$$$
