
     RDKit          3D

 34 36  0  0  1  0  0  0  0  0999 V2000
   44.6490   34.1140   42.1180 C   0  0  2  0  0  0  0  0  0  0  0  0
   43.9080   35.4340   42.2310 C   0  0  0  0  0  0  0  0  0  0  0  0
   43.0400   35.7950   41.1370 C   0  0  0  0  0  0  0  0  0  0  0  0
   42.8890   34.9280   39.9830 C   0  0  1  0  0  0  0  0  0  0  0  0
   43.7270   33.7090   39.9390 C   0  0  0  0  0  0  0  0  0  0  0  0
   43.8740   33.1310   41.3150 C   0  0  0  0  0  0  0  0  0  0  0  0
   45.4640   32.3660   43.6340 C   0  0  0  0  0  0  0  0  0  0  0  0
   45.0730   33.6770   43.4360 C   0  0  0  0  0  0  0  0  0  0  0  0
   45.1000   34.5170   44.5430 C   0  0  0  0  0  0  0  0  0  0  0  0
   45.4970   34.0450   45.7610 N   0  0  0  0  0  0  0  0  0  0  0  0
   45.8740   32.7480   45.9200 C   0  0  0  0  0  0  0  0  0  0  0  0
   45.8530   31.9170   44.8450 N   0  0  0  0  0  0  0  0  0  0  0  0
   46.3000   32.2290   47.2150 C   0  0  0  0  0  0  0  0  0  0  0  0
   47.4780   31.7990   47.7760 C   0  0  0  0  0  0  0  0  0  0  0  0
   47.1290   31.4380   49.0810 C   0  0  0  0  0  0  0  0  0  0  0  0
   45.7810   31.6650   49.2340 C   0  0  0  0  0  0  0  0  0  0  0  0
   45.3020   32.1450   48.0900 O   0  0  0  0  0  0  0  0  0  0  0  0
   41.4060   34.5470   39.8740 C   0  0  0  0  0  0  0  0  0  0  0  0
   40.7830   34.4710   41.1000 F   0  0  0  0  0  0  0  0  0  0  0  0
   40.7660   35.5670   39.1670 F   0  0  0  0  0  0  0  0  0  0  0  0
   41.2730   33.3860   39.1340 F   0  0  0  0  0  0  0  0  0  0  0  0
   45.5797   34.2339   41.5441 H   0  0  0  0  0  0  0  0  0  0  0  0
   44.0277   36.0865   43.1085 H   0  0  0  0  0  0  0  0  0  0  0  0
   42.4834   36.7429   41.1781 H   0  0  0  0  0  0  0  0  0  0  0  0
   43.2540   35.5134   39.1262 H   0  0  0  0  0  0  0  0  0  0  0  0
   43.2526   32.9656   39.2815 H   0  0  0  0  0  0  0  0  0  0  0  0
   44.7226   33.9719   39.5521 H   0  0  0  0  0  0  0  0  0  0  0  0
   42.8834   32.9719   41.7659 H   0  0  0  0  0  0  0  0  0  0  0  0
   44.3885   32.1594   41.2802 H   0  0  0  0  0  0  0  0  0  0  0  0
   45.4578   31.6707   42.7817 H   0  0  0  0  0  0  0  0  0  0  0  0
   44.7993   35.5698   44.4370 H   0  0  0  0  0  0  0  0  0  0  0  0
   48.4709   31.7498   47.3052 H   0  0  0  0  0  0  0  0  0  0  0  0
   47.8109   31.0429   49.8484 H   0  0  0  0  0  0  0  0  0  0  0  0
   45.1977   31.4806   50.1482 H   0  0  0  0  0  0  0  0  0  0  0  0
  1  2  1  0
  1  8  1  0
  3  2  2  0
  4  3  1  0
  5  4  1  0
  5  6  1  0
  6  1  1  0
  7 12  2  0
  8  7  1  0
  8  9  2  0
  9 10  1  0
 10 11  2  0
 11 13  1  0
 12 11  1  0
 13 14  2  0
 13 17  1  0
 14 15  1  0
 15 16  2  0
 17 16  1  0
 18  4  1  0
 18 19  1  0
 20 18  1  0
 21 18  1  0
  1 22  1  6
  2 23  1  0
  3 24  1  0
  4 25  1  6
  5 26  1  0
  5 27  1  0
  6 28  1  0
  6 29  1  0
  7 30  1  0
  9 31  1  0
 14 32  1  0
 15 33  1  0
 16 34  1  0
M  ISO  8  22  13  23  13  24  13  25  13  26  13  27  13  28  13  29  13
M  ISO  5  30  14  31  14  32  14  33  14  34  14
M  END
>  <minimizedAffinity>  (1) 
-5.49847937

>  <minimizedRMSD>  (1) 
3.84321547

$$$$
