
     RDKit          3D

 42 44  0  0  1  0  0  0  0  0999 V2000
   41.1120   34.1330   39.1370 C   0  0  2  0  0  0  0  0  0  0  0  0
   39.9460   34.9900   38.7120 C   0  0  0  0  0  0  0  0  0  0  0  0
   38.7740   34.1680   38.2440 C   0  0  0  0  0  0  0  0  0  0  0  0
   38.2750   33.3410   39.3780 C   0  0  0  0  0  0  0  0  0  0  0  0
   39.3590   33.1380   40.4320 C   0  0  0  0  0  0  0  0  0  0  0  0
   40.6270   32.9030   39.7560 C   0  0  1  0  0  0  0  0  0  0  0  0
   42.4840   34.4530   41.3430 C   0  0  1  0  0  0  0  0  0  0  0  0
   41.6020   35.7290   41.1100 C   0  0  0  0  0  0  0  0  0  0  0  0
   42.0280   34.8990   40.0580 C   0  0  2  0  0  0  0  0  0  0  0  0
   46.1590   34.6950   41.4180 C   0  0  0  0  0  0  0  0  0  0  0  0
   46.4110   35.2740   42.6720 C   0  0  0  0  0  0  0  0  0  0  0  0
   45.2940   35.5880   43.4830 C   0  0  0  0  0  0  0  0  0  0  0  0
   44.0500   35.3150   43.0070 N   0  0  0  0  0  0  0  0  0  0  0  0
   43.8670   34.7670   41.8120 C   0  0  0  0  0  0  0  0  0  0  0  0
   44.9050   34.4340   40.9680 N   0  0  0  0  0  0  0  0  0  0  0  0
   47.3320   34.3340   40.5590 C   0  0  0  0  0  0  0  0  0  0  0  0
   40.4600   31.8510   38.7210 C   0  0  0  0  0  0  0  0  0  0  0  0
   39.7890   30.8130   38.6190 O   0  0  0  0  0  0  0  0  0  0  0  0
   41.2740   32.1280   37.6010 O   0  0  0  0  0  0  0  0  0  0  0  0
   42.4730   31.3080   37.4040 C   0  0  0  0  0  0  0  0  0  0  0  0
   43.0590   30.7630   38.3700 O   0  0  0  0  0  0  0  0  0  0  0  0
   42.9300   31.1650   36.0800 O   0  0  0  0  0  0  0  0  0  0  0  0
   41.6994   33.8573   38.2487 H   0  0  0  0  0  0  0  0  0  0  0  0
   39.6282   35.6045   39.5672 H   0  0  0  0  0  0  0  0  0  0  0  0
   40.2768   35.6151   37.8695 H   0  0  0  0  0  0  0  0  0  0  0  0
   37.9725   34.8351   37.8940 H   0  0  0  0  0  0  0  0  0  0  0  0
   39.0870   33.5132   37.4174 H   0  0  0  0  0  0  0  0  0  0  0  0
   37.4153   33.8479   39.8406 H   0  0  0  0  0  0  0  0  0  0  0  0
   37.9804   32.3558   38.9873 H   0  0  0  0  0  0  0  0  0  0  0  0
   39.4360   34.0364   41.0620 H   0  0  0  0  0  0  0  0  0  0  0  0
   39.1074   32.2767   41.0683 H   0  0  0  0  0  0  0  0  0  0  0  0
   41.3647   32.5681   40.5000 H   0  0  0  0  0  0  0  0  0  0  0  0
   42.4510   33.4885   41.8708 H   0  0  0  0  0  0  0  0  0  0  0  0
   40.5461   35.7404   41.4182 H   0  0  0  0  0  0  0  0  0  0  0  0
   41.6747   36.7988   41.3553 H   0  0  0  0  0  0  0  0  0  0  0  0
   42.5655   35.1063   39.1209 H   0  0  0  0  0  0  0  0  0  0  0  0
   47.4376   35.4760   43.0115 H   0  0  0  0  0  0  0  0  0  0  0  0
   45.4294   36.0424   44.4755 H   0  0  0  0  0  0  0  0  0  0  0  0
   48.1875   34.0707   41.1984 H   0  0  0  0  0  0  0  0  0  0  0  0
   47.0707   33.4747   39.9239 H   0  0  0  0  0  0  0  0  0  0  0  0
   47.5991   35.1915   39.9239 H   0  0  0  0  0  0  0  0  0  0  0  0
   43.7356   30.6218   35.8904 H   0  0  0  0  0  0  0  0  0  0  0  0
  1  6  1  0
  1  9  1  0
  2  1  1  0
  3  2  1  0
  3  4  1  0
  4  5  1  0
  6  5  1  0
  7 14  1  0
  8  7  1  0
  9  8  1  0
  9  7  1  0
 10 11  2  0
 11 12  1  0
 13 12  2  0
 14 13  1  0
 15 10  1  0
 15 14  2  0
 16 10  1  0
 17  6  1  0
 18 17  2  0
 19 17  1  0
 20 19  1  0
 20 21  2  0
 22 20  1  0
  1 23  1  6
  2 24  1  0
  2 25  1  0
  3 26  1  0
  3 27  1  0
  4 28  1  0
  4 29  1  0
  5 30  1  0
  5 31  1  0
  6 32  1  1
  7 33  1  1
  8 34  1  0
  8 35  1  0
  9 36  1  6
 11 37  1  0
 12 38  1  0
 16 39  1  0
 16 40  1  0
 16 41  1  0
 22 42  1  0
M  ISO  8  23  13  24  13  25  13  26  13  27  13  28  13  29  13  30  13
M  ISO  8  31  13  32  13  33  13  34  13  35  13  36  13  37  14  38  14
M  ISO  4  39   8  40   8  41   8  42   3
M  END
>  <minimizedAffinity>  (1) 
-5.25584364

>  <minimizedRMSD>  (1) 
0.814051926

$$$$
