
     RDKit          3D

 36 40  0  0  0  0  0  0  0  0999 V2000
   44.3960   35.8000   45.1110 C   0  0  0  0  0  0  0  0  0  0  0  0
   44.7580   35.3360   43.8580 C   0  0  0  0  0  0  0  0  0  0  0  0
   45.3800   34.0550   43.7570 C   0  0  0  0  0  0  0  0  0  0  0  0
   45.5580   33.3960   44.9610 N   0  0  0  0  0  0  0  0  0  0  0  0
   45.1930   33.8890   46.1300 C   0  0  0  0  0  0  0  0  0  0  0  0
   44.6090   35.0900   46.2320 N   0  0  0  0  0  0  0  0  0  0  0  0
   45.7180   33.6600   42.4090 C   0  0  0  0  0  0  0  0  0  0  0  0
   45.0100   32.7150   41.7700 N   0  0  0  0  0  0  0  0  0  0  0  0
   45.2720   32.3060   40.5240 C   0  0  0  0  0  0  0  0  0  0  0  0
   46.2790   32.8080   39.7900 N   0  0  0  0  0  0  0  0  0  0  0  0
   47.0340   33.7550   40.3500 C   0  0  0  0  0  0  0  0  0  0  0  0
   48.0780   34.2970   39.6290 C   0  0  0  0  0  0  0  0  0  0  0  0
   48.8920   35.2860   40.1730 C   0  0  0  0  0  0  0  0  0  0  0  0
   48.5910   35.6900   41.4760 C   0  0  0  0  0  0  0  0  0  0  0  0
   47.5420   35.1220   42.1530 C   0  0  0  0  0  0  0  0  0  0  0  0
   46.7380   34.1550   41.6350 C   0  0  0  0  0  0  0  0  0  0  0  0
   45.4900   32.9150   47.5860 S   0  0  0  0  0  0  0  0  0  0  0  0
   48.7790   29.4350   48.4990 N   0  0  0  0  0  0  0  0  0  0  0  0
   48.7480   30.4470   49.3760 C   0  0  0  0  0  0  0  0  0  0  0  0
   47.8080   31.3360   49.0240 N   0  0  0  0  0  0  0  0  0  0  0  0
   47.2090   30.9010   47.8900 C   0  0  0  0  0  0  0  0  0  0  0  0
   46.1910   31.3500   47.0440 C   0  0  0  0  0  0  0  0  0  0  0  0
   45.8440   30.6400   45.9710 N   0  0  0  0  0  0  0  0  0  0  0  0
   46.5050   29.4730   45.7300 C   0  0  0  0  0  0  0  0  0  0  0  0
   47.4960   28.9830   46.5090 N   0  0  0  0  0  0  0  0  0  0  0  0
   47.8360   29.7160   47.5930 C   0  0  0  0  0  0  0  0  0  0  0  0
   43.9162   36.7865   45.1921 H   0  0  0  0  0  0  0  0  0  0  0  0
   44.5703   35.9416   42.9591 H   0  0  0  0  0  0  0  0  0  0  0  0
   44.6359   31.5253   40.0813 H   0  0  0  0  0  0  0  0  0  0  0  0
   48.2703   33.9411   38.6061 H   0  0  0  0  0  0  0  0  0  0  0  0
   49.7270   35.7257   39.6078 H   0  0  0  0  0  0  0  0  0  0  0  0
   49.1985   36.4678   41.9617 H   0  0  0  0  0  0  0  0  0  0  0  0
   47.3387   35.4695   43.1767 H   0  0  0  0  0  0  0  0  0  0  0  0
   49.3991   28.6128   48.5183 H   0  0  0  0  0  0  0  0  0  0  0  0
   49.3997   30.5359   50.2577 H   0  0  0  0  0  0  0  0  0  0  0  0
   46.2133   28.8911   44.8433 H   0  0  0  0  0  0  0  0  0  0  0  0
  1  6  2  0
  2  1  1  0
  3  2  2  0
  3  4  1  0
  4  5  2  0
  5  6  1  0
  5 17  1  0
  7  3  1  0
  8  7  2  0
  9  8  1  0
 10 11  1  0
 10  9  2  0
 11 16  2  0
 12 13  2  0
 12 11  1  0
 13 14  1  0
 14 15  2  0
 16 15  1  0
 16  7  1  0
 18 19  1  0
 20 19  2  0
 21 20  1  0
 22 17  1  0
 22 21  2  0
 23 22  1  0
 24 23  2  0
 24 25  1  0
 25 26  2  0
 26 21  1  0
 26 18  1  0
  1 27  1  0
  2 28  1  0
  9 29  1  0
 12 30  1  0
 13 31  1  0
 14 32  1  0
 15 33  1  0
 18 34  1  0
 19 35  1  0
 24 36  1  0
M  ISO  8  27  14  28  14  29  14  30  14  31  14  32  14  33  14  34   9
M  ISO  2  35  14  36  14
M  END
>  <minimizedAffinity>  (1) 
-6.32883453

>  <minimizedRMSD>  (1) 
1.49543834

$$$$
