
     RDKit          3D

 37 41  0  0  0  0  0  0  0  0999 V2000
   48.5660   35.1480   40.7130 C   0  0  0  0  0  0  0  0  0  0  0  0
   48.3110   33.9970   39.9430 C   0  0  0  0  0  0  0  0  0  0  0  0
   47.2430   33.1930   40.3290 C   0  0  0  0  0  0  0  0  0  0  0  0
   46.5000   33.5600   41.4300 N   0  0  0  0  0  0  0  0  0  0  0  0
   46.7910   34.6680   42.1230 C   0  0  0  0  0  0  0  0  0  0  0  0
   47.8100   35.4640   41.7810 N   0  0  0  0  0  0  0  0  0  0  0  0
   45.9740   34.9870   43.2650 N   0  0  0  0  0  0  0  0  0  0  0  0
   45.1150   36.0000   43.5530 C   0  0  0  0  0  0  0  0  0  0  0  0
   44.6160   35.8000   44.7900 N   0  0  0  0  0  0  0  0  0  0  0  0
   45.1660   34.6470   45.2830 C   0  0  0  0  0  0  0  0  0  0  0  0
   44.9670   34.0370   46.4940 C   0  0  0  0  0  0  0  0  0  0  0  0
   45.6340   32.9060   46.7320 N   0  0  0  0  0  0  0  0  0  0  0  0
   46.4780   32.3710   45.8240 C   0  0  0  0  0  0  0  0  0  0  0  0
   46.6430   33.0100   44.6410 N   0  0  0  0  0  0  0  0  0  0  0  0
   46.0090   34.1470   44.3310 C   0  0  0  0  0  0  0  0  0  0  0  0
   47.2960   31.1710   45.8700 C   0  0  0  0  0  0  0  0  0  0  0  0
   47.4880   30.3260   44.8380 N   0  0  0  0  0  0  0  0  0  0  0  0
   48.2200   29.2330   44.8410 C   0  0  0  0  0  0  0  0  0  0  0  0
   48.8840   28.8320   45.9370 N   0  0  0  0  0  0  0  0  0  0  0  0
   48.7670   29.5960   47.0300 C   0  0  0  0  0  0  0  0  0  0  0  0
   49.4400   29.1950   48.1520 C   0  0  0  0  0  0  0  0  0  0  0  0
   49.3680   29.9350   49.3150 C   0  0  0  0  0  0  0  0  0  0  0  0
   48.5880   31.0970   49.3080 C   0  0  0  0  0  0  0  0  0  0  0  0
   47.9420   31.4310   48.1410 C   0  0  0  0  0  0  0  0  0  0  0  0
   47.9880   30.7320   46.9740 C   0  0  0  0  0  0  0  0  0  0  0  0
   44.1070   34.5330   47.4850 N   0  0  0  0  0  0  0  0  0  0  0  0
   49.4034   35.8049   40.4350 H   0  0  0  0  0  0  0  0  0  0  0  0
   48.9315   33.7435   39.0708 H   0  0  0  0  0  0  0  0  0  0  0  0
   46.9963   32.2810   39.7656 H   0  0  0  0  0  0  0  0  0  0  0  0
   44.8682   36.8415   42.8889 H   0  0  0  0  0  0  0  0  0  0  0  0
   48.2899   28.6322   43.9222 H   0  0  0  0  0  0  0  0  0  0  0  0
   50.0432   28.2755   48.1269 H   0  0  0  0  0  0  0  0  0  0  0  0
   49.9077   29.6207   50.2205 H   0  0  0  0  0  0  0  0  0  0  0  0
   48.4947   31.7232   50.2075 H   0  0  0  0  0  0  0  0  0  0  0  0
   47.3324   32.3466   48.1515 H   0  0  0  0  0  0  0  0  0  0  0  0
   44.0012   34.0265   48.3756 H   0  0  0  0  0  0  0  0  0  0  0  0
   43.5814   35.4037   47.3220 H   0  0  0  0  0  0  0  0  0  0  0  0
  1  6  2  0
  2  3  2  0
  2  1  1  0
  3  4  1  0
  4  5  2  0
  5  7  1  0
  6  5  1  0
  7  8  1  0
  7 15  1  0
  8  9  2  0
  9 10  1  0
 10 11  2  0
 11 12  1  0
 11 26  1  0
 13 16  1  0
 13 12  2  0
 14 13  1  0
 15 14  2  0
 15 10  1  0
 16 25  2  0
 17 18  2  0
 17 16  1  0
 18 19  1  0
 19 20  2  0
 20 21  1  0
 21 22  2  0
 23 22  1  0
 24 23  2  0
 25 20  1  0
 25 24  1  0
  1 27  1  0
  2 28  1  0
  3 29  1  0
  8 30  1  0
 18 31  1  0
 21 32  1  0
 22 33  1  0
 23 34  1  0
 24 35  1  0
 26 36  1  0
 26 37  1  0
M  END
>  <minimizedAffinity>  (1) 
-7.20564747

>  <minimizedRMSD>  (1) 
0.914618731

$$$$
