
     RDKit          3D

 32 33  0  0  1  0  0  0  0  0999 V2000
   46.6510   32.6370   45.1220 C   0  0  2  0  0  0  0  0  0  0  0  0
   44.5530   35.7100   44.8810 C   0  0  0  0  0  0  0  0  0  0  0  0
   44.9390   36.1880   43.5940 C   0  0  0  0  0  0  0  0  0  0  0  0
   45.8900   35.4490   42.8490 C   0  0  0  0  0  0  0  0  0  0  0  0
   46.3860   34.3190   43.4050 N   0  0  0  0  0  0  0  0  0  0  0  0
   45.9810   33.9000   44.6490 C   0  0  0  0  0  0  0  0  0  0  0  0
   45.0730   34.5970   45.3720 N   0  0  0  0  0  0  0  0  0  0  0  0
   45.8680   31.4330   44.6440 C   0  0  0  0  0  0  0  0  0  0  0  0
   46.8770   32.6690   46.5890 C   0  0  0  0  0  0  0  0  0  0  0  0
   46.0740   31.8040   47.4560 C   0  0  0  0  0  0  0  0  0  0  0  0
   46.5610   30.4400   47.7780 C   0  0  0  0  0  0  0  0  0  0  0  0
   45.3500   29.9450   48.6100 C   0  0  0  0  0  0  0  0  0  0  0  0
   44.9100   31.2000   49.3750 C   0  0  0  0  0  0  0  0  0  0  0  0
   45.7950   32.3380   48.8520 C   0  0  0  0  0  0  0  0  0  0  0  0
   47.6543   32.5567   44.6783 H   0  0  0  0  0  0  0  0  0  0  0  0
   43.8151   36.2727   45.4717 H   0  0  0  0  0  0  0  0  0  0  0  0
   44.5059   37.1138   43.1874 H   0  0  0  0  0  0  0  0  0  0  0  0
   46.2146   35.7821   41.8522 H   0  0  0  0  0  0  0  0  0  0  0  0
   45.4998   30.8668   45.5122 H   0  0  0  0  0  0  0  0  0  0  0  0
   45.0147   31.7683   44.0362 H   0  0  0  0  0  0  0  0  0  0  0  0
   46.5205   30.7890   44.0362 H   0  0  0  0  0  0  0  0  0  0  0  0
   47.9310   32.4030   46.7574 H   0  0  0  0  0  0  0  0  0  0  0  0
   46.5705   33.6851   46.8781 H   0  0  0  0  0  0  0  0  0  0  0  0
   45.2085   31.7759   46.7777 H   0  0  0  0  0  0  0  0  0  0  0  0
   46.7171   29.8329   46.8741 H   0  0  0  0  0  0  0  0  0  0  0  0
   47.5364   30.3914   48.2843 H   0  0  0  0  0  0  0  0  0  0  0  0
   44.5449   29.5802   47.9552 H   0  0  0  0  0  0  0  0  0  0  0  0
   45.5985   29.1025   49.2722 H   0  0  0  0  0  0  0  0  0  0  0  0
   43.8499   31.4172   49.1777 H   0  0  0  0  0  0  0  0  0  0  0  0
   45.0165   31.0704   50.4621 H   0  0  0  0  0  0  0  0  0  0  0  0
   46.7164   32.4481   49.4427 H   0  0  0  0  0  0  0  0  0  0  0  0
   45.3463   33.3415   48.8925 H   0  0  0  0  0  0  0  0  0  0  0  0
  1  9  1  0
  2  7  2  0
  3  2  1  0
  4  5  1  0
  4  3  2  0
  5  6  2  0
  6  1  1  0
  6  7  1  0
  8  1  1  0
  9 10  1  0
 10 11  1  0
 10 14  1  0
 11 12  1  0
 12 13  1  0
 14 13  1  0
  1 15  1  6
  2 16  1  0
  3 17  1  0
  4 18  1  0
  8 19  1  0
  8 20  1  0
  8 21  1  0
  9 22  1  0
  9 23  1  0
 10 24  1  0
 11 25  1  0
 11 26  1  0
 12 27  1  0
 12 28  1  0
 13 29  1  0
 13 30  1  0
 14 31  1  0
 14 32  1  0
M  ISO  8  15   8  16  14  17  14  18  14  19   8  20   8  21   8  22   8
M  ISO  8  23   8  24  13  25  13  26  13  27  13  28  13  29  13  30  13
M  ISO  2  31  13  32  13
M  END
>  <minimizedAffinity>  (1) 
-4.65265465

>  <minimizedRMSD>  (1) 
1.27835429

$$$$
