
     RDKit          3D

 44 48  0  0  0  0  0  0  0  0999 V2000
   46.5800   32.8640   38.8070 C   0  0  0  0  0  0  0  0  0  0  0  0
   45.5500   33.1710   37.9300 C   0  0  0  0  0  0  0  0  0  0  0  0
   45.2160   32.2580   36.9440 C   0  0  0  0  0  0  0  0  0  0  0  0
   45.8850   31.0510   36.8130 C   0  0  0  0  0  0  0  0  0  0  0  0
   46.9040   30.7810   37.7030 C   0  0  0  0  0  0  0  0  0  0  0  0
   47.3020   31.6570   38.7320 C   0  0  0  0  0  0  0  0  0  0  0  0
   48.3690   31.3180   39.6700 C   0  0  0  0  0  0  0  0  0  0  0  0
   48.0500   30.9800   40.9090 N   0  0  0  0  0  0  0  0  0  0  0  0
   48.9950   30.6860   41.8130 C   0  0  0  0  0  0  0  0  0  0  0  0
   50.3260   30.7180   41.5110 N   0  0  0  0  0  0  0  0  0  0  0  0
   50.7170   31.0580   40.2570 C   0  0  0  0  0  0  0  0  0  0  0  0
   52.0510   31.0900   39.9800 C   0  0  0  0  0  0  0  0  0  0  0  0
   52.4260   31.4460   38.7030 C   0  0  0  0  0  0  0  0  0  0  0  0
   51.4380   31.7480   37.7820 C   0  0  0  0  0  0  0  0  0  0  0  0
   50.0820   31.7150   38.0590 C   0  0  0  0  0  0  0  0  0  0  0  0
   49.7120   31.3550   39.3460 C   0  0  0  0  0  0  0  0  0  0  0  0
   46.6290   34.4410   42.0250 N   0  0  0  0  0  0  0  0  0  0  0  0
   47.6910   35.3000   41.9160 C   0  0  0  0  0  0  0  0  0  0  0  0
   48.4230   35.3800   40.7590 C   0  0  0  0  0  0  0  0  0  0  0  0
   48.0480   34.5520   39.6830 C   0  0  0  0  0  0  0  0  0  0  0  0
   48.7010   34.6030   38.6080 O   0  0  0  0  0  0  0  0  0  0  0  0
   47.0050   33.7440   39.8610 N   0  0  0  0  0  0  0  0  0  0  0  0
   46.2960   33.6740   40.9990 C   0  0  0  0  0  0  0  0  0  0  0  0
   45.3280   32.9540   41.2120 O   0  0  0  0  0  0  0  0  0  0  0  0
   44.5740   35.6760   44.8340 C   0  0  0  0  0  0  0  0  0  0  0  0
   45.1500   35.5890   43.5430 C   0  0  0  0  0  0  0  0  0  0  0  0
   46.0370   34.5390   43.3230 C   0  0  0  0  0  0  0  0  0  0  0  0
   46.3070   33.6690   44.3270 N   0  0  0  0  0  0  0  0  0  0  0  0
   45.7310   33.7920   45.5540 C   0  0  0  0  0  0  0  0  0  0  0  0
   44.8770   34.7740   45.8130 N   0  0  0  0  0  0  0  0  0  0  0  0
   45.0075   34.1240   38.0164 H   0  0  0  0  0  0  0  0  0  0  0  0
   44.3991   32.4965   36.2470 H   0  0  0  0  0  0  0  0  0  0  0  0
   45.6125   30.3326   36.0258 H   0  0  0  0  0  0  0  0  0  0  0  0
   47.4377   29.8243   37.6032 H   0  0  0  0  0  0  0  0  0  0  0  0
   48.6878   30.4097   42.8324 H   0  0  0  0  0  0  0  0  0  0  0  0
   52.7996   30.8411   40.7466 H   0  0  0  0  0  0  0  0  0  0  0  0
   53.4884   31.4893   38.4213 H   0  0  0  0  0  0  0  0  0  0  0  0
   51.7498   32.0321   36.7661 H   0  0  0  0  0  0  0  0  0  0  0  0
   49.3323   31.9630   37.2932 H   0  0  0  0  0  0  0  0  0  0  0  0
   47.9612   35.9366   42.7715 H   0  0  0  0  0  0  0  0  0  0  0  0
   49.2762   36.0691   40.6740 H   0  0  0  0  0  0  0  0  0  0  0  0
   43.8662   36.4891   45.0529 H   0  0  0  0  0  0  0  0  0  0  0  0
   44.9083   36.3154   42.7531 H   0  0  0  0  0  0  0  0  0  0  0  0
   45.9772   33.0662   46.3431 H   0  0  0  0  0  0  0  0  0  0  0  0
  1 22  1  0
  2  1  2  0
  3  2  1  0
  4  3  2  0
  4  5  1  0
  5  6  2  0
  6  1  1  0
  6  7  1  0
  7  8  2  0
  8  9  1  0
 10  9  2  0
 11 10  1  0
 12 11  2  0
 13 12  1  0
 14 15  1  0
 14 13  2  0
 15 16  2  0
 16  7  1  0
 16 11  1  0
 17 27  1  0
 18 17  1  0
 19 18  2  0
 20 22  1  0
 20 19  1  0
 21 20  2  0
 22 23  1  0
 23 24  2  0
 23 17  1  0
 25 30  2  0
 26 25  1  0
 27 26  2  0
 27 28  1  0
 28 29  2  0
 29 30  1  0
  2 31  1  0
  3 32  1  0
  4 33  1  0
  5 34  1  0
  9 35  1  0
 12 36  1  0
 13 37  1  0
 14 38  1  0
 15 39  1  0
 18 40  1  0
 19 41  1  0
 25 42  1  0
 26 43  1  0
 29 44  1  0
M  ISO  8  31  14  32  14  33  14  34  14  35  14  36  14  37  14  38  14
M  ISO  6  39  14  40  14  41  14  42  14  43  14  44  14
M  END
>  <minimizedAffinity>  (1) 
-6.11050987

>  <minimizedRMSD>  (1) 
1.23529458

$$$$
