
     RDKit          3D

 31 34  0  0  0  0  0  0  0  0999 V2000
   44.8090   33.8840   41.6020 N   0  0  0  0  0  0  0  0  0  0  0  0
   45.7190   33.1990   40.9070 C   0  0  0  0  0  0  0  0  0  0  0  0
   45.2150   33.0760   39.5890 C   0  0  0  0  0  0  0  0  0  0  0  0
   44.0300   33.6880   39.5300 N   0  0  0  0  0  0  0  0  0  0  0  0
   43.7670   34.1930   40.7670 C   0  0  0  0  0  0  0  0  0  0  0  0
   46.9990   32.6430   41.3090 C   0  0  0  0  0  0  0  0  0  0  0  0
   47.0970   31.2780   41.3220 N   0  0  0  0  0  0  0  0  0  0  0  0
   48.2860   30.7740   41.6930 C   0  0  0  0  0  0  0  0  0  0  0  0
   49.3890   31.4920   42.0510 N   0  0  0  0  0  0  0  0  0  0  0  0
   49.3150   32.8550   42.0460 C   0  0  0  0  0  0  0  0  0  0  0  0
   50.3810   33.6630   42.3870 C   0  0  0  0  0  0  0  0  0  0  0  0
   50.2690   35.0490   42.3590 C   0  0  0  0  0  0  0  0  0  0  0  0
   49.0490   35.6200   41.9790 C   0  0  0  0  0  0  0  0  0  0  0  0
   48.0200   34.7640   41.6490 C   0  0  0  0  0  0  0  0  0  0  0  0
   48.1020   33.3880   41.6680 C   0  0  0  0  0  0  0  0  0  0  0  0
   44.3980   35.5950   43.2310 C   0  0  0  0  0  0  0  0  0  0  0  0
   44.8270   34.2520   42.9640 C   0  0  0  0  0  0  0  0  0  0  0  0
   45.2250   33.4070   44.0160 C   0  0  0  0  0  0  0  0  0  0  0  0
   45.1780   33.9370   45.2830 N   0  0  0  0  0  0  0  0  0  0  0  0
   44.7640   35.2180   45.5120 C   0  0  0  0  0  0  0  0  0  0  0  0
   44.3780   36.0410   44.4930 N   0  0  0  0  0  0  0  0  0  0  0  0
   45.7156   32.5628   38.7547 H   0  0  0  0  0  0  0  0  0  0  0  0
   42.8657   34.7567   41.0498 H   0  0  0  0  0  0  0  0  0  0  0  0
   48.3787   29.6780   41.7096 H   0  0  0  0  0  0  0  0  0  0  0  0
   51.3346   33.2032   42.6857 H   0  0  0  0  0  0  0  0  0  0  0  0
   51.1242   35.6852   42.6307 H   0  0  0  0  0  0  0  0  0  0  0  0
   48.9161   36.7114   41.9449 H   0  0  0  0  0  0  0  0  0  0  0  0
   47.0618   35.2125   41.3480 H   0  0  0  0  0  0  0  0  0  0  0  0
   44.0881   36.2526   42.4055 H   0  0  0  0  0  0  0  0  0  0  0  0
   45.5570   32.3743   43.8336 H   0  0  0  0  0  0  0  0  0  0  0  0
   44.7408   35.5969   46.5444 H   0  0  0  0  0  0  0  0  0  0  0  0
  1 17  1  0
  2  6  1  0
  2  1  1  0
  3  2  2  0
  4  3  1  0
  4  5  2  0
  5  1  1  0
  6  7  2  0
  6 15  1  0
  7  8  1  0
  8  9  2  0
 10  9  1  0
 10 11  2  0
 12 11  1  0
 13 12  2  0
 14 15  2  0
 14 13  1  0
 15 10  1  0
 16 21  2  0
 17 16  1  0
 17 18  2  0
 18 19  1  0
 19 20  2  0
 21 20  1  0
  3 22  1  0
  5 23  1  0
  8 24  1  0
 11 25  1  0
 12 26  1  0
 13 27  1  0
 14 28  1  0
 16 29  1  0
 18 30  1  0
 20 31  1  0
M  ISO  8  22  14  23  14  24  14  25  14  26  14  27  14  28  14  29  14
M  ISO  2  30  14  31  14
M  END
>  <minimizedAffinity>  (1) 
-5.21975136

>  <minimizedRMSD>  (1) 
3.15492392

$$$$
