
     RDKit          3D

 31 33  0  0  0  0  0  0  0  0999 V2000
   46.9650   34.7840   42.0710 C   0  0  0  0  0  0  0  0  0  0  0  0
   48.3090   35.0500   41.9520 C   0  0  0  0  0  0  0  0  0  0  0  0
   48.5850   34.7320   40.6160 C   0  0  0  0  0  0  0  0  0  0  0  0
   47.4210   34.3000   40.0150 C   0  0  0  0  0  0  0  0  0  0  0  0
   46.4910   34.3580   40.9500 O   0  0  0  0  0  0  0  0  0  0  0  0
   44.4490   36.0690   44.4890 C   0  0  0  0  0  0  0  0  0  0  0  0
   45.2250   35.9640   43.3070 C   0  0  0  0  0  0  0  0  0  0  0  0
   46.1380   34.9390   43.2670 C   0  0  0  0  0  0  0  0  0  0  0  0
   46.2830   34.0690   44.3210 N   0  0  0  0  0  0  0  0  0  0  0  0
   45.5030   34.2240   45.4350 C   0  0  0  0  0  0  0  0  0  0  0  0
   44.5940   35.2140   45.5200 N   0  0  0  0  0  0  0  0  0  0  0  0
   45.6860   33.2810   46.5310 C   0  0  0  0  0  0  0  0  0  0  0  0
   46.6480   32.2950   46.5940 C   0  0  0  0  0  0  0  0  0  0  0  0
   46.4480   31.6640   47.7790 N   0  0  0  0  0  0  0  0  0  0  0  0
   45.4050   32.2360   48.4280 C   0  0  0  0  0  0  0  0  0  0  0  0
   44.9450   33.2320   47.6470 N   0  0  0  0  0  0  0  0  0  0  0  0
   47.2620   33.8830   38.6740 N   0  0  0  0  0  0  0  0  0  0  0  0
   48.2980   34.0000   37.7230 C   0  0  0  0  0  0  0  0  0  0  0  0
   49.0480   35.0810   37.7930 N   0  0  0  0  0  0  0  0  0  0  0  0
   48.4550   32.9330   36.7550 N   0  0  0  0  0  0  0  0  0  0  0  0
   49.8390   35.0980   37.1140 H   0  0  0  0  0  0  0  0  0  0  0  0
   49.0012   35.4230   42.7213 H   0  0  0  0  0  0  0  0  0  0  0  0
   49.5671   34.8133   40.1272 H   0  0  0  0  0  0  0  0  0  0  0  0
   43.7043   36.8748   44.5667 H   0  0  0  0  0  0  0  0  0  0  0  0
   45.1024   36.6650   42.4682 H   0  0  0  0  0  0  0  0  0  0  0  0
   47.4170   32.0674   45.8411 H   0  0  0  0  0  0  0  0  0  0  0  0
   45.0077   31.9414   49.4105 H   0  0  0  0  0  0  0  0  0  0  0  0
   44.1545   33.8534   47.8703 H   0  0  0  0  0  0  0  0  0  0  0  0
   46.3603   33.4804   38.3812 H   0  0  0  0  0  0  0  0  0  0  0  0
   47.8202   32.1221   36.7748 H   0  0  0  0  0  0  0  0  0  0  0  0
   49.2014   32.9855   36.0472 H   0  0  0  0  0  0  0  0  0  0  0  0
  1  8  1  0
  2  1  2  0
  3  2  1  0
  4  3  2  0
  4  5  1  0
  5  1  1  0
  6 11  2  0
  7  6  1  0
  8  7  2  0
  8  9  1  0
  9 10  2  0
 10 11  1  0
 10 12  1  0
 12 13  2  0
 12 16  1  0
 13 14  1  0
 14 15  2  0
 16 15  1  0
 17  4  1  0
 18 19  2  0
 18 17  1  0
 20 18  1  0
 21 19  1  0
  2 22  1  0
  3 23  1  0
  6 24  1  0
  7 25  1  0
 13 26  1  0
 15 27  1  0
 16 28  1  0
 17 29  1  0
 20 30  1  0
 20 31  1  0
M  END
>  <minimizedAffinity>  (1) 
-7.08690405

>  <minimizedRMSD>  (1) 
0.282750458

$$$$
