
     RDKit          3D

 24 25  0  0  0  0  0  0  0  0999 V2000
   44.6570   35.4600   45.0540 C   0  0  0  0  0  0  0  0  0  0  0  0
   45.5150   34.9500   44.0650 C   0  0  0  0  0  0  0  0  0  0  0  0
   46.1950   33.8400   44.3560 C   0  0  0  0  0  0  0  0  0  0  0  0
   46.0530   33.2350   45.5890 N   0  0  0  0  0  0  0  0  0  0  0  0
   45.2080   33.7580   46.5320 C   0  0  0  0  0  0  0  0  0  0  0  0
   44.5330   34.8510   46.2470 N   0  0  0  0  0  0  0  0  0  0  0  0
   47.1040   32.9550   43.7890 C   0  0  0  0  0  0  0  0  0  0  0  0
   47.0120   31.6980   44.4900 C   0  0  0  0  0  0  0  0  0  0  0  0
   47.9160   30.7760   44.1030 N   0  0  0  0  0  0  0  0  0  0  0  0
   48.6780   31.2910   43.1420 C   0  0  0  0  0  0  0  0  0  0  0  0
   48.1140   32.4960   43.0760 N   0  0  0  0  0  0  0  0  0  0  0  0
   45.6960   35.6450   42.7830 C   0  0  0  0  0  0  0  0  0  0  0  0
   45.2570   36.9910   42.9780 F   0  0  0  0  0  0  0  0  0  0  0  0
   44.8440   35.1850   41.8330 F   0  0  0  0  0  0  0  0  0  0  0  0
   47.0000   35.7150   42.3810 F   0  0  0  0  0  0  0  0  0  0  0  0
   45.0240   33.1930   47.7850 O   0  0  0  0  0  0  0  0  0  0  0  0
   45.8390   32.1820   48.3090 C   0  0  0  0  0  0  0  0  0  0  0  0
   47.1560   32.5760   48.3460 F   0  0  0  0  0  0  0  0  0  0  0  0
   45.6590   30.9710   47.6850 F   0  0  0  0  0  0  0  0  0  0  0  0
   45.4800   32.0270   49.6520 F   0  0  0  0  0  0  0  0  0  0  0  0
   44.0773   36.3721   44.8493 H   0  0  0  0  0  0  0  0  0  0  0  0
   46.2659   31.5074   45.2755 H   0  0  0  0  0  0  0  0  0  0  0  0
   49.5153   30.8561   42.5765 H   0  0  0  0  0  0  0  0  0  0  0  0
   48.5146   33.1470   42.3856 H   0  0  0  0  0  0  0  0  0  0  0  0
  1  6  2  0
  2  3  2  0
  2  1  1  0
  3  4  1  0
  4  5  2  0
  5 16  1  0
  6  5  1  0
  7  3  1  0
  7  8  2  0
  9  8  1  0
 10  9  2  0
 11 10  1  0
 11  7  1  0
 12 13  1  0
 12  2  1  0
 14 12  1  0
 15 12  1  0
 16 17  1  0
 17 18  1  0
 17 20  1  0
 19 17  1  0
  1 21  1  0
  8 22  1  0
 10 23  1  0
 11 24  1  0
M  ISO  4  21  14  22  14  23  14  24   9
M  END
>  <minimizedAffinity>  (1) 
-5.342484

>  <minimizedRMSD>  (1) 
0.479504883

$$$$
