
     RDKit          3D

 44 48  0  0  1  0  0  0  0  0999 V2000
   44.4520   35.8620   44.6910 C   0  0  0  0  0  0  0  0  0  0  0  0
   45.0470   35.6730   43.4360 C   0  0  0  0  0  0  0  0  0  0  0  0
   45.9470   34.6170   43.2840 C   0  0  0  0  0  0  0  0  0  0  0  0
   46.1980   33.8370   44.3460 N   0  0  0  0  0  0  0  0  0  0  0  0
   45.6090   34.0450   45.5440 C   0  0  0  0  0  0  0  0  0  0  0  0
   44.7400   35.0440   45.7360 N   0  0  0  0  0  0  0  0  0  0  0  0
   45.9560   33.1330   46.6350 C   0  0  0  0  0  0  0  0  0  0  0  0
   45.0930   32.9280   47.6810 C   0  0  0  0  0  0  0  0  0  0  0  0
   45.6430   32.0370   48.5660 C   0  0  0  0  0  0  0  0  0  0  0  0
   46.8360   31.7130   48.0380 N   0  0  0  0  0  0  0  0  0  0  0  0
   47.0400   32.3560   46.8880 N   0  0  0  0  0  0  0  0  0  0  0  0
   49.1740   29.1000   48.8310 N   0  0  0  0  0  0  0  0  0  0  0  0
   48.0750   29.5120   48.2180 N   0  0  0  0  0  0  0  0  0  0  0  0
   47.8820   30.8370   48.4780 C   0  0  0  0  0  0  0  0  0  0  0  0
   48.9120   31.2710   49.2950 C   0  0  0  0  0  0  0  0  0  0  0  0
   49.6910   30.1520   49.4860 C   0  0  0  0  0  0  0  0  0  0  0  0
   46.6120   34.3580   41.9880 C   0  0  0  0  0  0  0  0  0  0  0  0
   47.7440   35.3390   41.8640 C   0  0  0  0  0  0  0  0  0  0  0  0
   49.0670   34.7610   41.5020 C   0  0  1  0  0  0  0  0  0  0  0  0
   50.1140   34.7140   42.5920 C   0  0  0  0  0  0  0  0  0  0  0  0
   49.5220   33.4470   42.0220 C   0  0  2  0  0  0  0  0  0  0  0  0
   50.4270   32.5860   41.2620 C   0  0  0  0  0  0  0  0  0  0  0  0
   50.0450   31.6850   40.2870 C   0  0  0  0  0  0  0  0  0  0  0  0
   51.1600   31.0750   39.8130 N   0  0  0  0  0  0  0  0  0  0  0  0
   52.2110   31.6050   40.5000 C   0  0  0  0  0  0  0  0  0  0  0  0
   51.7640   32.5200   41.3780 N   0  0  0  0  0  0  0  0  0  0  0  0
   43.7390   36.6877   44.8319 H   0  0  0  0  0  0  0  0  0  0  0  0
   44.8109   36.3393   42.5932 H   0  0  0  0  0  0  0  0  0  0  0  0
   44.1086   33.4060   47.7929 H   0  0  0  0  0  0  0  0  0  0  0  0
   45.2035   31.6675   49.5043 H   0  0  0  0  0  0  0  0  0  0  0  0
   49.5618   28.1460   48.8093 H   0  0  0  0  0  0  0  0  0  0  0  0
   49.0718   32.2812   49.6999 H   0  0  0  0  0  0  0  0  0  0  0  0
   50.6092   30.1237   50.0910 H   0  0  0  0  0  0  0  0  0  0  0  0
   47.0007   33.3293   41.9630 H   0  0  0  0  0  0  0  0  0  0  0  0
   45.9024   34.4741   41.1555 H   0  0  0  0  0  0  0  0  0  0  0  0
   47.4725   36.0711   41.0892 H   0  0  0  0  0  0  0  0  0  0  0  0
   47.8728   35.7739   42.8661 H   0  0  0  0  0  0  0  0  0  0  0  0
   48.9818   35.1697   40.4843 H   0  0  0  0  0  0  0  0  0  0  0  0
   51.1564   34.9862   42.3699 H   0  0  0  0  0  0  0  0  0  0  0  0
   50.2198   35.1474   43.5975 H   0  0  0  0  0  0  0  0  0  0  0  0
   48.9778   32.5701   42.4025 H   0  0  0  0  0  0  0  0  0  0  0  0
   49.0144   31.4950   39.9527 H   0  0  0  0  0  0  0  0  0  0  0  0
   53.2656   31.3263   40.3577 H   0  0  0  0  0  0  0  0  0  0  0  0
   52.3441   33.0727   42.0252 H   0  0  0  0  0  0  0  0  0  0  0  0
  1  6  2  0
  2  1  1  0
  3  2  2  0
  3  4  1  0
  4  5  2  0
  5  6  1  0
  5  7  1  0
  7 11  2  0
  7  8  1  0
  8  9  2  0
 10 14  1  0
 10  9  1  0
 11 10  1  0
 12 16  1  0
 13 14  2  0
 13 12  1  0
 14 15  1  0
 15 16  2  0
 17  3  1  0
 18 17  1  0
 19 18  1  0
 19 21  1  0
 19 20  1  0
 21 20  1  0
 22 26  1  0
 22 21  1  0
 23 22  2  0
 24 23  1  0
 24 25  2  0
 25 26  1  0
  1 27  1  0
  2 28  1  0
  8 29  1  0
  9 30  1  0
 12 31  1  0
 15 32  1  0
 16 33  1  0
 17 34  1  0
 17 35  1  0
 18 36  1  0
 18 37  1  0
 19 38  1  6
 20 39  1  0
 20 40  1  0
 21 41  1  1
 23 42  1  0
 25 43  1  0
 26 44  1  0
M  END
>  <minimizedAffinity>  (1) 
-7.25380182

>  <minimizedRMSD>  (1) 
0.467535198

$$$$
