
     RDKit          3D

 38 41  0  0  0  0  0  0  0  0999 V2000
   44.9950   33.9720   40.5360 N   0  0  0  0  0  0  0  0  0  0  0  0
   45.8440   34.4560   41.4920 C   0  0  0  0  0  0  0  0  0  0  0  0
   47.2150   34.3740   41.2330 C   0  0  0  0  0  0  0  0  0  0  0  0
   47.6030   33.8170   40.0510 C   0  0  0  0  0  0  0  0  0  0  0  0
   48.9810   33.6820   39.6810 N   0  0  0  0  0  0  0  0  0  0  0  0
   46.7470   33.3420   39.1200 N   0  0  0  0  0  0  0  0  0  0  0  0
   45.4000   33.4150   39.3590 C   0  0  0  0  0  0  0  0  0  0  0  0
   44.5710   32.9810   38.5230 O   0  0  0  0  0  0  0  0  0  0  0  0
   41.4210   35.0850   40.7170 C   0  0  0  0  0  0  0  0  0  0  0  0
   42.7960   35.1360   40.4840 C   0  0  0  0  0  0  0  0  0  0  0  0
   43.5870   34.0270   40.7240 C   0  0  0  0  0  0  0  0  0  0  0  0
   42.9600   32.9240   41.1840 N   0  0  0  0  0  0  0  0  0  0  0  0
   41.6430   32.8630   41.4100 C   0  0  0  0  0  0  0  0  0  0  0  0
   40.8730   33.9470   41.1760 N   0  0  0  0  0  0  0  0  0  0  0  0
   40.9820   31.6980   41.8850 N   0  0  0  0  0  0  0  0  0  0  0  0
   39.7510   31.2600   42.0130 N   0  0  0  0  0  0  0  0  0  0  0  0
   39.7100   30.0520   42.5470 C   0  0  0  0  0  0  0  0  0  0  0  0
   41.0420   29.6680   42.7910 C   0  0  0  0  0  0  0  0  0  0  0  0
   41.8140   30.7430   42.3540 C   0  0  0  0  0  0  0  0  0  0  0  0
   45.2900   34.8440   42.7560 C   0  0  0  0  0  0  0  0  0  0  0  0
   45.2020   36.2400   42.9930 C   0  0  0  0  0  0  0  0  0  0  0  0
   44.8010   36.5040   44.2650 N   0  0  0  0  0  0  0  0  0  0  0  0
   44.6140   35.3140   44.8990 C   0  0  0  0  0  0  0  0  0  0  0  0
   44.9180   34.4440   43.9530 N   0  0  0  0  0  0  0  0  0  0  0  0
   48.2150   34.8950   42.1810 C   0  0  0  0  0  0  0  0  0  0  0  0
   48.4170   36.2440   42.0220 F   0  0  0  0  0  0  0  0  0  0  0  0
   49.4300   34.2190   41.9340 F   0  0  0  0  0  0  0  0  0  0  0  0
   47.8500   34.4960   43.4400 F   0  0  0  0  0  0  0  0  0  0  0  0
   49.2323   33.2551   38.7780 H   0  0  0  0  0  0  0  0  0  0  0  0
   49.7200   34.0119   40.3181 H   0  0  0  0  0  0  0  0  0  0  0  0
   40.7922   35.9673   40.5269 H   0  0  0  0  0  0  0  0  0  0  0  0
   43.2531   36.0630   40.1075 H   0  0  0  0  0  0  0  0  0  0  0  0
   38.8078   29.4599   42.7600 H   0  0  0  0  0  0  0  0  0  0  0  0
   41.3967   28.7243   43.2311 H   0  0  0  0  0  0  0  0  0  0  0  0
   42.9119   30.8033   42.3856 H   0  0  0  0  0  0  0  0  0  0  0  0
   45.4295   37.0113   42.2425 H   0  0  0  0  0  0  0  0  0  0  0  0
   44.2922   35.1254   45.9338 H   0  0  0  0  0  0  0  0  0  0  0  0
   44.8630   33.4356   44.1556 H   0  0  0  0  0  0  0  0  0  0  0  0
  1 11  1  0
  1  2  1  0
  2 20  1  0
  3  2  2  0
  3 25  1  0
  4  3  1  0
  5  4  1  0
  6  7  1  0
  6  4  2  0
  7  1  1  0
  8  7  2  0
  9 14  2  0
 10  9  1  0
 10 11  2  0
 11 12  1  0
 12 13  2  0
 13 15  1  0
 14 13  1  0
 15 16  1  0
 15 19  1  0
 16 17  2  0
 17 18  1  0
 19 18  2  0
 20 21  2  0
 20 24  1  0
 21 22  1  0
 22 23  2  0
 24 23  1  0
 25 28  1  0
 26 25  1  0
 27 25  1  0
  5 29  1  0
  5 30  1  0
  9 31  1  0
 10 32  1  0
 17 33  1  0
 18 34  1  0
 19 35  1  0
 21 36  1  0
 23 37  1  0
 24 38  1  0
M  END
>  <minimizedAffinity>  (1) 
-7.04287815

>  <minimizedRMSD>  (1) 
4.57693958

$$$$
