
     RDKit          3D

 42 46  0  0  1  0  0  0  0  0999 V2000
   46.9260   34.6430   42.2420 N   0  0  0  0  0  0  0  0  0  0  0  0
   48.3700   34.6900   42.3650 C   0  0  0  0  0  0  0  0  0  0  0  0
   49.0190   33.9300   41.2700 C   0  0  0  0  0  0  0  0  0  0  0  0
   48.4760   34.4620   40.0080 N   0  0  0  0  0  0  0  0  0  0  0  0
   47.1590   33.8820   39.9160 C   0  0  0  0  0  0  0  0  0  0  0  0
   46.2430   34.3860   41.0070 C   0  0  1  0  0  0  0  0  0  0  0  0
   45.0970   33.5410   41.1230 N   0  0  0  0  0  0  0  0  0  0  0  0
   45.0070   32.2590   41.4620 C   0  0  0  0  0  0  0  0  0  0  0  0
   43.7300   31.7950   41.4620 N   0  0  0  0  0  0  0  0  0  0  0  0
   42.9370   32.8240   41.1050 C   0  0  0  0  0  0  0  0  0  0  0  0
   41.5930   33.0350   40.9150 C   0  0  0  0  0  0  0  0  0  0  0  0
   41.1180   34.2420   40.5390 N   0  0  0  0  0  0  0  0  0  0  0  0
   41.9870   35.2660   40.3480 C   0  0  0  0  0  0  0  0  0  0  0  0
   43.3110   35.1000   40.5230 N   0  0  0  0  0  0  0  0  0  0  0  0
   43.7960   33.8830   40.9020 C   0  0  0  0  0  0  0  0  0  0  0  0
   44.4860   36.0660   44.6860 C   0  0  0  0  0  0  0  0  0  0  0  0
   45.2350   35.9380   43.5070 C   0  0  0  0  0  0  0  0  0  0  0  0
   46.1230   34.8610   43.3930 C   0  0  0  0  0  0  0  0  0  0  0  0
   46.1840   34.0100   44.4640 N   0  0  0  0  0  0  0  0  0  0  0  0
   45.4600   34.1550   45.5710 C   0  0  0  0  0  0  0  0  0  0  0  0
   44.6200   35.1640   45.6940 N   0  0  0  0  0  0  0  0  0  0  0  0
   45.6070   33.1840   46.6510 C   0  0  0  0  0  0  0  0  0  0  0  0
   46.4800   32.1200   46.7450 C   0  0  0  0  0  0  0  0  0  0  0  0
   46.2870   31.4640   47.9230 N   0  0  0  0  0  0  0  0  0  0  0  0
   45.2960   32.0990   48.5840 C   0  0  0  0  0  0  0  0  0  0  0  0
   44.9090   33.1220   47.8000 N   0  0  0  0  0  0  0  0  0  0  0  0
   48.7013   35.7380   42.3216 H   0  0  0  0  0  0  0  0  0  0  0  0
   48.6560   34.2362   43.3254 H   0  0  0  0  0  0  0  0  0  0  0  0
   50.1092   34.0723   41.3038 H   0  0  0  0  0  0  0  0  0  0  0  0
   48.8204   32.8521   41.3638 H   0  0  0  0  0  0  0  0  0  0  0  0
   48.4209   35.4901   40.0389 H   0  0  0  0  0  0  0  0  0  0  0  0
   46.7242   34.1405   38.9392 H   0  0  0  0  0  0  0  0  0  0  0  0
   47.2579   32.7925   40.0307 H   0  0  0  0  0  0  0  0  0  0  0  0
   45.8702   35.3786   40.7141 H   0  0  0  0  0  0  0  0  0  0  0  0
   45.8778   31.6370   41.7166 H   0  0  0  0  0  0  0  0  0  0  0  0
   40.8895   32.2041   41.0723 H   0  0  0  0  0  0  0  0  0  0  0  0
   41.6022   36.2507   40.0443 H   0  0  0  0  0  0  0  0  0  0  0  0
   43.7830   36.9049   44.7960 H   0  0  0  0  0  0  0  0  0  0  0  0
   45.1274   36.6671   42.6904 H   0  0  0  0  0  0  0  0  0  0  0  0
   47.2220   31.8425   45.9818 H   0  0  0  0  0  0  0  0  0  0  0  0
   44.8857   31.8327   49.5693 H   0  0  0  0  0  0  0  0  0  0  0  0
   44.1613   33.7843   48.0515 H   0  0  0  0  0  0  0  0  0  0  0  0
  1  2  1  0
  1 18  1  0
  3  2  1  0
  4  3  1  0
  5  4  1  0
  5  6  1  0
  6  7  1  0
  6  1  1  0
  7  8  1  0
  8  9  2  0
 10  9  1  0
 11 10  2  0
 12 11  1  0
 13 14  1  0
 13 12  2  0
 14 15  2  0
 15 10  1  0
 15  7  1  0
 16 21  2  0
 17 16  1  0
 18 17  2  0
 18 19  1  0
 19 20  2  0
 20 21  1  0
 20 22  1  0
 22 23  2  0
 22 26  1  0
 23 24  1  0
 24 25  2  0
 26 25  1  0
  2 27  1  0
  2 28  1  0
  3 29  1  0
  3 30  1  0
  4 31  1  0
  5 32  1  0
  5 33  1  0
  6 34  1  6
  8 35  1  0
 11 36  1  0
 13 37  1  0
 16 38  1  0
 17 39  1  0
 23 40  1  0
 25 41  1  0
 26 42  1  0
M  END
>  <minimizedAffinity>  (1) 
-7.16457653

>  <minimizedRMSD>  (1) 
0.332399398

$$$$
