
     RDKit          3D

 39 42  0  0  0  0  0  0  0  0999 V2000
   47.1240   30.4560   45.4260 N   0  0  0  0  0  0  0  0  0  0  0  0
   47.1270   29.1290   45.1200 C   0  0  0  0  0  0  0  0  0  0  0  0
   47.6060   28.9860   43.8710 N   0  0  0  0  0  0  0  0  0  0  0  0
   47.9080   30.1950   43.3860 C   0  0  0  0  0  0  0  0  0  0  0  0
   48.4220   30.6900   42.1950 C   0  0  0  0  0  0  0  0  0  0  0  0
   48.5910   32.0110   42.0690 N   0  0  0  0  0  0  0  0  0  0  0  0
   48.3010   32.9250   43.0100 C   0  0  0  0  0  0  0  0  0  0  0  0
   47.7980   32.4700   44.1810 N   0  0  0  0  0  0  0  0  0  0  0  0
   47.6050   31.1340   44.3650 C   0  0  0  0  0  0  0  0  0  0  0  0
   45.3820   32.7840   47.6870 C   0  0  0  0  0  0  0  0  0  0  0  0
   45.8300   32.1590   46.5200 C   0  0  0  0  0  0  0  0  0  0  0  0
   46.7010   31.0520   46.6310 C   0  0  0  0  0  0  0  0  0  0  0  0
   47.0450   30.6690   47.8690 N   0  0  0  0  0  0  0  0  0  0  0  0
   46.6050   31.2810   48.9750 C   0  0  0  0  0  0  0  0  0  0  0  0
   45.7830   32.3290   48.8950 N   0  0  0  0  0  0  0  0  0  0  0  0
   44.5110   33.8980   47.7090 N   0  0  0  0  0  0  0  0  0  0  0  0
   48.5460   34.3410   42.7190 C   0  0  0  0  0  0  0  0  0  0  0  0
   47.8870   34.8210   41.4640 C   0  0  0  0  0  0  0  0  0  0  0  0
   46.4240   34.9370   41.7350 C   0  0  0  0  0  0  0  0  0  0  0  0
   45.9970   35.6590   42.8360 C   0  0  0  0  0  0  0  0  0  0  0  0
   44.6530   35.7680   43.0910 C   0  0  0  0  0  0  0  0  0  0  0  0
   43.6920   35.1840   42.2900 C   0  0  0  0  0  0  0  0  0  0  0  0
   44.1060   34.4600   41.1890 C   0  0  0  0  0  0  0  0  0  0  0  0
   45.4560   34.3440   40.9230 C   0  0  0  0  0  0  0  0  0  0  0  0
   46.7949   28.3143   45.7804 H   0  0  0  0  0  0  0  0  0  0  0  0
   48.6850   30.0096   41.3716 H   0  0  0  0  0  0  0  0  0  0  0  0
   45.5101   32.5225   45.5323 H   0  0  0  0  0  0  0  0  0  0  0  0
   46.9249   30.9156   49.9620 H   0  0  0  0  0  0  0  0  0  0  0  0
   44.1647   34.2985   46.8255 H   0  0  0  0  0  0  0  0  0  0  0  0
   44.2229   34.3088   48.6085 H   0  0  0  0  0  0  0  0  0  0  0  0
   48.1668   34.9390   43.5608 H   0  0  0  0  0  0  0  0  0  0  0  0
   49.6306   34.4565   42.5765 H   0  0  0  0  0  0  0  0  0  0  0  0
   48.0613   34.1013   40.6505 H   0  0  0  0  0  0  0  0  0  0  0  0
   48.3006   35.7938   41.1597 H   0  0  0  0  0  0  0  0  0  0  0  0
   46.7287   36.1413   43.5009 H   0  0  0  0  0  0  0  0  0  0  0  0
   44.3280   36.3444   43.9697 H   0  0  0  0  0  0  0  0  0  0  0  0
   42.6225   35.2927   42.5230 H   0  0  0  0  0  0  0  0  0  0  0  0
   43.3672   33.9803   40.5302 H   0  0  0  0  0  0  0  0  0  0  0  0
   45.7784   33.7665   40.0441 H   0  0  0  0  0  0  0  0  0  0  0  0
  1 12  1  0
  2  1  1  0
  3  2  2  0
  4  3  1  0
  4  9  2  0
  5  4  1  0
  6  5  2  0
  6  7  1  0
  7  8  2  0
  8  9  1  0
  9  1  1  0
 10 16  1  0
 10 15  2  0
 11 12  2  0
 11 10  1  0
 12 13  1  0
 13 14  2  0
 15 14  1  0
 17  7  1  0
 18 19  1  0
 18 17  1  0
 19 20  2  0
 20 21  1  0
 22 21  2  0
 23 22  1  0
 24 23  2  0
 24 19  1  0
  2 25  1  0
  5 26  1  0
 11 27  1  0
 14 28  1  0
 16 29  1  0
 16 30  1  0
 17 31  1  0
 17 32  1  0
 18 33  1  0
 18 34  1  0
 20 35  1  0
 21 36  1  0
 22 37  1  0
 23 38  1  0
 24 39  1  0
M  ISO  8  25  14  26  14  27  14  28  14  31   8  32   8  33   8  34   8
M  ISO  5  35  14  36  14  37  14  38  14  39  14
M  END
>  <minimizedAffinity>  (1) 
-5.9280653

>  <minimizedRMSD>  (1) 
4.00038815

$$$$
