
     RDKit          3D

 34 36  0  0  1  0  0  0  0  0999 V2000
   43.9690   34.4950   41.5520 C   0  0  2  0  0  0  0  0  0  0  0  0
   42.8190   35.3720   41.9830 C   0  0  0  0  0  0  0  0  0  0  0  0
   41.7980   35.6470   41.0050 C   0  0  0  0  0  0  0  0  0  0  0  0
   41.8800   35.0960   39.6580 C   0  0  1  0  0  0  0  0  0  0  0  0
   43.1020   34.3300   39.3170 C   0  0  0  0  0  0  0  0  0  0  0  0
   43.5490   33.5280   40.5020 C   0  0  0  0  0  0  0  0  0  0  0  0
   44.9640   34.7560   43.7740 C   0  0  0  0  0  0  0  0  0  0  0  0
   44.6260   33.9300   42.7180 C   0  0  0  0  0  0  0  0  0  0  0  0
   44.9560   32.5800   42.8440 C   0  0  0  0  0  0  0  0  0  0  0  0
   45.5750   32.1250   43.9480 N   0  0  0  0  0  0  0  0  0  0  0  0
   45.8990   32.9610   44.9780 C   0  0  0  0  0  0  0  0  0  0  0  0
   45.5880   34.2790   44.8790 N   0  0  0  0  0  0  0  0  0  0  0  0
   46.5700   32.4760   46.1800 C   0  0  0  0  0  0  0  0  0  0  0  0
   46.8270   31.1420   46.4250 C   0  0  0  0  0  0  0  0  0  0  0  0
   47.4540   31.0990   47.6240 N   0  0  0  0  0  0  0  0  0  0  0  0
   47.5740   32.3570   48.0900 C   0  0  0  0  0  0  0  0  0  0  0  0
   47.0260   33.2310   47.1990 N   0  0  0  0  0  0  0  0  0  0  0  0
   40.6320   34.2280   39.4280 C   0  0  0  0  0  0  0  0  0  0  0  0
   40.1880   33.6180   40.5710 F   0  0  0  0  0  0  0  0  0  0  0  0
   39.6120   35.0900   39.0140 F   0  0  0  0  0  0  0  0  0  0  0  0
   40.8600   33.3350   38.3960 F   0  0  0  0  0  0  0  0  0  0  0  0
   44.7439   35.0940   41.0513 H   0  0  0  0  0  0  0  0  0  0  0  0
   42.7629   35.7840   43.0014 H   0  0  0  0  0  0  0  0  0  0  0  0
   40.9431   36.2827   41.2788 H   0  0  0  0  0  0  0  0  0  0  0  0
   41.9336   35.9649   38.9856 H   0  0  0  0  0  0  0  0  0  0  0  0
   42.8852   33.6519   38.4785 H   0  0  0  0  0  0  0  0  0  0  0  0
   43.9007   35.0306   39.0319 H   0  0  0  0  0  0  0  0  0  0  0  0
   42.7199   32.9065   40.8714 H   0  0  0  0  0  0  0  0  0  0  0  0
   44.3793   32.8592   40.2312 H   0  0  0  0  0  0  0  0  0  0  0  0
   44.7205   35.8271   43.7161 H   0  0  0  0  0  0  0  0  0  0  0  0
   44.7073   31.8808   42.0321 H   0  0  0  0  0  0  0  0  0  0  0  0
   46.5741   30.2888   45.7784 H   0  0  0  0  0  0  0  0  0  0  0  0
   48.0431   32.6367   49.0448 H   0  0  0  0  0  0  0  0  0  0  0  0
   46.9717   34.2558   47.2864 H   0  0  0  0  0  0  0  0  0  0  0  0
  1  2  1  0
  1  8  1  0
  3  2  2  0
  4  3  1  0
  5  4  1  0
  5  6  1  0
  6  1  1  0
  7 12  2  0
  8  9  2  0
  8  7  1  0
  9 10  1  0
 10 11  2  0
 11 13  1  0
 12 11  1  0
 13 14  2  0
 13 17  1  0
 14 15  1  0
 15 16  2  0
 17 16  1  0
 18  4  1  0
 18 19  1  0
 20 18  1  0
 21 18  1  0
  1 22  1  6
  2 23  1  0
  3 24  1  0
  4 25  1  6
  5 26  1  0
  5 27  1  0
  6 28  1  0
  6 29  1  0
  7 30  1  0
  9 31  1  0
 14 32  1  0
 16 33  1  0
 17 34  1  0
M  ISO  8  22  13  23  13  24  13  25  13  26  13  27  13  28  13  29  13
M  ISO  5  30  14  31  14  32  14  33  14  34   9
M  END
>  <minimizedAffinity>  (1) 
-5.62375832

>  <minimizedRMSD>  (1) 
4.59436798

$$$$
