
     RDKit          3D

 26 27  0  0  0  0  0  0  0  0999 V2000
   46.5890   34.8010   41.7000 C   0  0  0  0  0  0  0  0  0  0  0  0
   45.1680   36.0470   43.2850 C   0  0  0  0  0  0  0  0  0  0  0  0
   45.9620   34.9150   42.9930 C   0  0  0  0  0  0  0  0  0  0  0  0
   46.0790   33.9710   44.0080 C   0  0  0  0  0  0  0  0  0  0  0  0
   45.4360   34.1940   45.1880 N   0  0  0  0  0  0  0  0  0  0  0  0
   44.6930   35.2840   45.4190 C   0  0  0  0  0  0  0  0  0  0  0  0
   44.5590   36.2130   44.4640 N   0  0  0  0  0  0  0  0  0  0  0  0
   47.9970   35.3970   41.7910 C   0  0  0  0  0  0  0  0  0  0  0  0
   48.9500   34.2520   41.6300 C   0  0  0  0  0  0  0  0  0  0  0  0
   50.0750   34.3160   42.4610 C   0  0  0  0  0  0  0  0  0  0  0  0
   51.0080   33.2890   42.3690 C   0  0  0  0  0  0  0  0  0  0  0  0
   50.8210   32.2520   41.4890 C   0  0  0  0  0  0  0  0  0  0  0  0
   49.7090   32.1920   40.6710 C   0  0  0  0  0  0  0  0  0  0  0  0
   48.7740   33.2100   40.7530 C   0  0  0  0  0  0  0  0  0  0  0  0
   46.0001   35.3518   40.9518 H   0  0  0  0  0  0  0  0  0  0  0  0
   46.6446   33.7445   41.3989 H   0  0  0  0  0  0  0  0  0  0  0  0
   45.0462   36.8211   42.5131 H   0  0  0  0  0  0  0  0  0  0  0  0
   46.6796   33.0613   43.8605 H   0  0  0  0  0  0  0  0  0  0  0  0
   44.1942   35.4158   46.3905 H   0  0  0  0  0  0  0  0  0  0  0  0
   48.1504   36.1356   40.9904 H   0  0  0  0  0  0  0  0  0  0  0  0
   48.1511   35.9134   42.7499 H   0  0  0  0  0  0  0  0  0  0  0  0
   50.2161   35.1508   43.1632 H   0  0  0  0  0  0  0  0  0  0  0  0
   51.9039   33.3077   43.0070 H   0  0  0  0  0  0  0  0  0  0  0  0
   51.5731   31.4511   41.4339 H   0  0  0  0  0  0  0  0  0  0  0  0
   49.5698   31.3550   39.9710 H   0  0  0  0  0  0  0  0  0  0  0  0
   47.8821   33.1838   40.1098 H   0  0  0  0  0  0  0  0  0  0  0  0
  1  8  1  0
  1  3  1  0
  2  7  2  0
  3  2  1  0
  3  4  2  0
  4  5  1  0
  5  6  2  0
  7  6  1  0
  9  8  1  0
  9 10  2  0
 11 10  1  0
 12 11  2  0
 13 14  2  0
 13 12  1  0
 14  9  1  0
  1 15  1  0
  1 16  1  0
  2 17  1  0
  4 18  1  0
  6 19  1  0
  8 20  1  0
  8 21  1  0
 10 22  1  0
 11 23  1  0
 12 24  1  0
 13 25  1  0
 14 26  1  0
M  ISO  8  15   8  16   8  17  14  18  14  19  14  20   8  21   8  22  14
M  ISO  4  23  14  24  14  25  14  26  14
M  END
>  <minimizedAffinity>  (1) 
-4.87257481

>  <minimizedRMSD>  (1) 
2.8115859

$$$$
