
     RDKit          3D

 49 53  0  0  0  0  0  0  0  0999 V2000
   46.1750   31.8950   47.3050 C   0  0  0  0  0  0  0  0  0  0  0  0
   44.5530   34.9630   46.2000 C   0  0  0  0  0  0  0  0  0  0  0  0
   44.7780   34.9720   44.8140 C   0  0  0  0  0  0  0  0  0  0  0  0
   45.5030   33.9010   44.2440 C   0  0  0  0  0  0  0  0  0  0  0  0
   45.9370   32.9310   45.0670 N   0  0  0  0  0  0  0  0  0  0  0  0
   45.6960   32.9620   46.4110 C   0  0  0  0  0  0  0  0  0  0  0  0
   45.0100   33.9700   46.9650 N   0  0  0  0  0  0  0  0  0  0  0  0
   45.7060   33.9520   42.8470 N   0  0  0  0  0  0  0  0  0  0  0  0
   44.9550   33.7530   41.7760 C   0  0  0  0  0  0  0  0  0  0  0  0
   45.6790   33.9400   40.6490 N   0  0  0  0  0  0  0  0  0  0  0  0
   46.9330   34.2700   41.0120 C   0  0  0  0  0  0  0  0  0  0  0  0
   48.0480   34.5610   40.2470 C   0  0  0  0  0  0  0  0  0  0  0  0
   48.0510   34.5600   39.0170 O   0  0  0  0  0  0  0  0  0  0  0  0
   49.2220   34.8700   40.8560 N   0  0  0  0  0  0  0  0  0  0  0  0
   49.2130   34.8700   42.1990 C   0  0  0  0  0  0  0  0  0  0  0  0
   50.3750   35.1760   42.9600 N   0  0  0  0  0  0  0  0  0  0  0  0
   48.1520   34.5940   42.9350 N   0  0  0  0  0  0  0  0  0  0  0  0
   46.9500   34.2770   42.3950 C   0  0  0  0  0  0  0  0  0  0  0  0
   47.3640   32.3570   48.1120 C   0  0  0  0  0  0  0  0  0  0  0  0
   45.0990   31.4110   48.2520 C   0  0  0  0  0  0  0  0  0  0  0  0
   46.6250   30.7540   46.4260 C   0  0  0  0  0  0  0  0  0  0  0  0
   45.7210   29.5550   46.5410 C   0  0  0  0  0  0  0  0  0  0  0  0
   46.0760   28.5260   47.3350 C   0  0  0  0  0  0  0  0  0  0  0  0
   44.7100   27.3020   47.1800 S   0  0  0  0  0  0  0  0  0  0  0  0
   43.8410   28.4700   45.9900 C   0  0  0  0  0  0  0  0  0  0  0  0
   44.5800   29.3730   45.9400 N   0  0  0  0  0  0  0  0  0  0  0  0
   42.5330   28.2170   45.3270 C   0  0  0  0  0  0  0  0  0  0  0  0
   41.8990   28.8540   44.3120 C   0  0  0  0  0  0  0  0  0  0  0  0
   40.7150   28.1760   44.1200 C   0  0  0  0  0  0  0  0  0  0  0  0
   40.6480   27.1560   45.0050 N   0  0  0  0  0  0  0  0  0  0  0  0
   41.7610   27.1890   45.7360 N   0  0  0  0  0  0  0  0  0  0  0  0
   43.9910   35.7878   46.6624 H   0  0  0  0  0  0  0  0  0  0  0  0
   44.3992   35.7927   44.1871 H   0  0  0  0  0  0  0  0  0  0  0  0
   43.8911   33.4745   41.7990 H   0  0  0  0  0  0  0  0  0  0  0  0
   50.0718   35.0919   40.3179 H   0  0  0  0  0  0  0  0  0  0  0  0
   50.3338   35.1670   43.9891 H   0  0  0  0  0  0  0  0  0  0  0  0
   51.2577   35.4066   42.4820 H   0  0  0  0  0  0  0  0  0  0  0  0
   47.1360   32.2684   49.1845 H   0  0  0  0  0  0  0  0  0  0  0  0
   48.2365   31.7325   47.8698 H   0  0  0  0  0  0  0  0  0  0  0  0
   47.5859   33.4068   47.8698 H   0  0  0  0  0  0  0  0  0  0  0  0
   45.4303   31.5600   49.2903 H   0  0  0  0  0  0  0  0  0  0  0  0
   44.1738   31.9796   48.0771 H   0  0  0  0  0  0  0  0  0  0  0  0
   44.9106   30.3414   48.0771 H   0  0  0  0  0  0  0  0  0  0  0  0
   47.6428   30.4596   46.7215 H   0  0  0  0  0  0  0  0  0  0  0  0
   46.5948   31.1002   45.3823 H   0  0  0  0  0  0  0  0  0  0  0  0
   46.9869   28.4365   47.9451 H   0  0  0  0  0  0  0  0  0  0  0  0
   42.2568   29.7327   43.7554 H   0  0  0  0  0  0  0  0  0  0  0  0
   39.9497   28.4239   43.3697 H   0  0  0  0  0  0  0  0  0  0  0  0
   39.8780   26.4782   45.0970 H   0  0  0  0  0  0  0  0  0  0  0  0
  1 19  1  0
  1 20  1  0
  2  7  2  0
  3  2  1  0
  4  3  2  0
  4  5  1  0
  5  6  2  0
  6  7  1  0
  6  1  1  0
  8  4  1  0
  9  8  1  0
 10 11  1  0
 10  9  2  0
 11 18  2  0
 12 14  1  0
 12 11  1  0
 13 12  2  0
 14 15  1  0
 15 17  2  0
 15 16  1  0
 18  8  1  0
 18 17  1  0
 21 22  1  0
 21  1  1  0
 22 23  2  0
 24 23  1  0
 25 24  1  0
 26 25  2  0
 26 22  1  0
 27 31  2  0
 27 25  1  0
 28 27  1  0
 29 28  2  0
 29 30  1  0
 30 31  1  0
  2 32  1  0
  3 33  1  0
  9 34  1  0
 14 35  1  0
 16 36  1  0
 16 37  1  0
 19 38  1  0
 19 39  1  0
 19 40  1  0
 20 41  1  0
 20 42  1  0
 20 43  1  0
 21 44  1  0
 21 45  1  0
 23 46  1  0
 28 47  1  0
 29 48  1  0
 30 49  1  0
M  END
>  <minimizedAffinity>  (1) 
-7.28053141

>  <minimizedRMSD>  (1) 
0.221464947

$$$$
