
     RDKit          3D

 34 36  0  0  1  0  0  0  0  0999 V2000
   44.2290   34.3450   41.1380 C   0  0  2  0  0  0  0  0  0  0  0  0
   43.0780   35.3320   41.2540 C   0  0  0  0  0  0  0  0  0  0  0  0
   42.2310   35.4900   40.1050 C   0  0  0  0  0  0  0  0  0  0  0  0
   42.4630   34.7400   38.8880 C   0  0  1  0  0  0  0  0  0  0  0  0
   43.6620   33.8850   38.8560 C   0  0  0  0  0  0  0  0  0  0  0  0
   43.8810   33.2430   40.2030 C   0  0  0  0  0  0  0  0  0  0  0  0
   44.7390   34.8880   43.4820 C   0  0  0  0  0  0  0  0  0  0  0  0
   44.6630   33.9510   42.4680 C   0  0  0  0  0  0  0  0  0  0  0  0
   45.0290   32.6500   42.8030 C   0  0  0  0  0  0  0  0  0  0  0  0
   45.4340   32.3390   44.0500 N   0  0  0  0  0  0  0  0  0  0  0  0
   45.4990   33.2820   45.0230 C   0  0  0  0  0  0  0  0  0  0  0  0
   45.1450   34.5610   44.7220 N   0  0  0  0  0  0  0  0  0  0  0  0
   45.9360   32.9560   46.3750 C   0  0  0  0  0  0  0  0  0  0  0  0
   47.0430   32.3660   46.9550 C   0  0  0  0  0  0  0  0  0  0  0  0
   46.8060   32.3680   48.3340 C   0  0  0  0  0  0  0  0  0  0  0  0
   45.6000   32.9410   48.5440 N   0  0  0  0  0  0  0  0  0  0  0  0
   45.0920   33.2860   47.3710 N   0  0  0  0  0  0  0  0  0  0  0  0
   41.2090   33.8990   38.6030 C   0  0  0  0  0  0  0  0  0  0  0  0
   40.5000   33.5900   39.7350 F   0  0  0  0  0  0  0  0  0  0  0  0
   40.3630   34.6740   37.8160 F   0  0  0  0  0  0  0  0  0  0  0  0
   41.5510   32.7900   37.8470 F   0  0  0  0  0  0  0  0  0  0  0  0
   45.1128   34.8088   40.6755 H   0  0  0  0  0  0  0  0  0  0  0  0
   42.9016   35.9009   42.1788 H   0  0  0  0  0  0  0  0  0  0  0  0
   41.3883   36.1955   40.1503 H   0  0  0  0  0  0  0  0  0  0  0  0
   42.6627   35.4905   38.1090 H   0  0  0  0  0  0  0  0  0  0  0  0
   43.5282   33.1001   38.0970 H   0  0  0  0  0  0  0  0  0  0  0  0
   44.5369   34.5035   38.6071 H   0  0  0  0  0  0  0  0  0  0  0  0
   42.9639   32.7355   40.5368 H   0  0  0  0  0  0  0  0  0  0  0  0
   44.6790   32.4870   40.1609 H   0  0  0  0  0  0  0  0  0  0  0  0
   44.4595   35.9303   43.2686 H   0  0  0  0  0  0  0  0  0  0  0  0
   44.9868   31.8623   42.0363 H   0  0  0  0  0  0  0  0  0  0  0  0
   47.9309   31.9741   46.4372 H   0  0  0  0  0  0  0  0  0  0  0  0
   47.4804   31.9738   49.1085 H   0  0  0  0  0  0  0  0  0  0  0  0
   45.1524   33.0848   49.4605 H   0  0  0  0  0  0  0  0  0  0  0  0
  1  2  1  0
  1  8  1  0
  3  2  2  0
  4  3  1  0
  5  4  1  0
  5  6  1  0
  6  1  1  0
  7 12  2  0
  8  9  2  0
  8  7  1  0
  9 10  1  0
 10 11  2  0
 11 13  1  0
 12 11  1  0
 13 14  1  0
 13 17  2  0
 14 15  2  0
 15 16  1  0
 17 16  1  0
 18  4  1  0
 18 19  1  0
 20 18  1  0
 21 18  1  0
  1 22  1  6
  2 23  1  0
  3 24  1  0
  4 25  1  6
  5 26  1  0
  5 27  1  0
  6 28  1  0
  6 29  1  0
  7 30  1  0
  9 31  1  0
 14 32  1  0
 15 33  1  0
 16 34  1  0
M  ISO  8  22  13  23  13  24  13  25  13  26  13  27  13  28  13  29  13
M  ISO  5  30  14  31  14  32  14  33  14  34   9
M  END
>  <minimizedAffinity>  (1) 
-5.58293343

>  <minimizedRMSD>  (1) 
4.74526596

$$$$
