
     RDKit          3D

 40 43  0  0  0  0  0  0  0  0999 V2000
   46.4530   34.6670   42.1740 C   0  0  0  0  0  0  0  0  0  0  0  0
   47.7570   35.0380   42.0420 C   0  0  0  0  0  0  0  0  0  0  0  0
   48.4650   34.8620   40.8590 C   0  0  0  0  0  0  0  0  0  0  0  0
   47.8170   34.2800   39.7570 C   0  0  0  0  0  0  0  0  0  0  0  0
   46.5030   33.9050   39.8860 C   0  0  0  0  0  0  0  0  0  0  0  0
   45.8470   34.1040   41.0890 C   0  0  0  0  0  0  0  0  0  0  0  0
   44.4870   33.7060   41.1890 N   0  0  0  0  0  0  0  0  0  0  0  0
   43.6520   34.6440   40.6440 C   0  0  0  0  0  0  0  0  0  0  0  0
   42.2760   34.4620   40.6310 C   0  0  0  0  0  0  0  0  0  0  0  0
   41.7830   33.2980   41.1910 C   0  0  0  0  0  0  0  0  0  0  0  0
   40.5460   33.0630   41.2160 O   0  0  0  0  0  0  0  0  0  0  0  0
   42.6310   32.3940   41.7190 N   0  0  0  0  0  0  0  0  0  0  0  0
   43.9560   32.5900   41.7200 C   0  0  0  0  0  0  0  0  0  0  0  0
   44.8160   31.8110   42.1850 O   0  0  0  0  0  0  0  0  0  0  0  0
   41.3430   35.4630   40.0470 C   0  0  0  0  0  0  0  0  0  0  0  0
   44.4040   36.0690   45.0040 C   0  0  0  0  0  0  0  0  0  0  0  0
   44.9650   35.9670   43.7320 C   0  0  0  0  0  0  0  0  0  0  0  0
   45.8010   34.8950   43.4570 C   0  0  0  0  0  0  0  0  0  0  0  0
   46.0240   34.0110   44.4360 N   0  0  0  0  0  0  0  0  0  0  0  0
   45.4670   34.1270   45.6720 C   0  0  0  0  0  0  0  0  0  0  0  0
   44.6610   35.1550   45.9490 N   0  0  0  0  0  0  0  0  0  0  0  0
   45.7960   33.0900   46.6460 C   0  0  0  0  0  0  0  0  0  0  0  0
   46.8440   32.1930   46.6310 C   0  0  0  0  0  0  0  0  0  0  0  0
   46.7700   31.3980   47.7460 C   0  0  0  0  0  0  0  0  0  0  0  0
   45.6880   31.8030   48.4360 N   0  0  0  0  0  0  0  0  0  0  0  0
   45.1260   32.8000   47.7750 N   0  0  0  0  0  0  0  0  0  0  0  0
   48.2683   35.4934   42.9029 H   0  0  0  0  0  0  0  0  0  0  0  0
   49.5174   35.1739   40.7868 H   0  0  0  0  0  0  0  0  0  0  0  0
   48.3526   34.1276   38.8084 H   0  0  0  0  0  0  0  0  0  0  0  0
   45.9732   33.4482   39.0371 H   0  0  0  0  0  0  0  0  0  0  0  0
   44.0795   35.5591   40.2082 H   0  0  0  0  0  0  0  0  0  0  0  0
   42.2509   31.5305   42.1323 H   0  0  0  0  0  0  0  0  0  0  0  0
   40.8355   36.0075   40.8569 H   0  0  0  0  0  0  0  0  0  0  0  0
   41.9089   36.1732   39.4261 H   0  0  0  0  0  0  0  0  0  0  0  0
   40.5948   34.9484   39.4261 H   0  0  0  0  0  0  0  0  0  0  0  0
   43.7391   36.9142   45.2356 H   0  0  0  0  0  0  0  0  0  0  0  0
   44.7489   36.7218   42.9615 H   0  0  0  0  0  0  0  0  0  0  0  0
   47.6155   32.1261   45.8498 H   0  0  0  0  0  0  0  0  0  0  0  0
   47.4604   30.5874   48.0224 H   0  0  0  0  0  0  0  0  0  0  0  0
   45.3552   31.4047   49.3257 H   0  0  0  0  0  0  0  0  0  0  0  0
  1 18  1  0
  2  1  2  0
  3  2  1  0
  4  5  1  0
  4  3  2  0
  5  6  2  0
  6  7  1  0
  6  1  1  0
  7 13  1  0
  8  7  1  0
  9  8  2  0
  9 10  1  0
 10 11  2  0
 10 12  1  0
 12 13  1  0
 13 14  2  0
 15  9  1  0
 16 21  2  0
 17 16  1  0
 18 17  2  0
 18 19  1  0
 19 20  2  0
 20 21  1  0
 20 22  1  0
 22 26  2  0
 23 22  1  0
 23 24  2  0
 24 25  1  0
 26 25  1  0
  2 27  1  0
  3 28  1  0
  4 29  1  0
  5 30  1  0
  8 31  1  0
 12 32  1  0
 15 33  1  0
 15 34  1  0
 15 35  1  0
 16 36  1  0
 17 37  1  0
 23 38  1  0
 24 39  1  0
 25 40  1  0
M  END
>  <minimizedAffinity>  (1) 
-7.40219641

>  <minimizedRMSD>  (1) 
0.16193381

$$$$
