
     RDKit          3D

 46 49  0  0  0  0  0  0  0  0999 V2000
   44.5420   35.0220   46.1730 C   0  0  0  0  0  0  0  0  0  0  0  0
   44.7840   35.0250   44.7850 C   0  0  0  0  0  0  0  0  0  0  0  0
   45.4710   33.9400   44.2240 C   0  0  0  0  0  0  0  0  0  0  0  0
   45.8590   32.9550   45.0570 N   0  0  0  0  0  0  0  0  0  0  0  0
   45.6130   32.9800   46.3780 C   0  0  0  0  0  0  0  0  0  0  0  0
   44.9590   34.0040   46.9360 N   0  0  0  0  0  0  0  0  0  0  0  0
   45.6910   33.9870   42.8350 N   0  0  0  0  0  0  0  0  0  0  0  0
   44.9350   33.7900   41.7440 C   0  0  0  0  0  0  0  0  0  0  0  0
   45.6720   33.9680   40.6190 N   0  0  0  0  0  0  0  0  0  0  0  0
   46.9260   34.2850   41.0080 C   0  0  0  0  0  0  0  0  0  0  0  0
   48.0540   34.5640   40.2440 C   0  0  0  0  0  0  0  0  0  0  0  0
   48.0660   34.5590   39.0030 O   0  0  0  0  0  0  0  0  0  0  0  0
   49.2240   34.8620   40.8710 N   0  0  0  0  0  0  0  0  0  0  0  0
   49.2000   34.8640   42.2020 C   0  0  0  0  0  0  0  0  0  0  0  0
   50.3630   35.1620   42.9670 N   0  0  0  0  0  0  0  0  0  0  0  0
   48.1190   34.5980   42.9270 N   0  0  0  0  0  0  0  0  0  0  0  0
   46.9300   34.2950   42.3780 C   0  0  0  0  0  0  0  0  0  0  0  0
   46.0370   31.9020   47.2910 C   0  0  0  0  0  0  0  0  0  0  0  0
   47.2440   32.3080   48.1070 C   0  0  0  0  0  0  0  0  0  0  0  0
   44.9560   31.4320   48.2150 C   0  0  0  0  0  0  0  0  0  0  0  0
   46.4860   30.7340   46.4050 C   0  0  0  0  0  0  0  0  0  0  0  0
   45.6520   29.5310   46.5850 C   0  0  0  0  0  0  0  0  0  0  0  0
   44.5620   29.2990   45.7590 C   0  0  0  0  0  0  0  0  0  0  0  0
   43.7500   28.1700   45.9020 C   0  0  0  0  0  0  0  0  0  0  0  0
   44.0860   27.2720   46.9210 C   0  0  0  0  0  0  0  0  0  0  0  0
   45.1790   27.5200   47.7360 C   0  0  0  0  0  0  0  0  0  0  0  0
   45.9650   28.6260   47.5900 C   0  0  0  0  0  0  0  0  0  0  0  0
   44.0053   35.8642   46.6342 H   0  0  0  0  0  0  0  0  0  0  0  0
   44.4415   35.8599   44.1561 H   0  0  0  0  0  0  0  0  0  0  0  0
   43.8683   33.5220   41.7596 H   0  0  0  0  0  0  0  0  0  0  0  0
   50.0829   35.0748   40.3438 H   0  0  0  0  0  0  0  0  0  0  0  0
   50.3179   35.1568   43.9960 H   0  0  0  0  0  0  0  0  0  0  0  0
   51.2496   35.3828   42.4915 H   0  0  0  0  0  0  0  0  0  0  0  0
   47.0063   32.2280   49.1780 H   0  0  0  0  0  0  0  0  0  0  0  0
   48.0881   31.6443   47.8682 H   0  0  0  0  0  0  0  0  0  0  0  0
   47.5154   33.3469   47.8682 H   0  0  0  0  0  0  0  0  0  0  0  0
   45.2781   31.5720   49.2574 H   0  0  0  0  0  0  0  0  0  0  0  0
   44.0399   32.0130   48.0331 H   0  0  0  0  0  0  0  0  0  0  0  0
   44.7561   30.3657   48.0331 H   0  0  0  0  0  0  0  0  0  0  0  0
   47.5268   30.4816   46.6559 H   0  0  0  0  0  0  0  0  0  0  0  0
   46.3868   31.0539   45.3572 H   0  0  0  0  0  0  0  0  0  0  0  0
   44.3293   30.0259   44.9669 H   0  0  0  0  0  0  0  0  0  0  0  0
   42.8863   27.9956   45.2434 H   0  0  0  0  0  0  0  0  0  0  0  0
   43.4808   26.3665   47.0756 H   0  0  0  0  0  0  0  0  0  0  0  0
   45.4221   26.7986   48.5301 H   0  0  0  0  0  0  0  0  0  0  0  0
   46.8261   28.7963   48.2529 H   0  0  0  0  0  0  0  0  0  0  0  0
  1  6  2  0
  2  1  1  0
  3  2  2  0
  3  4  1  0
  4  5  2  0
  5  6  1  0
  5 18  1  0
  7  3  1  0
  8  7  1  0
  9 10  1  0
  9  8  2  0
 10 17  2  0
 11 13  1  0
 11 10  1  0
 12 11  2  0
 13 14  1  0
 14 16  2  0
 14 15  1  0
 17  7  1  0
 17 16  1  0
 18 19  1  0
 18 20  1  0
 21 22  1  0
 21 18  1  0
 22 27  2  0
 23 24  2  0
 23 22  1  0
 24 25  1  0
 25 26  2  0
 27 26  1  0
  1 28  1  0
  2 29  1  0
  8 30  1  0
 13 31  1  0
 15 32  1  0
 15 33  1  0
 19 34  1  0
 19 35  1  0
 19 36  1  0
 20 37  1  0
 20 38  1  0
 20 39  1  0
 21 40  1  0
 21 41  1  0
 23 42  1  0
 24 43  1  0
 25 44  1  0
 26 45  1  0
 27 46  1  0
M  END
>  <minimizedAffinity>  (1) 
-7.06674099

>  <minimizedRMSD>  (1) 
1.43489373

$$$$
