
     RDKit          3D

 47 50  0  0  1  0  0  0  0  0999 V2000
   46.0420   33.5430   41.9080 N   0  0  0  0  0  0  0  0  0  0  0  0
   46.9780   34.0350   40.9040 C   0  0  0  0  0  0  0  0  0  0  0  0
   46.3160   33.5040   39.6520 C   0  0  0  0  0  0  0  0  0  0  0  0
   46.1150   32.0560   40.0440 C   0  0  0  0  0  0  0  0  0  0  0  0
   45.6940   32.1720   41.4710 C   0  0  2  0  0  0  0  0  0  0  0  0
   44.2580   35.8550   44.2040 C   0  0  0  0  0  0  0  0  0  0  0  0
   44.7190   35.2830   43.0130 C   0  0  0  0  0  0  0  0  0  0  0  0
   45.5400   34.1700   43.0530 C   0  0  0  0  0  0  0  0  0  0  0  0
   45.8570   33.6850   44.2900 N   0  0  0  0  0  0  0  0  0  0  0  0
   45.4070   34.2420   45.4330 C   0  0  0  0  0  0  0  0  0  0  0  0
   44.6160   35.3180   45.3800 N   0  0  0  0  0  0  0  0  0  0  0  0
   45.8460   33.5930   46.6240 N   0  0  0  0  0  0  0  0  0  0  0  0
   44.3640   31.7830   41.7820 N   0  0  0  0  0  0  0  0  0  0  0  0
   43.2670   32.1300   41.1250 C   0  0  0  0  0  0  0  0  0  0  0  0
   41.9990   31.7000   41.5010 C   0  0  0  0  0  0  0  0  0  0  0  0
   41.8510   30.8820   42.5960 C   0  0  0  0  0  0  0  0  0  0  0  0
   40.7120   30.4650   42.9770 O   0  0  0  0  0  0  0  0  0  0  0  0
   42.9590   30.5400   43.2490 N   0  0  0  0  0  0  0  0  0  0  0  0
   44.1450   30.9760   42.8490 C   0  0  0  0  0  0  0  0  0  0  0  0
   45.1560   30.5940   43.5390 O   0  0  0  0  0  0  0  0  0  0  0  0
   40.7850   32.1120   40.7380 C   0  0  0  0  0  0  0  0  0  0  0  0
   40.7310   33.5680   40.5130 C   0  0  0  0  0  0  0  0  0  0  0  0
   40.7690   34.0540   39.2010 C   0  0  0  0  0  0  0  0  0  0  0  0
   40.7250   35.3950   38.8790 C   0  0  0  0  0  0  0  0  0  0  0  0
   40.6370   36.2930   39.9240 C   0  0  0  0  0  0  0  0  0  0  0  0
   40.5950   35.8820   41.2480 C   0  0  0  0  0  0  0  0  0  0  0  0
   40.6430   34.5360   41.4930 C   0  0  0  0  0  0  0  0  0  0  0  0
   47.0354   35.1335   40.9018 H   0  0  0  0  0  0  0  0  0  0  0  0
   48.0221   33.7198   41.0475 H   0  0  0  0  0  0  0  0  0  0  0  0
   46.9709   33.6004   38.7735 H   0  0  0  0  0  0  0  0  0  0  0  0
   45.3973   34.0326   39.3580 H   0  0  0  0  0  0  0  0  0  0  0  0
   45.3314   31.5826   39.4341 H   0  0  0  0  0  0  0  0  0  0  0  0
   47.0075   31.4302   39.8961 H   0  0  0  0  0  0  0  0  0  0  0  0
   46.2448   31.4174   42.0517 H   0  0  0  0  0  0  0  0  0  0  0  0
   43.6056   36.7402   44.1760 H   0  0  0  0  0  0  0  0  0  0  0  0
   44.4288   35.7181   42.0453 H   0  0  0  0  0  0  0  0  0  0  0  0
   45.5510   33.9503   47.5439 H   0  0  0  0  0  0  0  0  0  0  0  0
   46.4582   32.7668   46.5646 H   0  0  0  0  0  0  0  0  0  0  0  0
   43.3631   32.7848   40.2464 H   0  0  0  0  0  0  0  0  0  0  0  0
   42.8941   29.9289   44.0756 H   0  0  0  0  0  0  0  0  0  0  0  0
   40.7912   31.6036   39.7625 H   0  0  0  0  0  0  0  0  0  0  0  0
   39.9033   31.8312   41.3327 H   0  0  0  0  0  0  0  0  0  0  0  0
   40.8379   33.3254   38.3798 H   0  0  0  0  0  0  0  0  0  0  0  0
   40.7586   35.7345   37.8332 H   0  0  0  0  0  0  0  0  0  0  0  0
   40.5990   37.3691   39.6993 H   0  0  0  0  0  0  0  0  0  0  0  0
   40.5258   36.6098   42.0699 H   0  0  0  0  0  0  0  0  0  0  0  0
   40.6092   34.2036   42.5410 H   0  0  0  0  0  0  0  0  0  0  0  0
  1  8  1  0
  2  1  1  0
  3  4  1  0
  3  2  1  0
  4  5  1  0
  5 13  1  0
  5  1  1  0
  6 11  2  0
  7  8  2  0
  7  6  1  0
  8  9  1  0
  9 10  2  0
 10 12  1  0
 11 10  1  0
 13 19  1  0
 14 15  2  0
 14 13  1  0
 15 16  1  0
 16 17  2  0
 16 18  1  0
 19 18  1  0
 19 20  2  0
 21 15  1  0
 22 21  1  0
 22 27  1  0
 23 22  2  0
 24 23  1  0
 24 25  2  0
 25 26  1  0
 26 27  2  0
  2 28  1  0
  2 29  1  0
  3 30  1  0
  3 31  1  0
  4 32  1  0
  4 33  1  0
  5 34  1  1
  6 35  1  0
  7 36  1  0
 12 37  1  0
 12 38  1  0
 14 39  1  0
 18 40  1  0
 21 41  1  0
 21 42  1  0
 23 43  1  0
 24 44  1  0
 25 45  1  0
 26 46  1  0
 27 47  1  0
M  ISO  8  28  13  29  13  30  13  31  13  32  13  33  13  34  13  35  14
M  ISO  8  36  14  39  14  40   9  41   8  42   8  43  14  44  14  45  14
M  ISO  2  46  14  47  14
M  END
>  <minimizedAffinity>  (1) 
-6.27733517

>  <minimizedRMSD>  (1) 
2.66043115

$$$$
