
     RDKit          3D

 32 35  0  0  0  0  0  0  0  0999 V2000
   46.1930   30.3850   49.1360 N   0  0  0  0  0  0  0  0  0  0  0  0
   45.3520   31.4140   49.4430 C   0  0  0  0  0  0  0  0  0  0  0  0
   45.2810   32.2340   48.3710 N   0  0  0  0  0  0  0  0  0  0  0  0
   46.0780   31.6940   47.4310 C   0  0  0  0  0  0  0  0  0  0  0  0
   46.3070   32.2020   46.1700 C   0  0  0  0  0  0  0  0  0  0  0  0
   47.1570   31.4900   45.3730 N   0  0  0  0  0  0  0  0  0  0  0  0
   47.7450   30.3510   45.7860 C   0  0  0  0  0  0  0  0  0  0  0  0
   47.4870   29.9060   47.0160 N   0  0  0  0  0  0  0  0  0  0  0  0
   46.6720   30.5300   47.8690 C   0  0  0  0  0  0  0  0  0  0  0  0
   48.6640   29.6110   44.8780 C   0  0  0  0  0  0  0  0  0  0  0  0
   48.8920   30.3730   43.5590 C   0  0  0  0  0  0  0  0  0  0  0  0
   48.2120   29.0090   43.6250 C   0  0  0  0  0  0  0  0  0  0  0  0
   45.6430   33.6630   45.4460 S   0  0  0  0  0  0  0  0  0  0  0  0
   47.7900   34.7220   42.3450 C   0  0  0  0  0  0  0  0  0  0  0  0
   47.0650   34.3420   41.2120 C   0  0  0  0  0  0  0  0  0  0  0  0
   45.8430   33.7240   41.4170 C   0  0  0  0  0  0  0  0  0  0  0  0
   45.4080   33.5150   42.7040 N   0  0  0  0  0  0  0  0  0  0  0  0
   46.1620   33.9090   43.7570 C   0  0  0  0  0  0  0  0  0  0  0  0
   47.3320   34.5020   43.5750 N   0  0  0  0  0  0  0  0  0  0  0  0
   49.0840   35.3780   42.1330 C   0  0  0  0  0  0  0  0  0  0  0  0
   49.2420   36.1390   41.1570 O   0  0  0  0  0  0  0  0  0  0  0  0
   50.1090   35.1370   43.0250 O   0  0  0  0  0  0  0  0  0  0  0  0
   46.4316   29.6098   49.7708 H   0  0  0  0  0  0  0  0  0  0  0  0
   44.8232   31.5525   50.3976 H   0  0  0  0  0  0  0  0  0  0  0  0
   49.2466   29.1770   45.7040 H   0  0  0  0  0  0  0  0  0  0  0  0
   49.9040   30.4726   43.1395 H   0  0  0  0  0  0  0  0  0  0  0  0
   48.6420   31.3679   43.1618 H   0  0  0  0  0  0  0  0  0  0  0  0
   47.1348   28.9273   43.4179 H   0  0  0  0  0  0  0  0  0  0  0  0
   48.3883   28.0410   43.1333 H   0  0  0  0  0  0  0  0  0  0  0  0
   47.4498   34.5265   40.1982 H   0  0  0  0  0  0  0  0  0  0  0  0
   45.2290   33.4048   40.5620 H   0  0  0  0  0  0  0  0  0  0  0  0
   50.9892   35.5717   42.8968 H   0  0  0  0  0  0  0  0  0  0  0  0
  1  2  1  0
  3  2  2  0
  4  9  2  0
  4  3  1  0
  5  4  1  0
  6  7  1  0
  6  5  2  0
  7  8  2  0
  8  9  1  0
  9  1  1  0
 10  7  1  0
 11 12  1  0
 11 10  1  0
 12 10  1  0
 13  5  1  0
 14 19  2  0
 15 16  2  0
 15 14  1  0
 16 17  1  0
 17 18  2  0
 18 13  1  0
 19 18  1  0
 20 14  1  0
 20 22  1  0
 21 20  2  0
  1 23  1  0
  2 24  1  0
 10 25  1  0
 11 26  1  0
 11 27  1  0
 12 28  1  0
 12 29  1  0
 15 30  1  0
 16 31  1  0
 22 32  1  0
M  ISO  8  23   9  24  14  25  13  26  13  27  13  28  13  29  13  30  14
M  ISO  2  31  14  32   3
M  END
>  <minimizedAffinity>  (1) 
-5.66620255

>  <minimizedRMSD>  (1) 
0.0498479046

$$$$
