
     RDKit          3D

 34 36  0  0  1  0  0  0  0  0999 V2000
   46.0490   33.6300   44.9450 C   0  0  2  0  0  0  0  0  0  0  0  0
   44.9960   34.6120   45.3840 C   0  0  0  0  0  0  0  0  0  0  0  0
   44.6850   35.6970   44.4830 C   0  0  0  0  0  0  0  0  0  0  0  0
   45.3650   35.8240   43.2080 C   0  0  1  0  0  0  0  0  0  0  0  0
   46.4370   34.8440   42.9090 C   0  0  0  0  0  0  0  0  0  0  0  0
   46.0600   33.5010   43.4640 C   0  0  0  0  0  0  0  0  0  0  0  0
   45.8070   32.4420   47.0720 C   0  0  0  0  0  0  0  0  0  0  0  0
   45.9100   32.3920   45.6950 C   0  0  0  0  0  0  0  0  0  0  0  0
   45.8870   31.1300   45.1080 C   0  0  0  0  0  0  0  0  0  0  0  0
   45.7690   30.0230   45.8610 N   0  0  0  0  0  0  0  0  0  0  0  0
   45.6680   30.0930   47.2180 C   0  0  0  0  0  0  0  0  0  0  0  0
   45.6870   31.3100   47.8210 N   0  0  0  0  0  0  0  0  0  0  0  0
   45.5380   28.8520   48.0240 C   0  0  0  0  0  0  0  0  0  0  0  0
   46.2530   27.6030   47.5850 C   0  0  0  0  0  0  0  0  0  0  0  0
   44.7770   27.7150   47.4090 C   0  0  0  0  0  0  0  0  0  0  0  0
   44.3050   35.7600   42.0950 C   0  0  0  0  0  0  0  0  0  0  0  0
   43.1010   35.2580   42.5360 F   0  0  0  0  0  0  0  0  0  0  0  0
   44.0370   37.0710   41.6970 F   0  0  0  0  0  0  0  0  0  0  0  0
   44.8050   35.1020   40.9940 F   0  0  0  0  0  0  0  0  0  0  0  0
   47.0578   33.9960   45.1868 H   0  0  0  0  0  0  0  0  0  0  0  0
   44.4841   34.5074   46.3520 H   0  0  0  0  0  0  0  0  0  0  0  0
   43.9223   36.4369   44.7674 H   0  0  0  0  0  0  0  0  0  0  0  0
   45.8948   36.7864   43.2643 H   0  0  0  0  0  0  0  0  0  0  0  0
   46.5686   34.7662   41.8197 H   0  0  0  0  0  0  0  0  0  0  0  0
   47.3777   35.1792   43.3703 H   0  0  0  0  0  0  0  0  0  0  0  0
   45.0627   33.2095   43.1028 H   0  0  0  0  0  0  0  0  0  0  0  0
   46.7745   32.7289   43.1426 H   0  0  0  0  0  0  0  0  0  0  0  0
   45.8222   33.4196   47.5760 H   0  0  0  0  0  0  0  0  0  0  0  0
   45.9664   31.0377   44.0148 H   0  0  0  0  0  0  0  0  0  0  0  0
   45.4961   29.4209   48.9645 H   0  0  0  0  0  0  0  0  0  0  0  0
   46.9148   27.6283   46.7067 H   0  0  0  0  0  0  0  0  0  0  0  0
   46.9251   26.8806   48.0712 H   0  0  0  0  0  0  0  0  0  0  0  0
   44.3510   27.8215   46.4004 H   0  0  0  0  0  0  0  0  0  0  0  0
   43.9116   27.1073   47.7121 H   0  0  0  0  0  0  0  0  0  0  0  0
  1  2  1  0
  1  8  1  0
  3  2  2  0
  4  3  1  0
  5  4  1  0
  5  6  1  0
  6  1  1  0
  7 12  2  0
  8  7  1  0
  9  8  2  0
  9 10  1  0
 10 11  2  0
 11 12  1  0
 11 13  1  0
 14 13  1  0
 15 14  1  0
 15 13  1  0
 16 17  1  0
 16  4  1  0
 18 16  1  0
 19 16  1  0
  1 20  1  1
  2 21  1  0
  3 22  1  0
  4 23  1  1
  5 24  1  0
  5 25  1  0
  6 26  1  0
  6 27  1  0
  7 28  1  0
  9 29  1  0
 13 30  1  0
 14 31  1  0
 14 32  1  0
 15 33  1  0
 15 34  1  0
M  ISO  8  20  13  21  13  22  13  23  13  24  13  25  13  26  13  27  13
M  ISO  7  28  14  29  14  30  13  31  13  32  13  33  13  34  13
M  END
>  <minimizedAffinity>  (1) 
-4.65489244

>  <minimizedRMSD>  (1) 
1.00582492

$$$$
