
     RDKit          3D

 44 48  0  0  1  0  0  0  0  0999 V2000
   46.9430   34.5020   41.3110 C   0  0  0  0  0  0  0  0  0  0  0  0
   48.2110   34.9460   40.9730 C   0  0  0  0  0  0  0  0  0  0  0  0
   48.4700   34.6460   39.7000 N   0  0  0  0  0  0  0  0  0  0  0  0
   47.3890   34.0150   39.2090 C   0  0  0  0  0  0  0  0  0  0  0  0
   47.1460   33.4980   37.9430 C   0  0  0  0  0  0  0  0  0  0  0  0
   45.9400   32.8960   37.7090 C   0  0  0  0  0  0  0  0  0  0  0  0
   44.9330   32.7570   38.6350 C   0  0  0  0  0  0  0  0  0  0  0  0
   45.2220   33.2880   39.8840 C   0  0  0  0  0  0  0  0  0  0  0  0
   46.4040   33.9050   40.1960 C   0  0  0  0  0  0  0  0  0  0  0  0
   44.7900   35.8490   44.0540 C   0  0  0  0  0  0  0  0  0  0  0  0
   45.4260   35.7350   42.8040 C   0  0  0  0  0  0  0  0  0  0  0  0
   46.2740   34.6330   42.6150 C   0  0  0  0  0  0  0  0  0  0  0  0
   46.4550   33.7240   43.6210 N   0  0  0  0  0  0  0  0  0  0  0  0
   45.8040   33.9030   44.8060 C   0  0  0  0  0  0  0  0  0  0  0  0
   44.9860   34.9410   45.0300 N   0  0  0  0  0  0  0  0  0  0  0  0
   49.1240   35.6470   41.9060 C   0  0  0  0  0  0  0  0  0  0  0  0
   50.0170   34.6860   42.6210 C   0  0  0  0  0  0  0  0  0  0  0  0
   50.2570   33.4000   41.9110 C   0  0  1  0  0  0  0  0  0  0  0  0
   50.9980   32.2770   42.5040 C   0  0  0  0  0  0  0  0  0  0  0  0
   49.5370   32.1790   42.5630 C   0  0  2  0  0  0  0  0  0  0  0  0
   48.8530   31.2290   41.6340 C   0  0  0  0  0  0  0  0  0  0  0  0
   49.3860   31.1000   40.2440 C   0  0  0  0  0  0  0  0  0  0  0  0
   49.6440   30.0340   41.2520 C   0  0  0  0  0  0  0  0  0  0  0  0
   49.3378   34.8584   39.1874 H   0  0  0  0  0  0  0  0  0  0  0  0
   47.9037   33.5707   37.1489 H   0  0  0  0  0  0  0  0  0  0  0  0
   45.7620   32.4917   36.7016 H   0  0  0  0  0  0  0  0  0  0  0  0
   43.9765   32.2651   38.4045 H   0  0  0  0  0  0  0  0  0  0  0  0
   44.4564   33.2086   40.6699 H   0  0  0  0  0  0  0  0  0  0  0  0
   44.1170   36.6993   44.2387 H   0  0  0  0  0  0  0  0  0  0  0  0
   45.2653   36.4780   42.0089 H   0  0  0  0  0  0  0  0  0  0  0  0
   45.9561   33.1669   45.6092 H   0  0  0  0  0  0  0  0  0  0  0  0
   49.7436   36.3549   41.3360 H   0  0  0  0  0  0  0  0  0  0  0  0
   48.5150   36.1755   42.6542 H   0  0  0  0  0  0  0  0  0  0  0  0
   50.9895   35.1758   42.7771 H   0  0  0  0  0  0  0  0  0  0  0  0
   49.5017   34.4275   43.5578 H   0  0  0  0  0  0  0  0  0  0  0  0
   50.3458   33.9101   40.9405 H   0  0  0  0  0  0  0  0  0  0  0  0
   51.5569   31.5944   41.8469 H   0  0  0  0  0  0  0  0  0  0  0  0
   51.7874   32.2163   43.2676 H   0  0  0  0  0  0  0  0  0  0  0  0
   48.7970   32.0209   43.3614 H   0  0  0  0  0  0  0  0  0  0  0  0
   47.8541   31.4190   42.0536 H   0  0  0  0  0  0  0  0  0  0  0  0
   50.2071   31.7494   39.9062 H   0  0  0  0  0  0  0  0  0  0  0  0
   48.9490   31.1302   39.2350 H   0  0  0  0  0  0  0  0  0  0  0  0
   49.1496   29.0561   41.1557 H   0  0  0  0  0  0  0  0  0  0  0  0
   50.5448   29.5413   41.6468 H   0  0  0  0  0  0  0  0  0  0  0  0
  1 12  1  0
  2  1  2  0
  2 16  1  0
  3  2  1  0
  4  3  1  0
  4  9  2  0
  5  4  1  0
  6  5  2  0
  6  7  1  0
  7  8  2  0
  8  9  1  0
  9  1  1  0
 10 15  2  0
 11 10  1  0
 12 11  2  0
 12 13  1  0
 13 14  2  0
 14 15  1  0
 16 17  1  0
 18 19  1  0
 18 20  1  0
 18 17  1  0
 19 20  1  0
 21 20  1  0
 22 23  1  0
 22 21  1  0
 23 21  1  0
  3 24  1  0
  5 25  1  0
  6 26  1  0
  7 27  1  0
  8 28  1  0
 10 29  1  0
 11 30  1  0
 14 31  1  0
 16 32  1  0
 16 33  1  0
 17 34  1  0
 17 35  1  0
 18 36  1  6
 19 37  1  0
 19 38  1  0
 20 39  1  1
 21 40  1  0
 22 41  1  0
 22 42  1  0
 23 43  1  0
 23 44  1  0
M  ISO  8  24   9  25  14  26  14  27  14  28  14  29  14  30  14  31  14
M  ISO  8  32   8  33   8  34   8  35   8  36  13  37  13  38  13  39  13
M  ISO  5  40  13  41  13  42  13  43  13  44  13
M  END
>  <minimizedAffinity>  (1) 
-5.67798471

>  <minimizedRMSD>  (1) 
0.146051109

$$$$
