
     RDKit          3D

 46 49  0  0  0  0  0  0  0  0999 V2000
   46.5280   34.4370   42.0320 N   0  0  0  0  0  0  0  0  0  0  0  0
   47.6470   35.2300   41.9150 C   0  0  0  0  0  0  0  0  0  0  0  0
   48.4050   35.2290   40.7720 C   0  0  0  0  0  0  0  0  0  0  0  0
   47.9950   34.3880   39.7260 C   0  0  0  0  0  0  0  0  0  0  0  0
   48.6620   34.3600   38.6640 O   0  0  0  0  0  0  0  0  0  0  0  0
   46.8960   33.6440   39.9080 N   0  0  0  0  0  0  0  0  0  0  0  0
   46.1740   33.6640   41.0330 C   0  0  0  0  0  0  0  0  0  0  0  0
   45.1630   33.0080   41.2560 O   0  0  0  0  0  0  0  0  0  0  0  0
   46.4430   32.7740   38.8810 C   0  0  0  0  0  0  0  0  0  0  0  0
   45.5680   33.1790   37.8830 C   0  0  0  0  0  0  0  0  0  0  0  0
   45.1700   32.2720   36.9150 C   0  0  0  0  0  0  0  0  0  0  0  0
   45.6320   30.9580   36.9250 C   0  0  0  0  0  0  0  0  0  0  0  0
   46.5000   30.5920   37.9310 C   0  0  0  0  0  0  0  0  0  0  0  0
   46.9310   31.4650   38.9300 C   0  0  0  0  0  0  0  0  0  0  0  0
   47.8660   30.9960   39.9800 C   0  0  0  0  0  0  0  0  0  0  0  0
   49.3160   31.2560   39.6380 C   0  0  0  0  0  0  0  0  0  0  0  0
   50.0520   32.0600   40.6680 C   0  0  0  0  0  0  0  0  0  0  0  0
   50.0380   31.2760   41.9600 C   0  0  0  0  0  0  0  0  0  0  0  0
   48.6110   30.9700   42.2840 C   0  0  0  0  0  0  0  0  0  0  0  0
   47.6150   31.6050   41.3310 C   0  0  0  0  0  0  0  0  0  0  0  0
   44.4990   35.9070   44.7560 C   0  0  0  0  0  0  0  0  0  0  0  0
   45.0960   35.7260   43.4790 C   0  0  0  0  0  0  0  0  0  0  0  0
   45.9190   34.6240   43.3180 C   0  0  0  0  0  0  0  0  0  0  0  0
   46.1310   33.7620   44.3580 N   0  0  0  0  0  0  0  0  0  0  0  0
   45.5400   33.9710   45.5630 C   0  0  0  0  0  0  0  0  0  0  0  0
   44.7340   35.0280   45.7620 N   0  0  0  0  0  0  0  0  0  0  0  0
   47.9391   35.8774   42.7550 H   0  0  0  0  0  0  0  0  0  0  0  0
   49.2993   35.8626   40.6788 H   0  0  0  0  0  0  0  0  0  0  0  0
   45.1932   34.2129   37.8609 H   0  0  0  0  0  0  0  0  0  0  0  0
   44.4768   32.5950   36.1243 H   0  0  0  0  0  0  0  0  0  0  0  0
   45.3151   30.2374   36.1566 H   0  0  0  0  0  0  0  0  0  0  0  0
   46.8725   29.5571   37.9470 H   0  0  0  0  0  0  0  0  0  0  0  0
   47.6711   29.9143   40.0233 H   0  0  0  0  0  0  0  0  0  0  0  0
   49.8244   30.2868   39.5280 H   0  0  0  0  0  0  0  0  0  0  0  0
   49.3227   31.8462   38.7098 H   0  0  0  0  0  0  0  0  0  0  0  0
   51.0894   32.2264   40.3421 H   0  0  0  0  0  0  0  0  0  0  0  0
   49.5716   33.0398   40.8070 H   0  0  0  0  0  0  0  0  0  0  0  0
   50.6044   30.3409   41.8381 H   0  0  0  0  0  0  0  0  0  0  0  0
   50.5037   31.8560   42.7704 H   0  0  0  0  0  0  0  0  0  0  0  0
   48.4746   29.8790   42.2514 H   0  0  0  0  0  0  0  0  0  0  0  0
   48.4123   31.3905   43.2809 H   0  0  0  0  0  0  0  0  0  0  0  0
   47.7685   32.6935   41.2912 H   0  0  0  0  0  0  0  0  0  0  0  0
   46.5809   31.4267   41.6608 H   0  0  0  0  0  0  0  0  0  0  0  0
   43.8390   36.7695   44.9305 H   0  0  0  0  0  0  0  0  0  0  0  0
   44.9123   36.4306   42.6545 H   0  0  0  0  0  0  0  0  0  0  0  0
   45.7235   33.2658   46.3870 H   0  0  0  0  0  0  0  0  0  0  0  0
  1 23  1  0
  2  1  1  0
  3  2  2  0
  4  6  1  0
  4  3  1  0
  5  4  2  0
  6  7  1  0
  7  8  2  0
  7  1  1  0
  9 14  1  0
  9  6  1  0
 10  9  2  0
 11 12  2  0
 11 10  1  0
 12 13  1  0
 13 14  2  0
 14 15  1  0
 15 20  1  0
 16 15  1  0
 16 17  1  0
 17 18  1  0
 18 19  1  0
 20 19  1  0
 21 26  2  0
 22 21  1  0
 23 22  2  0
 23 24  1  0
 24 25  2  0
 25 26  1  0
  2 27  1  0
  3 28  1  0
 10 29  1  0
 11 30  1  0
 12 31  1  0
 13 32  1  0
 15 33  1  0
 16 34  1  0
 16 35  1  0
 17 36  1  0
 17 37  1  0
 18 38  1  0
 18 39  1  0
 19 40  1  0
 19 41  1  0
 20 42  1  0
 20 43  1  0
 21 44  1  0
 22 45  1  0
 25 46  1  0
M  ISO  8  27  14  28  14  29  14  30  14  31  14  32  14  33  13  34  13
M  ISO  8  35  13  36  13  37  13  38  13  39  13  40  13  41  13  42  13
M  ISO  4  43  13  44  14  45  14  46  14
M  END
>  <minimizedAffinity>  (1) 
-5.54666805

>  <minimizedRMSD>  (1) 
0.240257159

$$$$
