
     RDKit          3D

 55 58  0  0  1  0  0  0  0  0999 V2000
   43.6140   34.4700   41.1810 C   0  0  0  0  0  0  0  0  0  0  0  0
   44.8990   33.9990   40.9800 C   0  0  0  0  0  0  0  0  0  0  0  0
   45.8930   34.5300   41.8210 C   0  0  0  0  0  0  0  0  0  0  0  0
   45.5600   35.4630   42.7770 N   0  0  0  0  0  0  0  0  0  0  0  0
   44.2640   35.8910   42.9290 C   0  0  0  0  0  0  0  0  0  0  0  0
   43.3140   35.3830   42.1240 N   0  0  0  0  0  0  0  0  0  0  0  0
   47.3240   34.0870   41.7150 C   0  0  0  0  0  0  0  0  0  0  0  0
   48.1230   35.1140   40.8950 C   0  0  0  0  0  0  0  0  0  0  0  0
   49.1590   35.8110   41.6970 C   0  0  0  0  0  0  0  0  0  0  0  0
   50.0840   34.8930   42.4420 C   0  0  0  0  0  0  0  0  0  0  0  0
   49.4370   33.5550   42.7260 C   0  0  0  0  0  0  0  0  0  0  0  0
   47.9790   33.8410   43.0250 C   0  0  0  0  0  0  0  0  0  0  0  0
   42.5030   33.9690   40.3230 C   0  0  1  0  0  0  0  0  0  0  0  0
   42.7960   32.6140   39.7140 C   0  0  0  0  0  0  0  0  0  0  0  0
   41.6300   31.7320   40.0940 C   0  0  0  0  0  0  0  0  0  0  0  0
   41.2340   32.3240   41.4220 C   0  0  0  0  0  0  0  0  0  0  0  0
   41.2400   33.7930   41.1690 C   0  0  2  0  0  0  0  0  0  0  0  0
   40.0200   34.2840   40.4440 C   0  0  0  0  0  0  0  0  0  0  0  0
   40.4720   35.1700   39.3090 C   0  0  0  0  0  0  0  0  0  0  0  0
   40.3570   34.3750   38.0040 C   0  0  0  0  0  0  0  0  0  0  0  0
   38.8820   34.3060   37.6750 C   0  0  0  0  0  0  0  0  0  0  0  0
   38.2060   33.6730   38.8510 C   0  0  0  0  0  0  0  0  0  0  0  0
   39.1860   33.1650   39.8970 C   0  0  0  0  0  0  0  0  0  0  0  0
   45.1301   33.2518   40.2065 H   0  0  0  0  0  0  0  0  0  0  0  0
   44.0074   36.6365   43.6960 H   0  0  0  0  0  0  0  0  0  0  0  0
   47.3147   33.1136   41.2027 H   0  0  0  0  0  0  0  0  0  0  0  0
   47.4247   35.8640   40.4952 H   0  0  0  0  0  0  0  0  0  0  0  0
   48.6388   34.5670   40.0921 H   0  0  0  0  0  0  0  0  0  0  0  0
   49.7622   36.4305   41.0170 H   0  0  0  0  0  0  0  0  0  0  0  0
   48.6254   36.4036   42.4546 H   0  0  0  0  0  0  0  0  0  0  0  0
   50.9881   34.7303   41.8369 H   0  0  0  0  0  0  0  0  0  0  0  0
   50.3326   35.3644   43.4043 H   0  0  0  0  0  0  0  0  0  0  0  0
   49.5237   32.8965   41.8492 H   0  0  0  0  0  0  0  0  0  0  0  0
   49.9254   33.0465   43.5703 H   0  0  0  0  0  0  0  0  0  0  0  0
   47.8894   34.7289   43.6681 H   0  0  0  0  0  0  0  0  0  0  0  0
   47.5078   33.0004   43.5554 H   0  0  0  0  0  0  0  0  0  0  0  0
   42.3777   34.7122   39.5218 H   0  0  0  0  0  0  0  0  0  0  0  0
   43.7334   32.2060   40.1201 H   0  0  0  0  0  0  0  0  0  0  0  0
   42.9168   32.6779   38.6225 H   0  0  0  0  0  0  0  0  0  0  0  0
   40.8135   31.8055   39.3606 H   0  0  0  0  0  0  0  0  0  0  0  0
   41.8698   30.6591   40.1321 H   0  0  0  0  0  0  0  0  0  0  0  0
   40.2325   31.9815   41.7213 H   0  0  0  0  0  0  0  0  0  0  0  0
   41.9091   32.0290   42.2389 H   0  0  0  0  0  0  0  0  0  0  0  0
   41.2304   34.3778   42.1006 H   0  0  0  0  0  0  0  0  0  0  0  0
   39.3922   34.8337   41.1607 H   0  0  0  0  0  0  0  0  0  0  0  0
   39.8331   36.0640   39.2576 H   0  0  0  0  0  0  0  0  0  0  0  0
   41.5125   35.4893   39.4682 H   0  0  0  0  0  0  0  0  0  0  0  0
   40.9032   34.8862   37.1976 H   0  0  0  0  0  0  0  0  0  0  0  0
   40.7896   33.3692   38.1101 H   0  0  0  0  0  0  0  0  0  0  0  0
   38.4834   35.3176   37.5083 H   0  0  0  0  0  0  0  0  0  0  0  0
   38.7087   33.7225   36.7588 H   0  0  0  0  0  0  0  0  0  0  0  0
   37.5477   34.4189   39.3203 H   0  0  0  0  0  0  0  0  0  0  0  0
   37.6426   32.8047   38.4787 H   0  0  0  0  0  0  0  0  0  0  0  0
   38.6237   32.7004   40.7204 H   0  0  0  0  0  0  0  0  0  0  0  0
   39.8541   32.4312   39.4225 H   0  0  0  0  0  0  0  0  0  0  0  0
  1  6  1  0
  2  1  2  0
  2  3  1  0
  3  4  2  0
  4  5  1  0
  6  5  2  0
  7  3  1  0
  7 12  1  0
  8  9  1  0
  8  7  1  0
  9 10  1  0
 10 11  1  0
 11 12  1  0
 13 17  1  0
 13  1  1  0
 14 15  1  0
 14 13  1  0
 15 16  1  0
 17 16  1  0
 18 17  1  0
 19 18  1  0
 20 19  1  0
 21 20  1  0
 21 22  1  0
 22 23  1  0
 23 18  1  0
  2 24  1  0
  5 25  1  0
  7 26  1  0
  8 27  1  0
  8 28  1  0
  9 29  1  0
  9 30  1  0
 10 31  1  0
 10 32  1  0
 11 33  1  0
 11 34  1  0
 12 35  1  0
 12 36  1  0
 13 37  1  6
 14 38  1  0
 14 39  1  0
 15 40  1  0
 15 41  1  0
 16 42  1  0
 16 43  1  0
 17 44  1  1
 18 45  1  0
 19 46  1  0
 19 47  1  0
 20 48  1  0
 20 49  1  0
 21 50  1  0
 21 51  1  0
 22 52  1  0
 22 53  1  0
 23 54  1  0
 23 55  1  0
M  END
>  <minimizedAffinity>  (1) 
-7.17129707

>  <minimizedRMSD>  (1) 
1.83995342

$$$$
