
     RDKit          3D

 33 34  0  0  0  0  0  0  0  0999 V2000
   44.9110   35.1450   44.7620 C   0  0  0  0  0  0  0  0  0  0  0  0
   45.8810   34.7590   43.8600 C   0  0  0  0  0  0  0  0  0  0  0  0
   46.7100   33.7280   44.2190 C   0  0  0  0  0  0  0  0  0  0  0  0
   46.5500   33.1300   45.4350 N   0  0  0  0  0  0  0  0  0  0  0  0
   45.5960   33.5260   46.2970 C   0  0  0  0  0  0  0  0  0  0  0  0
   44.7760   34.5370   45.9540 N   0  0  0  0  0  0  0  0  0  0  0  0
   47.7990   33.2000   43.3940 C   0  0  0  0  0  0  0  0  0  0  0  0
   47.2270   32.5820   42.1460 C   0  0  0  0  0  0  0  0  0  0  0  0
   48.2690   31.7780   41.3980 C   0  0  0  0  0  0  0  0  0  0  0  0
   49.3680   32.7430   41.0060 C   0  0  0  0  0  0  0  0  0  0  0  0
   49.8730   33.5690   42.1530 C   0  0  0  0  0  0  0  0  0  0  0  0
   48.7660   34.2870   42.9010 C   0  0  0  0  0  0  0  0  0  0  0  0
   46.0200   35.4260   42.5540 C   0  0  0  0  0  0  0  0  0  0  0  0
   45.0930   36.4770   42.5200 F   0  0  0  0  0  0  0  0  0  0  0  0
   45.6320   34.6060   41.5080 F   0  0  0  0  0  0  0  0  0  0  0  0
   47.2740   35.9070   42.3240 F   0  0  0  0  0  0  0  0  0  0  0  0
   45.3920   32.9550   47.5380 O   0  0  0  0  0  0  0  0  0  0  0  0
   46.3580   32.1780   48.2030 C   0  0  0  0  0  0  0  0  0  0  0  0
   47.5950   32.7730   48.2410 F   0  0  0  0  0  0  0  0  0  0  0  0
   46.3800   30.9090   47.6850 F   0  0  0  0  0  0  0  0  0  0  0  0
   45.9550   32.1060   49.5510 F   0  0  0  0  0  0  0  0  0  0  0  0
   44.2319   35.9697   44.5000 H   0  0  0  0  0  0  0  0  0  0  0  0
   48.3368   32.4839   44.0328 H   0  0  0  0  0  0  0  0  0  0  0  0
   46.3953   31.9182   42.4246 H   0  0  0  0  0  0  0  0  0  0  0  0
   46.8779   33.3917   41.4884 H   0  0  0  0  0  0  0  0  0  0  0  0
   48.6735   30.9864   42.0459 H   0  0  0  0  0  0  0  0  0  0  0  0
   47.8330   31.2951   40.5111 H   0  0  0  0  0  0  0  0  0  0  0  0
   50.2092   32.1653   40.5954 H   0  0  0  0  0  0  0  0  0  0  0  0
   48.9416   33.4384   40.2680 H   0  0  0  0  0  0  0  0  0  0  0  0
   50.3988   32.9069   42.8566 H   0  0  0  0  0  0  0  0  0  0  0  0
   50.5394   34.3381   41.7354 H   0  0  0  0  0  0  0  0  0  0  0  0
   49.1818   34.8419   43.7549 H   0  0  0  0  0  0  0  0  0  0  0  0
   48.2529   35.0128   42.2530 H   0  0  0  0  0  0  0  0  0  0  0  0
  1  6  2  0
  2  3  2  0
  2  1  1  0
  3  4  1  0
  4  5  2  0
  5 17  1  0
  6  5  1  0
  7  3  1  0
  8  7  1  0
  9  8  1  0
 10  9  1  0
 10 11  1  0
 11 12  1  0
 12  7  1  0
 13  2  1  0
 14 13  1  0
 15 13  1  0
 16 13  1  0
 17 18  1  0
 18 19  1  0
 18 21  1  0
 20 18  1  0
  1 22  1  0
  7 23  1  0
  8 24  1  0
  8 25  1  0
  9 26  1  0
  9 27  1  0
 10 28  1  0
 10 29  1  0
 11 30  1  0
 11 31  1  0
 12 32  1  0
 12 33  1  0
M  ISO  8  22  14  23  13  24  13  25  13  26  13  27  13  28  13  29  13
M  ISO  4  30  13  31  13  32  13  33  13
M  END
>  <minimizedAffinity>  (1) 
-5.75019598

>  <minimizedRMSD>  (1) 
0.667398691

$$$$
