
     RDKit          3D

 48 51  0  0  1  0  0  0  0  0999 V2000
   45.6450   34.6010   42.9510 C   0  0  0  0  0  0  0  0  0  0  0  0
   45.4000   34.1290   44.2310 C   0  0  0  0  0  0  0  0  0  0  0  0
   46.5600   33.6310   44.6950 N   0  0  0  0  0  0  0  0  0  0  0  0
   47.5250   33.7690   43.7610 C   0  0  0  0  0  0  0  0  0  0  0  0
   46.9470   34.3690   42.6880 N   0  0  0  0  0  0  0  0  0  0  0  0
   47.5980   34.7140   41.4540 C   0  0  1  0  0  0  0  0  0  0  0  0
   48.8650   34.1010   41.0080 C   0  0  0  0  0  0  0  0  0  0  0  0
   47.5960   33.5950   40.4100 C   0  0  2  0  0  0  0  0  0  0  0  0
   47.1930   33.9560   39.0100 C   0  0  0  0  0  0  0  0  0  0  0  0
   48.3090   34.2230   38.0690 C   0  0  0  0  0  0  0  0  0  0  0  0
   48.8550   33.0520   37.3320 C   0  0  0  0  0  0  0  0  0  0  0  0
   47.8340   32.0480   36.9130 C   0  0  0  0  0  0  0  0  0  0  0  0
   46.8580   31.7030   38.0140 C   0  0  0  0  0  0  0  0  0  0  0  0
   46.1960   32.9440   38.5120 C   0  0  0  0  0  0  0  0  0  0  0  0
   44.5840   35.2260   42.1210 C   0  0  0  0  0  0  0  0  0  0  0  0
   43.6180   34.1210   41.6750 C   0  0  0  0  0  0  0  0  0  0  0  0
   42.7510   34.5860   39.4130 C   0  0  0  0  0  0  0  0  0  0  0  0
   42.6230   34.6990   40.7960 C   0  0  0  0  0  0  0  0  0  0  0  0
   41.5060   35.3860   41.2720 C   0  0  0  0  0  0  0  0  0  0  0  0
   40.6230   35.8950   40.3750 N   0  0  0  0  0  0  0  0  0  0  0  0
   40.7870   35.7620   39.0530 C   0  0  0  0  0  0  0  0  0  0  0  0
   41.8460   35.1110   38.5790 N   0  0  0  0  0  0  0  0  0  0  0  0
   41.2990   35.5480   42.6540 N   0  0  0  0  0  0  0  0  0  0  0  0
   44.4392   34.1565   44.7658 H   0  0  0  0  0  0  0  0  0  0  0  0
   48.5757   33.4562   43.8513 H   0  0  0  0  0  0  0  0  0  0  0  0
   47.2915   35.7661   41.5493 H   0  0  0  0  0  0  0  0  0  0  0  0
   49.5634   34.6839   40.3896 H   0  0  0  0  0  0  0  0  0  0  0  0
   49.7094   33.6247   41.5277 H   0  0  0  0  0  0  0  0  0  0  0  0
   47.1510   32.5956   40.2953 H   0  0  0  0  0  0  0  0  0  0  0  0
   46.7103   34.9435   39.0533 H   0  0  0  0  0  0  0  0  0  0  0  0
   47.9506   34.9484   37.3238 H   0  0  0  0  0  0  0  0  0  0  0  0
   49.1377   34.5817   38.6972 H   0  0  0  0  0  0  0  0  0  0  0  0
   49.3627   33.4218   36.4290 H   0  0  0  0  0  0  0  0  0  0  0  0
   49.5320   32.5349   38.0279 H   0  0  0  0  0  0  0  0  0  0  0  0
   47.2709   32.4556   36.0605 H   0  0  0  0  0  0  0  0  0  0  0  0
   48.3701   31.1249   36.6476 H   0  0  0  0  0  0  0  0  0  0  0  0
   46.0948   31.0143   37.6225 H   0  0  0  0  0  0  0  0  0  0  0  0
   47.4005   31.2241   38.8425 H   0  0  0  0  0  0  0  0  0  0  0  0
   45.6166   33.3911   37.6908 H   0  0  0  0  0  0  0  0  0  0  0  0
   45.5451   32.6665   39.3542 H   0  0  0  0  0  0  0  0  0  0  0  0
   44.0424   35.9789   42.7125 H   0  0  0  0  0  0  0  0  0  0  0  0
   45.0270   35.7225   41.2451 H   0  0  0  0  0  0  0  0  0  0  0  0
   44.1742   33.3375   41.1395 H   0  0  0  0  0  0  0  0  0  0  0  0
   43.1278   33.6757   42.5533 H   0  0  0  0  0  0  0  0  0  0  0  0
   43.6177   34.0518   38.9965 H   0  0  0  0  0  0  0  0  0  0  0  0
   40.0477   36.1901   38.3601 H   0  0  0  0  0  0  0  0  0  0  0  0
   40.4708   36.0570   42.9945 H   0  0  0  0  0  0  0  0  0  0  0  0
   41.9756   35.1576   43.3253 H   0  0  0  0  0  0  0  0  0  0  0  0
  1  2  2  0
  2  3  1  0
  4  3  2  0
  5  1  1  0
  5  4  1  0
  6  5  1  0
  7  6  1  0
  8  7  1  0
  8  6  1  0
  9  8  1  0
 10  9  1  0
 11 10  1  0
 12 11  1  0
 12 13  1  0
 13 14  1  0
 14  9  1  0
 15  1  1  0
 16 15  1  0
 17 18  2  0
 18 19  1  0
 18 16  1  0
 19 23  1  0
 20 19  2  0
 21 20  1  0
 22 21  2  0
 22 17  1  0
  2 24  1  0
  4 25  1  0
  6 26  1  6
  7 27  1  0
  7 28  1  0
  8 29  1  1
  9 30  1  0
 10 31  1  0
 10 32  1  0
 11 33  1  0
 11 34  1  0
 12 35  1  0
 12 36  1  0
 13 37  1  0
 13 38  1  0
 14 39  1  0
 14 40  1  0
 15 41  1  0
 15 42  1  0
 16 43  1  0
 16 44  1  0
 17 45  1  0
 21 46  1  0
 23 47  1  0
 23 48  1  0
M  ISO  8  24  14  25  14  26  13  27  13  28  13  29  13  30  13  31  13
M  ISO  8  32  13  33  13  34  13  35  13  36  13  37  13  38  13  39  13
M  ISO  7  40  13  41   8  42   8  43   8  44   8  45  14  46  14
M  END
>  <minimizedAffinity>  (1) 
-5.27824259

>  <minimizedRMSD>  (1) 
1.92978954

$$$$
