
     RDKit          3D

 48 50  0  0  1  0  0  0  0  0999 V2000
   46.9160   34.6690   41.1300 C   0  0  1  0  0  0  0  0  0  0  0  0
   48.2410   34.3030   40.4290 C   0  0  0  0  0  0  0  0  0  0  0  0
   47.9260   34.2660   38.9500 C   0  0  0  0  0  0  0  0  0  0  0  0
   47.2260   32.9380   38.7710 C   0  0  0  0  0  0  0  0  0  0  0  0
   46.4190   32.5290   39.9280 C   0  0  0  0  0  0  0  0  0  0  0  0
   45.9060   33.6270   40.8710 C   0  0  2  0  0  0  0  0  0  0  0  0
   44.5670   34.0610   40.3730 C   0  0  0  0  0  0  0  0  0  0  0  0
   44.0790   35.3100   41.0940 C   0  0  0  0  0  0  0  0  0  0  0  0
   42.8070   35.1540   41.8370 C   0  0  0  0  0  0  0  0  0  0  0  0
   41.7110   34.8080   40.8530 C   0  0  0  0  0  0  0  0  0  0  0  0
   42.2230   33.7460   39.9110 C   0  0  0  0  0  0  0  0  0  0  0  0
   43.4370   33.0490   40.5720 C   0  0  0  0  0  0  0  0  0  0  0  0
   47.2590   34.7960   42.6300 C   0  0  0  0  0  0  0  0  0  0  0  0
   46.8630   33.5460   43.3220 C   0  0  0  0  0  0  0  0  0  0  0  0
   46.2570   32.9860   45.6050 C   0  0  0  0  0  0  0  0  0  0  0  0
   46.0960   33.8750   44.5170 C   0  0  0  0  0  0  0  0  0  0  0  0
   45.2530   34.9520   44.6100 C   0  0  0  0  0  0  0  0  0  0  0  0
   44.6020   35.0980   45.7910 N   0  0  0  0  0  0  0  0  0  0  0  0
   44.7370   34.2640   46.8450 C   0  0  0  0  0  0  0  0  0  0  0  0
   45.5710   33.2000   46.7500 N   0  0  0  0  0  0  0  0  0  0  0  0
   46.4842   35.6095   40.7573 H   0  0  0  0  0  0  0  0  0  0  0  0
   49.0083   35.0628   40.6387 H   0  0  0  0  0  0  0  0  0  0  0  0
   48.6350   33.3393   40.7840 H   0  0  0  0  0  0  0  0  0  0  0  0
   47.2660   35.0995   38.6677 H   0  0  0  0  0  0  0  0  0  0  0  0
   48.8212   34.3668   38.3188 H   0  0  0  0  0  0  0  0  0  0  0  0
   46.5640   33.0109   37.8955 H   0  0  0  0  0  0  0  0  0  0  0  0
   48.0112   32.1780   38.6452 H   0  0  0  0  0  0  0  0  0  0  0  0
   45.5400   31.9927   39.5410 H   0  0  0  0  0  0  0  0  0  0  0  0
   47.1063   31.9333   40.5467 H   0  0  0  0  0  0  0  0  0  0  0  0
   45.7439   33.2531   41.8927 H   0  0  0  0  0  0  0  0  0  0  0  0
   44.7530   34.2120   39.2994 H   0  0  0  0  0  0  0  0  0  0  0  0
   44.8562   35.6147   41.8104 H   0  0  0  0  0  0  0  0  0  0  0  0
   43.8849   36.0578   40.3110 H   0  0  0  0  0  0  0  0  0  0  0  0
   42.9075   34.3474   42.5781 H   0  0  0  0  0  0  0  0  0  0  0  0
   42.5604   36.0900   42.3595 H   0  0  0  0  0  0  0  0  0  0  0  0
   40.8326   34.4288   41.3958 H   0  0  0  0  0  0  0  0  0  0  0  0
   41.4212   35.7043   40.2849 H   0  0  0  0  0  0  0  0  0  0  0  0
   42.5319   34.2089   38.9622 H   0  0  0  0  0  0  0  0  0  0  0  0
   41.4314   33.0105   39.7052 H   0  0  0  0  0  0  0  0  0  0  0  0
   43.6667   32.0968   40.0715 H   0  0  0  0  0  0  0  0  0  0  0  0
   43.2667   32.7923   41.6280 H   0  0  0  0  0  0  0  0  0  0  0  0
   48.3407   34.9568   42.7489 H   0  0  0  0  0  0  0  0  0  0  0  0
   46.7178   35.6494   43.0645 H   0  0  0  0  0  0  0  0  0  0  0  0
   46.2468   32.9330   42.6479 H   0  0  0  0  0  0  0  0  0  0  0  0
   47.7641   32.9834   43.6077 H   0  0  0  0  0  0  0  0  0  0  0  0
   46.9366   32.1252   45.5200 H   0  0  0  0  0  0  0  0  0  0  0  0
   45.1128   35.6560   43.7764 H   0  0  0  0  0  0  0  0  0  0  0  0
   44.1747   34.4469   47.7726 H   0  0  0  0  0  0  0  0  0  0  0  0
  1 13  1  0
  2  1  1  0
  3  2  1  0
  4  3  1  0
  4  5  1  0
  5  6  1  0
  6  1  1  0
  7 12  1  0
  7  6  1  0
  7  8  1  0
  8  9  1  0
 10  9  1  0
 11 12  1  0
 11 10  1  0
 13 14  1  0
 14 16  1  0
 15 20  2  0
 16 17  2  0
 16 15  1  0
 17 18  1  0
 18 19  2  0
 20 19  1  0
  1 21  1  6
  2 22  1  0
  2 23  1  0
  3 24  1  0
  3 25  1  0
  4 26  1  0
  4 27  1  0
  5 28  1  0
  5 29  1  0
  6 30  1  1
  7 31  1  0
  8 32  1  0
  8 33  1  0
  9 34  1  0
  9 35  1  0
 10 36  1  0
 10 37  1  0
 11 38  1  0
 11 39  1  0
 12 40  1  0
 12 41  1  0
 13 42  1  0
 13 43  1  0
 14 44  1  0
 14 45  1  0
 15 46  1  0
 17 47  1  0
 19 48  1  0
M  ISO  8  21  13  22  13  23  13  24  13  25  13  26  13  27  13  28  13
M  ISO  8  29  13  30  13  31  13  32  13  33  13  34  13  35  13  36  13
M  ISO  8  37  13  38  13  39  13  40  13  41  13  42   8  43   8  44   8
M  ISO  4  45   8  46  14  47  14  48  14
M  END
>  <minimizedAffinity>  (1) 
-4.81027365

>  <minimizedRMSD>  (1) 
3.0872643

$$$$
