
     RDKit          3D

 45 47  0  0  1  0  0  0  0  0999 V2000
   47.2130   34.2120   40.1730 C   0  0  1  0  0  0  0  0  0  0  0  0
   48.2120   34.3350   39.0240 C   0  0  0  0  0  0  0  0  0  0  0  0
   47.5400   33.7810   37.7920 C   0  0  0  0  0  0  0  0  0  0  0  0
   47.3990   32.2890   37.9600 C   0  0  0  0  0  0  0  0  0  0  0  0
   47.5650   31.8890   39.3960 C   0  0  0  0  0  0  0  0  0  0  0  0
   46.7730   32.8160   40.3570 C   0  0  2  0  0  0  0  0  0  0  0  0
   45.3630   32.5390   39.9350 C   0  0  0  0  0  0  0  0  0  0  0  0
   44.6100   31.5430   40.7260 C   0  0  0  0  0  0  0  0  0  0  0  0
   43.9890   32.3470   41.8530 C   0  0  0  0  0  0  0  0  0  0  0  0
   43.5320   33.5890   41.1040 C   0  0  0  0  0  0  0  0  0  0  0  0
   44.3990   33.6640   39.8540 C   0  0  0  0  0  0  0  0  0  0  0  0
   47.8520   34.8200   41.4320 C   0  0  0  0  0  0  0  0  0  0  0  0
   47.5390   33.9610   42.5890 C   0  0  0  0  0  0  0  0  0  0  0  0
   46.1620   33.9120   44.5970 C   0  0  0  0  0  0  0  0  0  0  0  0
   46.4920   34.5730   43.3950 C   0  0  0  0  0  0  0  0  0  0  0  0
   45.8250   35.7150   43.0270 C   0  0  0  0  0  0  0  0  0  0  0  0
   44.8570   36.1560   43.8710 N   0  0  0  0  0  0  0  0  0  0  0  0
   44.5300   35.5320   45.0290 C   0  0  0  0  0  0  0  0  0  0  0  0
   45.1910   34.4030   45.3860 N   0  0  0  0  0  0  0  0  0  0  0  0
   46.2942   34.7721   39.9449 H   0  0  0  0  0  0  0  0  0  0  0  0
   48.4781   35.3906   38.8665 H   0  0  0  0  0  0  0  0  0  0  0  0
   49.1367   33.7829   39.2478 H   0  0  0  0  0  0  0  0  0  0  0  0
   48.1521   33.9992   36.9045 H   0  0  0  0  0  0  0  0  0  0  0  0
   46.5504   34.2427   37.6600 H   0  0  0  0  0  0  0  0  0  0  0  0
   46.4010   31.9813   37.6145 H   0  0  0  0  0  0  0  0  0  0  0  0
   48.1829   31.7951   37.3670 H   0  0  0  0  0  0  0  0  0  0  0  0
   47.2038   30.8575   39.5207 H   0  0  0  0  0  0  0  0  0  0  0  0
   48.6323   31.9721   39.6490 H   0  0  0  0  0  0  0  0  0  0  0  0
   46.9128   32.6435   41.4344 H   0  0  0  0  0  0  0  0  0  0  0  0
   45.6490   32.1852   38.9335 H   0  0  0  0  0  0  0  0  0  0  0  0
   43.8310   31.0670   40.1123 H   0  0  0  0  0  0  0  0  0  0  0  0
   45.2515   30.7295   41.0956 H   0  0  0  0  0  0  0  0  0  0  0  0
   43.1410   31.8153   42.3092 H   0  0  0  0  0  0  0  0  0  0  0  0
   44.6681   32.5486   42.6945 H   0  0  0  0  0  0  0  0  0  0  0  0
   42.4706   33.5013   40.8290 H   0  0  0  0  0  0  0  0  0  0  0  0
   43.6336   34.4937   41.7214 H   0  0  0  0  0  0  0  0  0  0  0  0
   44.9372   34.6228   39.8230 H   0  0  0  0  0  0  0  0  0  0  0  0
   43.7863   33.5950   38.9430 H   0  0  0  0  0  0  0  0  0  0  0  0
   48.9425   34.8795   41.3006 H   0  0  0  0  0  0  0  0  0  0  0  0
   47.4541   35.8316   41.6004 H   0  0  0  0  0  0  0  0  0  0  0  0
   47.1962   32.9789   42.2313 H   0  0  0  0  0  0  0  0  0  0  0  0
   48.4432   33.8395   43.2035 H   0  0  0  0  0  0  0  0  0  0  0  0
   46.6983   32.9967   44.8878 H   0  0  0  0  0  0  0  0  0  0  0  0
   46.0631   36.2468   42.0940 H   0  0  0  0  0  0  0  0  0  0  0  0
   43.7359   35.9376   45.6731 H   0  0  0  0  0  0  0  0  0  0  0  0
  1  6  1  0
  1 12  1  0
  2  1  1  0
  3  4  1  0
  3  2  1  0
  4  5  1  0
  5  6  1  0
  7  6  1  0
  7  8  1  0
  8  9  1  0
 10  9  1  0
 11  7  1  0
 11 10  1  0
 12 13  1  0
 13 15  1  0
 14 19  2  0
 15 14  1  0
 16 15  2  0
 16 17  1  0
 17 18  2  0
 18 19  1  0
  1 20  1  6
  2 21  1  0
  2 22  1  0
  3 23  1  0
  3 24  1  0
  4 25  1  0
  4 26  1  0
  5 27  1  0
  5 28  1  0
  6 29  1  1
  7 30  1  0
  8 31  1  0
  8 32  1  0
  9 33  1  0
  9 34  1  0
 10 35  1  0
 10 36  1  0
 11 37  1  0
 11 38  1  0
 12 39  1  0
 12 40  1  0
 13 41  1  0
 13 42  1  0
 14 43  1  0
 16 44  1  0
 18 45  1  0
M  ISO  8  20  13  21  13  22  13  23  13  24  13  25  13  26  13  27  13
M  ISO  8  28  13  29  13  30  13  31  13  32  13  33  13  34  13  35  13
M  ISO  8  36  13  37  13  38  13  39   8  40   8  41   8  42   8  43  14
M  ISO  2  44  14  45  14
M  END
>  <minimizedAffinity>  (1) 
-4.47434378

>  <minimizedRMSD>  (1) 
2.00114679

$$$$
