
     RDKit          3D

 43 46  0  0  0  0  0  0  0  0999 V2000
   42.8260   35.4680   41.6600 C   0  0  0  0  0  0  0  0  0  0  0  0
   42.9020   34.6020   40.5550 C   0  0  0  0  0  0  0  0  0  0  0  0
   43.9440   33.6890   40.5310 C   0  0  0  0  0  0  0  0  0  0  0  0
   44.8470   33.6660   41.5720 N   0  0  0  0  0  0  0  0  0  0  0  0
   44.7280   34.5110   42.6000 C   0  0  0  0  0  0  0  0  0  0  0  0
   43.7320   35.4020   42.6460 N   0  0  0  0  0  0  0  0  0  0  0  0
   44.0240   32.8120   39.4140 N   0  0  0  0  0  0  0  0  0  0  0  0
   44.6560   33.2320   38.2970 C   0  0  0  0  0  0  0  0  0  0  0  0
   44.7160   32.3620   37.2400 C   0  0  0  0  0  0  0  0  0  0  0  0
   44.1580   31.0870   37.2730 C   0  0  0  0  0  0  0  0  0  0  0  0
   44.2630   30.3720   36.2640 O   0  0  0  0  0  0  0  0  0  0  0  0
   43.5350   30.7060   38.4070 N   0  0  0  0  0  0  0  0  0  0  0  0
   43.4750   31.5580   39.4460 C   0  0  0  0  0  0  0  0  0  0  0  0
   42.8890   31.1610   40.4730 O   0  0  0  0  0  0  0  0  0  0  0  0
   45.4280   32.8640   36.0130 C   0  0  0  0  0  0  0  0  0  0  0  0
   41.9200   34.7380   39.5690 N   0  0  0  0  0  0  0  0  0  0  0  0
   42.2050   35.2180   38.3920 N   0  0  0  0  0  0  0  0  0  0  0  0
   41.0860   35.2470   37.6280 C   0  0  0  0  0  0  0  0  0  0  0  0
   40.0740   34.7350   38.4490 C   0  0  0  0  0  0  0  0  0  0  0  0
   40.6330   34.4190   39.6830 C   0  0  0  0  0  0  0  0  0  0  0  0
   39.8760   33.8480   40.8240 C   0  0  0  0  0  0  0  0  0  0  0  0
   40.5080   32.6030   41.3460 C   0  0  0  0  0  0  0  0  0  0  0  0
   39.5580   31.4760   41.0520 C   0  0  0  0  0  0  0  0  0  0  0  0
   38.2040   32.0760   40.8180 C   0  0  0  0  0  0  0  0  0  0  0  0
   38.4570   33.4960   40.4340 C   0  0  0  0  0  0  0  0  0  0  0  0
   42.0141   36.2080   41.7162 H   0  0  0  0  0  0  0  0  0  0  0  0
   45.4599   34.4732   43.4203 H   0  0  0  0  0  0  0  0  0  0  0  0
   45.1055   34.2342   38.2379 H   0  0  0  0  0  0  0  0  0  0  0  0
   43.1090   29.7708   38.4767 H   0  0  0  0  0  0  0  0  0  0  0  0
   46.2926   33.4736   36.3144 H   0  0  0  0  0  0  0  0  0  0  0  0
   45.7735   32.0086   35.4138 H   0  0  0  0  0  0  0  0  0  0  0  0
   44.7384   33.4767   35.4138 H   0  0  0  0  0  0  0  0  0  0  0  0
   40.9931   35.5966   36.5892 H   0  0  0  0  0  0  0  0  0  0  0  0
   39.0188   34.6050   38.1669 H   0  0  0  0  0  0  0  0  0  0  0  0
   39.8801   34.6294   41.5982 H   0  0  0  0  0  0  0  0  0  0  0  0
   41.4705   32.4276   40.8431 H   0  0  0  0  0  0  0  0  0  0  0  0
   40.7029   32.6827   42.4257 H   0  0  0  0  0  0  0  0  0  0  0  0
   39.8875   30.9317   40.1547 H   0  0  0  0  0  0  0  0  0  0  0  0
   39.5271   30.7668   41.8923 H   0  0  0  0  0  0  0  0  0  0  0  0
   37.6836   31.5455   40.0070 H   0  0  0  0  0  0  0  0  0  0  0  0
   37.5657   32.0026   41.7109 H   0  0  0  0  0  0  0  0  0  0  0  0
   38.3290   33.6161   39.3481 H   0  0  0  0  0  0  0  0  0  0  0  0
   37.7468   34.1600   40.9484 H   0  0  0  0  0  0  0  0  0  0  0  0
  1  6  2  0
  2  1  1  0
  3  2  2  0
  3  4  1  0
  4  5  2  0
  5  6  1  0
  7 13  1  0
  7  3  1  0
  8  7  1  0
  9 10  1  0
  9  8  2  0
 10 12  1  0
 11 10  2  0
 12 13  1  0
 13 14  2  0
 15  9  1  0
 16 20  1  0
 16  2  1  0
 17 16  1  0
 18 17  2  0
 18 19  1  0
 19 20  2  0
 20 21  1  0
 21 22  1  0
 23 22  1  0
 24 23  1  0
 25 24  1  0
 25 21  1  0
  1 26  1  0
  5 27  1  0
  8 28  1  0
 12 29  1  0
 15 30  1  0
 15 31  1  0
 15 32  1  0
 18 33  1  0
 19 34  1  0
 21 35  1  0
 22 36  1  0
 22 37  1  0
 23 38  1  0
 23 39  1  0
 24 40  1  0
 24 41  1  0
 25 42  1  0
 25 43  1  0
M  ISO  8  26  14  27  14  28  14  29   9  30   8  31   8  32   8  33  14
M  ISO  8  34  14  35  13  36  13  37  13  38  13  39  13  40  13  41  13
M  ISO  2  42  13  43  13
M  END
>  <minimizedAffinity>  (1) 
-4.97534847

>  <minimizedRMSD>  (1) 
3.4949615

$$$$
