
     RDKit          3D

 39 41  0  0  0  0  0  0  0  0999 V2000
   47.6560   34.3440   41.9710 C   0  0  0  0  0  0  0  0  0  0  0  0
   48.7190   35.4030   41.9180 C   0  0  0  0  0  0  0  0  0  0  0  0
   50.0060   35.0640   42.6180 C   0  0  0  0  0  0  0  0  0  0  0  0
   50.4970   33.6760   42.3490 C   0  0  0  0  0  0  0  0  0  0  0  0
   49.5010   32.8110   41.6250 C   0  0  0  0  0  0  0  0  0  0  0  0
   48.1960   32.9940   42.3630 C   0  0  0  0  0  0  0  0  0  0  0  0
   45.4750   34.2840   44.9490 C   0  0  0  0  0  0  0  0  0  0  0  0
   44.6560   35.4060   44.7780 C   0  0  0  0  0  0  0  0  0  0  0  0
   44.8430   36.1890   43.6460 C   0  0  0  0  0  0  0  0  0  0  0  0
   45.8240   35.8000   42.7730 N   0  0  0  0  0  0  0  0  0  0  0  0
   46.5970   34.7290   42.9460 C   0  0  0  0  0  0  0  0  0  0  0  0
   46.4180   33.9740   44.0370 N   0  0  0  0  0  0  0  0  0  0  0  0
   46.9890   34.1480   40.6250 C   0  0  0  0  0  0  0  0  0  0  0  0
   47.9010   34.1930   39.4560 C   0  0  0  0  0  0  0  0  0  0  0  0
   47.0900   33.5460   38.3560 C   0  0  0  0  0  0  0  0  0  0  0  0
   45.9610   32.8130   39.0130 C   0  0  0  0  0  0  0  0  0  0  0  0
   46.2920   32.8160   40.5150 C   0  0  0  0  0  0  0  0  0  0  0  0
   48.9498   35.5989   40.8605 H   0  0  0  0  0  0  0  0  0  0  0  0
   48.3058   36.2726   42.4501 H   0  0  0  0  0  0  0  0  0  0  0  0
   50.7777   35.7744   42.2866 H   0  0  0  0  0  0  0  0  0  0  0  0
   49.8077   35.1281   43.6981 H   0  0  0  0  0  0  0  0  0  0  0  0
   51.4085   33.7428   41.7368 H   0  0  0  0  0  0  0  0  0  0  0  0
   50.6807   33.2053   43.3261 H   0  0  0  0  0  0  0  0  0  0  0  0
   49.3996   33.1348   40.5786 H   0  0  0  0  0  0  0  0  0  0  0  0
   49.8143   31.7568   41.6053 H   0  0  0  0  0  0  0  0  0  0  0  0
   48.3672   32.9561   43.4489 H   0  0  0  0  0  0  0  0  0  0  0  0
   47.4838   32.1959   42.1063 H   0  0  0  0  0  0  0  0  0  0  0  0
   45.3478   33.6481   45.8375 H   0  0  0  0  0  0  0  0  0  0  0  0
   43.8850   35.6609   45.5200 H   0  0  0  0  0  0  0  0  0  0  0  0
   44.2297   37.0828   43.4588 H   0  0  0  0  0  0  0  0  0  0  0  0
   46.2925   34.9988   40.5928 H   0  0  0  0  0  0  0  0  0  0  0  0
   48.1587   35.2306   39.1972 H   0  0  0  0  0  0  0  0  0  0  0  0
   48.8598   33.6858   39.6387 H   0  0  0  0  0  0  0  0  0  0  0  0
   47.7172   32.8424   37.7889 H   0  0  0  0  0  0  0  0  0  0  0  0
   46.7093   34.3025   37.6540 H   0  0  0  0  0  0  0  0  0  0  0  0
   45.0074   33.3292   38.8279 H   0  0  0  0  0  0  0  0  0  0  0  0
   45.8524   31.7914   38.6198 H   0  0  0  0  0  0  0  0  0  0  0  0
   45.3832   32.7781   41.1337 H   0  0  0  0  0  0  0  0  0  0  0  0
   46.8809   31.9542   40.8620 H   0  0  0  0  0  0  0  0  0  0  0  0
  1  6  1  0
  1 11  1  0
  2  1  1  0
  2  3  1  0
  4  3  1  0
  5  4  1  0
  5  6  1  0
  8  7  2  0
  9  8  1  0
 10 11  1  0
 10  9  2  0
 11 12  2  0
 12  7  1  0
 13  1  1  0
 14 13  1  0
 15 16  1  0
 15 14  1  0
 16 17  1  0
 17 13  1  0
  2 18  1  0
  2 19  1  0
  3 20  1  0
  3 21  1  0
  4 22  1  0
  4 23  1  0
  5 24  1  0
  5 25  1  0
  6 26  1  0
  6 27  1  0
  7 28  1  0
  8 29  1  0
  9 30  1  0
 13 31  1  0
 14 32  1  0
 14 33  1  0
 15 34  1  0
 15 35  1  0
 16 36  1  0
 16 37  1  0
 17 38  1  0
 17 39  1  0
M  ISO  8  18  13  19  13  20  13  21  13  22  13  23  13  24  13  25  13
M  ISO  8  26  13  27  13  28  14  29  14  30  14  31  13  32  13  33  13
M  ISO  6  34  13  35  13  36  13  37  13  38  13  39  13
M  END
>  <minimizedAffinity>  (1) 
-5.57537889

>  <minimizedRMSD>  (1) 
0.973295093

$$$$
