
     RDKit          3D

 36 38  0  0  1  0  0  0  0  0999 V2000
   43.3370   35.2950   41.4000 C   0  0  2  0  0  0  0  0  0  0  0  0
   41.7950   35.1790   41.5230 C   0  0  0  0  0  0  0  0  0  0  0  0
   41.4430   35.6580   40.1140 C   0  0  1  0  0  0  0  0  0  0  0  0
   42.4060   34.8660   39.2820 C   0  0  0  0  0  0  0  0  0  0  0  0
   43.5440   34.4740   40.2030 C   0  0  0  0  0  0  0  0  0  0  0  0
   44.1400   35.8300   43.6470 C   0  0  0  0  0  0  0  0  0  0  0  0
   44.0270   34.8760   42.6210 C   0  0  0  0  0  0  0  0  0  0  0  0
   44.5950   33.5800   42.7940 C   0  0  0  0  0  0  0  0  0  0  0  0
   45.2320   33.3250   43.9680 N   0  0  0  0  0  0  0  0  0  0  0  0
   45.3270   34.2680   44.9470 C   0  0  0  0  0  0  0  0  0  0  0  0
   44.7910   35.5090   44.7980 N   0  0  0  0  0  0  0  0  0  0  0  0
   40.0190   35.2970   39.8040 C   0  0  0  0  0  0  0  0  0  0  0  0
   39.5620   34.1170   40.6360 C   0  0  0  0  0  0  0  0  0  0  0  0
   38.3460   33.6550   39.8630 C   0  0  0  0  0  0  0  0  0  0  0  0
   38.7150   33.8400   38.3970 C   0  0  0  0  0  0  0  0  0  0  0  0
   39.9190   34.7600   38.3950 C   0  0  0  0  0  0  0  0  0  0  0  0
   43.7559   36.3065   41.2934 H   0  0  0  0  0  0  0  0  0  0  0  0
   41.4667   34.1455   41.7077 H   0  0  0  0  0  0  0  0  0  0  0  0
   41.3304   35.7296   42.3543 H   0  0  0  0  0  0  0  0  0  0  0  0
   41.5191   36.7436   39.9536 H   0  0  0  0  0  0  0  0  0  0  0  0
   41.9136   33.9675   38.8817 H   0  0  0  0  0  0  0  0  0  0  0  0
   42.7697   35.4526   38.4255 H   0  0  0  0  0  0  0  0  0  0  0  0
   43.4942   33.4034   40.4508 H   0  0  0  0  0  0  0  0  0  0  0  0
   44.5312   34.6369   39.7459 H   0  0  0  0  0  0  0  0  0  0  0  0
   43.7040   36.8319   43.5201 H   0  0  0  0  0  0  0  0  0  0  0  0
   44.5208   32.8148   42.0072 H   0  0  0  0  0  0  0  0  0  0  0  0
   45.8506   34.0191   45.8818 H   0  0  0  0  0  0  0  0  0  0  0  0
   39.4280   36.2072   39.9837 H   0  0  0  0  0  0  0  0  0  0  0  0
   40.3325   33.3331   40.6787 H   0  0  0  0  0  0  0  0  0  0  0  0
   39.3573   34.3630   41.6884 H   0  0  0  0  0  0  0  0  0  0  0  0
   38.1311   32.5976   40.0768 H   0  0  0  0  0  0  0  0  0  0  0  0
   37.4438   34.2220   40.1360 H   0  0  0  0  0  0  0  0  0  0  0  0
   38.9698   32.8725   37.9398 H   0  0  0  0  0  0  0  0  0  0  0  0
   37.8803   34.2593   37.8161 H   0  0  0  0  0  0  0  0  0  0  0  0
   40.8291   34.2015   38.1309 H   0  0  0  0  0  0  0  0  0  0  0  0
   39.8136   35.5685   37.6566 H   0  0  0  0  0  0  0  0  0  0  0  0
  1  2  1  0
  1  7  1  0
  3  2  1  0
  4  3  1  0
  4  5  1  0
  5  1  1  0
  6 11  2  0
  7  8  2  0
  7  6  1  0
  8  9  1  0
  9 10  2  0
 11 10  1  0
 12  3  1  0
 12 13  1  0
 14 13  1  0
 15 14  1  0
 16 15  1  0
 16 12  1  0
  1 17  1  6
  2 18  1  0
  2 19  1  0
  3 20  1  1
  4 21  1  0
  4 22  1  0
  5 23  1  0
  5 24  1  0
  6 25  1  0
  8 26  1  0
 10 27  1  0
 12 28  1  0
 13 29  1  0
 13 30  1  0
 14 31  1  0
 14 32  1  0
 15 33  1  0
 15 34  1  0
 16 35  1  0
 16 36  1  0
M  ISO  8  17  13  18  13  19  13  20  13  21  13  22  13  23  13  24  13
M  ISO  8  25  14  26  14  27  14  28  13  29  13  30  13  31  13  32  13
M  ISO  4  33  13  34  13  35  13  36  13
M  END
>  <minimizedAffinity>  (1) 
-5.67865515

>  <minimizedRMSD>  (1) 
1.40588129

$$$$
