
     RDKit          3D

 40 42  0  0  1  0  0  0  0  0999 V2000
   46.3850   33.4150   44.7940 C   0  0  2  0  0  0  0  0  0  0  0  0
   45.2340   34.2760   45.2530 C   0  0  0  0  0  0  0  0  0  0  0  0
   44.8300   35.3500   44.3780 C   0  0  0  0  0  0  0  0  0  0  0  0
   45.5070   35.5840   43.1150 C   0  0  1  0  0  0  0  0  0  0  0  0
   46.6810   34.7350   42.8090 C   0  0  0  0  0  0  0  0  0  0  0  0
   46.4420   33.3400   43.3080 C   0  0  0  0  0  0  0  0  0  0  0  0
   45.8990   32.0990   46.7990 C   0  0  0  0  0  0  0  0  0  0  0  0
   46.3630   32.1450   45.4970 C   0  0  0  0  0  0  0  0  0  0  0  0
   46.7960   30.9400   44.9430 C   0  0  0  0  0  0  0  0  0  0  0  0
   46.7580   29.7920   45.6560 N   0  0  0  0  0  0  0  0  0  0  0  0
   46.2950   29.7790   46.9380 C   0  0  0  0  0  0  0  0  0  0  0  0
   45.8700   30.9310   47.4990 N   0  0  0  0  0  0  0  0  0  0  0  0
   46.2700   28.5060   47.6840 C   0  0  0  0  0  0  0  0  0  0  0  0
   44.9180   27.8170   47.5810 C   0  0  0  0  0  0  0  0  0  0  0  0
   45.2520   26.4850   48.2480 C   0  0  0  0  0  0  0  0  0  0  0  0
   46.6800   26.1920   47.8100 C   0  0  0  0  0  0  0  0  0  0  0  0
   47.2070   27.4620   47.1750 C   0  0  0  0  0  0  0  0  0  0  0  0
   44.4610   35.4630   41.9940 C   0  0  0  0  0  0  0  0  0  0  0  0
   43.3540   34.7410   42.3770 F   0  0  0  0  0  0  0  0  0  0  0  0
   44.0090   36.7580   41.7120 F   0  0  0  0  0  0  0  0  0  0  0  0
   45.0460   34.9650   40.8510 F   0  0  0  0  0  0  0  0  0  0  0  0
   47.3461   33.8757   45.0663 H   0  0  0  0  0  0  0  0  0  0  0  0
   44.7258   34.0932   46.2113 H   0  0  0  0  0  0  0  0  0  0  0  0
   43.9950   36.0025   44.6728 H   0  0  0  0  0  0  0  0  0  0  0  0
   45.9444   36.5900   43.1963 H   0  0  0  0  0  0  0  0  0  0  0  0
   46.8412   34.7114   41.7210 H   0  0  0  0  0  0  0  0  0  0  0  0
   47.5701   35.1514   43.3051 H   0  0  0  0  0  0  0  0  0  0  0  0
   45.4908   32.9546   42.9121 H   0  0  0  0  0  0  0  0  0  0  0  0
   47.2431   32.6619   42.9788 H   0  0  0  0  0  0  0  0  0  0  0  0
   45.5464   33.0240   47.2787 H   0  0  0  0  0  0  0  0  0  0  0  0
   47.1741   30.9237   43.9102 H   0  0  0  0  0  0  0  0  0  0  0  0
   46.5413   28.8282   48.7002 H   0  0  0  0  0  0  0  0  0  0  0  0
   44.1373   28.3645   48.1295 H   0  0  0  0  0  0  0  0  0  0  0  0
   44.5134   27.7375   46.5612 H   0  0  0  0  0  0  0  0  0  0  0  0
   45.1903   26.5713   49.3429 H   0  0  0  0  0  0  0  0  0  0  0  0
   44.5527   25.6853   47.9626 H   0  0  0  0  0  0  0  0  0  0  0  0
   47.2954   25.9190   48.6799 H   0  0  0  0  0  0  0  0  0  0  0  0
   46.7131   25.3510   47.1017 H   0  0  0  0  0  0  0  0  0  0  0  0
   47.1708   27.3996   46.0774 H   0  0  0  0  0  0  0  0  0  0  0  0
   48.2591   27.6661   47.4227 H   0  0  0  0  0  0  0  0  0  0  0  0
  1  2  1  0
  1  8  1  0
  3  2  2  0
  4  3  1  0
  5  4  1  0
  5  6  1  0
  6  1  1  0
  7 12  2  0
  8  7  1  0
  9  8  2  0
  9 10  1  0
 10 11  2  0
 11 12  1  0
 11 13  1  0
 14 13  1  0
 14 15  1  0
 16 15  1  0
 17 13  1  0
 17 16  1  0
 18 19  1  0
 18  4  1  0
 20 18  1  0
 21 18  1  0
  1 22  1  1
  2 23  1  0
  3 24  1  0
  4 25  1  1
  5 26  1  0
  5 27  1  0
  6 28  1  0
  6 29  1  0
  7 30  1  0
  9 31  1  0
 13 32  1  0
 14 33  1  0
 14 34  1  0
 15 35  1  0
 15 36  1  0
 16 37  1  0
 16 38  1  0
 17 39  1  0
 17 40  1  0
M  ISO  8  22  13  23  13  24  13  25  13  26  13  27  13  28  13  29  13
M  ISO  8  30  14  31  14  32  13  33  13  34  13  35  13  36  13  37  13
M  ISO  3  38  13  39  13  40  13
M  END
>  <minimizedAffinity>  (1) 
-4.87155962

>  <minimizedRMSD>  (1) 
1.4385227

$$$$
