
     RDKit          3D

 45 48  0  0  0  0  0  0  0  0999 V2000
   44.5520   35.8400   44.5870 C   0  0  0  0  0  0  0  0  0  0  0  0
   45.1710   35.8150   43.3280 C   0  0  0  0  0  0  0  0  0  0  0  0
   46.1060   34.8250   43.0710 C   0  0  0  0  0  0  0  0  0  0  0  0
   46.3840   33.9210   44.0550 N   0  0  0  0  0  0  0  0  0  0  0  0
   45.7690   33.9700   45.2650 C   0  0  0  0  0  0  0  0  0  0  0  0
   44.8540   34.9340   45.5250 N   0  0  0  0  0  0  0  0  0  0  0  0
   46.0760   32.9950   46.2990 C   0  0  0  0  0  0  0  0  0  0  0  0
   45.3900   33.0070   47.5000 C   0  0  0  0  0  0  0  0  0  0  0  0
   45.6300   32.1090   48.5160 C   0  0  0  0  0  0  0  0  0  0  0  0
   46.5950   31.2060   48.2460 C   0  0  0  0  0  0  0  0  0  0  0  0
   47.3250   31.1430   47.0530 C   0  0  0  0  0  0  0  0  0  0  0  0
   47.0110   32.0680   46.1260 N   0  0  0  0  0  0  0  0  0  0  0  0
   44.4000   34.0010   47.6770 N   0  0  0  0  0  0  0  0  0  0  0  0
   46.7620   34.7900   41.7460 C   0  0  0  0  0  0  0  0  0  0  0  0
   48.1410   35.4200   41.7800 C   0  0  0  0  0  0  0  0  0  0  0  0
   49.2070   34.4040   41.8060 C   0  0  0  0  0  0  0  0  0  0  0  0
   50.2620   34.5170   42.6050 N   0  0  0  0  0  0  0  0  0  0  0  0
   51.0260   33.4900   42.4190 O   0  0  0  0  0  0  0  0  0  0  0  0
   50.5090   32.6890   41.5120 C   0  0  0  0  0  0  0  0  0  0  0  0
   49.3580   33.2670   41.1250 N   0  0  0  0  0  0  0  0  0  0  0  0
   50.9790   31.3900   40.9380 C   0  0  0  0  0  0  0  0  0  0  0  0
   52.3900   31.4500   40.4590 C   0  0  0  0  0  0  0  0  0  0  0  0
   52.3290   31.3360   38.9730 C   0  0  0  0  0  0  0  0  0  0  0  0
   51.0030   30.7290   38.6110 C   0  0  0  0  0  0  0  0  0  0  0  0
   50.1030   31.0110   39.7870 C   0  0  0  0  0  0  0  0  0  0  0  0
   43.8057   36.6176   44.8070 H   0  0  0  0  0  0  0  0  0  0  0  0
   44.9198   36.5640   42.5626 H   0  0  0  0  0  0  0  0  0  0  0  0
   45.0804   32.1266   49.4687 H   0  0  0  0  0  0  0  0  0  0  0  0
   46.8261   30.4621   49.0227 H   0  0  0  0  0  0  0  0  0  0  0  0
   48.1052   30.3863   46.8837 H   0  0  0  0  0  0  0  0  0  0  0  0
   43.8659   34.0451   48.5566 H   0  0  0  0  0  0  0  0  0  0  0  0
   44.2129   34.6810   46.9263 H   0  0  0  0  0  0  0  0  0  0  0  0
   46.1379   35.3393   41.0257 H   0  0  0  0  0  0  0  0  0  0  0  0
   46.8760   33.7367   41.4502 H   0  0  0  0  0  0  0  0  0  0  0  0
   48.2682   36.0465   40.8848 H   0  0  0  0  0  0  0  0  0  0  0  0
   48.2194   36.0208   42.6981 H   0  0  0  0  0  0  0  0  0  0  0  0
   50.9264   30.6433   41.7441 H   0  0  0  0  0  0  0  0  0  0  0  0
   52.8513   32.4053   40.7497 H   0  0  0  0  0  0  0  0  0  0  0  0
   52.9976   30.6453   40.8986 H   0  0  0  0  0  0  0  0  0  0  0  0
   52.4206   32.3331   38.5175 H   0  0  0  0  0  0  0  0  0  0  0  0
   53.1523   30.7075   38.6026 H   0  0  0  0  0  0  0  0  0  0  0  0
   50.6022   31.1946   37.6985 H   0  0  0  0  0  0  0  0  0  0  0  0
   51.0868   29.6512   38.4075 H   0  0  0  0  0  0  0  0  0  0  0  0
   49.4184   31.8379   39.5470 H   0  0  0  0  0  0  0  0  0  0  0  0
   49.4972   30.1267   40.0340 H   0  0  0  0  0  0  0  0  0  0  0  0
  1  6  2  0
  2  1  1  0
  3  2  2  0
  3  4  1  0
  4  5  2  0
  5  6  1  0
  5  7  1  0
  7  8  2  0
  8 13  1  0
  8  9  1  0
 10  9  2  0
 11 10  1  0
 12  7  1  0
 12 11  2  0
 14 15  1  0
 14  3  1  0
 15 16  1  0
 16 17  2  0
 18 17  1  0
 19 18  1  0
 20 19  2  0
 20 16  1  0
 21 19  1  0
 22 21  1  0
 23 22  1  0
 24 23  1  0
 24 25  1  0
 25 21  1  0
  1 26  1  0
  2 27  1  0
  9 28  1  0
 10 29  1  0
 11 30  1  0
 13 31  1  0
 13 32  1  0
 14 33  1  0
 14 34  1  0
 15 35  1  0
 15 36  1  0
 21 37  1  0
 22 38  1  0
 22 39  1  0
 23 40  1  0
 23 41  1  0
 24 42  1  0
 24 43  1  0
 25 44  1  0
 25 45  1  0
M  END
>  <minimizedAffinity>  (1) 
-7.04940462

>  <minimizedRMSD>  (1) 
0.264653057

$$$$
