
     RDKit          3D

 42 46  0  0  0  0  0  0  0  0999 V2000
   44.6300   35.8090   44.7740 C   0  0  0  0  0  0  0  0  0  0  0  0
   44.0910   35.6600   43.4910 C   0  0  0  0  0  0  0  0  0  0  0  0
   44.3330   34.4650   42.8680 C   0  0  0  0  0  0  0  0  0  0  0  0
   45.0650   33.5600   43.5580 N   0  0  0  0  0  0  0  0  0  0  0  0
   45.5910   33.6790   44.7850 C   0  0  0  0  0  0  0  0  0  0  0  0
   45.3120   34.8280   45.2890 N   0  0  0  0  0  0  0  0  0  0  0  0
   46.3080   32.5130   45.2070 C   0  0  0  0  0  0  0  0  0  0  0  0
   47.0990   31.7810   44.3310 C   0  0  0  0  0  0  0  0  0  0  0  0
   47.7950   30.6550   44.7030 C   0  0  0  0  0  0  0  0  0  0  0  0
   47.7380   30.1890   45.9940 C   0  0  0  0  0  0  0  0  0  0  0  0
   46.9770   30.8800   46.8690 C   0  0  0  0  0  0  0  0  0  0  0  0
   46.9180   30.4110   48.1770 C   0  0  0  0  0  0  0  0  0  0  0  0
   46.1600   31.0680   49.1220 C   0  0  0  0  0  0  0  0  0  0  0  0
   45.4600   32.2020   48.7460 C   0  0  0  0  0  0  0  0  0  0  0  0
   45.5690   32.6000   47.4410 C   0  0  0  0  0  0  0  0  0  0  0  0
   46.2940   32.0020   46.4620 C   0  0  0  0  0  0  0  0  0  0  0  0
   43.8120   34.1960   41.5280 C   0  0  0  0  0  0  0  0  0  0  0  0
   44.6930   33.8190   40.4650 C   0  0  0  0  0  0  0  0  0  0  0  0
   43.5550   33.5840   39.0120 S   0  0  0  0  0  0  0  0  0  0  0  0
   42.0930   34.0420   40.1160 C   0  0  0  0  0  0  0  0  0  0  0  0
   42.5710   34.2380   41.1110 N   0  0  0  0  0  0  0  0  0  0  0  0
   40.7250   34.0450   39.4850 C   0  0  0  0  0  0  0  0  0  0  0  0
   40.5740   34.3040   38.1430 C   0  0  0  0  0  0  0  0  0  0  0  0
   39.2780   34.2840   37.6630 C   0  0  0  0  0  0  0  0  0  0  0  0
   38.2180   34.0090   38.5260 C   0  0  0  0  0  0  0  0  0  0  0  0
   38.4480   33.7590   39.8600 C   0  0  0  0  0  0  0  0  0  0  0  0
   39.7450   33.7720   40.3810 C   0  0  0  0  0  0  0  0  0  0  0  0
   44.4793   36.7412   45.3383 H   0  0  0  0  0  0  0  0  0  0  0  0
   43.5060   36.4579   43.0103 H   0  0  0  0  0  0  0  0  0  0  0  0
   47.1724   32.1191   43.2868 H   0  0  0  0  0  0  0  0  0  0  0  0
   48.4042   30.1214   43.9586 H   0  0  0  0  0  0  0  0  0  0  0  0
   48.2902   29.2890   46.3023 H   0  0  0  0  0  0  0  0  0  0  0  0
   47.4806   29.5089   48.4593 H   0  0  0  0  0  0  0  0  0  0  0  0
   46.1119   30.6980   50.1568 H   0  0  0  0  0  0  0  0  0  0  0  0
   44.8424   32.7594   49.4657 H   0  0  0  0  0  0  0  0  0  0  0  0
   45.0083   33.5021   47.1548 H   0  0  0  0  0  0  0  0  0  0  0  0
   45.7857   33.6969   40.4990 H   0  0  0  0  0  0  0  0  0  0  0  0
   41.4338   34.5147   37.4901 H   0  0  0  0  0  0  0  0  0  0  0  0
   39.0827   34.4852   36.5993 H   0  0  0  0  0  0  0  0  0  0  0  0
   37.1890   33.9917   38.1375 H   0  0  0  0  0  0  0  0  0  0  0  0
   37.5987   33.5459   40.5257 H   0  0  0  0  0  0  0  0  0  0  0  0
   39.9555   33.5747   41.4425 H   0  0  0  0  0  0  0  0  0  0  0  0
  1  6  2  0
  2  1  1  0
  3  2  2  0
  3  4  1  0
  4  5  2  0
  5  7  1  0
  5  6  1  0
  7 16  2  0
  8  9  2  0
  8  7  1  0
  9 10  1  0
 10 11  2  0
 11 12  1  0
 12 13  2  0
 14 13  1  0
 15 14  2  0
 16 11  1  0
 16 15  1  0
 17  3  1  0
 18 17  2  0
 19 20  1  0
 19 18  1  0
 20 21  2  0
 21 17  1  0
 22 20  1  0
 22 27  1  0
 23 22  2  0
 24 23  1  0
 24 25  2  0
 25 26  1  0
 26 27  2  0
  1 28  1  0
  2 29  1  0
  8 30  1  0
  9 31  1  0
 10 32  1  0
 12 33  1  0
 13 34  1  0
 14 35  1  0
 15 36  1  0
 18 37  1  0
 23 38  1  0
 24 39  1  0
 25 40  1  0
 26 41  1  0
 27 42  1  0
M  END
>  <minimizedAffinity>  (1) 
-7.58542061

>  <minimizedRMSD>  (1) 
1.7656436

$$$$
