
     RDKit          3D

 51 52  0  0  1  0  0  0  0  0999 V2000
   44.4210   35.8990   44.6790 C   0  0  0  0  0  0  0  0  0  0  0  0
   44.4100   35.6250   43.3060 C   0  0  0  0  0  0  0  0  0  0  0  0
   45.2530   34.5610   42.9290 C   0  0  0  0  0  0  0  0  0  0  0  0
   45.3150   33.5650   43.8570 N   0  0  0  0  0  0  0  0  0  0  0  0
   45.3720   33.8600   45.1500 C   0  0  0  0  0  0  0  0  0  0  0  0
   44.9050   35.0510   45.5880 N   0  0  0  0  0  0  0  0  0  0  0  0
   45.8830   32.9440   46.0410 N   0  0  0  0  0  0  0  0  0  0  0  0
   45.3330   33.0220   47.4250 C   0  0  0  0  0  0  0  0  0  0  0  0
   46.1400   32.2170   48.4120 C   0  0  0  0  0  0  0  0  0  0  0  0
   47.2840   31.6600   47.9040 O   0  0  0  0  0  0  0  0  0  0  0  0
   46.9470   30.9340   46.7720 C   0  0  0  0  0  0  0  0  0  0  0  0
   46.9030   32.0170   45.6920 C   0  0  1  0  0  0  0  0  0  0  0  0
   45.2750   33.4280   42.9930 H   0  0  0  0  0  0  0  0  0  0  0  0
   46.5940   31.6730   44.3990 N   0  0  0  0  0  0  0  0  0  0  0  0
   45.2630   31.4230   44.1420 C   0  0  0  0  0  0  0  0  0  0  0  0
   45.1520   31.0160   42.6980 C   0  0  0  0  0  0  0  0  0  0  0  0
   46.5010   31.4390   42.1240 C   0  0  0  0  0  0  0  0  0  0  0  0
   47.1870   32.1230   43.3030 C   0  0  2  0  0  0  0  0  0  0  0  0
   48.4810   32.7110   42.9320 C   0  0  0  0  0  0  0  0  0  0  0  0
   48.7570   34.0920   42.9400 C   0  0  0  0  0  0  0  0  0  0  0  0
   49.9470   34.6690   42.6100 C   0  0  0  0  0  0  0  0  0  0  0  0
   50.9470   33.7970   42.2400 C   0  0  0  0  0  0  0  0  0  0  0  0
   50.8060   32.4280   42.1900 C   0  0  0  0  0  0  0  0  0  0  0  0
   49.5570   31.9620   42.5470 C   0  0  0  0  0  0  0  0  0  0  0  0
   44.0110   36.8594   45.0247 H   0  0  0  0  0  0  0  0  0  0  0  0
   44.3663   34.5371   43.1496 H   0  0  0  0  0  0  0  0  0  0  0  0
   43.5301   36.0974   42.8449 H   0  0  0  0  0  0  0  0  0  0  0  0
   45.3249   36.0253   42.8449 H   0  0  0  0  0  0  0  0  0  0  0  0
   45.2530   34.5610   44.0290 H   0  0  0  0  0  0  0  0  0  0  0  0
   45.2530   35.5981   42.5623 H   0  0  0  0  0  0  0  0  0  0  0  0
   46.1511   34.0425   42.5623 H   0  0  0  0  0  0  0  0  0  0  0  0
   44.3549   34.0425   42.5623 H   0  0  0  0  0  0  0  0  0  0  0  0
   45.3313   34.0743   47.7454 H   0  0  0  0  0  0  0  0  0  0  0  0
   44.3156   32.6044   47.4049 H   0  0  0  0  0  0  0  0  0  0  0  0
   46.4226   32.8796   49.2433 H   0  0  0  0  0  0  0  0  0  0  0  0
   45.4999   31.3779   48.7221 H   0  0  0  0  0  0  0  0  0  0  0  0
   47.7095   30.1746   46.5440 H   0  0  0  0  0  0  0  0  0  0  0  0
   46.0061   30.3730   46.8721 H   0  0  0  0  0  0  0  0  0  0  0  0
   47.9459   32.3666   45.6809 H   0  0  0  0  0  0  0  0  0  0  0  0
   44.9010   30.6114   44.7902 H   0  0  0  0  0  0  0  0  0  0  0  0
   44.6545   32.3174   44.3411 H   0  0  0  0  0  0  0  0  0  0  0  0
   45.0034   29.9303   42.6025 H   0  0  0  0  0  0  0  0  0  0  0  0
   44.2955   31.4732   42.1808 H   0  0  0  0  0  0  0  0  0  0  0  0
   47.0769   30.5647   41.7864 H   0  0  0  0  0  0  0  0  0  0  0  0
   46.4079   32.0915   41.2433 H   0  0  0  0  0  0  0  0  0  0  0  0
   47.2280   33.1019   43.8030 H   0  0  0  0  0  0  0  0  0  0  0  0
   47.9397   34.7647   43.2391 H   0  0  0  0  0  0  0  0  0  0  0  0
   50.0986   35.7582   42.6373 H   0  0  0  0  0  0  0  0  0  0  0  0
   51.9236   34.2226   41.9661 H   0  0  0  0  0  0  0  0  0  0  0  0
   51.6250   31.7582   41.8890 H   0  0  0  0  0  0  0  0  0  0  0  0
   49.4124   30.8719   42.5186 H   0  0  0  0  0  0  0  0  0  0  0  0
  1  6  2  0
  2  1  1  0
  4  5  2  0
  5  6  1  0
  5  7  1  0
  7  8  1  0
  8  9  1  0
 10  9  1  0
 11 10  1  0
 12  7  1  0
 12 11  1  0
 13  4  1  0
 14 15  1  0
 14 12  1  0
 16 15  1  0
 17 16  1  0
 17 18  1  0
 18 14  1  0
 19 20  2  0
 19 18  1  0
 21 20  1  0
 22 21  2  0
 23 22  1  0
 23 24  2  0
 24 19  1  0
  1 25  1  0
  2 26  1  0
  2 27  1  0
  2 28  1  0
  3 29  1  0
  3 30  1  0
  3 31  1  0
  3 32  1  0
  8 33  1  0
  8 34  1  0
  9 35  1  0
  9 36  1  0
 11 37  1  0
 11 38  1  0
 12 39  1  6
 15 40  1  0
 15 41  1  0
 16 42  1  0
 16 43  1  0
 17 44  1  0
 17 45  1  0
 18 46  1  1
 20 47  1  0
 21 48  1  0
 22 49  1  0
 23 50  1  0
 24 51  1  0
M  ISO  8  26   8  27   8  28   8  29   8  30   8  31   8  32   8  33  13
M  ISO  8  34  13  35  13  36  13  37  13  38  13  39  13  40  13  41  13
M  ISO  8  42  13  43  13  44  13  45  13  46  13  47  14  48  14  49  14
M  ISO  2  50  14  51  14
M  END
>  <minimizedAffinity>  (1) 
-5.91506529

>  <minimizedRMSD>  (1) 
1.08059525

$$$$
