
     RDKit          3D

 33 35  0  0  1  0  0  0  0  0999 V2000
   43.8690   35.0010   41.6060 C   0  0  2  0  0  0  0  0  0  0  0  0
   42.3460   34.7610   41.4670 C   0  0  0  0  0  0  0  0  0  0  0  0
   42.2380   35.1160   39.9770 C   0  0  1  0  0  0  0  0  0  0  0  0
   43.3930   34.3330   39.4060 C   0  0  0  0  0  0  0  0  0  0  0  0
   44.3980   34.1550   40.5350 C   0  0  0  0  0  0  0  0  0  0  0  0
   44.1840   35.7640   43.9120 C   0  0  0  0  0  0  0  0  0  0  0  0
   44.3570   34.7420   42.9640 C   0  0  0  0  0  0  0  0  0  0  0  0
   45.0120   33.5390   43.3540 C   0  0  0  0  0  0  0  0  0  0  0  0
   45.4370   33.4480   44.6410 N   0  0  0  0  0  0  0  0  0  0  0  0
   45.2540   34.4550   45.5430 C   0  0  0  0  0  0  0  0  0  0  0  0
   44.6290   35.6080   45.1740 N   0  0  0  0  0  0  0  0  0  0  0  0
   40.9360   34.7560   39.4090 C   0  0  0  0  0  0  0  0  0  0  0  0
   40.5430   34.7430   38.0850 C   0  0  0  0  0  0  0  0  0  0  0  0
   39.2900   34.3840   37.6750 C   0  0  0  0  0  0  0  0  0  0  0  0
   38.3420   34.0080   38.6180 C   0  0  0  0  0  0  0  0  0  0  0  0
   38.6890   34.0040   39.9620 C   0  0  0  0  0  0  0  0  0  0  0  0
   39.9590   34.3720   40.3330 C   0  0  0  0  0  0  0  0  0  0  0  0
   44.2007   36.0429   41.4859 H   0  0  0  0  0  0  0  0  0  0  0  0
   42.0635   33.7181   41.6730 H   0  0  0  0  0  0  0  0  0  0  0  0
   41.6941   35.3189   42.1553 H   0  0  0  0  0  0  0  0  0  0  0  0
   42.2943   36.1922   39.7566 H   0  0  0  0  0  0  0  0  0  0  0  0
   43.0466   33.3522   39.0481 H   0  0  0  0  0  0  0  0  0  0  0  0
   43.8449   34.8586   38.5518 H   0  0  0  0  0  0  0  0  0  0  0  0
   44.4477   33.1034   40.8539 H   0  0  0  0  0  0  0  0  0  0  0  0
   45.4222   34.4288   40.2416 H   0  0  0  0  0  0  0  0  0  0  0  0
   43.6815   36.6985   43.6218 H   0  0  0  0  0  0  0  0  0  0  0  0
   45.1676   32.7159   42.6411 H   0  0  0  0  0  0  0  0  0  0  0  0
   45.6136   34.3352   46.5756 H   0  0  0  0  0  0  0  0  0  0  0  0
   41.2772   35.0371   37.3205 H   0  0  0  0  0  0  0  0  0  0  0  0
   39.0337   34.3927   36.6053 H   0  0  0  0  0  0  0  0  0  0  0  0
   37.3288   33.7170   38.3036 H   0  0  0  0  0  0  0  0  0  0  0  0
   37.9526   33.7084   40.7238 H   0  0  0  0  0  0  0  0  0  0  0  0
   40.2187   34.3644   41.4019 H   0  0  0  0  0  0  0  0  0  0  0  0
  1  7  1  0
  2  1  1  0
  3  2  1  0
  4  3  1  0
  4  5  1  0
  5  1  1  0
  6 11  2  0
  7  8  2  0
  7  6  1  0
  8  9  1  0
  9 10  2  0
 11 10  1  0
 12  3  1  0
 12 17  1  0
 13 12  2  0
 14 13  1  0
 14 15  2  0
 15 16  1  0
 16 17  2  0
  1 18  1  6
  2 19  1  0
  2 20  1  0
  3 21  1  1
  4 22  1  0
  4 23  1  0
  5 24  1  0
  5 25  1  0
  6 26  1  0
  8 27  1  0
 10 28  1  0
 13 29  1  0
 14 30  1  0
 15 31  1  0
 16 32  1  0
 17 33  1  0
M  ISO  8  18  13  19  13  20  13  21  13  22  13  23  13  24  13  25  13
M  ISO  8  26  14  27  14  28  14  29  14  30  14  31  14  32  14  33  14
M  END
>  <minimizedAffinity>  (1) 
-5.81856298

>  <minimizedRMSD>  (1) 
0.601658463

$$$$
