
     RDKit          3D

 49 53  0  0  0  0  0  0  0  0999 V2000
   48.1490   35.2970   41.7280 C   0  0  0  0  0  0  0  0  0  0  0  0
   49.1430   34.2380   42.0300 C   0  0  0  0  0  0  0  0  0  0  0  0
   50.3990   34.5310   42.4300 N   0  0  0  0  0  0  0  0  0  0  0  0
   51.0140   33.4090   42.6100 O   0  0  0  0  0  0  0  0  0  0  0  0
   50.2090   32.3910   42.3420 C   0  0  0  0  0  0  0  0  0  0  0  0
   49.0180   32.9000   41.9730 N   0  0  0  0  0  0  0  0  0  0  0  0
   50.6860   31.0580   42.4740 N   0  0  0  0  0  0  0  0  0  0  0  0
   50.6010   30.1510   43.4610 N   0  0  0  0  0  0  0  0  0  0  0  0
   51.2280   29.0230   43.0910 C   0  0  0  0  0  0  0  0  0  0  0  0
   51.7260   29.2370   41.8150 C   0  0  0  0  0  0  0  0  0  0  0  0
   51.3680   30.5490   41.4360 C   0  0  0  0  0  0  0  0  0  0  0  0
   51.8050   30.9430   40.1030 C   0  0  0  0  0  0  0  0  0  0  0  0
   53.1780   30.9920   39.8240 C   0  0  0  0  0  0  0  0  0  0  0  0
   53.7520   31.3460   38.6230 C   0  0  0  0  0  0  0  0  0  0  0  0
   52.8660   31.6790   37.6200 C   0  0  0  0  0  0  0  0  0  0  0  0
   51.4990   31.6620   37.7920 C   0  0  0  0  0  0  0  0  0  0  0  0
   51.0190   31.2950   39.0300 C   0  0  0  0  0  0  0  0  0  0  0  0
   46.7350   34.7610   41.6960 C   0  0  0  0  0  0  0  0  0  0  0  0
   44.5840   35.8830   44.5550 C   0  0  0  0  0  0  0  0  0  0  0  0
   45.1870   35.8340   43.2890 C   0  0  0  0  0  0  0  0  0  0  0  0
   46.0870   34.8290   43.0310 C   0  0  0  0  0  0  0  0  0  0  0  0
   46.3540   33.9250   44.0140 N   0  0  0  0  0  0  0  0  0  0  0  0
   45.7610   33.9870   45.2370 C   0  0  0  0  0  0  0  0  0  0  0  0
   44.8640   34.9840   45.5000 N   0  0  0  0  0  0  0  0  0  0  0  0
   46.0630   33.0170   46.2590 C   0  0  0  0  0  0  0  0  0  0  0  0
   45.3670   33.0460   47.4680 C   0  0  0  0  0  0  0  0  0  0  0  0
   45.5970   32.1510   48.5000 C   0  0  0  0  0  0  0  0  0  0  0  0
   46.5680   31.2430   48.2120 C   0  0  0  0  0  0  0  0  0  0  0  0
   47.2940   31.1550   47.0420 C   0  0  0  0  0  0  0  0  0  0  0  0
   46.9800   32.0840   46.1100 N   0  0  0  0  0  0  0  0  0  0  0  0
   44.3740   34.0440   47.6480 N   0  0  0  0  0  0  0  0  0  0  0  0
   48.2151   36.0760   42.5018 H   0  0  0  0  0  0  0  0  0  0  0  0
   48.3793   35.7020   40.7315 H   0  0  0  0  0  0  0  0  0  0  0  0
   51.3276   28.1038   43.6869 H   0  0  0  0  0  0  0  0  0  0  0  0
   52.2955   28.5168   41.2091 H   0  0  0  0  0  0  0  0  0  0  0  0
   53.8620   30.7220   40.6421 H   0  0  0  0  0  0  0  0  0  0  0  0
   54.8418   31.3620   38.4742 H   0  0  0  0  0  0  0  0  0  0  0  0
   53.2686   31.9712   36.6389 H   0  0  0  0  0  0  0  0  0  0  0  0
   50.8170   31.9312   36.9720 H   0  0  0  0  0  0  0  0  0  0  0  0
   49.9281   31.2825   39.1709 H   0  0  0  0  0  0  0  0  0  0  0  0
   46.1450   35.3562   40.9835 H   0  0  0  0  0  0  0  0  0  0  0  0
   46.7773   33.7051   41.3907 H   0  0  0  0  0  0  0  0  0  0  0  0
   43.8618   36.6833   44.7739 H   0  0  0  0  0  0  0  0  0  0  0  0
   44.9446   36.5831   42.5209 H   0  0  0  0  0  0  0  0  0  0  0  0
   45.0505   32.1724   49.4544 H   0  0  0  0  0  0  0  0  0  0  0  0
   46.7981   30.5026   48.9923 H   0  0  0  0  0  0  0  0  0  0  0  0
   48.0673   30.3897   46.8798 H   0  0  0  0  0  0  0  0  0  0  0  0
   43.8440   34.0900   48.5300 H   0  0  0  0  0  0  0  0  0  0  0  0
   44.1834   34.7222   46.8966 H   0  0  0  0  0  0  0  0  0  0  0  0
  1  2  1  0
  2  3  2  0
  3  4  1  0
  5  7  1  0
  5  4  1  0
  6  2  1  0
  6  5  2  0
  7  8  1  0
  9  8  2  0
 10  9  1  0
 11 10  2  0
 11  7  1  0
 12 11  1  0
 13 12  2  0
 14 13  1  0
 15 16  1  0
 15 14  2  0
 16 17  2  0
 17 12  1  0
 18  1  1  0
 18 21  1  0
 19 24  2  0
 20 19  1  0
 21 20  2  0
 21 22  1  0
 22 23  2  0
 23 24  1  0
 23 25  1  0
 25 26  2  0
 26 31  1  0
 26 27  1  0
 28 27  2  0
 29 28  1  0
 30 25  1  0
 30 29  2  0
  1 32  1  0
  1 33  1  0
  9 34  1  0
 10 35  1  0
 13 36  1  0
 14 37  1  0
 15 38  1  0
 16 39  1  0
 17 40  1  0
 18 41  1  0
 18 42  1  0
 19 43  1  0
 20 44  1  0
 27 45  1  0
 28 46  1  0
 29 47  1  0
 31 48  1  0
 31 49  1  0
M  END
>  <minimizedAffinity>  (1) 
-7.69263029

>  <minimizedRMSD>  (1) 
1.28042471

$$$$
