
     RDKit          3D

 37 39  0  0  1  0  0  0  0  0999 V2000
   46.0780   32.5990   44.5050 C   0  0  2  0  0  0  0  0  0  0  0  0
   45.5280   33.7540   45.3020 C   0  0  0  0  0  0  0  0  0  0  0  0
   45.4570   35.0350   44.6470 C   0  0  0  0  0  0  0  0  0  0  0  0
   45.9010   35.1920   43.2700 C   0  0  1  0  0  0  0  0  0  0  0  0
   46.5090   34.0130   42.6110 C   0  0  0  0  0  0  0  0  0  0  0  0
   45.8040   32.7650   43.0520 C   0  0  0  0  0  0  0  0  0  0  0  0
   45.6820   31.2000   46.4750 C   0  0  0  0  0  0  0  0  0  0  0  0
   45.6520   31.3430   45.1010 C   0  0  0  0  0  0  0  0  0  0  0  0
   45.2170   30.2430   44.3600 C   0  0  0  0  0  0  0  0  0  0  0  0
   44.8470   29.1040   44.9760 N   0  0  0  0  0  0  0  0  0  0  0  0
   44.8840   28.9860   46.3350 C   0  0  0  0  0  0  0  0  0  0  0  0
   45.3020   30.0370   47.0750 N   0  0  0  0  0  0  0  0  0  0  0  0
   44.4840   27.7510   47.0030 C   0  0  0  0  0  0  0  0  0  0  0  0
   43.5800   26.9170   46.3680 C   0  0  0  0  0  0  0  0  0  0  0  0
   43.1630   25.7410   46.9420 C   0  0  0  0  0  0  0  0  0  0  0  0
   43.6610   25.3950   48.1760 C   0  0  0  0  0  0  0  0  0  0  0  0
   44.5550   26.2280   48.7970 C   0  0  0  0  0  0  0  0  0  0  0  0
   45.0120   27.4350   48.2560 C   0  0  0  0  0  0  0  0  0  0  0  0
   44.7130   35.6950   42.4430 C   0  0  0  0  0  0  0  0  0  0  0  0
   43.4960   35.3730   43.0100 F   0  0  0  0  0  0  0  0  0  0  0  0
   44.7790   37.0840   42.4180 F   0  0  0  0  0  0  0  0  0  0  0  0
   44.8300   35.2590   41.1370 F   0  0  0  0  0  0  0  0  0  0  0  0
   47.1767   32.5806   44.5544 H   0  0  0  0  0  0  0  0  0  0  0  0
   45.1942   33.6240   46.3420 H   0  0  0  0  0  0  0  0  0  0  0  0
   45.0628   35.9043   45.1938 H   0  0  0  0  0  0  0  0  0  0  0  0
   46.7345   35.9082   43.3178 H   0  0  0  0  0  0  0  0  0  0  0  0
   47.5721   33.9486   42.8862 H   0  0  0  0  0  0  0  0  0  0  0  0
   46.4143   34.1175   41.5201 H   0  0  0  0  0  0  0  0  0  0  0  0
   44.7218   32.8622   42.8806 H   0  0  0  0  0  0  0  0  0  0  0  0
   46.1594   31.8926   42.4840 H   0  0  0  0  0  0  0  0  0  0  0  0
   46.0195   32.0421   47.0971 H   0  0  0  0  0  0  0  0  0  0  0  0
   45.1760   30.3071   43.2626 H   0  0  0  0  0  0  0  0  0  0  0  0
   43.1866   27.2026   45.3812 H   0  0  0  0  0  0  0  0  0  0  0  0
   42.4444   25.0885   46.4244 H   0  0  0  0  0  0  0  0  0  0  0  0
   43.3451   24.4591   48.6600 H   0  0  0  0  0  0  0  0  0  0  0  0
   44.9378   25.9286   49.7838 H   0  0  0  0  0  0  0  0  0  0  0  0
   45.7310   28.0840   48.7773 H   0  0  0  0  0  0  0  0  0  0  0  0
  1  8  1  0
  1  2  1  0
  3  2  2  0
  4  3  1  0
  5  6  1  0
  5  4  1  0
  6  1  1  0
  7 12  2  0
  8  7  1  0
  9 10  1  0
  9  8  2  0
 10 11  2  0
 11 13  1  0
 11 12  1  0
 13 18  2  0
 14 15  2  0
 14 13  1  0
 15 16  1  0
 16 17  2  0
 18 17  1  0
 19 20  1  0
 19  4  1  0
 21 19  1  0
 22 19  1  0
  1 23  1  6
  2 24  1  0
  3 25  1  0
  4 26  1  1
  5 27  1  0
  5 28  1  0
  6 29  1  0
  6 30  1  0
  7 31  1  0
  9 32  1  0
 14 33  1  0
 15 34  1  0
 16 35  1  0
 17 36  1  0
 18 37  1  0
M  ISO  8  23  13  24  13  25  13  26  13  27  13  28  13  29  13  30  13
M  ISO  7  31  14  32  14  33  14  34  14  35  14  36  14  37  14
M  END
>  <minimizedAffinity>  (1) 
-4.66285372

>  <minimizedRMSD>  (1) 
2.36934185

$$$$
