
     RDKit          3D

 43 46  0  0  0  0  0  0  0  0999 V2000
   46.5600   32.8610   38.8370 C   0  0  0  0  0  0  0  0  0  0  0  0
   45.5030   33.1480   37.9930 C   0  0  0  0  0  0  0  0  0  0  0  0
   45.1190   32.2980   36.9950 C   0  0  0  0  0  0  0  0  0  0  0  0
   45.7960   31.1050   36.8050 C   0  0  0  0  0  0  0  0  0  0  0  0
   46.8420   30.8310   37.6490 C   0  0  0  0  0  0  0  0  0  0  0  0
   47.2710   31.6820   38.6920 C   0  0  0  0  0  0  0  0  0  0  0  0
   46.6270   34.4010   42.0510 N   0  0  0  0  0  0  0  0  0  0  0  0
   47.6980   35.2560   41.9440 C   0  0  0  0  0  0  0  0  0  0  0  0
   48.4280   35.3410   40.7840 C   0  0  0  0  0  0  0  0  0  0  0  0
   48.0430   34.5280   39.7220 C   0  0  0  0  0  0  0  0  0  0  0  0
   48.6880   34.5760   38.6360 O   0  0  0  0  0  0  0  0  0  0  0  0
   46.9910   33.7120   39.8800 N   0  0  0  0  0  0  0  0  0  0  0  0
   46.3000   33.6550   41.0240 C   0  0  0  0  0  0  0  0  0  0  0  0
   45.3220   32.9320   41.2430 O   0  0  0  0  0  0  0  0  0  0  0  0
   44.5840   35.6790   44.8660 C   0  0  0  0  0  0  0  0  0  0  0  0
   45.1710   35.5680   43.5860 C   0  0  0  0  0  0  0  0  0  0  0  0
   46.0380   34.5020   43.3550 C   0  0  0  0  0  0  0  0  0  0  0  0
   46.2900   33.6140   44.3520 N   0  0  0  0  0  0  0  0  0  0  0  0
   45.7070   33.7550   45.5690 C   0  0  0  0  0  0  0  0  0  0  0  0
   44.8670   34.7700   45.8270 N   0  0  0  0  0  0  0  0  0  0  0  0
   50.8530   30.2210   40.4560 C   0  0  0  0  0  0  0  0  0  0  0  0
   50.8650   30.8730   39.2430 C   0  0  0  0  0  0  0  0  0  0  0  0
   49.6430   31.2950   38.7740 C   0  0  0  0  0  0  0  0  0  0  0  0
   48.4010   31.1230   39.4090 C   0  0  0  0  0  0  0  0  0  0  0  0
   48.5050   30.4630   40.6060 C   0  0  0  0  0  0  0  0  0  0  0  0
   49.6820   30.0080   41.1480 C   0  0  0  0  0  0  0  0  0  0  0  0
   52.3440   29.6360   41.1560 S   0  0  0  0  0  0  0  0  0  0  0  0
   53.4950   30.3470   40.5270 O   0  0  0  0  0  0  0  0  0  0  0  0
   52.3190   29.8350   42.6350 O   0  0  0  0  0  0  0  0  0  0  0  0
   44.9537   34.0912   38.1296 H   0  0  0  0  0  0  0  0  0  0  0  0
   44.2730   32.5609   36.3430 H   0  0  0  0  0  0  0  0  0  0  0  0
   45.5062   30.4043   36.0081 H   0  0  0  0  0  0  0  0  0  0  0  0
   47.3835   29.8846   37.5039 H   0  0  0  0  0  0  0  0  0  0  0  0
   47.9755   35.8838   42.8036 H   0  0  0  0  0  0  0  0  0  0  0  0
   49.2846   36.0257   40.6974 H   0  0  0  0  0  0  0  0  0  0  0  0
   43.8940   36.5079   45.0822 H   0  0  0  0  0  0  0  0  0  0  0  0
   44.9504   36.3007   42.7958 H   0  0  0  0  0  0  0  0  0  0  0  0
   45.9270   33.0230   46.3601 H   0  0  0  0  0  0  0  0  0  0  0  0
   51.7959   31.0458   38.6830 H   0  0  0  0  0  0  0  0  0  0  0  0
   49.6370   31.8187   37.8067 H   0  0  0  0  0  0  0  0  0  0  0  0
   47.5794   30.2851   41.1730 H   0  0  0  0  0  0  0  0  0  0  0  0
   49.6890   29.4841   42.1152 H   0  0  0  0  0  0  0  0  0  0  0  0
   52.4836   28.2944   40.9161 H   0  0  0  0  0  0  0  0  0  0  0  0
  1 12  1  0
  2  1  2  0
  3  2  1  0
  4  3  2  0
  4  5  1  0
  5  6  2  0
  6  1  1  0
  6 24  1  0
  7 17  1  0
  8  7  1  0
  9  8  2  0
 10 12  1  0
 10  9  1  0
 11 10  2  0
 12 13  1  0
 13 14  2  0
 13  7  1  0
 15 20  2  0
 16 15  1  0
 17 16  2  0
 17 18  1  0
 18 19  2  0
 19 20  1  0
 21 26  2  0
 21 27  1  0
 22 21  1  0
 23 22  2  0
 23 24  1  0
 24 25  2  0
 25 26  1  0
 27 29  2  0
 28 27  2  0
  2 30  1  0
  3 31  1  0
  4 32  1  0
  5 33  1  0
  8 34  1  0
  9 35  1  0
 15 36  1  0
 16 37  1  0
 19 38  1  0
 22 39  1  0
 23 40  1  0
 25 41  1  0
 26 42  1  0
 27 43  1  0
M  ISO  8  30  14  31  14  32  14  33  14  34  14  35  14  36  14  37  14
M  ISO  6  38  14  39  14  40  14  41  14  42  14  43  11
M  END
>  <minimizedAffinity>  (1) 
-5.36572266

>  <minimizedRMSD>  (1) 
1.00190115

$$$$
