
     RDKit          3D

 34 36  0  0  0  0  0  0  0  0999 V2000
   44.5930   35.8820   44.6000 C   0  0  0  0  0  0  0  0  0  0  0  0
   45.0900   35.7900   43.2960 C   0  0  0  0  0  0  0  0  0  0  0  0
   45.9240   34.7310   43.0180 C   0  0  0  0  0  0  0  0  0  0  0  0
   46.2200   33.8430   44.0010 N   0  0  0  0  0  0  0  0  0  0  0  0
   45.7140   33.9660   45.2640 C   0  0  0  0  0  0  0  0  0  0  0  0
   44.8970   34.9990   45.5470 N   0  0  0  0  0  0  0  0  0  0  0  0
   46.0360   33.0120   46.3050 C   0  0  0  0  0  0  0  0  0  0  0  0
   45.3780   33.0170   47.5140 C   0  0  0  0  0  0  0  0  0  0  0  0
   45.6490   32.1290   48.5370 C   0  0  0  0  0  0  0  0  0  0  0  0
   46.6360   31.2390   48.2390 C   0  0  0  0  0  0  0  0  0  0  0  0
   47.3340   31.1770   47.0570 C   0  0  0  0  0  0  0  0  0  0  0  0
   46.9850   32.0870   46.1380 N   0  0  0  0  0  0  0  0  0  0  0  0
   44.3620   34.0170   47.6780 N   0  0  0  0  0  0  0  0  0  0  0  0
   47.7970   34.0960   39.2300 C   0  0  0  0  0  0  0  0  0  0  0  0
   48.3940   34.8470   40.2220 C   0  0  0  0  0  0  0  0  0  0  0  0
   47.7590   35.0370   41.4500 C   0  0  0  0  0  0  0  0  0  0  0  0
   46.5260   34.4910   41.7170 C   0  0  0  0  0  0  0  0  0  0  0  0
   45.9280   33.7410   40.7270 C   0  0  0  0  0  0  0  0  0  0  0  0
   46.5590   33.5460   39.4950 C   0  0  0  0  0  0  0  0  0  0  0  0
   48.5520   33.8310   37.6790 S   0  0  0  0  0  0  0  0  0  0  0  0
   49.5530   32.7260   37.7230 O   0  0  0  0  0  0  0  0  0  0  0  0
   47.5050   33.5330   36.6500 O   0  0  0  0  0  0  0  0  0  0  0  0
   43.9240   36.7179   44.8525 H   0  0  0  0  0  0  0  0  0  0  0  0
   44.8262   36.5309   42.5269 H   0  0  0  0  0  0  0  0  0  0  0  0
   45.1182   32.1397   49.5004 H   0  0  0  0  0  0  0  0  0  0  0  0
   46.8979   30.5038   49.0142 H   0  0  0  0  0  0  0  0  0  0  0  0
   48.1238   30.4325   46.8780 H   0  0  0  0  0  0  0  0  0  0  0  0
   43.8328   34.0737   48.5598 H   0  0  0  0  0  0  0  0  0  0  0  0
   44.1619   34.6780   46.9139 H   0  0  0  0  0  0  0  0  0  0  0  0
   49.3801   35.3003   40.0429 H   0  0  0  0  0  0  0  0  0  0  0  0
   48.2577   35.6389   42.2239 H   0  0  0  0  0  0  0  0  0  0  0  0
   44.9413   33.2900   40.9089 H   0  0  0  0  0  0  0  0  0  0  0  0
   46.0597   32.9430   38.7223 H   0  0  0  0  0  0  0  0  0  0  0  0
   49.2221   34.9776   37.3425 H   0  0  0  0  0  0  0  0  0  0  0  0
  1  6  2  0
  2  1  1  0
  3  2  2  0
  3  4  1  0
  4  5  2  0
  5  6  1  0
  5  7  1  0
  7  8  2  0
  8 13  1  0
  8  9  1  0
 10  9  2  0
 11 10  1  0
 12  7  1  0
 12 11  2  0
 14 19  2  0
 14 15  1  0
 15 16  2  0
 16 17  1  0
 17  3  1  0
 18 17  2  0
 19 18  1  0
 20 21  2  0
 20 14  1  0
 22 20  2  0
  1 23  1  0
  2 24  1  0
  9 25  1  0
 10 26  1  0
 11 27  1  0
 13 28  1  0
 13 29  1  0
 15 30  1  0
 16 31  1  0
 18 32  1  0
 19 33  1  0
 20 34  1  0
M  END
>  <minimizedAffinity>  (1) 
-7.17261457

>  <minimizedRMSD>  (1) 
0.68372941

$$$$
