
     RDKit          3D

 52 56  0  0  0  0  0  0  0  0999 V2000
   47.8840   30.9970   48.2140 C   0  0  0  0  0  0  0  0  0  0  0  0
   48.7450   31.4330   49.1740 C   0  0  0  0  0  0  0  0  0  0  0  0
   49.7180   30.6140   49.6820 C   0  0  0  0  0  0  0  0  0  0  0  0
   49.8210   29.3120   49.2000 C   0  0  0  0  0  0  0  0  0  0  0  0
   48.9650   28.8800   48.2450 C   0  0  0  0  0  0  0  0  0  0  0  0
   47.9860   29.7090   47.7360 C   0  0  0  0  0  0  0  0  0  0  0  0
   44.4580   36.0280   44.4630 C   0  0  0  0  0  0  0  0  0  0  0  0
   45.1460   35.8530   43.2620 C   0  0  0  0  0  0  0  0  0  0  0  0
   46.0640   34.8200   43.1470 C   0  0  0  0  0  0  0  0  0  0  0  0
   46.2640   34.0100   44.2140 N   0  0  0  0  0  0  0  0  0  0  0  0
   45.5800   34.2010   45.3770 C   0  0  0  0  0  0  0  0  0  0  0  0
   44.6720   35.2000   45.5280 N   0  0  0  0  0  0  0  0  0  0  0  0
   45.7780   33.3560   46.5100 N   0  0  0  0  0  0  0  0  0  0  0  0
   46.9220   32.6440   46.5460 C   0  0  0  0  0  0  0  0  0  0  0  0
   46.8790   31.9170   47.7210 C   0  0  0  0  0  0  0  0  0  0  0  0
   45.7240   32.2000   48.3610 N   0  0  0  0  0  0  0  0  0  0  0  0
   45.0500   33.0700   47.6360 C   0  0  0  0  0  0  0  0  0  0  0  0
   47.0890   29.2470   46.7330 N   0  0  0  0  0  0  0  0  0  0  0  0
   49.0600   27.5100   47.7190 C   0  0  0  0  0  0  0  0  0  0  0  0
   48.2550   26.5970   48.0770 O   0  0  0  0  0  0  0  0  0  0  0  0
   50.1240   27.1790   46.7390 C   0  0  0  0  0  0  0  0  0  0  0  0
   51.2540   26.4190   47.1560 C   0  0  0  0  0  0  0  0  0  0  0  0
   52.1990   26.2630   45.6130 S   0  0  0  0  0  0  0  0  0  0  0  0
   50.9140   27.2600   44.6270 C   0  0  0  0  0  0  0  0  0  0  0  0
   50.1360   27.4950   45.4760 N   0  0  0  0  0  0  0  0  0  0  0  0
   51.0300   27.5560   43.2480 N   0  0  0  0  0  0  0  0  0  0  0  0
   52.7650   24.8380   50.7810 C   0  0  0  0  0  0  0  0  0  0  0  0
   53.0290   26.1150   50.3720 C   0  0  0  0  0  0  0  0  0  0  0  0
   52.5320   26.6030   49.1790 C   0  0  0  0  0  0  0  0  0  0  0  0
   51.7510   25.8260   48.3530 C   0  0  0  0  0  0  0  0  0  0  0  0
   51.5300   24.5620   48.8280 C   0  0  0  0  0  0  0  0  0  0  0  0
   51.9930   24.0240   49.9970 C   0  0  0  0  0  0  0  0  0  0  0  0
   53.4000   24.2280   52.2930 S   0  0  0  0  0  0  0  0  0  0  0  0
   54.4780   23.2050   52.0680 O   0  0  0  0  0  0  0  0  0  0  0  0
   53.8810   25.3320   53.1970 O   0  0  0  0  0  0  0  0  0  0  0  0
   48.6575   32.4634   49.5491 H   0  0  0  0  0  0  0  0  0  0  0  0
   50.4068   30.9789   50.4581 H   0  0  0  0  0  0  0  0  0  0  0  0
   50.5951   28.6370   49.5939 H   0  0  0  0  0  0  0  0  0  0  0  0
   43.7300   36.8476   44.5539 H   0  0  0  0  0  0  0  0  0  0  0  0
   44.9619   36.5286   42.4136 H   0  0  0  0  0  0  0  0  0  0  0  0
   46.6177   34.6619   42.2097 H   0  0  0  0  0  0  0  0  0  0  0  0
   47.7252   32.6419   45.7944 H   0  0  0  0  0  0  0  0  0  0  0  0
   44.0682   33.4953   47.8914 H   0  0  0  0  0  0  0  0  0  0  0  0
   47.1667   28.2837   46.3767 H   0  0  0  0  0  0  0  0  0  0  0  0
   46.3619   29.8758   46.3631 H   0  0  0  0  0  0  0  0  0  0  0  0
   51.8434   27.2165   42.7151 H   0  0  0  0  0  0  0  0  0  0  0  0
   50.3010   28.1109   42.7773 H   0  0  0  0  0  0  0  0  0  0  0  0
   53.6492   26.7668   51.0049 H   0  0  0  0  0  0  0  0  0  0  0  0
   52.7656   27.6361   48.8821 H   0  0  0  0  0  0  0  0  0  0  0  0
   50.9108   23.9052   48.1994 H   0  0  0  0  0  0  0  0  0  0  0  0
   51.7572   22.9908   50.2918 H   0  0  0  0  0  0  0  0  0  0  0  0
   52.3588   23.6080   52.9320 H   0  0  0  0  0  0  0  0  0  0  0  0
  1  2  2  0
  2  3  1  0
  4  3  2  0
  5  4  1  0
  6  1  1  0
  6  5  2  0
  7 12  2  0
  8  7  1  0
  9  8  2  0
  9 10  1  0
 10 11  2  0
 11 12  1  0
 11 13  1  0
 13 14  1  0
 13 17  1  0
 14 15  2  0
 15  1  1  0
 15 16  1  0
 17 16  2  0
 18  6  1  0
 19 20  2  0
 19  5  1  0
 21 22  2  0
 21 19  1  0
 22 30  1  0
 23 22  1  0
 24 25  2  0
 24 23  1  0
 25 21  1  0
 26 24  1  0
 27 33  1  0
 28 27  2  0
 29 28  1  0
 30 31  1  0
 30 29  2  0
 31 32  2  0
 32 27  1  0
 33 35  2  0
 34 33  2  0
  2 36  1  0
  3 37  1  0
  4 38  1  0
  7 39  1  0
  8 40  1  0
  9 41  1  0
 14 42  1  0
 17 43  1  0
 18 44  1  0
 18 45  1  0
 26 46  1  0
 26 47  1  0
 28 48  1  0
 29 49  1  0
 31 50  1  0
 32 51  1  0
 33 52  1  0
M  ISO  8  36  14  37  14  38  14  39  14  40  14  41  14  42  14  43  14
M  ISO  5  48  14  49  14  50  14  51  14  52  11
M  END
>  <minimizedAffinity>  (1) 
-5.93717527

>  <minimizedRMSD>  (1) 
0.635383844

$$$$
