
     RDKit          3D

 37 39  0  0  1  0  0  0  0  0999 V2000
   47.0340   30.7880   47.5750 N   0  0  0  0  0  0  0  0  0  0  0  0
   47.0290   31.1450   49.0020 C   0  0  0  0  0  0  0  0  0  0  0  0
   45.8850   32.1020   49.0630 C   0  0  0  0  0  0  0  0  0  0  0  0
   44.8350   31.4580   48.2090 C   0  0  0  0  0  0  0  0  0  0  0  0
   45.7140   30.7230   47.1750 C   0  0  2  0  0  0  0  0  0  0  0  0
   45.1380   29.3450   47.1350 C   0  0  0  0  0  0  0  0  0  0  0  0
   45.1720   28.1830   47.8760 C   0  0  0  0  0  0  0  0  0  0  0  0
   44.3900   27.2540   47.2640 C   0  0  0  0  0  0  0  0  0  0  0  0
   43.8720   27.8320   46.1510 N   0  0  0  0  0  0  0  0  0  0  0  0
   44.3240   29.0860   46.0790 N   0  0  0  0  0  0  0  0  0  0  0  0
   45.5500   31.1750   45.8900 O   0  0  0  0  0  0  0  0  0  0  0  0
   46.3850   32.1370   45.2260 C   0  0  0  0  0  0  0  0  0  0  0  0
   47.5480   31.8500   44.9830 O   0  0  0  0  0  0  0  0  0  0  0  0
   44.6380   35.3380   45.5220 C   0  0  0  0  0  0  0  0  0  0  0  0
   44.5090   35.7540   44.1800 C   0  0  0  0  0  0  0  0  0  0  0  0
   45.0240   34.9310   43.1880 C   0  0  0  0  0  0  0  0  0  0  0  0
   45.6260   33.7640   43.5710 N   0  0  0  0  0  0  0  0  0  0  0  0
   45.7170   33.4180   44.8980 C   0  0  0  0  0  0  0  0  0  0  0  0
   45.2330   34.1900   45.8390 N   0  0  0  0  0  0  0  0  0  0  0  0
   44.9490   35.2480   41.8540 O   0  0  0  0  0  0  0  0  0  0  0  0
   43.9350   34.7930   41.0330 C   0  0  0  0  0  0  0  0  0  0  0  0
   43.7410   35.8310   41.6930 O   0  0  0  0  0  0  0  0  0  0  0  0
   47.5341   31.5060   47.0317 H   0  0  0  0  0  0  0  0  0  0  0  0
   46.8508   30.2642   49.6363 H   0  0  0  0  0  0  0  0  0  0  0  0
   47.9812   31.5592   49.3649 H   0  0  0  0  0  0  0  0  0  0  0  0
   45.5296   32.2226   50.0970 H   0  0  0  0  0  0  0  0  0  0  0  0
   46.1550   33.1108   48.7173 H   0  0  0  0  0  0  0  0  0  0  0  0
   44.2174   30.7554   48.7877 H   0  0  0  0  0  0  0  0  0  0  0  0
   44.1091   32.1600   47.7727 H   0  0  0  0  0  0  0  0  0  0  0  0
   45.7376   28.0324   48.8073 H   0  0  0  0  0  0  0  0  0  0  0  0
   44.2106   26.2246   47.6076 H   0  0  0  0  0  0  0  0  0  0  0  0
   43.2380   27.3802   45.4766 H   0  0  0  0  0  0  0  0  0  0  0  0
   44.2382   35.9761   46.3239 H   0  0  0  0  0  0  0  0  0  0  0  0
   44.0144   36.7034   43.9271 H   0  0  0  0  0  0  0  0  0  0  0  0
   44.0931   33.9471   41.7181 H   0  0  0  0  0  0  0  0  0  0  0  0
   43.0588   34.5925   40.3989 H   0  0  0  0  0  0  0  0  0  0  0  0
   44.8245   34.9225   40.3989 H   0  0  0  0  0  0  0  0  0  0  0  0
  1  2  1  0
  2  3  1  0
  4  3  1  0
  5 11  1  6
  5  1  1  0
  5  4  1  0
  6  5  1  0
  6  7  1  0
  8  7  2  0
  9  8  1  0
 10  9  1  0
 10  6  2  0
 12 11  1  0
 13 12  2  0
 14 19  2  0
 15 14  1  0
 16 17  1  0
 16 15  2  0
 17 18  2  0
 18 12  1  0
 18 19  1  0
 20 16  1  0
 21 22  1  0
 22 20  1  0
  1 23  1  0
  2 24  1  0
  2 25  1  0
  3 26  1  0
  3 27  1  0
  4 28  1  0
  4 29  1  0
  7 30  1  0
  8 31  1  0
  9 32  1  0
 14 33  1  0
 15 34  1  0
 21 35  1  0
 21 36  1  0
 21 37  1  0
M  ISO  8  23   5  24  13  25  13  26  13  27  13  28  13  29  13  30  14
M  ISO  7  31  14  32   9  33  14  34  14  35   8  36   8  37   8
M  END
>  <minimizedAffinity>  (1) 
-5.2183857

>  <minimizedRMSD>  (1) 
0.735358298

$$$$
