
     RDKit          3D

 23 24  0  0  0  0  0  0  0  0999 V2000
   44.0130   35.5550   42.6630 C   0  0  0  0  0  0  0  0  0  0  0  0
   43.2990   35.0540   41.5610 C   0  0  0  0  0  0  0  0  0  0  0  0
   43.9890   34.3260   40.5950 C   0  0  0  0  0  0  0  0  0  0  0  0
   45.3350   34.1160   40.7400 N   0  0  0  0  0  0  0  0  0  0  0  0
   45.9770   34.6230   41.8230 C   0  0  0  0  0  0  0  0  0  0  0  0
   45.3220   35.3320   42.7700 N   0  0  0  0  0  0  0  0  0  0  0  0
   47.4220   34.4290   42.0360 C   0  0  0  0  0  0  0  0  0  0  0  0
   48.2690   35.4990   41.9330 C   0  0  0  0  0  0  0  0  0  0  0  0
   49.6380   35.3430   42.1280 C   0  0  0  0  0  0  0  0  0  0  0  0
   50.1700   34.1060   42.4270 C   0  0  0  0  0  0  0  0  0  0  0  0
   49.2760   33.0610   42.5190 C   0  0  0  0  0  0  0  0  0  0  0  0
   47.9570   33.2250   42.3290 N   0  0  0  0  0  0  0  0  0  0  0  0
   41.5200   35.3480   41.4000 S   0  0  0  0  0  0  0  0  0  0  0  0
   41.0480   35.1010   39.6860 C   0  0  0  0  0  0  0  0  0  0  0  0
   41.8460   35.7770   38.7850 F   0  0  0  0  0  0  0  0  0  0  0  0
   39.7490   35.4840   39.5120 F   0  0  0  0  0  0  0  0  0  0  0  0
   41.1480   33.7450   39.4060 F   0  0  0  0  0  0  0  0  0  0  0  0
   43.4896   36.1327   43.4391 H   0  0  0  0  0  0  0  0  0  0  0  0
   43.4567   33.9222   39.7212 H   0  0  0  0  0  0  0  0  0  0  0  0
   47.8633   36.4930   41.6935 H   0  0  0  0  0  0  0  0  0  0  0  0
   50.3028   36.2152   42.0428 H   0  0  0  0  0  0  0  0  0  0  0  0
   51.2492   33.9614   42.5835 H   0  0  0  0  0  0  0  0  0  0  0  0
   49.6567   32.0567   42.7566 H   0  0  0  0  0  0  0  0  0  0  0  0
  1  6  2  0
  2  1  1  0
  3  4  1  0
  3  2  2  0
  4  5  2  0
  5  7  1  0
  5  6  1  0
  7 12  1  0
  8  7  2  0
  8  9  1  0
  9 10  2  0
 10 11  1  0
 12 11  2  0
 13  2  1  0
 14 13  1  0
 15 14  1  0
 16 14  1  0
 17 14  1  0
  1 18  1  0
  3 19  1  0
  8 20  1  0
  9 21  1  0
 10 22  1  0
 11 23  1  0
M  ISO  6  18  14  19  14  20  14  21  14  22  14  23  14
M  END
>  <minimizedAffinity>  (1) 
-5.01777267

>  <minimizedRMSD>  (1) 
0.610031366

$$$$
