
     RDKit          3D

 49 52  0  0  1  0  0  0  0  0999 V2000
   46.7660   33.9530   42.7820 N   0  0  0  0  0  0  0  0  0  0  0  0
   48.0770   34.4270   42.3550 C   0  0  0  0  0  0  0  0  0  0  0  0
   47.7670   34.8090   40.9270 C   0  0  0  0  0  0  0  0  0  0  0  0
   47.0530   33.5580   40.4570 C   0  0  0  0  0  0  0  0  0  0  0  0
   46.2170   33.1940   41.6470 C   0  0  2  0  0  0  0  0  0  0  0  0
   44.5800   35.3220   45.4540 C   0  0  0  0  0  0  0  0  0  0  0  0
   45.2000   35.1870   44.2040 C   0  0  0  0  0  0  0  0  0  0  0  0
   46.1110   34.1460   43.9980 C   0  0  0  0  0  0  0  0  0  0  0  0
   46.3410   33.3150   45.0500 N   0  0  0  0  0  0  0  0  0  0  0  0
   45.7420   33.4460   46.2560 C   0  0  0  0  0  0  0  0  0  0  0  0
   44.8620   34.4560   46.4430 N   0  0  0  0  0  0  0  0  0  0  0  0
   46.0410   32.5250   47.3120 N   0  0  0  0  0  0  0  0  0  0  0  0
   47.4230   32.1780   47.5520 C   0  0  0  0  0  0  0  0  0  0  0  0
   47.6610   31.6060   48.9170 C   0  0  0  0  0  0  0  0  0  0  0  0
   46.5820   30.6790   49.2890 N   0  0  0  0  0  0  0  0  0  0  0  0
   45.4160   31.5560   49.4770 C   0  0  0  0  0  0  0  0  0  0  0  0
   44.9770   31.9760   48.0930 C   0  0  0  0  0  0  0  0  0  0  0  0
   44.8120   33.3110   41.4890 N   0  0  0  0  0  0  0  0  0  0  0  0
   44.1430   34.2710   40.8420 C   0  0  0  0  0  0  0  0  0  0  0  0
   42.7600   34.2920   40.7490 C   0  0  0  0  0  0  0  0  0  0  0  0
   42.0280   33.2870   41.3430 C   0  0  0  0  0  0  0  0  0  0  0  0
   40.7440   33.2420   41.2970 O   0  0  0  0  0  0  0  0  0  0  0  0
   42.7050   32.3240   41.9930 N   0  0  0  0  0  0  0  0  0  0  0  0
   44.0320   32.3510   42.0530 C   0  0  0  0  0  0  0  0  0  0  0  0
   44.5780   31.3970   42.6900 O   0  0  0  0  0  0  0  0  0  0  0  0
   42.0390   35.3540   40.0370 C   0  0  0  0  0  0  0  0  0  0  0  0
   48.4101   35.2930   42.9459 H   0  0  0  0  0  0  0  0  0  0  0  0
   48.8932   33.6990   42.4725 H   0  0  0  0  0  0  0  0  0  0  0  0
   47.1144   35.6930   40.8753 H   0  0  0  0  0  0  0  0  0  0  0  0
   48.6446   35.0898   40.3261 H   0  0  0  0  0  0  0  0  0  0  0  0
   46.4245   33.7655   39.5784 H   0  0  0  0  0  0  0  0  0  0  0  0
   47.7363   32.7564   40.1399 H   0  0  0  0  0  0  0  0  0  0  0  0
   46.2939   32.1103   41.8195 H   0  0  0  0  0  0  0  0  0  0  0  0
   43.8620   36.1374   45.6259 H   0  0  0  0  0  0  0  0  0  0  0  0
   44.9720   35.8936   43.3923 H   0  0  0  0  0  0  0  0  0  0  0  0
   47.7316   31.4341   46.8028 H   0  0  0  0  0  0  0  0  0  0  0  0
   48.0096   33.1057   47.4801 H   0  0  0  0  0  0  0  0  0  0  0  0
   48.6186   31.0647   48.9194 H   0  0  0  0  0  0  0  0  0  0  0  0
   47.6855   32.4297   49.6456 H   0  0  0  0  0  0  0  0  0  0  0  0
   46.4100   29.9956   48.5378 H   0  0  0  0  0  0  0  0  0  0  0  0
   44.6067   31.0108   49.9848 H   0  0  0  0  0  0  0  0  0  0  0  0
   45.6661   32.4274   50.1000 H   0  0  0  0  0  0  0  0  0  0  0  0
   44.1866   32.7347   48.1912 H   0  0  0  0  0  0  0  0  0  0  0  0
   44.6189   31.0748   47.5738 H   0  0  0  0  0  0  0  0  0  0  0  0
   44.7149   35.0792   40.3627 H   0  0  0  0  0  0  0  0  0  0  0  0
   42.1896   31.5576   42.4490 H   0  0  0  0  0  0  0  0  0  0  0  0
   41.5763   36.0355   40.7661 H   0  0  0  0  0  0  0  0  0  0  0  0
   42.7433   35.9157   39.4057 H   0  0  0  0  0  0  0  0  0  0  0  0
   41.2571   34.9067   39.4057 H   0  0  0  0  0  0  0  0  0  0  0  0
  1  8  1  0
  2  1  1  0
  3  2  1  0
  4  3  1  0
  4  5  1  0
  5  1  1  0
  6 11  2  0
  7  6  1  0
  8  7  2  0
  8  9  1  0
  9 10  2  0
 10 11  1  0
 10 12  1  0
 12 13  1  0
 12 17  1  0
 13 14  1  0
 14 15  1  0
 15 16  1  0
 17 16  1  0
 18  5  1  0
 18 24  1  0
 19 18  1  0
 20 19  2  0
 20 21  1  0
 21 23  1  0
 22 21  2  0
 23 24  1  0
 24 25  2  0
 26 20  1  0
  2 27  1  0
  2 28  1  0
  3 29  1  0
  3 30  1  0
  4 31  1  0
  4 32  1  0
  5 33  1  1
  6 34  1  0
  7 35  1  0
 13 36  1  0
 13 37  1  0
 14 38  1  0
 14 39  1  0
 15 40  1  0
 16 41  1  0
 16 42  1  0
 17 43  1  0
 17 44  1  0
 19 45  1  0
 23 46  1  0
 26 47  1  0
 26 48  1  0
 26 49  1  0
M  ISO  8  27  13  28  13  29  13  30  13  31  13  32  13  33  13  34  14
M  ISO  8  35  14  36  13  37  13  38  13  39  13  40   5  41  13  42  13
M  ISO  7  43  13  44  13  45  14  46   9  47   8  48   8  49   8
M  END
>  <minimizedAffinity>  (1) 
-7.26182556

>  <minimizedRMSD>  (1) 
0.93922621

$$$$
