
     RDKit          3D

 44 48  0  0  0  0  0  0  0  0999 V2000
   44.6440   36.1300   44.4450 C   0  0  0  0  0  0  0  0  0  0  0  0
   45.3860   35.9970   43.2440 C   0  0  0  0  0  0  0  0  0  0  0  0
   46.2050   34.8750   43.1000 C   0  0  0  0  0  0  0  0  0  0  0  0
   46.2330   33.9920   44.1120 N   0  0  0  0  0  0  0  0  0  0  0  0
   45.5430   34.1140   45.2370 C   0  0  0  0  0  0  0  0  0  0  0  0
   44.7370   35.1810   45.4240 N   0  0  0  0  0  0  0  0  0  0  0  0
   45.7610   33.0410   46.1350 N   0  0  0  0  0  0  0  0  0  0  0  0
   45.2330   32.7280   47.3200 C   0  0  0  0  0  0  0  0  0  0  0  0
   45.8000   31.5210   47.7310 C   0  0  0  0  0  0  0  0  0  0  0  0
   46.6690   31.1630   46.7360 N   0  0  0  0  0  0  0  0  0  0  0  0
   46.6330   32.0940   45.7820 C   0  0  0  0  0  0  0  0  0  0  0  0
   47.5490   31.7410   44.7580 N   0  0  0  0  0  0  0  0  0  0  0  0
   48.1640   32.6690   43.8010 C   0  0  0  0  0  0  0  0  0  0  0  0
   47.9380   31.9680   42.4480 C   0  0  0  0  0  0  0  0  0  0  0  0
   48.8890   30.8850   42.4170 N   0  0  0  0  0  0  0  0  0  0  0  0
   49.1670   30.3140   43.7140 C   0  0  0  0  0  0  0  0  0  0  0  0
   47.9300   30.3500   44.5720 C   0  0  0  0  0  0  0  0  0  0  0  0
   46.9330   34.7870   41.9040 N   0  0  0  0  0  0  0  0  0  0  0  0
   48.1740   35.3700   41.7690 C   0  0  0  0  0  0  0  0  0  0  0  0
   48.6320   35.1260   40.5270 N   0  0  0  0  0  0  0  0  0  0  0  0
   47.7110   34.4000   39.8640 C   0  0  0  0  0  0  0  0  0  0  0  0
   47.6710   33.8810   38.5790 C   0  0  0  0  0  0  0  0  0  0  0  0
   46.5630   33.1800   38.2410 N   0  0  0  0  0  0  0  0  0  0  0  0
   45.5520   32.9920   39.0970 C   0  0  0  0  0  0  0  0  0  0  0  0
   45.5860   33.5000   40.3630 N   0  0  0  0  0  0  0  0  0  0  0  0
   46.6650   34.2010   40.7400 C   0  0  0  0  0  0  0  0  0  0  0  0
   48.7670   34.0890   37.7030 N   0  0  0  0  0  0  0  0  0  0  0  0
   43.9896   37.0023   44.5896 H   0  0  0  0  0  0  0  0  0  0  0  0
   45.3185   36.7548   42.4496 H   0  0  0  0  0  0  0  0  0  0  0  0
   44.4855   33.3156   47.8731 H   0  0  0  0  0  0  0  0  0  0  0  0
   45.5919   30.9716   48.6610 H   0  0  0  0  0  0  0  0  0  0  0  0
   47.6673   33.6502   43.8262 H   0  0  0  0  0  0  0  0  0  0  0  0
   49.2240   32.8724   44.0131 H   0  0  0  0  0  0  0  0  0  0  0  0
   46.9106   31.5806   42.3817 H   0  0  0  0  0  0  0  0  0  0  0  0
   48.0736   32.6571   41.6014 H   0  0  0  0  0  0  0  0  0  0  0  0
   48.5153   30.1424   41.8089 H   0  0  0  0  0  0  0  0  0  0  0  0
   49.4932   29.2709   43.5898 H   0  0  0  0  0  0  0  0  0  0  0  0
   49.9604   30.8991   44.2020 H   0  0  0  0  0  0  0  0  0  0  0  0
   47.1152   29.8037   44.0744 H   0  0  0  0  0  0  0  0  0  0  0  0
   48.1272   29.8757   45.5447 H   0  0  0  0  0  0  0  0  0  0  0  0
   48.7028   35.9402   42.5470 H   0  0  0  0  0  0  0  0  0  0  0  0
   44.6735   32.4148   38.7728 H   0  0  0  0  0  0  0  0  0  0  0  0
   48.7424   33.7056   36.7473 H   0  0  0  0  0  0  0  0  0  0  0  0
   49.5875   34.6234   38.0225 H   0  0  0  0  0  0  0  0  0  0  0  0
  1  6  2  0
  2  1  1  0
  3  2  2  0
  3  4  1  0
  4  5  2  0
  5  6  1  0
  5  7  1  0
  7  8  1  0
  8  9  2  0
 10  9  1  0
 11  7  1  0
 11 10  2  0
 12 11  1  0
 13 12  1  0
 14 13  1  0
 15 14  1  0
 15 16  1  0
 16 17  1  0
 17 12  1  0
 18  3  1  0
 19 18  1  0
 20 19  2  0
 21 20  1  0
 21 26  2  0
 22 21  1  0
 23 22  2  0
 23 24  1  0
 24 25  2  0
 25 26  1  0
 26 18  1  0
 27 22  1  0
  1 28  1  0
  2 29  1  0
  8 30  1  0
  9 31  1  0
 13 32  1  0
 13 33  1  0
 14 34  1  0
 14 35  1  0
 15 36  1  0
 16 37  1  0
 16 38  1  0
 17 39  1  0
 17 40  1  0
 19 41  1  0
 24 42  1  0
 27 43  1  0
 27 44  1  0
M  END
>  <minimizedAffinity>  (1) 
-7.07226515

>  <minimizedRMSD>  (1) 
0.41982457

$$$$
