
     RDKit          3D

 55 60  0  0  0  0  0  0  0  0999 V2000
   48.1080   30.9670   48.4240 C   0  0  0  0  0  0  0  0  0  0  0  0
   48.9610   31.5030   49.3600 C   0  0  0  0  0  0  0  0  0  0  0  0
   49.9860   30.7560   49.9000 C   0  0  0  0  0  0  0  0  0  0  0  0
   50.1280   29.4480   49.4690 C   0  0  0  0  0  0  0  0  0  0  0  0
   49.2910   28.9140   48.5480 C   0  0  0  0  0  0  0  0  0  0  0  0
   48.2730   29.6700   48.0180 C   0  0  0  0  0  0  0  0  0  0  0  0
   44.4750   35.7870   44.5970 C   0  0  0  0  0  0  0  0  0  0  0  0
   45.2170   35.6770   43.4200 C   0  0  0  0  0  0  0  0  0  0  0  0
   46.2110   34.7110   43.3300 C   0  0  0  0  0  0  0  0  0  0  0  0
   46.4270   33.9010   44.3950 N   0  0  0  0  0  0  0  0  0  0  0  0
   45.6830   34.0310   45.5380 C   0  0  0  0  0  0  0  0  0  0  0  0
   44.7120   34.9640   45.6480 N   0  0  0  0  0  0  0  0  0  0  0  0
   45.9060   33.1840   46.6630 N   0  0  0  0  0  0  0  0  0  0  0  0
   47.0940   32.5610   46.7360 C   0  0  0  0  0  0  0  0  0  0  0  0
   47.0540   31.8150   47.9030 C   0  0  0  0  0  0  0  0  0  0  0  0
   45.8550   32.0020   48.5030 N   0  0  0  0  0  0  0  0  0  0  0  0
   45.1500   32.8340   47.7530 C   0  0  0  0  0  0  0  0  0  0  0  0
   47.3870   29.1230   47.0520 N   0  0  0  0  0  0  0  0  0  0  0  0
   49.4440   27.5440   48.1040 C   0  0  0  0  0  0  0  0  0  0  0  0
   48.6260   26.6200   48.4180 O   0  0  0  0  0  0  0  0  0  0  0  0
   50.6020   27.1740   47.2360 C   0  0  0  0  0  0  0  0  0  0  0  0
   51.6480   26.3420   47.7500 C   0  0  0  0  0  0  0  0  0  0  0  0
   52.7380   26.1910   46.2970 S   0  0  0  0  0  0  0  0  0  0  0  0
   51.6250   27.2660   45.2270 C   0  0  0  0  0  0  0  0  0  0  0  0
   50.7730   27.5190   45.9900 N   0  0  0  0  0  0  0  0  0  0  0  0
   51.9130   27.5740   43.8790 N   0  0  0  0  0  0  0  0  0  0  0  0
   51.8240   25.7170   49.0200 C   0  0  0  0  0  0  0  0  0  0  0  0
   51.4380   24.4470   49.3810 C   0  0  0  0  0  0  0  0  0  0  0  0
   51.6290   23.8140   50.5620 C   0  0  0  0  0  0  0  0  0  0  0  0
   52.2810   24.4620   51.5680 C   0  0  0  0  0  0  0  0  0  0  0  0
   52.7080   25.7330   51.3120 C   0  0  0  0  0  0  0  0  0  0  0  0
   53.3820   26.3660   52.3310 C   0  0  0  0  0  0  0  0  0  0  0  0
   53.8750   27.6390   52.1790 C   0  0  0  0  0  0  0  0  0  0  0  0
   53.6740   28.2620   50.9710 C   0  0  0  0  0  0  0  0  0  0  0  0
   52.9930   27.5740   49.9940 C   0  0  0  0  0  0  0  0  0  0  0  0
   52.4750   26.3230   50.0650 C   0  0  0  0  0  0  0  0  0  0  0  0
   48.8231   32.5453   49.6832 H   0  0  0  0  0  0  0  0  0  0  0  0
   50.6685   31.1849   50.6485 H   0  0  0  0  0  0  0  0  0  0  0  0
   50.9378   28.8295   49.8834 H   0  0  0  0  0  0  0  0  0  0  0  0
   43.6876   36.5514   44.6729 H   0  0  0  0  0  0  0  0  0  0  0  0
   45.0166   36.3486   42.5722 H   0  0  0  0  0  0  0  0  0  0  0  0
   46.8103   34.6056   42.4136 H   0  0  0  0  0  0  0  0  0  0  0  0
   47.9253   32.6289   46.0188 H   0  0  0  0  0  0  0  0  0  0  0  0
   44.1300   33.1855   47.9675 H   0  0  0  0  0  0  0  0  0  0  0  0
   47.5031   28.1482   46.7403 H   0  0  0  0  0  0  0  0  0  0  0  0
   46.6284   29.7011   46.6632 H   0  0  0  0  0  0  0  0  0  0  0  0
   52.7667   27.2040   43.4372 H   0  0  0  0  0  0  0  0  0  0  0  0
   51.2693   28.1686   43.3377 H   0  0  0  0  0  0  0  0  0  0  0  0
   50.9050   23.8713   48.6100 H   0  0  0  0  0  0  0  0  0  0  0  0
   51.2619   22.7874   50.7082 H   0  0  0  0  0  0  0  0  0  0  0  0
   52.4554   23.9824   52.5425 H   0  0  0  0  0  0  0  0  0  0  0  0
   53.5290   25.8419   53.2869 H   0  0  0  0  0  0  0  0  0  0  0  0
   54.4123   28.1424   52.9963 H   0  0  0  0  0  0  0  0  0  0  0  0
   54.0468   29.2811   50.7906 H   0  0  0  0  0  0  0  0  0  0  0  0
   52.8515   28.1025   49.0397 H   0  0  0  0  0  0  0  0  0  0  0  0
  1  2  2  0
  2  3  1  0
  4  3  2  0
  5  4  1  0
  6  1  1  0
  6  5  2  0
  7 12  2  0
  8  7  1  0
  9  8  2  0
  9 10  1  0
 10 11  2  0
 11 12  1  0
 11 13  1  0
 13 14  1  0
 13 17  1  0
 14 15  2  0
 15  1  1  0
 15 16  1  0
 17 16  2  0
 18  6  1  0
 19 20  2  0
 19  5  1  0
 21 22  2  0
 21 19  1  0
 22 27  1  0
 23 22  1  0
 24 25  2  0
 24 23  1  0
 25 21  1  0
 26 24  1  0
 27 28  2  0
 27 36  1  0
 28 29  1  0
 29 30  2  0
 31 30  1  0
 31 32  2  0
 33 32  1  0
 34 33  2  0
 35 36  2  0
 35 34  1  0
 36 31  1  0
  2 37  1  0
  3 38  1  0
  4 39  1  0
  7 40  1  0
  8 41  1  0
  9 42  1  0
 14 43  1  0
 17 44  1  0
 18 45  1  0
 18 46  1  0
 26 47  1  0
 26 48  1  0
 28 49  1  0
 29 50  1  0
 30 51  1  0
 32 52  1  0
 33 53  1  0
 34 54  1  0
 35 55  1  0
M  ISO  8  37  14  38  14  39  14  40  14  41  14  42  14  43  14  44  14
M  ISO  7  49  14  50  14  51  14  52  14  53  14  54  14  55  14
M  END
>  <minimizedAffinity>  (1) 
-6.53459597

>  <minimizedRMSD>  (1) 
0.641566038

$$$$
