
     RDKit          3D

 48 53  0  0  0  0  0  0  0  0999 V2000
   44.6700   35.7560   44.8760 C   0  0  0  0  0  0  0  0  0  0  0  0
   45.3620   35.8640   43.6650 C   0  0  0  0  0  0  0  0  0  0  0  0
   46.1680   34.8460   43.2510 C   0  0  0  0  0  0  0  0  0  0  0  0
   46.2520   33.7650   44.0550 N   0  0  0  0  0  0  0  0  0  0  0  0
   45.5950   33.6590   45.2080 C   0  0  0  0  0  0  0  0  0  0  0  0
   44.8050   34.6270   45.6420 N   0  0  0  0  0  0  0  0  0  0  0  0
   46.9400   34.8260   42.0210 C   0  0  0  0  0  0  0  0  0  0  0  0
   48.1100   35.4940   41.8430 C   0  0  0  0  0  0  0  0  0  0  0  0
   48.8570   35.4920   40.6960 C   0  0  0  0  0  0  0  0  0  0  0  0
   48.3910   34.7680   39.6640 N   0  0  0  0  0  0  0  0  0  0  0  0
   47.2490   34.0950   39.7910 C   0  0  0  0  0  0  0  0  0  0  0  0
   46.5280   34.1110   40.9290 N   0  0  0  0  0  0  0  0  0  0  0  0
   46.8200   33.3500   38.6630 N   0  0  0  0  0  0  0  0  0  0  0  0
   45.9510   32.3460   38.4950 N   0  0  0  0  0  0  0  0  0  0  0  0
   45.9040   31.9810   37.2100 C   0  0  0  0  0  0  0  0  0  0  0  0
   46.7850   32.7960   36.5370 C   0  0  0  0  0  0  0  0  0  0  0  0
   47.3510   33.6470   37.4580 C   0  0  0  0  0  0  0  0  0  0  0  0
   45.6840   32.4840   46.0750 C   0  0  0  0  0  0  0  0  0  0  0  0
   45.5270   32.7020   47.4520 C   0  0  0  0  0  0  0  0  0  0  0  0
   45.6520   31.4720   48.0550 C   0  0  0  0  0  0  0  0  0  0  0  0
   45.8780   30.5760   47.0290 C   0  0  0  0  0  0  0  0  0  0  0  0
   45.8870   31.2020   45.9090 O   0  0  0  0  0  0  0  0  0  0  0  0
   46.0580   29.1620   47.3510 C   0  0  0  0  0  0  0  0  0  0  0  0
   45.0020   28.3280   47.6610 C   0  0  0  0  0  0  0  0  0  0  0  0
   45.0940   26.9930   47.9720 C   0  0  0  0  0  0  0  0  0  0  0  0
   46.3390   26.4060   47.9850 C   0  0  0  0  0  0  0  0  0  0  0  0
   47.4430   27.1700   47.6870 C   0  0  0  0  0  0  0  0  0  0  0  0
   48.6760   26.5570   47.7070 C   0  0  0  0  0  0  0  0  0  0  0  0
   49.8150   27.2610   47.4210 C   0  0  0  0  0  0  0  0  0  0  0  0
   49.6580   28.5960   47.1160 C   0  0  0  0  0  0  0  0  0  0  0  0
   48.4140   29.1780   47.1050 C   0  0  0  0  0  0  0  0  0  0  0  0
   47.2660   28.5020   47.3860 C   0  0  0  0  0  0  0  0  0  0  0  0
   44.0185   36.5757   45.2131 H   0  0  0  0  0  0  0  0  0  0  0  0
   45.2558   36.7686   43.0483 H   0  0  0  0  0  0  0  0  0  0  0  0
   48.4878   36.0849   42.6904 H   0  0  0  0  0  0  0  0  0  0  0  0
   49.7973   36.0580   40.6221 H   0  0  0  0  0  0  0  0  0  0  0  0
   45.2823   31.1844   36.7753 H   0  0  0  0  0  0  0  0  0  0  0  0
   46.9981   32.7716   35.4581 H   0  0  0  0  0  0  0  0  0  0  0  0
   48.0990   34.4264   37.2505 H   0  0  0  0  0  0  0  0  0  0  0  0
   45.3410   33.6649   47.9503 H   0  0  0  0  0  0  0  0  0  0  0  0
   45.5858   31.2488   49.1301 H   0  0  0  0  0  0  0  0  0  0  0  0
   43.9960   28.7729   47.6587 H   0  0  0  0  0  0  0  0  0  0  0  0
   44.1932   26.4065   48.2053 H   0  0  0  0  0  0  0  0  0  0  0  0
   46.4495   25.3395   48.2306 H   0  0  0  0  0  0  0  0  0  0  0  0
   48.7467   25.4879   47.9560 H   0  0  0  0  0  0  0  0  0  0  0  0
   50.8064   26.7847   47.4340 H   0  0  0  0  0  0  0  0  0  0  0  0
   50.5427   29.2047   46.8777 H   0  0  0  0  0  0  0  0  0  0  0  0
   48.3413   30.2470   46.8560 H   0  0  0  0  0  0  0  0  0  0  0  0
  1  6  2  0
  2  1  1  0
  3  2  2  0
  3  4  1  0
  4  5  2  0
  5  6  1  0
  5 18  1  0
  7  3  1  0
  8  7  2  0
  9  8  1  0
 10 11  1  0
 10  9  2  0
 11 12  2  0
 12  7  1  0
 13 11  1  0
 14 13  1  0
 15 14  2  0
 16 15  1  0
 16 17  2  0
 17 13  1  0
 18 19  2  0
 19 20  1  0
 21 23  1  0
 21 20  2  0
 22 18  1  0
 22 21  1  0
 23 32  1  0
 23 24  2  0
 24 25  1  0
 25 26  2  0
 27 28  2  0
 27 26  1  0
 29 28  1  0
 30 29  2  0
 31 30  1  0
 31 32  2  0
 32 27  1  0
  1 33  1  0
  2 34  1  0
  8 35  1  0
  9 36  1  0
 15 37  1  0
 16 38  1  0
 17 39  1  0
 19 40  1  0
 20 41  1  0
 24 42  1  0
 25 43  1  0
 26 44  1  0
 28 45  1  0
 29 46  1  0
 30 47  1  0
 31 48  1  0
M  END
>  <minimizedAffinity>  (1) 
-7.01508951

>  <minimizedRMSD>  (1) 
2.83787251

$$$$
