
     RDKit          3D

 37 41  0  0  0  0  0  0  0  0999 V2000
   44.4220   35.9660   44.9020 C   0  0  0  0  0  0  0  0  0  0  0  0
   45.0360   35.9870   43.6510 C   0  0  0  0  0  0  0  0  0  0  0  0
   45.9270   34.9750   43.3150 C   0  0  0  0  0  0  0  0  0  0  0  0
   46.1500   34.0090   44.2530 N   0  0  0  0  0  0  0  0  0  0  0  0
   45.5510   34.0020   45.4540 C   0  0  0  0  0  0  0  0  0  0  0  0
   44.6950   34.9770   45.7680 N   0  0  0  0  0  0  0  0  0  0  0  0
   45.8960   32.9130   46.3320 N   0  0  0  0  0  0  0  0  0  0  0  0
   45.5690   32.7220   47.6180 C   0  0  0  0  0  0  0  0  0  0  0  0
   46.1330   31.5510   48.0110 N   0  0  0  0  0  0  0  0  0  0  0  0
   46.8090   31.0040   46.9920 C   0  0  0  0  0  0  0  0  0  0  0  0
   47.5460   29.8310   46.8850 C   0  0  0  0  0  0  0  0  0  0  0  0
   48.1070   29.5810   45.6910 N   0  0  0  0  0  0  0  0  0  0  0  0
   47.9520   30.4260   44.6710 C   0  0  0  0  0  0  0  0  0  0  0  0
   47.2370   31.5860   44.7400 N   0  0  0  0  0  0  0  0  0  0  0  0
   46.6630   31.8600   45.9330 C   0  0  0  0  0  0  0  0  0  0  0  0
   46.7170   34.8550   42.1110 C   0  0  0  0  0  0  0  0  0  0  0  0
   47.9740   35.4840   42.1240 C   0  0  0  0  0  0  0  0  0  0  0  0
   48.8670   35.4790   41.1010 C   0  0  0  0  0  0  0  0  0  0  0  0
   48.5640   34.8170   39.9340 C   0  0  0  0  0  0  0  0  0  0  0  0
   47.3630   34.1820   39.8520 C   0  0  0  0  0  0  0  0  0  0  0  0
   47.0310   33.4780   38.7190 C   0  0  0  0  0  0  0  0  0  0  0  0
   45.8470   32.7870   38.5940 C   0  0  0  0  0  0  0  0  0  0  0  0
   44.9870   32.8340   39.6870 C   0  0  0  0  0  0  0  0  0  0  0  0
   45.3290   33.5370   40.8040 C   0  0  0  0  0  0  0  0  0  0  0  0
   46.5020   34.2220   40.9180 C   0  0  0  0  0  0  0  0  0  0  0  0
   43.7134   36.7601   45.1800 H   0  0  0  0  0  0  0  0  0  0  0  0
   44.8178   36.7955   42.9377 H   0  0  0  0  0  0  0  0  0  0  0  0
   44.9564   33.3909   48.2404 H   0  0  0  0  0  0  0  0  0  0  0  0
   47.6638   29.1425   47.7348 H   0  0  0  0  0  0  0  0  0  0  0  0
   48.4307   30.1718   43.7138 H   0  0  0  0  0  0  0  0  0  0  0  0
   48.2578   36.0251   43.0387 H   0  0  0  0  0  0  0  0  0  0  0  0
   49.8289   36.0023   41.2052 H   0  0  0  0  0  0  0  0  0  0  0  0
   49.2715   34.8013   39.0918 H   0  0  0  0  0  0  0  0  0  0  0  0
   47.7401   33.4663   37.8782 H   0  0  0  0  0  0  0  0  0  0  0  0
   45.5946   32.2285   37.6805 H   0  0  0  0  0  0  0  0  0  0  0  0
   44.0256   32.3008   39.6496 H   0  0  0  0  0  0  0  0  0  0  0  0
   44.6272   33.5521   41.6509 H   0  0  0  0  0  0  0  0  0  0  0  0
  1  6  2  0
  2  1  1  0
  3  2  2  0
  3  4  1  0
  4  5  2  0
  5  6  1  0
  5  7  1  0
  7  8  1  0
  8  9  2  0
 10  9  1  0
 11 10  2  0
 12 11  1  0
 13 14  1  0
 13 12  2  0
 14 15  2  0
 15  7  1  0
 15 10  1  0
 16 17  2  0
 16  3  1  0
 18 17  1  0
 19 18  2  0
 20 19  1  0
 20 25  2  0
 21 20  1  0
 22 21  2  0
 22 23  1  0
 23 24  2  0
 24 25  1  0
 25 16  1  0
  1 26  1  0
  2 27  1  0
  8 28  1  0
 11 29  1  0
 13 30  1  0
 17 31  1  0
 18 32  1  0
 19 33  1  0
 21 34  1  0
 22 35  1  0
 23 36  1  0
 24 37  1  0
M  END
>  <minimizedAffinity>  (1) 
-7.55581999

>  <minimizedRMSD>  (1) 
1.90732658

$$$$
