
     RDKit          3D

 51 55  0  0  1  0  0  0  0  0999 V2000
   46.4270   33.8820   42.3520 N   0  0  0  0  0  0  0  0  0  0  0  0
   47.7430   34.1760   41.8220 C   0  0  0  0  0  0  0  0  0  0  0  0
   47.3950   34.4080   40.3710 C   0  0  0  0  0  0  0  0  0  0  0  0
   46.5760   33.1750   40.1020 C   0  0  0  0  0  0  0  0  0  0  0  0
   45.7650   33.0290   41.3540 C   0  0  2  0  0  0  0  0  0  0  0  0
   44.3710   33.2450   41.2270 N   0  0  0  0  0  0  0  0  0  0  0  0
   43.7430   34.1840   40.4980 C   0  0  0  0  0  0  0  0  0  0  0  0
   42.3590   34.2910   40.4620 C   0  0  0  0  0  0  0  0  0  0  0  0
   41.5810   33.4200   41.1890 C   0  0  0  0  0  0  0  0  0  0  0  0
   40.2990   33.4800   41.1880 O   0  0  0  0  0  0  0  0  0  0  0  0
   42.2170   32.4810   41.9180 N   0  0  0  0  0  0  0  0  0  0  0  0
   43.5530   32.4090   41.9260 C   0  0  0  0  0  0  0  0  0  0  0  0
   44.0420   31.4900   42.6420 O   0  0  0  0  0  0  0  0  0  0  0  0
   41.6920   35.3360   39.6550 C   0  0  0  0  0  0  0  0  0  0  0  0
   44.5760   35.7860   44.9490 C   0  0  0  0  0  0  0  0  0  0  0  0
   45.1240   35.4670   43.6920 C   0  0  0  0  0  0  0  0  0  0  0  0
   45.8410   34.2870   43.5520 C   0  0  0  0  0  0  0  0  0  0  0  0
   45.9430   33.5320   44.6840 N   0  0  0  0  0  0  0  0  0  0  0  0
   45.4270   33.8220   45.8800 C   0  0  0  0  0  0  0  0  0  0  0  0
   44.7460   34.9590   45.9830 N   0  0  0  0  0  0  0  0  0  0  0  0
   45.7250   32.7910   46.8690 C   0  0  0  0  0  0  0  0  0  0  0  0
   45.2060   32.8440   48.1450 C   0  0  0  0  0  0  0  0  0  0  0  0
   45.4580   31.8940   49.1120 C   0  0  0  0  0  0  0  0  0  0  0  0
   46.2660   30.8140   48.8410 C   0  0  0  0  0  0  0  0  0  0  0  0
   46.8080   30.7150   47.5780 C   0  0  0  0  0  0  0  0  0  0  0  0
   47.6150   29.6320   47.3110 C   0  0  0  0  0  0  0  0  0  0  0  0
   48.1830   29.4720   46.0830 C   0  0  0  0  0  0  0  0  0  0  0  0
   47.9120   30.4500   45.1190 C   0  0  0  0  0  0  0  0  0  0  0  0
   47.0970   31.5160   45.4360 C   0  0  0  0  0  0  0  0  0  0  0  0
   46.5150   31.6980   46.6620 C   0  0  0  0  0  0  0  0  0  0  0  0
   48.1789   35.0731   42.2858 H   0  0  0  0  0  0  0  0  0  0  0  0
   48.4985   33.3962   41.9985 H   0  0  0  0  0  0  0  0  0  0  0  0
   46.8069   35.3274   40.2336 H   0  0  0  0  0  0  0  0  0  0  0  0
   48.2576   34.5477   39.7029 H   0  0  0  0  0  0  0  0  0  0  0  0
   45.9272   33.3150   39.2248 H   0  0  0  0  0  0  0  0  0  0  0  0
   47.1877   32.2891   39.8760 H   0  0  0  0  0  0  0  0  0  0  0  0
   45.7560   31.9745   41.6668 H   0  0  0  0  0  0  0  0  0  0  0  0
   44.3461   34.8916   39.9101 H   0  0  0  0  0  0  0  0  0  0  0  0
   41.6679   31.8111   42.4754 H   0  0  0  0  0  0  0  0  0  0  0  0
   41.2223   36.0719   40.3241 H   0  0  0  0  0  0  0  0  0  0  0  0
   42.4359   35.8398   39.0204 H   0  0  0  0  0  0  0  0  0  0  0  0
   40.9218   34.8733   39.0204 H   0  0  0  0  0  0  0  0  0  0  0  0
   44.0068   36.7182   45.0793 H   0  0  0  0  0  0  0  0  0  0  0  0
   44.9861   36.1422   42.8346 H   0  0  0  0  0  0  0  0  0  0  0  0
   44.5547   33.6911   48.4062 H   0  0  0  0  0  0  0  0  0  0  0  0
   45.0084   32.0007   50.1103 H   0  0  0  0  0  0  0  0  0  0  0  0
   46.4728   30.0535   49.6084 H   0  0  0  0  0  0  0  0  0  0  0  0
   47.8034   28.8872   48.0983 H   0  0  0  0  0  0  0  0  0  0  0  0
   48.8280   28.6097   45.8584 H   0  0  0  0  0  0  0  0  0  0  0  0
   48.3476   30.3684   44.1122 H   0  0  0  0  0  0  0  0  0  0  0  0
   46.9023   32.2666   44.6558 H   0  0  0  0  0  0  0  0  0  0  0  0
  1 17  1  0
  2  1  1  0
  3  2  1  0
  4  3  1  0
  4  5  1  0
  5  1  1  0
  6  5  1  0
  6 12  1  0
  7  6  1  0
  8  7  2  0
  8  9  1  0
  9 11  1  0
 10  9  2  0
 11 12  1  0
 12 13  2  0
 14  8  1  0
 15 20  2  0
 16 15  1  0
 17 16  2  0
 17 18  1  0
 18 19  2  0
 19 20  1  0
 19 21  1  0
 21 22  2  0
 22 23  1  0
 24 23  2  0
 25 24  1  0
 26 25  2  0
 27 26  1  0
 28 29  1  0
 28 27  2  0
 29 30  2  0
 30 21  1  0
 30 25  1  0
  2 31  1  0
  2 32  1  0
  3 33  1  0
  3 34  1  0
  4 35  1  0
  4 36  1  0
  5 37  1  1
  7 38  1  0
 11 39  1  0
 14 40  1  0
 14 41  1  0
 14 42  1  0
 15 43  1  0
 16 44  1  0
 22 45  1  0
 23 46  1  0
 24 47  1  0
 26 48  1  0
 27 49  1  0
 28 50  1  0
 29 51  1  0
M  END
>  <minimizedAffinity>  (1) 
-7.64511395

>  <minimizedRMSD>  (1) 
1.15011442

$$$$
