
     RDKit          3D

 41 44  0  0  1  0  0  0  0  0999 V2000
   46.1770   31.7320   42.9790 N   0  0  0  0  0  0  0  0  0  0  0  0
   46.8580   30.6010   42.3870 C   0  0  0  0  0  0  0  0  0  0  0  0
   48.2460   30.8380   42.8440 C   0  0  0  0  0  0  0  0  0  0  0  0
   48.0910   31.3980   44.2180 C   0  0  0  0  0  0  0  0  0  0  0  0
   46.5860   31.6360   44.3540 C   0  0  2  0  0  0  0  0  0  0  0  0
   45.8870   30.7410   45.2420 C   0  0  0  0  0  0  0  0  0  0  0  0
   45.2950   29.5350   44.8470 C   0  0  0  0  0  0  0  0  0  0  0  0
   44.6560   28.6360   45.6760 C   0  0  0  0  0  0  0  0  0  0  0  0
   44.5710   28.9140   47.0320 C   0  0  0  0  0  0  0  0  0  0  0  0
   45.1300   30.0770   47.4870 C   0  0  0  0  0  0  0  0  0  0  0  0
   45.0190   30.3220   48.8410 C   0  0  0  0  0  0  0  0  0  0  0  0
   45.5330   31.4520   49.3920 C   0  0  0  0  0  0  0  0  0  0  0  0
   46.1700   32.3420   48.5400 C   0  0  0  0  0  0  0  0  0  0  0  0
   46.2600   32.0630   47.1920 C   0  0  0  0  0  0  0  0  0  0  0  0
   45.7500   30.9330   46.6240 C   0  0  0  0  0  0  0  0  0  0  0  0
   45.3370   32.7730   42.4780 C   0  0  0  0  0  0  0  0  0  0  0  0
   45.7600   34.0820   42.1910 C   0  0  0  0  0  0  0  0  0  0  0  0
   44.8320   35.0040   41.7210 C   0  0  0  0  0  0  0  0  0  0  0  0
   43.5560   34.5750   41.5660 N   0  0  0  0  0  0  0  0  0  0  0  0
   43.1750   33.3240   41.8450 C   0  0  0  0  0  0  0  0  0  0  0  0
   44.0590   32.4160   42.3010 N   0  0  0  0  0  0  0  0  0  0  0  0
   47.2020   34.3740   42.4150 C   0  0  0  0  0  0  0  0  0  0  0  0
   47.4690   35.6940   42.0230 F   0  0  0  0  0  0  0  0  0  0  0  0
   48.0390   33.5970   41.6770 F   0  0  0  0  0  0  0  0  0  0  0  0
   47.5590   34.3560   43.7190 F   0  0  0  0  0  0  0  0  0  0  0  0
   46.7859   30.6150   41.2895 H   0  0  0  0  0  0  0  0  0  0  0  0
   46.4464   29.6221   42.6741 H   0  0  0  0  0  0  0  0  0  0  0  0
   48.8142   29.8965   42.8687 H   0  0  0  0  0  0  0  0  0  0  0  0
   48.7993   31.5133   42.1748 H   0  0  0  0  0  0  0  0  0  0  0  0
   48.4433   30.6811   44.9743 H   0  0  0  0  0  0  0  0  0  0  0  0
   48.6797   32.3147   44.3701 H   0  0  0  0  0  0  0  0  0  0  0  0
   46.3106   32.5472   44.9052 H   0  0  0  0  0  0  0  0  0  0  0  0
   45.3439   29.2811   43.7778 H   0  0  0  0  0  0  0  0  0  0  0  0
   44.2204   27.7123   45.2673 H   0  0  0  0  0  0  0  0  0  0  0  0
   44.0688   28.2197   47.7217 H   0  0  0  0  0  0  0  0  0  0  0  0
   44.5064   29.5909   49.4835 H   0  0  0  0  0  0  0  0  0  0  0  0
   45.4476   31.6532   50.4701 H   0  0  0  0  0  0  0  0  0  0  0  0
   46.6036   33.2707   48.9393 H   0  0  0  0  0  0  0  0  0  0  0  0
   46.7694   32.7895   46.5418 H   0  0  0  0  0  0  0  0  0  0  0  0
   45.1213   36.0386   41.4848 H   0  0  0  0  0  0  0  0  0  0  0  0
   42.1244   33.0323   41.7000 H   0  0  0  0  0  0  0  0  0  0  0  0
  1  5  1  0
  2  3  1  0
  2  1  1  0
  3  4  1  0
  4  5  1  0
  5  6  1  0
  6 15  1  0
  7  6  2  0
  7  8  1  0
  8  9  2  0
  9 10  1  0
 10 11  2  0
 11 12  1  0
 13 12  2  0
 14 13  1  0
 15 14  2  0
 15 10  1  0
 16  1  1  0
 17 22  1  0
 17 16  2  0
 18 17  1  0
 19 18  2  0
 19 20  1  0
 20 21  2  0
 21 16  1  0
 22 25  1  0
 23 22  1  0
 24 22  1  0
  2 26  1  0
  2 27  1  0
  3 28  1  0
  3 29  1  0
  4 30  1  0
  4 31  1  0
  5 32  1  1
  7 33  1  0
  8 34  1  0
  9 35  1  0
 11 36  1  0
 12 37  1  0
 13 38  1  0
 14 39  1  0
 18 40  1  0
 20 41  1  0
M  ISO  8  26  13  27  13  28  13  29  13  30  13  31  13  32  13  33  14
M  ISO  8  34  14  35  14  36  14  37  14  38  14  39  14  40  14  41  14
M  END
>  <minimizedAffinity>  (1) 
-5.52728605

>  <minimizedRMSD>  (1) 
4.69639015

$$$$
