
     RDKit          3D

 35 38  0  0  0  0  0  0  0  0999 V2000
   46.1770   30.3810   49.1370 N   0  0  0  0  0  0  0  0  0  0  0  0
   45.3130   31.3850   49.4270 C   0  0  0  0  0  0  0  0  0  0  0  0
   45.2330   32.2170   48.3660 N   0  0  0  0  0  0  0  0  0  0  0  0
   46.0640   31.6920   47.4380 C   0  0  0  0  0  0  0  0  0  0  0  0
   46.3130   32.2030   46.1740 C   0  0  0  0  0  0  0  0  0  0  0  0
   47.1910   31.5130   45.3910 N   0  0  0  0  0  0  0  0  0  0  0  0
   47.7920   30.3900   45.8170 C   0  0  0  0  0  0  0  0  0  0  0  0
   47.5170   29.9360   47.0490 N   0  0  0  0  0  0  0  0  0  0  0  0
   46.6780   30.5380   47.8810 C   0  0  0  0  0  0  0  0  0  0  0  0
   48.7260   29.6790   44.9480 C   0  0  0  0  0  0  0  0  0  0  0  0
   49.3300   28.5230   45.4170 C   0  0  0  0  0  0  0  0  0  0  0  0
   50.2110   27.8680   44.5760 C   0  0  0  0  0  0  0  0  0  0  0  0
   50.4640   28.3640   43.3270 C   0  0  0  0  0  0  0  0  0  0  0  0
   49.8680   29.5240   42.8370 C   0  0  0  0  0  0  0  0  0  0  0  0
   48.9890   30.1680   43.6890 C   0  0  0  0  0  0  0  0  0  0  0  0
   45.6300   33.6520   45.4410 S   0  0  0  0  0  0  0  0  0  0  0  0
   47.7860   34.7150   42.3490 C   0  0  0  0  0  0  0  0  0  0  0  0
   47.0680   34.3360   41.2110 C   0  0  0  0  0  0  0  0  0  0  0  0
   45.8490   33.7180   41.4250 C   0  0  0  0  0  0  0  0  0  0  0  0
   45.4150   33.5110   42.7040 N   0  0  0  0  0  0  0  0  0  0  0  0
   46.1550   33.9000   43.7620 C   0  0  0  0  0  0  0  0  0  0  0  0
   47.3300   34.4970   43.5810 N   0  0  0  0  0  0  0  0  0  0  0  0
   49.0860   35.3740   42.1480 C   0  0  0  0  0  0  0  0  0  0  0  0
   49.2490   36.1530   41.1800 O   0  0  0  0  0  0  0  0  0  0  0  0
   50.1120   35.1300   43.0290 O   0  0  0  0  0  0  0  0  0  0  0  0
   46.4195   29.6100   49.7755 H   0  0  0  0  0  0  0  0  0  0  0  0
   44.7655   31.5029   50.3737 H   0  0  0  0  0  0  0  0  0  0  0  0
   49.1156   28.1391   46.4253 H   0  0  0  0  0  0  0  0  0  0  0  0
   50.7090   26.9466   44.9122 H   0  0  0  0  0  0  0  0  0  0  0  0
   51.1699   27.8227   42.6800 H   0  0  0  0  0  0  0  0  0  0  0  0
   50.0844   29.9065   41.8286 H   0  0  0  0  0  0  0  0  0  0  0  0
   48.4904   31.0893   43.3534 H   0  0  0  0  0  0  0  0  0  0  0  0
   47.4527   34.5198   40.1970 H   0  0  0  0  0  0  0  0  0  0  0  0
   45.2338   33.3957   40.5720 H   0  0  0  0  0  0  0  0  0  0  0  0
   50.9897   35.5695   42.9006 H   0  0  0  0  0  0  0  0  0  0  0  0
  1  2  1  0
  3  2  2  0
  4  9  2  0
  4  3  1  0
  5  4  1  0
  6  7  1  0
  6  5  2  0
  7  8  2  0
  8  9  1  0
  9  1  1  0
 10 11  2  0
 10  7  1  0
 12 11  1  0
 13 12  2  0
 14 13  1  0
 14 15  2  0
 15 10  1  0
 16  5  1  0
 17 22  2  0
 18 19  2  0
 18 17  1  0
 19 20  1  0
 20 21  2  0
 21 16  1  0
 22 21  1  0
 23 17  1  0
 23 25  1  0
 24 23  2  0
  1 26  1  0
  2 27  1  0
 11 28  1  0
 12 29  1  0
 13 30  1  0
 14 31  1  0
 15 32  1  0
 18 33  1  0
 19 34  1  0
 25 35  1  0
M  ISO  8  26   9  27  14  28  14  29  14  30  14  31  14  32  14  33  14
M  ISO  2  34  14  35   3
M  END
>  <minimizedAffinity>  (1) 
-5.85104609

>  <minimizedRMSD>  (1) 
0.155101255

$$$$
