
     RDKit          3D

 39 41  0  0  1  0  0  0  0  0999 V2000
   46.1100   33.5800   45.3350 C   0  0  2  0  0  0  0  0  0  0  0  0
   44.9700   34.6770   45.5430 C   0  0  0  0  0  0  0  0  0  0  0  0
   44.7470   35.5970   44.4540 C   0  0  0  0  0  0  0  0  0  0  0  0
   45.5230   35.5030   43.2360 C   0  0  1  0  0  0  0  0  0  0  0  0
   46.6010   34.4900   43.2050 C   0  0  0  0  0  0  0  0  0  0  0  0
   46.1010   33.2620   43.9510 C   0  0  0  0  0  0  0  0  0  0  0  0
   45.3730   32.9000   47.6000 C   0  0  0  0  0  0  0  0  0  0  0  0
   45.8760   32.6180   46.3650 C   0  0  0  0  0  0  0  0  0  0  0  0
   46.1100   31.2620   46.1060 C   0  0  0  0  0  0  0  0  0  0  0  0
   45.8550   30.2980   47.0100 N   0  0  0  0  0  0  0  0  0  0  0  0
   45.3480   30.6310   48.2470 C   0  0  0  0  0  0  0  0  0  0  0  0
   45.1170   31.9110   48.5210 N   0  0  0  0  0  0  0  0  0  0  0  0
   45.1210   29.6220   49.2330 N   0  0  0  0  0  0  0  0  0  0  0  0
   46.6820   30.5520   44.9710 C   0  0  0  0  0  0  0  0  0  0  0  0
   48.0360   30.4810   44.7000 C   0  0  0  0  0  0  0  0  0  0  0  0
   48.5490   29.8840   43.5680 C   0  0  0  0  0  0  0  0  0  0  0  0
   47.6790   29.3280   42.6620 C   0  0  0  0  0  0  0  0  0  0  0  0
   46.3250   29.3400   42.8290 C   0  0  0  0  0  0  0  0  0  0  0  0
   45.8860   29.9540   43.9800 C   0  0  0  0  0  0  0  0  0  0  0  0
   44.5310   35.2240   42.0760 C   0  0  0  0  0  0  0  0  0  0  0  0
   43.4970   34.3910   42.4450 F   0  0  0  0  0  0  0  0  0  0  0  0
   43.9580   36.4490   41.7500 F   0  0  0  0  0  0  0  0  0  0  0  0
   45.2190   34.7910   40.9570 F   0  0  0  0  0  0  0  0  0  0  0  0
   47.1706   33.8316   45.4828 H   0  0  0  0  0  0  0  0  0  0  0  0
   44.3826   34.7293   46.4716 H   0  0  0  0  0  0  0  0  0  0  0  0
   43.9788   36.3783   44.5506 H   0  0  0  0  0  0  0  0  0  0  0  0
   46.0581   36.4601   43.1486 H   0  0  0  0  0  0  0  0  0  0  0  0
   46.8373   34.2257   42.1637 H   0  0  0  0  0  0  0  0  0  0  0  0
   47.5137   34.8831   43.6767 H   0  0  0  0  0  0  0  0  0  0  0  0
   45.0791   33.0145   43.6276 H   0  0  0  0  0  0  0  0  0  0  0  0
   46.7420   32.3920   43.7457 H   0  0  0  0  0  0  0  0  0  0  0  0
   45.1662   33.9468   47.8674 H   0  0  0  0  0  0  0  0  0  0  0  0
   44.7417   29.8794   50.1554 H   0  0  0  0  0  0  0  0  0  0  0  0
   45.3367   28.6373   49.0214 H   0  0  0  0  0  0  0  0  0  0  0  0
   48.7381   30.9223   45.4227 H   0  0  0  0  0  0  0  0  0  0  0  0
   49.6347   29.8535   43.3937 H   0  0  0  0  0  0  0  0  0  0  0  0
   48.0927   28.8515   41.7610 H   0  0  0  0  0  0  0  0  0  0  0  0
   45.6355   28.8923   42.0982 H   0  0  0  0  0  0  0  0  0  0  0  0
   44.7981   29.9790   44.1406 H   0  0  0  0  0  0  0  0  0  0  0  0
  1  2  1  0
  1  8  1  0
  3  2  2  0
  4  3  1  0
  5  4  1  0
  5  6  1  0
  6  1  1  0
  7 12  2  0
  8  7  1  0
  9  8  2  0
  9 10  1  0
 10 11  2  0
 11 12  1  0
 11 13  1  0
 14  9  1  0
 15 14  2  0
 16 15  1  0
 17 18  1  0
 17 16  2  0
 18 19  2  0
 19 14  1  0
 20 21  1  0
 20  4  1  0
 22 20  1  0
 23 20  1  0
  1 24  1  1
  2 25  1  0
  3 26  1  0
  4 27  1  6
  5 28  1  0
  5 29  1  0
  6 30  1  0
  6 31  1  0
  7 32  1  0
 13 33  1  0
 13 34  1  0
 15 35  1  0
 16 36  1  0
 17 37  1  0
 18 38  1  0
 19 39  1  0
M  ISO  8  24  13  25  13  26  13  27  13  28  13  29  13  30  13  31  13
M  ISO  6  32  14  35  14  36  14  37  14  38  14  39  14
M  END
>  <minimizedAffinity>  (1) 
-5.71933937

>  <minimizedRMSD>  (1) 
0.234070048

$$$$
