
     RDKit          3D

 36 38  0  0  0  0  0  0  0  0999 V2000
   47.4100   32.9820   43.6290 C   0  0  0  0  0  0  0  0  0  0  0  0
   47.4000   31.7580   43.3220 O   0  0  0  0  0  0  0  0  0  0  0  0
   44.7820   35.2800   44.8980 C   0  0  0  0  0  0  0  0  0  0  0  0
   45.6930   34.7620   43.9870 C   0  0  0  0  0  0  0  0  0  0  0  0
   46.4300   33.6670   44.3970 C   0  0  0  0  0  0  0  0  0  0  0  0
   46.2340   33.1580   45.6440 N   0  0  0  0  0  0  0  0  0  0  0  0
   45.3650   33.6600   46.5000 C   0  0  0  0  0  0  0  0  0  0  0  0
   44.6590   34.7060   46.1120 N   0  0  0  0  0  0  0  0  0  0  0  0
   45.8770   35.3370   42.6520 C   0  0  0  0  0  0  0  0  0  0  0  0
   45.0270   36.4470   42.5660 F   0  0  0  0  0  0  0  0  0  0  0  0
   45.3970   34.4870   41.6730 F   0  0  0  0  0  0  0  0  0  0  0  0
   47.1590   35.7060   42.3860 F   0  0  0  0  0  0  0  0  0  0  0  0
   45.1280   33.1870   47.7690 O   0  0  0  0  0  0  0  0  0  0  0  0
   45.8670   32.1410   48.3520 C   0  0  0  0  0  0  0  0  0  0  0  0
   47.2100   32.4880   48.4390 F   0  0  0  0  0  0  0  0  0  0  0  0
   45.6690   30.9300   47.7500 F   0  0  0  0  0  0  0  0  0  0  0  0
   45.4490   32.0650   49.6950 F   0  0  0  0  0  0  0  0  0  0  0  0
   48.6030   33.2080   42.9630 O   0  0  0  0  0  0  0  0  0  0  0  0
   48.8880   32.8370   41.6880 C   0  0  0  0  0  0  0  0  0  0  0  0
   47.9400   32.8920   40.5300 C   0  0  0  0  0  0  0  0  0  0  0  0
   48.9720   32.2580   39.1910 S   0  0  0  0  0  0  0  0  0  0  0  0
   50.4650   32.0210   40.3220 C   0  0  0  0  0  0  0  0  0  0  0  0
   50.0910   32.3810   41.4030 N   0  0  0  0  0  0  0  0  0  0  0  0
   51.7390   31.4900   39.7910 C   0  0  0  0  0  0  0  0  0  0  0  0
   52.6340   30.8780   40.6190 C   0  0  0  0  0  0  0  0  0  0  0  0
   53.8070   30.4030   40.0590 C   0  0  0  0  0  0  0  0  0  0  0  0
   54.0920   30.5280   38.7060 C   0  0  0  0  0  0  0  0  0  0  0  0
   53.1750   31.1530   37.8670 C   0  0  0  0  0  0  0  0  0  0  0  0
   52.0200   31.6160   38.4450 C   0  0  0  0  0  0  0  0  0  0  0  0
   44.1658   36.1514   44.6316 H   0  0  0  0  0  0  0  0  0  0  0  0
   46.8933   33.2290   40.5025 H   0  0  0  0  0  0  0  0  0  0  0  0
   52.4304   30.7660   41.6942 H   0  0  0  0  0  0  0  0  0  0  0  0
   54.5416   29.9075   40.7108 H   0  0  0  0  0  0  0  0  0  0  0  0
   55.0362   30.1357   38.3003 H   0  0  0  0  0  0  0  0  0  0  0  0
   53.3670   31.2705   36.7903 H   0  0  0  0  0  0  0  0  0  0  0  0
   51.2789   32.1137   37.8023 H   0  0  0  0  0  0  0  0  0  0  0  0
  1  5  1  0
  2  1  2  0
  3  8  2  0
  4  5  2  0
  4  3  1  0
  5  6  1  0
  6  7  2  0
  7 13  1  0
  8  7  1  0
  9  4  1  0
 10  9  1  0
 11  9  1  0
 12  9  1  0
 13 14  1  0
 14 15  1  0
 14 17  1  0
 16 14  1  0
 18  1  1  0
 19 18  1  0
 20 19  2  0
 21 22  1  0
 21 20  1  0
 22 23  2  0
 23 19  1  0
 24 22  1  0
 24 25  2  0
 26 25  1  0
 27 26  2  0
 28 29  2  0
 28 27  1  0
 29 24  1  0
  3 30  1  0
 20 31  1  0
 25 32  1  0
 26 33  1  0
 27 34  1  0
 28 35  1  0
 29 36  1  0
M  ISO  7  30  14  31  14  32  14  33  14  34  14  35  14  36  14
M  END
>  <minimizedAffinity>  (1) 
-6.00407648

>  <minimizedRMSD>  (1) 
0.426397353

$$$$
