
     RDKit          3D

 45 49  0  0  0  0  0  0  0  0999 V2000
   44.5750   36.2190   44.4360 C   0  0  0  0  0  0  0  0  0  0  0  0
   45.3500   36.0370   43.2550 C   0  0  0  0  0  0  0  0  0  0  0  0
   46.1640   34.8970   43.1750 C   0  0  0  0  0  0  0  0  0  0  0  0
   46.1450   34.0630   44.2300 N   0  0  0  0  0  0  0  0  0  0  0  0
   45.4250   34.2300   45.3290 C   0  0  0  0  0  0  0  0  0  0  0  0
   44.6250   35.3090   45.4580 N   0  0  0  0  0  0  0  0  0  0  0  0
   45.6220   33.1850   46.2560 N   0  0  0  0  0  0  0  0  0  0  0  0
   45.0770   32.9240   47.4600 C   0  0  0  0  0  0  0  0  0  0  0  0
   45.6980   31.7780   47.9580 C   0  0  0  0  0  0  0  0  0  0  0  0
   46.5930   31.3980   47.0250 N   0  0  0  0  0  0  0  0  0  0  0  0
   46.5520   32.2560   45.9780 C   0  0  0  0  0  0  0  0  0  0  0  0
   47.4730   31.9180   44.9480 N   0  0  0  0  0  0  0  0  0  0  0  0
   47.7390   32.9460   43.9590 C   0  0  0  0  0  0  0  0  0  0  0  0
   47.0490   32.4950   42.6750 C   0  0  0  0  0  0  0  0  0  0  0  0
   47.2850   31.0390   42.4360 C   0  0  0  0  0  0  0  0  0  0  0  0
   48.4090   30.4580   43.2620 C   0  0  0  0  0  0  0  0  0  0  0  0
   48.2080   30.6600   44.7320 C   0  0  0  0  0  0  0  0  0  0  0  0
   46.9030   34.7480   41.9920 N   0  0  0  0  0  0  0  0  0  0  0  0
   48.1800   35.1730   41.8710 C   0  0  0  0  0  0  0  0  0  0  0  0
   48.6060   34.8870   40.6180 N   0  0  0  0  0  0  0  0  0  0  0  0
   47.6140   34.2840   39.9430 C   0  0  0  0  0  0  0  0  0  0  0  0
   47.5460   33.8010   38.6520 C   0  0  0  0  0  0  0  0  0  0  0  0
   46.3560   33.2390   38.3000 N   0  0  0  0  0  0  0  0  0  0  0  0
   45.3130   33.1530   39.1410 C   0  0  0  0  0  0  0  0  0  0  0  0
   45.3930   33.6330   40.4100 N   0  0  0  0  0  0  0  0  0  0  0  0
   46.5520   34.2040   40.8160 C   0  0  0  0  0  0  0  0  0  0  0  0
   48.6530   33.8930   37.7780 N   0  0  0  0  0  0  0  0  0  0  0  0
   43.9271   37.1031   44.5285 H   0  0  0  0  0  0  0  0  0  0  0  0
   45.3116   36.7664   42.4325 H   0  0  0  0  0  0  0  0  0  0  0  0
   44.2882   33.5066   47.9584 H   0  0  0  0  0  0  0  0  0  0  0  0
   45.4971   31.2836   48.9199 H   0  0  0  0  0  0  0  0  0  0  0  0
   47.3291   33.9107   44.2929 H   0  0  0  0  0  0  0  0  0  0  0  0
   48.8196   33.0822   43.8051 H   0  0  0  0  0  0  0  0  0  0  0  0
   45.9676   32.6766   42.7625 H   0  0  0  0  0  0  0  0  0  0  0  0
   47.4629   33.0652   41.8303 H   0  0  0  0  0  0  0  0  0  0  0  0
   46.3604   30.4940   42.6770 H   0  0  0  0  0  0  0  0  0  0  0  0
   47.5753   30.9313   41.3805 H   0  0  0  0  0  0  0  0  0  0  0  0
   48.4727   29.3785   43.0603 H   0  0  0  0  0  0  0  0  0  0  0  0
   49.3349   30.9795   42.9778 H   0  0  0  0  0  0  0  0  0  0  0  0
   47.6297   29.8198   45.1439 H   0  0  0  0  0  0  0  0  0  0  0  0
   49.1841   30.7089   45.2369 H   0  0  0  0  0  0  0  0  0  0  0  0
   48.7719   35.6666   42.6558 H   0  0  0  0  0  0  0  0  0  0  0  0
   44.3781   32.6863   38.7972 H   0  0  0  0  0  0  0  0  0  0  0  0
   48.5830   33.5267   36.8179 H   0  0  0  0  0  0  0  0  0  0  0  0
   49.5297   34.3263   38.1012 H   0  0  0  0  0  0  0  0  0  0  0  0
  1  6  2  0
  2  1  1  0
  3  2  2  0
  3  4  1  0
  4  5  2  0
  5  6  1  0
  5  7  1  0
  7  8  1  0
  8  9  2  0
 10  9  1  0
 11  7  1  0
 11 10  2  0
 12 11  1  0
 13 12  1  0
 14 13  1  0
 15 14  1  0
 15 16  1  0
 16 17  1  0
 17 12  1  0
 18  3  1  0
 19 18  1  0
 20 19  2  0
 21 20  1  0
 21 26  2  0
 22 21  1  0
 23 22  2  0
 23 24  1  0
 24 25  2  0
 25 26  1  0
 26 18  1  0
 27 22  1  0
  1 28  1  0
  2 29  1  0
  8 30  1  0
  9 31  1  0
 13 32  1  0
 13 33  1  0
 14 34  1  0
 14 35  1  0
 15 36  1  0
 15 37  1  0
 16 38  1  0
 16 39  1  0
 17 40  1  0
 17 41  1  0
 19 42  1  0
 24 43  1  0
 27 44  1  0
 27 45  1  0
M  END
>  <minimizedAffinity>  (1) 
-7.03547144

>  <minimizedRMSD>  (1) 
0.487689853

$$$$
