
     RDKit          3D

 48 52  0  0  0  0  0  0  0  0999 V2000
   44.6820   35.7620   45.1100 C   0  0  0  0  0  0  0  0  0  0  0  0
   44.0150   35.7760   43.8700 C   0  0  0  0  0  0  0  0  0  0  0  0
   44.1640   34.6950   43.0060 C   0  0  0  0  0  0  0  0  0  0  0  0
   44.9590   33.6990   43.4540 N   0  0  0  0  0  0  0  0  0  0  0  0
   45.5920   33.6900   44.6330 C   0  0  0  0  0  0  0  0  0  0  0  0
   45.4290   34.7400   45.4330 N   0  0  0  0  0  0  0  0  0  0  0  0
   46.3010   32.5110   44.5610 C   0  0  0  0  0  0  0  0  0  0  0  0
   46.9730   31.4380   44.4010 N   0  0  0  0  0  0  0  0  0  0  0  0
   47.5900   30.4310   44.3180 C   0  0  0  0  0  0  0  0  0  0  0  0
   47.5520   30.0600   45.5880 N   0  0  0  0  0  0  0  0  0  0  0  0
   46.8700   30.8920   46.4610 C   0  0  0  0  0  0  0  0  0  0  0  0
   46.8680   30.4050   47.7880 C   0  0  0  0  0  0  0  0  0  0  0  0
   46.1980   31.1430   48.6950 C   0  0  0  0  0  0  0  0  0  0  0  0
   45.5520   32.2820   48.3850 C   0  0  0  0  0  0  0  0  0  0  0  0
   45.6390   32.6430   47.0550 C   0  0  0  0  0  0  0  0  0  0  0  0
   46.2720   32.0670   45.9290 C   0  0  0  0  0  0  0  0  0  0  0  0
   43.5070   34.7320   41.7680 N   0  0  0  0  0  0  0  0  0  0  0  0
   42.2150   35.0420   41.6490 C   0  0  0  0  0  0  0  0  0  0  0  0
   41.9550   34.9660   40.2750 C   0  0  0  0  0  0  0  0  0  0  0  0
   43.1140   34.6090   39.6090 N   0  0  0  0  0  0  0  0  0  0  0  0
   44.0620   34.4690   40.5520 C   0  0  0  0  0  0  0  0  0  0  0  0
   45.4230   34.1150   40.3540 N   0  0  0  0  0  0  0  0  0  0  0  0
   40.7480   35.1940   39.5580 N   0  0  0  0  0  0  0  0  0  0  0  0
   39.4470   35.3720   40.1800 C   0  0  0  0  0  0  0  0  0  0  0  0
   38.6620   34.1470   39.8110 C   0  0  0  0  0  0  0  0  0  0  0  0
   38.7970   33.6550   38.4320 C   0  0  0  0  0  0  0  0  0  0  0  0
   39.6560   34.4200   37.4980 C   0  0  0  0  0  0  0  0  0  0  0  0
   40.7150   35.2690   38.1280 C   0  0  0  0  0  0  0  0  0  0  0  0
   44.5745   36.6085   45.8042 H   0  0  0  0  0  0  0  0  0  0  0  0
   43.3836   36.6313   43.5874 H   0  0  0  0  0  0  0  0  0  0  0  0
   48.0556   29.9481   43.4462 H   0  0  0  0  0  0  0  0  0  0  0  0
   47.3851   29.4745   48.0652 H   0  0  0  0  0  0  0  0  0  0  0  0
   46.1783   30.7976   49.7392 H   0  0  0  0  0  0  0  0  0  0  0  0
   45.0007   32.8759   49.1289 H   0  0  0  0  0  0  0  0  0  0  0  0
   45.1030   33.5750   46.8222 H   0  0  0  0  0  0  0  0  0  0  0  0
   41.5096   35.3003   42.4526 H   0  0  0  0  0  0  0  0  0  0  0  0
   46.0580   34.0386   41.1614 H   0  0  0  0  0  0  0  0  0  0  0  0
   45.7751   33.9347   39.4030 H   0  0  0  0  0  0  0  0  0  0  0  0
   39.5494   35.4497   41.2725 H   0  0  0  0  0  0  0  0  0  0  0  0
   38.9525   36.2942   39.8408 H   0  0  0  0  0  0  0  0  0  0  0  0
   38.9771   33.3363   40.4844 H   0  0  0  0  0  0  0  0  0  0  0  0
   37.6075   34.4460   39.9045 H   0  0  0  0  0  0  0  0  0  0  0  0
   39.2036   32.6344   38.4879 H   0  0  0  0  0  0  0  0  0  0  0  0
   37.7855   33.7457   38.0094 H   0  0  0  0  0  0  0  0  0  0  0  0
   39.0049   35.0789   36.9047 H   0  0  0  0  0  0  0  0  0  0  0  0
   40.1939   33.6662   36.9043 H   0  0  0  0  0  0  0  0  0  0  0  0
   41.6929   34.9452   37.7420 H   0  0  0  0  0  0  0  0  0  0  0  0
   40.4818   36.3124   37.8695 H   0  0  0  0  0  0  0  0  0  0  0  0
  1  6  2  0
  2  1  1  0
  3  4  1  0
  3  2  2  0
  4  5  2  0
  5  6  1  0
  7  5  1  0
  7 16  1  0
  8  7  2  0
  9  8  1  0
  9 10  2  0
 10 11  1  0
 11 12  1  0
 12 13  2  0
 14 13  1  0
 15 14  2  0
 16 11  2  0
 16 15  1  0
 17  3  1  0
 18 17  1  0
 19 18  2  0
 20 19  1  0
 20 21  2  0
 21 17  1  0
 22 21  1  0
 23 24  1  0
 23 19  1  0
 25 24  1  0
 26 25  1  0
 27 28  1  0
 27 26  1  0
 28 23  1  0
  1 29  1  0
  2 30  1  0
  9 31  1  0
 12 32  1  0
 13 33  1  0
 14 34  1  0
 15 35  1  0
 18 36  1  0
 22 37  1  0
 22 38  1  0
 24 39  1  0
 24 40  1  0
 25 41  1  0
 25 42  1  0
 26 43  1  0
 26 44  1  0
 27 45  1  0
 27 46  1  0
 28 47  1  0
 28 48  1  0
M  END
>  <minimizedAffinity>  (1) 
-7.33651876

>  <minimizedRMSD>  (1) 
1.02386844

$$$$
