
     RDKit          3D

 32 34  0  0  0  0  0  0  0  0999 V2000
   43.9120   34.7740   42.0680 C   0  0  0  0  0  0  0  0  0  0  0  0
   42.8220   34.0640   41.5210 C   0  0  0  0  0  0  0  0  0  0  0  0
   42.7580   32.6920   41.6780 C   0  0  0  0  0  0  0  0  0  0  0  0
   43.7530   32.0610   42.3590 N   0  0  0  0  0  0  0  0  0  0  0  0
   44.7890   32.7680   42.8740 C   0  0  0  0  0  0  0  0  0  0  0  0
   44.8780   34.1130   42.7360 N   0  0  0  0  0  0  0  0  0  0  0  0
   41.8670   34.8400   40.8380 N   0  0  0  0  0  0  0  0  0  0  0  0
   41.9610   35.0450   39.5580 N   0  0  0  0  0  0  0  0  0  0  0  0
   40.9130   35.8290   39.1470 C   0  0  0  0  0  0  0  0  0  0  0  0
   40.1770   36.0750   40.3010 C   0  0  0  0  0  0  0  0  0  0  0  0
   40.7910   35.4400   41.3810 C   0  0  0  0  0  0  0  0  0  0  0  0
   41.6620   31.9690   41.1350 N   0  0  0  0  0  0  0  0  0  0  0  0
   41.4240   31.3570   39.8210 C   0  0  0  0  0  0  0  0  0  0  0  0
   40.3250   32.2320   39.2000 C   0  0  0  0  0  0  0  0  0  0  0  0
   39.0630   31.8420   39.9690 C   0  0  0  0  0  0  0  0  0  0  0  0
   39.2520   32.3510   41.3820 C   0  0  0  0  0  0  0  0  0  0  0  0
   40.5120   31.7600   41.9960 C   0  0  0  0  0  0  0  0  0  0  0  0
   43.9731   35.8659   41.9493 H   0  0  0  0  0  0  0  0  0  0  0  0
   45.5806   32.2339   43.4200 H   0  0  0  0  0  0  0  0  0  0  0  0
   40.7012   36.1850   38.1280 H   0  0  0  0  0  0  0  0  0  0  0  0
   39.2566   36.6751   40.3539 H   0  0  0  0  0  0  0  0  0  0  0  0
   40.4701   35.4315   42.4331 H   0  0  0  0  0  0  0  0  0  0  0  0
   42.3365   31.3804   39.2072 H   0  0  0  0  0  0  0  0  0  0  0  0
   41.1339   30.2983   39.8922 H   0  0  0  0  0  0  0  0  0  0  0  0
   40.5516   33.2997   39.3364 H   0  0  0  0  0  0  0  0  0  0  0  0
   40.2242   32.0787   38.1154 H   0  0  0  0  0  0  0  0  0  0  0  0
   38.1785   32.3089   39.5111 H   0  0  0  0  0  0  0  0  0  0  0  0
   38.9061   30.7534   39.9539 H   0  0  0  0  0  0  0  0  0  0  0  0
   39.3381   33.4475   41.3635 H   0  0  0  0  0  0  0  0  0  0  0  0
   38.3851   32.0493   41.9882 H   0  0  0  0  0  0  0  0  0  0  0  0
   40.3664   30.6799   42.1446 H   0  0  0  0  0  0  0  0  0  0  0  0
   40.7000   32.2613   42.9569 H   0  0  0  0  0  0  0  0  0  0  0  0
  1  6  2  0
  2  3  2  0
  2  1  1  0
  3  4  1  0
  4  5  2  0
  6  5  1  0
  7 11  1  0
  7  2  1  0
  8  7  1  0
  9  8  2  0
  9 10  1  0
 10 11  2  0
 12  3  1  0
 12 17  1  0
 13 12  1  0
 14 13  1  0
 14 15  1  0
 15 16  1  0
 16 17  1  0
  1 18  1  0
  5 19  1  0
  9 20  1  0
 10 21  1  0
 11 22  1  0
 13 23  1  0
 13 24  1  0
 14 25  1  0
 14 26  1  0
 15 27  1  0
 15 28  1  0
 16 29  1  0
 16 30  1  0
 17 31  1  0
 17 32  1  0
M  ISO  8  18  14  19  14  20  14  21  14  22  14  23  13  24  13  25  13
M  ISO  7  26  13  27  13  28  13  29  13  30  13  31  13  32  13
M  END
>  <minimizedAffinity>  (1) 
-4.19363165

>  <minimizedRMSD>  (1) 
3.86209059

$$$$
