
     RDKit          3D

 42 44  0  0  0  0  0  0  0  0999 V2000
   47.1360   33.3300   43.3070 C   0  0  0  0  0  0  0  0  0  0  0  0
   48.3670   33.1690   43.4540 O   0  0  0  0  0  0  0  0  0  0  0  0
   44.6690   35.4990   45.0290 C   0  0  0  0  0  0  0  0  0  0  0  0
   45.5030   35.0820   44.0010 C   0  0  0  0  0  0  0  0  0  0  0  0
   46.2360   33.9190   44.2230 C   0  0  0  0  0  0  0  0  0  0  0  0
   46.1110   33.2580   45.4030 N   0  0  0  0  0  0  0  0  0  0  0  0
   45.3080   33.6730   46.3750 C   0  0  0  0  0  0  0  0  0  0  0  0
   44.6090   34.7730   46.1730 N   0  0  0  0  0  0  0  0  0  0  0  0
   45.6140   35.8210   42.7380 C   0  0  0  0  0  0  0  0  0  0  0  0
   45.0330   37.0750   42.9490 F   0  0  0  0  0  0  0  0  0  0  0  0
   44.8150   35.2630   41.7730 F   0  0  0  0  0  0  0  0  0  0  0  0
   46.8900   35.9500   42.3050 F   0  0  0  0  0  0  0  0  0  0  0  0
   45.1400   33.0460   47.5850 O   0  0  0  0  0  0  0  0  0  0  0  0
   46.1130   32.1980   48.1550 C   0  0  0  0  0  0  0  0  0  0  0  0
   47.3570   32.8120   48.1280 F   0  0  0  0  0  0  0  0  0  0  0  0
   46.1200   30.9330   47.6150 F   0  0  0  0  0  0  0  0  0  0  0  0
   45.8040   32.1270   49.5260 F   0  0  0  0  0  0  0  0  0  0  0  0
   47.1750   32.7500   42.0640 O   0  0  0  0  0  0  0  0  0  0  0  0
   48.0050   31.8210   41.5860 C   0  0  0  0  0  0  0  0  0  0  0  0
   47.8570   30.3790   41.8500 C   0  0  0  0  0  0  0  0  0  0  0  0
   49.2590   29.6890   40.9470 S   0  0  0  0  0  0  0  0  0  0  0  0
   49.8280   31.3980   40.3570 C   0  0  0  0  0  0  0  0  0  0  0  0
   49.0250   32.1130   40.8400 N   0  0  0  0  0  0  0  0  0  0  0  0
   51.0500   31.4820   39.4760 C   0  0  0  0  0  0  0  0  0  0  0  0
   52.3350   31.3510   39.8860 C   0  0  0  0  0  0  0  0  0  0  0  0
   52.9830   31.4740   38.7050 N   0  0  0  0  0  0  0  0  0  0  0  0
   52.1010   31.6630   37.7040 C   0  0  0  0  0  0  0  0  0  0  0  0
   50.8290   31.6730   38.1920 N   0  0  0  0  0  0  0  0  0  0  0  0
   49.7620   31.8800   37.2500 C   0  0  0  0  0  0  0  0  0  0  0  0
   48.8920   30.6430   37.2170 C   0  0  0  0  0  0  0  0  0  0  0  0
   49.0000   33.1630   37.4000 C   0  0  0  0  0  0  0  0  0  0  0  0
   44.0624   36.4097   44.9170 H   0  0  0  0  0  0  0  0  0  0  0  0
   47.0910   29.8583   42.4433 H   0  0  0  0  0  0  0  0  0  0  0  0
   52.7383   31.1897   40.8966 H   0  0  0  0  0  0  0  0  0  0  0  0
   52.3694   31.7909   36.6449 H   0  0  0  0  0  0  0  0  0  0  0  0
   50.2224   32.0232   36.2613 H   0  0  0  0  0  0  0  0  0  0  0  0
   48.6681   30.3247   38.2458 H   0  0  0  0  0  0  0  0  0  0  0  0
   47.9530   30.8691   36.6906 H   0  0  0  0  0  0  0  0  0  0  0  0
   49.4223   29.8357   36.6906 H   0  0  0  0  0  0  0  0  0  0  0  0
   48.8667   33.3875   38.4686 H   0  0  0  0  0  0  0  0  0  0  0  0
   49.5594   33.9799   36.9207 H   0  0  0  0  0  0  0  0  0  0  0  0
   48.0150   33.0626   36.9207 H   0  0  0  0  0  0  0  0  0  0  0  0
  1  2  2  0
  1  5  1  0
  3  8  2  0
  4  5  2  0
  4  3  1  0
  5  6  1  0
  6  7  2  0
  7 13  1  0
  8  7  1  0
  9 10  1  0
  9  4  1  0
 11  9  1  0
 12  9  1  0
 13 14  1  0
 14 17  1  0
 15 14  1  0
 16 14  1  0
 18  1  1  0
 19 20  2  0
 19 18  1  0
 21 20  1  0
 22 23  2  0
 22 21  1  0
 23 19  1  0
 24 25  2  0
 24 22  1  0
 26 25  1  0
 27 28  1  0
 27 26  2  0
 28 24  1  0
 29 31  1  0
 29 28  1  0
 30 29  1  0
  3 32  1  0
 20 33  1  0
 25 34  1  0
 27 35  1  0
 29 36  1  0
 30 37  1  0
 30 38  1  0
 30 39  1  0
 31 40  1  0
 31 41  1  0
 31 42  1  0
M  ISO  8  32  14  33  14  34  14  35  14  36   8  37   8  38   8  39   8
M  ISO  3  40   8  41   8  42   8
M  END
>  <minimizedAffinity>  (1) 
-5.83520365

>  <minimizedRMSD>  (1) 
1.4174695

$$$$
