
     RDKit          3D

 48 51  0  0  1  0  0  0  0  0999 V2000
   38.4100   31.7030   39.8300 N   0  0  0  0  0  0  0  0  0  0  0  0
   38.4440   32.9000   39.0240 C   0  0  0  0  0  0  0  0  0  0  0  0
   38.7260   34.1190   39.8870 C   0  0  0  0  0  0  0  0  0  0  0  0
   40.0720   33.9210   40.5320 C   0  0  1  0  0  0  0  0  0  0  0  0
   40.6690   32.5610   40.2960 C   0  0  0  0  0  0  0  0  0  0  0  0
   39.6530   31.4660   40.5290 C   0  0  1  0  0  0  0  0  0  0  0  0
   39.4740   31.1100   41.9020 N   0  0  0  0  0  0  0  0  0  0  0  0
   40.7620   31.0240   42.5480 C   0  0  0  0  0  0  0  0  0  0  0  0
   40.8730   29.6500   43.2230 C   0  0  0  0  0  0  0  0  0  0  0  0
   40.8910   28.7110   42.1960 O   0  0  0  0  0  0  0  0  0  0  0  0
   39.6910   28.6970   41.5210 C   0  0  0  0  0  0  0  0  0  0  0  0
   38.7810   29.8350   41.9170 C   0  0  0  0  0  0  0  0  0  0  0  0
   41.1660   35.2190   39.9660 S   0  0  0  0  0  0  0  0  0  0  0  0
   43.3880   35.5390   41.6090 C   0  0  0  0  0  0  0  0  0  0  0  0
   42.8630   34.9150   40.4800 C   0  0  0  0  0  0  0  0  0  0  0  0
   43.6760   34.0690   39.7830 C   0  0  0  0  0  0  0  0  0  0  0  0
   44.9600   33.8420   40.1780 N   0  0  0  0  0  0  0  0  0  0  0  0
   45.4420   34.4680   41.2860 C   0  0  0  0  0  0  0  0  0  0  0  0
   44.6620   35.3130   42.0020 N   0  0  0  0  0  0  0  0  0  0  0  0
   46.7990   34.2810   41.7790 C   0  0  0  0  0  0  0  0  0  0  0  0
   47.7690   35.1870   41.5110 C   0  0  0  0  0  0  0  0  0  0  0  0
   49.0740   35.0340   41.9670 C   0  0  0  0  0  0  0  0  0  0  0  0
   49.4120   33.9320   42.7200 C   0  0  0  0  0  0  0  0  0  0  0  0
   48.3990   33.0110   42.9840 C   0  0  0  0  0  0  0  0  0  0  0  0
   47.1580   33.2120   42.5160 N   0  0  0  0  0  0  0  0  0  0  0  0
   38.2181   30.8980   39.2167 H   0  0  0  0  0  0  0  0  0  0  0  0
   39.2352   32.8030   38.2660 H   0  0  0  0  0  0  0  0  0  0  0  0
   37.4653   33.0282   38.5386 H   0  0  0  0  0  0  0  0  0  0  0  0
   38.7390   35.0249   39.2632 H   0  0  0  0  0  0  0  0  0  0  0  0
   37.9453   34.2382   40.6527 H   0  0  0  0  0  0  0  0  0  0  0  0
   39.9338   33.9783   41.6218 H   0  0  0  0  0  0  0  0  0  0  0  0
   41.5150   32.4169   40.9842 H   0  0  0  0  0  0  0  0  0  0  0  0
   41.0041   32.5062   39.2497 H   0  0  0  0  0  0  0  0  0  0  0  0
   40.0936   30.5662   40.0747 H   0  0  0  0  0  0  0  0  0  0  0  0
   41.5611   31.1366   41.8005 H   0  0  0  0  0  0  0  0  0  0  0  0
   40.8639   31.8231   43.2970 H   0  0  0  0  0  0  0  0  0  0  0  0
   41.8002   29.5885   43.8117 H   0  0  0  0  0  0  0  0  0  0  0  0
   40.0335   29.4736   43.9115 H   0  0  0  0  0  0  0  0  0  0  0  0
   39.1789   27.7473   41.7350 H   0  0  0  0  0  0  0  0  0  0  0  0
   39.9135   28.8096   40.4496 H   0  0  0  0  0  0  0  0  0  0  0  0
   38.3995   29.6491   42.9318 H   0  0  0  0  0  0  0  0  0  0  0  0
   37.9586   29.8844   41.1881 H   0  0  0  0  0  0  0  0  0  0  0  0
   42.7562   36.2267   42.1903 H   0  0  0  0  0  0  0  0  0  0  0  0
   43.2881   33.5619   38.8873 H   0  0  0  0  0  0  0  0  0  0  0  0
   47.5162   36.0744   40.9121 H   0  0  0  0  0  0  0  0  0  0  0  0
   49.8343   35.7917   41.7266 H   0  0  0  0  0  0  0  0  0  0  0  0
   50.4351   33.7848   43.0964 H   0  0  0  0  0  0  0  0  0  0  0  0
   48.6190   32.1132   43.5803 H   0  0  0  0  0  0  0  0  0  0  0  0
  1  6  1  0
  2  1  1  0
  2  3  1  0
  3  4  1  0
  5  6  1  0
  5  4  1  0
  6  7  1  0
  7 12  1  0
  7  8  1  0
  8  9  1  0
 10  9  1  0
 11 12  1  0
 11 10  1  0
 13 15  1  0
 13  4  1  0
 14 19  2  0
 15 14  1  0
 16 17  1  0
 16 15  2  0
 17 18  2  0
 18 20  1  0
 18 19  1  0
 20 25  1  0
 21 20  2  0
 21 22  1  0
 22 23  2  0
 23 24  1  0
 25 24  2  0
  1 26  1  0
  2 27  1  0
  2 28  1  0
  3 29  1  0
  3 30  1  0
  4 31  1  1
  5 32  1  0
  5 33  1  0
  6 34  1  6
  8 35  1  0
  8 36  1  0
  9 37  1  0
  9 38  1  0
 11 39  1  0
 11 40  1  0
 12 41  1  0
 12 42  1  0
 14 43  1  0
 16 44  1  0
 21 45  1  0
 22 46  1  0
 23 47  1  0
 24 48  1  0
M  ISO  8  26   5  27  13  28  13  29  13  30  13  31  13  32  13  33  13
M  ISO  8  34  13  35  13  36  13  37  13  38  13  39  13  40  13  41  13
M  ISO  7  42  13  43  14  44  14  45  14  46  14  47  14  48  14
M  END
>  <minimizedAffinity>  (1) 
-5.74218607

>  <minimizedRMSD>  (1) 
3.1312077

$$$$
