
     RDKit          3D

 24 25  0  0  0  0  0  0  0  0999 V2000
   44.8570   34.8810   45.5170 C   0  0  0  0  0  0  0  0  0  0  0  0
   45.4840   34.9320   44.2440 C   0  0  0  0  0  0  0  0  0  0  0  0
   46.4180   33.9490   43.9420 C   0  0  0  0  0  0  0  0  0  0  0  0
   46.7040   32.9770   44.8630 N   0  0  0  0  0  0  0  0  0  0  0  0
   46.0700   32.9830   46.0660 C   0  0  0  0  0  0  0  0  0  0  0  0
   45.1680   33.9050   46.3970 N   0  0  0  0  0  0  0  0  0  0  0  0
   46.4010   31.9470   46.9990 N   0  0  0  0  0  0  0  0  0  0  0  0
   47.4970   32.2130   47.9240 C   0  0  0  0  0  0  0  0  0  0  0  0
   47.3010   31.3020   49.1070 C   0  0  0  0  0  0  0  0  0  0  0  0
   45.9640   31.0570   49.3840 O   0  0  0  0  0  0  0  0  0  0  0  0
   45.3290   30.3320   48.4030 C   0  0  0  0  0  0  0  0  0  0  0  0
   45.6640   30.7050   46.9990 C   0  0  0  0  0  0  0  0  0  0  0  0
   45.0680   36.2310   43.0730 S   0  0  0  0  0  0  0  0  0  0  0  0
   44.1116   35.6430   45.7887 H   0  0  0  0  0  0  0  0  0  0  0  0
   46.9260   33.9515   42.9664 H   0  0  0  0  0  0  0  0  0  0  0  0
   48.4613   32.0012   47.4390 H   0  0  0  0  0  0  0  0  0  0  0  0
   47.5023   33.2679   48.2357 H   0  0  0  0  0  0  0  0  0  0  0  0
   47.7975   30.3430   48.8976 H   0  0  0  0  0  0  0  0  0  0  0  0
   47.7335   31.8037   49.9852 H   0  0  0  0  0  0  0  0  0  0  0  0
   45.5921   29.2731   48.5425 H   0  0  0  0  0  0  0  0  0  0  0  0
   44.2566   30.5466   48.5207 H   0  0  0  0  0  0  0  0  0  0  0  0
   44.7368   30.8277   46.4200 H   0  0  0  0  0  0  0  0  0  0  0  0
   46.2760   29.9129   46.5429 H   0  0  0  0  0  0  0  0  0  0  0  0
   44.7057   37.3623   43.7556 H   0  0  0  0  0  0  0  0  0  0  0  0
  1  6  2  0
  2  1  1  0
  3  2  2  0
  3  4  1  0
  4  5  2  0
  5  6  1  0
  5  7  1  0
  7 12  1  0
  7  8  1  0
  8  9  1  0
  9 10  1  0
 11 10  1  0
 12 11  1  0
 13  2  1  0
  1 14  1  0
  3 15  1  0
  8 16  1  0
  8 17  1  0
  9 18  1  0
  9 19  1  0
 11 20  1  0
 11 21  1  0
 12 22  1  0
 12 23  1  0
 13 24  1  0
M  ISO  8  14  14  15  14  16  13  17  13  18  13  19  13  20  13  21  13
M  ISO  3  22  13  23  13  24  11
M  END
>  <minimizedAffinity>  (1) 
-4.28844166

>  <minimizedRMSD>  (1) 
2.23860216

$$$$
