
     RDKit          3D

 39 41  0  0  1  0  0  0  0  0999 V2000
   46.6230   32.5120   45.2980 C   0  0  2  0  0  0  0  0  0  0  0  0
   45.5120   33.4480   45.7520 C   0  0  0  0  0  0  0  0  0  0  0  0
   45.2770   34.6280   44.9630 C   0  0  0  0  0  0  0  0  0  0  0  0
   46.0750   34.9050   43.7840 C   0  0  1  0  0  0  0  0  0  0  0  0
   47.1970   33.9840   43.5010 C   0  0  0  0  0  0  0  0  0  0  0  0
   46.7730   32.5620   43.8210 C   0  0  0  0  0  0  0  0  0  0  0  0
   46.9850   30.8770   47.0980 C   0  0  0  0  0  0  0  0  0  0  0  0
   46.4160   31.1990   45.8820 C   0  0  0  0  0  0  0  0  0  0  0  0
   45.6650   30.1980   45.2770 C   0  0  0  0  0  0  0  0  0  0  0  0
   45.5180   28.9920   45.8680 N   0  0  0  0  0  0  0  0  0  0  0  0
   46.0880   28.7120   47.0550 C   0  0  0  0  0  0  0  0  0  0  0  0
   46.8220   29.6530   47.6740 N   0  0  0  0  0  0  0  0  0  0  0  0
   45.9050   27.4280   47.6370 N   0  0  0  0  0  0  0  0  0  0  0  0
   46.8940   26.3710   47.6890 C   0  0  0  0  0  0  0  0  0  0  0  0
   46.3620   25.4320   48.7360 C   0  0  0  0  0  0  0  0  0  0  0  0
   44.8590   25.4720   48.4580 C   0  0  0  0  0  0  0  0  0  0  0  0
   44.6690   26.9740   48.2810 C   0  0  0  0  0  0  0  0  0  0  0  0
   45.1290   34.9750   42.5750 C   0  0  0  0  0  0  0  0  0  0  0  0
   44.0540   34.1250   42.6880 F   0  0  0  0  0  0  0  0  0  0  0  0
   44.5840   36.2640   42.5410 F   0  0  0  0  0  0  0  0  0  0  0  0
   45.8470   34.7960   41.4050 F   0  0  0  0  0  0  0  0  0  0  0  0
   47.6050   32.8375   45.6719 H   0  0  0  0  0  0  0  0  0  0  0  0
   44.9122   33.2308   46.6482 H   0  0  0  0  0  0  0  0  0  0  0  0
   44.4821   35.3289   45.2577 H   0  0  0  0  0  0  0  0  0  0  0  0
   46.5811   35.8598   43.9893 H   0  0  0  0  0  0  0  0  0  0  0  0
   47.4714   34.0551   42.4381 H   0  0  0  0  0  0  0  0  0  0  0  0
   48.0635   34.2580   44.1208 H   0  0  0  0  0  0  0  0  0  0  0  0
   45.8172   32.3267   43.3299 H   0  0  0  0  0  0  0  0  0  0  0  0
   47.5089   31.8275   43.4618 H   0  0  0  0  0  0  0  0  0  0  0  0
   47.5900   31.6336   47.6191 H   0  0  0  0  0  0  0  0  0  0  0  0
   45.1849   30.3899   44.3061 H   0  0  0  0  0  0  0  0  0  0  0  0
   46.9784   25.8653   46.7158 H   0  0  0  0  0  0  0  0  0  0  0  0
   47.9019   26.7432   47.9246 H   0  0  0  0  0  0  0  0  0  0  0  0
   46.7663   24.4172   48.6065 H   0  0  0  0  0  0  0  0  0  0  0  0
   46.6322   25.7128   49.7647 H   0  0  0  0  0  0  0  0  0  0  0  0
   44.5966   24.9160   47.5459 H   0  0  0  0  0  0  0  0  0  0  0  0
   44.2295   25.0111   49.2335 H   0  0  0  0  0  0  0  0  0  0  0  0
   44.5351   27.4663   49.2555 H   0  0  0  0  0  0  0  0  0  0  0  0
   43.7753   27.2149   47.6867 H   0  0  0  0  0  0  0  0  0  0  0  0
  1  2  1  0
  1  8  1  0
  3  2  2  0
  4  3  1  0
  5  4  1  0
  5  6  1  0
  6  1  1  0
  7 12  2  0
  8  7  1  0
  9 10  1  0
  9  8  2  0
 10 11  2  0
 11 13  1  0
 11 12  1  0
 13 14  1  0
 13 17  1  0
 14 15  1  0
 16 15  1  0
 17 16  1  0
 18 19  1  0
 18  4  1  0
 20 18  1  0
 21 18  1  0
  1 22  1  1
  2 23  1  0
  3 24  1  0
  4 25  1  1
  5 26  1  0
  5 27  1  0
  6 28  1  0
  6 29  1  0
  7 30  1  0
  9 31  1  0
 14 32  1  0
 14 33  1  0
 15 34  1  0
 15 35  1  0
 16 36  1  0
 16 37  1  0
 17 38  1  0
 17 39  1  0
M  ISO  8  22  13  23  13  24  13  25  13  26  13  27  13  28  13  29  13
M  ISO  8  30  14  31  14  32  13  33  13  34  13  35  13  36  13  37  13
M  ISO  2  38  13  39  13
M  END
>  <minimizedAffinity>  (1) 
-4.84138155

>  <minimizedRMSD>  (1) 
2.10450196

$$$$
