
     RDKit          3D

 49 53  0  0  1  0  0  0  0  0999 V2000
   46.8270   34.5240   41.3320 C   0  0  0  0  0  0  0  0  0  0  0  0
   48.0820   34.9530   40.9520 C   0  0  0  0  0  0  0  0  0  0  0  0
   48.3280   34.5980   39.6870 N   0  0  0  0  0  0  0  0  0  0  0  0
   47.2350   33.9410   39.2520 C   0  0  0  0  0  0  0  0  0  0  0  0
   46.9600   33.3610   38.0160 C   0  0  0  0  0  0  0  0  0  0  0  0
   45.7610   32.7470   37.8230 C   0  0  0  0  0  0  0  0  0  0  0  0
   44.7750   32.6520   38.7770 C   0  0  0  0  0  0  0  0  0  0  0  0
   45.0770   33.2360   39.9900 C   0  0  0  0  0  0  0  0  0  0  0  0
   46.2730   33.8740   40.2530 C   0  0  0  0  0  0  0  0  0  0  0  0
   44.7410   35.9940   44.0590 C   0  0  0  0  0  0  0  0  0  0  0  0
   45.3550   35.8300   42.8030 C   0  0  0  0  0  0  0  0  0  0  0  0
   46.1780   34.7110   42.6360 C   0  0  0  0  0  0  0  0  0  0  0  0
   46.3600   33.8260   43.6700 N   0  0  0  0  0  0  0  0  0  0  0  0
   45.7360   34.0440   44.8600 C   0  0  0  0  0  0  0  0  0  0  0  0
   44.9370   35.1060   45.0640 N   0  0  0  0  0  0  0  0  0  0  0  0
   49.0070   35.6970   41.8340 C   0  0  0  0  0  0  0  0  0  0  0  0
   49.9280   34.7830   42.5660 C   0  0  0  0  0  0  0  0  0  0  0  0
   50.1060   33.4360   41.9350 C   0  0  1  0  0  0  0  0  0  0  0  0
   51.0900   32.4560   42.3790 C   0  0  0  0  0  0  0  0  0  0  0  0
   49.7060   32.2590   42.8470 C   0  0  2  0  0  0  0  0  0  0  0  0
   48.8400   31.2460   42.3660 N   0  0  0  0  0  0  0  0  0  0  0  0
   48.0170   30.7920   43.4830 C   0  0  0  0  0  0  0  0  0  0  0  0
   48.7720   29.5890   44.0330 C   0  0  0  0  0  0  0  0  0  0  0  0
   49.3330   28.9740   42.7650 C   0  0  0  0  0  0  0  0  0  0  0  0
   49.4390   30.1040   41.7620 C   0  0  0  0  0  0  0  0  0  0  0  0
   49.1857   34.7893   39.1497 H   0  0  0  0  0  0  0  0  0  0  0  0
   47.7029   33.3988   37.2057 H   0  0  0  0  0  0  0  0  0  0  0  0
   45.5676   32.2966   36.8382 H   0  0  0  0  0  0  0  0  0  0  0  0
   43.8161   32.1475   38.5870 H   0  0  0  0  0  0  0  0  0  0  0  0
   44.3243   33.1909   40.7909 H   0  0  0  0  0  0  0  0  0  0  0  0
   44.0874   36.8624   44.2287 H   0  0  0  0  0  0  0  0  0  0  0  0
   45.1946   36.5508   41.9877 H   0  0  0  0  0  0  0  0  0  0  0  0
   45.8904   33.3284   45.6810 H   0  0  0  0  0  0  0  0  0  0  0  0
   49.6041   36.3886   41.2215 H   0  0  0  0  0  0  0  0  0  0  0  0
   48.4066   36.2439   42.5760 H   0  0  0  0  0  0  0  0  0  0  0  0
   50.9143   35.2663   42.6257 H   0  0  0  0  0  0  0  0  0  0  0  0
   49.4719   34.6065   43.5513 H   0  0  0  0  0  0  0  0  0  0  0  0
   49.8814   33.8421   40.9377 H   0  0  0  0  0  0  0  0  0  0  0  0
   51.5190   31.7528   41.6500 H   0  0  0  0  0  0  0  0  0  0  0  0
   52.0590   32.5358   42.8935 H   0  0  0  0  0  0  0  0  0  0  0  0
   49.2420   32.1151   43.8339 H   0  0  0  0  0  0  0  0  0  0  0  0
   47.9259   31.5787   44.2464 H   0  0  0  0  0  0  0  0  0  0  0  0
   46.9898   30.5434   43.1780 H   0  0  0  0  0  0  0  0  0  0  0  0
   49.5750   29.8983   44.7182 H   0  0  0  0  0  0  0  0  0  0  0  0
   48.1489   28.9026   44.6251 H   0  0  0  0  0  0  0  0  0  0  0  0
   50.3253   28.5401   42.9577 H   0  0  0  0  0  0  0  0  0  0  0  0
   48.6888   28.1642   42.3918 H   0  0  0  0  0  0  0  0  0  0  0  0
   48.9053   29.8408   40.8369 H   0  0  0  0  0  0  0  0  0  0  0  0
   50.4885   30.3012   41.4981 H   0  0  0  0  0  0  0  0  0  0  0  0
  1 12  1  0
  2  1  2  0
  2 16  1  0
  3  2  1  0
  4  3  1  0
  4  9  2  0
  5  4  1  0
  6  5  2  0
  6  7  1  0
  7  8  2  0
  8  9  1  0
  9  1  1  0
 10 15  2  0
 11 10  1  0
 12 11  2  0
 12 13  1  0
 13 14  2  0
 14 15  1  0
 16 17  1  0
 18 19  1  0
 18 17  1  0
 18 20  1  0
 19 20  1  0
 21 20  1  0
 21 22  1  0
 22 23  1  0
 24 23  1  0
 25 21  1  0
 25 24  1  0
  3 26  1  0
  5 27  1  0
  6 28  1  0
  7 29  1  0
  8 30  1  0
 10 31  1  0
 11 32  1  0
 14 33  1  0
 16 34  1  0
 16 35  1  0
 17 36  1  0
 17 37  1  0
 18 38  1  6
 19 39  1  0
 19 40  1  0
 20 41  1  1
 22 42  1  0
 22 43  1  0
 23 44  1  0
 23 45  1  0
 24 46  1  0
 24 47  1  0
 25 48  1  0
 25 49  1  0
M  ISO  8  26   9  27  14  28  14  29  14  30  14  31  14  32  14  33  14
M  ISO  8  34   8  35   8  36   8  37   8  38  13  39  13  40  13  41  13
M  ISO  8  42  13  43  13  44  13  45  13  46  13  47  13  48  13  49  13
M  END
>  <minimizedAffinity>  (1) 
-5.68056297

>  <minimizedRMSD>  (1) 
1.44894207

$$$$
