
     RDKit          3D

 32 34  0  0  1  0  0  0  0  0999 V2000
   43.8320   35.5110   41.9030 C   0  0  0  0  0  0  0  0  0  0  0  0
   43.2320   34.8180   40.8190 C   0  0  0  0  0  0  0  0  0  0  0  0
   44.0090   33.9630   40.0690 C   0  0  0  0  0  0  0  0  0  0  0  0
   45.3190   33.8200   40.4000 N   0  0  0  0  0  0  0  0  0  0  0  0
   45.8730   34.4860   41.4330 C   0  0  0  0  0  0  0  0  0  0  0  0
   45.1310   35.3330   42.1890 N   0  0  0  0  0  0  0  0  0  0  0  0
   47.2770   34.3510   41.8080 C   0  0  0  0  0  0  0  0  0  0  0  0
   48.1170   35.4480   41.7120 C   0  0  0  0  0  0  0  0  0  0  0  0
   49.4610   35.3390   42.0650 C   0  0  0  0  0  0  0  0  0  0  0  0
   49.9830   34.1480   42.5140 C   0  0  0  0  0  0  0  0  0  0  0  0
   49.1050   33.0870   42.5910 C   0  0  0  0  0  0  0  0  0  0  0  0
   47.8130   33.2090   42.2460 N   0  0  0  0  0  0  0  0  0  0  0  0
   41.4720   35.1040   40.4980 S   0  0  0  0  0  0  0  0  0  0  0  0
   40.3960   32.7600   40.0670 N   0  0  0  0  0  0  0  0  0  0  0  0
   39.2010   33.1350   40.7820 C   0  0  0  0  0  0  0  0  0  0  0  0
   38.5310   34.2050   39.9720 C   0  0  0  0  0  0  0  0  0  0  0  0
   39.4550   34.4160   38.7790 C   0  0  0  0  0  0  0  0  0  0  0  0
   40.8030   33.9390   39.3110 C   0  0  1  0  0  0  0  0  0  0  0  0
   43.2278   36.1988   42.5129 H   0  0  0  0  0  0  0  0  0  0  0  0
   43.5789   33.4088   39.2217 H   0  0  0  0  0  0  0  0  0  0  0  0
   47.7214   36.4104   41.3553 H   0  0  0  0  0  0  0  0  0  0  0  0
   50.1150   36.2197   41.9832 H   0  0  0  0  0  0  0  0  0  0  0  0
   51.0415   34.0474   42.7959 H   0  0  0  0  0  0  0  0  0  0  0  0
   49.4737   32.1130   42.9452 H   0  0  0  0  0  0  0  0  0  0  0  0
   41.1368   32.4862   40.7281 H   0  0  0  0  0  0  0  0  0  0  0  0
   38.5344   32.2664   40.8878 H   0  0  0  0  0  0  0  0  0  0  0  0
   39.4420   33.4967   41.7925 H   0  0  0  0  0  0  0  0  0  0  0  0
   37.5358   33.8749   39.6393 H   0  0  0  0  0  0  0  0  0  0  0  0
   38.3743   35.1290   40.5480 H   0  0  0  0  0  0  0  0  0  0  0  0
   39.4950   35.4769   38.4909 H   0  0  0  0  0  0  0  0  0  0  0  0
   39.1289   33.8821   37.8742 H   0  0  0  0  0  0  0  0  0  0  0  0
   41.5535   33.7925   38.5202 H   0  0  0  0  0  0  0  0  0  0  0  0
  1  6  2  0
  2  1  1  0
  3  4  1  0
  3  2  2  0
  4  5  2  0
  5  7  1  0
  5  6  1  0
  7 12  1  0
  8  7  2  0
  8  9  1  0
  9 10  2  0
 10 11  1  0
 12 11  2  0
 13  2  1  0
 14 15  1  0
 16 15  1  0
 17 18  1  0
 17 16  1  0
 18 14  1  0
 18 13  1  0
  1 19  1  0
  3 20  1  0
  8 21  1  0
  9 22  1  0
 10 23  1  0
 11 24  1  0
 14 25  1  0
 15 26  1  0
 15 27  1  0
 16 28  1  0
 16 29  1  0
 17 30  1  0
 17 31  1  0
 18 32  1  6
M  ISO  8  19  14  20  14  21  14  22  14  23  14  24  14  25   5  26  13
M  ISO  6  27  13  28  13  29  13  30  13  31  13  32  13
M  END
>  <minimizedAffinity>  (1) 
-5.31456947

>  <minimizedRMSD>  (1) 
0.995758832

$$$$
