
     RDKit          3D

 38 40  0  0  1  0  0  0  0  0999 V2000
   47.5050   34.0270   42.2830 C   0  0  0  0  0  0  0  0  0  0  0  0
   48.3390   35.1460   41.6860 C   0  0  0  0  0  0  0  0  0  0  0  0
   49.6970   35.3410   42.2750 C   0  0  0  0  0  0  0  0  0  0  0  0
   50.4370   34.0530   42.4610 C   0  0  0  0  0  0  0  0  0  0  0  0
   49.6080   32.8200   42.2780 C   0  0  0  0  0  0  0  0  0  0  0  0
   48.3230   33.0480   43.0380 C   0  0  0  0  0  0  0  0  0  0  0  0
   45.1940   34.4430   45.1590 C   0  0  0  0  0  0  0  0  0  0  0  0
   44.5300   35.6590   44.8550 C   0  0  0  0  0  0  0  0  0  0  0  0
   44.9000   36.3250   43.6670 C   0  0  0  0  0  0  0  0  0  0  0  0
   45.8790   35.7550   42.8770 N   0  0  0  0  0  0  0  0  0  0  0  0
   46.4730   34.6080   43.2040 C   0  0  0  0  0  0  0  0  0  0  0  0
   46.1370   33.9470   44.3440 N   0  0  0  0  0  0  0  0  0  0  0  0
   46.7920   33.4800   41.1720 N   0  0  0  0  0  0  0  0  0  0  0  0
   45.3670   33.4390   41.2630 C   0  0  0  0  0  0  0  0  0  0  0  0
   44.9940   32.9690   39.8490 C   0  0  0  0  0  0  0  0  0  0  0  0
   46.2350   33.0650   39.0090 C   0  0  0  0  0  0  0  0  0  0  0  0
   47.0850   34.0030   39.8880 C   0  0  0  0  0  0  0  0  0  0  0  0
   47.7803   36.0851   41.8120 H   0  0  0  0  0  0  0  0  0  0  0  0
   48.5106   34.8589   40.6381 H   0  0  0  0  0  0  0  0  0  0  0  0
   50.2813   35.9889   41.6051 H   0  0  0  0  0  0  0  0  0  0  0  0
   49.5660   35.7951   43.2683 H   0  0  0  0  0  0  0  0  0  0  0  0
   51.2602   34.0231   41.7320 H   0  0  0  0  0  0  0  0  0  0  0  0
   50.7814   34.0421   43.5057 H   0  0  0  0  0  0  0  0  0  0  0  0
   49.3947   32.6609   41.2107 H   0  0  0  0  0  0  0  0  0  0  0  0
   50.1354   31.9285   42.6484 H   0  0  0  0  0  0  0  0  0  0  0  0
   48.5480   33.4444   44.0391 H   0  0  0  0  0  0  0  0  0  0  0  0
   47.7747   32.1009   43.1495 H   0  0  0  0  0  0  0  0  0  0  0  0
   44.9315   33.8980   46.0777 H   0  0  0  0  0  0  0  0  0  0  0  0
   43.7554   36.0678   45.5205 H   0  0  0  0  0  0  0  0  0  0  0  0
   44.4216   37.2724   43.3781 H   0  0  0  0  0  0  0  0  0  0  0  0
   45.0319   32.7229   42.0278 H   0  0  0  0  0  0  0  0  0  0  0  0
   44.9049   34.3921   41.5597 H   0  0  0  0  0  0  0  0  0  0  0  0
   44.6384   31.9285   39.8790 H   0  0  0  0  0  0  0  0  0  0  0  0
   44.1890   33.5906   39.4299 H   0  0  0  0  0  0  0  0  0  0  0  0
   46.7149   32.0840   38.8769 H   0  0  0  0  0  0  0  0  0  0  0  0
   46.0706   33.4185   37.9804 H   0  0  0  0  0  0  0  0  0  0  0  0
   48.1562   33.9235   39.6508 H   0  0  0  0  0  0  0  0  0  0  0  0
   46.8653   35.0738   39.7656 H   0  0  0  0  0  0  0  0  0  0  0  0
  1  6  1  0
  1 11  1  0
  2  3  1  0
  2  1  1  0
  3  4  1  0
  5  4  1  0
  5  6  1  0
  8  7  2  0
  9  8  1  0
 10 11  1  0
 10  9  2  0
 11 12  2  0
 12  7  1  0
 13 14  1  0
 13  1  1  0
 15 14  1  0
 16 15  1  0
 16 17  1  0
 17 13  1  0
  2 18  1  0
  2 19  1  0
  3 20  1  0
  3 21  1  0
  4 22  1  0
  4 23  1  0
  5 24  1  0
  5 25  1  0
  6 26  1  0
  6 27  1  0
  7 28  1  0
  8 29  1  0
  9 30  1  0
 14 31  1  0
 14 32  1  0
 15 33  1  0
 15 34  1  0
 16 35  1  0
 16 36  1  0
 17 37  1  0
 17 38  1  0
M  ISO  8  18  13  19  13  20  13  21  13  22  13  23  13  24  13  25  13
M  ISO  8  26  13  27  13  28  14  29  14  30  14  31  13  32  13  33  13
M  ISO  5  34  13  35  13  36  13  37  13  38  13
M  END
>  <minimizedAffinity>  (1) 
-5.24529171

>  <minimizedRMSD>  (1) 
0.281978339

$$$$
