
     RDKit          3D

 23 23  0  0  0  0  0  0  0  0999 V2000
   46.4640   33.9210   42.2690 C   0  0  0  0  0  0  0  0  0  0  0  0
   45.2250   35.7050   43.4530 C   0  0  0  0  0  0  0  0  0  0  0  0
   45.8110   34.4140   43.4620 C   0  0  0  0  0  0  0  0  0  0  0  0
   45.7130   33.6970   44.6500 C   0  0  0  0  0  0  0  0  0  0  0  0
   45.0720   34.2620   45.7180 N   0  0  0  0  0  0  0  0  0  0  0  0
   44.5290   35.5010   45.6530 C   0  0  0  0  0  0  0  0  0  0  0  0
   44.6070   36.2210   44.5180 N   0  0  0  0  0  0  0  0  0  0  0  0
   47.4860   32.8710   42.6880 C   0  0  0  0  0  0  0  0  0  0  0  0
   48.5950   33.5000   43.3710 N   0  0  0  0  0  0  0  0  0  0  0  0
   49.6250   34.0700   42.5770 C   0  0  0  0  0  0  0  0  0  0  0  0
   49.9700   33.5250   41.4400 N   0  0  0  0  0  0  0  0  0  0  0  0
   50.3420   35.2570   42.9560 N   0  0  0  0  0  0  0  0  0  0  0  0
   49.4990   32.6620   41.0920 H   0  0  0  0  0  0  0  0  0  0  0  0
   46.9709   34.7492   41.7521 H   0  0  0  0  0  0  0  0  0  0  0  0
   45.7244   33.4808   41.5841 H   0  0  0  0  0  0  0  0  0  0  0  0
   45.2818   36.3048   42.5327 H   0  0  0  0  0  0  0  0  0  0  0  0
   46.1454   32.6887   44.7295 H   0  0  0  0  0  0  0  0  0  0  0  0
   44.0209   35.9218   46.5332 H   0  0  0  0  0  0  0  0  0  0  0  0
   47.0071   32.1464   43.3630 H   0  0  0  0  0  0  0  0  0  0  0  0
   47.8613   32.3565   41.7911 H   0  0  0  0  0  0  0  0  0  0  0  0
   48.6363   33.5334   44.3996 H   0  0  0  0  0  0  0  0  0  0  0  0
   51.0813   35.6298   42.3433 H   0  0  0  0  0  0  0  0  0  0  0  0
   50.1164   35.7346   43.8402 H   0  0  0  0  0  0  0  0  0  0  0  0
  1  8  1  0
  1  3  1  0
  2  3  2  0
  2  7  1  0
  3  4  1  0
  4  5  2  0
  6  5  1  0
  7  6  2  0
  8  9  1  0
 10 12  1  0
 10  9  1  0
 11 10  2  0
 13 11  1  0
  1 14  1  0
  1 15  1  0
  2 16  1  0
  4 17  1  0
  6 18  1  0
  8 19  1  0
  8 20  1  0
  9 21  1  0
 12 22  1  0
 12 23  1  0
M  ISO  7  14   8  15   8  16  14  17  14  18  14  19   8  20   8
M  END
>  <minimizedAffinity>  (1) 
-4.33655071

>  <minimizedRMSD>  (1) 
2.43039441

$$$$
