
     RDKit          3D

 28 30  0  0  0  0  0  0  0  0999 V2000
   44.0080   35.5610   42.8250 C   0  0  0  0  0  0  0  0  0  0  0  0
   43.2850   35.1590   41.6840 C   0  0  0  0  0  0  0  0  0  0  0  0
   43.9660   34.5180   40.6730 C   0  0  0  0  0  0  0  0  0  0  0  0
   45.3140   34.2850   40.7870 N   0  0  0  0  0  0  0  0  0  0  0  0
   45.9610   34.6990   41.9180 C   0  0  0  0  0  0  0  0  0  0  0  0
   45.3300   35.3290   42.9300 N   0  0  0  0  0  0  0  0  0  0  0  0
   47.4030   34.4770   42.0970 C   0  0  0  0  0  0  0  0  0  0  0  0
   48.2800   35.5160   41.9620 C   0  0  0  0  0  0  0  0  0  0  0  0
   49.6470   35.3370   42.1260 C   0  0  0  0  0  0  0  0  0  0  0  0
   50.1600   34.0900   42.4330 C   0  0  0  0  0  0  0  0  0  0  0  0
   49.2430   33.0640   42.5610 C   0  0  0  0  0  0  0  0  0  0  0  0
   47.9210   33.2620   42.3980 N   0  0  0  0  0  0  0  0  0  0  0  0
   41.5120   35.4750   41.5540 S   0  0  0  0  0  0  0  0  0  0  0  0
   40.9040   34.6450   40.1090 C   0  0  0  0  0  0  0  0  0  0  0  0
   40.7160   35.3760   38.9710 C   0  0  0  0  0  0  0  0  0  0  0  0
   40.2400   34.7190   37.8450 C   0  0  0  0  0  0  0  0  0  0  0  0
   39.9890   33.4060   37.9330 N   0  0  0  0  0  0  0  0  0  0  0  0
   40.1770   32.6900   39.0610 C   0  0  0  0  0  0  0  0  0  0  0  0
   40.6360   33.3250   40.1460 N   0  0  0  0  0  0  0  0  0  0  0  0
   43.4828   36.0735   43.6444 H   0  0  0  0  0  0  0  0  0  0  0  0
   43.4278   34.1916   39.7709 H   0  0  0  0  0  0  0  0  0  0  0  0
   47.8943   36.5168   41.7179 H   0  0  0  0  0  0  0  0  0  0  0  0
   50.3273   36.1937   42.0108 H   0  0  0  0  0  0  0  0  0  0  0  0
   51.2390   33.9238   42.5679 H   0  0  0  0  0  0  0  0  0  0  0  0
   49.6044   32.0538   42.8037 H   0  0  0  0  0  0  0  0  0  0  0  0
   40.9353   36.4537   38.9475 H   0  0  0  0  0  0  0  0  0  0  0  0
   40.0730   35.2629   36.9036 H   0  0  0  0  0  0  0  0  0  0  0  0
   39.9587   31.6122   39.0882 H   0  0  0  0  0  0  0  0  0  0  0  0
  1  6  2  0
  2  1  1  0
  3  4  1  0
  3  2  2  0
  4  5  2  0
  5  7  1  0
  5  6  1  0
  7 12  1  0
  8  7  2  0
  8  9  1  0
  9 10  2  0
 10 11  1  0
 12 11  2  0
 13  2  1  0
 14 19  1  0
 14 13  1  0
 15 14  2  0
 16 17  2  0
 16 15  1  0
 17 18  1  0
 18 19  2  0
  1 20  1  0
  3 21  1  0
  8 22  1  0
  9 23  1  0
 10 24  1  0
 11 25  1  0
 15 26  1  0
 16 27  1  0
 18 28  1  0
M  ISO  8  20  14  21  14  22  14  23  14  24  14  25  14  26  14  27  14
M  ISO  1  28  14
M  END
>  <minimizedAffinity>  (1) 
-5.37109995

>  <minimizedRMSD>  (1) 
0.648380041

$$$$
