
     RDKit          3D

 27 28  0  0  1  0  0  0  0  0999 V2000
   45.8990   33.6940   45.5210 C   0  0  2  0  0  0  0  0  0  0  0  0
   44.8730   34.7530   45.8590 C   0  0  0  0  0  0  0  0  0  0  0  0
   44.5190   35.7070   44.8180 C   0  0  0  0  0  0  0  0  0  0  0  0
   45.1480   35.6100   43.5120 C   0  0  1  0  0  0  0  0  0  0  0  0
   46.2120   34.6100   43.3390 C   0  0  0  0  0  0  0  0  0  0  0  0
   45.7880   33.3350   44.0700 C   0  0  0  0  0  0  0  0  0  0  0  0
   45.2560   32.8040   47.7430 C   0  0  0  0  0  0  0  0  0  0  0  0
   45.7640   32.5780   46.4640 C   0  0  0  0  0  0  0  0  0  0  0  0
   46.1430   31.2710   46.1330 C   0  0  0  0  0  0  0  0  0  0  0  0
   46.0020   30.2870   47.0600 N   0  0  0  0  0  0  0  0  0  0  0  0
   45.5050   30.5380   48.2960 C   0  0  0  0  0  0  0  0  0  0  0  0
   45.1360   31.7900   48.6310 N   0  0  0  0  0  0  0  0  0  0  0  0
   44.0420   35.4340   42.5050 C   0  0  0  0  0  0  0  0  0  0  0  0
   44.2740   35.1890   41.2760 O   0  0  0  0  0  0  0  0  0  0  0  0
   42.7050   35.5310   42.8600 O   0  0  0  0  0  0  0  0  0  0  0  0
   46.9288   34.0600   45.6454 H   0  0  0  0  0  0  0  0  0  0  0  0
   44.4108   34.8005   46.8561 H   0  0  0  0  0  0  0  0  0  0  0  0
   43.7798   36.4964   45.0190 H   0  0  0  0  0  0  0  0  0  0  0  0
   45.7143   36.5420   43.3682 H   0  0  0  0  0  0  0  0  0  0  0  0
   46.3534   34.3971   42.2691 H   0  0  0  0  0  0  0  0  0  0  0  0
   47.1604   34.9873   43.7490 H   0  0  0  0  0  0  0  0  0  0  0  0
   44.7538   33.0625   43.8128 H   0  0  0  0  0  0  0  0  0  0  0  0
   46.4074   32.4669   43.8004 H   0  0  0  0  0  0  0  0  0  0  0  0
   44.9489   33.8195   48.0337 H   0  0  0  0  0  0  0  0  0  0  0  0
   46.5493   31.0439   45.1363 H   0  0  0  0  0  0  0  0  0  0  0  0
   45.4030   29.7204   49.0248 H   0  0  0  0  0  0  0  0  0  0  0  0
   42.0009   35.4102   42.1747 H   0  0  0  0  0  0  0  0  0  0  0  0
  1  2  1  0
  1  8  1  0
  3  2  2  0
  4  3  1  0
  5  4  1  0
  5  6  1  0
  6  1  1  0
  7 12  2  0
  8  7  1  0
  9  8  2  0
  9 10  1  0
 10 11  2  0
 11 12  1  0
 13 15  1  0
 13  4  1  0
 14 13  2  0
  1 16  1  6
  2 17  1  0
  3 18  1  0
  4 19  1  6
  5 20  1  0
  5 21  1  0
  6 22  1  0
  6 23  1  0
  7 24  1  0
  9 25  1  0
 11 26  1  0
 15 27  1  0
M  ISO  8  16  13  17  13  18  13  19  13  20  13  21  13  22  13  23  13
M  ISO  4  24  14  25  14  26  14  27   3
M  END
>  <minimizedAffinity>  (1) 
-5.16333866

>  <minimizedRMSD>  (1) 
0.564530373

$$$$
