
     RDKit          3D

 25 25  0  0  0  0  0  0  0  0999 V2000
   48.5000   34.4570   41.4450 C   0  0  0  0  0  0  0  0  0  0  0  0
   45.7570   34.6040   44.0610 C   0  0  0  0  0  0  0  0  0  0  0  0
   46.5270   34.9580   42.9380 C   0  0  0  0  0  0  0  0  0  0  0  0
   47.6350   34.1720   42.5990 C   0  0  0  0  0  0  0  0  0  0  0  0
   47.9030   33.1030   43.3830 N   0  0  0  0  0  0  0  0  0  0  0  0
   47.1530   32.7760   44.4600 C   0  0  0  0  0  0  0  0  0  0  0  0
   46.0830   33.5320   44.7910 N   0  0  0  0  0  0  0  0  0  0  0  0
   44.5950   35.3940   44.4520 C   0  0  0  0  0  0  0  0  0  0  0  0
   44.4560   35.8220   45.6270 O   0  0  0  0  0  0  0  0  0  0  0  0
   43.5690   35.7380   43.6130 O   0  0  0  0  0  0  0  0  0  0  0  0
   49.7170   33.5420   41.5210 C   0  0  0  0  0  0  0  0  0  0  0  0
   49.0560   35.8690   41.5960 C   0  0  0  0  0  0  0  0  0  0  0  0
   47.8330   34.3820   40.1140 C   0  0  0  0  0  0  0  0  0  0  0  0
   46.2625   35.8393   42.3352 H   0  0  0  0  0  0  0  0  0  0  0  0
   47.4138   31.8956   45.0658 H   0  0  0  0  0  0  0  0  0  0  0  0
   42.8119   36.2780   43.9524 H   0  0  0  0  0  0  0  0  0  0  0  0
   49.9684   33.3530   42.5751 H   0  0  0  0  0  0  0  0  0  0  0  0
   49.4906   32.5885   41.0214 H   0  0  0  0  0  0  0  0  0  0  0  0
   50.5701   34.0243   41.0214 H   0  0  0  0  0  0  0  0  0  0  0  0
   49.1521   36.1129   42.6643 H   0  0  0  0  0  0  0  0  0  0  0  0
   50.0442   35.9272   41.1163 H   0  0  0  0  0  0  0  0  0  0  0  0
   48.3728   36.5853   41.1163 H   0  0  0  0  0  0  0  0  0  0  0  0
   46.7487   34.2601   40.2536 H   0  0  0  0  0  0  0  0  0  0  0  0
   48.0287   35.3078   39.5531 H   0  0  0  0  0  0  0  0  0  0  0  0
   48.2294   33.5228   39.5531 H   0  0  0  0  0  0  0  0  0  0  0  0
  1 11  1  0
  1 12  1  0
  1  4  1  0
  2  8  1  0
  2  7  2  0
  3  2  1  0
  4  3  2  0
  4  5  1  0
  5  6  2  0
  6  7  1  0
  8  9  2  0
 10  8  1  0
 13  1  1  0
  3 14  1  0
  6 15  1  0
 10 16  1  0
 11 17  1  0
 11 18  1  0
 11 19  1  0
 12 20  1  0
 12 21  1  0
 12 22  1  0
 13 23  1  0
 13 24  1  0
 13 25  1  0
M  ISO  8  14  14  15  14  16   3  17   8  18   8  19   8  20   8  21   8
M  ISO  4  22   8  23   8  24   8  25   8
M  END
>  <minimizedAffinity>  (1) 
-4.87827682

>  <minimizedRMSD>  (1) 
2.25450516

$$$$
