
     RDKit          3D

 27 29  0  0  0  0  0  0  0  0999 V2000
   47.6490   31.0720   48.2720 N   0  0  0  0  0  0  0  0  0  0  0  0
   47.6210   31.6670   47.1060 C   0  0  0  0  0  0  0  0  0  0  0  0
   46.5410   32.5160   46.9870 C   0  0  0  0  0  0  0  0  0  0  0  0
   45.8890   32.4240   48.1400 N   0  0  0  0  0  0  0  0  0  0  0  0
   46.5630   31.5500   48.9160 C   0  0  0  0  0  0  0  0  0  0  0  0
   49.1790   30.5190   49.9970 C   0  0  0  0  0  0  0  0  0  0  0  0
   48.5480   30.1560   48.7960 C   0  0  0  0  0  0  0  0  0  0  0  0
   48.8910   28.9220   48.2620 C   0  0  0  0  0  0  0  0  0  0  0  0
   49.7940   28.1530   48.9140 N   0  0  0  0  0  0  0  0  0  0  0  0
   50.3760   28.5290   50.0570 C   0  0  0  0  0  0  0  0  0  0  0  0
   50.0640   29.7250   50.6010 N   0  0  0  0  0  0  0  0  0  0  0  0
   46.2000   33.3340   45.8310 C   0  0  0  0  0  0  0  0  0  0  0  0
   46.6970   33.1760   44.5490 C   0  0  0  0  0  0  0  0  0  0  0  0
   46.0740   34.1930   43.8150 C   0  0  0  0  0  0  0  0  0  0  0  0
   45.2550   34.8910   44.6810 C   0  0  0  0  0  0  0  0  0  0  0  0
   45.3560   34.3560   45.8600 O   0  0  0  0  0  0  0  0  0  0  0  0
   44.4540   36.0230   44.2380 C   0  0  0  0  0  0  0  0  0  0  0  0
   44.9520   37.1680   44.2170 O   0  0  0  0  0  0  0  0  0  0  0  0
   43.1270   35.7840   43.8410 O   0  0  0  0  0  0  0  0  0  0  0  0
   48.3696   31.5085   46.3158 H   0  0  0  0  0  0  0  0  0  0  0  0
   46.2673   31.2651   49.9365 H   0  0  0  0  0  0  0  0  0  0  0  0
   48.9354   31.4894   50.4542 H   0  0  0  0  0  0  0  0  0  0  0  0
   48.4359   28.5740   47.3230 H   0  0  0  0  0  0  0  0  0  0  0  0
   51.1040   27.8688   50.5511 H   0  0  0  0  0  0  0  0  0  0  0  0
   47.4157   32.4248   44.1895 H   0  0  0  0  0  0  0  0  0  0  0  0
   46.2119   34.3987   42.7432 H   0  0  0  0  0  0  0  0  0  0  0  0
   42.5590   36.5349   43.5351 H   0  0  0  0  0  0  0  0  0  0  0  0
  1  7  1  0
  1  5  1  0
  2  1  1  0
  3  2  2  0
  3  4  1  0
  4  5  2  0
  6 11  2  0
  7  6  1  0
  8  7  2  0
  8  9  1  0
  9 10  2  0
 10 11  1  0
 12 16  1  0
 12  3  1  0
 13 12  2  0
 14 13  1  0
 14 15  2  0
 15 16  1  0
 17 15  1  0
 18 17  2  0
 19 17  1  0
  2 20  1  0
  5 21  1  0
  6 22  1  0
  8 23  1  0
 10 24  1  0
 13 25  1  0
 14 26  1  0
 19 27  1  0
M  ISO  8  20  14  21  14  22  14  23  14  24  14  25  14  26  14  27   3
M  END
>  <minimizedAffinity>  (1) 
-5.47540426

>  <minimizedRMSD>  (1) 
1.2884407

$$$$
