
     RDKit          3D

 13 13  0  0  0  0  0  0  0  0999 V2000
   44.4520   35.5880   44.2250 C   0  0  0  0  0  0  0  0  0  0  0  0
   44.4130   34.8620   43.0010 C   0  0  0  0  0  0  0  0  0  0  0  0
   44.9240   33.5680   42.9830 C   0  0  0  0  0  0  0  0  0  0  0  0
   45.4390   33.0510   44.1430 N   0  0  0  0  0  0  0  0  0  0  0  0
   45.4530   33.7760   45.2730 C   0  0  0  0  0  0  0  0  0  0  0  0
   44.9730   35.0160   45.3250 N   0  0  0  0  0  0  0  0  0  0  0  0
   46.0000   33.2340   46.5120 C   0  0  0  0  0  0  0  0  0  0  0  0
   45.3110   32.8880   47.5040 O   0  0  0  0  0  0  0  0  0  0  0  0
   43.7250   35.5900   41.5040 S   0  0  0  0  0  0  0  0  0  0  0  0
   44.0572   36.6137   44.2709 H   0  0  0  0  0  0  0  0  0  0  0  0
   44.9148   32.9729   42.0579 H   0  0  0  0  0  0  0  0  0  0  0  0
   47.0918   33.1203   46.5827 H   0  0  0  0  0  0  0  0  0  0  0  0
   42.8132   36.5548   41.8428 H   0  0  0  0  0  0  0  0  0  0  0  0
  1  6  2  0
  2  1  1  0
  3  2  2  0
  3  4  1  0
  4  5  2  0
  5  6  1  0
  5  7  1  0
  7  8  2  0
  9  2  1  0
  1 10  1  0
  3 11  1  0
  7 12  1  0
  9 13  1  0
M  ISO  4  10  14  11  14  12   6  13  11
M  END
>  <minimizedAffinity>  (1) 
-2.9147265

>  <minimizedRMSD>  (1) 
0.669097066

$$$$
