
     RDKit          3D

 41 44  0  0  0  0  0  0  0  0999 V2000
   47.1580   32.8310   40.8770 C   0  0  0  0  0  0  0  0  0  0  0  0
   44.4490   30.9830   42.5560 C   0  0  0  0  0  0  0  0  0  0  0  0
   43.3870   31.5820   41.9700 C   0  0  0  0  0  0  0  0  0  0  0  0
   44.1370   32.7900   40.8510 S   0  0  0  0  0  0  0  0  0  0  0  0
   45.8790   32.2480   41.3980 C   0  0  0  0  0  0  0  0  0  0  0  0
   45.5920   31.4300   42.1600 N   0  0  0  0  0  0  0  0  0  0  0  0
   43.0040   28.0680   44.5210 C   0  0  0  0  0  0  0  0  0  0  0  0
   43.1440   29.0660   43.5660 C   0  0  0  0  0  0  0  0  0  0  0  0
   44.2650   29.9010   43.5670 C   0  0  0  0  0  0  0  0  0  0  0  0
   45.1590   29.6680   44.5300 N   0  0  0  0  0  0  0  0  0  0  0  0
   45.0290   28.6980   45.4630 C   0  0  0  0  0  0  0  0  0  0  0  0
   43.9560   27.9190   45.4400 N   0  0  0  0  0  0  0  0  0  0  0  0
   46.8190   33.6150   39.6480 C   0  0  0  0  0  0  0  0  0  0  0  0
   48.0660   31.6580   40.5790 C   0  0  0  0  0  0  0  0  0  0  0  0
   47.7990   33.7250   41.8950 C   0  0  0  0  0  0  0  0  0  0  0  0
   46.8620   34.2160   42.8790 N   0  0  0  0  0  0  0  0  0  0  0  0
   46.0630   35.2950   42.6460 C   0  0  0  0  0  0  0  0  0  0  0  0
   45.2700   35.5600   43.7250 N   0  0  0  0  0  0  0  0  0  0  0  0
   45.5580   34.6500   44.6550 C   0  0  0  0  0  0  0  0  0  0  0  0
   45.1510   34.3380   45.9370 C   0  0  0  0  0  0  0  0  0  0  0  0
   45.6530   33.3070   46.6610 N   0  0  0  0  0  0  0  0  0  0  0  0
   46.6020   32.5460   46.0880 C   0  0  0  0  0  0  0  0  0  0  0  0
   47.0360   32.8150   44.8280 N   0  0  0  0  0  0  0  0  0  0  0  0
   46.5330   33.8370   44.1220 C   0  0  0  0  0  0  0  0  0  0  0  0
   44.1420   35.1650   46.5120 N   0  0  0  0  0  0  0  0  0  0  0  0
   42.3181   31.3816   42.1351 H   0  0  0  0  0  0  0  0  0  0  0  0
   42.1215   27.4114   44.5185 H   0  0  0  0  0  0  0  0  0  0  0  0
   42.3651   29.2009   42.8011 H   0  0  0  0  0  0  0  0  0  0  0  0
   45.8034   28.5568   46.2313 H   0  0  0  0  0  0  0  0  0  0  0  0
   46.3980   34.5887   39.9388 H   0  0  0  0  0  0  0  0  0  0  0  0
   47.7293   33.7727   39.0510 H   0  0  0  0  0  0  0  0  0  0  0  0
   46.0806   33.0598   39.0510 H   0  0  0  0  0  0  0  0  0  0  0  0
   48.4111   31.2122   41.5236 H   0  0  0  0  0  0  0  0  0  0  0  0
   47.5133   30.9047   39.9984 H   0  0  0  0  0  0  0  0  0  0  0  0
   48.9338   32.0043   39.9984 H   0  0  0  0  0  0  0  0  0  0  0  0
   48.5877   33.1592   42.4125 H   0  0  0  0  0  0  0  0  0  0  0  0
   48.2051   34.5967   41.3609 H   0  0  0  0  0  0  0  0  0  0  0  0
   46.0578   35.8757   41.7118 H   0  0  0  0  0  0  0  0  0  0  0  0
   47.0307   31.6988   46.6433 H   0  0  0  0  0  0  0  0  0  0  0  0
   43.8026   34.9756   47.4659 H   0  0  0  0  0  0  0  0  0  0  0  0
   43.7524   35.9519   45.9735 H   0  0  0  0  0  0  0  0  0  0  0  0
  1  5  1  0
  1 15  1  0
  2  9  1  0
  3  2  2  0
  4  5  1  0
  4  3  1  0
  5  6  2  0
  6  2  1  0
  7 12  2  0
  8  9  2  0
  8  7  1  0
  9 10  1  0
 10 11  2  0
 12 11  1  0
 13  1  1  0
 14  1  1  0
 15 16  1  0
 16 24  1  0
 17 16  1  0
 17 18  2  0
 18 19  1  0
 19 20  2  0
 20 25  1  0
 20 21  1  0
 22 21  2  0
 23 22  1  0
 24 19  1  0
 24 23  2  0
  3 26  1  0
  7 27  1  0
  8 28  1  0
 11 29  1  0
 13 30  1  0
 13 31  1  0
 13 32  1  0
 14 33  1  0
 14 34  1  0
 14 35  1  0
 15 36  1  0
 15 37  1  0
 17 38  1  0
 22 39  1  0
 25 40  1  0
 25 41  1  0
M  ISO  8  26  14  27  14  28  14  29  14  30   8  31   8  32   8  33   8
M  ISO  6  34   8  35   8  36   8  37   8  38  14  39  14
M  END
>  <minimizedAffinity>  (1) 
-4.86011028

>  <minimizedRMSD>  (1) 
4.90658998

$$$$
