
     RDKit          3D

 44 48  0  0  0  0  0  0  0  0999 V2000
   46.2970   32.9910   38.7770 C   0  0  0  0  0  0  0  0  0  0  0  0
   47.0910   32.3330   37.8940 C   0  0  0  0  0  0  0  0  0  0  0  0
   46.5420   31.5340   36.8870 C   0  0  0  0  0  0  0  0  0  0  0  0
   45.1470   31.4930   36.8900 C   0  0  0  0  0  0  0  0  0  0  0  0
   44.3150   32.1530   37.7770 C   0  0  0  0  0  0  0  0  0  0  0  0
   44.9340   32.9100   38.7290 N   0  0  0  0  0  0  0  0  0  0  0  0
   46.7990   34.7520   41.9630 C   0  0  0  0  0  0  0  0  0  0  0  0
   48.0180   35.3960   41.8380 C   0  0  0  0  0  0  0  0  0  0  0  0
   48.6480   35.2010   40.6280 C   0  0  0  0  0  0  0  0  0  0  0  0
   48.0960   34.4130   39.6130 C   0  0  0  0  0  0  0  0  0  0  0  0
   46.8840   33.8050   39.8050 C   0  0  0  0  0  0  0  0  0  0  0  0
   46.2830   34.0090   40.9970 N   0  0  0  0  0  0  0  0  0  0  0  0
   44.5030   36.0060   44.6060 C   0  0  0  0  0  0  0  0  0  0  0  0
   45.1960   35.9300   43.3810 C   0  0  0  0  0  0  0  0  0  0  0  0
   46.0540   34.8910   43.1940 C   0  0  0  0  0  0  0  0  0  0  0  0
   46.1810   33.9870   44.2240 N   0  0  0  0  0  0  0  0  0  0  0  0
   45.5090   34.0810   45.3810 C   0  0  0  0  0  0  0  0  0  0  0  0
   44.6680   35.0950   45.5700 N   0  0  0  0  0  0  0  0  0  0  0  0
   42.8650   32.0150   37.6570 C   0  0  0  0  0  0  0  0  0  0  0  0
   42.1200   32.6290   38.7130 N   0  0  0  0  0  0  0  0  0  0  0  0
   41.7620   33.9440   38.6880 C   0  0  0  0  0  0  0  0  0  0  0  0
   41.0700   34.2560   39.8040 N   0  0  0  0  0  0  0  0  0  0  0  0
   40.9690   33.1590   40.5630 C   0  0  0  0  0  0  0  0  0  0  0  0
   40.4040   32.8100   41.7870 C   0  0  0  0  0  0  0  0  0  0  0  0
   40.4890   31.5590   42.2800 N   0  0  0  0  0  0  0  0  0  0  0  0
   41.1360   30.6090   41.5820 C   0  0  0  0  0  0  0  0  0  0  0  0
   41.7050   30.9050   40.3770 N   0  0  0  0  0  0  0  0  0  0  0  0
   41.6240   32.1620   39.8730 C   0  0  0  0  0  0  0  0  0  0  0  0
   39.7240   33.8200   42.5160 N   0  0  0  0  0  0  0  0  0  0  0  0
   48.1839   32.4302   37.9723 H   0  0  0  0  0  0  0  0  0  0  0  0
   47.1553   30.9859   36.1566 H   0  0  0  0  0  0  0  0  0  0  0  0
   44.6641   30.8791   36.1154 H   0  0  0  0  0  0  0  0  0  0  0  0
   48.4490   36.0135   42.6398 H   0  0  0  0  0  0  0  0  0  0  0  0
   49.6213   35.6831   40.4540 H   0  0  0  0  0  0  0  0  0  0  0  0
   48.6341   34.2819   38.6626 H   0  0  0  0  0  0  0  0  0  0  0  0
   43.8056   36.8399   44.7737 H   0  0  0  0  0  0  0  0  0  0  0  0
   45.0473   36.6889   42.5987 H   0  0  0  0  0  0  0  0  0  0  0  0
   45.6519   33.3256   46.1678 H   0  0  0  0  0  0  0  0  0  0  0  0
   42.5541   32.4727   36.7063 H   0  0  0  0  0  0  0  0  0  0  0  0
   42.6486   30.9377   37.7076 H   0  0  0  0  0  0  0  0  0  0  0  0
   42.0019   34.6477   37.8772 H   0  0  0  0  0  0  0  0  0  0  0  0
   41.2071   29.5877   41.9843 H   0  0  0  0  0  0  0  0  0  0  0  0
   39.2939   33.5978   43.4251 H   0  0  0  0  0  0  0  0  0  0  0  0
   39.6606   34.7752   42.1360 H   0  0  0  0  0  0  0  0  0  0  0  0
  1 11  1  0
  2  1  2  0
  3  4  2  0
  3  2  1  0
  4  5  1  0
  5  6  2  0
  6  1  1  0
  7 15  1  0
  8  7  2  0
  9  8  1  0
 10 11  1  0
 10  9  2  0
 11 12  2  0
 12  7  1  0
 13 18  2  0
 14 13  1  0
 15 14  2  0
 15 16  1  0
 16 17  2  0
 17 18  1  0
 19  5  1  0
 19 20  1  0
 20 28  1  0
 21 20  1  0
 21 22  2  0
 22 23  1  0
 23 24  2  0
 24 25  1  0
 24 29  1  0
 26 25  2  0
 27 26  1  0
 28 27  2  0
 28 23  1  0
  2 30  1  0
  3 31  1  0
  4 32  1  0
  8 33  1  0
  9 34  1  0
 10 35  1  0
 13 36  1  0
 14 37  1  0
 17 38  1  0
 19 39  1  0
 19 40  1  0
 21 41  1  0
 26 42  1  0
 29 43  1  0
 29 44  1  0
M  END
>  <minimizedAffinity>  (1) 
-7.16991997

>  <minimizedRMSD>  (1) 
4.09494781

$$$$
