
     RDKit          3D

 16 16  0  0  1  0  0  0  0  0999 V2000
    1.9402    2.2482    2.2667 O   0  0  0  0  0  0  0  0  0  0  0  0
    1.0899    2.9006    1.3606 C   0  0  0  0  0  0  0  0  0  0  0  0
    1.4456    2.6723   -0.1091 C   0  0  1  0  0  0  0  0  0  0  0  0
    0.7990    3.7068   -0.8525 O   0  0  0  0  0  0  0  0  0  0  0  0
    0.6494    3.5565   -2.2635 C   0  0  2  0  0  0  0  0  0  0  0  0
   -0.3929    2.6596   -2.6285 O   0  0  0  0  0  0  0  0  0  0  0  0
   -0.5715    1.3684   -1.4909 P   0  0  0  0  0  0  0  0  0  0  0  0
   -1.9620    2.1207   -1.0815 O   0  0  0  0  0  0  0  0  0  0  0  0
   -1.1670    0.5278   -2.7541 O   0  0  0  0  0  0  0  0  0  0  0  0
   -0.7313    0.2129   -0.4728 O   0  0  0  0  0  0  0  0  0  0  0  0
    1.9891    3.1965   -2.9245 C   0  0  1  0  0  0  0  0  0  0  0  0
    2.9549    4.2497   -2.7821 O   0  0  0  0  0  0  0  0  0  0  0  0
    2.5532    1.9333   -2.2686 C   0  0  1  0  0  0  0  0  0  0  0  0
    3.7809    1.5575   -2.8886 O   0  0  0  0  0  0  0  0  0  0  0  0
    2.7366    2.1106   -0.7240 C   0  0  2  0  0  0  0  0  0  0  0  0
    3.0136    0.8265   -0.1373 O   0  0  0  0  0  0  0  0  0  0  0  0
  1  2  1  0
  3  4  1  0
  3  2  1  1
  5  4  1  0
  5  6  1  1
  6  7  1  0
  7  8  1  0
  7  9  1  0
  7 10  2  0
 11  5  1  0
 11 12  1  1
 11 13  1  0
 13 14  1  6
 13 15  1  0
 15  3  1  0
 15 16  1  1
M  END
>  <DRUGBANK_ID>  (1) 
DB17678

>  <COMMON_NAME>  (1) 
Alpha-D-mannose 1-phosphate

>  <CAS_NUMBER>  (1) 
15978-07-1

>  <UNII>  (1) 
KT83C2DH0W

>  <SYNONYMS>  (1) 
.alpha.-d-mannopyranose, 1-(dihydrogen phosphate); .alpha.-d-mannose 1-phosphate; Mannopyranose, 1-(dihydrogen phosphate), .alpha.-d-; Mannose 1-phosphate, .alpha.-d-

$$$$
