
     RDKit          3D

 36 40  0  0  0  0  0  0  0  0999 V2000
    0.9210    0.0897    0.0596 C   0  0  0  0  0  0  0  0  0  0  0  0
    0.1243   -2.9971    9.1004 C   0  0  0  0  0  0  0  0  0  0  0  0
    2.9049   -4.0767   -6.3343 C   0  0  0  0  0  0  0  0  0  0  0  0
   -0.1326   -4.0846    8.2712 C   0  0  0  0  0  0  0  0  0  0  0  0
    0.3853   -1.7463    8.5447 C   0  0  0  0  0  0  0  0  0  0  0  0
    3.7186   -4.0469   -5.2067 C   0  0  0  0  0  0  0  0  0  0  0  0
    2.3755   -2.8940   -6.8390 C   0  0  0  0  0  0  0  0  0  0  0  0
   -0.1138   -3.9198    6.8845 C   0  0  0  0  0  0  0  0  0  0  0  0
    0.3565   -1.5716    7.1598 C   0  0  0  0  0  0  0  0  0  0  0  0
    4.0146   -2.8257   -4.5962 C   0  0  0  0  0  0  0  0  0  0  0  0
    2.7499   -1.6682   -6.2911 C   0  0  0  0  0  0  0  0  0  0  0  0
   -0.7779   -2.8824    4.0017 C   0  0  0  0  0  0  0  0  0  0  0  0
    1.5072   -2.1430    4.2852 C   0  0  0  0  0  0  0  0  0  0  0  0
   -0.5883   -2.9635    2.6276 C   0  0  0  0  0  0  0  0  0  0  0  0
    1.7206   -2.2600    2.9129 C   0  0  0  0  0  0  0  0  0  0  0  0
   -0.5959   -1.2826   -3.2269 C   0  0  0  0  0  0  0  0  0  0  0  0
    0.7043   -2.0447   -3.1233 C   0  0  0  0  0  0  0  0  0  0  0  0
    0.0269    1.0912   -2.6133 C   0  0  0  0  0  0  0  0  0  0  0  0
    2.1763   -0.1809   -2.3841 C   0  0  0  0  0  0  0  0  0  0  0  0
   -0.1945   -2.1096   -0.2534 C   0  0  0  0  0  0  0  0  0  0  0  0
    5.4022    0.2021   -4.4845 C   0  0  0  0  0  0  0  0  0  0  0  0
    0.1442   -2.6611    6.3079 C   0  0  0  0  0  0  0  0  0  0  0  0
    0.2777   -2.5252    4.8530 C   0  0  0  0  0  0  0  0  0  0  0  0
    3.5899   -1.6031   -5.1717 C   0  0  0  0  0  0  0  0  0  0  0  0
    0.6658   -2.6832    2.0991 C   0  0  0  0  0  0  0  0  0  0  0  0
   -0.5628   -0.2540   -2.0803 C   0  0  2  0  0  0  0  0  0  0  0  0
    1.4431   -1.3873   -1.9389 C   0  0  1  0  0  0  0  0  0  0  0  0
    1.5631    1.1202   -2.7376 C   0  0  1  0  0  0  0  0  0  0  0  0
    3.9561   -0.2538   -4.5210 C   0  0  2  0  0  0  0  0  0  0  0  0
    0.8740   -2.7779    0.6455 C   0  0  0  0  0  0  0  0  0  0  0  0
    2.9949    0.9410   -4.9182 C   0  0  0  0  0  0  0  0  0  0  0  0
    0.3892   -0.8896   -1.0120 N   0  0  1  0  0  0  0  0  0  0  0  0
    6.3066   -0.7489   -5.0049 O   0  0  0  0  0  0  0  0  0  0  0  0
    1.9225   -3.2286    0.2338 O   0  0  0  0  0  0  0  0  0  0  0  0
    3.0523    1.4066   -6.0542 O   0  0  0  0  0  0  0  0  0  0  0  0
    2.0243    1.4648   -4.0922 O   0  0  0  0  0  0  0  0  0  0  0  0
  4  2  2  0
  5  2  1  0
  6  3  2  0
  7  3  1  0
  8  4  1  0
  9  5  2  0
 10  6  1  0
 11  7  2  0
 14 12  2  0
 15 13  1  0
 17 16  1  0
 22  8  2  0
 22  9  1  0
 23 12  1  0
 23 13  2  0
 23 22  1  0
 24 10  2  0
 24 11  1  0
 25 14  1  0
 25 15  2  0
 26 16  1  6
 26 18  1  0
 27 17  1  6
 27 19  1  0
 28 18  1  0
 28 19  1  0
 28 36  1  6
 29 31  1  0
 29 24  1  0
 29 21  1  6
 30 20  1  0
 30 25  1  0
 32  1  1  1
 32 20  1  0
 32 26  1  0
 32 27  1  0
 33 21  1  0
 34 30  2  0
 35 31  2  0
 36 31  1  0
M  CHG  1  32   1
M  END
>  <DRUGBANK_ID>  (1) 
DB08978

>  <COMMON_NAME>  (1) 
Fentonium

>  <CAS_NUMBER>  (1) 
34786-74-8

>  <UNII>  (1) 
26BF4S8FO5

$$$$
