
     RDKit          3D

 28 27  0  0  1  0  0  0  0  0999 V2000
   -1.5199   -2.1310   -0.6233 C   0  0  0  0  0  0  0  0  0  0  0  0
    0.6917   -2.2236   -0.0148 S   0  0  0  0  0  0  0  0  0  0  0  0
    1.2607   -3.2739   -0.8901 O   0  0  0  0  0  0  0  0  0  0  0  0
    1.4790   -1.0505    0.0270 O   0  0  0  0  0  0  0  0  0  0  0  0
    0.4309   -2.5879    1.5952 O   0  0  0  0  0  0  0  0  0  0  0  0
    1.0204   -3.3686    2.6250 C   0  0  0  0  0  0  0  0  0  0  0  0
    1.1545   -4.8321    2.1871 C   0  0  2  0  0  0  0  0  0  0  0  0
    0.6077   -4.8162    0.8111 C   0  0  2  0  0  0  0  0  0  0  0  0
   -1.0666   -4.0835    0.6664 C   0  0  1  0  0  0  0  0  0  0  0  0
   -1.7902   -2.4292    1.4265 C   0  0  1  0  0  0  0  0  0  0  0  0
   -0.9303   -0.7249    0.9393 C   0  0  0  0  0  0  0  0  0  0  0  0
   -0.5985   -0.3498   -0.8904 O   0  0  0  0  0  0  0  0  0  0  0  0
   -0.1118   -1.5612   -2.4947 S   0  0  0  0  0  0  0  0  0  0  0  0
    1.2316   -1.3402   -2.9277 O   0  0  0  0  0  0  0  0  0  0  0  0
   -0.5155   -2.9876   -2.3492 O   0  0  0  0  0  0  0  0  0  0  0  0
   -1.2601   -1.3244   -3.7840 C   0  0  0  0  0  0  0  0  0  0  0  0
   -3.4411   -2.3433    1.0911 O   0  0  0  0  0  0  0  0  0  0  0  0
   -4.1445   -1.9831   -0.4825 S   0  0  0  0  0  0  0  0  0  0  0  0
   -3.8253   -0.6220   -0.8970 O   0  0  0  0  0  0  0  0  0  0  0  0
   -4.0001   -3.0901   -1.4138 O   0  0  0  0  0  0  0  0  0  0  0  0
   -5.8097   -1.8938   -0.1820 C   0  0  0  0  0  0  0  0  0  0  0  0
   -1.4286   -4.6389   -0.6728 O   0  0  0  0  0  0  0  0  0  0  0  0
    0.8097   -6.0084    0.0653 O   0  0  0  0  0  0  0  0  0  0  0  0
    0.4633   -5.9179    2.8349 O   0  0  0  0  0  0  0  0  0  0  0  0
   -1.1484   -6.0838    2.5539 S   0  0  0  0  0  0  0  0  0  0  0  0
   -1.7828   -4.9636    3.2224 O   0  0  0  0  0  0  0  0  0  0  0  0
   -1.4207   -6.4875    1.1822 O   0  0  0  0  0  0  0  0  0  0  0  0
   -1.6548   -7.5217    3.2911 C   0  0  0  0  0  0  0  0  0  0  0  0
  1  2  1  0
  2  3  2  0
  2  4  2  0
  2  5  1  0
  5  6  1  0
  7 24  1  0
  7  8  1  0
  7  6  1  1
  8 23  1  1
  8  9  1  0
  9 10  1  0
  9 22  1  6
 10 11  1  6
 10 17  1  0
 11 12  1  0
 12 13  1  0
 13 14  2  0
 13 15  2  0
 13 16  1  0
 17 18  1  0
 18 19  2  0
 18 20  2  0
 18 21  1  0
 24 25  1  0
 25 26  2  0
 25 27  2  0
 25 28  1  0
M  END
>  <DRUGBANK_ID>  (1) 
DB13334

>  <COMMON_NAME>  (1) 
Mannosulfan

>  <CAS_NUMBER>  (1) 
7518-35-6

>  <UNII>  (1) 
135FQ40L36

>  <SYNONYMS>  (1) 
Mannosulfan

$$$$
