GNR
     RDKit          3D

 16 17  0  0  0  0  0  0  0  0999 V2000
    3.0752    1.1915   -0.1103 O   0  0  0  0  0  0  0  0  0  0  0  0
    1.9742    0.6785    0.0761 C   0  0  0  0  0  0  0  0  0  0  0  0
    0.8154    1.3778   -0.1936 N   0  0  0  0  0  0  0  0  0  0  0  0
   -0.4850    0.8342   -0.1501 C   0  0  0  0  0  0  0  0  0  0  0  0
   -1.5743    1.6914   -0.0235 C   0  0  0  0  0  0  0  0  0  0  0  0
   -2.8651    1.1627    0.0722 C   0  0  0  0  0  0  0  0  0  0  0  0
   -3.0699   -0.2186    0.0537 C   0  0  0  0  0  0  0  0  0  0  0  0
   -1.9845   -1.0820   -0.0789 C   0  0  0  0  0  0  0  0  0  0  0  0
   -0.6986   -0.5538   -0.2131 C   0  0  0  0  0  0  0  0  0  0  0  0
    0.6993   -1.6399   -0.4222 S   0  0  0  0  0  0  0  0  0  0  0  0
    1.8144   -0.7068    0.7002 C   0  0  2  0  0  0  0  0  0  0  0  0
    1.2845   -0.5977    2.1427 C   0  0  0  0  0  0  0  0  0  0  0  0
    1.6878   -1.7586    3.0199 C   0  0  0  0  0  0  0  0  0  0  0  0
    2.4172   -1.5730    4.0008 O   0  0  0  0  0  0  0  0  0  0  0  0
    1.2420   -3.0090    2.7544 N   0  0  0  0  0  0  0  0  0  0  0  0
    0.2237   -3.3574    1.8640 O   0  0  0  0  0  0  0  0  0  0  0  0
  1  2  2  0
  2  3  1  0
  2 11  1  0
  3  4  1  0
  4  5  1  0
  4  9  2  0
  5  6  2  0
  6  7  1  0
  7  8  2  0
  8  9  1  0
  9 10  1  0
 10 11  1  0
 11 12  1  1
 12 13  1  0
 13 14  2  0
 13 15  1  0
 15 16  1  0
M  END
>  <DRUGBANK_ID>  (1) 
DB02036

>  <SECONDARY_ACCESSION_NUMBERS>  (1) 
EXPT01627

>  <COMMON_NAME>  (1) 
2-(3,4-Dihydro-3-Oxo-2h-Benzo[B][1,4]Thiazin-2-Yl)-N-Hydroxyacetamide

$$$$
