
     RDKit          3D

 29 32  0  0  0  0  0  0  0  0999 V2000
   -3.2700    0.3161   -1.6159 C   0  0  0  0  0  0  0  0  0  0  0  0
   -2.0790   -0.8509   -1.2442 C   0  0  0  0  0  0  0  0  0  0  0  0
   -2.2941   -1.9357   -0.0742 C   0  0  0  0  0  0  0  0  0  0  0  0
   -1.6296   -3.1076    0.4678 C   0  0  0  0  0  0  0  0  0  0  0  0
   -2.6951   -2.3879    2.4625 C   0  0  0  0  0  0  0  0  0  0  0  0
   -3.7684   -1.5430    1.8727 C   0  0  0  0  0  0  0  0  0  0  0  0
   -7.3859   -0.0120   -0.1995 C   0  0  0  0  0  0  0  0  0  0  0  0
   -7.0947    3.0702   -1.2833 C   0  0  0  0  0  0  0  0  0  0  0  0
   -5.8339    2.1600   -1.0439 C   0  0  0  0  0  0  0  0  0  0  0  0
   -4.9129   -0.6601   -0.1230 C   0  0  1  0  0  0  0  0  0  0  0  0
   -5.8570    0.8253   -1.8879 C   0  0  1  0  0  0  0  0  0  0  0  0
   -4.7499   -0.1421   -1.5018 C   0  0  1  0  0  0  0  0  0  0  0  0
   -7.3689    0.5918   -1.8667 C   0  0  2  0  0  0  0  0  0  0  0  0
   -7.5281    2.3452   -2.5543 C   0  0  1  0  0  0  0  0  0  0  0  0
   -2.7321   -3.4674    1.4750 C   0  0  0  0  0  0  0  0  0  0  0  0
   -3.6028   -4.3583    1.2860 O   0  0  0  0  0  0  0  0  0  0  0  0
   -6.3926   -1.2848   -0.0162 C   0  0  1  0  0  0  0  0  0  0  0  0
   -7.1756   -2.2041    0.7890 O   0  0  0  0  0  0  0  0  0  0  0  0
   -7.9898    3.6164   -3.6419 C   0  0  0  0  0  0  0  0  0  0  0  0
   -7.2684    4.6495   -3.7474 O   0  0  0  0  0  0  0  0  0  0  0  0
   -9.2432    3.6650   -4.5051 C   0  0  0  0  0  0  0  0  0  0  0  0
  -10.0506    4.8706   -4.3824 O   0  0  0  0  0  0  0  0  0  0  0  0
   -6.1942    2.6330   -3.4827 O   0  0  0  0  0  0  0  0  0  0  0  0
   -8.1185   -0.7287   -2.3941 C   0  0  0  0  0  0  0  0  0  0  0  0
   -3.7900   -1.6974    0.2553 C   0  0  1  0  0  0  0  0  0  0  0  0
   -4.1284   -2.8399   -0.7970 C   0  0  0  0  0  0  0  0  0  0  0  0
  -10.3468    5.2252   -3.1049 C   0  0  0  0  0  0  0  0  0  0  0  0
   -9.9636    4.5977   -2.1256 O   0  0  0  0  0  0  0  0  0  0  0  0
  -11.2578    6.4156   -2.9950 C   0  0  0  0  0  0  0  0  0  0  0  0
  1  2  1  0
  2  3  1  0
  3  4  2  0
  3 25  1  0
  4 15  1  0
  5  6  1  0
  6 25  1  0
  7 13  1  0
  8  9  1  0
 11  9  1  1
 10 17  1  6
 12  1  1  1
 12 10  1  0
 12 11  1  0
 13 14  1  0
 13 11  1  0
 13 24  1  6
 14  8  1  0
 14 19  1  0
 14 23  1  6
 15  5  1  0
 15 16  2  0
 17  7  1  0
 17 18  1  1
 19 21  1  0
 19 20  2  0
 21 22  1  0
 22 27  1  0
 25 10  1  0
 25 26  1  1
 27 28  2  0
 27 29  1  0
M  END
>  <DRUGBANK_ID>  (1) 
DB14539

>  <SECONDARY_ACCESSION_NUMBERS>  (1) 
DBSALT000369

>  <COMMON_NAME>  (1) 
Hydrocortisone acetate

>  <CAS_NUMBER>  (1) 
50-03-3

>  <UNII>  (1) 
3X7931PO74

>  <SYNONYMS>  (1) 
21-O-acetylcortisol; Cortisol 21-acetate; Hydrocortisone 21-acetate; Hydrocortisone acetate

$$$$
