
     RDKit          3D

 22 25  0  0  0  0  0  0  0  0999 V2000
    5.9045    3.9239    3.3888 N   0  0  0  0  0  0  0  0  0  0  0  0
    5.4084    4.5403    2.3131 C   0  0  0  0  0  0  0  0  0  0  0  0
    4.6548    2.0004    2.7282 C   0  0  0  0  0  0  0  0  0  0  0  0
    4.2863    2.7217    1.6151 C   0  0  0  0  0  0  0  0  0  0  0  0
    5.5543    2.6343    3.6046 C   0  0  0  0  0  0  0  0  0  0  0  0
    4.6631    3.9820    1.3589 N   0  0  0  0  0  0  0  0  0  0  0  0
    2.1975    2.4659    0.1857 C   0  0  2  0  0  0  0  0  0  0  0  0
    2.5387    2.8756   -1.1802 O   0  0  0  0  0  0  0  0  0  0  0  0
    2.0603    4.2298   -1.3068 C   0  0  1  0  0  0  0  0  0  0  0  0
    2.2997    4.7238    0.0828 C   0  0  2  0  0  0  0  0  0  0  0  0
    1.6834    3.6763    0.9529 C   0  0  1  0  0  0  0  0  0  0  0  0
    0.2616    3.6779    1.0194 O   0  0  0  0  0  0  0  0  0  0  0  0
    1.9884    5.9998    0.4422 O   0  0  0  0  0  0  0  0  0  0  0  0
    2.8983    5.0733   -2.2411 C   0  0  0  0  0  0  0  0  0  0  0  0
    2.5708    6.4120   -2.0901 O   0  0  0  0  0  0  0  0  0  0  0  0
    0.7767    7.6902   -1.0159 O   0  0  0  0  0  0  0  0  0  0  0  0
    2.1050    7.0630   -0.7168 P   0  0  1  0  0  0  0  0  0  0  0  0
    3.5298    7.7425   -0.4770 O   0  0  0  0  0  0  0  0  0  0  0  0
    3.3330    1.9498    0.9612 N   0  0  0  0  0  0  0  0  0  0  0  0
    3.1856    0.8090    1.7233 C   0  0  0  0  0  0  0  0  0  0  0  0
    3.9973    0.7887    2.7587 N   0  0  0  0  0  0  0  0  0  0  0  0
    6.0678    2.0124    4.7242 N   0  0  0  0  0  0  0  0  0  0  0  0
  1  2  2  0
  3 21  1  0
  3  4  1  0
  3  5  2  0
  4 19  1  0
  4  6  2  0
  5  1  1  0
  6  2  1  0
  7 11  1  0
  7 19  1  1
  8  7  1  0
  9  8  1  0
  9 14  1  6
  9 10  1  0
 10 13  1  6
 10 11  1  0
 11 12  1  6
 13 17  1  0
 15 14  1  0
 17 15  1  0
 17 16  2  0
 17 18  1  1
 20 19  1  0
 21 20  2  0
 22  5  1  0
M  END
>  <DRUGBANK_ID>  (1) 
DB02527

>  <SECONDARY_ACCESSION_NUMBERS>  (1) 
EXPT00959

>  <COMMON_NAME>  (1) 
Cyclic adenosine monophosphate

>  <CAS_NUMBER>  (1) 
60-92-4

>  <UNII>  (1) 
E0399OZS9N

>  <SYNONYMS>  (1) 
3',5'-cyclic AMP; Adenosine 3',5'-cyclic monophosphate; Adenosine 3',5'-cyclic phosphate; Adenosine 3',5'-phosphate; AMPC; cAMP; Cyclic adenylic acid; Cyclic AMP

$$$$
