
     RDKit          3D

  9  9  0  0  0  0  0  0  0  0999 V2000
   -0.1249    0.8938    0.1970 N   0  0  0  0  0  0  0  0  0  0  0  0
    0.6991   -0.2975    0.3020 C   0  0  0  0  0  0  0  0  0  0  0  0
   -0.8099   -0.3939    0.1936 C   0  0  0  0  0  0  0  0  0  0  0  0
   -0.1126    1.6006   -1.1076 C   0  0  0  0  0  0  0  0  0  0  0  0
   -0.1468   -0.2472   -2.8388 N   0  0  0  0  0  0  0  0  0  0  0  0
    1.9721   -2.3945   -2.4256 N   0  0  0  0  0  0  0  0  0  0  0  0
    0.5142    0.9873   -2.3987 C   0  0  0  0  0  0  0  0  0  0  0  0
    0.5291   -0.9659   -3.9187 C   0  0  0  0  0  0  0  0  0  0  0  0
    1.9448   -1.4627   -3.5565 C   0  0  0  0  0  0  0  0  0  0  0  0
  2  1  1  0
  3  1  1  0
  3  2  1  0
  4  1  1  0
  5  7  1  0
  6  9  1  0
  7  4  1  0
  8  5  1  0
  9  8  1  0
M  END
>  <DRUGBANK_ID>  (1) 
DB15643

>  <COMMON_NAME>  (1) 
N-(2-Aminoethyl)-1-aziridineethanamine

>  <CAS_NUMBER>  (1) 
23435-23-6

>  <UNII>  (1) 
K93WMR7E2S

>  <SYNONYMS>  (1) 
N-(2-((2-Aminoethyl)amino)ethyl)aziridine; N-(2-aminoethyl)-1 aziridine-ethanamine

$$$$
