
     RDKit          3D

 39 41  0  0  0  0  0  0  0  0999 V2000
    0.8791   -0.7457    2.0591 O   0  0  0  0  0  0  0  0  0  0  0  0
    0.0424    0.1701    1.2696 C   0  0  2  0  0  0  0  0  0  0  0  0
    0.2252   -1.1720   -0.7673 C   0  0  0  0  0  0  0  0  0  0  0  0
    0.2470    0.1917   -0.2915 C   0  0  0  0  0  0  0  0  0  0  0  0
    0.8338   -1.5471   -1.9579 C   0  0  0  0  0  0  0  0  0  0  0  0
    1.4881   -0.5682   -2.7186 C   0  0  0  0  0  0  0  0  0  0  0  0
    1.5001    0.8426   -2.3637 C   0  0  0  0  0  0  0  0  0  0  0  0
    2.2926    1.7097   -3.2942 C   0  0  0  0  0  0  0  0  0  0  0  0
    1.9413    1.7821   -4.6254 C   0  0  0  0  0  0  0  0  0  0  0  0
    3.0161    2.7833   -5.4881 S   0  0  0  0  0  0  0  0  0  0  0  0
    3.4743    2.4248   -3.0093 N   0  0  0  0  0  0  0  0  0  0  0  0
    0.8743    1.2899   -1.1088 C   0  0  0  0  0  0  0  0  0  0  0  0
    5.0983    1.4381    0.0953 C   0  0  0  0  0  0  0  0  0  0  0  0
    3.6373    1.2937    0.1384 C   0  0  0  0  0  0  0  0  0  0  0  0
    3.1937   -0.1379    0.0055 C   0  0  0  0  0  0  0  0  0  0  0  0
    3.1965   -1.0711    1.1650 C   0  0  0  0  0  0  0  0  0  0  0  0
    2.3061   -0.5361    2.2961 C   0  0  0  0  0  0  0  0  0  0  0  0
    8.0729    5.0507   -4.5867 C   0  0  0  0  0  0  0  0  0  0  0  0
    9.0526    6.0915   -4.5313 C   0  0  0  0  0  0  0  0  0  0  0  0
    6.8172    5.3093   -5.1039 C   0  0  0  0  0  0  0  0  0  0  0  0
    5.6193    4.4370   -5.2291 C   0  0  0  0  0  0  0  0  0  0  0  0
    5.1966    3.7031   -4.1351 N   0  0  0  0  0  0  0  0  0  0  0  0
    5.0146    4.5678   -6.2931 O   0  0  0  0  0  0  0  0  0  0  0  0
    6.5925    6.5636   -5.6216 C   0  0  0  0  0  0  0  0  0  0  0  0
    7.4760    7.6269   -5.4743 C   0  0  0  0  0  0  0  0  0  0  0  0
    8.8007    7.4442   -4.9601 C   0  0  0  0  0  0  0  0  0  0  0  0
    9.9992    9.7756   -5.2120 C   0  0  0  0  0  0  0  0  0  0  0  0
    9.9513    8.4664   -4.8563 C   0  0  0  0  0  0  0  0  0  0  0  0
    3.9811    2.9998   -4.0897 C   0  0  0  0  0  0  0  0  0  0  0  0
    1.1763    2.6413   -0.7641 O   0  0  0  0  0  0  0  0  0  0  0  0
    1.4694    3.4621    0.4500 C   0  0  0  0  0  0  0  0  0  0  0  0
    5.5344    0.9430   -1.2608 C   0  0  0  0  0  0  0  0  0  0  0  0
   11.2240   10.6223   -5.0489 C   0  0  0  0  0  0  0  0  0  0  0  0
    8.8043   10.4097   -5.7599 C   0  0  0  0  0  0  0  0  0  0  0  0
   11.0712   11.9187   -5.4388 O   0  0  0  0  0  0  0  0  0  0  0  0
   12.2610   10.2196   -4.6111 O   0  0  0  0  0  0  0  0  0  0  0  0
    6.4855    9.0058   -5.8956 Cl  0  0  0  0  0  0  0  0  0  0  0  0
   10.5769    5.5793   -3.8498 Cl  0  0  0  0  0  0  0  0  0  0  0  0
    0.2678    1.5336    1.7264 C   0  0  0  0  0  0  0  0  0  0  0  0
  2 39  1  1
  2  4  1  0
  2  1  1  0
  3  4  2  0
  3  5  1  0
  4 12  1  0
  5  6  2  0
  6  7  1  0
  7  8  1  0
  8  9  2  0
  8 11  1  0
  9 10  1  0
 11 29  2  0
 12  7  2  0
 12 30  1  0
 13 14  1  0
 13 32  1  0
 14 15  1  0
 16 17  1  0
 16 15  1  0
 17  1  1  0
 18 19  2  0
 19 26  1  0
 19 38  1  0
 20 18  1  0
 20 24  2  0
 21 20  1  0
 21 22  1  0
 23 21  2  0
 24 25  1  0
 25 37  1  0
 26 25  2  0
 26 28  1  0
 27 33  1  0
 27 34  1  0
 28 27  2  0
 29 10  1  0
 29 22  1  0
 30 31  1  0
 33 35  1  0
 33 36  2  0
M  END
>  <DRUGBANK_ID>  (1) 
DB13125

>  <COMMON_NAME>  (1) 
Lusutrombopag

>  <CAS_NUMBER>  (1) 
1110766-97-6

>  <UNII>  (1) 
6LL5JFU42F

>  <SYNONYMS>  (1) 
Lusutrombopag

$$$$
