DPK
     RDKit          3D

 14 14  0  0  0  0  0  0  0  0999 V2000
    1.0223   -0.1960   -2.6453 C   0  0  0  0  0  0  0  0  0  0  0  0
    0.3373   -0.5020   -1.5510 C   0  0  0  0  0  0  0  0  0  0  0  0
   -1.1498   -0.7274   -1.4018 C   0  0  0  0  0  0  0  0  0  0  0  0
   -1.6102   -2.1177   -1.1662 N   0  0  0  0  0  0  0  0  0  0  0  0
   -3.0865   -2.1739   -1.2455 C   0  0  0  0  0  0  0  0  0  0  0  0
   -1.1741   -2.7247    0.1226 C   0  0  2  0  0  0  0  0  0  0  0  0
   -1.7342   -1.9567    1.3436 C   0  0  0  0  0  0  0  0  0  0  0  0
    0.3614   -2.9236    0.1777 C   0  0  0  0  0  0  0  0  0  0  0  0
    0.8686   -3.5129    1.4517 C   0  0  0  0  0  0  0  0  0  0  0  0
    1.2484   -2.6388    2.4894 C   0  0  0  0  0  0  0  0  0  0  0  0
    1.4508   -3.1262    3.7641 C   0  0  0  0  0  0  0  0  0  0  0  0
    1.3182   -4.4927    3.9848 C   0  0  0  0  0  0  0  0  0  0  0  0
    1.0147   -5.3662    2.9326 C   0  0  0  0  0  0  0  0  0  0  0  0
    0.8300   -4.8828    1.6478 C   0  0  0  0  0  0  0  0  0  0  0  0
  1  2  2  0
  2  3  1  0
  3  4  1  0
  4  5  1  0
  6  8  1  0
  6  7  1  1
  6  4  1  0
  8  9  1  0
  9 10  2  0
  9 14  1  0
 10 11  1  0
 11 12  2  0
 12 13  1  0
 13 14  2  0
M  END
>  <DRUGBANK_ID>  (1) 
DB04677

>  <COMMON_NAME>  (1) 
N-METHYL-N-[(1R)-1-METHYL-2-PHENYLETHYL]PROP-2-EN-1-AMINE

$$$$
