
     RDKit          3D

 15 17  0  0  0  0  0  0  0  0999 V2000
    2.4996   -0.6244   -0.3148 C   0  0  0  0  0  0  0  0  0  0  0  0
    2.4383    0.7280    0.3882 C   0  0  0  0  0  0  0  0  0  0  0  0
    1.2065    1.5506   -0.0435 C   0  0  0  0  0  0  0  0  0  0  0  0
    1.0645    2.7575    0.9038 C   0  0  0  0  0  0  0  0  0  0  0  0
    0.0575    2.8793    1.7334 N   0  0  0  0  0  0  0  0  0  0  0  0
    0.2441    4.1953    2.3856 C   0  0  0  0  0  0  0  0  0  0  0  0
    1.7256    4.5118    2.1984 C   0  0  0  0  0  0  0  0  0  0  0  0
    1.9826    3.7847    0.9743 N   0  0  0  0  0  0  0  0  0  0  0  0
   -0.0660    0.6983   -0.1009 C   0  0  0  0  0  0  0  0  0  0  0  0
   -1.3284    1.3212   -0.1813 C   0  0  0  0  0  0  0  0  0  0  0  0
   -2.5097    0.5905   -0.0768 C   0  0  0  0  0  0  0  0  0  0  0  0
   -2.4543   -0.7914    0.0273 C   0  0  0  0  0  0  0  0  0  0  0  0
   -1.2185   -1.4357    0.0244 C   0  0  0  0  0  0  0  0  0  0  0  0
   -0.0191   -0.7056   -0.0436 C   0  0  0  0  0  0  0  0  0  0  0  0
    1.2788   -1.4640    0.0388 C   0  0  0  0  0  0  0  0  0  0  0  0
  1  2  1  0
  1 15  1  0
  2  3  1  0
  3  4  1  0
  3  9  1  0
  4  5  2  0
  4  8  1  0
  5  6  1  0
  6  7  1  0
  7  8  1  0
  9 10  1  0
  9 14  2  0
 10 11  2  0
 11 12  1  0
 12 13  2  0
 13 14  1  0
 14 15  1  0
M  END
>  <DRUGBANK_ID>  (1) 
DB06764

>  <COMMON_NAME>  (1) 
Tetryzoline

>  <CAS_NUMBER>  (1) 
84-22-0

>  <UNII>  (1) 
S9U025Y077

>  <SYNONYMS>  (1) 
(RS)-2-(1,2,3,4-tetrahydronaphthalen-1-yl)-4,5-dihydro-1H-imidazole; 2-(1,2,3,4-Tetrahydro-1-naphthyl)-2-imidazoline; 2-Tetralin-1-yl-4,5-dihydro-1H-imidazole; 4,5-dihydro-2-(1,2,3,4-tetrahydro-1-naphthalenyl)-1H-imidazole; Tetrahydrozoline; Tetrizolina; Tetryzolin; Tetryzolina; TÃ©tryzoline; Tetryzoline; Tetryzolinum

$$$$
