BHY
     RDKit          3D

 28 29  0  0  0  0  0  0  0  0999 V2000
    0.8852   -0.1904    0.0324 N   0  0  0  0  0  0  0  0  0  0  0  0
    3.1555   -1.9280    2.4099 C   0  0  0  0  0  0  0  0  0  0  0  0
   11.1987    1.2095    2.0981 N   0  0  0  0  0  0  0  0  0  0  0  0
    5.2374   -0.7031    2.3731 C   0  0  0  0  0  0  0  0  0  0  0  0
    0.9303   -2.7272    0.3263 O   0  0  0  0  0  0  0  0  0  0  0  0
    3.1624    0.4947    2.4141 C   0  0  0  0  0  0  0  0  0  0  0  0
    9.3771   -0.8752    3.2213 C   0  0  0  0  0  0  0  0  0  0  0  0
    2.4574   -0.7171    2.4606 C   0  0  0  0  0  0  0  0  0  0  0  0
   11.6711    1.1185   -0.3803 O   0  0  0  0  0  0  0  0  0  0  0  0
   11.8881    1.9773    0.7557 S   0  0  0  0  0  0  0  0  0  0  0  0
   11.4006    3.3437    0.7695 O   0  0  0  0  0  0  0  0  0  0  0  0
    0.2973   -1.7011   -0.4683 S   0  0  0  0  0  0  0  0  0  0  0  0
    4.5399   -1.9197    2.3329 C   0  0  0  0  0  0  0  0  0  0  0  0
   -1.1427   -1.5853   -0.5388 O   0  0  0  0  0  0  0  0  0  0  0  0
    4.5406    0.5021    2.3402 C   0  0  0  0  0  0  0  0  0  0  0  0
    8.5187   -0.2023    4.0936 C   0  0  0  0  0  0  0  0  0  0  0  0
    7.1698   -0.1170    3.7878 C   0  0  0  0  0  0  0  0  0  0  0  0
    6.6676   -0.6946    2.6078 C   0  0  0  0  0  0  0  0  0  0  0  0
    7.5304   -1.3385    1.7276 C   0  0  0  0  0  0  0  0  0  0  0  0
    8.8648   -1.4789    2.0614 C   0  0  0  0  0  0  0  0  0  0  0  0
   10.8651   -0.8627    3.4820 C   0  0  1  0  0  0  0  0  0  0  0  0
    0.9439   -0.7168    2.4877 C   0  0  2  0  0  0  0  0  0  0  0  0
    0.3903    0.2244    1.3956 C   0  0  0  0  0  0  0  0  0  0  0  0
    0.4325   -0.3964    3.8812 C   0  0  0  0  0  0  0  0  0  0  0  0
   11.3719   -2.2907    3.6891 C   0  0  0  0  0  0  0  0  0  0  0  0
   11.6150   -0.2022    2.3088 C   0  0  0  0  0  0  0  0  0  0  0  0
   13.6295    1.9895    1.1492 C   0  0  0  0  0  0  0  0  0  0  0  0
    0.9488   -1.8928   -2.1014 C   0  0  0  0  0  0  0  0  0  0  0  0
  1 12  1  0
  1 23  1  0
  2  8  2  0
  2 13  1  0
  3 10  1  0
  3 26  1  0
  4 13  2  0
  4 15  1  0
  4 18  1  0
  5 12  2  0
  6  8  1  0
  6 15  2  0
  7 16  2  0
  7 20  1  0
  7 21  1  0
  8 22  1  0
  9 10  2  0
 10 11  2  0
 10 27  1  0
 12 14  2  0
 12 28  1  0
 16 17  1  0
 17 18  2  0
 18 19  1  0
 19 20  2  0
 21 25  1  6
 21 26  1  0
 22 23  1  0
 22 24  1  1
M  END
>  <DRUGBANK_ID>  (1) 
DB07455

>  <COMMON_NAME>  (1) 
N,N'-[biphenyl-4,4'-diyldi(2R)propane-2,1-diyl]dimethanesulfonamide

$$$$
