
     RDKit          3D

 36 40  0  0  0  0  0  0  0  0999 V2000
    0.9484    0.0240   -0.1850 S   0  0  0  0  0  0  0  0  0  0  0  0
    0.7492   -3.3113    5.5057 O   0  0  0  0  0  0  0  0  0  0  0  0
    3.5558   -3.2900   -1.5403 O   0  0  0  0  0  0  0  0  0  0  0  0
    8.9838   -0.2157    3.5276 O   0  0  0  0  0  0  0  0  0  0  0  0
    6.1470   -3.3229    2.8256 N   0  0  0  0  0  0  0  0  0  0  0  0
    0.8986   -2.2801    3.5230 N   0  0  0  0  0  0  0  0  0  0  0  0
    6.9340   -3.9380    1.8841 N   0  0  0  0  0  0  0  0  0  0  0  0
    6.7989   -2.2061    3.3586 N   0  0  0  0  0  0  0  0  0  0  0  0
    8.8609   -3.0282    0.6641 N   0  0  0  0  0  0  0  0  0  0  0  0
    9.8948   -1.1044    1.6206 N   0  0  0  0  0  0  0  0  0  0  0  0
   10.7506   -2.0322   -0.2613 N   0  0  0  0  0  0  0  0  0  0  0  0
    0.4675   -2.4642    1.1157 C   0  0  0  0  0  0  0  0  0  0  0  0
    1.4191   -2.0723    2.2134 C   0  0  0  0  0  0  0  0  0  0  0  0
    5.0584   -3.9231    3.5201 C   0  0  0  0  0  0  0  0  0  0  0  0
    2.7186   -3.8129    4.2934 C   0  0  0  0  0  0  0  0  0  0  0  0
    3.8842   -3.1889    3.7891 C   0  0  0  0  0  0  0  0  0  0  0  0
    0.2062   -1.6064    0.0204 C   0  0  0  0  0  0  0  0  0  0  0  0
    1.4107   -3.1044    4.4923 C   0  0  0  0  0  0  0  0  0  0  0  0
    5.0626   -5.2843    3.8639 C   0  0  0  0  0  0  0  0  0  0  0  0
    7.9647   -3.0904    1.5829 C   0  0  0  0  0  0  0  0  0  0  0  0
    7.8721   -2.0540    2.6245 C   0  0  0  0  0  0  0  0  0  0  0  0
    2.7570   -5.1710    4.6217 C   0  0  0  0  0  0  0  0  0  0  0  0
    0.0982   -3.8324    1.0275 C   0  0  0  0  0  0  0  0  0  0  0  0
    3.9316   -5.8980    4.4258 C   0  0  0  0  0  0  0  0  0  0  0  0
    2.7668   -0.1116   -0.1643 C   0  0  0  0  0  0  0  0  0  0  0  0
   -0.5132   -2.1203   -1.0776 C   0  0  0  0  0  0  0  0  0  0  0  0
    3.5744   -1.2722   -0.2145 C   0  0  0  0  0  0  0  0  0  0  0  0
   -0.5889   -4.3254   -0.0794 C   0  0  0  0  0  0  0  0  0  0  0  0
   -0.9128   -3.4638   -1.1213 C   0  0  0  0  0  0  0  0  0  0  0  0
    8.9616   -1.0554    2.6274 C   0  0  0  0  0  0  0  0  0  0  0  0
    3.4407    1.1329   -0.1062 C   0  0  0  0  0  0  0  0  0  0  0  0
    4.9792   -1.1634   -0.1309 C   0  0  0  0  0  0  0  0  0  0  0  0
    3.0909   -2.6806   -0.3552 C   0  0  0  0  0  0  0  0  0  0  0  0
    4.8427    1.2191   -0.0848 C   0  0  0  0  0  0  0  0  0  0  0  0
    5.6126    0.0666   -0.0830 C   0  0  0  0  0  0  0  0  0  0  0  0
    9.8117   -2.0334    0.7132 C   0  0  0  0  0  0  0  0  0  0  0  0
  1 17  1  0
  1 25  1  0
  2 18  2  0
  3 33  1  0
  4 30  2  0
  5  7  1  0
  5  8  1  0
  5 14  1  0
  6 13  1  0
  6 18  1  0
  7 20  1  0
  8 21  2  0
  9 20  2  0
  9 36  1  0
 10 30  1  0
 10 36  2  0
 11 36  1  0
 12 13  1  0
 12 17  1  0
 12 23  2  0
 14 16  2  0
 14 19  1  0
 15 16  1  0
 15 18  1  0
 15 22  2  0
 17 26  2  0
 19 24  2  0
 20 21  1  0
 21 30  1  0
 22 24  1  0
 23 28  1  0
 25 27  2  0
 25 31  1  0
 26 29  1  0
 27 32  1  0
 27 33  1  0
 28 29  2  0
 31 34  2  0
 32 35  2  0
 34 35  1  0
M  END
>  <DRUGBANK_ID>  (1) 
DB03231

>  <SECONDARY_ACCESSION_NUMBERS>  (1) 
EXPT02670

>  <COMMON_NAME>  (1) 
3-(5-Amino-7-oxo-3,7-dihydro-2H-[1,2,3]triazolo[4,5-d]pyrimidin-2-yl)-N-(2-{[2-(hydroxymethyl)phenyl]sulfanyl}benzyl)benzamide

$$$$
