
     RDKit          3D

 28 30  0  0  1  0  0  0  0  0999 V2000
    1.2674   -1.0229    0.0407 N   0  0  0  0  0  0  0  0  0  0  0  0
   -0.0242   -0.6113   -0.0170 C   0  0  0  0  0  0  0  0  0  0  0  0
    1.7031   -2.5212    0.0606 C   0  0  2  0  0  0  0  0  0  0  0  0
    1.9390    0.2335    0.1785 C   0  0  0  0  0  0  0  0  0  0  0  0
   -0.0045    0.7664   -0.0213 C   0  0  0  0  0  0  0  0  0  0  0  0
   -1.0952   -1.4196   -0.0130 N   0  0  0  0  0  0  0  0  0  0  0  0
    2.5659   -2.7834    1.2923 O   0  0  0  0  0  0  0  0  0  0  0  0
    2.5030   -3.2003   -1.1861 C   0  0  1  0  0  0  0  0  0  0  0  0
    1.2078    1.3024    0.0558 N   0  0  0  0  0  0  0  0  0  0  0  0
   -1.2228    1.5064   -0.0229 C   0  0  0  0  0  0  0  0  0  0  0  0
   -2.2057   -0.7398   -0.0062 C   0  0  0  0  0  0  0  0  0  0  0  0
    3.8028   -3.5150    0.9367 C   0  0  1  0  0  0  0  0  0  0  0  0
    3.5439   -4.1330   -0.4873 C   0  0  1  0  0  0  0  0  0  0  0  0
    1.7672   -3.7460   -2.2664 O   0  0  0  0  0  0  0  0  0  0  0  0
   -2.2965    0.6378   -0.0170 N   0  0  0  0  0  0  0  0  0  0  0  0
   -1.3158    2.7090   -0.0038 O   0  0  0  0  0  0  0  0  0  0  0  0
   -3.3683   -1.4055    0.0157 N   0  0  0  0  0  0  0  0  0  0  0  0
    5.1277   -2.6093    1.2417 C   0  0  0  0  0  0  0  0  0  0  0  0
    3.0024   -5.4530   -0.4089 O   0  0  0  0  0  0  0  0  0  0  0  0
    5.1851   -1.1835    0.7032 O   0  0  0  0  0  0  0  0  0  0  0  0
    4.7256   -1.1117   -0.9631 P   0  0  2  0  0  0  0  0  0  0  0  0
    5.4000   -2.6845   -1.2170 O   0  0  0  0  0  0  0  0  0  0  0  0
    3.4389   -1.3510   -0.2259 O   0  0  0  0  0  0  0  0  0  0  0  0
    4.3143   -1.0474   -2.4545 O   0  0  0  0  0  0  0  0  0  0  0  0
    7.0630   -2.5327   -1.6690 P   0  0  0  0  0  0  0  0  0  0  0  0
    7.3924   -2.0027   -0.1653 O   0  0  0  0  0  0  0  0  0  0  0  0
    7.1210   -4.1375   -1.3443 O   0  0  0  0  0  0  0  0  0  0  0  0
    8.5514   -2.3969   -2.0736 O   0  0  0  0  0  0  0  0  0  0  0  0
  1  2  1  0
  1  4  1  0
  2  5  2  0
  2  6  1  0
  3  1  1  6
  3  7  1  0
  3  8  1  0
  4  9  2  0
  5 10  1  0
  5  9  1  0
  6 11  2  0
  7 12  1  0
  8 13  1  0
  8 14  1  6
 10 15  1  0
 10 16  2  0
 11 17  1  0
 11 15  1  0
 12 13  1  0
 12 18  1  6
 13 19  1  1
 18 20  1  0
 20 21  1  0
 21 22  1  0
 21 23  1  1
 21 24  2  0
 22 25  1  0
 25 26  1  0
 25 27  1  0
 25 28  2  0
M  END
>  <DRUGBANK_ID>  (1) 
DB04315

>  <SECONDARY_ACCESSION_NUMBERS>  (1) 
EXPT01573

>  <COMMON_NAME>  (1) 
Guanosine-5'-Diphosphate

>  <CAS_NUMBER>  (1) 
146-91-8

>  <UNII>  (1) 
HLJ737P865

$$$$
