
     RDKit          3D

 38 41  0  0  0  0  0  0  0  0999 V2000
    1.0002   -0.0915   -0.0762 C   0  0  0  0  0  0  0  0  0  0  0  0
    0.5041   -1.4759    0.2929 C   0  0  0  0  0  0  0  0  0  0  0  0
    0.9989   -1.9046    1.6819 C   0  0  0  0  0  0  0  0  0  0  0  0
    0.5094   -0.9808    2.7985 C   0  0  0  0  0  0  0  0  0  0  0  0
   -0.9749   -1.0033    2.8388 C   0  0  0  0  0  0  0  0  0  0  0  0
   -1.6646   -2.1353    2.8061 N   0  0  0  0  0  0  0  0  0  0  0  0
   -2.9409   -1.8070    3.1425 C   0  0  0  0  0  0  0  0  0  0  0  0
   -3.0489   -0.4266    3.2062 C   0  0  0  0  0  0  0  0  0  0  0  0
   -1.7852    0.0902    3.0761 N   0  0  0  0  0  0  0  0  0  0  0  0
   -1.3958    1.3969    3.4566 C   0  0  0  0  0  0  0  0  0  0  0  0
   -1.8266    1.8591    4.6983 C   0  0  0  0  0  0  0  0  0  0  0  0
   -1.3167    3.0517    5.2033 C   0  0  0  0  0  0  0  0  0  0  0  0
   -0.3698    3.7878    4.4864 C   0  0  0  0  0  0  0  0  0  0  0  0
    0.0597    3.3197    3.2434 C   0  0  0  0  0  0  0  0  0  0  0  0
   -0.5030    2.1603    2.7055 C   0  0  0  0  0  0  0  0  0  0  0  0
    0.1381    5.0109    4.8641 O   0  0  0  0  0  0  0  0  0  0  0  0
   -0.1902    5.5360    6.0908 C   0  0  0  0  0  0  0  0  0  0  0  0
    0.0978    4.8623    7.2807 C   0  0  0  0  0  0  0  0  0  0  0  0
   -0.1680    5.4681    8.5076 C   0  0  0  0  0  0  0  0  0  0  0  0
   -0.6540    6.7734    8.5406 C   0  0  0  0  0  0  0  0  0  0  0  0
   -0.8962    7.4692    7.3559 C   0  0  0  0  0  0  0  0  0  0  0  0
   -0.7036    6.8342    6.1260 C   0  0  0  0  0  0  0  0  0  0  0  0
   -0.9697    7.5242   10.0555 Cl  0  0  0  0  0  0  0  0  0  0  0  0
   -4.0565   -2.7549    3.1868 C   0  0  0  0  0  0  0  0  0  0  0  0
   -5.2180   -2.2294    2.7022 C   0  0  0  0  0  0  0  0  0  0  0  0
   -6.1938   -3.0964    2.2304 C   0  0  0  0  0  0  0  0  0  0  0  0
   -6.4265   -4.3830    2.5038 C   0  0  0  0  0  0  0  0  0  0  0  0
   -5.3377   -4.9134    3.1968 C   0  0  0  0  0  0  0  0  0  0  0  0
   -4.1597   -4.0941    3.5133 C   0  0  0  0  0  0  0  0  0  0  0  0
   -7.4885   -5.1152    2.0253 O   0  0  0  0  0  0  0  0  0  0  0  0
   -8.4496   -4.7614    0.9548 C   0  0  0  0  0  0  0  0  0  0  0  0
   -9.1601   -3.3914    0.8735 C   0  0  0  0  0  0  0  0  0  0  0  0
   -8.2953   -2.1535    0.5727 C   0  0  0  0  0  0  0  0  0  0  0  0
   -7.3559   -2.1718   -0.6174 N   0  0  0  0  0  0  0  0  0  0  0  0
   -6.5398   -0.9484   -0.8162 C   0  0  0  0  0  0  0  0  0  0  0  0
   -5.3063   -0.8955    0.0384 C   0  0  0  0  0  0  0  0  0  0  0  0
   -6.6534   -3.3837   -1.1786 C   0  0  0  0  0  0  0  0  0  0  0  0
   -5.5487   -4.2552   -0.4922 C   0  0  0  0  0  0  0  0  0  0  0  0
  1  2  1  0
  2  3  1  0
  3  4  1  0
  4  5  1  0
  5  6  2  0
  5  9  1  0
  6  7  1  0
  7  8  2  0
  7 24  1  0
  8  9  1  0
  9 10  1  0
 10 11  2  0
 10 15  1  0
 11 12  1  0
 12 13  2  0
 13 14  1  0
 13 16  1  0
 14 15  2  0
 16 17  1  0
 17 18  2  0
 17 22  1  0
 18 19  1  0
 19 20  2  0
 20 21  1  0
 20 23  1  0
 21 22  2  0
 24 25  2  0
 24 29  1  0
 25 26  1  0
 26 27  2  0
 27 28  1  0
 27 30  1  0
 28 29  2  0
 30 31  1  0
 31 32  1  0
 32 33  1  0
 33 34  1  0
 34 35  1  0
 34 37  1  0
 35 36  1  0
 37 38  1  0
M  END
>  <DRUGBANK_ID>  (1) 
DB12689

>  <COMMON_NAME>  (1) 
Azeliragon

>  <CAS_NUMBER>  (1) 
603148-36-3

>  <UNII>  (1) 
LPU25F15UQ

>  <SYNONYMS>  (1) 
Azeliragon

$$$$
