
     RDKit          3D

 10 10  0  0  1  0  0  0  0  0999 V2000
    0.9069    0.0064   -0.0206 C   0  0  0  0  0  0  0  0  0  0  0  0
    0.1579   -1.2538   -2.1866 C   0  0  0  0  0  0  0  0  0  0  0  0
    1.0982    2.5636    0.3067 C   0  0  0  0  0  0  0  0  0  0  0  0
   -0.3851    0.3724   -3.4589 C   0  0  0  0  0  0  0  0  0  0  0  0
    0.4877    1.2329    0.8075 C   0  0  1  0  0  0  0  0  0  0  0  0
    0.3183   -0.1291   -1.4038 C   0  0  0  0  0  0  0  0  0  0  0  0
   -1.0115    1.2825    0.8429 N   0  0  0  0  0  0  0  0  0  0  0  0
   -0.2759   -0.9258   -3.4451 N   0  0  0  0  0  0  0  0  0  0  0  0
   -0.1419    0.8883   -2.2231 N   0  0  0  0  0  0  0  0  0  0  0  0
    0.9038    2.7823   -1.0825 O   0  0  0  0  0  0  0  0  0  0  0  0
  5  1  1  0
  5  3  1  0
  5  7  1  6
  6  1  1  0
  6  2  2  0
  8  2  1  0
  8  4  2  0
  9  4  1  0
  9  6  1  0
 10  3  1  0
M  CHG  1   7   1
M  END
>  <DRUGBANK_ID>  (1) 
DB03811

>  <SECONDARY_ACCESSION_NUMBERS>  (1) 
EXPT01786

>  <COMMON_NAME>  (1) 
Histidinol

$$$$
