
     RDKit          3D

 31 34  0  0  0  0  0  0  0  0999 V2000
    0.2760    1.1752    0.0185 C   0  0  0  0  0  0  0  0  0  0  0  0
    1.0244   -0.0168    0.0214 C   0  0  0  0  0  0  0  0  0  0  0  0
    0.3382   -1.2402    0.0295 C   0  0  0  0  0  0  0  0  0  0  0  0
   -1.0647   -1.2468    0.0196 C   0  0  0  0  0  0  0  0  0  0  0  0
   -1.8185   -0.0565   -0.0009 C   0  0  0  0  0  0  0  0  0  0  0  0
   -1.1245    1.1564    0.0157 C   0  0  0  0  0  0  0  0  0  0  0  0
   -4.8457   -1.4089   -1.0387 N   0  0  0  0  0  0  0  0  0  0  0  0
   -4.0219   -1.2103   -0.0037 C   0  0  0  0  0  0  0  0  0  0  0  0
   -3.2276   -0.0644    0.0374 N   0  0  0  0  0  0  0  0  0  0  0  0
   -5.4556   -2.6075   -1.0744 C   0  0  0  0  0  0  0  0  0  0  0  0
   -5.3328   -3.5619   -0.0881 C   0  0  0  0  0  0  0  0  0  0  0  0
   -4.5206   -3.2578    0.9851 C   0  0  0  0  0  0  0  0  0  0  0  0
   -3.8655   -2.0872    0.9959 N   0  0  0  0  0  0  0  0  0  0  0  0
   -4.2987   -4.1437    2.0552 N   0  0  0  0  0  0  0  0  0  0  0  0
   -3.4916   -3.8648    3.1967 C   0  0  0  0  0  0  0  0  0  0  0  0
   -5.0339   -5.4022    2.1021 C   0  0  0  0  0  0  0  0  0  0  0  0
    2.5197    0.0709   -0.0108 C   0  0  0  0  0  0  0  0  0  0  0  0
    1.1671   -2.8230   -0.0463 S   0  0  0  0  0  0  0  0  0  0  0  0
   -3.7539   -2.6706    3.9564 C   0  0  0  0  0  0  0  0  0  0  0  0
   -3.0260   -2.2613    5.0917 C   0  0  0  0  0  0  0  0  0  0  0  0
   -2.0005   -3.1513    5.3857 C   0  0  0  0  0  0  0  0  0  0  0  0
   -1.6703   -4.3567    4.6716 C   0  0  0  0  0  0  0  0  0  0  0  0
   -2.4306   -4.7485    3.5475 C   0  0  0  0  0  0  0  0  0  0  0  0
   -1.1133   -3.0265    6.4251 C   0  0  0  0  0  0  0  0  0  0  0  0
   -0.2978   -4.1267    6.3076 N   0  0  0  0  0  0  0  0  0  0  0  0
   -0.6007   -4.9313    5.2582 N   0  0  0  0  0  0  0  0  0  0  0  0
    0.8106   -4.4803    7.1701 C   0  0  0  0  0  0  0  0  0  0  0  0
   -0.9677   -2.0039    7.4875 C   0  0  0  0  0  0  0  0  0  0  0  0
    0.6781   -3.6123    1.3550 N   0  0  0  0  0  0  0  0  0  0  0  0
    0.6245   -3.5662   -1.1669 O   0  0  0  0  0  0  0  0  0  0  0  0
    2.5887   -2.6706    0.1231 O   0  0  0  0  0  0  0  0  0  0  0  0
  1  2  2  0
  1  6  1  0
  2  3  1  0
  2 17  1  0
  3  4  2  0
  3 18  1  0
  4  5  1  0
  5  6  2  0
  5  9  1  0
  7  8  2  0
  7 10  1  0
  8  9  1  0
  8 13  1  0
 10 11  2  0
 11 12  1  0
 12 13  2  0
 12 14  1  0
 14 15  1  0
 14 16  1  0
 15 19  1  0
 15 23  2  0
 18 29  1  0
 19 20  2  0
 20 21  1  0
 21 22  1  0
 21 24  2  0
 22 23  1  0
 22 26  2  0
 24 25  1  0
 24 28  1  0
 25 26  1  0
 25 27  1  0
 30 18  2  0
 31 18  2  0
M  END
>  <DRUGBANK_ID>  (1) 
DB06589

>  <COMMON_NAME>  (1) 
Pazopanib

>  <CAS_NUMBER>  (1) 
444731-52-6

>  <UNII>  (1) 
7RN5DR86CK

>  <SYNONYMS>  (1) 
Pazopanib; Pazopanibum

$$$$
