
     RDKit          3D

 13 12  0  0  0  0  0  0  0  0999 V2000
    0.9296    1.4402   -1.9079 C   0  0  0  0  0  0  0  0  0  0  0  0
    0.4028    1.1964   -0.4863 C   0  0  1  0  0  0  0  0  0  0  0  0
   -1.1443    1.2416   -0.4017 C   0  0  0  0  0  0  0  0  0  0  0  0
    0.1210    0.7074   -2.9693 C   0  0  0  0  0  0  0  0  0  0  0  0
    0.6109    0.9985   -4.3679 C   0  0  0  0  0  0  0  0  0  0  0  0
    1.7918    0.2317   -4.6506 N   0  0  0  0  0  0  0  0  0  0  0  0
    2.0645   -0.8019   -5.4811 C   0  0  0  0  0  0  0  0  0  0  0  0
    1.1808   -1.4610   -6.2689 N   0  0  0  0  0  0  0  0  0  0  0  0
   -1.7342    0.1541   -0.9714 O   0  0  0  0  0  0  0  0  0  0  0  0
    0.9163   -0.0846    0.0442 N   0  0  0  0  0  0  0  0  0  0  0  0
   -1.8195    2.1475    0.0276 O   0  0  0  0  0  0  0  0  0  0  0  0
    3.2802   -1.2633   -5.5424 N   0  0  0  0  0  0  0  0  0  0  0  0
   -0.1472   -1.1668   -6.4877 O   0  0  0  0  0  0  0  0  0  0  0  0
  1  4  1  0
  2  3  1  0
  2 10  1  6
  2  1  1  0
  3 11  2  0
  3  9  1  0
  4  5  1  0
  5  6  1  0
  6  7  1  0
  7 12  2  0
  7  8  1  0
  8 13  1  0
M  END
>  <DRUGBANK_ID>  (1) 
DB03144

>  <SECONDARY_ACCESSION_NUMBERS>  (1) 
EXPT01692

>  <COMMON_NAME>  (1) 
N(5)-[(hydroxyamino)(imino)methyl]-L-ornithine

>  <UNII>  (1) 
J2FGL272NZ

>  <SYNONYMS>  (1) 
N-omega-hydroxy-L-arginine

$$$$
