
     RDKit          3D

 30 35  0  0  1  0  0  0  0  0999 V2000
   -4.2108   -0.5304   -4.9789 O   0  0  0  0  0  0  0  0  0  0  0  0
   -3.7068   -0.0439   -8.1340 O   0  0  0  0  0  0  0  0  0  0  0  0
   -3.5034   -0.4068  -11.2782 O   0  0  0  0  0  0  0  0  0  0  0  0
   -4.8000    2.2574   -4.8879 O   0  0  0  0  0  0  0  0  0  0  0  0
   -7.5173   -4.8601   -5.4227 N   0  0  0  0  0  0  0  0  0  0  0  0
   -5.9830   -2.2429   -5.7255 C   0  0  2  0  0  0  0  0  0  0  0  0
   -6.5483   -2.7011   -7.4534 C   0  0  1  0  0  0  0  0  0  0  0  0
   -4.2502   -1.7052   -5.8396 C   0  0  1  0  0  0  0  0  0  0  0  0
   -3.5382   -1.3649   -7.5805 C   0  0  2  0  0  0  0  0  0  0  0  0
   -7.6587   -3.7464   -6.8178 C   0  0  2  0  0  0  0  0  0  0  0  0
   -5.9432   -2.1773   -9.2498 C   0  0  0  0  0  0  0  0  0  0  0  0
   -4.0022   -2.0049   -9.2387 C   0  0  1  0  0  0  0  0  0  0  0  0
   -6.7690   -2.9050   -4.3762 C   0  0  0  0  0  0  0  0  0  0  0  0
   -6.4966   -0.8987   -5.4891 C   0  0  0  0  0  0  0  0  0  0  0  0
   -5.2218   -3.1396   -7.5915 C   0  0  0  0  0  0  0  0  0  0  0  0
   -8.5327   -2.1320   -6.3926 C   0  0  0  0  0  0  0  0  0  0  0  0
   -4.7888   -1.8301   -7.5279 C   0  0  0  0  0  0  0  0  0  0  0  0
   -6.6822   -4.3727   -4.3040 C   0  0  0  0  0  0  0  0  0  0  0  0
   -2.9614   -1.4702  -10.4844 C   0  0  2  0  0  0  0  0  0  0  0  0
   -7.7790   -0.6882   -5.9362 C   0  0  0  0  0  0  0  0  0  0  0  0
   -5.4915   -0.0105   -5.0809 C   0  0  0  0  0  0  0  0  0  0  0  0
   -1.5939   -0.9505   -9.8755 C   0  0  0  0  0  0  0  0  0  0  0  0
   -7.0593   -6.3375   -5.4918 C   0  0  0  0  0  0  0  0  0  0  0  0
   -8.0546    0.6994   -5.9448 C   0  0  0  0  0  0  0  0  0  0  0  0
   -2.5360   -2.5669  -11.5326 C   0  0  0  0  0  0  0  0  0  0  0  0
   -5.7691    1.3206   -5.0896 C   0  0  0  0  0  0  0  0  0  0  0  0
   -7.0429    1.6885   -5.5322 C   0  0  0  0  0  0  0  0  0  0  0  0
   -3.2772    1.1561   -7.6154 C   0  0  0  0  0  0  0  0  0  0  0  0
   -0.9493   -1.9066   -8.8567 C   0  0  0  0  0  0  0  0  0  0  0  0
   -0.3155   -3.1468   -9.4417 C   0  0  0  0  0  0  0  0  0  0  0  0
  8  1  1  1
  1 21  1  0
  2 28  1  0
  9  2  1  6
  3 19  1  0
  4 26  1  0
  5 10  1  0
  5 18  1  0
  5 23  1  0
  6  7  1  0
  6  8  1  0
  6 13  1  1
  6 14  1  0
  7 10  1  0
  7 11  1  1
  7 15  1  0
  8  9  1  0
  9 12  1  0
  9 17  1  0
 10 16  1  1
 12 11  1  6
 12 19  1  0
 13 18  1  0
 14 20  2  0
 14 21  1  0
 15 17  2  0
 16 20  1  0
 19 22  1  0
 19 25  1  6
 20 24  1  0
 21 26  2  0
 22 29  1  0
 24 27  2  0
 26 27  1  0
 29 30  1  0
M  END
>  <DRUGBANK_ID>  (1) 
DB01497

>  <COMMON_NAME>  (1) 
Etorphine

>  <CAS_NUMBER>  (1) 
14521-96-1

>  <UNII>  (1) 
42M2Y6NU9O

>  <SYNONYMS>  (1) 
etorfina; Etorphine; Etorphinum

$$$$
