
     RDKit          3D

 42 47  0  0  0  0  0  0  0  0999 V2000
   -2.5433    0.0308   -0.5701 C   0  0  0  0  0  0  0  0  0  0  0  0
   -1.1741    0.1178   -0.1366 N   0  0  0  0  0  0  0  0  0  0  0  0
   -0.4709   -1.0652   -0.5052 C   0  0  0  0  0  0  0  0  0  0  0  0
    0.9332   -0.8433   -0.0177 C   0  0  0  0  0  0  0  0  0  0  0  0
    1.8033    0.3770   -0.4086 C   0  0  0  0  0  0  0  0  0  0  0  0
    0.8636    1.4584    0.0157 C   0  0  0  0  0  0  0  0  0  0  0  0
   -0.5151    1.3363   -0.5842 C   0  0  0  0  0  0  0  0  0  0  0  0
    3.2695    0.6940    0.1271 C   0  0  0  0  0  0  0  0  0  0  0  0
    4.2789   -0.2027   -0.0829 C   0  0  0  0  0  0  0  0  0  0  0  0
    5.6290   -0.3266    0.4464 C   0  0  0  0  0  0  0  0  0  0  0  0
    6.1819    0.6734    1.0671 C   0  0  0  0  0  0  0  0  0  0  0  0
    5.3203    1.7440    1.1659 C   0  0  0  0  0  0  0  0  0  0  0  0
    3.8676    1.6390    0.8845 C   0  0  0  0  0  0  0  0  0  0  0  0
    3.0416    2.4436    1.7939 C   0  0  0  0  0  0  0  0  0  0  0  0
    3.1394    1.9693    3.2484 C   0  0  0  0  0  0  0  0  0  0  0  0
    4.5059    2.3579    3.8181 C   0  0  0  0  0  0  0  0  0  0  0  0
    2.0886    2.8962    3.9195 C   0  0  0  0  0  0  0  0  0  0  0  0
    3.0047    0.4995    3.6109 N   0  0  0  0  0  0  0  0  0  0  0  0
    2.6131   -0.6574    2.9179 C   0  0  0  0  0  0  0  0  0  0  0  0
    3.3204   -1.3692    1.9338 N   0  0  0  0  0  0  0  0  0  0  0  0
    2.7734   -2.3863    1.1657 C   0  0  0  0  0  0  0  0  0  0  0  0
    1.5214   -2.7905    1.6393 N   0  0  0  0  0  0  0  0  0  0  0  0
    0.8776   -2.0299    2.6798 C   0  0  0  0  0  0  0  0  0  0  0  0
    1.4358   -1.0405    3.3656 N   0  0  0  0  0  0  0  0  0  0  0  0
   -0.6207   -1.9915    2.8535 N   0  0  0  0  0  0  0  0  0  0  0  0
   -1.6999   -0.8807    2.7485 C   0  0  0  0  0  0  0  0  0  0  0  0
   -2.7613   -1.4891    3.2415 N   0  0  0  0  0  0  0  0  0  0  0  0
   -2.1881   -1.9032    4.3391 C   0  0  0  0  0  0  0  0  0  0  0  0
   -2.3469   -1.4638    5.6352 C   0  0  0  0  0  0  0  0  0  0  0  0
   -1.9054   -2.3396    6.5974 C   0  0  0  0  0  0  0  0  0  0  0  0
   -1.2096   -3.5009    6.2236 C   0  0  0  0  0  0  0  0  0  0  0  0
   -0.7438   -3.7134    4.8984 C   0  0  0  0  0  0  0  0  0  0  0  0
   -1.1600   -2.7414    3.9775 C   0  0  0  0  0  0  0  0  0  0  0  0
   -2.1482    0.5785    2.4386 C   0  0  0  0  0  0  0  0  0  0  0  0
   -1.3724    1.5353    1.8899 F   0  0  0  0  0  0  0  0  0  0  0  0
   -3.3345    0.5327    1.7210 F   0  0  0  0  0  0  0  0  0  0  0  0
    3.3011   -2.7708   -0.3229 N   0  0  0  0  0  0  0  0  0  0  0  0
    4.8362   -2.8086   -0.6961 C   0  0  0  0  0  0  0  0  0  0  0  0
    5.4142   -1.7124   -1.9446 C   0  0  0  0  0  0  0  0  0  0  0  0
    4.6233   -1.7796   -3.1302 O   0  0  0  0  0  0  0  0  0  0  0  0
    3.2875   -1.3761   -2.7952 C   0  0  0  0  0  0  0  0  0  0  0  0
    2.6178   -2.4541   -1.7999 C   0  0  0  0  0  0  0  0  0  0  0  0
  1  2  1  0
  2  3  1  0
  2  7  1  0
  3  4  1  0
  4  5  1  0
  5  6  1  0
  5  8  1  0
  6  7  1  0
  8  9  2  0
  8 13  1  0
  9 10  1  0
 10 11  2  0
 11 12  1  0
 12 13  2  0
 13 14  1  0
 14 15  1  0
 15 16  1  0
 15 17  1  0
 15 18  1  0
 18 19  1  0
 19 20  2  0
 19 24  1  0
 20 21  1  0
 21 22  2  0
 21 37  1  0
 22 23  1  0
 23 24  2  0
 23 25  1  0
 25 26  1  0
 25 33  1  0
 26 27  2  0
 26 34  1  0
 27 28  1  0
 28 29  1  0
 28 33  2  0
 29 30  2  0
 30 31  1  0
 31 32  2  0
 32 33  1  0
 34 35  1  0
 34 36  1  0
 37 38  1  0
 37 42  1  0
 38 39  1  0
 39 40  1  0
 40 41  1  0
 41 42  1  0
M  END
>  <DRUGBANK_ID>  (1) 
DB18245

>  <COMMON_NAME>  (1) 
Zandelisib

>  <CAS_NUMBER>  (1) 
1401436-95-0

>  <UNII>  (1) 
8Z28M5SX0X

>  <SYNONYMS>  (1) 
1,3,5-triazin-2-amine, 4-(2-(difluoromethyl)-1h-benzimidazol-1-yl)-n-(1,1-dimethyl-2-(2-(1-methyl-4-piperidinyl)phenyl)ethyl)-6-(4-morpholinyl)-; 4-(2-(difluoromethyl)benzimidazol-1-yl)-n-(1,1-dimethyl-2-(2-(1-methyl-4-piperidyl)phenyl)ethyl)-6-morpholino-1,3,5-triazin-2-amine

$$$$
