14A
     RDKit          3D

 27 28  0  0  0  0  0  0  0  0999 V2000
   -0.0034    0.6349   -0.0064 N   0  0  0  0  0  0  0  0  0  0  0  0
   -0.3146    1.0651   -1.1632 C   0  0  0  0  0  0  0  0  0  0  0  0
    0.5419    1.2873   -2.1546 N   0  0  0  0  0  0  0  0  0  0  0  0
   -1.6320    0.9393   -1.1176 N   0  0  0  0  0  0  0  0  0  0  0  0
   -2.1350   -0.3737   -0.4649 O   0  0  0  0  0  0  0  0  0  0  0  0
   -1.3064   -0.9569    0.6603 C   0  0  0  0  0  0  0  0  0  0  0  0
    0.0266   -1.8410    0.1893 C   0  0  0  0  0  0  0  0  0  0  0  0
    1.2634   -1.2227   -0.7093 C   0  0  0  0  0  0  0  0  0  0  0  0
    2.2307    0.0456    0.0630 O   0  0  0  0  0  0  0  0  0  0  0  0
    1.8757    1.2670    1.1542 C   0  0  0  0  0  0  0  0  0  0  0  0
    0.9296    1.0427    2.1952 C   0  0  0  0  0  0  0  0  0  0  0  0
   -0.1342    2.0041    2.4781 C   0  0  0  0  0  0  0  0  0  0  0  0
   -0.1660    3.2833    1.9223 C   0  0  0  0  0  0  0  0  0  0  0  0
    0.8101    3.5902    0.9711 C   0  0  0  0  0  0  0  0  0  0  0  0
    1.7022    2.5429    0.5434 C   0  0  0  0  0  0  0  0  0  0  0  0
   -1.5695    1.5177    3.3497 Cl  0  0  0  0  0  0  0  0  0  0  0  0
    0.8712    5.0131    0.4783 C   0  0  0  0  0  0  0  0  0  0  0  0
    0.0772    5.7982    1.0069 O   0  0  0  0  0  0  0  0  0  0  0  0
    1.8614    5.4560   -0.4186 N   0  0  0  0  0  0  0  0  0  0  0  0
    2.7868    4.6554   -1.1928 C   0  0  0  0  0  0  0  0  0  0  0  0
    2.4575    4.6874   -2.6443 C   0  0  0  0  0  0  0  0  0  0  0  0
    3.4486    4.7931   -3.5337 C   0  0  0  0  0  0  0  0  0  0  0  0
    2.1137    6.8852   -0.5919 C   0  0  0  0  0  0  0  0  0  0  0  0
    2.1572    7.7471    0.6641 C   0  0  0  0  0  0  0  0  0  0  0  0
    2.0806    9.1725    0.1324 C   0  0  0  0  0  0  0  0  0  0  0  0
    1.5710    9.0758   -1.3094 C   0  0  0  0  0  0  0  0  0  0  0  0
    1.1652    7.6215   -1.5225 C   0  0  0  0  0  0  0  0  0  0  0  0
  1  2  2  0
  2  3  1  0
  2  4  1  0
  4  5  1  0
  5  6  1  0
  6  7  1  0
  7  8  1  0
  8  9  1  0
  9 10  1  0
 10 11  2  0
 10 15  1  0
 11 12  1  0
 12 13  2  0
 12 16  1  0
 13 14  1  0
 14 15  2  0
 14 17  1  0
 17 18  2  0
 17 19  1  0
 19 20  1  0
 19 23  1  0
 20 21  1  0
 21 22  2  0
 23 24  1  0
 23 27  1  0
 24 25  1  0
 25 26  1  0
 26 27  1  0
M  END
>  <DRUGBANK_ID>  (1) 
DB06859

>  <COMMON_NAME>  (1) 
N-ALLYL-5-AMIDINOAMINOOXY-PROPYLOXY-3-CHLORO-N-CYCLOPENTYLBENZAMIDE

$$$$
