BPI
     RDKit          3D

 21 24  0  0  0  0  0  0  0  0999 V2000
    1.3877   -1.7417   -0.1885 C   0  0  0  0  0  0  0  0  0  0  0  0
    2.7294   -2.2057   -0.7228 C   0  0  1  0  0  0  0  0  0  0  0  0
    2.9086   -1.8017   -2.0815 O   0  0  0  0  0  0  0  0  0  0  0  0
    3.8039   -1.6700    0.2197 C   0  0  1  0  0  0  0  0  0  0  0  0
    5.0750   -2.2390   -0.1004 O   0  0  0  0  0  0  0  0  0  0  0  0
    3.8459   -0.1334    0.1441 C   0  0  2  0  0  0  0  0  0  0  0  0
    4.5719    0.3771    1.2667 O   0  0  0  0  0  0  0  0  0  0  0  0
    2.3960    1.9055    0.1824 C   0  0  0  0  0  0  0  0  0  0  0  0
    1.1690    2.5476    0.1194 C   0  0  0  0  0  0  0  0  0  0  0  0
   -1.2145    2.5277   -0.1013 C   0  0  0  0  0  0  0  0  0  0  0  0
   -2.4268    1.8630   -0.2354 C   0  0  0  0  0  0  0  0  0  0  0  0
   -3.7349   -0.1740   -0.2230 C   0  0  0  0  0  0  0  0  0  0  0  0
   -3.8600   -1.5450   -0.0052 C   0  0  0  0  0  0  0  0  0  0  0  0
   -2.7483   -2.2778    0.3469 C   0  0  0  0  0  0  0  0  0  0  0  0
   -1.5128   -1.6430    0.4173 C   0  0  0  0  0  0  0  0  0  0  0  0
    1.2735   -0.2407    0.0271 C   0  0  0  0  0  0  0  0  0  0  0  0
    2.4696    0.5118    0.1331 C   0  0  0  0  0  0  0  0  0  0  0  0
   -0.0216    1.8194    0.0343 C   0  0  0  0  0  0  0  0  0  0  0  0
   -0.0184    0.3958    0.0683 C   0  0  0  0  0  0  0  0  0  0  0  0
   -1.3108   -0.2697    0.1103 C   0  0  0  0  0  0  0  0  0  0  0  0
   -2.4887    0.4718   -0.1262 C   0  0  0  0  0  0  0  0  0  0  0  0
  1  2  1  0
  1 16  1  0
  2  3  1  6
  2  4  1  0
  4  6  1  0
  4  5  1  6
  6  7  1  1
  6 17  1  0
  8  9  2  0
  8 17  1  0
  9 18  1  0
 10 11  2  0
 10 18  1  0
 11 21  1  0
 12 13  1  0
 12 21  2  0
 13 14  2  0
 14 15  1  0
 15 20  2  0
 16 17  2  0
 16 19  1  0
 18 19  2  0
 19 20  1  0
 20 21  1  0
M  END
>  <DRUGBANK_ID>  (1) 
DB07479

>  <COMMON_NAME>  (1) 
(1S)-1,2,3,4-TETRAHYDRO-BENZO[C]PHENANTHRENE-2,3,4-TRIOL

$$$$
