IDN
     RDKit          3D

 28 31  0  0  0  0  0  0  0  0999 V2000
   -0.0542   -0.6877   -0.1350 C   0  0  0  0  0  0  0  0  0  0  0  0
   -0.1002    0.7080   -0.0470 C   0  0  0  0  0  0  0  0  0  0  0  0
    1.0638    1.4356    0.0369 C   0  0  0  0  0  0  0  0  0  0  0  0
    2.2465    0.7576    0.1021 C   0  0  0  0  0  0  0  0  0  0  0  0
    2.2230   -0.6410   -0.0671 C   0  0  0  0  0  0  0  0  0  0  0  0
    1.0939   -1.3811   -0.1827 N   0  0  0  0  0  0  0  0  0  0  0  0
    3.4643    1.4491    0.4941 C   0  0  0  0  0  0  0  0  0  0  0  0
    3.7466    2.6889    0.9331 C   0  0  0  0  0  0  0  0  0  0  0  0
    5.1634    3.3333    1.2595 C   0  0  0  0  0  0  0  0  0  0  0  0
    5.1011    4.5695    1.3893 O   0  0  0  0  0  0  0  0  0  0  0  0
    6.4481    2.6382    0.9761 N   0  0  0  0  0  0  0  0  0  0  0  0
    6.6318    1.1969    0.8361 C   0  0  0  0  0  0  0  0  0  0  0  0
    7.6336    3.3574    0.1707 C   0  0  0  0  0  0  0  0  0  0  0  0
    7.5231    2.9286   -1.4612 C   0  0  0  0  0  0  0  0  0  0  0  0
    6.5382    1.9208   -1.8543 C   0  0  0  0  0  0  0  0  0  0  0  0
    5.7210    2.9535   -2.4212 N   0  0  0  0  0  0  0  0  0  0  0  0
    6.5484    3.2938   -3.4287 C   0  0  0  0  0  0  0  0  0  0  0  0
    7.7292    3.6474   -2.7471 C   0  0  0  0  0  0  0  0  0  0  0  0
   -1.2505   -1.3963   -0.0680 N   0  0  0  0  0  0  0  0  0  0  0  0
    5.0437    3.7462   -1.4628 C   0  0  0  0  0  0  0  0  0  0  0  0
    8.4093    4.2540   -4.9405 C   0  0  0  0  0  0  0  0  0  0  0  0
    7.4348    3.3915   -5.4836 C   0  0  0  0  0  0  0  0  0  0  0  0
    6.6310    2.6857   -4.6467 C   0  0  0  0  0  0  0  0  0  0  0  0
    8.6191    4.4045   -3.5270 C   0  0  0  0  0  0  0  0  0  0  0  0
   -1.3659    1.4810    0.0761 C   0  0  0  0  0  0  0  0  0  0  0  0
   -2.5166    0.6338   -0.3757 C   0  0  0  0  0  0  0  0  0  0  0  0
   -2.4237   -0.7371    0.2741 C   0  0  0  0  0  0  0  0  0  0  0  0
   -3.2757   -1.2017    0.9774 O   0  0  0  0  0  0  0  0  0  0  0  0
  1  2  1  0
  1  6  2  0
  1 19  1  0
  2  3  2  0
  2 25  1  0
  3  4  1  0
  4  5  2  0
  4  7  1  0
  5  6  1  0
  7  8  2  0
  8  9  1  0
  9 10  2  0
  9 11  1  0
 11 12  1  0
 11 13  1  0
 13 14  1  0
 14 15  2  0
 14 18  1  0
 15 16  1  0
 16 17  1  0
 16 20  1  0
 17 18  2  0
 17 23  1  0
 18 24  1  0
 19 27  1  0
 21 22  1  0
 21 24  2  0
 22 23  2  0
 25 26  1  0
 26 27  1  0
 27 28  2  0
M  END
>  <DRUGBANK_ID>  (1) 
DB01691

>  <SECONDARY_ACCESSION_NUMBERS>  (1) 
EXPT01841

>  <COMMON_NAME>  (1) 
Indole Naphthyridinone

$$$$
