
     RDKit          3D

 14 13  0  0  0  0  0  0  0  0999 V2000
    1.2985   -0.2765    0.4910 O   0  0  0  0  0  0  0  0  0  0  0  0
    0.4003    0.8452    0.4404 C   0  0  0  0  0  0  0  0  0  0  0  0
    0.9660    2.0300    1.2643 C   0  0  0  0  0  0  0  0  0  0  0  0
    2.4046    2.0675    1.1767 O   0  0  0  0  0  0  0  0  0  0  0  0
    0.5079    3.4787    0.9987 C   0  0  0  0  0  0  0  0  0  0  0  0
   -0.8337    3.7314    0.6690 O   0  0  0  0  0  0  0  0  0  0  0  0
   -1.3310    3.0821   -0.4764 C   0  0  0  0  0  0  0  0  0  0  0  0
   -0.6386    3.2748   -1.8644 C   0  0  0  0  0  0  0  0  0  0  0  0
    0.9046    3.3375   -2.1499 C   0  0  0  0  0  0  0  0  0  0  0  0
    1.8190    2.1171   -2.0775 C   0  0  0  0  0  0  0  0  0  0  0  0
   -1.2901    2.2894   -2.8652 C   0  0  0  0  0  0  0  0  0  0  0  0
   -2.8239    2.3422   -2.9146 C   0  0  0  0  0  0  0  0  0  0  0  0
   -3.3803    3.7422   -3.1866 C   0  0  0  0  0  0  0  0  0  0  0  0
   -2.8823    4.3010   -4.5087 C   0  0  0  0  0  0  0  0  0  0  0  0
  1  2  1  0
  2  3  1  0
  3  4  1  0
  3  5  1  0
  5  6  1  0
  6  7  1  0
  7  8  1  0
  8  9  1  0
  8 11  1  0
  9 10  1  0
 11 12  1  0
 12 13  1  0
 13 14  1  0
M  END
>  <DRUGBANK_ID>  (1) 
DB14557

>  <COMMON_NAME>  (1) 
Ethylhexylglycerin

>  <CAS_NUMBER>  (1) 
70445-33-9

>  <UNII>  (1) 
147D247K3P

>  <SYNONYMS>  (1) 
3-(2-Ethylhexyloxy)propane-1,2-diol; Octoxyglycerin

$$$$
