Y12
     RDKit          3D

 27 28  0  0  0  0  0  0  0  0999 V2000
    1.4598   -0.2705    0.0099 C   0  0  0  0  0  0  0  0  0  0  0  0
    0.5664   -1.3449    0.0112 C   0  0  0  0  0  0  0  0  0  0  0  0
   -0.8023   -1.1156   -0.0492 C   0  0  0  0  0  0  0  0  0  0  0  0
   -1.2684    0.1960   -0.1357 C   0  0  0  0  0  0  0  0  0  0  0  0
   -2.7323    0.4775   -0.1864 C   0  0  0  0  0  0  0  0  0  0  0  0
   -3.1467    1.1434    1.1152 C   0  0  0  0  0  0  0  0  0  0  0  0
   -2.8079    2.5552    1.2281 N   0  0  0  0  0  0  0  0  0  0  0  0
   -3.4962    3.7074    1.0574 C   0  0  0  0  0  0  0  0  0  0  0  0
   -2.8839    4.7759    1.0866 O   0  0  0  0  0  0  0  0  0  0  0  0
   -4.9663    3.7343    0.9239 C   0  0  0  0  0  0  0  0  0  0  0  0
   -5.8014    2.6903    0.8930 C   0  0  0  0  0  0  0  0  0  0  0  0
   -7.2277    2.6828    0.7303 C   0  0  0  0  0  0  0  0  0  0  0  0
   -7.6812    3.4634   -0.2955 C   0  0  0  0  0  0  0  0  0  0  0  0
   -8.9739    3.3600   -0.7315 C   0  0  0  0  0  0  0  0  0  0  0  0
   -9.3228    4.1175   -1.8650 O   0  0  0  0  0  0  0  0  0  0  0  0
   -8.5652    5.1251   -2.4666 C   0  0  0  0  0  0  0  0  0  0  0  0
   -7.3892    5.4053   -2.2677 O   0  0  0  0  0  0  0  0  0  0  0  0
   -9.3915    5.8770   -3.4458 C   0  0  0  0  0  0  0  0  0  0  0  0
   -9.8571    2.4732   -0.0951 C   0  0  0  0  0  0  0  0  0  0  0  0
  -11.2591    2.4005   -0.3556 O   0  0  0  0  0  0  0  0  0  0  0  0
  -11.9647    3.3866   -1.0643 C   0  0  0  0  0  0  0  0  0  0  0  0
  -11.5458    4.3897   -1.5929 O   0  0  0  0  0  0  0  0  0  0  0  0
  -13.4328    3.1390   -1.0957 C   0  0  0  0  0  0  0  0  0  0  0  0
   -9.3599    1.5903    0.8919 C   0  0  0  0  0  0  0  0  0  0  0  0
   -8.0334    1.7059    1.3116 C   0  0  0  0  0  0  0  0  0  0  0  0
   -0.3663    1.2663   -0.1353 C   0  0  0  0  0  0  0  0  0  0  0  0
    0.9940    1.0369   -0.0643 C   0  0  0  0  0  0  0  0  0  0  0  0
  1  2  2  0
  1 27  1  0
  2  3  1  0
  3  4  2  0
  4  5  1  0
  4 26  1  0
  5  6  1  0
  6  7  1  0
  7  8  1  0
  8  9  2  0
  8 10  1  0
 10 11  2  0
 11 12  1  0
 12 13  2  0
 12 25  1  0
 13 14  1  0
 14 15  1  0
 14 19  2  0
 15 16  1  0
 16 17  2  0
 16 18  1  0
 19 20  1  0
 19 24  1  0
 20 21  1  0
 21 22  2  0
 21 23  1  0
 24 25  2  0
 26 27  2  0
M  END
>  <DRUGBANK_ID>  (1) 
DB08753

>  <COMMON_NAME>  (1) 
4-{(1E)-3-OXO-3-[(2-PHENYLETHYL)AMINO]PROP-1-EN-1-YL}-1,2-PHENYLENE DIACETATE

$$$$
