
     RDKit          3D

 19 18  0  0  0  0  0  0  0  0999 V2000
    1.1124   -0.3790   -0.0047 O   0  0  0  0  0  0  0  0  0  0  0  0
    0.6987    0.8882    0.4673 C   0  0  0  0  0  0  0  0  0  0  0  0
    1.3736    1.1535    1.8432 C   0  0  0  0  0  0  0  0  0  0  0  0
    2.7760    1.5549    1.7995 N   0  0  0  0  0  0  0  0  0  0  0  0
    3.3979    2.7585    2.0945 C   0  0  0  0  0  0  0  0  0  0  0  0
    4.6189    2.7529    2.1116 O   0  0  0  0  0  0  0  0  0  0  0  0
    2.6619    4.0904    2.4265 C   0  0  0  0  0  0  0  0  0  0  0  0
    1.9068    4.8012    1.2831 C   0  0  0  0  0  0  0  0  0  0  0  0
    0.7759    3.9598    0.8143 C   0  0  0  0  0  0  0  0  0  0  0  0
   -0.1728    3.7230    1.9506 C   0  0  0  0  0  0  0  0  0  0  0  0
   -1.0139    4.9235    2.2648 C   0  0  0  0  0  0  0  0  0  0  0  0
   -2.0709    5.0695    1.2313 C   0  0  0  0  0  0  0  0  0  0  0  0
   -2.9730    3.8171    1.2108 C   0  0  0  0  0  0  0  0  0  0  0  0
   -3.8311    3.5180    2.4757 C   0  0  0  0  0  0  0  0  0  0  0  0
   -5.0436    3.6377    2.3933 O   0  0  0  0  0  0  0  0  0  0  0  0
   -3.3309    3.0987    3.6989 N   0  0  0  0  0  0  0  0  0  0  0  0
   -1.9881    2.7026    4.1114 C   0  0  0  0  0  0  0  0  0  0  0  0
   -1.2603    3.6749    5.0828 C   0  0  0  0  0  0  0  0  0  0  0  0
   -1.7826    3.4921    6.3843 O   0  0  0  0  0  0  0  0  0  0  0  0
  1  2  1  0
  2  3  1  0
  3  4  1  0
  4  5  1  0
  5  6  2  0
  5  7  1  0
  7  8  1  0
  8  9  1  0
  9 10  1  0
 10 11  1  0
 11 12  1  0
 12 13  1  0
 13 14  1  0
 14 15  2  0
 14 16  1  0
 16 17  1  0
 17 18  1  0
 18 19  1  0
M  END
>  <DRUGBANK_ID>  (1) 
DB16083

>  <COMMON_NAME>  (1) 
Adelmidrol

>  <CAS_NUMBER>  (1) 
1675-66-7

>  <UNII>  (1) 
1BUC3685QU

>  <SYNONYMS>  (1) 
Adelmidrol

$$$$
