
     RDKit          3D

 16 16  0  0  1  0  0  0  0  0999 V2000
    0.6786    1.3154   -0.3458 C   0  0  1  0  0  0  0  0  0  0  0  0
    1.4207   -0.0004    0.0001 C   0  0  2  0  0  0  0  0  0  0  0  0
    0.6589   -1.2031   -0.2324 O   0  0  0  0  0  0  0  0  0  0  0  0
   -0.7472    1.2857    0.2217 C   0  0  2  0  0  0  0  0  0  0  0  0
   -0.6993   -1.2006    0.2556 C   0  0  1  0  0  0  0  0  0  0  0  0
   -1.4596    0.0246   -0.2421 C   0  0  1  0  0  0  0  0  0  0  0  0
    1.3879    2.5149    0.1606 N   0  0  0  0  0  0  0  0  0  0  0  0
   -1.5001    2.4263   -0.2221 O   0  0  0  0  0  0  0  0  0  0  0  0
   -2.8103    0.0275    0.2181 O   0  0  0  0  0  0  0  0  0  0  0  0
   -1.4398   -2.4503   -0.2614 C   0  0  0  0  0  0  0  0  0  0  0  0
   -0.8106   -3.6425    0.1946 O   0  0  0  0  0  0  0  0  0  0  0  0
    1.8282    0.0999    1.3484 O   0  0  0  0  0  0  0  0  0  0  0  0
    3.7243    0.1842    3.1251 O   0  0  0  0  0  0  0  0  0  0  0  0
    3.2734   -1.8604    1.5683 O   0  0  0  0  0  0  0  0  0  0  0  0
    3.3188   -0.2820    1.7675 P   0  0  0  0  0  0  0  0  0  0  0  0
    4.3031    0.1767    0.6019 O   0  0  0  0  0  0  0  0  0  0  0  0
  1  7  1  1
  1  4  1  0
  2  1  1  0
  2  3  1  0
  2 12  1  1
  3  5  1  0
  4  6  1  0
  4  8  1  6
  5 10  1  6
  5  6  1  0
  6  9  1  1
 10 11  1  0
 12 15  1  0
 15 13  2  0
 15 14  1  0
 15 16  1  0
M  END
>  <DRUGBANK_ID>  (1) 
DB03111

>  <SECONDARY_ACCESSION_NUMBERS>  (1) 
EXPT01631

>  <COMMON_NAME>  (1) 
Glucosamine 1-Phosphate

>  <UNII>  (1) 
BSG3MU7VAE

$$$$
