
     RDKit          3D

 10 11  0  0  0  0  0  0  0  0999 V2000
    2.1672    0.6442   -0.0058 C   0  0  0  0  0  0  0  0  0  0  0  0
    2.4348   -0.7130   -0.0089 C   0  0  0  0  0  0  0  0  0  0  0  0
    1.2348   -1.3921    0.0013 N   0  0  0  0  0  0  0  0  0  0  0  0
    0.2133   -0.4822    0.0056 C   0  0  0  0  0  0  0  0  0  0  0  0
   -1.1941   -0.6939    0.0010 C   0  0  0  0  0  0  0  0  0  0  0  0
   -1.7499   -1.7862    0.0041 O   0  0  0  0  0  0  0  0  0  0  0  0
   -1.8855    0.4952   -0.0120 N   0  0  0  0  0  0  0  0  0  0  0  0
   -1.2580    1.7235   -0.0120 C   0  0  0  0  0  0  0  0  0  0  0  0
    0.0204    1.9412   -0.0007 N   0  0  0  0  0  0  0  0  0  0  0  0
    0.7718    0.7657    0.0046 C   0  0  0  0  0  0  0  0  0  0  0  0
  2  1  2  0
  2  3  1  0
  4  3  1  0
  4  5  1  0
  5  6  2  0
  5  7  1  0
  8  7  1  0
  8  9  2  0
 10  1  1  0
 10  4  2  0
 10  9  1  0
M  END
>  <DRUGBANK_ID>  (1) 
DB04095

>  <SECONDARY_ACCESSION_NUMBERS>  (1) 
EXPT00359

>  <COMMON_NAME>  (1) 
9-Deazahypoxanthine

$$$$
