
     RDKit          3D

 24 24  0  0  0  0  0  0  0  0999 V2000
    1.2055    1.3644   -0.0605 C   0  0  0  0  0  0  0  0  0  0  0  0
   -0.0928    1.7374   -0.0476 C   0  0  0  0  0  0  0  0  0  0  0  0
    1.5628   -0.0803    0.0176 C   0  0  0  0  0  0  0  0  0  0  0  0
    2.1654    2.3541   -0.1342 O   0  0  0  0  0  0  0  0  0  0  0  0
   -1.1564    0.7298   -0.0060 C   0  0  0  0  0  0  0  0  0  0  0  0
   -0.5976    3.0209   -0.0771 O   0  0  0  0  0  0  0  0  0  0  0  0
    0.4762   -1.1102   -0.0534 C   0  0  0  0  0  0  0  0  0  0  0  0
    2.7443   -0.4395    0.1026 O   0  0  0  0  0  0  0  0  0  0  0  0
    3.5464    2.0670   -0.1733 C   0  0  0  0  0  0  0  0  0  0  0  0
   -0.8189   -0.6984   -0.1590 C   0  0  0  0  0  0  0  0  0  0  0  0
   -2.3347    1.0848    0.1353 O   0  0  0  0  0  0  0  0  0  0  0  0
    0.2986    4.1093   -0.1130 C   0  0  0  0  0  0  0  0  0  0  0  0
    1.0452   -2.5370   -0.0087 C   0  0  0  0  0  0  0  0  0  0  0  0
   -2.1054   -1.4621   -0.4016 C   0  0  0  0  0  0  0  0  0  0  0  0
    0.6682   -3.3256    1.2596 C   0  0  0  0  0  0  0  0  0  0  0  0
   -0.8314   -3.4528    1.3702 C   0  0  0  0  0  0  0  0  0  0  0  0
   -1.3858   -4.1144    0.0734 C   0  0  0  0  0  0  0  0  0  0  0  0
   -1.0226   -5.5737    0.0125 C   0  0  0  0  0  0  0  0  0  0  0  0
   -1.6551   -6.2411    1.2216 C   0  0  0  0  0  0  0  0  0  0  0  0
   -3.1867   -6.0891    1.1837 C   0  0  0  0  0  0  0  0  0  0  0  0
   -3.7585   -6.7462   -0.0774 C   0  0  0  0  0  0  0  0  0  0  0  0
   -3.3533   -8.2227   -0.1340 C   0  0  0  0  0  0  0  0  0  0  0  0
   -3.8407   -8.9725    1.1016 C   0  0  0  0  0  0  0  0  0  0  0  0
   -5.2590   -8.9281    1.1685 O   0  0  0  0  0  0  0  0  0  0  0  0
  1  2  2  0
  1  3  1  0
  1  4  1  0
  2  5  1  0
  2  6  1  0
  3  7  1  0
  3  8  2  0
  4  9  1  0
  5 10  1  0
  5 11  2  0
  6 12  1  0
  7 13  1  0
  7 10  2  0
 10 14  1  0
 13 15  1  0
 15 16  1  0
 16 17  1  0
 17 18  1  0
 18 19  1  0
 19 20  1  0
 20 21  1  0
 21 22  1  0
 22 23  1  0
 23 24  1  0
M  END
>  <DRUGBANK_ID>  (1) 
DB09081

>  <COMMON_NAME>  (1) 
Idebenone

>  <CAS_NUMBER>  (1) 
58186-27-9

>  <UNII>  (1) 
HB6PN45W4J

>  <SYNONYMS>  (1) 
2-(10-hydroxydecyl)-5,6-dimethoxy-3-methyl-1,4-benzoquinone; 2-(10-hydroxydecyl)-5,6-dimethoxy-3-methyl-p-benzoquinone; 2-(10-hydroxydecyl)-5,6-dimethoxy-3-methylcyclohexa-2,5-diene-1,4-dione; 2,3-dimethoxy-5-methyl-6-(10'-hydroxydecyl)-1,4-benzoquinone; 6-(10-hydroxydecyl)-2,3-dimethoxy-5-methyl-1,4-benzoquinone; 6-(10-hydroxydecyl)-2,3-dimethoxy-5-methyl-p-benzoquinone; idebenona; Idebenone; idébénone

$$$$
