
     RDKit          3D

 26 27  0  0  0  0  0  0  0  0999 V2000
    0.2072   -1.2545    0.0153 C   0  0  0  0  0  0  0  0  0  0  0  0
    0.8727   -2.5882    0.0412 C   0  0  0  0  0  0  0  0  0  0  0  0
   -9.6694   -0.9725   -0.4296 C   0  0  0  0  0  0  0  0  0  0  0  0
   -3.3410    0.0732   -0.0426 N   0  0  0  0  0  0  0  0  0  0  0  0
   -3.9200   -1.0139    0.1854 N   0  0  0  0  0  0  0  0  0  0  0  0
    0.9071   -0.0442    0.0105 C   0  0  0  0  0  0  0  0  0  0  0  0
  -11.5656    0.9399   -3.7951 C   0  0  0  0  0  0  0  0  0  0  0  0
   -1.2030   -1.2299    0.0029 C   0  0  0  0  0  0  0  0  0  0  0  0
   -8.1675   -1.0410   -0.3451 C   0  0  0  0  0  0  0  0  0  0  0  0
  -10.1013    0.7536   -3.5149 C   0  0  0  0  0  0  0  0  0  0  0  0
    0.3190   -3.6614    0.0583 O   0  0  0  0  0  0  0  0  0  0  0  0
  -10.3472   -1.7562    0.2368 O   0  0  0  0  0  0  0  0  0  0  0  0
   -1.9236   -0.0197   -0.0019 C   0  0  0  0  0  0  0  0  0  0  0  0
  -11.8545    1.9333   -4.6591 O   0  0  0  0  0  0  0  0  0  0  0  0
  -10.3337   -0.0218   -1.1778 N   0  0  0  0  0  0  0  0  0  0  0  0
    0.2145    1.1638    0.0116 C   0  0  0  0  0  0  0  0  0  0  0  0
   -7.3130   -0.2890   -1.1470 C   0  0  0  0  0  0  0  0  0  0  0  0
   -7.5480   -1.8806    0.5858 C   0  0  0  0  0  0  0  0  0  0  0  0
   -5.3259   -0.9473    0.0460 C   0  0  0  0  0  0  0  0  0  0  0  0
    2.2251   -2.4985    0.0505 O   0  0  0  0  0  0  0  0  0  0  0  0
   -9.8951    1.0700   -2.0399 C   0  0  0  0  0  0  0  0  0  0  0  0
  -12.4392    0.2930   -3.2355 O   0  0  0  0  0  0  0  0  0  0  0  0
   -1.1862    1.1738    0.0024 C   0  0  0  0  0  0  0  0  0  0  0  0
   -6.1463   -1.8226    0.7779 C   0  0  0  0  0  0  0  0  0  0  0  0
   -5.9462   -0.1594   -0.9096 C   0  0  0  0  0  0  0  0  0  0  0  0
    2.2721    0.0522    0.0008 O   0  0  0  0  0  0  0  0  0  0  0  0
  2  1  1  0
  3  9  1  0
  4 13  1  0
  5  4  2  0
  6  1  2  0
  7 10  1  0
  8  1  1  0
  9 17  2  0
 10 21  1  0
 11  2  2  0
 12  3  2  0
 13  8  2  0
 14  7  1  0
 15  3  1  0
 16  6  1  0
 16 23  2  0
 17 25  1  0
 18 24  2  0
 18  9  1  0
 19  5  1  0
 20  2  1  0
 21 15  1  0
 22  7  2  0
 23 13  1  0
 24 19  1  0
 25 19  2  0
 26  6  1  0
M  END
>  <DRUGBANK_ID>  (1) 
DB01014

>  <SECONDARY_ACCESSION_NUMBERS>  (1) 
APRD00141

>  <COMMON_NAME>  (1) 
Balsalazide

>  <CAS_NUMBER>  (1) 
80573-04-2

>  <UNII>  (1) 
P80AL8J7ZP

>  <SYNONYMS>  (1) 
(E)-5-((4-(((2-carboxyethyl)amino)carbonyl)phenyl)azo)-2-hydroxybenzoic acid; (E)-5-({p-[(2-carboxyethyl)carbamoyl]phenyl}azo)-2-salicylic acid; 3-(2-{4-[(2-carboxyethyl)carbamoyl]phenyl}hydrazinylidene)-6-oxocyclohexa-1,4-diene-1-carboxylic acid; 5-[4-(2-carboxy-ethylcarbamoyl)-phenylazo]-2-hydroxy-benzoic acid; Balsalazida; Balsalazide; Balsalazidum

$$$$
