
     RDKit          3D

  1  0  0  0  0  0  0  0  0  0999 V2000
    0.9616    0.0742    0.0550 Fe  0  0  0  0  0 15  0  0  0  0  0  0
M  END
>  <DRUGBANK_ID>  (1) 
DB01592

>  <COMMON_NAME>  (1) 
Iron

>  <CAS_NUMBER>  (1) 
7439-89-6

>  <UNII>  (1) 
E1UOL152H7

>  <SYNONYMS>  (1) 
Carbonyl iron; Eisen; Electrolytic iron; Fe; fer; Ferrum; Ferrum metallicum; Hierro; Iron powder; Iron, carbonyl; Iron, electrolytic; Iron, elemental; Iron, reduced; Reduced iron

$$$$
