OPI
     RDKit          3D

 24 23  0  0  0  0  0  0  0  0999 V2000
   -0.3796   -9.6059   -2.0357 O   0  0  0  0  0  0  0  0  0  0  0  0
   -0.7095   -8.5542   -1.1515 C   0  0  0  0  0  0  0  0  0  0  0  0
   -2.0552   -7.9144   -1.4157 C   0  0  0  0  0  0  0  0  0  0  0  0
   -3.0673   -8.8525   -0.9618 N   0  0  0  0  0  0  0  0  0  0  0  0
   -3.9676   -8.7698    0.0541 C   0  0  0  0  0  0  0  0  0  0  0  0
   -4.6600   -9.7579    0.2990 O   0  0  0  0  0  0  0  0  0  0  0  0
   -4.1254   -7.5000    0.8594 C   0  0  0  0  0  0  0  0  0  0  0  0
   -3.0575   -7.2808    1.8992 C   0  0  0  0  0  0  0  0  0  0  0  0
   -1.7610   -7.0234    1.3311 N   0  0  0  0  0  0  0  0  0  0  0  0
   -1.0767   -5.8603    1.1092 C   0  0  0  0  0  0  0  0  0  0  0  0
   -0.2275   -5.7604    0.2249 O   0  0  0  0  0  0  0  0  0  0  0  0
   -1.3987   -4.7237    2.0376 C   0  0  2  0  0  0  0  0  0  0  0  0
   -0.9040   -3.4987    1.4966 O   0  0  0  0  0  0  0  0  0  0  0  0
   -0.8211   -5.0169    3.4554 C   0  0  0  0  0  0  0  0  0  0  0  0
   -1.2725   -3.8528    4.3433 C   0  0  0  0  0  0  0  0  0  0  0  0
   -1.4190   -6.2663    4.1325 C   0  0  0  0  0  0  0  0  0  0  0  0
    0.7357   -5.1462    3.4414 C   0  0  0  0  0  0  0  0  0  0  0  0
    1.2444   -6.2554    2.6458 O   0  0  0  0  0  0  0  0  0  0  0  0
    1.2174   -7.5185    3.1432 C   0  0  0  0  0  0  0  0  0  0  0  0
    0.8426   -7.8104    4.2866 O   0  0  0  0  0  0  0  0  0  0  0  0
    1.6760   -8.5866    2.1529 C   0  0  0  0  0  0  0  0  0  0  0  0
    1.3480   -8.2475    0.7366 C   0  0  0  0  0  0  0  0  0  0  0  0
    3.1767   -8.6538    2.1227 C   0  0  0  0  0  0  0  0  0  0  0  0
    0.9744   -9.9213    2.5003 C   0  0  0  0  0  0  0  0  0  0  0  0
  1  2  1  0
  2  3  1  0
  3  4  1  0
  4  5  1  0
  5  6  2  0
  5  7  1  0
  7  8  1  0
  8  9  1  0
  9 10  1  0
 10 11  2  0
 12 14  1  0
 12 13  1  6
 12 10  1  0
 14 15  1  0
 14 16  1  0
 14 17  1  0
 17 18  1  0
 18 19  1  0
 19 20  2  0
 19 21  1  0
 21 22  1  0
 21 23  1  0
 21 24  1  0
M  END
>  <DRUGBANK_ID>  (1) 
DB08328

>  <COMMON_NAME>  (1) 
PANTOTHENYL-AMINOETHANOL-11-PIVALIC ACID

$$$$
