F1J
     RDKit          3D

 20 21  0  0  0  0  0  0  0  0999 V2000
   -0.0057    1.4736    2.0676 C   0  0  0  0  0  0  0  0  0  0  0  0
    1.1791   -1.3060   -2.2706 C   0  0  0  0  0  0  0  0  0  0  0  0
    1.5888   -0.0004   -2.5704 C   0  0  0  0  0  0  0  0  0  0  0  0
    1.7167   -1.9625   -1.1779 C   0  0  0  0  0  0  0  0  0  0  0  0
    2.6183   -1.3138   -0.3441 C   0  0  0  0  0  0  0  0  0  0  0  0
    2.8613    0.0582   -0.5225 C   0  0  0  0  0  0  0  0  0  0  0  0
    2.2690    0.7488   -1.6024 C   0  0  0  0  0  0  0  0  0  0  0  0
    2.1306    2.2715   -1.6289 C   0  0  0  0  0  0  0  0  0  0  0  0
    0.4121    2.5175    0.0261 C   0  0  0  0  0  0  0  0  0  0  0  0
   -0.1237    1.2282    0.5293 C   0  0  2  0  0  0  0  0  0  0  0  0
   -0.3891    2.5779   -2.1032 C   0  0  0  0  0  0  0  0  0  0  0  0
   -1.0534    1.2211   -1.6772 C   0  0  0  0  0  0  0  0  0  0  0  0
   -0.4564    0.6445    2.8923 O   0  0  0  0  0  0  0  0  0  0  0  0
    0.7799    2.5371    2.5965 N   0  0  0  0  0  0  0  0  0  0  0  0
    1.5489    3.7928    2.0678 C   0  0  0  0  0  0  0  0  0  0  0  0
    0.7354    5.0745    2.1709 C   0  0  0  0  0  0  0  0  0  0  0  0
    0.8144    5.6453    3.8710 S   0  0  0  0  0  0  0  0  0  0  0  0
   -1.3804    0.9509   -0.2284 N   0  0  0  0  0  0  0  0  0  0  0  0
    0.7955    2.8657   -1.3097 N   0  0  0  0  0  0  0  0  0  0  0  0
    1.3331   -3.2176   -0.9108 F   0  0  0  0  0  0  0  0  0  0  0  0
  1 13  2  0
  1 14  1  0
  2  3  2  0
  2  4  1  0
  3  7  1  0
  4  5  2  0
  4 20  1  0
  5  6  1  0
  6  7  2  0
  7  8  1  0
  8 19  1  0
  9 10  1  0
  9 19  1  0
 10 18  1  0
 10  1  1  1
 11 12  1  0
 11 19  1  0
 12 18  1  0
 14 15  1  0
 15 16  1  0
 16 17  1  0
M  END
>  <DRUGBANK_ID>  (1) 
DB07736

>  <COMMON_NAME>  (1) 
(2S)-4-(4-fluorobenzyl)-N-(2-sulfanylethyl)piperazine-2-carboxamide

$$$$
