
     RDKit          3D

 18 18  0  0  0  0  0  0  0  0999 V2000
    0.9578    0.1001    0.1572 N   0  0  0  0  0  0  0  0  0  0  0  0
    0.5163    1.1632   -0.7384 C   0  0  0  0  0  0  0  0  0  0  0  0
    1.0053    0.9340   -2.1709 C   0  0  0  0  0  0  0  0  0  0  0  0
    0.4924   -0.3700   -2.7700 C   0  0  0  0  0  0  0  0  0  0  0  0
   -1.0208   -0.4399   -2.7736 C   0  0  0  0  0  0  0  0  0  0  0  0
   -1.6226    0.5417   -3.6587 N   0  0  0  0  0  0  0  0  0  0  0  0
   -2.3852    0.3084   -4.7777 C   0  0  0  0  0  0  0  0  0  0  0  0
   -2.7117    1.2322   -5.5150 O   0  0  0  0  0  0  0  0  0  0  0  0
   -2.8398   -1.0757   -5.0655 C   0  0  0  0  0  0  0  0  0  0  0  0
   -3.3593   -1.8623   -4.0287 C   0  0  0  0  0  0  0  0  0  0  0  0
   -3.7294   -3.1826   -4.2559 C   0  0  0  0  0  0  0  0  0  0  0  0
   -3.6885   -3.6906   -5.5545 C   0  0  0  0  0  0  0  0  0  0  0  0
   -3.2715   -2.8825   -6.6201 C   0  0  0  0  0  0  0  0  0  0  0  0
   -2.7977   -1.5856   -6.3671 C   0  0  0  0  0  0  0  0  0  0  0  0
   -4.0473   -5.4099   -5.8009 S   0  0  0  0  0  0  0  0  0  0  0  0
   -5.3907   -5.4066   -6.8116 N   0  0  0  0  0  0  0  0  0  0  0  0
   -2.9503   -5.9957   -6.5439 O   0  0  0  0  0  0  0  0  0  0  0  0
   -4.5097   -5.9689   -4.5569 O   0  0  0  0  0  0  0  0  0  0  0  0
  1  2  1  0
  2  3  1  0
  3  4  1  0
  4  5  1  0
  5  6  1  0
  6  7  1  0
  7  8  2  0
  7  9  1  0
  9 10  2  0
  9 14  1  0
 10 11  1  0
 11 12  2  0
 12 13  1  0
 12 15  1  0
 13 14  2  0
 15 16  1  0
 15 17  2  0
 15 18  2  0
M  END
>  <DRUGBANK_ID>  (1) 
DB03697

>  <SECONDARY_ACCESSION_NUMBERS>  (1) 
EXPT02838

>  <COMMON_NAME>  (1) 
4-Sulfonamide-[1-(4-Aminobutane)]Benzamide

$$$$
