
     RDKit          3D

 30 30  0  0  0  0  0  0  0  0999 V2000
    2.4783   -9.4830   -1.4397 C   0  0  0  0  0  0  0  0  0  0  0  0
    3.8455   -6.6478    1.7479 C   0  0  0  0  0  0  0  0  0  0  0  0
    2.1561   -3.5152    0.5203 C   0  0  0  0  0  0  0  0  0  0  0  0
    6.0078   -7.4605   -3.0723 C   0  0  0  0  0  0  0  0  0  0  0  0
    8.0371    3.2857   -1.7447 C   0  0  0  0  0  0  0  0  0  0  0  0
    1.9738   -9.2605   -0.0167 C   0  0  0  0  0  0  0  0  0  0  0  0
    4.1724   -0.7525    2.3621 C   0  0  0  0  0  0  0  0  0  0  0  0
    5.6645   -0.7456    2.0282 C   0  0  0  0  0  0  0  0  0  0  0  0
    3.0826   -9.0055    1.0251 C   0  0  0  0  0  0  0  0  0  0  0  0
    3.2531   -1.3998    1.3223 C   0  0  0  0  0  0  0  0  0  0  0  0
    4.6421   -7.6990   -0.3701 C   0  0  0  0  0  0  0  0  0  0  0  0
    5.3075   -6.5315   -0.8641 C   0  0  0  0  0  0  0  0  0  0  0  0
    5.9604   -0.0082    0.7359 C   0  0  0  0  0  0  0  0  0  0  0  0
    4.6117   -2.7703   -1.0645 C   0  0  0  0  0  0  0  0  0  0  0  0
    3.8966   -7.7636    0.7475 C   0  0  0  0  0  0  0  0  0  0  0  0
    3.4528   -2.9189    1.1208 C   0  0  2  0  0  0  0  0  0  0  0  0
    5.9925   -6.3989   -2.0096 C   0  0  0  0  0  0  0  0  0  0  0  0
    5.7428   -3.0388   -1.9295 C   0  0  0  0  0  0  0  0  0  0  0  0
    4.6359   -3.1796    0.2036 C   0  0  0  0  0  0  0  0  0  0  0  0
    6.8184   -3.9407   -1.4374 C   0  0  2  0  0  0  0  0  0  0  0  0
    6.8187   -5.1676   -2.3296 C   0  0  0  0  0  0  0  0  0  0  0  0
    6.8412   -4.2338    0.0298 C   0  0  0  0  0  0  0  0  0  0  0  0
    6.9277    1.5659   -0.5690 C   0  0  0  0  0  0  0  0  0  0  0  0
    6.7671    1.0011    0.6751 N   0  0  0  0  0  0  0  0  0  0  0  0
    5.7104   -2.5710   -3.0638 O   0  0  0  0  0  0  0  0  0  0  0  0
    7.4299   -5.1393   -3.4028 O   0  0  0  0  0  0  0  0  0  0  0  0
    7.7340   -4.9048    0.5445 O   0  0  0  0  0  0  0  0  0  0  0  0
    6.3701    1.2009   -1.6035 O   0  0  0  0  0  0  0  0  0  0  0  0
    7.7960    2.6094   -0.5047 O   0  0  0  0  0  0  0  0  0  0  0  0
    5.7628   -3.8200    0.7766 O   0  0  0  0  0  0  0  0  0  0  0  0
  6  1  1  0
  8  7  1  0
  9  6  1  0
 10  7  1  0
 12 11  1  0
 13  8  1  0
 15  2  1  0
 15  9  1  0
 15 11  2  0
 16 19  1  0
 16 10  1  0
 16  3  1  6
 17  4  1  0
 17 12  2  0
 18 14  1  0
 19 14  2  0
 20 18  1  0
 21 17  1  0
 20 21  1  6
 22 20  1  0
 24 13  2  0
 24 23  1  0
 25 18  2  0
 26 21  2  0
 27 22  2  0
 28 23  2  0
 29  5  1  0
 29 23  1  0
 30 19  1  0
 30 22  1  0
M  END
>  <DRUGBANK_ID>  (1) 
DB08266

>  <COMMON_NAME>  (1) 
Methyl [(1E,5R)-5-{3-[(2E,4E)-2,5-dimethyl-2,4-octadienoyl]-2,4-dioxo-3,4-dihydro-2H-pyran-6-yl}hexylidene]carbamate

$$$$
