
     RDKit          3D

 22 24  0  0  0  0  0  0  0  0999 V2000
   -0.1077   -1.4234   -0.0001 C   0  0  0  0  0  0  0  0  0  0  0  0
    1.1050   -0.7902    0.0095 C   0  0  0  0  0  0  0  0  0  0  0  0
    1.2382    0.5483    0.0137 N   0  0  0  0  0  0  0  0  0  0  0  0
    0.1176    1.2789    0.0047 C   0  0  0  0  0  0  0  0  0  0  0  0
   -1.1132    0.7548   -0.0089 N   0  0  0  0  0  0  0  0  0  0  0  0
   -1.1991   -0.5933   -0.0125 C   0  0  0  0  0  0  0  0  0  0  0  0
    0.2035    2.6461    0.0291 N   0  0  0  0  0  0  0  0  0  0  0  0
    1.4703    3.3220    0.0044 C   0  0  0  0  0  0  0  0  0  0  0  0
    1.5766    4.2429   -1.1888 C   0  0  0  0  0  0  0  0  0  0  0  0
    0.8232    5.4216   -1.2364 C   0  0  0  0  0  0  0  0  0  0  0  0
    0.9492    6.3063   -2.3127 C   0  0  0  0  0  0  0  0  0  0  0  0
    1.8435    6.0423   -3.3625 C   0  0  0  0  0  0  0  0  0  0  0  0
    2.6165    4.8735   -3.2993 C   0  0  0  0  0  0  0  0  0  0  0  0
    2.4576    3.9654   -2.2438 C   0  0  0  0  0  0  0  0  0  0  0  0
    1.8713    6.9297   -4.5957 C   0  0  0  0  0  0  0  0  0  0  0  0
    3.1502    7.5803   -4.8004 N   0  0  0  0  0  0  0  0  0  0  0  0
    3.8413    7.2228   -5.9431 C   0  0  0  0  0  0  0  0  0  0  0  0
    5.1479    6.9434   -5.8210 N   0  0  0  0  0  0  0  0  0  0  0  0
    5.8265    6.6717   -6.9586 C   0  0  0  0  0  0  0  0  0  0  0  0
    5.2655    6.7160   -8.2103 C   0  0  0  0  0  0  0  0  0  0  0  0
    3.9316    7.0285   -8.2315 C   0  0  0  0  0  0  0  0  0  0  0  0
    3.2012    7.2540   -7.1221 N   0  0  0  0  0  0  0  0  0  0  0  0
  1  2  2  0
  1  6  1  0
  2  3  1  0
  3  4  2  0
  4  5  1  0
  4  7  1  0
  5  6  2  0
  7  8  1  0
  8  9  1  0
  9 10  2  0
  9 14  1  0
 10 11  1  0
 11 12  2  0
 12 13  1  0
 12 15  1  0
 13 14  2  0
 15 16  1  0
 16 17  1  0
 17 18  2  0
 17 22  1  0
 18 19  1  0
 19 20  2  0
 20 21  1  0
 21 22  2  0
M  END
>  <DRUGBANK_ID>  (1) 
DB12715

>  <COMMON_NAME>  (1) 
MSX-122

>  <CAS_NUMBER>  (1) 
897657-95-3

>  <UNII>  (1) 
69D634Q702

$$$$
