
     RDKit          3D

 24 25  0  0  0  0  0  0  0  0999 V2000
   -0.0035    3.7010    3.4994 C   0  0  0  0  0  0  0  0  0  0  0  0
   -0.6228    4.9494    3.5780 C   0  0  0  0  0  0  0  0  0  0  0  0
   -1.4511    5.3911    2.5365 C   0  0  0  0  0  0  0  0  0  0  0  0
   -1.5736    4.5944    1.4100 C   0  0  0  0  0  0  0  0  0  0  0  0
   -0.8748    3.3702    1.2726 C   0  0  0  0  0  0  0  0  0  0  0  0
   -0.1667    2.9033    2.3868 C   0  0  0  0  0  0  0  0  0  0  0  0
   -1.0494    2.5922   -0.0203 C   0  0  2  0  0  0  0  0  0  0  0  0
   -0.3411    1.1910   -0.1594 C   0  0  0  0  0  0  0  0  0  0  0  0
   -0.9591   -0.1185    0.4367 C   0  0  0  0  0  0  0  0  0  0  0  0
   -2.0446   -0.8657   -0.2910 N   0  0  0  0  0  0  0  0  0  0  0  0
   -2.1294   -2.2916    0.1475 C   0  0  0  0  0  0  0  0  0  0  0  0
   -2.5471   -2.4994    1.6100 C   0  0  0  0  0  0  0  0  0  0  0  0
   -3.0665   -3.1000   -0.7733 C   0  0  0  0  0  0  0  0  0  0  0  0
   -3.3844   -0.2231   -0.3467 C   0  0  0  0  0  0  0  0  0  0  0  0
   -3.9693    0.2007    0.9985 C   0  0  0  0  0  0  0  0  0  0  0  0
   -3.3803    0.9336   -1.3008 C   0  0  0  0  0  0  0  0  0  0  0  0
   -2.1955    6.6882    2.6140 C   0  0  0  0  0  0  0  0  0  0  0  0
    0.3185    1.6323    2.4021 O   0  0  0  0  0  0  0  0  0  0  0  0
   -0.7810    3.3533   -1.3563 C   0  0  0  0  0  0  0  0  0  0  0  0
   -1.0901    2.7437   -2.6029 C   0  0  0  0  0  0  0  0  0  0  0  0
   -0.8839    3.3730   -3.8256 C   0  0  0  0  0  0  0  0  0  0  0  0
   -0.3370    4.6338   -3.8371 C   0  0  0  0  0  0  0  0  0  0  0  0
   -0.0177    5.2676   -2.6342 C   0  0  0  0  0  0  0  0  0  0  0  0
   -0.2156    4.6199   -1.4085 C   0  0  0  0  0  0  0  0  0  0  0  0
  1  2  2  0
  1  6  1  0
  2  3  1  0
  3  4  2  0
  3 17  1  0
  4  5  1  0
  5  6  2  0
  6 18  1  0
  7 19  1  0
  7  8  1  1
  7  5  1  0
  8  9  1  0
  9 10  1  0
 10 11  1  0
 10 14  1  0
 11 12  1  0
 11 13  1  0
 14 15  1  0
 14 16  1  0
 19 20  2  0
 19 24  1  0
 20 21  1  0
 21 22  2  0
 22 23  1  0
 23 24  2  0
M  END
>  <DRUGBANK_ID>  (1) 
DB01036

>  <SECONDARY_ACCESSION_NUMBERS>  (1) 
APRD00146

>  <COMMON_NAME>  (1) 
Tolterodine

>  <CAS_NUMBER>  (1) 
124937-51-5

>  <UNII>  (1) 
WHE7A56U7K

>  <SYNONYMS>  (1) 
(+)-(R)-2-(alpha-(2-(Diisopropylamino)ethyl)benzyl)-p-cresol; (+)-Tolterodine; Tolterodina; Tolterodine; Tolterodinum

$$$$
