RDE
     RDKit          3D

 27 28  0  0  0  0  0  0  0  0999 V2000
    0.9042   -0.0354    0.0026 C   0  0  0  0  0  0  0  0  0  0  0  0
    0.4351   -0.8750    1.0430 O   0  0  0  0  0  0  0  0  0  0  0  0
    0.8679   -2.1738    1.0081 C   0  0  0  0  0  0  0  0  0  0  0  0
    2.1903   -2.5755    0.7264 C   0  0  0  0  0  0  0  0  0  0  0  0
    3.1434   -1.6287    0.4793 O   0  0  0  0  0  0  0  0  0  0  0  0
    4.4701   -2.0816    0.2427 C   0  0  0  0  0  0  0  0  0  0  0  0
    2.5198   -3.9212    0.7524 C   0  0  0  0  0  0  0  0  0  0  0  0
    1.6728   -4.8454    1.3350 C   0  0  0  0  0  0  0  0  0  0  0  0
    2.1161   -6.1843    1.1475 N   0  0  0  0  0  0  0  0  0  0  0  0
    0.3962   -4.3865    1.7895 C   0  0  0  0  0  0  0  0  0  0  0  0
   -0.5351   -4.9953    2.6320 O   0  0  0  0  0  0  0  0  0  0  0  0
   -0.5990   -6.3689    2.4942 C   0  0  0  0  0  0  0  0  0  0  0  0
   -0.0685   -3.1137    1.4485 C   0  0  0  0  0  0  0  0  0  0  0  0
   -1.5699   -2.8718    1.5194 C   0  0  0  0  0  0  0  0  0  0  0  0
   -2.3940   -3.6013    0.3951 C   0  0  0  0  0  0  0  0  0  0  0  0
   -2.3082   -5.1045    0.3163 O   0  0  0  0  0  0  0  0  0  0  0  0
   -1.2492   -5.7100   -0.3763 C   0  0  0  0  0  0  0  0  0  0  0  0
   -0.4490   -5.0879   -1.0198 O   0  0  0  0  0  0  0  0  0  0  0  0
   -1.1599   -7.3021   -0.2326 C   0  0  0  0  0  0  0  0  0  0  0  0
   -0.0777   -8.0709    0.3821 C   0  0  0  0  0  0  0  0  0  0  0  0
   -0.0452   -9.4215    0.6626 C   0  0  0  0  0  0  0  0  0  0  0  0
    1.1969  -10.0921    1.6791 Cl  0  0  0  0  0  0  0  0  0  0  0  0
   -1.0638  -10.1525    0.1527 C   0  0  0  0  0  0  0  0  0  0  0  0
   -0.9983  -11.5085    0.2663 O   0  0  0  0  0  0  0  0  0  0  0  0
   -2.1354   -9.4915   -0.4885 C   0  0  0  0  0  0  0  0  0  0  0  0
   -2.2157   -8.0780   -0.6337 C   0  0  0  0  0  0  0  0  0  0  0  0
   -3.3487   -7.5353   -1.1697 O   0  0  0  0  0  0  0  0  0  0  0  0
  1  2  1  0
  2  3  1  0
  3  4  2  0
  3 13  1  0
  4  5  1  0
  4  7  1  0
  5  6  1  0
  7  8  2  0
  8  9  1  0
  8 10  1  0
 10 11  1  0
 10 13  2  0
 11 12  1  0
 13 14  1  0
 14 15  1  0
 15 16  1  0
 16 17  1  0
 17 18  2  0
 17 19  1  0
 19 20  2  0
 19 26  1  0
 20 21  1  0
 21 22  1  0
 21 23  2  0
 23 24  1  0
 23 25  1  0
 25 26  2  0
 26 27  1  0
M  END
>  <DRUGBANK_ID>  (1) 
DB08465

>  <COMMON_NAME>  (1) 
2-(3-AMINO-2,5,6-TRIMETHOXYPHENYL)ETHYL 5-CHLORO-2,4-DIHYDROXYBENZOATE

$$$$
