
     RDKit          3D

 40 44  0  0  0  0  0  0  0  0999 V2000
    1.0351   -0.0238   -0.0090 C   0  0  0  0  0  0  0  0  0  0  0  0
    0.3455   -0.8541   -0.8732 N   0  0  0  0  0  0  0  0  0  0  0  0
   -0.7614   -0.3962   -1.7343 C   0  0  0  0  0  0  0  0  0  0  0  0
   -1.7219   -1.5125   -2.0605 C   0  0  0  0  0  0  0  0  0  0  0  0
   -1.1567   -2.7488   -2.3755 C   0  0  0  0  0  0  0  0  0  0  0  0
   -1.9613   -3.8186   -2.7318 C   0  0  0  0  0  0  0  0  0  0  0  0
   -3.3461   -3.7196   -2.7208 C   0  0  0  0  0  0  0  0  0  0  0  0
   -4.1547   -4.8439   -3.0124 N   0  0  0  0  0  0  0  0  0  0  0  0
   -3.6921   -6.0890   -3.4464 C   0  0  0  0  0  0  0  0  0  0  0  0
   -4.6800   -7.0876   -3.9414 C   0  0  0  0  0  0  0  0  0  0  0  0
   -5.6766   -6.7362   -4.8770 C   0  0  0  0  0  0  0  0  0  0  0  0
   -5.8807   -5.3281   -5.1848 C   0  0  0  0  0  0  0  0  0  0  0  0
   -4.9306   -4.5950   -5.9139 C   0  0  0  0  0  0  0  0  0  0  0  0
   -5.2113   -3.2894   -6.2856 C   0  0  0  0  0  0  0  0  0  0  0  0
   -6.4672   -2.7401   -5.9961 C   0  0  0  0  0  0  0  0  0  0  0  0
   -6.8059   -1.3264   -6.3629 C   0  0  0  0  0  0  0  0  0  0  0  0
   -7.8307   -1.2448   -7.2518 F   0  0  0  0  0  0  0  0  0  0  0  0
   -7.1970   -0.6192   -5.2664 F   0  0  0  0  0  0  0  0  0  0  0  0
   -5.7656   -0.6409   -6.9038 F   0  0  0  0  0  0  0  0  0  0  0  0
   -7.4161   -3.4895   -5.2903 C   0  0  0  0  0  0  0  0  0  0  0  0
   -7.0710   -4.7208   -4.7674 C   0  0  0  0  0  0  0  0  0  0  0  0
   -6.4435   -7.7641   -5.4836 C   0  0  0  0  0  0  0  0  0  0  0  0
   -7.4099   -7.6621   -6.4625 O   0  0  0  0  0  0  0  0  0  0  0  0
   -7.6912   -6.4030   -7.0564 C   0  0  0  0  0  0  0  0  0  0  0  0
   -6.2149   -9.0984   -5.1150 C   0  0  0  0  0  0  0  0  0  0  0  0
   -5.2064   -9.4358   -4.2139 C   0  0  0  0  0  0  0  0  0  0  0  0
   -4.4494   -8.4329   -3.6172 C   0  0  0  0  0  0  0  0  0  0  0  0
   -2.5190   -6.4516   -3.5316 O   0  0  0  0  0  0  0  0  0  0  0  0
   -3.9281   -2.4812   -2.4026 C   0  0  0  0  0  0  0  0  0  0  0  0
   -3.1152   -1.3778   -2.0796 C   0  0  0  0  0  0  0  0  0  0  0  0
    0.3334   -2.9166   -2.2857 C   0  0  0  0  0  0  0  0  0  0  0  0
    0.8268   -2.2296   -1.0203 C   0  0  0  0  0  0  0  0  0  0  0  0
    0.3003    0.9327    0.7110 O   0  0  0  0  0  0  0  0  0  0  0  0
   -1.0805    0.8419    1.0229 C   0  0  0  0  0  0  0  0  0  0  0  0
   -1.7464   -0.3796    1.1444 C   0  0  0  0  0  0  0  0  0  0  0  0
   -3.1365   -0.3947    1.2081 C   0  0  0  0  0  0  0  0  0  0  0  0
   -3.8391    0.8067    1.2713 C   0  0  0  0  0  0  0  0  0  0  0  0
   -3.1525    2.0237    1.2733 C   0  0  0  0  0  0  0  0  0  0  0  0
   -1.7698    2.0476    1.1043 C   0  0  0  0  0  0  0  0  0  0  0  0
    2.2537   -0.1297    0.1823 O   0  0  0  0  0  0  0  0  0  0  0  0
  1  2  1  0
  1 33  1  0
  1 40  2  0
  2  3  1  0
  2 32  1  0
  3  4  1  0
  4  5  2  0
  4 30  1  0
  5  6  1  0
  5 31  1  0
  6  7  2  0
  7  8  1  0
  7 29  1  0
  8  9  1  0
  9 10  1  0
  9 28  2  0
 10 11  1  0
 10 27  2  0
 11 12  1  0
 11 22  2  0
 12 13  2  0
 12 21  1  0
 13 14  1  0
 14 15  2  0
 15 16  1  0
 15 20  1  0
 16 17  1  0
 16 18  1  0
 16 19  1  0
 20 21  2  0
 22 23  1  0
 22 25  1  0
 23 24  1  0
 25 26  2  0
 26 27  1  0
 29 30  2  0
 31 32  1  0
 33 34  1  0
 34 35  2  0
 34 39  1  0
 35 36  1  0
 36 37  2  0
 37 38  1  0
 38 39  2  0
M  END
>  <DRUGBANK_ID>  (1) 
DB05678

>  <COMMON_NAME>  (1) 
SLx-4090

>  <CAS_NUMBER>  (1) 
913541-47-6

>  <UNII>  (1) 
F84YQX13FV

$$$$
