
     RDKit          3D

 10 10  0  0  1  0  0  0  0  0999 V2000
    3.0321   -1.3963   -1.0234 O   0  0  0  0  0  0  0  0  0  0  0  0
    2.5401   -0.8993   -2.2640 C   0  0  0  0  0  0  0  0  0  0  0  0
    1.0075   -0.9643   -2.2964 C   0  0  1  0  0  0  0  0  0  0  0  0
    0.4288    0.3112   -2.9342 C   0  0  0  0  0  0  0  0  0  0  0  0
   -1.0327    0.2880   -3.0020 N   0  0  0  0  0  0  0  0  0  0  0  0
   -1.5146   -0.8842   -3.7340 C   0  0  0  0  0  0  0  0  0  0  0  0
   -1.0366   -2.1850   -3.0852 C   0  0  1  0  0  0  0  0  0  0  0  0
   -1.5664   -3.2861   -3.8239 O   0  0  0  0  0  0  0  0  0  0  0  0
    0.5016   -2.2068   -3.0586 C   0  0  2  0  0  0  0  0  0  0  0  0
    0.9413   -3.4115   -2.4259 O   0  0  0  0  0  0  0  0  0  0  0  0
  1  2  1  0
  3  4  1  0
  3  9  1  0
  3  2  1  6
  4  5  1  0
  5  6  1  0
  6  7  1  0
  7  9  1  0
  7  8  1  6
  9 10  1  1
M  END
>  <DRUGBANK_ID>  (1) 
DB04545

>  <SECONDARY_ACCESSION_NUMBERS>  (1) 
EXPT01847

>  <COMMON_NAME>  (1) 
Afegostat

>  <CAS_NUMBER>  (1) 
169105-89-9

>  <UNII>  (1) 
G23AP190YS

>  <SYNONYMS>  (1) 
(3R,4R,5R)-5-(hydroxymethyl)piperidine-3,4-diol; Afegostat; Isofagomine

$$$$
