
     RDKit          3D

  8  7  0  0  0  0  0  0  0  0999 V2000
    0.9811    0.0950    0.0506 C   0  0  0  0  0  0  0  0  0  0  0  0
    0.4425    1.0791   -0.9874 C   0  0  0  0  0  0  0  0  0  0  0  0
    1.0048    0.7220   -2.3465 C   0  0  0  0  0  0  0  0  0  0  0  0
    0.1272    0.4707   -3.3392 O   0  0  0  0  0  0  0  0  0  0  0  0
    2.2133    0.6905   -2.5576 O   0  0  0  0  0  0  0  0  0  0  0  0
   -1.0567    1.0691   -0.9415 C   0  0  0  0  0  0  0  0  0  0  0  0
   -1.6519    2.2273   -0.6006 O   0  0  0  0  0  0  0  0  0  0  0  0
   -1.7163    0.0946   -1.2891 O   0  0  0  0  0  0  0  0  0  0  0  0
  1  2  1  0
  2  3  1  0
  2  6  1  0
  3  4  1  0
  3  5  2  0
  6  7  1  0
  6  8  2  0
M  END
>  <DRUGBANK_ID>  (1) 
DB04183

>  <SECONDARY_ACCESSION_NUMBERS>  (1) 
EXPT01309

>  <COMMON_NAME>  (1) 
Methylmalonic Acid

>  <CAS_NUMBER>  (1) 
516-05-2

>  <UNII>  (1) 
8LL8S712J7

$$$$
