BHB
     RDKit          3D

 20 21  0  0  0  0  0  0  0  0999 V2000
    0.9921   -0.0353    0.2152 N   0  0  0  0  0  0  0  0  0  0  0  0
    0.2985   -1.1531    0.6933 C   0  0  0  0  0  0  0  0  0  0  0  0
    0.6388   -1.7328    1.9270 C   0  0  0  0  0  0  0  0  0  0  0  0
   -0.0504   -2.8680    2.4499 C   0  0  0  0  0  0  0  0  0  0  0  0
   -1.0892   -3.4058    1.7177 C   0  0  0  0  0  0  0  0  0  0  0  0
   -1.7562   -4.4945    2.2813 N   0  0  0  0  0  0  0  0  0  0  0  0
   -2.7152   -5.0508    1.6358 C   0  0  0  0  0  0  0  0  0  0  0  0
   -3.3586   -6.0916    2.1952 N   0  0  0  0  0  0  0  0  0  0  0  0
   -3.0729   -4.6120    0.4043 N   0  0  0  0  0  0  0  0  0  0  0  0
   -2.4688   -3.5527   -0.2540 C   0  0  0  0  0  0  0  0  0  0  0  0
   -2.7834   -3.2119   -1.3737 O   0  0  0  0  0  0  0  0  0  0  0  0
   -1.3967   -2.8660    0.4812 C   0  0  0  0  0  0  0  0  0  0  0  0
   -0.7083   -1.7610   -0.0489 C   0  0  0  0  0  0  0  0  0  0  0  0
    0.2083   -3.6064    3.7555 C   0  0  0  0  0  0  0  0  0  0  0  0
   -1.1739   -3.2321    5.1439 S   0  0  0  0  0  0  0  0  0  0  0  0
   -1.5234   -1.3336    5.1151 C   0  0  0  0  0  0  0  0  0  0  0  0
   -0.4786   -0.3130    5.7436 C   0  0  0  0  0  0  0  0  0  0  0  0
    0.7969   -0.1709    5.0088 N   0  0  0  0  0  0  0  0  0  0  0  0
    1.8075    0.7187    5.5054 C   0  0  0  0  0  0  0  0  0  0  0  0
    1.4567   -1.4376    5.0466 C   0  0  0  0  0  0  0  0  0  0  0  0
  1  2  1  0
  2  3  2  0
  2 13  1  0
  3  4  1  0
  4  5  2  0
  4 14  1  0
  5  6  1  0
  5 12  1  0
  6  7  2  0
  7  8  1  0
  7  9  1  0
  9 10  1  0
 10 11  2  0
 10 12  1  0
 12 13  2  0
 14 15  1  0
 15 16  1  0
 16 17  1  0
 17 18  1  0
 18 19  1  0
 18 20  1  0
M  END
>  <DRUGBANK_ID>  (1) 
DB04004

>  <SECONDARY_ACCESSION_NUMBERS>  (1) 
EXPT00694

>  <COMMON_NAME>  (1) 
2,6-Diamino-8-(2-Dimethylaminoethylsulfanylmethyl)-3h-Quinazolin-4-One

$$$$
