1423
     RDKit          3D

 17 17  0  0  1  0  0  0  0  0999 V2000
    1.1481   -0.0576    0.0541 S   0  0  0  0  0  0  0  0  0  0  0  0
    4.8384   -0.4438   -1.8593 S   0  0  0  0  0  0  0  0  0  0  0  0
    1.0357    2.4729   -2.8866 O   0  0  0  0  0  0  0  0  0  0  0  0
    3.4871   -0.4700    1.0494 O   0  0  0  0  0  0  0  0  0  0  0  0
   -0.0423    4.0908    2.4758 O   0  0  0  0  0  0  0  0  0  0  0  0
    1.6080    2.6872    1.8697 O   0  0  0  0  0  0  0  0  0  0  0  0
    0.4311    3.0018   -0.8236 N   0  0  0  0  0  0  0  0  0  0  0  0
    0.4567    0.5669   -1.5041 C   0  0  0  0  0  0  0  0  0  0  0  0
    0.6725    2.0578   -1.7821 C   0  0  0  0  0  0  0  0  0  0  0  0
    0.8584   -0.3471   -2.6546 C   0  0  0  0  0  0  0  0  0  0  0  0
   -0.3285    2.8651    0.4080 C   0  0  0  0  0  0  0  0  0  0  0  0
    2.9171   -0.0087    0.0604 C   0  0  0  0  0  0  0  0  0  0  0  0
    3.6231    0.4997   -1.0899 C   0  0  0  0  0  0  0  0  0  0  0  0
    3.5598    1.7440   -1.6760 C   0  0  0  0  0  0  0  0  0  0  0  0
    0.5126    3.1801    1.6430 C   0  0  0  0  0  0  0  0  0  0  0  0
    4.1836    1.7837   -2.9504 C   0  0  0  0  0  0  0  0  0  0  0  0
    4.9975    0.6922   -3.1377 C   0  0  0  0  0  0  0  0  0  0  0  0
  1  8  1  0
  1 12  1  0
  2 13  1  0
  2 17  1  0
  3  9  2  0
  4 12  2  0
  5 15  1  0
  6 15  2  0
  7  9  1  0
  7 11  1  0
  8  9  1  0
  8 10  1  0
 11 15  1  0
 12 13  1  0
 13 14  2  0
 14 16  1  0
 16 17  2  0
M  END
>  <DRUGBANK_ID>  (1) 
DB01423

>  <COMMON_NAME>  (1) 
Stepronin

>  <CAS_NUMBER>  (1) 
72324-18-6

>  <UNII>  (1) 
0NOY894QRB

>  <SYNONYMS>  (1) 
Stepronin; Stepronine; Stepronino; Steproninum; Tiofacic

$$$$
