
     RDKit          3D

 24 25  0  0  1  0  0  0  0  0999 V2000
    1.0807    0.0669   -0.1052 C   0  0  0  0  0  0  0  0  0  0  0  0
    0.4393   -1.2438    0.3223 C   0  0  1  0  0  0  0  0  0  0  0  0
    1.0301   -1.7434    1.6146 N   0  0  0  0  0  0  0  0  0  0  0  0
    0.4974   -2.9169    2.2785 C   0  0  1  0  0  0  0  0  0  0  0  0
    0.8085   -4.0330    1.4161 N   0  0  0  0  0  0  0  0  0  0  0  0
    0.3876   -5.3971    1.7401 C   0  0  0  0  0  0  0  0  0  0  0  0
   -1.1327   -5.5790    1.5592 C   0  0  0  0  0  0  0  0  0  0  0  0
   -1.5112   -5.7526    0.2172 O   0  0  0  0  0  0  0  0  0  0  0  0
   -1.5635   -6.7046    2.2724 O   0  0  0  0  0  0  0  0  0  0  0  0
    0.9790   -3.1006    3.6314 N   0  0  0  0  0  0  0  0  0  0  0  0
    0.0774   -3.3350    4.7394 C   0  0  0  0  0  0  0  0  0  0  0  0
   -1.0307   -4.1788    4.6050 C   0  0  0  0  0  0  0  0  0  0  0  0
   -1.9034   -4.4612    5.6490 C   0  0  0  0  0  0  0  0  0  0  0  0
   -1.6739   -3.9083    6.8877 C   0  0  0  0  0  0  0  0  0  0  0  0
   -2.6398   -4.1831    8.0076 C   0  0  0  0  0  0  0  0  0  0  0  0
   -1.9784   -4.8543    9.1112 N   0  0  0  0  0  0  0  0  0  0  0  0
   -0.5410   -3.0861    7.0596 C   0  0  0  0  0  0  0  0  0  0  0  0
    0.3142   -2.7854    5.9817 C   0  0  0  0  0  0  0  0  0  0  0  0
   -1.0780   -1.1891    0.3661 C   0  0  0  0  0  0  0  0  0  0  0  0
   -1.7853   -2.3930    0.3215 C   0  0  0  0  0  0  0  0  0  0  0  0
   -3.1591   -2.4906    0.5031 C   0  0  0  0  0  0  0  0  0  0  0  0
   -3.8887   -1.3265    0.6516 C   0  0  0  0  0  0  0  0  0  0  0  0
   -3.2300   -0.0984    0.6186 C   0  0  0  0  0  0  0  0  0  0  0  0
   -1.8398   -0.0255    0.4580 C   0  0  0  0  0  0  0  0  0  0  0  0
  2  1  1  1
  2  3  1  0
  2 19  1  0
  4  3  1  6
  4  5  1  0
  4 10  1  0
  5  6  1  0
  6  7  1  0
  7  8  1  0
  7  9  1  0
 10 11  1  0
 11 12  2  0
 11 18  1  0
 12 13  1  0
 13 14  2  0
 14 15  1  0
 14 17  1  0
 15 16  1  0
 17 18  2  0
 19 20  2  0
 19 24  1  0
 20 21  1  0
 21 22  2  0
 22 23  1  0
 23 24  2  0
M  END
>  <DRUGBANK_ID>  (1) 
DB04778

>  <COMMON_NAME>  (1) 
SC45647

$$$$
