
     RDKit          3D

 10  9  0  0  1  0  0  0  0  0999 V2000
   -1.3192   -8.6209    2.2417 O   0  0  0  0  0  0  0  0  0  0  0  0
   -2.1197   -7.5683    2.4689 C   0  0  0  0  0  0  0  0  0  0  0  0
   -1.3860   -6.2858    2.8255 C   0  0  2  0  0  0  0  0  0  0  0  0
   -1.9926   -3.7789    0.6374 S   0  0  0  0  0  0  0  0  0  0  0  0
   -0.4206   -5.8684    1.7107 C   0  0  0  0  0  0  0  0  0  0  0  0
   -1.1608   -5.4032    0.4717 C   0  0  0  0  0  0  0  0  0  0  0  0
   -1.3193   -3.1323    2.1953 C   0  0  0  0  0  0  0  0  0  0  0  0
   -3.3363   -7.6637    2.3503 O   0  0  0  0  0  0  0  0  0  0  0  0
   -0.6467   -6.3963    4.0944 N   0  0  0  0  0  0  0  0  0  0  0  0
   -1.4386   -2.9075   -0.4510 O   0  0  0  0  0  0  0  0  0  0  0  0
  1  2  1  0
  2  8  2  0
  2  3  1  0
  3  9  1  1
  3  5  1  0
  4  7  1  0
  4  6  1  0
  4 10  2  0
  5  6  1  0
M  END
>  <DRUGBANK_ID>  (1) 
DB02235

>  <SECONDARY_ACCESSION_NUMBERS>  (1) 
EXPT02921

>  <COMMON_NAME>  (1) 
L-methionine (R)-S-oxide

>  <CAS_NUMBER>  (1) 
62697-73-8

>  <UNII>  (1) 
O74B4F6OYL

>  <SYNONYMS>  (1) 
Methionine Sulfoxide

$$$$
