B14
     RDKit          3D

 28 31  0  0  0  0  0  0  0  0999 V2000
    1.7484    1.4948    0.6452 C   0  0  0  0  0  0  0  0  0  0  0  0
    3.0711    1.5709    0.2053 C   0  0  0  0  0  0  0  0  0  0  0  0
    3.6879    0.4388   -0.3236 C   0  0  0  0  0  0  0  0  0  0  0  0
    2.9643   -0.7447   -0.4364 C   0  0  0  0  0  0  0  0  0  0  0  0
    1.6300   -0.8032   -0.0295 C   0  0  0  0  0  0  0  0  0  0  0  0
    0.7890   -2.0244   -0.1644 C   0  0  0  0  0  0  0  0  0  0  0  0
   -0.5108   -1.9843   -0.1054 N   0  0  0  0  0  0  0  0  0  0  0  0
   -1.1440   -0.6560    0.0959 C   0  0  0  0  0  0  0  0  0  0  0  0
   -0.3231    0.2226    0.9152 N   0  0  0  0  0  0  0  0  0  0  0  0
    1.0154    0.3054    0.5569 C   0  0  0  0  0  0  0  0  0  0  0  0
    3.5811   -1.8203   -0.9495 F   0  0  0  0  0  0  0  0  0  0  0  0
    1.1629    2.6062    1.1172 F   0  0  0  0  0  0  0  0  0  0  0  0
   -2.5301   -0.8710    0.7486 C   0  0  0  0  0  0  0  0  0  0  0  0
   -3.3299    0.4335    0.8612 C   0  0  0  0  0  0  0  0  0  0  0  0
   -3.4938    1.0784   -0.4424 N   0  0  0  0  0  0  0  0  0  0  0  0
   -2.2153    1.3091   -1.1402 C   0  0  0  0  0  0  0  0  0  0  0  0
   -1.4129    0.0036   -1.2839 C   0  0  0  0  0  0  0  0  0  0  0  0
   -4.7186    1.4254   -1.0468 C   0  0  0  0  0  0  0  0  0  0  0  0
   -4.8002    1.9140   -2.1715 O   0  0  0  0  0  0  0  0  0  0  0  0
    1.4172   -3.2268   -0.3446 N   0  0  0  0  0  0  0  0  0  0  0  0
   -6.0027    1.1468   -0.3371 C   0  0  0  0  0  0  0  0  0  0  0  0
   -6.3150    1.7394    0.8778 C   0  0  0  0  0  0  0  0  0  0  0  0
   -7.4327    1.4578    1.6089 N   0  0  0  0  0  0  0  0  0  0  0  0
   -8.2329    0.4612    1.1512 C   0  0  0  0  0  0  0  0  0  0  0  0
   -7.9648   -0.2246   -0.0269 C   0  0  0  0  0  0  0  0  0  0  0  0
   -6.9271    0.2341   -0.8484 C   0  0  0  0  0  0  0  0  0  0  0  0
   -9.4344    0.1919    1.8944 C   0  0  0  0  0  0  0  0  0  0  0  0
  -10.4435   -0.0422    2.4394 N   0  0  0  0  0  0  0  0  0  0  0  0
  1  2  2  0
  1 10  1  0
  1 12  1  0
  2  3  1  0
  3  4  2  0
  4  5  1  0
  4 11  1  0
  5  6  1  0
  5 10  2  0
  6  7  2  0
  6 20  1  0
  7  8  1  0
  8  9  1  0
  8 13  1  0
  8 17  1  0
  9 10  1  0
 13 14  1  0
 14 15  1  0
 15 16  1  0
 15 18  1  0
 16 17  1  0
 18 19  2  0
 18 21  1  0
 21 22  2  0
 21 26  1  0
 22 23  1  0
 23 24  2  0
 24 25  1  0
 24 27  1  0
 25 26  2  0
 27 28  3  0
M  END
>  <DRUGBANK_ID>  (1) 
DB07405

>  <COMMON_NAME>  (1) 
1-(6-CYANO-3-PYRIDYLCARBONYL)-5',8'-DIFLUOROSPIRO[PIPERIDINE-4,2'(1'H)-QUINAZOLINE]-4'-AMINE

$$$$
