
     RDKit          3D

 23 25  0  0  1  0  0  0  0  0999 V2000
    0.8821    4.2118    1.3275 O   0  0  0  0  0  0  0  0  0  0  0  0
    0.8519    1.7855    1.1086 N   0  0  0  0  0  0  0  0  0  0  0  0
    2.3739    2.2358    1.2349 C   0  0  1  0  0  0  0  0  0  0  0  0
    2.7299    3.1192    0.0645 C   0  0  0  0  0  0  0  0  0  0  0  0
    3.0322    3.0965    2.5484 C   0  0  0  0  0  0  0  0  0  0  0  0
    1.5584    3.9777   -0.1697 C   0  0  0  0  0  0  0  0  0  0  0  0
    0.4977    0.4196    1.0672 C   0  0  0  0  0  0  0  0  0  0  0  0
   -0.1278    2.3152    0.1529 C   0  0  0  0  0  0  0  0  0  0  0  0
    2.9605    4.5149    2.5856 C   0  0  0  0  0  0  0  0  0  0  0  0
    3.2973    2.5091    3.8039 C   0  0  0  0  0  0  0  0  0  0  0  0
    0.5749    3.3616    2.8293 C   0  0  0  0  0  0  0  0  0  0  0  0
    1.1348    1.9596    3.8566 C   0  0  0  0  0  0  0  0  0  0  0  0
    2.8486    5.2480    3.7720 C   0  0  0  0  0  0  0  0  0  0  0  0
    3.0004    3.2279    5.0190 C   0  0  0  0  0  0  0  0  0  0  0  0
   -0.0595    1.9164    3.9881 C   0  0  0  0  0  0  0  0  0  0  0  0
    2.8785    4.6019    4.9932 C   0  0  0  0  0  0  0  0  0  0  0  0
   -0.0419    4.5500    3.3158 C   0  0  0  0  0  0  0  0  0  0  0  0
    1.7284    0.4183    5.0272 C   0  0  0  0  0  0  0  0  0  0  0  0
   -0.1654    2.9755    4.9848 C   0  0  0  0  0  0  0  0  0  0  0  0
   -0.1222    4.3266    4.6240 C   0  0  0  0  0  0  0  0  0  0  0  0
    0.0523    0.5975    3.7090 C   0  0  0  0  0  0  0  0  0  0  0  0
    1.2434   -0.8447    4.9467 C   0  0  0  0  0  0  0  0  0  0  0  0
    0.1254   -0.1120    4.9044 C   0  0  0  0  0  0  0  0  0  0  0  0
  1  6  1  0
  1 11  1  0
  2  7  1  0
  2  8  1  0
  3  5  1  0
  3  4  1  6
  3  2  1  0
  4  6  1  0
  5  9  2  0
  5 10  1  0
  9 13  1  0
 10 14  2  0
 11 12  1  0
 11 17  2  0
 12 15  2  0
 12 18  1  0
 13 16  2  0
 14 16  1  0
 15 19  1  0
 15 21  1  0
 17 20  1  0
 18 22  2  0
 19 20  2  0
 21 23  2  0
 22 23  1  0
M  END
>  <DRUGBANK_ID>  (1) 
DB04884

>  <COMMON_NAME>  (1) 
Dapoxetine

>  <CAS_NUMBER>  (1) 
119356-77-3

>  <UNII>  (1) 
GB2433A4M3

>  <SYNONYMS>  (1) 
Dapoxetina; Dapoxetine; Dapoxetinum

$$$$
