
     RDKit          3D

 33 36  0  0  0  0  0  0  0  0999 V2000
    1.1921    0.1789   -0.2298 C   0  0  0  0  0  0  0  0  0  0  0  0
    0.7196    1.5794    0.3023 C   0  0  0  0  0  0  0  0  0  0  0  0
    1.0776    2.5837   -0.7693 C   0  0  0  0  0  0  0  0  0  0  0  0
   -0.9176    1.2037    0.2785 C   0  0  0  0  0  0  0  0  0  0  0  0
   -1.4514    0.1267    1.3361 C   0  0  0  0  0  0  0  0  0  0  0  0
   -0.9254    0.1493    2.9038 C   0  0  0  0  0  0  0  0  0  0  0  0
   -1.3248    1.7459    3.3911 C   0  0  0  0  0  0  0  0  0  0  0  0
   -1.5085    2.1427    5.1776 C   0  0  0  0  0  0  0  0  0  0  0  0
   -1.4426    3.8480    5.7636 C   0  0  0  0  0  0  0  0  0  0  0  0
   -1.1733    5.2143    4.5917 C   0  0  0  0  0  0  0  0  0  0  0  0
   -1.1810    4.8921    2.8237 C   0  0  0  0  0  0  0  0  0  0  0  0
   -1.3144    3.1835    2.2260 C   0  0  0  0  0  0  0  0  0  0  0  0
   -1.5622   -0.8549    3.8216 C   0  0  0  0  0  0  0  0  0  0  0  0
   -1.4814   -2.1608    3.4044 C   0  0  0  0  0  0  0  0  0  0  0  0
   -1.5738   -3.1530    4.3618 C   0  0  0  0  0  0  0  0  0  0  0  0
   -1.8465   -2.8686    5.7079 C   0  0  0  0  0  0  0  0  0  0  0  0
   -1.9661   -1.5839    6.1338 C   0  0  0  0  0  0  0  0  0  0  0  0
   -1.8048   -0.6277    5.1819 C   0  0  0  0  0  0  0  0  0  0  0  0
    0.8222   -0.4403    3.1106 C   0  0  0  0  0  0  0  0  0  0  0  0
    1.5285   -0.8951    2.2063 O   0  0  0  0  0  0  0  0  0  0  0  0
    1.5645   -0.1590    4.2862 N   0  0  0  0  0  0  0  0  0  0  0  0
    1.6588    2.2279    1.5757 N   0  0  0  0  0  0  0  0  0  0  0  0
    0.9108    1.9492    2.7161 C   0  0  0  0  0  0  0  0  0  0  0  0
    0.7002    3.2271    3.3776 C   0  0  0  0  0  0  0  0  0  0  0  0
    1.3241    3.6876    2.0093 C   0  0  0  0  0  0  0  0  0  0  0  0
   -0.8246    3.4469    4.0082 O   0  0  0  0  0  0  0  0  0  0  0  0
   -2.7026    3.4324    3.7706 C   0  0  0  0  0  0  0  0  0  0  0  0
   -3.5522    2.2567    3.3550 C   0  0  0  0  0  0  0  0  0  0  0  0
   -4.9150    2.2494    3.3021 C   0  0  0  0  0  0  0  0  0  0  0  0
   -5.5479    3.4441    3.5425 C   0  0  0  0  0  0  0  0  0  0  0  0
   -4.8418    4.5085    4.0871 C   0  0  0  0  0  0  0  0  0  0  0  0
   -3.5046    4.4731    4.3038 C   0  0  0  0  0  0  0  0  0  0  0  0
   -5.3764    5.6798    4.5180 O   0  0  0  0  0  0  0  0  0  0  0  0
  1  2  1  0
  2  3  1  0
  2  4  1  0
  2 22  1  0
  4  5  1  0
  5  6  1  0
  6  7  1  0
  6 13  1  0
  6 19  1  0
  7  8  2  0
  7 12  1  0
  8  9  1  0
  9 10  2  0
 10 11  1  0
 11 12  2  0
 13 14  2  0
 13 18  1  0
 14 15  1  0
 15 16  2  0
 16 17  1  0
 17 18  2  0
 19 20  2  0
 19 21  1  0
 22 23  1  0
 22 25  1  0
 23 24  1  0
 24 25  1  0
 24 26  1  0
 26 27  1  0
 27 28  2  0
 27 32  1  0
 28 29  1  0
 29 30  2  0
 30 31  1  0
 31 32  2  0
 31 33  1  0
M  END
>  <DRUGBANK_ID>  (1) 
DB12408

>  <COMMON_NAME>  (1) 
PF-03635659

>  <CAS_NUMBER>  (1) 
931409-24-4

>  <UNII>  (1) 
O0RG3QM34H

$$$$
