
     RDKit          3D

 21 22  0  0  0  0  0  0  0  0999 V2000
    0.9577    0.0489    0.0336 S   0  0  0  0  0  0  0  0  0  0  0  0
    0.5549   -0.5294   -1.2379 O   0  0  0  0  0  0  0  0  0  0  0  0
    0.5539   -0.5617    1.2854 O   0  0  0  0  0  0  0  0  0  0  0  0
   -1.8547    8.5458    1.8966 O   0  0  0  0  0  0  0  0  0  0  0  0
   -0.0832    7.2482    2.3938 O   0  0  0  0  0  0  0  0  0  0  0  0
   -1.1586    5.6502    0.0483 N   0  0  0  0  0  0  0  0  0  0  0  0
    6.9208    0.0573   -0.0216 N   0  0  0  0  0  0  0  0  0  0  0  0
    0.3386    1.7171    0.0374 C   0  0  0  0  0  0  0  0  0  0  0  0
    2.7350    0.0748    0.0570 C   0  0  0  0  0  0  0  0  0  0  0  0
    0.6447    2.5931   -1.0074 C   0  0  0  0  0  0  0  0  0  0  0  0
   -0.4414    2.1473    1.1016 C   0  0  0  0  0  0  0  0  0  0  0  0
   -0.6090    4.3772    0.1048 C   0  0  0  0  0  0  0  0  0  0  0  0
    0.1875    3.9183   -0.9578 C   0  0  0  0  0  0  0  0  0  0  0  0
   -0.9129    3.4594    1.1190 C   0  0  0  0  0  0  0  0  0  0  0  0
    3.4431    1.2763    0.0820 C   0  0  0  0  0  0  0  0  0  0  0  0
    3.4201   -1.1421    0.0481 C   0  0  0  0  0  0  0  0  0  0  0  0
    4.8377    1.2606    0.0636 C   0  0  0  0  0  0  0  0  0  0  0  0
    4.8198   -1.1431    0.0555 C   0  0  0  0  0  0  0  0  0  0  0  0
    5.5401    0.0556    0.0759 C   0  0  0  0  0  0  0  0  0  0  0  0
   -1.9242    6.2441    1.1466 C   0  0  0  0  0  0  0  0  0  0  0  0
   -1.1815    7.3704    1.8588 C   0  0  0  0  0  0  0  0  0  0  0  0
  1  2  2  0
  1  3  2  0
  1  8  1  0
  1  9  1  0
  4 21  1  0
  5 21  2  0
  6 12  1  0
  6 20  1  0
  7 19  1  0
  8 10  2  0
  8 11  1  0
  9 15  2  0
  9 16  1  0
 10 13  1  0
 11 14  2  0
 12 13  2  0
 12 14  1  0
 15 17  1  0
 16 18  2  0
 17 19  2  0
 18 19  1  0
 20 21  1  0
M  END
>  <DRUGBANK_ID>  (1) 
DB08926

>  <COMMON_NAME>  (1) 
Acediasulfone

>  <CAS_NUMBER>  (1) 
80-03-5

>  <UNII>  (1) 
30YP2YHH8W

>  <SYNONYMS>  (1) 
Acediasulfone; Acediasulfonum

$$$$
