43A
     RDKit          3D

 25 28  0  0  0  0  0  0  0  0999 V2000
    0.9277    0.0218    0.0134 C   0  0  0  0  0  0  0  0  0  0  0  0
    0.2550   -1.2057    0.0166 C   0  0  0  0  0  0  0  0  0  0  0  0
   -1.1640   -1.1857    0.0044 C   0  0  0  0  0  0  0  0  0  0  0  0
   -1.9027    0.0173   -0.0119 C   0  0  0  0  0  0  0  0  0  0  0  0
   -1.1838    1.2182   -0.0046 C   0  0  0  0  0  0  0  0  0  0  0  0
    0.2073    1.2151    0.0111 C   0  0  0  0  0  0  0  0  0  0  0  0
    2.2714    0.2609    0.0157 O   0  0  0  0  0  0  0  0  0  0  0  0
    0.7757   -2.4755    0.0350 O   0  0  0  0  0  0  0  0  0  0  0  0
    2.1842   -2.6392    0.0619 C   0  0  0  0  0  0  0  0  0  0  0  0
   -3.3801    0.0517   -0.0404 C   0  0  0  0  0  0  0  0  0  0  0  0
   -4.0516    0.6895   -1.0923 C   0  0  0  0  0  0  0  0  0  0  0  0
   -5.4356    0.7456   -1.0580 C   0  0  0  0  0  0  0  0  0  0  0  0
   -6.2205    0.2336   -0.0166 C   0  0  0  0  0  0  0  0  0  0  0  0
   -5.5772   -0.4175    1.0234 C   0  0  0  0  0  0  0  0  0  0  0  0
   -4.1614   -0.5076    1.0010 C   0  0  0  0  0  0  0  0  0  0  0  0
   -6.2271    1.3000   -2.0488 N   0  0  0  0  0  0  0  0  0  0  0  0
   -7.5647    1.2093   -1.7471 C   0  0  0  0  0  0  0  0  0  0  0  0
   -7.6296    0.5282   -0.3908 C   0  0  0  0  0  0  0  0  0  0  0  0
   -8.4521    1.6435   -2.4604 O   0  0  0  0  0  0  0  0  0  0  0  0
   -8.7785    0.3167    0.2854 C   0  0  0  0  0  0  0  0  0  0  0  0
  -10.0502    0.5504   -0.3204 C   0  0  0  0  0  0  0  0  0  0  0  0
  -10.9508    1.4506    0.2092 N   0  0  0  0  0  0  0  0  0  0  0  0
  -12.0467    1.5546   -0.6206 C   0  0  0  0  0  0  0  0  0  0  0  0
  -11.8549    0.7124   -1.6904 C   0  0  0  0  0  0  0  0  0  0  0  0
  -10.6163    0.0649   -1.4874 C   0  0  0  0  0  0  0  0  0  0  0  0
  1  2  2  0
  1  6  1  0
  1  7  1  0
  2  3  1  0
  2  8  1  0
  3  4  2  0
  4  5  1  0
  4 10  1  0
  5  6  2  0
  8  9  1  0
 10 11  2  0
 10 15  1  0
 11 12  1  0
 12 13  2  0
 12 16  1  0
 13 14  1  0
 13 18  1  0
 14 15  2  0
 16 17  1  0
 17 18  1  0
 17 19  2  0
 18 20  2  0
 20 21  1  0
 21 22  1  0
 21 25  2  0
 22 23  1  0
 23 24  2  0
 24 25  1  0
M  END
>  <DRUGBANK_ID>  (1) 
DB07078

>  <COMMON_NAME>  (1) 
(3Z)-6-(4-HYDROXY-3-METHOXYPHENYL)-3-(1H-PYRROL-2-YLMETHYLENE)-1,3-DIHYDRO-2H-INDOL-2-ONE

$$$$
