
     RDKit          3D

 11 11  0  0  0  0  0  0  0  0999 V2000
   -0.6752    1.1749    0.0012 N   0  0  0  0  0  0  0  0  0  0  0  0
   -1.4280    0.0011   -0.0013 C   0  0  0  0  0  0  0  0  0  0  0  0
   -0.6767   -1.1736    0.0012 N   0  0  0  0  0  0  0  0  0  0  0  0
    0.7036   -1.2150    0.0004 C   0  0  0  0  0  0  0  0  0  0  0  0
    1.3276   -0.0006   -0.0036 N   0  0  0  0  0  0  0  0  0  0  0  0
    0.7051    1.2145    0.0004 C   0  0  0  0  0  0  0  0  0  0  0  0
   -2.6627    0.0018   -0.0059 O   0  0  0  0  0  0  0  0  0  0  0  0
    1.3909   -2.2345    0.0034 O   0  0  0  0  0  0  0  0  0  0  0  0
    1.3937    2.2332    0.0034 O   0  0  0  0  0  0  0  0  0  0  0  0
   -1.5143   -2.6613    0.0038 Cl  0  0  0  0  0  0  0  0  0  0  0  0
   -1.5110    2.6635    0.0038 Cl  0  0  0  0  0  0  0  0  0  0  0  0
  1  2  1  0
  1  6  1  0
  1 11  1  0
  2  3  1  0
  2  7  2  0
  3  4  1  0
  3 10  1  0
  4  5  1  0
  4  8  2  0
  5  6  1  0
  6  9  2  0
M  END
>  <DRUGBANK_ID>  (1) 
DB15960

>  <COMMON_NAME>  (1) 
Troclosene

>  <CAS_NUMBER>  (1) 
2782-57-2

>  <UNII>  (1) 
PHR838Y52L

>  <SYNONYMS>  (1) 
Dichlorocyanuric acid; Dichloroisocyanuric acid; Kyselina dichlorisokyanurova; Troclosene

$$$$
