
     RDKit          3D

 25 27  0  0  1  0  0  0  0  0999 V2000
   -0.4903    0.8203   -0.6723 C   0  0  2  0  0  0  0  0  0  0  0  0
   -0.5596   -0.6012   -0.3442 N   0  0  0  0  0  0  0  0  0  0  0  0
    0.5223   -1.4194   -0.1318 C   0  0  0  0  0  0  0  0  0  0  0  0
    1.7507   -0.8469   -0.0388 C   0  0  0  0  0  0  0  0  0  0  0  0
    1.9816    0.6575    0.0642 C   0  0  0  0  0  0  0  0  0  0  0  0
    0.5349    1.6329    0.5506 S   0  0  0  0  0  0  0  0  0  0  0  0
   -2.0061    0.8257   -0.4671 C   0  0  1  0  0  0  0  0  0  0  0  0
   -1.8229   -0.5592    0.1460 C   0  0  0  0  0  0  0  0  0  0  0  0
   -2.7241    1.9430    0.1718 N   0  0  0  0  0  0  0  0  0  0  0  0
   -3.7721    2.6513   -0.4026 C   0  0  0  0  0  0  0  0  0  0  0  0
   -4.2800    3.5810    0.2317 O   0  0  0  0  0  0  0  0  0  0  0  0
   -2.5223   -1.3324    0.7633 O   0  0  0  0  0  0  0  0  0  0  0  0
   -4.2802    2.2762   -1.8473 C   0  0  1  0  0  0  0  0  0  0  0  0
    3.0795   -1.5616    0.0104 C   0  0  0  0  0  0  0  0  0  0  0  0
    0.2502   -2.9133   -0.0712 C   0  0  0  0  0  0  0  0  0  0  0  0
   -0.8030   -3.4641   -0.3427 O   0  0  0  0  0  0  0  0  0  0  0  0
    1.3163   -3.6580    0.2733 O   0  0  0  0  0  0  0  0  0  0  0  0
   -3.2000    2.4575   -2.9188 C   0  0  0  0  0  0  0  0  0  0  0  0
   -2.5504    1.3684   -3.5422 C   0  0  0  0  0  0  0  0  0  0  0  0
   -1.4542    1.5467   -4.3805 C   0  0  0  0  0  0  0  0  0  0  0  0
   -1.0662    2.8348   -4.7034 C   0  0  0  0  0  0  0  0  0  0  0  0
   -1.7247    3.9330   -4.1603 C   0  0  0  0  0  0  0  0  0  0  0  0
   -2.7757    3.7500   -3.2565 C   0  0  0  0  0  0  0  0  0  0  0  0
   -4.9122    0.9387   -1.8464 N   0  0  0  0  0  0  0  0  0  0  0  0
   -0.0382    3.0663   -5.5658 O   0  0  0  0  0  0  0  0  0  0  0  0
  1  2  1  0
  1  6  1  1
  1  7  1  0
  2  3  1  0
  2  8  1  0
  3  4  2  0
  3 15  1  0
  4  5  1  0
  4 14  1  0
  5  6  1  0
  7  8  1  0
  7  9  1  1
  8 12  2  0
  9 10  1  0
 10 11  2  0
 10 13  1  0
 13 18  1  0
 13 24  1  1
 15 16  2  0
 15 17  1  0
 18 19  2  0
 18 23  1  0
 19 20  1  0
 20 21  2  0
 21 22  1  0
 21 25  1  0
 22 23  2  0
M  END
>  <DRUGBANK_ID>  (1) 
DB01140

>  <SECONDARY_ACCESSION_NUMBERS>  (1) 
APRD00196

>  <COMMON_NAME>  (1) 
Cefadroxil

>  <CAS_NUMBER>  (1) 
50370-12-2

>  <UNII>  (1) 
Q525PA8JJB

>  <SYNONYMS>  (1) 
CDX; Cefadroxil; Cefadroxil anhydrous; Cefadroxilo; Cefadroxilum; Cephadroxil; D-Cefadroxil

$$$$
