698
     RDKit          3D

 32 34  0  0  0  0  0  0  0  0999 V2000
    0.9766   -0.1697    0.2135 O   0  0  0  0  0  0  0  0  0  0  0  0
    2.1705   -0.0405   -0.0502 C   0  0  0  0  0  0  0  0  0  0  0  0
    2.9301   -1.1453   -0.2341 O   0  0  0  0  0  0  0  0  0  0  0  0
    2.9458    1.2623   -0.0101 C   0  0  2  0  0  0  0  0  0  0  0  0
    2.1859    2.5872   -0.1755 C   0  0  2  0  0  0  0  0  0  0  0  0
    1.1498    2.5942   -1.2955 C   0  0  0  0  0  0  0  0  0  0  0  0
    0.1283    1.7656   -1.3034 N   0  0  0  0  0  0  0  0  0  0  0  0
   -0.6101    1.8829   -2.4548 C   0  0  0  0  0  0  0  0  0  0  0  0
   -0.1756    2.8492   -3.3266 C   0  0  0  0  0  0  0  0  0  0  0  0
    1.1068    3.7117   -2.6057 S   0  0  0  0  0  0  0  0  0  0  0  0
    4.0338    1.3628   -1.0889 C   0  0  0  0  0  0  0  0  0  0  0  0
    4.3893    2.8755   -1.2157 C   0  0  1  0  0  0  0  0  0  0  0  0
    5.8349    3.1163   -0.6545 C   0  0  0  0  0  0  0  0  0  0  0  0
    6.9914    2.3313   -1.3366 C   0  0  0  0  0  0  0  0  0  0  0  0
    7.1020    2.6193   -2.8201 C   0  0  0  0  0  0  0  0  0  0  0  0
    8.3489    2.6422   -0.7283 C   0  0  0  0  0  0  0  0  0  0  0  0
    4.2368    3.4399   -2.6770 C   0  0  0  0  0  0  0  0  0  0  0  0
    4.0337    4.5992   -3.0076 O   0  0  0  0  0  0  0  0  0  0  0  0
    4.4409    2.5412   -3.6631 O   0  0  0  0  0  0  0  0  0  0  0  0
    3.3109    3.5246   -0.3987 N   0  0  0  0  0  0  0  0  0  0  0  0
    3.3767    4.8628   -0.0184 C   0  0  0  0  0  0  0  0  0  0  0  0
    4.3361    5.5919   -0.2577 O   0  0  0  0  0  0  0  0  0  0  0  0
    2.2847    5.4772    0.7652 C   0  0  0  0  0  0  0  0  0  0  0  0
    1.7127    6.6743    0.3257 C   0  0  0  0  0  0  0  0  0  0  0  0
    0.8010    7.3543    1.1402 C   0  0  0  0  0  0  0  0  0  0  0  0
    1.9572    4.9783    2.0223 C   0  0  0  0  0  0  0  0  0  0  0  0
    0.9985    5.6255    2.8000 C   0  0  0  0  0  0  0  0  0  0  0  0
    0.3794    6.8106    2.3672 C   0  0  0  0  0  0  0  0  0  0  0  0
   -0.7582    7.4704    3.1615 C   0  0  0  0  0  0  0  0  0  0  0  0
   -0.3726    8.8998    3.5829 C   0  0  0  0  0  0  0  0  0  0  0  0
   -2.0241    7.5310    2.2785 C   0  0  0  0  0  0  0  0  0  0  0  0
   -1.1201    6.6759    4.4350 C   0  0  0  0  0  0  0  0  0  0  0  0
  1  2  2  0
  2  3  1  0
  4  2  1  6
  4  5  1  0
  4 11  1  0
  5 20  1  0
  5  6  1  6
  6  7  2  0
  6 10  1  0
  7  8  1  0
  8  9  2  0
  9 10  1  0
 11 12  1  0
 12 13  1  1
 12 17  1  0
 12 20  1  0
 13 14  1  0
 14 15  1  0
 14 16  1  0
 17 18  2  0
 17 19  1  0
 20 21  1  0
 21 22  2  0
 21 23  1  0
 23 26  1  0
 23 24  2  0
 24 25  1  0
 25 28  2  0
 26 27  2  0
 27 28  1  0
 28 29  1  0
 29 30  1  0
 29 31  1  0
 29 32  1  0
M  END
>  <DRUGBANK_ID>  (1) 
DB07199

>  <COMMON_NAME>  (1) 
(2S,4S,5R)-1-(4-TERT-BUTYLBENZOYL)-2-ISOBUTYL-5-(1,3-THIAZOL-2-YL)PYRROLIDINE-2,4-DICARBOXYLIC ACID

$$$$
