
     RDKit          3D

 32 35  0  0  0  0  0  0  0  0999 V2000
   -4.2784    2.7786    3.1353 C   0  0  0  0  0  0  0  0  0  0  0  0
   -3.4803    3.3809    2.1671 C   0  0  0  0  0  0  0  0  0  0  0  0
   -3.0397    2.6454    1.0662 C   0  0  0  0  0  0  0  0  0  0  0  0
   -3.3851    1.2921    0.9161 C   0  0  0  0  0  0  0  0  0  0  0  0
   -4.1366    0.6817    1.9363 C   0  0  0  0  0  0  0  0  0  0  0  0
   -4.6205    1.4335    3.0129 C   0  0  0  0  0  0  0  0  0  0  0  0
    0.8603   -0.1650   -1.1380 C   0  0  2  0  0  0  0  0  0  0  0  0
    1.6967    0.0989   -2.4092 C   0  0  0  0  0  0  0  0  0  0  0  0
    2.2396   -1.1570   -2.3732 N   0  0  0  0  0  0  0  0  0  0  0  0
    1.3850   -1.6070   -1.2570 C   0  0  2  0  0  0  0  0  0  0  0  0
    2.2884   -1.9721   -3.5911 C   0  0  2  0  0  0  0  0  0  0  0  0
    1.6582   -3.3334   -3.2293 C   0  0  0  0  0  0  0  0  0  0  0  0
    0.3258   -2.8921   -2.0091 S   0  0  0  0  0  0  0  0  0  0  0  0
    0.9735   -4.0130   -4.4138 C   0  0  0  0  0  0  0  0  0  0  0  0
    2.6409   -4.3000   -2.5526 C   0  0  0  0  0  0  0  0  0  0  0  0
    3.7383   -2.0760   -4.0863 C   0  0  0  0  0  0  0  0  0  0  0  0
    3.8797   -2.2384   -5.4244 O   0  0  0  0  0  0  0  0  0  0  0  0
    4.7162   -2.0880   -3.3493 O   0  0  0  0  0  0  0  0  0  0  0  0
   -0.6079    0.0431   -1.2289 N   0  0  0  0  0  0  0  0  0  0  0  0
   -1.3450    0.2161   -0.0773 C   0  0  0  0  0  0  0  0  0  0  0  0
   -0.8173    0.0779    1.0276 O   0  0  0  0  0  0  0  0  0  0  0  0
   -2.8611    0.4835   -0.2688 C   0  0  2  0  0  0  0  0  0  0  0  0
   -3.1249    1.1617   -1.5506 N   0  0  0  0  0  0  0  0  0  0  0  0
   -3.9864    0.6996   -2.5203 C   0  0  0  0  0  0  0  0  0  0  0  0
   -4.5676   -0.3770   -2.4389 O   0  0  0  0  0  0  0  0  0  0  0  0
    1.7721    0.9585   -3.2514 O   0  0  0  0  0  0  0  0  0  0  0  0
   -3.6519    2.8607   -5.3684 N   0  0  0  0  0  0  0  0  0  0  0  0
   -3.0956    2.1520   -4.3045 C   0  0  0  0  0  0  0  0  0  0  0  0
   -4.1541    1.5755   -3.5766 N   0  0  0  0  0  0  0  0  0  0  0  0
   -5.3389    1.6249   -4.4234 C   0  0  0  0  0  0  0  0  0  0  0  0
   -5.0839    2.8741   -5.2566 C   0  0  0  0  0  0  0  0  0  0  0  0
   -1.9033    2.0795   -4.0627 O   0  0  0  0  0  0  0  0  0  0  0  0
  1  2  2  0
  2  3  1  0
  4  5  1  0
  4  3  2  0
  5  6  2  0
  6  1  1  0
  7  8  1  0
  7 19  1  6
  8  9  1  0
  8 26  2  0
  9 11  1  0
 10  9  1  0
 10  7  1  0
 10 13  1  6
 11 12  1  0
 11 16  1  1
 12 13  1  0
 12 14  1  0
 12 15  1  0
 16 17  1  0
 16 18  2  0
 19 20  1  0
 20 21  2  0
 22 23  1  6
 22 20  1  0
 22  4  1  0
 23 24  1  0
 24 29  1  0
 24 25  2  0
 27 28  1  0
 27 31  1  0
 28 29  1  0
 28 32  2  0
 29 30  1  0
 30 31  1  0
M  END
>  <DRUGBANK_ID>  (1) 
DB01061

>  <SECONDARY_ACCESSION_NUMBERS>  (1) 
APRD00814

>  <COMMON_NAME>  (1) 
Azlocillin

>  <CAS_NUMBER>  (1) 
37091-66-0

>  <UNII>  (1) 
HUM6H389W0

>  <SYNONYMS>  (1) 
(2S,5R,6R)-3,3-dimethyl-7-oxo-6-{[(2R)-2-{[(2-oxoimidazolidin-1-yl)carbonyl]amino}-2-phenylacetyl]amino}-4-thia-1-azabicyclo[3.2.0]heptane-2-carboxylic acid; Azlocilina; Azlocillin; Azlocilline; Azlocillinum

$$$$
