
     RDKit          3D

 27 28  0  0  0  0  0  0  0  0999 V2000
    1.1482   -0.1975   -0.0393 C   0  0  0  0  0  0  0  0  0  0  0  0
    0.6007    0.3444    1.2179 C   0  0  0  0  0  0  0  0  0  0  0  0
   -0.1114    1.3000    1.0372 O   0  0  0  0  0  0  0  0  0  0  0  0
    1.0844   -0.4087    2.7523 S   0  0  0  0  0  0  0  0  0  0  0  0
    0.2947    0.4380    4.2169 C   0  0  0  0  0  0  0  0  0  0  0  0
    0.5422    1.9507    4.4113 C   0  0  0  0  0  0  0  0  0  0  0  0
    0.1899    2.8266    3.1753 C   0  0  0  0  0  0  0  0  0  0  0  0
   -1.2809    2.8340    2.6700 C   0  0  0  0  0  0  0  0  0  0  0  0
   -2.0551    1.6423    2.4321 C   0  0  0  0  0  0  0  0  0  0  0  0
   -3.4413    1.6200    2.3868 C   0  0  0  0  0  0  0  0  0  0  0  0
   -4.1089    2.8144    2.5630 C   0  0  0  0  0  0  0  0  0  0  0  0
   -3.3839    4.0103    2.6777 C   0  0  0  0  0  0  0  0  0  0  0  0
   -1.9791    4.0343    2.6732 C   0  0  0  0  0  0  0  0  0  0  0  0
    0.0284    2.5777    5.7555 C   0  0  0  0  0  0  0  0  0  0  0  0
    0.8236    3.1053    6.5395 O   0  0  0  0  0  0  0  0  0  0  0  0
   -1.2957    2.6187    6.1079 N   0  0  0  0  0  0  0  0  0  0  0  0
   -2.3788    2.2180    5.2678 C   0  0  0  0  0  0  0  0  0  0  0  0
   -3.3309    1.0558    5.3336 C   0  0  0  0  0  0  0  0  0  0  0  0
   -4.4924    1.0868    4.9421 O   0  0  0  0  0  0  0  0  0  0  0  0
   -2.7183   -0.0124    5.8969 O   0  0  0  0  0  0  0  0  0  0  0  0
   -3.6758   -0.9315    6.3986 C   0  0  0  0  0  0  0  0  0  0  0  0
   -4.4511   -0.3073    7.5458 C   0  0  0  0  0  0  0  0  0  0  0  0
   -5.1756   -1.1306    8.3950 C   0  0  0  0  0  0  0  0  0  0  0  0
   -5.8275   -0.5735    9.4975 C   0  0  0  0  0  0  0  0  0  0  0  0
   -5.7831    0.8012    9.7543 C   0  0  0  0  0  0  0  0  0  0  0  0
   -5.0900    1.6367    8.9128 C   0  0  0  0  0  0  0  0  0  0  0  0
   -4.4652    1.0823    7.8193 C   0  0  0  0  0  0  0  0  0  0  0  0
  1  2  1  0
  2  3  2  0
  2  4  1  0
  4  5  1  0
  5  6  1  0
  6  7  1  0
  6 14  1  0
  7  8  1  0
  8  9  2  0
  8 13  1  0
  9 10  1  0
 10 11  2  0
 11 12  1  0
 12 13  2  0
 14 15  2  0
 14 16  1  0
 16 17  1  0
 17 18  1  0
 18 19  2  0
 18 20  1  0
 20 21  1  0
 21 22  1  0
 22 23  2  0
 22 27  1  0
 23 24  1  0
 24 25  2  0
 25 26  1  0
 26 27  2  0
M  END
>  <DRUGBANK_ID>  (1) 
DB11696

>  <COMMON_NAME>  (1) 
Racecadotril

>  <CAS_NUMBER>  (1) 
81110-73-8

>  <UNII>  (1) 
76K53XP4TO

>  <SYNONYMS>  (1) 
Racecadotril; Racecadotrilo

$$$$
