
     RDKit          3D

 16 17  0  0  0  0  0  0  0  0999 V2000
    1.0360   -0.0723    0.1050 C   0  0  0  0  0  0  0  0  0  0  0  0
    0.3694    1.1290    0.1606 N   0  0  0  0  0  0  0  0  0  0  0  0
   -1.0616    1.1747    0.1018 C   0  0  0  0  0  0  0  0  0  0  0  0
   -1.5859    1.9157    1.2502 N   0  0  0  0  0  0  0  0  0  0  0  0
   -3.0738    1.8955    1.1958 C   0  0  0  0  0  0  0  0  0  0  0  0
   -3.6324    2.6947    0.0017 C   0  0  0  0  0  0  0  0  0  0  0  0
   -3.1650    4.0515    0.0179 O   0  0  0  0  0  0  0  0  0  0  0  0
   -1.7321    4.1119    0.0560 C   0  0  0  0  0  0  0  0  0  0  0  0
   -1.1768    3.3361    1.2594 C   0  0  0  0  0  0  0  0  0  0  0  0
    0.4599   -1.1589    0.0542 O   0  0  0  0  0  0  0  0  0  0  0  0
    2.5235   -0.0278    0.0909 C   0  0  0  0  0  0  0  0  0  0  0  0
    3.2125   -1.2351    0.0853 C   0  0  0  0  0  0  0  0  0  0  0  0
    4.5672   -1.3091    0.0669 N   0  0  0  0  0  0  0  0  0  0  0  0
    5.2043   -0.1189    0.0597 C   0  0  0  0  0  0  0  0  0  0  0  0
    4.5196    1.0909    0.0671 C   0  0  0  0  0  0  0  0  0  0  0  0
    3.1616    1.1784    0.0773 N   0  0  0  0  0  0  0  0  0  0  0  0
  1  2  1  0
  1 10  2  0
  1 11  1  0
  2  3  1  0
  3  4  1  0
  4  5  1  0
  4  9  1  0
  5  6  1  0
  6  7  1  0
  7  8  1  0
  8  9  1  0
 11 12  2  0
 11 16  1  0
 12 13  1  0
 13 14  2  0
 14 15  1  0
 15 16  2  0
M  END
>  <DRUGBANK_ID>  (1) 
DB13417

>  <COMMON_NAME>  (1) 
Morinamide

>  <CAS_NUMBER>  (1) 
952-54-5

>  <UNII>  (1) 
8CFL28PA3W

>  <SYNONYMS>  (1) 
Morinamide

$$$$
