LS2
     RDKit          3D

 27 30  0  0  0  0  0  0  0  0999 V2000
   -2.5841    0.6943    0.3446 N   0  0  0  0  0  0  0  0  0  0  0  0
   -2.9653   -0.5708    0.0513 C   0  0  0  0  0  0  0  0  0  0  0  0
   -1.6827   -1.4853    0.1476 C   0  0  0  0  0  0  0  0  0  0  0  0
    0.6933   -0.4642    0.0324 C   0  0  0  0  0  0  0  0  0  0  0  0
    1.4772    0.6656   -0.0199 C   0  0  0  0  0  0  0  0  0  0  0  0
    0.8253    1.9264   -0.0245 C   0  0  0  0  0  0  0  0  0  0  0  0
   -0.5745    2.0157    0.0674 C   0  0  0  0  0  0  0  0  0  0  0  0
   -1.2388    0.8134    0.1877 C   0  0  0  0  0  0  0  0  0  0  0  0
   -0.6560   -0.4739    0.1107 C   0  0  0  0  0  0  0  0  0  0  0  0
   -4.0566   -0.6423   -0.4880 O   0  0  0  0  0  0  0  0  0  0  0  0
   -1.4704   -2.7641    0.3060 N   0  0  0  0  0  0  0  0  0  0  0  0
    1.5329   -1.9003    0.0191 S   0  0  0  0  0  0  0  0  0  0  0  0
    2.9727   -0.9534   -0.0355 C   0  0  0  0  0  0  0  0  0  0  0  0
    2.8253    0.3615   -0.0624 N   0  0  0  0  0  0  0  0  0  0  0  0
   -2.4277   -3.7113    0.4810 N   0  0  0  0  0  0  0  0  0  0  0  0
   -3.7435   -3.5781    0.0368 C   0  0  0  0  0  0  0  0  0  0  0  0
   -4.0186   -3.0221   -1.2115 C   0  0  0  0  0  0  0  0  0  0  0  0
   -5.2899   -2.5059   -1.4844 C   0  0  0  0  0  0  0  0  0  0  0  0
   -6.2934   -2.5513   -0.5026 C   0  0  0  0  0  0  0  0  0  0  0  0
   -5.9999   -3.1317    0.7405 C   0  0  0  0  0  0  0  0  0  0  0  0
   -4.7851   -3.7844    0.9396 C   0  0  0  0  0  0  0  0  0  0  0  0
   -7.6902   -2.1404   -0.8687 C   0  0  0  0  0  0  0  0  0  0  0  0
   -8.7758   -3.6110   -0.8082 S   0  0  0  0  0  0  0  0  0  0  0  0
   -8.7358   -4.2188    0.5063 O   0  0  0  0  0  0  0  0  0  0  0  0
  -10.0576   -3.2412   -1.3733 O   0  0  0  0  0  0  0  0  0  0  0  0
   -8.1281   -4.7499   -1.8858 N   0  0  0  0  0  0  0  0  0  0  0  0
   -6.7968   -5.3012   -1.6055 C   0  0  0  0  0  0  0  0  0  0  0  0
  1  2  1  0
  1  8  1  0
  2  3  1  0
  2 10  2  0
  3  9  1  0
  3 11  2  0
  4  5  1  0
  4  9  2  0
  4 12  1  0
  5  6  2  0
  5 14  1  0
  6  7  1  0
  7  8  2  0
  8  9  1  0
 11 15  1  0
 12 13  1  0
 13 14  2  0
 15 16  1  0
 16 17  2  0
 16 21  1  0
 17 18  1  0
 18 19  2  0
 19 20  1  0
 19 22  1  0
 20 21  2  0
 22 23  1  0
 23 24  2  0
 23 25  2  0
 23 26  1  0
 26 27  1  0
M  END
>  <DRUGBANK_ID>  (1) 
DB08123

>  <COMMON_NAME>  (1) 
N-methyl-{4-[2-(7-oxo-6,7-dihydro-8H-[1,3]thiazolo[5,4-e]indol-8-ylidene)hydrazino]phenyl}methanesulfonamide

$$$$
