
     RDKit          3D

 27 30  0  0  1  0  0  0  0  0999 V2000
   13.0283   -4.1895   -6.4427 C   0  0  0  0  0  0  0  0  0  0  0  0
   15.2226   -8.9835   -2.9031 C   0  0  0  0  0  0  0  0  0  0  0  0
    9.9997   -4.5238   -7.6441 C   0  0  0  0  0  0  0  0  0  0  0  0
   12.6596  -10.0562   -4.8419 C   0  0  0  0  0  0  0  0  0  0  0  0
   11.1918   -5.2295   -7.5293 C   0  0  0  0  0  0  0  0  0  0  0  0
   13.7054   -9.9401   -5.9635 C   0  0  0  0  0  0  0  0  0  0  0  0
   10.1706   -4.1947   -5.1856 C   0  0  0  0  0  0  0  0  0  0  0  0
   10.8590   -7.7817   -4.9920 C   0  0  0  0  0  0  0  0  0  0  0  0
   15.1335   -7.2868   -4.3436 C   0  0  0  0  0  0  0  0  0  0  0  0
   15.0807  -11.4551   -2.4392 C   0  0  0  0  0  0  0  0  0  0  0  0
    9.2170   -4.4190   -6.3278 C   0  0  0  0  0  0  0  0  0  0  0  0
   12.3195   -7.7505   -5.2188 C   0  0  2  0  0  0  0  0  0  0  0  0
   13.0169   -8.7098   -4.1974 C   0  0  2  0  0  0  0  0  0  0  0  0
   10.8243   -5.3624   -5.1913 C   0  0  0  0  0  0  0  0  0  0  0  0
   10.1368   -6.6791   -5.0518 C   0  0  0  0  0  0  0  0  0  0  0  0
   14.5858   -6.5719   -5.5593 C   0  0  1  0  0  0  0  0  0  0  0  0
   14.9942  -11.4109   -4.0838 C   0  0  0  0  0  0  0  0  0  0  0  0
   13.0019   -6.4004   -5.3754 C   0  0  1  0  0  0  0  0  0  0  0  0
   12.0523   -5.3619   -6.1799 C   0  0  2  0  0  0  0  0  0  0  0  0
   14.5978   -8.6949   -4.2048 C   0  0  2  0  0  0  0  0  0  0  0  0
   14.9199  -10.0127   -5.0328 C   0  0  2  0  0  0  0  0  0  0  0  0
    8.4402   -7.0324   -5.1963 Cl  0  0  0  0  0  0  0  0  0  0  0  0
   13.8866  -11.9907   -1.9135 O   0  0  0  0  0  0  0  0  0  0  0  0
    8.0451   -4.4630   -6.2426 O   0  0  0  0  0  0  0  0  0  0  0  0
   15.3393   -5.3762   -5.7059 O   0  0  0  0  0  0  0  0  0  0  0  0
   14.9483  -12.4973   -4.6849 O   0  0  0  0  0  0  0  0  0  0  0  0
   16.0158  -10.0825   -5.9195 O   0  0  0  0  0  0  0  0  0  0  0  0
  5  3  2  0
  6  4  1  0
 11  3  1  0
 11  7  1  0
 12  8  1  1
 13  4  1  6
 13 12  1  0
 14  7  2  0
 15  8  2  0
 15 14  1  0
 16  9  1  0
 16 25  1  1
 17 10  1  0
 18 12  1  0
 18 16  1  6
 19  5  1  0
 19 14  1  0
 19 18  1  0
 19  1  1  1
 20  9  1  0
 20 13  1  0
 20  2  1  1
 21  6  1  0
 21 20  1  0
 21 27  1  6
 21 17  1  0
 22 15  1  0
 23 10  1  0
 24 11  2  0
 26 17  2  0
M  END
>  <DRUGBANK_ID>  (1) 
DB13843

>  <COMMON_NAME>  (1) 
Cloprednol

>  <CAS_NUMBER>  (1) 
5251-34-3

>  <UNII>  (1) 
SYP56O3GJG

>  <SYNONYMS>  (1) 
Cloprednol

$$$$
