
     RDKit          3D

 34 36  0  0  0  0  0  0  0  0999 V2000
    1.9353    7.4429   -2.0935 N   0  0  0  0  0  0  0  0  0  0  0  0
    1.8174    6.2425   -1.3954 C   0  0  0  0  0  0  0  0  0  0  0  0
    0.7454    7.9173   -2.8535 C   0  0  1  0  0  0  0  0  0  0  0  0
    3.0826    8.3379   -1.9960 C   0  0  0  0  0  0  0  0  0  0  0  0
    2.7169    9.7960   -2.0736 C   0  0  0  0  0  0  0  0  0  0  0  0
    1.7502   10.2110   -2.9915 C   0  0  0  0  0  0  0  0  0  0  0  0
    1.0579    9.1256   -3.7748 C   0  0  0  0  0  0  0  0  0  0  0  0
    2.6683    5.5323    0.7893 N   0  0  0  0  0  0  0  0  0  0  0  0
    0.1765    6.8099   -3.7427 C   0  0  0  0  0  0  0  0  0  0  0  0
    3.0425    5.6944   -0.6290 C   0  0  1  0  0  0  0  0  0  0  0  0
    3.6407    3.5165    1.8212 C   0  0  0  0  0  0  0  0  0  0  0  0
    1.4845   11.5780   -3.1409 C   0  0  0  0  0  0  0  0  0  0  0  0
    3.3632   10.7377   -1.2667 C   0  0  0  0  0  0  0  0  0  0  0  0
    2.1394   12.5322   -2.3353 C   0  0  0  0  0  0  0  0  0  0  0  0
    3.0734   12.1000   -1.3735 C   0  0  0  0  0  0  0  0  0  0  0  0
    3.8002    5.0200    1.5784 C   0  0  2  0  0  0  0  0  0  0  0  0
    0.7645    5.5981   -1.4119 O   0  0  0  0  0  0  0  0  0  0  0  0
   -0.9919    6.4395   -3.7815 O   0  0  0  0  0  0  0  0  0  0  0  0
    4.4204    2.6432    1.4555 O   0  0  0  0  0  0  0  0  0  0  0  0
    3.9182    5.7621    2.9080 C   0  0  0  0  0  0  0  0  0  0  0  0
    1.0877    6.2771   -4.5880 O   0  0  0  0  0  0  0  0  0  0  0  0
    2.5434    3.1988    2.5369 O   0  0  0  0  0  0  0  0  0  0  0  0
    5.1747    5.3123    3.6569 C   0  0  0  0  0  0  0  0  0  0  0  0
    1.7630   13.8322   -2.5932 O   0  0  0  0  0  0  0  0  0  0  0  0
    3.6648   13.0382   -0.5767 O   0  0  0  0  0  0  0  0  0  0  0  0
    6.4353    5.6036    2.8787 C   0  0  0  0  0  0  0  0  0  0  0  0
    3.4936    4.3827   -1.2699 C   0  0  0  0  0  0  0  0  0  0  0  0
    2.3797   14.8638   -1.8244 C   0  0  0  0  0  0  0  0  0  0  0  0
    4.5954   12.6351    0.4101 C   0  0  0  0  0  0  0  0  0  0  0  0
    6.7769    6.9284    2.5763 C   0  0  0  0  0  0  0  0  0  0  0  0
    7.2667    4.5657    2.4381 C   0  0  0  0  0  0  0  0  0  0  0  0
    7.9510    7.2156    1.8862 C   0  0  0  0  0  0  0  0  0  0  0  0
    8.4715    4.8594    1.8002 C   0  0  0  0  0  0  0  0  0  0  0  0
    8.8045    6.1817    1.5098 C   0  0  0  0  0  0  0  0  0  0  0  0
  2  1  1  0
  3  1  1  0
  3  9  1  6
  4  1  1  0
  5  4  1  0
  6  5  2  0
  6  7  1  0
  7  3  1  0
  8 10  1  0
 10  2  1  0
 10 27  1  6
 12  6  1  0
 12 14  2  0
 13  5  1  0
 14 15  1  0
 15 13  2  0
 16  8  1  0
 16 11  1  0
 17  2  2  0
 18  9  2  0
 19 11  2  0
 16 20  1  1
 21  9  1  0
 22 11  1  0
 23 20  1  0
 24 14  1  0
 25 15  1  0
 26 23  1  0
 28 24  1  0
 29 25  1  0
 30 26  2  0
 31 26  1  0
 32 30  1  0
 33 31  2  0
 34 33  1  0
 34 32  2  0
M  END
>  <DRUGBANK_ID>  (1) 
DB14210

>  <COMMON_NAME>  (1) 
Moexiprilat

>  <CAS_NUMBER>  (1) 
103775-14-0

>  <UNII>  (1) 
H3753190JS

>  <SYNONYMS>  (1) 
Moexiprilat

$$$$
