
     RDKit          3D

 40 39  0  0  0  0  0  0  0  0999 V2000
    1.0142   -0.0167    0.0453 C   0  0  0  0  0  0  0  0  0  0  0  0
    0.5344   -1.4095   -0.3345 C   0  0  0  0  0  0  0  0  0  0  0  0
    1.0415   -2.4749    0.6359 C   0  0  0  0  0  0  0  0  0  0  0  0
    1.0845    1.8331    1.7857 C   0  0  0  0  0  0  0  0  0  0  0  0
    0.5620    0.4767    1.4172 C   0  0  0  0  0  0  0  0  0  0  0  0
   -0.9390    2.8263    0.6804 C   0  0  0  0  0  0  0  0  0  0  0  0
    0.5771    2.8540    0.7974 C   0  0  0  0  0  0  0  0  0  0  0  0
   -1.6025    3.1104    2.0027 C   0  0  2  0  0  0  0  0  0  0  0  0
   -3.1529    3.0046    1.7162 C   0  0  2  0  0  0  0  0  0  0  0  0
   -4.0552    3.9294    2.4519 C   0  0  0  0  0  0  0  0  0  0  0  0
   -1.1070    4.3563    2.5093 O   0  0  0  0  0  0  0  0  0  0  0  0
   -3.6568    1.5652    1.8435 N   0  0  0  0  0  0  0  0  0  0  0  0
   -3.5866    5.2465    2.7142 O   0  0  0  0  0  0  0  0  0  0  0  0
    0.4887   -2.3497    2.0551 C   0  0  0  0  0  0  0  0  0  0  0  0
   -1.0396   -2.2164    2.0407 C   0  0  0  0  0  0  0  0  0  0  0  0
   -1.5962   -3.5644    1.6138 C   0  0  0  0  0  0  0  0  0  0  0  0
   -1.1061   -4.6278    2.5994 C   0  0  0  0  0  0  0  0  0  0  0  0
   -1.5781   -4.2780    4.0169 C   0  0  0  0  0  0  0  0  0  0  0  0
   -3.1078   -4.2745    4.0656 C   0  0  0  0  0  0  0  0  0  0  0  0
   -3.6615   -5.6317    3.6306 C   0  0  0  0  0  0  0  0  0  0  0  0
   -3.1479   -6.7252    4.5532 C   0  0  0  0  0  0  0  0  0  0  0  0
   -4.3442    0.7793    2.7801 C   0  0  0  0  0  0  0  0  0  0  0  0
   -4.7358   -0.2859    2.3836 O   0  0  0  0  0  0  0  0  0  0  0  0
   -4.7084    1.1989    4.2695 C   0  0  0  0  0  0  0  0  0  0  0  0
   -3.5881    1.3664    5.3264 C   0  0  0  0  0  0  0  0  0  0  0  0
   -2.6518    2.4491    4.9713 C   0  0  0  0  0  0  0  0  0  0  0  0
   -3.3195    3.7994    4.9431 C   0  0  0  0  0  0  0  0  0  0  0  0
   -3.6725    4.6140    6.0997 C   0  0  0  0  0  0  0  0  0  0  0  0
   -2.3304    4.9443    6.6366 C   0  0  0  0  0  0  0  0  0  0  0  0
   -1.5518    5.9105    5.7009 C   0  0  0  0  0  0  0  0  0  0  0  0
   -2.3742    7.1738    5.4101 C   0  0  0  0  0  0  0  0  0  0  0  0
   -2.7709    7.7665    6.7591 C   0  0  0  0  0  0  0  0  0  0  0  0
   -1.4914    8.0153    7.5666 C   0  0  0  0  0  0  0  0  0  0  0  0
   -0.5992    8.9900    6.7916 C   0  0  0  0  0  0  0  0  0  0  0  0
   -1.3614   10.3014    6.5976 C   0  0  0  0  0  0  0  0  0  0  0  0
   -1.7413   10.8661    7.9692 C   0  0  0  0  0  0  0  0  0  0  0  0
   -0.4735   11.1185    8.7929 C   0  0  0  0  0  0  0  0  0  0  0  0
    0.4261   12.1384    8.0870 C   0  0  0  0  0  0  0  0  0  0  0  0
   -0.3080   13.4631    7.8774 C   0  0  0  0  0  0  0  0  0  0  0  0
   -0.7291   14.0466    9.2161 C   0  0  0  0  0  0  0  0  0  0  0  0
  1  5  1  0
  2  1  1  0
  3  2  1  0
  3 14  1  0
  4  7  1  0
  5  4  1  0
  7  6  1  0
  8  6  1  0
  8 11  1  6
  8  9  1  0
  9 12  1  0
  9 10  1  1
 10 13  1  0
 12 22  1  0
 14 15  1  0
 15 16  1  0
 16 17  1  0
 17 18  1  0
 18 19  1  0
 19 20  1  0
 20 21  1  0
 22 23  2  0
 22 24  1  0
 24 25  1  0
 25 26  1  0
 26 27  1  0
 27 28  1  0
 28 29  1  0
 29 30  1  0
 30 31  1  0
 31 32  1  0
 32 33  1  0
 33 34  1  0
 34 35  1  0
 35 36  1  0
 36 37  1  0
 37 38  1  0
 38 39  1  0
 39 40  1  0
M  END
>  <DRUGBANK_ID>  (1) 
DB14706

>  <COMMON_NAME>  (1) 
Ceramide NG

>  <CAS_NUMBER>  (1) 
2304-80-5

>  <UNII>  (1) 
8AD8CNQ956

>  <SYNONYMS>  (1) 
1-stearoyl-C18-sphingosine; Ceramide 2; Ceramide 2 pure; Ceramide II; Ceramide NS; N-(octadecanoyl)-dihydroceramide; N-(octadecanoyl)-sphinganine; N-(octodecanoyl)-sphinganine; N-(stearoyl)-dihydroceramide; N-octodecanoyldihydroceramide; N-octodecanoyldihydrosphingosine; N-octodecanoylsphinganine; N-stearoyldihydroceramide; N-stearoyldihydrosphingosine; N-stearoylsphinganine; palmitoyl-c16-dihydrosphingosine

$$$$
