
     RDKit          3D

 12 12  0  0  0  0  0  0  0  0999 V2000
    0.6514    1.2648   -0.2234 C   0  0  1  0  0  0  0  0  0  0  0  0
    1.4546    0.0287    0.2337 C   0  0  1  0  0  0  0  0  0  0  0  0
   -0.6958    1.1996    0.2609 O   0  0  0  0  0  0  0  0  0  0  0  0
    0.7384   -1.2514   -0.2241 C   0  0  2  0  0  0  0  0  0  0  0  0
   -1.3990    0.0441   -0.2325 C   0  0  1  0  0  0  0  0  0  0  0  0
   -0.7231   -1.2500    0.2346 C   0  0  1  0  0  0  0  0  0  0  0  0
    1.4398    2.8099    0.3373 S   0  0  0  0  0  0  0  0  0  0  0  0
    2.7981   -0.0183   -0.2680 O   0  0  0  0  0  0  0  0  0  0  0  0
    1.4180   -2.3994    0.2966 O   0  0  0  0  0  0  0  0  0  0  0  0
   -1.4307   -2.3885   -0.2566 O   0  0  0  0  0  0  0  0  0  0  0  0
   -2.8494    0.0814    0.2620 C   0  0  0  0  0  0  0  0  0  0  0  0
   -3.4995    1.2530   -0.2238 O   0  0  0  0  0  0  0  0  0  0  0  0
  1  2  1  0
  1  3  1  0
  1  7  1  1
  2  4  1  0
  2  8  1  6
  3  5  1  0
  4  6  1  0
  4  9  1  1
  5  6  1  0
  5 11  1  1
  6 10  1  6
 12 11  1  0
M  END
>  <DRUGBANK_ID>  (1) 
DB03859

>  <SECONDARY_ACCESSION_NUMBERS>  (1) 
EXPT01644

>  <COMMON_NAME>  (1) 
1-thio-beta-D-glucopyranose

>  <CAS_NUMBER>  (1) 
7534-35-2

>  <UNII>  (1) 
NG6BJW0OE1

>  <SYNONYMS>  (1) 
1-thio-b-D-glucose; 1-thio-β-D-glucose; beta-D-Thioglucose; β-D-Glc-SH; β-D-Glcp-SH

$$$$
