
     RDKit          3D

 16 17  0  0  1  0  0  0  0  0999 V2000
    0.4037   -1.3663   -1.0659 O   0  0  0  0  0  0  0  0  0  0  0  0
    0.8972    0.6616    2.2540 O   0  0  0  0  0  0  0  0  0  0  0  0
   -3.4209   -0.2291   -0.2498 O   0  0  0  0  0  0  0  0  0  0  0  0
   -2.4225    1.1041   -1.5844 O   0  0  0  0  0  0  0  0  0  0  0  0
   -0.9203   -4.3145    1.0893 O   0  0  0  0  0  0  0  0  0  0  0  0
   -1.9046   -3.8769   -0.9375 O   0  0  0  0  0  0  0  0  0  0  0  0
   -0.7116   -0.0035    0.1548 C   0  0  1  0  0  0  0  0  0  0  0  0
    1.0047   -0.8967    0.5771 C   0  0  0  0  0  0  0  0  0  0  0  0
    1.5570   -0.1630   -0.4383 C   0  0  2  0  0  0  0  0  0  0  0  0
   -1.3016   -1.0434    0.9863 C   0  0  0  0  0  0  0  0  0  0  0  0
   -0.5954   -2.1455    0.1545 C   0  0  1  0  0  0  0  0  0  0  0  0
    1.5464    0.9664    0.9311 C   0  0  1  0  0  0  0  0  0  0  0  0
   -0.3999    1.5048   -0.0755 C   0  0  0  0  0  0  0  0  0  0  0  0
    0.7583    2.0121    0.3345 C   0  0  0  0  0  0  0  0  0  0  0  0
   -2.2305    0.2454   -0.7154 C   0  0  0  0  0  0  0  0  0  0  0  0
   -1.1849   -3.5082    0.0181 C   0  0  0  0  0  0  0  0  0  0  0  0
  9  1  1  6
  1 11  1  0
  3 15  1  0
  4 15  2  0
  5 16  1  0
  6 16  2  0
  7  8  1  0
  7 10  1  0
  7 13  1  0
  7 15  1  6
  8  9  1  0
  9 12  1  0
 10 11  1  0
 11 16  1  6
 12 14  1  0
 12  2  1  1
 13 14  2  0
M  END
>  <DRUGBANK_ID>  (1) 
DB08648

>  <COMMON_NAME>  (1) 
8-Hydroxy-2-oxa-bicyclo[3.3.1]non-6-ene-3,5-dicarboxylic acid

$$$$
