
     RDKit          3D

 22 24  0  0  1  0  0  0  0  0999 V2000
    0.9189   -0.0392   -0.1530 O   0  0  0  0  0  0  0  0  0  0  0  0
    0.4487    0.3571    1.1359 C   0  0  0  0  0  0  0  0  0  0  0  0
    0.9425   -0.6046    2.2237 C   0  0  2  0  0  0  0  0  0  0  0  0
    2.4812   -0.6527    2.1829 C   0  0  1  0  0  0  0  0  0  0  0  0
    3.0062   -0.4493    3.5026 O   0  0  0  0  0  0  0  0  0  0  0  0
    3.1350   -1.8682    1.5031 C   0  0  2  0  0  0  0  0  0  0  0  0
    3.4912   -1.5101    0.1543 O   0  0  0  0  0  0  0  0  0  0  0  0
    2.3568   -3.1968    1.5091 C   0  0  1  0  0  0  0  0  0  0  0  0
    2.9012   -4.0437    2.5224 O   0  0  0  0  0  0  0  0  0  0  0  0
    0.9033   -3.0733    1.7837 C   0  0  0  0  0  0  0  0  0  0  0  0
    0.0088   -4.0523    1.7144 N   0  0  0  0  0  0  0  0  0  0  0  0
   -1.2056   -3.4923    2.0308 C   0  0  0  0  0  0  0  0  0  0  0  0
   -2.4638   -4.3136    2.0491 C   0  0  0  0  0  0  0  0  0  0  0  0
   -2.8697   -4.9025    0.7713 N   0  0  0  0  0  0  0  0  0  0  0  0
   -2.9385   -6.2866    0.6494 C   0  0  0  0  0  0  0  0  0  0  0  0
   -3.6446   -7.0529    1.5827 C   0  0  0  0  0  0  0  0  0  0  0  0
   -3.8336   -8.4236    1.4010 C   0  0  0  0  0  0  0  0  0  0  0  0
   -3.3024   -9.0552    0.2814 C   0  0  0  0  0  0  0  0  0  0  0  0
   -2.5555   -8.3193   -0.6360 C   0  0  0  0  0  0  0  0  0  0  0  0
   -2.3502   -6.9484   -0.4354 C   0  0  0  0  0  0  0  0  0  0  0  0
   -1.0436   -2.1450    2.2931 C   0  0  0  0  0  0  0  0  0  0  0  0
    0.2928   -1.9016    2.1116 N   0  0  0  0  0  0  0  0  0  0  0  0
  1  2  1  0
  3  2  1  6
  3  4  1  0
  3 22  1  0
  4  5  1  1
  4  6  1  0
  6  7  1  6
  6  8  1  0
  8 10  1  0
  8  9  1  1
 10 11  2  0
 10 22  1  0
 11 12  1  0
 12 13  1  0
 12 21  2  0
 13 14  1  0
 14 15  1  0
 15 16  2  0
 15 20  1  0
 16 17  1  0
 17 18  2  0
 18 19  1  0
 19 20  2  0
 21 22  1  0
M  END
>  <DRUGBANK_ID>  (1) 
DB04712

>  <COMMON_NAME>  (1) 
ANILINOMETHYL GLUCO-PHENYLIMIDAZOLE

$$$$
