SR2
     RDKit          3D

 27 29  0  0  0  0  0  0  0  0999 V2000
    0.8559   -0.5657    1.0837 C   0  0  0  0  0  0  0  0  0  0  0  0
    0.0332    0.6836    0.7379 C   0  0  0  0  0  0  0  0  0  0  0  0
   -1.8345    0.2921    0.0046 Br  0  0  0  0  0  0  0  0  0  0  0  0
    0.8632    1.9608    0.3258 C   0  0  0  0  0  0  0  0  0  0  0  0
    2.5657    1.9910    0.3236 C   0  0  0  0  0  0  0  0  0  0  0  0
    3.4916    0.7275    0.6411 C   0  0  0  0  0  0  0  0  0  0  0  0
    2.7204   -0.5860    0.9896 C   0  0  0  0  0  0  0  0  0  0  0  0
    3.5717   -2.0219    0.4516 N   0  0  0  0  0  0  0  0  0  0  0  0
    4.9974   -2.2570    0.2008 C   0  0  0  0  0  0  0  0  0  0  0  0
    5.7069   -1.7357    1.1765 C   0  0  0  0  0  0  0  0  0  0  0  0
    5.1598   -1.0634    2.2780 C   0  0  0  0  0  0  0  0  0  0  0  0
    5.4017   -2.9975   -0.8586 N   0  0  0  0  0  0  0  0  0  0  0  0
    6.7482   -3.0358   -0.9470 C   0  0  0  0  0  0  0  0  0  0  0  0
    7.5876   -2.4978   -0.0388 N   0  0  0  0  0  0  0  0  0  0  0  0
    7.0893   -1.8810    1.0707 C   0  0  0  0  0  0  0  0  0  0  0  0
    7.6834   -1.2634    2.1682 C   0  0  0  0  0  0  0  0  0  0  0  0
    7.0163   -0.6697    3.3406 C   0  0  0  0  0  0  0  0  0  0  0  0
    5.6432   -0.6521    3.4257 C   0  0  0  0  0  0  0  0  0  0  0  0
    4.7039   -0.1877    4.3990 N   0  0  0  0  0  0  0  0  0  0  0  0
    3.2811   -0.2771    4.4843 C   0  0  0  0  0  0  0  0  0  0  0  0
    2.7468    0.4047    5.3797 O   0  0  0  0  0  0  0  0  0  0  0  0
    2.2476   -1.1120    3.5557 C   0  0  0  0  0  0  0  0  0  0  0  0
    2.4202   -2.1904    2.6854 C   0  0  0  0  0  0  0  0  0  0  0  0
    1.6081   -2.7927    1.1139 C   0  0  0  0  0  0  0  0  0  0  0  0
    1.7925   -1.9849   -0.6158 N   0  0  0  0  0  0  0  0  0  0  0  0
    1.3192   -2.4027   -1.8749 C   0  0  0  0  0  0  0  0  0  0  0  0
    1.7663   -0.3934   -1.1817 C   0  0  0  0  0  0  0  0  0  0  0  0
  1  7  2  0
  1  2  1  0
  2  4  2  0
  3  2  1  0
  4  5  1  0
  6  5  2  0
  7  6  1  0
  8  7  1  0
  9  8  1  0
  9 12  2  0
 10 15  1  0
 10  9  1  0
 11 10  2  0
 13 12  1  0
 14 13  2  0
 15 14  1  0
 16 15  2  0
 17 16  1  0
 18 17  2  0
 18 11  1  0
 19 18  1  0
 20 19  1  0
 20 21  2  0
 22 20  1  0
 23 22  2  0
 24 23  1  0
 25 26  1  0
 25 24  1  0
 27 25  1  0
M  END
>  <DRUGBANK_ID>  (1) 
DB08564

>  <COMMON_NAME>  (1) 
(2E)-N-{4-[(3-bromophenyl)amino]quinazolin-6-yl}-4-(dimethylamino)but-2-enamide

$$$$
