NCZ
     RDKit          3D

 24 26  0  0  0  0  0  0  0  0999 V2000
    1.0207   -3.5577    4.3048 C   0  0  0  0  0  0  0  0  0  0  0  0
    0.7635   -3.2293    2.9426 C   0  0  0  0  0  0  0  0  0  0  0  0
    1.7240   -2.3537    2.3380 C   0  0  0  0  0  0  0  0  0  0  0  0
    1.6959   -2.0819    0.9799 C   0  0  0  0  0  0  0  0  0  0  0  0
    0.8125   -2.7138    0.1801 C   0  0  0  0  0  0  0  0  0  0  0  0
   -0.3230   -3.1933    0.7932 C   0  0  0  0  0  0  0  0  0  0  0  0
   -0.3631   -3.6376    2.1401 C   0  0  0  0  0  0  0  0  0  0  0  0
   -1.4695   -4.5088    2.7778 C   0  0  0  0  0  0  0  0  0  0  0  0
   -1.5625   -4.5842    4.0156 O   0  0  0  0  0  0  0  0  0  0  0  0
   -2.3407   -5.3078    2.0890 O   0  0  0  0  0  0  0  0  0  0  0  0
   -2.4599   -5.2097    0.6755 C   0  0  1  0  0  0  0  0  0  0  0  0
   -1.3062   -6.0136   -0.0248 C   0  0  1  0  0  0  0  0  0  0  0  0
   -1.8930   -6.3264   -1.3461 C   0  0  0  0  0  0  0  0  0  0  0  0
   -3.2226   -6.2015   -1.3284 C   0  0  0  0  0  0  0  0  0  0  0  0
   -3.7377   -5.7848    0.0201 C   0  0  2  0  0  0  0  0  0  0  0  0
   -4.7361   -4.7750   -0.1520 O   0  0  0  0  0  0  0  0  0  0  0  0
   -0.0178   -5.4809   -0.2713 O   0  0  0  0  0  0  0  0  0  0  0  0
   -1.3758   -2.9769   -0.0551 O   0  0  0  0  0  0  0  0  0  0  0  0
    2.7742   -1.7772    3.0527 C   0  0  0  0  0  0  0  0  0  0  0  0
    2.9383   -2.1017    4.3891 C   0  0  0  0  0  0  0  0  0  0  0  0
    2.0798   -2.9918    5.0198 C   0  0  0  0  0  0  0  0  0  0  0  0
    2.1833   -3.3599    6.3347 O   0  0  0  0  0  0  0  0  0  0  0  0
    3.2560   -2.7471    7.0420 C   0  0  0  0  0  0  0  0  0  0  0  0
    3.7642   -0.8472    2.4044 C   0  0  0  0  0  0  0  0  0  0  0  0
  1  2  2  0
  1 21  1  0
  2  3  1  0
  2  7  1  0
  3  4  1  0
  3 19  2  0
  4  5  2  0
  5  6  1  0
  6  7  2  0
  6 18  1  0
  7  8  1  0
  8  9  2  0
  8 10  1  0
 11 12  1  0
 11 15  1  0
 11 10  1  1
 12 13  1  0
 12 17  1  6
 13 14  2  0
 14 15  1  0
 15 16  1  6
 19 20  1  0
 19 24  1  0
 20 21  2  0
 21 22  1  0
 22 23  1  0
M  END
>  <DRUGBANK_ID>  (1) 
DB08261

>  <COMMON_NAME>  (1) 
2-hydroxy-7-methoxy-5-methyl-naphthalene-1-carboxylic acid meso-2,5-dihydroxy-cyclopent-3-enyl ester

$$$$
