
     RDKit          3D

 34 35  0  0  0  0  0  0  0  0999 V2000
    0.9454   -0.1971   -0.1287 C   0  0  0  0  0  0  0  0  0  0  0  0
    0.4994    0.8653   -1.1147 C   0  0  0  0  0  0  0  0  0  0  0  0
    2.1732    3.7105    0.3353 C   0  0  0  0  0  0  0  0  0  0  0  0
    1.5544    2.4028    0.4731 C   0  0  0  0  0  0  0  0  0  0  0  0
    0.8703    2.1887   -0.8273 C   0  0  0  0  0  0  0  0  0  0  0  0
   -0.2184    0.6752   -2.3012 C   0  0  0  0  0  0  0  0  0  0  0  0
   -0.7025   -0.7325   -2.4898 O   0  0  0  0  0  0  0  0  0  0  0  0
   -0.4561    1.7946   -3.1995 C   0  0  0  0  0  0  0  0  0  0  0  0
   -1.2173    1.8006   -4.4948 C   0  0  0  0  0  0  0  0  0  0  0  0
    0.0188    3.0803   -2.9121 C   0  0  0  0  0  0  0  0  0  0  0  0
   -0.2232    4.1948   -3.8953 C   0  0  0  0  0  0  0  0  0  0  0  0
    0.6339    3.2884   -1.7083 C   0  0  0  0  0  0  0  0  0  0  0  0
    0.9810    4.6066   -1.4727 O   0  0  0  0  0  0  0  0  0  0  0  0
   12.3177    5.5448   -3.7284 C   0  0  0  0  0  0  0  0  0  0  0  0
   11.3148    4.4037   -3.6746 C   0  0  0  0  0  0  0  0  0  0  0  0
   11.8298    3.1375   -4.3299 C   0  0  0  0  0  0  0  0  0  0  0  0
   10.9722    4.1803   -2.1962 C   0  0  0  0  0  0  0  0  0  0  0  0
   10.2135    5.3826   -1.6425 C   0  0  0  0  0  0  0  0  0  0  0  0
    9.0006    5.7508   -2.5096 C   0  0  0  0  0  0  0  0  0  0  0  0
    7.9417    4.6379   -2.5145 C   0  0  1  0  0  0  0  0  0  0  0  0
    8.2320    3.3360   -3.2548 C   0  0  0  0  0  0  0  0  0  0  0  0
    7.5914    4.4124   -1.0385 C   0  0  0  0  0  0  0  0  0  0  0  0
    6.9475    5.6882   -0.5021 C   0  0  0  0  0  0  0  0  0  0  0  0
    5.7173    6.0726   -1.3466 C   0  0  0  0  0  0  0  0  0  0  0  0
    4.6864    4.9512   -1.3185 C   0  0  1  0  0  0  0  0  0  0  0  0
    4.9305    3.6371   -2.0921 C   0  0  0  0  0  0  0  0  0  0  0  0
    4.4743    4.7687    0.1940 C   0  0  0  0  0  0  0  0  0  0  0  0
    3.5751    5.9188    0.7459 C   0  0  0  0  0  0  0  0  0  0  0  0
    2.2867    6.1680   -0.0867 C   0  0  0  0  0  0  0  0  0  0  0  0
    1.3872    4.8899   -0.1380 C   0  0  2  0  0  0  0  0  0  0  0  0
    0.1776    5.0603    0.7506 C   0  0  0  0  0  0  0  0  0  0  0  0
   -1.4661   -1.6149   -3.3815 C   0  0  0  0  0  0  0  0  0  0  0  0
   -1.9549   -0.8848   -4.5764 C   0  0  0  0  0  0  0  0  0  0  0  0
   -1.6731   -2.7793   -3.1885 O   0  0  0  0  0  0  0  0  0  0  0  0
  2  1  1  0
  2  6  2  0
  3  4  1  0
  4  5  1  0
  5  2  1  0
  6  7  1  0
  7 32  1  0
  8  6  1  0
  8  9  1  0
 10  8  2  0
 10 11  1  0
 12 10  1  0
 12  5  2  0
 12 13  1  0
 14 15  1  0
 15 16  1  0
 15 17  1  0
 17 18  1  0
 18 19  1  0
 19 20  1  0
 20 21  1  1
 20 22  1  0
 22 23  1  0
 23 24  1  0
 24 25  1  0
 25 26  1  1
 25 27  1  0
 27 28  1  0
 28 29  1  0
 30  3  1  0
 30 13  1  0
 30 31  1  1
 30 29  1  0
 32 33  1  0
 32 34  2  0
M  END
>  <DRUGBANK_ID>  (1) 
DB14002

>  <SECONDARY_ACCESSION_NUMBERS>  (1) 
DBSALT001457

>  <COMMON_NAME>  (1) 
D-alpha-Tocopherol acetate

>  <CAS_NUMBER>  (1) 
58-95-7

>  <UNII>  (1) 
A7E6112E4N

>  <SYNONYMS>  (1) 
(+)-alfa-tocopherol acetate; alpha-tocopheryl acetate, D-; D-alpha tocoferil acetate; D-alpha tocopheryl acetate; D-alpha-Tocopheryl acetate; RRR-alpha-tocopheryl acetate; Vitamin E acetate, D-

$$$$
