537
     RDKit          3D

 24 27  0  0  0  0  0  0  0  0999 V2000
    0.8966   -0.1026   -0.0234 F   0  0  0  0  0  0  0  0  0  0  0  0
    4.4025   -3.6507    0.2007 O   0  0  0  0  0  0  0  0  0  0  0  0
    6.5223   -4.9519    0.7540 O   0  0  0  0  0  0  0  0  0  0  0  0
    8.4159   -3.7951    1.1388 O   0  0  0  0  0  0  0  0  0  0  0  0
    6.4697   -0.1128    0.3719 N   0  0  0  0  0  0  0  0  0  0  0  0
    2.2501    2.3689    0.1651 N   0  0  0  0  0  0  0  0  0  0  0  0
    0.5174    4.6590   -0.2712 N   0  0  0  0  0  0  0  0  0  0  0  0
    7.1472    1.1437    0.8504 C   0  0  0  0  0  0  0  0  0  0  0  0
    8.1975    2.0074    0.1958 C   0  0  0  0  0  0  0  0  0  0  0  0
    8.5682    1.1393    1.3571 C   0  0  0  0  0  0  0  0  0  0  0  0
    5.0437   -0.0884    0.1875 C   0  0  0  0  0  0  0  0  0  0  0  0
    7.0449   -1.3595    0.6449 C   0  0  0  0  0  0  0  0  0  0  0  0
    4.3132   -1.2864    0.1196 C   0  0  0  0  0  0  0  0  0  0  0  0
    4.3147    1.1116    0.1082 C   0  0  0  0  0  0  0  0  0  0  0  0
    2.9094    1.1573    0.1311 C   0  0  0  0  0  0  0  0  0  0  0  0
    1.2732    2.7303    1.2056 C   0  0  0  0  0  0  0  0  0  0  0  0
    2.7302    3.5041   -0.6224 C   0  0  0  0  0  0  0  0  0  0  0  0
    6.4451   -2.5643    0.5956 C   0  0  0  0  0  0  0  0  0  0  0  0
    5.0057   -2.5823    0.2763 C   0  0  0  0  0  0  0  0  0  0  0  0
    0.0939    3.4937    0.5476 C   0  0  0  0  0  0  0  0  0  0  0  0
    1.5122    4.1988   -1.2662 C   0  0  0  0  0  0  0  0  0  0  0  0
    2.9243   -1.2792   -0.0294 C   0  0  0  0  0  0  0  0  0  0  0  0
    2.2368   -0.0709    0.0476 C   0  0  0  0  0  0  0  0  0  0  0  0
    7.2186   -3.7998    0.8590 C   0  0  0  0  0  0  0  0  0  0  0  0
  1 23  1  0
  2 19  2  0
  3 24  1  0
  4 24  2  0
  5  8  1  0
  5 11  1  0
  5 12  1  0
  6 15  1  0
  6 16  1  0
  6 17  1  0
  7 20  1  0
  7 21  1  0
  8  9  1  0
  8 10  1  0
  9 10  1  0
 11 13  2  0
 11 14  1  0
 12 18  2  0
 13 19  1  0
 13 22  1  0
 14 15  2  0
 15 23  1  0
 16 20  1  0
 17 21  1  0
 18 19  1  0
 18 24  1  0
 22 23  2  0
M  END
>  <DRUGBANK_ID>  (1) 
DB00537

>  <SECONDARY_ACCESSION_NUMBERS>  (1) 
APRD00424; EXPT00999

>  <COMMON_NAME>  (1) 
Ciprofloxacin

>  <CAS_NUMBER>  (1) 
85721-33-1

>  <UNII>  (1) 
5E8K9I0O4U

>  <SYNONYMS>  (1) 
1-cyclopropyl-6-fluoro-1,4-dihydro-4-oxo-7-(1-piperazinyl)-3-quinolinecarboxylic acid; 1-cyclopropyl-6-fluoro-4-oxo-7-(piperazin-1-yl)-1,4-dihydroquinoline-3-carboxylic acid; 1-Cyclopropyl-6-fluoro-4-oxo-7-piperazin-1-yl-1,4-dihydro-quinoline-3-carboxylic acid; 1-cyclopropyl-6-fluoro-4-oxo-7-piperazin-1-ylquinoline-3-carboxylic acid; 1-Cyclopropyl-6-fluoro-7-(4-methyl-piperazin-1-yl)-4-oxo-1,4-dihydro-quinoline-3-carboxylic acid; 1-cyclopropyl-6-fluoro-7-hexahydro-1-pyrazinyl-4-oxo-1,4-dihydro-3-quinolinecarboxylic acid; Ciprofloxacin; Ciprofloxacine; Ciprofloxacino; Ciprofloxacinum

$$$$
