
     RDKit          3D

 18 19  0  0  0  0  0  0  0  0999 V2000
    1.7270    0.5035    0.1984 O   0  0  0  0  0  0  0  0  0  0  0  0
   -1.8908    0.8593    0.0283 O   0  0  0  0  0  0  0  0  0  0  0  0
   -0.7238   -1.5095    0.6519 O   0  0  0  0  0  0  0  0  0  0  0  0
    1.4358   -1.7962   -2.6358 O   0  0  0  0  0  0  0  0  0  0  0  0
   -0.2753    3.4865    1.8337 O   0  0  0  0  0  0  0  0  0  0  0  0
    0.1002    6.5805   -3.1000 O   0  0  0  0  0  0  0  0  0  0  0  0
    0.7763    2.6911   -0.0423 N   0  0  0  0  0  0  0  0  0  0  0  0
   -0.0688    4.9207    0.0821 N   0  0  0  0  0  0  0  0  0  0  0  0
   -0.2063    6.2736   -1.7740 N   0  0  0  0  0  0  0  0  0  0  0  0
   -0.5769    0.6392   -0.4663 C   0  0  2  0  0  0  0  0  0  0  0  0
   -0.1713   -0.8200   -0.4781 C   0  0  1  0  0  0  0  0  0  0  0  0
    0.5407    1.3032    0.3772 C   0  0  1  0  0  0  0  0  0  0  0  0
    1.3576   -0.7625   -0.3994 C   0  0  1  0  0  0  0  0  0  0  0  0
    2.0674   -0.8811   -1.7546 C   0  0  0  0  0  0  0  0  0  0  0  0
    1.1024    2.8956   -1.3630 C   0  0  0  0  0  0  0  0  0  0  0  0
    0.1273    3.6966    0.6821 C   0  0  0  0  0  0  0  0  0  0  0  0
    0.5967    3.9261   -2.0268 C   0  0  0  0  0  0  0  0  0  0  0  0
    0.0944    5.0491   -1.2079 C   0  0  0  0  0  0  0  0  0  0  0  0
  1 12  1  0
  1 13  1  0
  4 14  1  0
  5 16  2  0
  6  9  1  0
  7 15  1  0
  7 16  1  0
  8 16  1  0
  8 18  2  0
  9 18  1  0
 10  2  1  1
 10 11  1  0
 10 12  1  0
 11  3  1  1
 11 13  1  0
 12  7  1  6
 13 14  1  6
 15 17  2  0
 17 18  1  0
M  END
>  <DRUGBANK_ID>  (1) 
DB15660

>  <COMMON_NAME>  (1) 
N4-Hydroxycytidine

>  <CAS_NUMBER>  (1) 
3258-02-4

>  <UNII>  (1) 
C3D11PV2O4

>  <SYNONYMS>  (1) 
4-N-Hydroxycytidine; beta-D-N-4-Hydroxycytidine; Beta-D-N4-hydroxycytidine; N(4)-Hydroxycytidine; NHC; Uridine, 4-oxime; Î²-D-N4-hydroxycytidine

$$$$
