
     RDKit          3D

 36 40  0  0  1  0  0  0  0  0999 V2000
    1.0613    0.0178    0.0393 C   0  0  0  0  0  0  0  0  0  0  0  0
    0.5150    1.3441    0.5654 C   0  0  1  0  0  0  0  0  0  0  0  0
    0.9944    2.4272   -0.2788 O   0  0  0  0  0  0  0  0  0  0  0  0
    2.3412    2.6829   -0.2940 C   0  0  0  0  0  0  0  0  0  0  0  0
    3.1880    2.0314    0.3029 O   0  0  0  0  0  0  0  0  0  0  0  0
    2.7187    3.7144   -1.1210 N   0  0  0  0  0  0  0  0  0  0  0  0
    1.8754    4.6347   -1.7098 C   0  0  0  0  0  0  0  0  0  0  0  0
    2.0274    5.1831   -2.9578 C   0  0  0  0  0  0  0  0  0  0  0  0
    0.9915    6.0216   -3.2243 O   0  0  0  0  0  0  0  0  0  0  0  0
    0.1708    6.0919   -2.1142 N   0  0  0  0  0  0  0  0  0  0  0  0
    0.7385    5.2921   -1.2026 C   0  0  0  0  0  0  0  0  0  0  0  0
    0.1892    5.2474    0.1555 C   0  0  0  0  0  0  0  0  0  0  0  0
    2.9387    4.9460   -4.0422 C   0  0  0  0  0  0  0  0  0  0  0  0
    3.1069    3.6352   -4.5091 C   0  0  0  0  0  0  0  0  0  0  0  0
    4.0046    3.3653   -5.5297 C   0  0  0  0  0  0  0  0  0  0  0  0
    4.7251    4.4137   -6.0986 C   0  0  0  0  0  0  0  0  0  0  0  0
    4.5098    5.7331   -5.6631 C   0  0  0  0  0  0  0  0  0  0  0  0
    3.6546    5.9976   -4.6089 C   0  0  0  0  0  0  0  0  0  0  0  0
    5.7081    4.1900   -7.1369 C   0  0  0  0  0  0  0  0  0  0  0  0
    5.3789    3.5422   -8.3253 C   0  0  0  0  0  0  0  0  0  0  0  0
    6.3381    3.4010   -9.3152 C   0  0  0  0  0  0  0  0  0  0  0  0
    7.6100    3.9691   -9.1591 C   0  0  0  0  0  0  0  0  0  0  0  0
    7.8114    4.8359   -8.0770 C   0  0  0  0  0  0  0  0  0  0  0  0
    6.9739    4.7537   -6.9883 C   0  0  0  0  0  0  0  0  0  0  0  0
    8.8336    3.5087   -9.9466 C   0  0  0  0  0  0  0  0  0  0  0  0
    8.9095    3.9702  -11.4063 C   0  0  0  0  0  0  0  0  0  0  0  0
    8.6261    2.5295  -11.1209 C   0  0  0  0  0  0  0  0  0  0  0  0
   10.1373    3.3410   -9.1257 C   0  0  0  0  0  0  0  0  0  0  0  0
   10.0166    3.2412   -7.7597 O   0  0  0  0  0  0  0  0  0  0  0  0
   11.2311    3.3118   -9.6455 O   0  0  0  0  0  0  0  0  0  0  0  0
   -1.0260    1.3072    0.6215 C   0  0  0  0  0  0  0  0  0  0  0  0
   -1.7588    0.1144    0.6792 C   0  0  0  0  0  0  0  0  0  0  0  0
   -3.1533    0.1088    0.8063 C   0  0  0  0  0  0  0  0  0  0  0  0
   -3.8616    1.3001    0.8970 C   0  0  0  0  0  0  0  0  0  0  0  0
   -3.1668    2.4951    0.8821 C   0  0  0  0  0  0  0  0  0  0  0  0
   -1.7779    2.4775    0.7281 C   0  0  0  0  0  0  0  0  0  0  0  0
  2  1  1  6
  2  3  1  0
  2 31  1  0
  3  4  1  0
  4  5  2  0
  4  6  1  0
  6  7  1  0
  7  8  2  0
  7 11  1  0
  8  9  1  0
  8 13  1  0
  9 10  1  0
 10 11  2  0
 11 12  1  0
 13 14  2  0
 13 18  1  0
 14 15  1  0
 15 16  2  0
 16 17  1  0
 16 19  1  0
 17 18  2  0
 19 20  2  0
 19 24  1  0
 20 21  1  0
 21 22  2  0
 22 23  1  0
 22 25  1  0
 23 24  2  0
 25 26  1  0
 25 27  1  0
 25 28  1  0
 26 27  1  0
 28 29  1  0
 28 30  2  0
 31 32  2  0
 31 36  1  0
 32 33  1  0
 33 34  2  0
 34 35  1  0
 35 36  2  0
M  END
>  <DRUGBANK_ID>  (1) 
DB14948

>  <COMMON_NAME>  (1) 
BMS-986020

>  <CAS_NUMBER>  (1) 
1257213-50-5

>  <UNII>  (1) 
38CTP01B4L

$$$$
