
     RDKit          3D

 15 15  0  0  1  0  0  0  0  0999 V2000
    0.9097    0.2713   -0.2145 N   0  0  0  0  0  0  0  0  0  0  0  0
    0.3517   -0.3696   -1.4337 C   0  0  1  0  0  0  0  0  0  0  0  0
    0.8685   -1.8167   -1.5922 C   0  0  0  0  0  0  0  0  0  0  0  0
    0.5283   -2.8182   -0.5407 N   0  0  0  0  0  0  0  0  0  0  0  0
    0.9909   -4.1167   -0.7299 C   0  0  0  0  0  0  0  0  0  0  0  0
    0.6029   -5.1453    0.0381 C   0  0  0  0  0  0  0  0  0  0  0  0
    1.2373   -7.0608   -0.2649 I   0  0  0  0  0  0  0  0  0  0  0  0
   -0.3447   -4.8715    1.1558 C   0  0  0  0  0  0  0  0  0  0  0  0
   -0.7966   -5.7268    1.8973 O   0  0  0  0  0  0  0  0  0  0  0  0
   -0.6591   -3.5601    1.3353 N   0  0  0  0  0  0  0  0  0  0  0  0
   -0.2360   -2.5215    0.5844 C   0  0  0  0  0  0  0  0  0  0  0  0
   -0.5144   -1.4021    1.0168 O   0  0  0  0  0  0  0  0  0  0  0  0
   -1.2062   -0.3463   -1.5651 C   0  0  0  0  0  0  0  0  0  0  0  0
   -1.6907    0.5936   -2.4125 O   0  0  0  0  0  0  0  0  0  0  0  0
   -1.9857   -1.1563   -1.0811 O   0  0  0  0  0  0  0  0  0  0  0  0
  2  1  1  1
  2  3  1  0
  2 13  1  0
  3  4  1  0
  4  5  1  0
  4 11  1  0
  5  6  2  0
  6  7  1  0
  6  8  1  0
  8  9  2  0
  8 10  1  0
 10 11  1  0
 11 12  2  0
 13 14  1  0
 13 15  2  0
M  END
>  <DRUGBANK_ID>  (1) 
DB02818

>  <SECONDARY_ACCESSION_NUMBERS>  (1) 
EXPT01948

>  <COMMON_NAME>  (1) 
Iodo-Willardiine

$$$$
