
     RDKit          3D

 26 29  0  0  0  0  0  0  0  0999 V2000
    2.4415    0.0014    0.0569 C   0  0  0  0  0  0  0  0  0  0  0  0
   -7.5201    2.4132   -1.7542 C   0  0  0  0  0  0  0  0  0  0  0  0
    0.3443   -1.1940    0.2505 C   0  0  0  0  0  0  0  0  0  0  0  0
    0.3401    1.2019    0.2303 C   0  0  0  0  0  0  0  0  0  0  0  0
   -1.1397   -1.2376   -0.1783 C   0  0  0  0  0  0  0  0  0  0  0  0
   -1.1541    1.2518   -0.1909 C   0  0  0  0  0  0  0  0  0  0  0  0
   -4.5053   -0.6807    2.6290 C   0  0  0  0  0  0  0  0  0  0  0  0
   -7.8409    1.0848    0.8330 C   0  0  0  0  0  0  0  0  0  0  0  0
   -5.1694    1.7615   -1.7030 C   0  0  0  0  0  0  0  0  0  0  0  0
   -5.6028   -0.0849    2.0080 C   0  0  0  0  0  0  0  0  0  0  0  0
   -8.0688    0.5153    2.0335 C   0  0  0  0  0  0  0  0  0  0  0  0
   -3.2753   -0.6550    1.9954 C   0  0  0  0  0  0  0  0  0  0  0  0
   -5.4859    0.5445    0.7593 C   0  0  0  0  0  0  0  0  0  0  0  0
   -3.0826   -0.0117    0.7598 C   0  0  0  0  0  0  0  0  0  0  0  0
   -6.9072   -0.1248    2.6967 C   0  0  0  0  0  0  0  0  0  0  0  0
   -4.2151    0.5993    0.1606 C   0  0  0  0  0  0  0  0  0  0  0  0
   -9.3957    0.5076    2.6812 C   0  0  0  0  0  0  0  0  0  0  0  0
   -2.2347   -1.2311    2.6206 F   0  0  0  0  0  0  0  0  0  0  0  0
    1.0284    0.0003   -0.3007 N   0  0  0  0  0  0  0  0  0  0  0  0
   -6.3916    1.9901   -0.9310 N   0  0  0  0  0  0  0  0  0  0  0  0
   -1.8147    0.0082    0.2047 N   0  0  0  0  0  0  0  0  0  0  0  0
   -6.6408    1.0837    0.1181 N   0  0  0  0  0  0  0  0  0  0  0  0
   -6.9860   -0.6737    3.7899 O   0  0  0  0  0  0  0  0  0  0  0  0
   -9.6876    0.0058    3.7584 O   0  0  0  0  0  0  0  0  0  0  0  0
  -10.3604    1.1156    1.9665 O   0  0  0  0  0  0  0  0  0  0  0  0
   -4.0197    1.2216   -1.0412 O   0  0  0  0  0  0  0  0  0  0  0  0
  5  3  1  0
  6  4  1  0
 10  7  2  0
 11  8  2  0
 12  7  1  0
 13 10  1  0
 14 12  2  0
 15 10  1  0
 15 11  1  0
 16 13  2  0
 16 14  1  0
 17 11  1  0
 18 12  1  0
 19  1  1  0
 19  3  1  0
 19  4  1  0
 20  2  1  0
 20  9  1  0
 21  5  1  0
 21  6  1  0
 21 14  1  0
 22  8  1  0
 22 13  1  0
 22 20  1  0
 23 15  2  0
 24 17  2  0
 25 17  1  0
 26  9  1  0
 26 16  1  0
M  END
>  <DRUGBANK_ID>  (1) 
DB11426

>  <COMMON_NAME>  (1) 
Marbofloxacin

>  <CAS_NUMBER>  (1) 
115550-35-1

>  <UNII>  (1) 
8X09WU898T

>  <SYNONYMS>  (1) 
Marbofloxacin

$$$$
