
     RDKit          3D

 12 12  0  0  0  0  0  0  0  0999 V2000
   -0.0810   -3.1864    1.2120 N   0  0  0  0  0  0  0  0  0  0  0  0
    0.3107   -2.3765    0.0234 C   0  0  2  0  0  0  0  0  0  0  0  0
   -0.4698   -2.6299    2.4315 C   0  0  0  0  0  0  0  0  0  0  0  0
    0.2292   -4.5948    1.3720 C   0  0  0  0  0  0  0  0  0  0  0  0
   -0.5493   -1.0785   -0.0260 C   0  0  0  0  0  0  0  0  0  0  0  0
   -0.0748   -3.1319   -1.2697 C   0  0  0  0  0  0  0  0  0  0  0  0
   -0.5595   -3.7257    3.4525 C   0  0  0  0  0  0  0  0  0  0  0  0
   -0.6650   -1.4506    2.6998 O   0  0  0  0  0  0  0  0  0  0  0  0
   -0.5397   -4.9913    2.6184 C   0  0  0  0  0  0  0  0  0  0  0  0
   -0.0346    0.1031   -0.4649 N   0  0  0  0  0  0  0  0  0  0  0  0
   -1.7619   -1.0906    0.2007 O   0  0  0  0  0  0  0  0  0  0  0  0
    0.3761   -2.4308   -2.5404 C   0  0  0  0  0  0  0  0  0  0  0  0
  2  6  1  6
  2  5  1  0
  2  1  1  0
  3  1  1  0
  4  1  1  0
  7  3  1  0
  8  3  2  0
  9  4  1  0
  9  7  1  0
 10  5  1  0
 11  5  2  0
 12  6  1  0
M  END
>  <DRUGBANK_ID>  (1) 
DB01202

>  <SECONDARY_ACCESSION_NUMBERS>  (1) 
APRD01068

>  <COMMON_NAME>  (1) 
Levetiracetam

>  <CAS_NUMBER>  (1) 
102767-28-2

>  <UNII>  (1) 
44YRR34555

>  <SYNONYMS>  (1) 
Levetiracetam; Levetiracetame; Levetiracetamum

$$$$
