
     RDKit          3D

 20 20  0  0  1  0  0  0  0  0999 V2000
    1.0143    0.1594   -1.9245 O   0  0  0  0  0  0  0  0  0  0  0  0
    0.5761    1.0297   -0.9301 C   0  0  1  0  0  0  0  0  0  0  0  0
    1.3201    2.3453   -0.8666 C   0  0  2  0  0  0  0  0  0  0  0  0
    1.7402    2.5801    0.4848 O   0  0  0  0  0  0  0  0  0  0  0  0
    0.3136    3.4298   -1.2574 C   0  0  1  0  0  0  0  0  0  0  0  0
    0.6748    4.1895   -2.5362 C   0  0  0  0  0  0  0  0  0  0  0  0
    0.0956    3.6349   -3.7223 O   0  0  0  0  0  0  0  0  0  0  0  0
    0.5451    1.9794   -3.9462 P   0  0  0  0  0  0  0  0  0  0  0  0
   -1.0394    1.7738   -4.3045 O   0  0  0  0  0  0  0  0  0  0  0  0
    1.0231    2.4737   -5.4304 O   0  0  0  0  0  0  0  0  0  0  0  0
    0.9473    0.4977   -4.1466 O   0  0  0  0  0  0  0  0  0  0  0  0
   -0.9606    2.8365   -1.4142 O   0  0  0  0  0  0  0  0  0  0  0  0
   -0.9113    1.4919   -0.9737 C   0  0  2  0  0  0  0  0  0  0  0  0
   -1.4230    1.4177    0.4967 C   0  0  0  0  0  0  0  0  0  0  0  0
   -0.6210    0.4546    1.2333 O   0  0  0  0  0  0  0  0  0  0  0  0
   -0.7544   -1.1925    0.7211 P   0  0  0  0  0  0  0  0  0  0  0  0
   -1.8973   -1.3356    1.8723 O   0  0  0  0  0  0  0  0  0  0  0  0
   -1.7005   -0.8041   -0.5304 O   0  0  0  0  0  0  0  0  0  0  0  0
   -0.8738   -2.6666    0.2627 O   0  0  0  0  0  0  0  0  0  0  0  0
   -1.7490    0.8938   -1.9605 O   0  0  0  0  0  0  0  0  0  0  0  0
  2  3  1  0
  2 13  1  0
  2  1  1  6
  3  4  1  1
  3  5  1  0
  5 12  1  0
  5  6  1  6
  6  7  1  0
  7  8  1  0
  8  9  1  0
  8 10  1  0
  8 11  2  0
 12 13  1  0
 13 20  1  6
 13 14  1  0
 14 15  1  0
 15 16  1  0
 16 17  1  0
 16 18  1  0
 16 19  2  0
M  END
>  <DRUGBANK_ID>  (1) 
DB04551

>  <SECONDARY_ACCESSION_NUMBERS>  (1) 
EXPT01395

>  <COMMON_NAME>  (1) 
beta-D-fructofuranose 1,6-bisphosphate

>  <UNII>  (1) 
WCH874XLB1

>  <SYNONYMS>  (1) 
1,6-di-O-phosphono-β-D-fructofuranose; beta-D-Fructose 1,6-bisphosphate; β-D-fructofuranose 1,6-bisphosphate

$$$$
