
     RDKit          3D

 23 25  0  0  0  0  0  0  0  0999 V2000
   -1.4242    1.5088    0.3260 C   0  0  0  0  0  0  0  0  0  0  0  0
   -2.7979    1.3251    0.1632 C   0  0  0  0  0  0  0  0  0  0  0  0
   -3.3002    0.0443    0.0297 C   0  0  0  0  0  0  0  0  0  0  0  0
   -2.4213   -1.0441    0.0249 C   0  0  0  0  0  0  0  0  0  0  0  0
   -0.5183    0.4221    0.2074 C   0  0  0  0  0  0  0  0  0  0  0  0
   -1.0397   -0.8867    0.0869 C   0  0  0  0  0  0  0  0  0  0  0  0
   -0.2885   -1.9979    0.0073 N   0  0  0  0  0  0  0  0  0  0  0  0
    1.0583   -1.9154    0.0070 C   0  0  0  0  0  0  0  0  0  0  0  0
    1.7884   -3.0835   -0.0888 N   0  0  0  0  0  0  0  0  0  0  0  0
    1.6792   -0.6540    0.0661 C   0  0  0  0  0  0  0  0  0  0  0  0
    0.9152    0.5138    0.1460 C   0  0  0  0  0  0  0  0  0  0  0  0
    3.0251   -0.3783    0.0556 N   0  0  0  0  0  0  0  0  0  0  0  0
    3.1302    0.9308    0.0929 C   0  0  0  0  0  0  0  0  0  0  0  0
    1.8718    1.5246    0.0760 N   0  0  0  0  0  0  0  0  0  0  0  0
    1.6419    2.9604   -0.0287 C   0  0  0  0  0  0  0  0  0  0  0  0
    0.7881    4.9822   -1.2623 C   0  0  0  0  0  0  0  0  0  0  0  0
    1.0051    3.4726   -1.3552 C   0  0  0  0  0  0  0  0  0  0  0  0
    1.8045    3.1175   -2.5945 C   0  0  0  0  0  0  0  0  0  0  0  0
   -0.2906    2.9429   -1.6099 O   0  0  0  0  0  0  0  0  0  0  0  0
    4.4514    1.6396    0.0743 C   0  0  0  0  0  0  0  0  0  0  0  0
    4.6145    2.3557   -1.1528 O   0  0  0  0  0  0  0  0  0  0  0  0
    4.6161    1.5451   -2.3315 C   0  0  0  0  0  0  0  0  0  0  0  0
    5.7314    0.5271   -2.3929 C   0  0  0  0  0  0  0  0  0  0  0  0
  1  2  2  0
  1  5  1  0
  2  3  1  0
  3  4  2  0
  4  6  1  0
  6  5  2  0
  6  7  1  0
  7  8  2  0
  8 10  1  0
  8  9  1  0
 10 12  1  0
 11  5  1  0
 11 10  2  0
 11 14  1  0
 13 12  2  0
 13 20  1  0
 14 13  1  0
 15 14  1  0
 15 17  1  0
 17 19  1  0
 17 16  1  0
 17 18  1  0
 20 21  1  0
 21 22  1  0
 22 23  1  0
M  END
>  <DRUGBANK_ID>  (1) 
DB06530

>  <COMMON_NAME>  (1) 
Resiquimod

>  <CAS_NUMBER>  (1) 
144875-48-9

>  <UNII>  (1) 
V3DMU7PVXF

>  <SYNONYMS>  (1) 
Resiquimod

$$$$
