
     RDKit          3D

 31 34  0  0  0  0  0  0  0  0999 V2000
    1.1552    0.0446    0.0812 C   0  0  0  0  0  0  0  0  0  0  0  0
    0.5148    1.2457    0.7942 C   0  0  0  0  0  0  0  0  0  0  0  0
    1.1556    2.5250    0.2253 C   0  0  0  0  0  0  0  0  0  0  0  0
   -0.9725    1.2442    0.7605 N   0  0  0  0  0  0  0  0  0  0  0  0
   -1.5239    2.4550    0.1490 C   0  0  0  0  0  0  0  0  0  0  0  0
   -3.0187    2.5179    0.2432 C   0  0  0  0  0  0  0  0  0  0  0  0
   -3.6742    1.2684   -0.3520 C   0  0  0  0  0  0  0  0  0  0  0  0
   -3.0426   -0.0134    0.1942 C   0  0  0  0  0  0  0  0  0  0  0  0
   -1.5374    0.0458    0.1208 C   0  0  0  0  0  0  0  0  0  0  0  0
   -5.1439    1.2661   -0.1603 N   0  0  0  0  0  0  0  0  0  0  0  0
   -5.7124    2.4769   -0.7902 C   0  0  0  0  0  0  0  0  0  0  0  0
   -7.1692    2.3792   -1.2264 C   0  0  0  0  0  0  0  0  0  0  0  0
   -8.2166    1.9948   -0.1858 C   0  0  0  0  0  0  0  0  0  0  0  0
   -7.7175    2.1449    1.1580 N   0  0  0  0  0  0  0  0  0  0  0  0
   -6.9082    1.0582    1.6787 C   0  0  0  0  0  0  0  0  0  0  0  0
   -5.4502    1.2409    1.2967 C   0  0  0  0  0  0  0  0  0  0  0  0
   -8.1461    3.1856    1.9414 C   0  0  0  0  0  0  0  0  0  0  0  0
   -7.2084    3.9611    2.6248 C   0  0  0  0  0  0  0  0  0  0  0  0
   -7.6371    4.9566    3.4675 C   0  0  0  0  0  0  0  0  0  0  0  0
   -8.9904    5.0533    3.6925 C   0  0  0  0  0  0  0  0  0  0  0  0
   -9.8917    4.4331    2.8507 C   0  0  0  0  0  0  0  0  0  0  0  0
   -9.4724    3.4751    1.9863 N   0  0  0  0  0  0  0  0  0  0  0  0
  -11.3739    4.8040    2.8423 C   0  0  0  0  0  0  0  0  0  0  0  0
  -12.1971    4.0547    2.3306 O   0  0  0  0  0  0  0  0  0  0  0  0
  -11.8736    5.9658    3.4682 N   0  0  0  0  0  0  0  0  0  0  0  0
  -11.1832    7.0112    4.1144 C   0  0  0  0  0  0  0  0  0  0  0  0
  -10.0911    7.6420    3.5139 C   0  0  0  0  0  0  0  0  0  0  0  0
   -9.2200    8.3507    4.3280 C   0  0  0  0  0  0  0  0  0  0  0  0
   -9.4291    8.5569    5.6440 N   0  0  0  0  0  0  0  0  0  0  0  0
  -10.5697    8.0541    6.1665 C   0  0  0  0  0  0  0  0  0  0  0  0
  -11.4787    7.2868    5.4495 C   0  0  0  0  0  0  0  0  0  0  0  0
  1  2  1  0
  2  3  1  0
  2  4  1  0
  4  5  1  0
  4  9  1  0
  5  6  1  0
  6  7  1  0
  7  8  1  0
  7 10  1  0
  8  9  1  0
 10 11  1  0
 10 16  1  0
 11 12  1  0
 12 13  1  0
 13 14  1  0
 14 15  1  0
 14 17  1  0
 15 16  1  0
 17 18  2  0
 17 22  1  0
 18 19  1  0
 19 20  2  0
 20 21  1  0
 21 22  2  0
 21 23  1  0
 23 24  2  0
 23 25  1  0
 25 26  1  0
 26 27  2  0
 26 31  1  0
 27 28  1  0
 28 29  2  0
 29 30  1  0
 30 31  2  0
M  END
>  <DRUGBANK_ID>  (1) 
DB15265

>  <COMMON_NAME>  (1) 
USL-311

>  <CAS_NUMBER>  (1) 
1373268-67-7

>  <UNII>  (1) 
2BTG5MX2Q2

>  <SYNONYMS>  (1) 
2-Pyridinecarboxamide, 6-(hexahydro-4-(1-(1-methylethyl)-4-piperidinyl)-1H-1,4-diazepin-1-yl)-N-4-pyridinyl-; 6-[4-(1-propan-2-ylpiperidin-4-yl)-1,4-diazepan-1-yl]-N-pyridin-4-ylpyridine-2-carboxamide; 6-{4-[l-(propan-2-yl)piperidin-4-yl]-1,4-diazepan-1-yl}-N-(pyridin-4-yl)pyridine-2-carboxamide

$$$$
