
     RDKit          3D

 29 27  0  0  0  0  0  0  0  0999 V2000
   -1.0538   -0.9245    2.0900 C   0  0  0  0  0  0  0  0  0  0  0  0
    4.0933   -1.7658   -0.5255 C   0  0  0  0  0  0  0  0  0  0  0  0
    4.6500   -3.4178   -0.3636 C   0  0  1  0  0  0  0  0  0  0  0  0
   -0.0682   -1.6025    1.1753 C   0  0  2  0  0  0  0  0  0  0  0  0
    3.6674   -4.8033    0.1199 C   0  0  1  0  0  0  0  0  0  0  0  0
   -0.6480   -2.2958   -0.0673 C   0  0  2  0  0  0  0  0  0  0  0  0
    2.3853   -5.4410   -0.8426 C   0  0  1  0  0  0  0  0  0  0  0  0
    0.4586   -2.7454   -0.9152 C   0  0  1  0  0  0  0  0  0  0  0  0
    2.6758   -5.8304   -2.2715 C   0  0  1  0  0  0  0  0  0  0  0  0
    3.4971   -7.0585   -2.2162 C   0  0  1  0  0  0  0  0  0  0  0  0
    1.6031   -3.0838   -0.0361 C   0  0  2  0  0  0  0  0  0  0  0  0
    2.6002   -8.1067   -1.4937 C   0  0  0  0  0  0  0  0  0  0  0  0
    2.2559   -2.2058    1.0329 C   0  0  1  0  0  0  0  0  0  0  0  0
   -0.5597   -0.9855    3.4178 O   0  0  0  0  0  0  0  0  0  0  0  0
    5.3158   -3.7007   -1.6031 O   0  0  0  0  0  0  0  0  0  0  0  0
    4.5579   -5.8103    0.5930 O   0  0  0  0  0  0  0  0  0  0  0  0
   -1.2461   -1.2360   -0.8679 O   0  0  0  0  0  0  0  0  0  0  0  0
    1.1947   -5.9097   -0.1508 O   0  0  0  0  0  0  0  0  0  0  0  0
   -0.0139   -3.7293   -1.8234 O   0  0  0  0  0  0  0  0  0  0  0  0
    1.5109   -5.8443   -3.1258 O   0  0  0  0  0  0  0  0  0  0  0  0
    3.8351   -7.3550   -3.5664 O   0  0  0  0  0  0  0  0  0  0  0  0
    2.5597   -3.1127   -1.0594 O   0  0  0  0  0  0  0  0  0  0  0  0
    1.9842   -8.8833   -2.2143 O   0  0  0  0  0  0  0  0  0  0  0  0
    2.4653   -7.9062   -0.2123 O   0  0  0  0  0  0  0  0  0  0  0  0
    3.1758   -1.1270    0.5069 O   0  0  0  0  0  0  0  0  0  0  0  0
    1.2376   -1.6273    1.8090 O   0  0  0  0  0  0  0  0  0  0  0  0
    2.9807    1.3093    0.9769 Fe  0  0  0  0  0 15  0  0  0  0  0  0
    1.7092    0.6380   -0.5649 O   0  0  0  0  0  0  0  0  0  0  0  0
    0.9599    0.9953    0.6417 O   0  0  0  0  0  0  0  0  0  0  0  0
  3  2  1  0
  4 26  1  0
  4  1  1  1
  5  3  1  0
  6  4  1  0
  6  8  1  0
  6 17  1  6
  7  5  1  0
  8 11  1  0
  8 19  1  1
  9  7  1  0
 10  9  1  0
 11 13  1  0
 11 22  1  6
 12 10  1  0
 13 26  1  0
 13 25  1  6
 14  1  1  0
  3 15  1  6
  5 16  1  6
  7 18  1  1
  9 20  1  6
 10 21  1  6
 23 12  2  0
 24 12  1  0
 25  2  1  0
 29 28  1  0
M  CHG  2  24  -1  27   1
M  END
>  <DRUGBANK_ID>  (1) 
DB11417

>  <COMMON_NAME>  (1) 
Gleptoferron

>  <CAS_NUMBER>  (1) 
57680-55-4

>  <UNII>  (1) 
898723IQHQ

>  <SYNONYMS>  (1) 
Gleptoferron; Gleptoferronum

$$$$
