
     RDKit          3D

 28 30  0  0  0  0  0  0  0  0999 V2000
   -4.5350    0.1168    1.1830 C   0  0  0  0  0  0  0  0  0  0  0  0
   -5.9416   -0.0315    1.7283 C   0  0  0  0  0  0  0  0  0  0  0  0
   -6.0875    0.6577    2.9680 O   0  0  0  0  0  0  0  0  0  0  0  0
   -5.7944    2.0553    2.7983 C   0  0  0  0  0  0  0  0  0  0  0  0
   -4.3552    2.2623    2.3303 C   0  0  0  0  0  0  0  0  0  0  0  0
   -4.1353    1.5203    1.0901 N   0  0  0  0  0  0  0  0  0  0  0  0
   -3.6256    2.1896   -0.0023 C   0  0  0  0  0  0  0  0  0  0  0  0
   -3.5637    3.4238    0.0309 O   0  0  0  0  0  0  0  0  0  0  0  0
   -3.2296    1.4100   -1.2834 C   0  0  1  0  0  0  0  0  0  0  0  0
   -2.3579    2.2257   -2.1998 N   0  0  0  0  0  0  0  0  0  0  0  0
   -1.2644    1.6821   -2.8424 C   0  0  0  0  0  0  0  0  0  0  0  0
   -0.5494    2.7314   -3.6361 C   0  0  2  0  0  0  0  0  0  0  0  0
   -1.4012    3.9971   -3.4772 C   0  0  0  0  0  0  0  0  0  0  0  0
   -2.3630    3.6732   -2.3317 C   0  0  0  0  0  0  0  0  0  0  0  0
   -0.9078    0.5300   -2.8075 O   0  0  0  0  0  0  0  0  0  0  0  0
   -2.5206    0.0768   -0.9696 C   0  0  0  0  0  0  0  0  0  0  0  0
   -0.3202    2.3461   -5.0626 N   0  0  0  0  0  0  0  0  0  0  0  0
   -1.0494    0.9185   -5.7391 S   0  0  0  0  0  0  0  0  0  0  0  0
   -0.8026    1.0369   -7.1621 O   0  0  0  0  0  0  0  0  0  0  0  0
   -0.4750   -0.2332   -5.0819 O   0  0  0  0  0  0  0  0  0  0  0  0
   -2.7872    0.9612   -5.4903 C   0  0  0  0  0  0  0  0  0  0  0  0
   -3.4060    2.1179   -5.2209 C   0  0  0  0  0  0  0  0  0  0  0  0
   -4.7894    2.2804   -4.9427 C   0  0  0  0  0  0  0  0  0  0  0  0
   -5.6679    1.4693   -4.2467 C   0  0  0  0  0  0  0  0  0  0  0  0
   -7.0025    1.9729   -4.2300 C   0  0  0  0  0  0  0  0  0  0  0  0
   -7.0864    3.1703   -4.8874 C   0  0  0  0  0  0  0  0  0  0  0  0
   -5.5895    3.7409   -5.4251 S   0  0  0  0  0  0  0  0  0  0  0  0
   -8.5195    4.0684   -5.1874 Cl  0  0  0  0  0  0  0  0  0  0  0  0
  1  2  1  0
  1  6  1  0
  2  3  1  0
  3  4  1  0
  4  5  1  0
  5  6  1  0
  6  7  1  0
  7  8  2  0
  9 10  1  0
  9  7  1  0
  9 16  1  1
 10 11  1  0
 11 12  1  0
 11 15  2  0
 12 13  1  0
 12 17  1  6
 13 14  1  0
 14 10  1  0
 17 18  1  0
 18 19  2  0
 18 20  2  0
 18 21  1  0
 21 22  2  0
 22 23  1  0
 23 24  2  0
 24 25  1  0
 25 26  2  0
 26 27  1  0
 26 28  1  0
 27 23  1  0
M  END
>  <DRUGBANK_ID>  (1) 
DB07278

>  <COMMON_NAME>  (1) 
GW-813893

>  <CAS_NUMBER>  (1) 
478644-12-1

>  <UNII>  (1) 
1Y3JD5PEMS

$$$$
