
     RDKit          3D

  4  3  0  0  0  0  0  0  0  0999 V2000
    0.9640   -0.0663   -0.0576 N   0  0  0  0  0  0  0  0  0  0  0  0
    0.2035   -1.0031    0.6175 O   0  0  0  0  0  0  0  0  0  0  0  0
    0.3202    0.7785   -0.6663 O   0  0  0  0  0  0  0  0  0  0  0  0
    2.1691   -0.2522    0.0764 O   0  0  0  0  0  0  0  0  0  0  0  0
  1  2  1  0
  1  3  2  0
  1  4  1  0
M  CHG  2   1   1   4  -1
M  END
>  <DRUGBANK_ID>  (1) 
DB15995

>  <COMMON_NAME>  (1) 
Nitric acid

>  <CAS_NUMBER>  (1) 
7697-37-2

>  <UNII>  (1) 
411VRN1TV4

>  <SYNONYMS>  (1) 
Acide nitrique; Acido nitrico; Aqua fortis; Azotowy kwas; Kyselina dusicne; Nitric acid, anhydrous; Salpetersaure; Salpeterzuuroplossingen

$$$$
