
     RDKit          3D

 10  9  0  0  0  0  0  0  0  0999 V2000
    1.4460   -3.7339    2.2992 C   0  0  0  0  0  0  0  0  0  0  0  0
    0.4289   -2.6143    2.5922 C   0  0  1  0  0  0  0  0  0  0  0  0
   -1.0394   -2.9989    2.2967 C   0  0  1  0  0  0  0  0  0  0  0  0
   -1.5463   -2.7097    0.8691 C   0  0  1  0  0  0  0  0  0  0  0  0
   -3.0844   -2.8083    0.8571 C   0  0  0  0  0  0  0  0  0  0  0  0
    2.7278   -3.3873    2.8256 O   0  0  0  0  0  0  0  0  0  0  0  0
    0.4822   -2.2719    3.9936 O   0  0  0  0  0  0  0  0  0  0  0  0
   -1.2249   -4.3865    2.6226 O   0  0  0  0  0  0  0  0  0  0  0  0
   -1.2505   -1.3789    0.4223 O   0  0  0  0  0  0  0  0  0  0  0  0
   -3.5859   -2.4981   -0.4399 O   0  0  0  0  0  0  0  0  0  0  0  0
  2  7  1  1
  2  1  1  0
  3  8  1  6
  3  2  1  0
  4  9  1  1
  4  3  1  0
  5  4  1  0
  5 10  1  0
  6  1  1  0
M  END
>  <DRUGBANK_ID>  (1) 
DB14704

>  <COMMON_NAME>  (1) 
Ribitol

>  <CAS_NUMBER>  (1) 
488-81-3

>  <UNII>  (1) 
353ZQ9TVDA

>  <SYNONYMS>  (1) 
(2R,3s,4S)-pentane-1,2,3,4,5-pentol; Adonitol; D-Adonitol; D-Ribitol; L-ribitol

$$$$
