
     RDKit          3D

 28 31  0  0  0  0  0  0  0  0999 V2000
   -0.3790   -1.0231    0.0526 N   0  0  0  0  0  0  0  0  0  0  0  0
    0.9044   -0.5005    0.0149 C   0  0  0  0  0  0  0  0  0  0  0  0
    0.9126    0.8373   -0.0600 N   0  0  0  0  0  0  0  0  0  0  0  0
   -0.4002    1.1926   -0.0034 N   0  0  0  0  0  0  0  0  0  0  0  0
   -1.2021    0.0335    0.0403 C   0  0  0  0  0  0  0  0  0  0  0  0
   -0.7366    2.5870   -0.0344 C   0  0  0  0  0  0  0  0  0  0  0  0
   -0.2181    3.4000   -1.0608 C   0  0  0  0  0  0  0  0  0  0  0  0
   -0.5659    4.7665   -1.1577 C   0  0  0  0  0  0  0  0  0  0  0  0
   -1.3898    5.3617   -0.1967 C   0  0  0  0  0  0  0  0  0  0  0  0
   -1.8734    4.5574    0.8490 C   0  0  0  0  0  0  0  0  0  0  0  0
   -1.5285    3.1875    0.9504 C   0  0  0  0  0  0  0  0  0  0  0  0
   -1.7206    6.8209   -0.2116 C   0  0  0  0  0  0  0  0  0  0  0  0
   -2.3995    7.4046    0.6253 O   0  0  0  0  0  0  0  0  0  0  0  0
   -1.1675    7.4954   -1.2365 O   0  0  0  0  0  0  0  0  0  0  0  0
    2.1750   -1.2758    0.0495 C   0  0  0  0  0  0  0  0  0  0  0  0
    2.5354   -2.1347   -1.0073 C   0  0  0  0  0  0  0  0  0  0  0  0
    3.8282   -2.7024   -1.0908 C   0  0  0  0  0  0  0  0  0  0  0  0
    4.7946   -2.4143   -0.1300 C   0  0  0  0  0  0  0  0  0  0  0  0
    4.4626   -1.5730    0.9251 C   0  0  0  0  0  0  0  0  0  0  0  0
    3.1596   -1.0568    1.0385 C   0  0  0  0  0  0  0  0  0  0  0  0
    2.9264   -0.3589    2.1958 O   0  0  0  0  0  0  0  0  0  0  0  0
   -2.6997   -0.0214    0.0142 C   0  0  0  0  0  0  0  0  0  0  0  0
   -3.4024   -0.6848    1.0427 C   0  0  0  0  0  0  0  0  0  0  0  0
   -4.8131   -0.6705    1.1181 C   0  0  0  0  0  0  0  0  0  0  0  0
   -5.5632    0.0003    0.1587 C   0  0  0  0  0  0  0  0  0  0  0  0
   -4.8993    0.6316   -0.8882 C   0  0  0  0  0  0  0  0  0  0  0  0
   -3.4952    0.5724   -0.9857 C   0  0  0  0  0  0  0  0  0  0  0  0
   -2.9766    1.0944   -2.1411 O   0  0  0  0  0  0  0  0  0  0  0  0
  1  2  1  0
  1  5  2  0
  2  3  2  0
  2 15  1  0
  3  4  1  0
  4  5  1  0
  4  6  1  0
  5 22  1  0
  6  7  2  0
  6 11  1  0
  7  8  1  0
  8  9  2  0
  9 10  1  0
  9 12  1  0
 10 11  2  0
 12 13  2  0
 12 14  1  0
 15 16  2  0
 15 20  1  0
 16 17  1  0
 17 18  2  0
 18 19  1  0
 19 20  2  0
 20 21  1  0
 22 23  2  0
 22 27  1  0
 23 24  1  0
 24 25  2  0
 25 26  1  0
 26 27  2  0
 27 28  1  0
M  END
>  <DRUGBANK_ID>  (1) 
DB01609

>  <COMMON_NAME>  (1) 
Deferasirox

>  <CAS_NUMBER>  (1) 
201530-41-8

>  <UNII>  (1) 
V8G4MOF2V9

>  <SYNONYMS>  (1) 
Deferasirox; Deferasiroxum

$$$$
