
     RDKit          3D

 11 10  0  0  0  0  0  0  0  0999 V2000
    0.6635    0.0767   -0.0280 N   0  0  0  0  0  0  0  0  0  0  0  0
    0.2008   -0.8177    0.9319 C   0  0  0  0  0  0  0  0  0  0  0  0
    0.1715    0.9492   -0.9613 C   0  0  0  0  0  0  0  0  0  0  0  0
   -1.2885   -0.9661    1.1172 C   0  0  0  0  0  0  0  0  0  0  0  0
    1.0167   -1.4180    1.6330 O   0  0  0  0  0  0  0  0  0  0  0  0
    0.9558    1.5912   -1.6676 O   0  0  0  0  0  0  0  0  0  0  0  0
   -1.1438    1.1343   -1.1476 N   0  0  0  0  0  0  0  0  0  0  0  0
   -1.7480   -2.8243    0.7578 Br  0  0  0  0  0  0  0  0  0  0  0  0
   -1.8250   -0.4001    2.4296 C   0  0  0  0  0  0  0  0  0  0  0  0
   -1.3189    1.0359    2.6679 C   0  0  0  0  0  0  0  0  0  0  0  0
   -3.3591   -0.3482    2.3930 C   0  0  0  0  0  0  0  0  0  0  0  0
  2  1  1  0
  3  1  1  0
  4  2  1  0
  5  2  2  0
  6  3  2  0
  7  3  1  0
  8  4  1  0
  9  4  1  0
 10  9  1  0
 11  9  1  0
M  END
>  <DRUGBANK_ID>  (1) 
DB13370

>  <COMMON_NAME>  (1) 
Bromisoval

>  <CAS_NUMBER>  (1) 
496-67-3

>  <UNII>  (1) 
469GW8R486

>  <SYNONYMS>  (1) 
Bromisoval; Bromisovalum

$$$$
