
     RDKit          3D

 21 23  0  0  0  0  0  0  0  0999 V2000
    0.0122    0.6836    0.0359 C   0  0  0  0  0  0  0  0  0  0  0  0
   -1.1733    1.4629    0.0057 C   0  0  0  0  0  0  0  0  0  0  0  0
    2.4869   -0.6279   -0.0416 C   0  0  0  0  0  0  0  0  0  0  0  0
    2.4580    0.7658   -0.0335 C   0  0  0  0  0  0  0  0  0  0  0  0
    1.2266    1.4040    0.0160 C   0  0  0  0  0  0  0  0  0  0  0  0
    1.2840   -1.4208    0.0187 C   0  0  0  0  0  0  0  0  0  0  0  0
   -0.0412   -0.7542    0.0838 C   0  0  0  0  0  0  0  0  0  0  0  0
   -2.4352    0.9264    0.0079 C   0  0  0  0  0  0  0  0  0  0  0  0
   -2.5387   -0.3924    0.1110 C   0  0  0  0  0  0  0  0  0  0  0  0
   -1.4333   -1.2041    0.1861 C   0  0  0  0  0  0  0  0  0  0  0  0
    1.5004   -2.8453    0.1804 N   0  0  0  0  0  0  0  0  0  0  0  0
    0.6577   -4.0152   -0.1173 C   0  0  0  0  0  0  0  0  0  0  0  0
   -0.9295   -5.8257    1.0160 C   0  0  0  0  0  0  0  0  0  0  0  0
   -1.8035   -5.8122   -0.2317 C   0  0  0  0  0  0  0  0  0  0  0  0
   -1.4239   -4.9929   -1.4491 C   0  0  0  0  0  0  0  0  0  0  0  0
   -0.2029   -4.0691   -1.4057 C   0  0  0  0  0  0  0  0  0  0  0  0
    0.3001   -4.9198    1.1073 C   0  0  0  0  0  0  0  0  0  0  0  0
   -2.8570   -2.8840    1.7863 O   0  0  0  0  0  0  0  0  0  0  0  0
   -3.2871   -2.8101   -0.7609 O   0  0  0  0  0  0  0  0  0  0  0  0
   -2.3301   -2.6612    0.2977 S   0  0  0  0  0  0  0  0  0  0  0  0
   -1.3453   -3.6163    0.5449 O   0  0  0  0  0  0  0  0  0  0  0  0
  1  2  2  0
  2  8  1  0
  3  4  1  0
  4  5  2  0
  5  1  1  0
  6  3  2  0
  6 11  1  0
  7  1  1  0
  7  6  1  0
  8  9  2  0
  9 10  1  0
 10  7  2  0
 10 20  1  0
 11 12  1  0
 12 17  2  0
 13 14  2  0
 13 17  1  0
 14 15  1  0
 15 16  2  0
 16 12  1  0
 20 18  1  0
 20 19  2  0
 20 21  2  0
M  END
>  <DRUGBANK_ID>  (1) 
DB04474

>  <SECONDARY_ACCESSION_NUMBERS>  (1) 
EXPT00103

>  <COMMON_NAME>  (1) 
8-anilinonaphthalene-1-sulfonic acid

>  <CAS_NUMBER>  (1) 
82-76-8

>  <UNII>  (1) 
630I4V6051

>  <SYNONYMS>  (1) 
1-(phenylamino)-8-naphthalenesulfonic acid; 1-Anilino-8-naphthalenesulfonate; 1-anilino-8-naphthalenesulfonic acid; 8-Anilino-1-naphthalene sulfonic acid; 8-anilinonaphthalene-1-sulphonic acid

$$$$
