VG2
     RDKit          3D

 28 30  0  0  0  0  0  0  0  0999 V2000
    1.3472   -0.0068    0.2715 N   0  0  0  0  0  0  0  0  0  0  0  0
    0.7482    1.2327   -0.2048 C   0  0  0  0  0  0  0  0  0  0  0  0
   -0.7110    1.2797    0.2429 C   0  0  0  0  0  0  0  0  0  0  0  0
   -1.4730    0.0214   -0.1863 C   0  0  0  0  0  0  0  0  0  0  0  0
   -0.7330   -1.2549    0.2281 C   0  0  0  0  0  0  0  0  0  0  0  0
    0.7304   -1.2355   -0.2286 C   0  0  0  0  0  0  0  0  0  0  0  0
    2.4490   -0.0369    1.1012 C   0  0  0  0  0  0  0  0  0  0  0  0
    3.6114   -0.6985    0.6891 C   0  0  0  0  0  0  0  0  0  0  0  0
    4.7118   -0.7995    1.5296 C   0  0  0  0  0  0  0  0  0  0  0  0
    6.1280   -1.6074    0.9912 Cl  0  0  0  0  0  0  0  0  0  0  0  0
    4.6829   -0.2462    2.8001 C   0  0  0  0  0  0  0  0  0  0  0  0
    3.5793    0.4948    3.2248 C   0  0  0  0  0  0  0  0  0  0  0  0
    3.5853    1.1572    4.4861 N   0  0  0  0  0  0  0  0  0  0  0  0
    4.6483    1.2780    5.3807 C   0  0  0  0  0  0  0  0  0  0  0  0
    4.4569    1.1477    6.5964 O   0  0  0  0  0  0  0  0  0  0  0  0
    6.0034    1.7052    4.8907 C   0  0  0  0  0  0  0  0  0  0  0  0
    6.1219    2.2429    3.6064 C   0  0  0  0  0  0  0  0  0  0  0  0
    7.3389    2.5910    3.0175 C   0  0  0  0  0  0  0  0  0  0  0  0
    7.2028    3.0626    1.5840 C   0  0  0  0  0  0  0  0  0  0  0  0
    8.5032    2.4267    3.7961 C   0  0  0  0  0  0  0  0  0  0  0  0
    9.7937    2.5436    3.3511 O   0  0  0  0  0  0  0  0  0  0  0  0
   10.0186    2.6419    1.9548 C   0  0  0  0  0  0  0  0  0  0  0  0
    9.7701    1.3207    1.1503 C   0  0  0  0  0  0  0  0  0  0  0  0
    8.6561    0.3966    1.4136 N   0  0  0  0  0  0  0  0  0  0  0  0
    8.4068    2.0039    5.1536 C   0  0  0  0  0  0  0  0  0  0  0  0
    9.6286    1.9382    6.0478 C   0  0  0  0  0  0  0  0  0  0  0  0
    7.1504    1.6355    5.6876 C   0  0  0  0  0  0  0  0  0  0  0  0
    2.4544    0.5723    2.3777 C   0  0  0  0  0  0  0  0  0  0  0  0
  1  2  1  0
  1  6  1  0
  1  7  1  0
  2  3  1  0
  3  4  1  0
  4  5  1  0
  5  6  1  0
  7  8  2  0
  7 28  1  0
  8  9  1  0
  9 10  1  0
  9 11  2  0
 11 12  1  0
 12 13  1  0
 12 28  2  0
 13 14  1  0
 14 15  2  0
 14 16  1  0
 16 17  2  0
 16 27  1  0
 17 18  1  0
 18 19  1  0
 18 20  2  0
 20 21  1  0
 20 25  1  0
 21 22  1  0
 22 23  1  0
 23 24  1  0
 25 26  1  0
 25 27  2  0
M  END
>  <DRUGBANK_ID>  (1) 
DB08697

>  <COMMON_NAME>  (1) 
4-(2-aminoethoxy)-N-(3-chloro-5-piperidin-1-ylphenyl)-3,5-dimethylbenzamide

$$$$
