
     RDKit          3D

 27 30  0  0  0  0  0  0  0  0999 V2000
    0.1270   -1.2319    0.0471 C   0  0  0  0  0  0  0  0  0  0  0  0
   -1.2648   -1.2209   -0.0015 C   0  0  0  0  0  0  0  0  0  0  0  0
   -1.9464   -0.0017   -0.0358 C   0  0  0  0  0  0  0  0  0  0  0  0
   -1.2379    1.2053   -0.0119 C   0  0  0  0  0  0  0  0  0  0  0  0
    0.1664    1.2139   -0.0077 C   0  0  0  0  0  0  0  0  0  0  0  0
    0.8240   -0.0247    0.0150 C   0  0  0  0  0  0  0  0  0  0  0  0
    0.9173    2.4734   -0.0338 C   0  0  0  0  0  0  0  0  0  0  0  0
    0.7970    3.4206    0.9822 C   0  0  0  0  0  0  0  0  0  0  0  0
    1.4568    4.6040    1.0225 N   0  0  0  0  0  0  0  0  0  0  0  0
    2.2930    4.8796   -0.0119 C   0  0  0  0  0  0  0  0  0  0  0  0
    2.4885    4.0011   -1.0727 C   0  0  0  0  0  0  0  0  0  0  0  0
    1.7991    2.7866   -1.0749 C   0  0  0  0  0  0  0  0  0  0  0  0
    2.1654   -0.0703    0.0087 F   0  0  0  0  0  0  0  0  0  0  0  0
   -1.9895   -2.4177   -0.0040 N   0  0  0  0  0  0  0  0  0  0  0  0
   -2.8942   -2.7964   -0.9696 C   0  0  0  0  0  0  0  0  0  0  0  0
   -1.8692   -3.4128    1.0067 C   0  0  0  0  0  0  0  0  0  0  0  0
   -3.4591   -3.9936   -0.6221 O   0  0  0  0  0  0  0  0  0  0  0  0
   -3.0569   -4.3124    0.7176 C   0  0  1  0  0  0  0  0  0  0  0  0
   -3.1517   -2.2180   -2.0154 O   0  0  0  0  0  0  0  0  0  0  0  0
   -2.7178   -5.7921    0.8358 C   0  0  0  0  0  0  0  0  0  0  0  0
    2.9932    6.1583    0.0149 C   0  0  0  0  0  0  0  0  0  0  0  0
    2.8911    7.0760   -1.0089 N   0  0  0  0  0  0  0  0  0  0  0  0
    3.8364    6.5620    0.9854 N   0  0  0  0  0  0  0  0  0  0  0  0
    3.6541    8.1087   -0.6753 N   0  0  0  0  0  0  0  0  0  0  0  0
    4.1859    7.7682    0.5084 N   0  0  0  0  0  0  0  0  0  0  0  0
    5.0646    8.6452    1.2339 C   0  0  0  0  0  0  0  0  0  0  0  0
   -2.3313   -6.1239    2.1640 O   0  0  0  0  0  0  0  0  0  0  0  0
  1  2  2  0
  1  6  1  0
  2  3  1  0
  2 14  1  0
  3  4  2  0
  4  5  1  0
  5  6  2  0
  5  7  1  0
  6 13  1  0
  7  8  2  0
  7 12  1  0
  8  9  1  0
  9 10  2  0
 10 11  1  0
 10 21  1  0
 11 12  2  0
 15 14  1  0
 15 19  2  0
 16 14  1  0
 17 15  1  0
 18 16  1  0
 18 17  1  0
 18 20  1  6
 20 27  1  0
 22 21  1  0
 23 21  2  0
 24 22  2  0
 25 23  1  0
 25 24  1  0
 25 26  1  0
M  END
>  <DRUGBANK_ID>  (1) 
DB14569

>  <COMMON_NAME>  (1) 
Tedizolid

>  <CAS_NUMBER>  (1) 
856866-72-3

>  <UNII>  (1) 
97HLQ82NGL

>  <SYNONYMS>  (1) 
Tedizolid; Torezolid

$$$$
