
     RDKit          3D

 15 14  0  0  0  0  0  0  0  0999 V2000
    0.9505    0.0148   -0.1072 C   0  0  0  0  0  0  0  0  0  0  0  0
   -5.4856   -5.3580    2.2533 C   0  0  0  0  0  0  0  0  0  0  0  0
   -1.3919   -4.3698    4.0337 C   0  0  0  0  0  0  0  0  0  0  0  0
    0.5298   -1.3913   -0.5003 C   0  0  0  0  0  0  0  0  0  0  0  0
    1.0627   -2.4058    0.5149 C   0  0  0  0  0  0  0  0  0  0  0  0
    0.5232   -2.1360    1.9253 C   0  0  0  0  0  0  0  0  0  0  0  0
   -0.9994   -2.1518    1.9374 C   0  0  0  0  0  0  0  0  0  0  0  0
   -1.4903   -3.5189    1.4987 C   0  0  0  0  0  0  0  0  0  0  0  0
   -4.0294   -3.6592    2.8700 C   0  0  0  0  0  0  0  0  0  0  0  0
   -4.2029   -4.9931    2.4042 C   0  0  0  0  0  0  0  0  0  0  0  0
   -1.1744   -4.6072    2.5361 C   0  0  0  0  0  0  0  0  0  0  0  0
   -3.1697   -6.0266    2.0664 C   0  0  0  0  0  0  0  0  0  0  0  0
   -3.9384   -2.5579    3.2387 N   0  0  0  0  0  0  0  0  0  0  0  0
   -3.5283   -7.1443    1.6904 O   0  0  0  0  0  0  0  0  0  0  0  0
   -1.8380   -5.8153    2.1467 O   0  0  0  0  0  0  0  0  0  0  0  0
  4  1  1  0
  5  4  1  0
  6  5  1  0
  7  6  1  0
  8  7  1  0
 10  2  2  0
 10  9  1  0
 11  3  1  0
 11  8  1  0
 12 10  1  0
 13  9  3  0
 14 12  2  0
 15 11  1  0
 15 12  1  0
M  END
>  <DRUGBANK_ID>  (1) 
DB12040

>  <COMMON_NAME>  (1) 
2-octyl cyanoacrylate

>  <CAS_NUMBER>  (1) 
133978-15-1

>  <UNII>  (1) 
L23GHX71SK

>  <SYNONYMS>  (1) 
1-methylheptyl cyanoacrylate; 2-octylcyanoacrylate; Liquid bandage

$$$$
