
     RDKit          3D

 22 25  0  0  1  0  0  0  0  0999 V2000
    1.2477   -0.0558    0.0974 N   0  0  0  0  0  0  0  0  0  0  0  0
    0.7228    1.3194   -0.1884 C   0  0  2  0  0  0  0  0  0  0  0  0
    2.8089    2.4605    0.6798 C   0  0  0  0  0  0  0  0  0  0  0  0
    1.2964    2.4031    0.7779 C   0  0  1  0  0  0  0  0  0  0  0  0
   -0.8169    1.3813   -0.2201 C   0  0  0  0  0  0  0  0  0  0  0  0
    0.7885   -0.9971   -0.9485 C   0  0  0  0  0  0  0  0  0  0  0  0
    3.4806    2.8561   -0.5042 C   0  0  0  0  0  0  0  0  0  0  0  0
   -1.3462   -0.0387   -0.0080 C   0  0  1  0  0  0  0  0  0  0  0  0
   -0.7555   -0.9550   -1.1177 C   0  0  1  0  0  0  0  0  0  0  0  0
    0.7164   -0.5222    1.3827 C   0  0  0  0  0  0  0  0  0  0  0  0
    5.6027    2.3960    0.5733 N   0  0  0  0  0  0  0  0  0  0  0  0
    4.8930    2.8122   -0.4915 C   0  0  0  0  0  0  0  0  0  0  0  0
   -1.2207   -0.5300   -2.5008 C   0  0  0  0  0  0  0  0  0  0  0  0
   -0.8169   -0.4959    1.3726 C   0  0  0  0  0  0  0  0  0  0  0  0
   -0.5094    0.2008   -3.3800 C   0  0  0  0  0  0  0  0  0  0  0  0
    0.6865    3.6819    0.5749 O   0  0  0  0  0  0  0  0  0  0  0  0
    4.9337    1.9918    1.6717 C   0  0  0  0  0  0  0  0  0  0  0  0
    3.5581    2.0075    1.7748 C   0  0  0  0  0  0  0  0  0  0  0  0
    2.8282    3.2742   -1.6930 C   0  0  0  0  0  0  0  0  0  0  0  0
    5.5657    3.2191   -1.6364 C   0  0  0  0  0  0  0  0  0  0  0  0
    3.5216    3.6517   -2.8285 C   0  0  0  0  0  0  0  0  0  0  0  0
    4.9022    3.6383   -2.7952 C   0  0  0  0  0  0  0  0  0  0  0  0
  1 10  1  0
  2  1  1  0
  2  4  1  0
  3  4  1  0
  4 16  1  6
  2  5  1  1
  8  5  1  6
  6  1  1  0
  7  3  1  0
  8 14  1  0
  9  6  1  0
  9  8  1  0
  9 13  1  6
 11 17  2  0
 12  7  2  0
 12 11  1  0
 14 10  1  0
 15 13  2  0
 17 18  1  0
 18  3  2  0
 19  7  1  0
 20 12  1  0
 20 22  2  0
 21 19  2  0
 22 21  1  0
M  END
>  <DRUGBANK_ID>  (1) 
DB16831

>  <COMMON_NAME>  (1) 
Cinchonidine

>  <CAS_NUMBER>  (1) 
485-71-2

>  <UNII>  (1) 
1U622LRA8Z

>  <SYNONYMS>  (1) 
Alpha-quinidine; Cinchovatine; Quinine bisulfate impurity B; Quinine hydrochloride impurity B; Quinine sulfate impurity B

$$$$
