
     RDKit          3D

 26 29  0  0  0  0  0  0  0  0999 V2000
    2.9027    2.6485    0.2298 C   0  0  0  0  0  0  0  0  0  0  0  0
    2.3290    2.9100   -1.0220 C   0  0  0  0  0  0  0  0  0  0  0  0
    2.8682    3.8888   -1.8564 C   0  0  0  0  0  0  0  0  0  0  0  0
    4.0053    4.5829   -1.4572 C   0  0  0  0  0  0  0  0  0  0  0  0
    4.5247    4.4246   -0.1568 C   0  0  0  0  0  0  0  0  0  0  0  0
    3.9213    3.4736    0.6984 C   0  0  0  0  0  0  0  0  0  0  0  0
    5.6447    5.3420    0.3892 C   0  0  1  0  0  0  0  0  0  0  0  0
    6.7873    4.3652    0.6181 C   0  0  0  0  0  0  0  0  0  0  0  0
    6.0256    6.6843   -0.3812 C   0  0  0  0  0  0  0  0  0  0  0  0
    7.8758    5.0323    1.2174 O   0  0  0  0  0  0  0  0  0  0  0  0
    7.0760    6.7065   -1.0806 O   0  0  0  0  0  0  0  0  0  0  0  0
    5.3336    7.9023   -0.1166 O   0  0  0  0  0  0  0  0  0  0  0  0
    2.2547    8.6993    2.2625 C   0  0  2  0  0  0  0  0  0  0  0  0
    3.4559    6.7905    2.0286 C   0  0  1  0  0  0  0  0  0  0  0  0
    2.5349    9.0230    0.7254 C   0  0  0  0  0  0  0  0  0  0  0  0
    3.5774    7.0218    0.5430 C   0  0  0  0  0  0  0  0  0  0  0  0
    3.7147    8.2996   -0.1220 C   0  0  2  0  0  0  0  0  0  0  0  0
    4.3224    7.7224    2.8854 C   0  0  2  0  0  0  0  0  0  0  0  0
    3.4918    8.9721    3.0458 C   0  0  1  0  0  0  0  0  0  0  0  0
    4.7175    8.9734    2.3247 O   0  0  0  0  0  0  0  0  0  0  0  0
    1.9682    7.1595    2.4029 N   0  0  1  0  0  0  0  0  0  0  0  0
    1.7685    6.3916    3.7409 C   0  0  0  0  0  0  0  0  0  0  0  0
    0.5750    6.9056    1.7946 C   0  0  0  0  0  0  0  0  0  0  0  0
    0.4125    6.4447    0.3926 C   0  0  0  0  0  0  0  0  0  0  0  0
    0.9364    5.0508    0.2752 C   0  0  0  0  0  0  0  0  0  0  0  0
    0.3970    4.0024    1.2204 C   0  0  0  0  0  0  0  0  0  0  0  0
  1  6  2  0
  1  2  1  0
  2  3  2  0
  3  4  1  0
  4  5  2  0
  5  6  1  0
  7  8  1  6
  7  9  1  0
  7  5  1  0
  8 10  1  0
  9 12  1  0
  9 11  2  0
 13 19  1  0
 13 15  1  6
 13 21  1  0
 14 18  1  0
 14 16  1  6
 14 21  1  0
 15 17  1  0
 16 17  1  0
 17 12  1  1
 18 19  1  0
 18 20  1  6
 19 20  1  6
 21 22  1  1
 21 23  1  0
 23 24  1  0
 24 25  1  0
 25 26  1  0
M  CHG  1  21   1
M  END
>  <DRUGBANK_ID>  (1) 
DB09300

>  <SECONDARY_ACCESSION_NUMBERS>  (1) 
DB11535

>  <COMMON_NAME>  (1) 
Butylscopolamine

>  <CAS_NUMBER>  (1) 
7182-53-8

>  <UNII>  (1) 
2Z3E1OF81V

>  <SYNONYMS>  (1) 
butilescopolamina; N-butylscopolammonium; N-butylscopolammonium cation; N-butylscopolammonium ion

$$$$
