
     RDKit          3D

 21 23  0  0  0  0  0  0  0  0999 V2000
   -0.0287   -0.9880   -0.9099 C   0  0  0  0  0  0  0  0  0  0  0  0
    1.2876   -0.5217   -0.3527 C   0  0  0  0  0  0  0  0  0  0  0  0
   -1.3249   -0.5998   -0.3478 C   0  0  0  0  0  0  0  0  0  0  0  0
    0.4786    2.2389    0.1494 S   0  0  0  0  0  0  0  0  0  0  0  0
    1.5428    0.7896    0.1231 C   0  0  0  0  0  0  0  0  0  0  0  0
   -0.0601   -1.7854   -1.9886 C   0  0  0  0  0  0  0  0  0  0  0  0
   -1.7217    0.7374   -0.3646 C   0  0  0  0  0  0  0  0  0  0  0  0
   -0.8396    1.7788   -0.9829 C   0  0  0  0  0  0  0  0  0  0  0  0
   -0.1841   -2.1393   -5.2000 N   0  0  0  0  0  0  0  0  0  0  0  0
   -1.2210   -2.2633   -2.8441 C   0  0  0  0  0  0  0  0  0  0  0  0
   -2.1449   -1.5886    0.2145 C   0  0  0  0  0  0  0  0  0  0  0  0
    2.3317   -1.4704   -0.2485 C   0  0  0  0  0  0  0  0  0  0  0  0
   -1.2620   -1.6972   -4.2866 C   0  0  0  0  0  0  0  0  0  0  0  0
    2.7990    1.0905    0.6829 C   0  0  0  0  0  0  0  0  0  0  0  0
   -2.9199    1.0878    0.2585 C   0  0  0  0  0  0  0  0  0  0  0  0
   -0.4041   -1.6023   -6.5439 C   0  0  0  0  0  0  0  0  0  0  0  0
    1.1427   -1.7074   -4.7682 C   0  0  0  0  0  0  0  0  0  0  0  0
   -3.3629   -1.2368    0.7767 C   0  0  0  0  0  0  0  0  0  0  0  0
    3.5708   -1.1461    0.3076 C   0  0  0  0  0  0  0  0  0  0  0  0
    3.8012    0.1345    0.7803 C   0  0  0  0  0  0  0  0  0  0  0  0
   -3.7376    0.1038    0.8161 C   0  0  0  0  0  0  0  0  0  0  0  0
  2  1  1  0
  3  1  1  0
  4  5  1  0
  4  8  1  0
  5  2  2  0
  6  1  2  0
  7  3  2  0
  8  7  1  0
  9 13  1  0
 10  6  1  0
 11  3  1  0
 12  2  1  0
 13 10  1  0
 14  5  1  0
 15  7  1  0
 16  9  1  0
 17  9  1  0
 18 11  2  0
 19 12  2  0
 20 19  1  0
 20 14  2  0
 21 18  1  0
 21 15  2  0
M  END
>  <DRUGBANK_ID>  (1) 
DB09167

>  <COMMON_NAME>  (1) 
Dosulepin

>  <CAS_NUMBER>  (1) 
113-53-1

>  <UNII>  (1) 
W13O82Z7HL

>  <SYNONYMS>  (1) 
(3E)-3-dibenzo[b,e]thiepin-11(6H)-ylidene-N,N-dimethylpropan-1-amine; 11-(3-Dimethylaminopropylidene)-6,11-dihydrodibenzo(b,e)thiepin; Dosulepin; Dosulepina; Dosul√©pine; Dosulepinum; Dothiepin; trans-dothiepin

$$$$
