658
     RDKit          3D

  9  8  0  0  1  0  0  0  0  0999 V2000
    1.9240   -1.7697    1.0002 Cl  0  0  0  0  0  0  0  0  0  0  0  0
    2.7891    0.0729    2.7657 O   0  0  0  0  0  0  0  0  0  0  0  0
    0.3596    0.4964   -0.3614 N   0  0  0  0  0  0  0  0  0  0  0  0
    3.6502    0.1445    1.6061 C   0  0  0  0  0  0  0  0  0  0  0  0
    3.0051    1.3751    2.2464 C   0  0  0  0  0  0  0  0  0  0  0  0
    3.1465   -0.5958    0.4174 C   0  0  0  0  0  0  0  0  0  0  0  0
    0.2419   -0.2770   -1.5900 C   0  0  0  0  0  0  0  0  0  0  0  0
    0.8102   -1.6773   -1.6957 C   0  0  0  0  0  0  0  0  0  0  0  0
    0.0826   -2.7872   -1.7009 C   0  0  0  0  0  0  0  0  0  0  0  0
  1  6  1  0
  2  4  1  0
  2  5  1  0
  3  7  1  0
  4  5  1  0
  4  6  1  0
  7  8  1  0
  8  9  2  0
M  END
>  <DRUGBANK_ID>  (1) 
DB00658

>  <SECONDARY_ACCESSION_NUMBERS>  (1) 
APRD01226

>  <COMMON_NAME>  (1) 
Sevelamer

>  <CAS_NUMBER>  (1) 
52757-95-6

>  <UNII>  (1) 
941N5DUU5C

>  <SYNONYMS>  (1) 
Sevelamer; Sévélamer; Sevelamero; Sevelamerum

$$$$
