
     RDKit          3D

 24 26  0  0  1  0  0  0  0  0999 V2000
    0.9420   -0.0994   -0.1258 C   0  0  0  0  0  0  0  0  0  0  0  0
   -1.0077   -4.6660   -4.2753 C   0  0  0  0  0  0  0  0  0  0  0  0
    0.6307   -1.5696   -2.0648 C   0  0  0  0  0  0  0  0  0  0  0  0
   -0.9719    0.3439   -5.6188 C   0  0  0  0  0  0  0  0  0  0  0  0
   -1.1420   -4.2844   -5.7762 C   0  0  2  0  0  0  0  0  0  0  0  0
   -0.1615    0.4371   -3.6526 C   0  0  0  0  0  0  0  0  0  0  0  0
    0.1942   -4.2636   -6.5477 C   0  0  2  0  0  0  0  0  0  0  0  0
    0.6809   -2.8316   -6.3604 C   0  0  2  0  0  0  0  0  0  0  0  0
    0.1399    0.8239   -2.2747 C   0  0  0  0  0  0  0  0  0  0  0  0
    0.0327   -0.8751   -4.0675 C   0  0  0  0  0  0  0  0  0  0  0  0
   -0.6038   -2.0338   -6.2647 C   0  0  2  0  0  0  0  0  0  0  0  0
    0.0545    2.0690   -1.9452 N   0  0  0  0  0  0  0  0  0  0  0  0
   -0.7387    1.1931   -4.6451 N   0  0  0  0  0  0  0  0  0  0  0  0
    0.4726   -1.9318   -3.3153 N   0  0  0  0  0  0  0  0  0  0  0  0
    0.5064   -0.2868   -1.5075 N   0  0  0  0  0  0  0  0  0  0  0  0
   -0.5381   -0.9270   -5.3221 N   0  0  0  0  0  0  0  0  0  0  0  0
   -0.0198   -4.5054   -7.9488 O   0  0  0  0  0  0  0  0  0  0  0  0
    1.4947   -2.3502   -7.4241 O   0  0  0  0  0  0  0  0  0  0  0  0
   -3.5232   -2.7105   -4.4635 O   0  0  0  0  0  0  0  0  0  0  0  0
   -3.7989   -3.2109   -2.0529 O   0  0  0  0  0  0  0  0  0  0  0  0
   -2.0869   -1.5335   -2.7017 O   0  0  0  0  0  0  0  0  0  0  0  0
   -1.9032   -4.1948   -3.2719 O   0  0  0  0  0  0  0  0  0  0  0  0
   -1.6697   -2.9494   -5.9287 O   0  0  0  0  0  0  0  0  0  0  0  0
   -2.6830   -2.7959   -3.1158 P   0  0  0  0  0  0  0  0  0  0  0  0
  5  2  1  1
  7  5  1  0
  7 17  1  6
  8  7  1  0
  8 18  1  6
  9  6  1  0
 10  6  2  0
 11  8  1  0
 11 16  1  1
 12  9  2  0
 13  4  2  0
 13  6  1  0
 14  3  2  0
 14 10  1  0
 15  1  1  0
 15  3  1  0
 15  9  1  0
 16  4  1  0
 16 10  1  0
 22  2  1  0
 23  5  1  0
 23 11  1  0
 24 19  1  0
 24 20  1  0
 24 21  2  0
 24 22  1  0
M  END
>  <DRUGBANK_ID>  (1) 
DB03318

>  <SECONDARY_ACCESSION_NUMBERS>  (1) 
EXPT00075

>  <COMMON_NAME>  (1) 
6-Hydro-1-Methyladenosine-5'-Monophosphate

$$$$
