
     RDKit          3D

 24 26  0  0  1  0  0  0  0  0999 V2000
    0.5022   -0.6101   -0.2866 C   0  0  2  0  0  0  0  0  0  0  0  0
    0.5130    0.8319   -0.1786 N   0  0  0  0  0  0  0  0  0  0  0  0
   -0.6688    1.5785   -0.0814 C   0  0  0  0  0  0  0  0  0  0  0  0
   -1.8755    0.9404    0.0038 C   0  0  0  0  0  0  0  0  0  0  0  0
   -2.0296   -0.5409    0.1181 C   0  0  0  0  0  0  0  0  0  0  0  0
   -0.6394   -1.1700    1.0344 S   0  0  0  0  0  0  0  0  0  0  0  0
    1.9786   -0.6465    0.1579 C   0  0  1  0  0  0  0  0  0  0  0  0
    1.7947    0.9055    0.2736 C   0  0  0  0  0  0  0  0  0  0  0  0
    2.2377   -1.4994    1.3728 N   0  0  0  0  0  0  0  0  0  0  0  0
    2.3001   -2.8881    1.4172 C   0  0  0  0  0  0  0  0  0  0  0  0
    2.2128   -3.4437    2.5184 O   0  0  0  0  0  0  0  0  0  0  0  0
    2.5154    1.8064    0.6604 O   0  0  0  0  0  0  0  0  0  0  0  0
    2.4711   -3.7338    0.1010 C   0  0  1  0  0  0  0  0  0  0  0  0
   -3.4658    1.6398    0.1635 Cl  0  0  0  0  0  0  0  0  0  0  0  0
   -0.5710    3.0702   -0.0293 C   0  0  0  0  0  0  0  0  0  0  0  0
    0.4476    3.7292   -0.1175 O   0  0  0  0  0  0  0  0  0  0  0  0
   -1.7611    3.6846    0.0735 O   0  0  0  0  0  0  0  0  0  0  0  0
    1.2583   -3.6945   -0.8324 C   0  0  0  0  0  0  0  0  0  0  0  0
   -0.0426   -3.7958   -0.3184 C   0  0  0  0  0  0  0  0  0  0  0  0
   -1.1577   -3.4782   -1.1127 C   0  0  0  0  0  0  0  0  0  0  0  0
   -0.9919   -3.0998   -2.4402 C   0  0  0  0  0  0  0  0  0  0  0  0
    0.2799   -3.1261   -2.9953 C   0  0  0  0  0  0  0  0  0  0  0  0
    1.3814   -3.4895   -2.2155 C   0  0  0  0  0  0  0  0  0  0  0  0
    3.7368   -3.3291   -0.5452 N   0  0  0  0  0  0  0  0  0  0  0  0
  1  2  1  0
  1  6  1  1
  1  7  1  0
  2  3  1  0
  2  8  1  0
  3  4  2  0
  3 15  1  0
  4  5  1  0
  4 14  1  0
  5  6  1  0
  7  8  1  0
  7  9  1  1
  8 12  2  0
  9 10  1  0
 10 11  2  0
 10 13  1  0
 13 18  1  0
 13 24  1  6
 15 16  2  0
 15 17  1  0
 18 19  2  0
 18 23  1  0
 19 20  1  0
 20 21  2  0
 21 22  1  0
 22 23  2  0
M  END
>  <DRUGBANK_ID>  (1) 
DB00833

>  <SECONDARY_ACCESSION_NUMBERS>  (1) 
APRD00243

>  <COMMON_NAME>  (1) 
Cefaclor

>  <CAS_NUMBER>  (1) 
53994-73-3

>  <UNII>  (1) 
3Z6FS3IK0K

>  <SYNONYMS>  (1) 
3-Chloro-7-D-(2-phenylglycinamido)-3-cephem-4-carboxylic acid; CCL; Céfaclor; Cefaclor; Cefaclor anhydrous; Cefaclorum; Céfeaclor; Cephaclor

$$$$
