
     RDKit          3D

 32 31  0  0  1  0  0  0  0  0999 V2000
   -4.0996   18.4780    2.2162 C   0  0  0  0  0  0  0  0  0  0  0  0
   -4.2065   18.2949    0.7114 C   0  0  0  0  0  0  0  0  0  0  0  0
   -3.3186   17.1362    0.2613 C   0  0  0  0  0  0  0  0  0  0  0  0
   -3.7401   15.8335    0.9496 C   0  0  0  0  0  0  0  0  0  0  0  0
   -5.2027   15.5092    0.6183 C   0  0  0  0  0  0  0  0  0  0  0  0
   -5.3374   15.3282   -0.8910 C   0  0  0  0  0  0  0  0  0  0  0  0
   -4.3527   14.2300   -1.3127 C   0  0  0  0  0  0  0  0  0  0  0  0
   -4.6478   12.9292   -0.5223 C   0  0  0  0  0  0  0  0  0  0  0  0
   -6.0518   12.5145   -0.8335 C   0  0  0  0  0  0  0  0  0  0  0  0
   -5.9485   12.3037   -2.3089 C   0  0  0  0  0  0  0  0  0  0  0  0
   -5.3063   11.0218   -2.7674 C   0  0  0  0  0  0  0  0  0  0  0  0
   -5.7501    9.6057   -2.1527 C   0  0  0  0  0  0  0  0  0  0  0  0
   -7.0352    8.6499   -2.4010 C   0  0  0  0  0  0  0  0  0  0  0  0
   -7.3671    7.8318   -3.9383 C   0  0  0  0  0  0  0  0  0  0  0  0
   -6.6555    8.9079   -6.9906 C   0  0  0  0  0  0  0  0  0  0  0  0
   -7.0346   10.4880   -5.0576 C   0  0  0  0  0  0  0  0  0  0  0  0
  -11.1162   12.5107   -4.3890 C   0  0  0  0  0  0  0  0  0  0  0  0
   -7.4175   10.1727   -6.5074 C   0  0  2  0  0  0  0  0  0  0  0  0
  -10.4410   13.4131   -3.2976 C   0  0  1  0  0  0  0  0  0  0  0  0
   -6.1912    7.5866   -4.8828 C   0  0  2  0  0  0  0  0  0  0  0  0
   -8.9554   13.2821   -3.1015 C   0  0  0  0  0  0  0  0  0  0  0  0
  -10.5405   14.8534   -3.6110 N   0  0  0  0  0  0  0  0  0  0  0  0
   -8.8096   10.1120   -6.8044 O   0  0  0  0  0  0  0  0  0  0  0  0
   -4.9594    8.2657   -4.7989 O   0  0  0  0  0  0  0  0  0  0  0  0
   -8.0618   13.9889   -3.6522 O   0  0  0  0  0  0  0  0  0  0  0  0
   -8.6973   12.2937   -2.2689 O   0  0  0  0  0  0  0  0  0  0  0  0
   -9.6578   10.3690   -2.4538 O   0  0  0  0  0  0  0  0  0  0  0  0
   -8.9400   11.6804   -4.7171 O   0  0  0  0  0  0  0  0  0  0  0  0
   -6.6805    7.6508   -6.2508 O   0  0  0  0  0  0  0  0  0  0  0  0
   -7.8249    9.8112   -3.9156 O   0  0  0  0  0  0  0  0  0  0  0  0
  -11.0430   11.0550   -4.1771 O   0  0  0  0  0  0  0  0  0  0  0  0
   -9.4339   10.4331   -4.0464 P   0  0  1  0  0  0  0  0  0  0  0  0
  2  1  1  0
  3  2  1  0
  4  3  1  0
  5  4  1  0
  6  5  1  0
  7  6  1  0
  8  7  1  0
  9  8  1  0
 10  9  1  0
 11 10  1  0
 12 11  1  0
 13 12  1  0
 14 13  1  0
 18 23  1  1
 18 16  1  0
 18 15  1  0
 19 17  1  0
 19 22  1  6
 20 24  1  6
 20 14  1  0
 21 19  1  0
 25 21  2  0
 26 21  1  0
 29 15  1  0
 29 20  1  0
 30 16  1  0
 31 17  1  0
 32 27  1  1
 32 28  2  0
 32 30  1  0
 32 31  1  0
M  END
>  <DRUGBANK_ID>  (1) 
DB04136

>  <SECONDARY_ACCESSION_NUMBERS>  (1) 
EXPT02059

>  <COMMON_NAME>  (1) 
Lysophosphotidylserine

$$$$
