
     RDKit          3D

 11 12  0  0  0  0  0  0  0  0999 V2000
   -0.8145   -0.7179    0.0077 C   0  0  0  0  0  0  0  0  0  0  0  0
   -0.8650    0.6690   -0.0043 C   0  0  0  0  0  0  0  0  0  0  0  0
    0.3795   -1.4408    0.0056 C   0  0  0  0  0  0  0  0  0  0  0  0
    0.3344    1.3943   -0.0046 C   0  0  0  0  0  0  0  0  0  0  0  0
    1.5836   -0.7074   -0.0034 C   0  0  0  0  0  0  0  0  0  0  0  0
    1.5661    0.7048    0.0037 C   0  0  0  0  0  0  0  0  0  0  0  0
   -2.1663    1.1128   -0.0098 N   0  0  0  0  0  0  0  0  0  0  0  0
   -2.9004    0.0247    0.0077 C   0  0  0  0  0  0  0  0  0  0  0  0
   -2.1305   -1.1045    0.0209 N   0  0  0  0  0  0  0  0  0  0  0  0
    2.8261    1.5300    0.0242 C   0  0  0  0  0  0  0  0  0  0  0  0
    2.8842   -1.4662   -0.0330 C   0  0  0  0  0  0  0  0  0  0  0  0
  1  3  2  0
  1  2  1  0
  1  9  1  0
  2  4  2  0
  2  7  1  0
  3  5  1  0
  4  6  1  0
  5  6  2  0
  8  7  2  0
  9  8  1  0
 10  6  1  0
 11  5  1  0
M  END
>  <DRUGBANK_ID>  (1) 
DB02591

>  <SECONDARY_ACCESSION_NUMBERS>  (1) 
EXPT01222

>  <COMMON_NAME>  (1) 
5,6-Dimethylbenzimidazole

>  <CAS_NUMBER>  (1) 
582-60-5

>  <UNII>  (1) 
553XI1DS20

$$$$
