
     RDKit          3D

 23 25  0  0  1  0  0  0  0  0999 V2000
    9.3129   -1.5189    2.0222 C   0  0  0  0  0  0  0  0  0  0  0  0
    8.7319   -0.7826    3.0961 O   0  0  0  0  0  0  0  0  0  0  0  0
    7.3862   -0.6131    2.9777 C   0  0  0  0  0  0  0  0  0  0  0  0
    6.6880   -0.9900    2.0499 O   0  0  0  0  0  0  0  0  0  0  0  0
    6.8091   -0.0442    4.2299 C   0  0  0  0  0  0  0  0  0  0  0  0
    5.8721    1.1543    4.1495 C   0  0  0  0  0  0  0  0  0  0  0  0
    7.2602    1.3238    4.6990 C   0  0  0  0  0  0  0  0  0  0  0  0
    6.4714   -1.1480    5.1097 O   0  0  0  0  0  0  0  0  0  0  0  0
    6.2823   -1.0860    6.4514 C   0  0  0  0  0  0  0  0  0  0  0  0
    6.2699   -0.0748    7.1247 O   0  0  0  0  0  0  0  0  0  0  0  0
    5.9115   -2.4082    6.9245 C   0  0  0  0  0  0  0  0  0  0  0  0
    6.6933   -3.5461    6.9779 C   0  0  0  0  0  0  0  0  0  0  0  0
    6.0580   -4.5794    7.6132 N   0  0  0  0  0  0  0  0  0  0  0  0
    4.8646   -4.1195    7.8977 C   0  0  0  0  0  0  0  0  0  0  0  0
    4.7119   -2.8078    7.4902 N   0  0  0  0  0  0  0  0  0  0  0  0
    3.4907   -2.0255    7.7175 C   0  0  2  0  0  0  0  0  0  0  0  0
    3.3645   -0.7530    6.8630 C   0  0  0  0  0  0  0  0  0  0  0  0
    3.2375   -1.7491    9.2005 C   0  0  0  0  0  0  0  0  0  0  0  0
    2.1422   -0.9466    9.5624 C   0  0  0  0  0  0  0  0  0  0  0  0
    1.8025   -0.7580   10.8991 C   0  0  0  0  0  0  0  0  0  0  0  0
    2.5122   -1.4188   11.8962 C   0  0  0  0  0  0  0  0  0  0  0  0
    3.5845   -2.2342   11.5619 C   0  0  0  0  0  0  0  0  0  0  0  0
    3.9879   -2.3347   10.2353 C   0  0  0  0  0  0  0  0  0  0  0  0
  1  2  1  0
  2  3  1  0
  3  4  2  0
  3  5  1  0
  5  6  1  0
  5  7  1  0
  5  8  1  0
  6  7  1  0
  8  9  1  0
  9 10  2  0
  9 11  1  0
 11 12  2  0
 11 15  1  0
 12 13  1  0
 13 14  2  0
 14 15  1  0
 16 18  1  0
 16 17  1  6
 16 15  1  0
 18 19  2  0
 18 23  1  0
 19 20  1  0
 20 21  2  0
 21 22  1  0
 22 23  2  0
M  END
>  <DRUGBANK_ID>  (1) 
DB15411

>  <COMMON_NAME>  (1) 
ABP-700

>  <CAS_NUMBER>  (1) 
1446482-29-6

>  <UNII>  (1) 
LZ0835OW2M

$$$$
