ABJ
     RDKit          3D

 20 22  0  0  0  0  0  0  0  0999 V2000
    1.0955   -0.0518   -0.0593 C   0  0  0  0  0  0  0  0  0  0  0  0
    0.5655   -0.0439   -1.4958 C   0  0  0  0  0  0  0  0  0  0  0  0
   -0.9636    0.0641   -1.5003 C   0  0  0  0  0  0  0  0  0  0  0  0
    1.0155   -1.2131   -2.2522 N   0  0  0  0  0  0  0  0  0  0  0  0
    1.7753   -1.0742   -3.3742 N   0  0  0  0  0  0  0  0  0  0  0  0
    0.6829   -2.5145   -1.9791 C   0  0  0  0  0  0  0  0  0  0  0  0
   -0.0308   -2.9729   -0.9391 N   0  0  0  0  0  0  0  0  0  0  0  0
   -0.2015   -4.3019   -1.0034 C   0  0  0  0  0  0  0  0  0  0  0  0
    0.2479   -5.1483   -1.9502 N   0  0  0  0  0  0  0  0  0  0  0  0
    0.9636   -4.6445   -2.9754 C   0  0  0  0  0  0  0  0  0  0  0  0
    1.3938   -5.5277   -3.9400 N   0  0  0  0  0  0  0  0  0  0  0  0
    1.2048   -3.2674   -3.0137 C   0  0  0  0  0  0  0  0  0  0  0  0
    1.8606   -2.3283   -3.8617 C   0  0  0  0  0  0  0  0  0  0  0  0
    2.5516   -2.6599   -5.1101 C   0  0  0  0  0  0  0  0  0  0  0  0
    3.9290   -2.4491   -5.2496 C   0  0  0  0  0  0  0  0  0  0  0  0
    1.8537   -3.3382   -6.1265 C   0  0  0  0  0  0  0  0  0  0  0  0
    2.5254   -3.8397   -7.2426 C   0  0  0  0  0  0  0  0  0  0  0  0
    3.8942   -3.6296   -7.3733 C   0  0  0  0  0  0  0  0  0  0  0  0
    4.5831   -2.9324   -6.3847 C   0  0  0  0  0  0  0  0  0  0  0  0
    5.9259   -2.7692   -6.5651 O   0  0  0  0  0  0  0  0  0  0  0  0
  2  1  1  0
  2  4  1  0
  3  2  1  0
  4  5  1  0
  4  6  1  0
  5 13  2  0
  6  7  2  0
  6 12  1  0
  7  8  1  0
  8  9  2  0
  9 10  1  0
 10 11  1  0
 10 12  2  0
 12 13  1  0
 13 14  1  0
 14 15  2  0
 14 16  1  0
 15 19  1  0
 16 17  2  0
 17 18  1  0
 18 19  2  0
 19 20  1  0
M  END
>  <DRUGBANK_ID>  (1) 
DB07335

>  <COMMON_NAME>  (1) 
3-[4-AMINO-1-(1-METHYLETHYL)-1H-PYRAZOLO[3,4-D]PYRIMIDIN-3-YL]PHENOL

>  <UNII>  (1) 
E6993R9V55

$$$$
