
     RDKit          3D

 21 23  0  0  0  0  0  0  0  0999 V2000
   -2.0833   -1.2436    0.0051 N   0  0  0  0  0  0  0  0  0  0  0  0
    0.2915   -0.6805   -0.2014 C   0  0  0  0  0  0  0  0  0  0  0  0
   -0.8846   -1.5521   -0.4775 C   0  0  0  0  0  0  0  0  0  0  0  0
   -0.9570    1.4710   -0.4838 N   0  0  0  0  0  0  0  0  0  0  0  0
   -2.3521   -0.0601    0.8407 C   0  0  0  0  0  0  0  0  0  0  0  0
    0.2004    0.7214   -0.2055 C   0  0  0  0  0  0  0  0  0  0  0  0
   -2.1265    1.1585   -0.0232 C   0  0  0  0  0  0  0  0  0  0  0  0
   -3.0860   -2.0178   -0.1915 O   0  0  0  0  0  0  0  0  0  0  0  0
    1.5363   -1.2786    0.0532 C   0  0  0  0  0  0  0  0  0  0  0  0
   -0.7477   -2.7730   -1.3194 C   0  0  0  0  0  0  0  0  0  0  0  0
    1.3743    1.4665    0.0063 C   0  0  0  0  0  0  0  0  0  0  0  0
   -3.2217    1.9617   -0.2860 N   0  0  0  0  0  0  0  0  0  0  0  0
    2.6801   -0.5254    0.2705 C   0  0  0  0  0  0  0  0  0  0  0  0
    2.6087    0.8527    0.2426 C   0  0  0  0  0  0  0  0  0  0  0  0
    4.1704   -1.3324    0.5645 Cl  0  0  0  0  0  0  0  0  0  0  0  0
   -1.4843   -2.8552   -2.5021 C   0  0  0  0  0  0  0  0  0  0  0  0
    0.0203   -3.8683   -0.9100 C   0  0  0  0  0  0  0  0  0  0  0  0
   -3.1695    3.1679   -1.0805 C   0  0  0  0  0  0  0  0  0  0  0  0
   -1.5551   -4.0715   -3.1812 C   0  0  0  0  0  0  0  0  0  0  0  0
    0.0851   -5.0188   -1.6886 C   0  0  0  0  0  0  0  0  0  0  0  0
   -0.7665   -5.1494   -2.7778 C   0  0  0  0  0  0  0  0  0  0  0  0
  2  3  1  0
  3  1  2  0
  4  7  2  0
  5  1  1  0
  6  2  2  0
  6  4  1  0
  7  5  1  0
  8  1  1  0
  9  2  1  0
 10  3  1  0
 11  6  1  0
 11 14  2  0
 12  7  1  0
 13  9  2  0
 14 13  1  0
 15 13  1  0
 16 10  2  0
 17 10  1  0
 18 12  1  0
 19 16  1  0
 20 17  2  0
 20 21  1  0
 21 19  2  0
M  CHG  2   1   1   8  -1
M  END
>  <DRUGBANK_ID>  (1) 
DB00475

>  <SECONDARY_ACCESSION_NUMBERS>  (1) 
APRD00682

>  <COMMON_NAME>  (1) 
Chlordiazepoxide

>  <CAS_NUMBER>  (1) 
58-25-3

>  <UNII>  (1) 
6RZ6XEZ3CR

>  <SYNONYMS>  (1) 
7-chloro-2-methylamino-5-phenyl-3H-1,4-benzodiazepin-4-oxide; CDP; Chloradiazepoxide; Chlordiazepoxide; Chlordiazepoxidum; Clopoxide; Clordiazep√≥xido; Methaminodiazepoxide

$$$$
