
     RDKit          3D

 15 18  0  0  0  0  0  0  0  0999 V2000
   -0.6084   -1.2266   -0.0761 N   0  0  0  0  0  0  0  0  0  0  0  0
   -1.3374   -0.0988   -0.0844 C   0  0  0  0  0  0  0  0  0  0  0  0
   -0.7508    1.1021   -0.0245 N   0  0  0  0  0  0  0  0  0  0  0  0
    0.5715    1.1938    0.0448 C   0  0  0  0  0  0  0  0  0  0  0  0
    1.3606    0.1047    0.0553 N   0  0  0  0  0  0  0  0  0  0  0  0
    0.7389   -1.0774   -0.0158 C   0  0  0  0  0  0  0  0  0  0  0  0
   -2.7169    0.0221    0.0845 N   0  0  0  0  0  0  0  0  0  0  0  0
   -3.8432   -0.7182    0.5278 C   0  0  0  0  0  0  0  0  0  0  0  0
   -3.8090   -0.0109   -0.8494 C   0  0  0  0  0  0  0  0  0  0  0  0
    1.1080    2.4616    0.1022 N   0  0  0  0  0  0  0  0  0  0  0  0
    1.2281    3.6053    0.9035 C   0  0  0  0  0  0  0  0  0  0  0  0
    1.9216    3.4005   -0.5358 C   0  0  0  0  0  0  0  0  0  0  0  0
    1.4584   -2.2752    0.1386 N   0  0  0  0  0  0  0  0  0  0  0  0
    1.9378   -3.3519   -0.6195 C   0  0  0  0  0  0  0  0  0  0  0  0
    2.5321   -2.8859    0.7808 C   0  0  0  0  0  0  0  0  0  0  0  0
  2  1  2  0
  3  2  1  0
  4  3  2  0
  5  4  1  0
  6  1  1  0
  6  5  2  0
  7  2  1  0
  8  7  1  0
  9  7  1  0
  9  8  1  0
 10  4  1  0
 11 10  1  0
 12 10  1  0
 12 11  1  0
 13  6  1  0
 14 13  1  0
 15 13  1  0
 15 14  1  0
M  END
>  <DRUGBANK_ID>  (1) 
DB14031

>  <COMMON_NAME>  (1) 
Tretamine

>  <CAS_NUMBER>  (1) 
51-18-3

>  <UNII>  (1) 
F7IY6HZG9D

>  <SYNONYMS>  (1) 
2,4,6-tri(1-aziridinyl)-1,3,5-triazine; 2,4,6-tris(1-aziridinyl)-1,3,5-triazine; 2,4,6-tris(1-aziridinyl)-s-triazine; 2,4,6-tris(aziridin-1-yl)-1,3,5-triazine; TEM; Tretamina; Tretamine; Tretaminum; Triaethylenmelamin; Triethylenemelamine; Trisaziridinyltriazine

$$$$
