
     RDKit          3D

 28 31  0  0  1  0  0  0  0  0999 V2000
    1.6825    0.4630    0.2582 O   0  0  0  0  0  0  0  0  0  0  0  0
   -1.8880    0.8812    0.0613 O   0  0  0  0  0  0  0  0  0  0  0  0
   -0.7566   -1.4778    0.6487 O   0  0  0  0  0  0  0  0  0  0  0  0
    1.4563   -1.7940   -2.6387 O   0  0  0  0  0  0  0  0  0  0  0  0
    1.9128    0.6078   -8.8339 O   0  0  0  0  0  0  0  0  0  0  0  0
    0.8846    2.6508   -0.0465 N   0  0  0  0  0  0  0  0  0  0  0  0
    1.7362    4.6899    0.2428 N   0  0  0  0  0  0  0  0  0  0  0  0
    0.8991    2.5282   -2.4700 N   0  0  0  0  0  0  0  0  0  0  0  0
    2.1268    4.3780   -3.4399 N   0  0  0  0  0  0  0  0  0  0  0  0
    1.2361    2.6220   -4.8071 N   0  0  0  0  0  0  0  0  0  0  0  0
    2.9529    6.1956   -2.1704 N   0  0  0  0  0  0  0  0  0  0  0  0
    0.0812    2.1335   -5.3257 N   0  0  0  0  0  0  0  0  0  0  0  0
    3.9167    1.1149   -8.0157 N   0  0  0  0  0  0  0  0  0  0  0  0
   -0.5983    0.6494   -0.5081 C   0  0  1  0  0  0  0  0  0  0  0  0
    0.5068    1.3032    0.3206 C   0  0  1  0  0  0  0  0  0  0  0  0
   -0.1932   -0.8163   -0.4983 C   0  0  1  0  0  0  0  0  0  0  0  0
    1.3350   -0.7726   -0.4040 C   0  0  1  0  0  0  0  0  0  0  0  0
    2.0614   -0.8623   -1.7532 C   0  0  0  0  0  0  0  0  0  0  0  0
    1.1486    3.1275   -1.2995 C   0  0  0  0  0  0  0  0  0  0  0  0
    1.1763    3.6569    0.8391 C   0  0  0  0  0  0  0  0  0  0  0  0
    1.7596    4.3524   -1.0968 C   0  0  0  0  0  0  0  0  0  0  0  0
    2.2787    4.9929   -2.2362 C   0  0  0  0  0  0  0  0  0  0  0  0
    1.3793    3.2330   -3.5144 C   0  0  0  0  0  0  0  0  0  0  0  0
    2.3062    2.3278   -5.6182 C   0  0  0  0  0  0  0  0  0  0  0  0
    1.8562    1.6757   -6.7453 C   0  0  0  0  0  0  0  0  0  0  0  0
    0.4511    1.6487   -6.5206 C   0  0  0  0  0  0  0  0  0  0  0  0
    2.5428    1.1113   -7.9099 C   0  0  0  0  0  0  0  0  0  0  0  0
    4.9364    1.5951   -7.1228 C   0  0  0  0  0  0  0  0  0  0  0  0
  1 15  1  0
  1 17  1  0
  4 18  1  0
  5 27  2  0
  6 19  1  0
  6 20  1  0
  7 20  2  0
  7 21  1  0
  8 19  1  0
  8 23  2  0
  9 22  2  0
  9 23  1  0
 10 12  1  0
 10 23  1  0
 10 24  1  0
 11 22  1  0
 12 26  2  0
 13 27  1  0
 13 28  1  0
 14  2  1  1
 14 15  1  0
 14 16  1  0
 15  6  1  6
 16  3  1  1
 16 17  1  0
 17 18  1  6
 19 21  2  0
 21 22  1  0
 24 25  2  0
 25 26  1  0
 25 27  1  0
M  END
>  <DRUGBANK_ID>  (1) 
DB06213

>  <COMMON_NAME>  (1) 
Regadenoson

>  <CAS_NUMBER>  (1) 
313348-27-5

>  <UNII>  (1) 
7AXV542LZ4

>  <SYNONYMS>  (1) 
Regadenoson; Regadenoson anhydrous

$$$$
