
     RDKit          3D

 13 13  0  0  0  0  0  0  0  0999 V2000
    1.4288   -0.2910   -0.0398 C   0  0  0  0  0  0  0  0  0  0  0  0
    0.5236   -1.3527   -0.0017 C   0  0  0  0  0  0  0  0  0  0  0  0
   -0.8546   -1.1172   -0.0801 C   0  0  0  0  0  0  0  0  0  0  0  0
   -1.3323    0.1823   -0.2838 C   0  0  0  0  0  0  0  0  0  0  0  0
   -0.3894    1.2073   -0.4671 C   0  0  0  0  0  0  0  0  0  0  0  0
    0.9695    0.9953   -0.2701 C   0  0  0  0  0  0  0  0  0  0  0  0
   -2.8111    0.5097   -0.2326 C   0  0  0  0  0  0  0  0  0  0  0  0
   -3.2735    1.3020    1.0270 C   0  0  0  0  0  0  0  0  0  0  0  0
   -2.6444    2.6088    1.1520 O   0  0  0  0  0  0  0  0  0  0  0  0
   -1.4355    2.6244    1.7764 C   0  0  0  0  0  0  0  0  0  0  0  0
   -0.9171    1.6968    2.3646 O   0  0  0  0  0  0  0  0  0  0  0  0
   -0.7788    3.7908    1.5298 N   0  0  0  0  0  0  0  0  0  0  0  0
   -3.1625    1.2415   -1.4125 O   0  0  0  0  0  0  0  0  0  0  0  0
  1  2  2  0
  1  6  1  0
  2  3  1  0
  3  4  2  0
  4  5  1  0
  4  7  1  0
  5  6  2  0
  7  8  1  0
  7 13  1  0
  8  9  1  0
  9 10  1  0
 10 11  2  0
 10 12  1  0
M  END
>  <DRUGBANK_ID>  (1) 
DB13357

>  <COMMON_NAME>  (1) 
Styramate

>  <CAS_NUMBER>  (1) 
94-35-9

>  <UNII>  (1) 
CBK7Y28SP3

>  <SYNONYMS>  (1) 
Styramate

$$$$
