
     RDKit          3D

 15 15  0  0  0  0  0  0  0  0999 V2000
    0.5344    0.5704   -0.6039 O   0  0  0  0  0  0  0  0  0  0  0  0
    0.6902    2.0385    0.0337 P   0  0  0  0  0  0  0  0  0  0  0  0
   -0.1282    1.7734    1.3768 O   0  0  0  0  0  0  0  0  0  0  0  0
    2.1511    2.2650    0.3056 O   0  0  0  0  0  0  0  0  0  0  0  0
   -0.2365    3.3022   -0.9455 C   0  0  0  0  0  0  0  0  0  0  0  0
    0.8250    4.0583   -1.7935 C   0  0  0  0  0  0  0  0  0  0  0  0
    0.7394    5.4474   -1.9459 C   0  0  0  0  0  0  0  0  0  0  0  0
    1.6270    6.1055   -2.7935 C   0  0  0  0  0  0  0  0  0  0  0  0
    2.6333    5.3946   -3.4495 C   0  0  0  0  0  0  0  0  0  0  0  0
    2.7226    4.0135   -3.3093 C   0  0  0  0  0  0  0  0  0  0  0  0
    1.7832    3.3406   -2.5368 C   0  0  0  0  0  0  0  0  0  0  0  0
   -1.8486    3.1480   -1.7978 P   0  0  0  0  0  0  0  0  0  0  0  0
   -1.1149    3.5596   -3.2077 O   0  0  0  0  0  0  0  0  0  0  0  0
   -1.6178    1.5241   -1.9255 O   0  0  0  0  0  0  0  0  0  0  0  0
   -3.2126    3.0176   -2.5189 O   0  0  0  0  0  0  0  0  0  0  0  0
  1  2  1  0
  2  3  1  0
  2  4  2  0
  2  5  1  0
  5  6  1  0
  5 12  1  0
  6  7  2  0
  6 11  1  0
  7  8  1  0
  8  9  2  0
  9 10  1  0
 10 11  2  0
 12 13  1  0
 12 14  1  0
 12 15  2  0
M  END
>  <DRUGBANK_ID>  (1) 
DB02908

>  <SECONDARY_ACCESSION_NUMBERS>  (1) 
EXPT00303

>  <COMMON_NAME>  (1) 
RU78783

$$$$
