
     RDKit          3D

 24 23  0  0  0  0  0  0  0  0999 V2000
    0.9930    0.0683   -0.0728 C   0  0  0  0  0  0  0  0  0  0  0  0
    0.4864    1.2187   -0.9272 C   0  0  0  0  0  0  0  0  0  0  0  0
    0.9069    2.4906   -0.5660 C   0  0  0  0  0  0  0  0  0  0  0  0
    0.5955    3.5536   -1.4012 C   0  0  0  0  0  0  0  0  0  0  0  0
   -0.1141    3.3122   -2.5617 C   0  0  0  0  0  0  0  0  0  0  0  0
   -0.4950    2.0862   -2.8793 C   0  0  0  0  0  0  0  0  0  0  0  0
   -0.2193    1.0509   -2.1018 C   0  0  0  0  0  0  0  0  0  0  0  0
   -0.6696   -0.2925   -2.4935 N   0  0  0  0  0  0  0  0  0  0  0  0
   -1.4216   -0.4805   -3.7425 C   0  0  0  0  0  0  0  0  0  0  0  0
   -1.8110   -1.6419   -4.0812 O   0  0  0  0  0  0  0  0  0  0  0  0
   -1.7335    0.7142   -4.6290 C   0  0  0  0  0  0  0  0  0  0  0  0
   -2.5358    1.6879   -3.8746 N   0  0  0  0  0  0  0  0  0  0  0  0
   -2.8375    2.8433   -4.7320 C   0  0  0  0  0  0  0  0  0  0  0  0
   -3.6181    2.3796   -5.9509 C   0  0  0  0  0  0  0  0  0  0  0  0
   -4.7815    2.8403   -6.1735 O   0  0  0  0  0  0  0  0  0  0  0  0
   -3.0476    1.4316   -6.8410 O   0  0  0  0  0  0  0  0  0  0  0  0
   -3.7914    1.0578   -3.4418 C   0  0  0  0  0  0  0  0  0  0  0  0
   -4.5721    0.5941   -4.6608 C   0  0  0  0  0  0  0  0  0  0  0  0
   -4.8588   -0.6360   -4.8016 O   0  0  0  0  0  0  0  0  0  0  0  0
   -4.9811    1.5353   -5.6422 O   0  0  0  0  0  0  0  0  0  0  0  0
   -1.2680    1.8604   -4.1684 C   0  0  0  0  0  0  0  0  0  0  0  0
   -0.5616    4.8042   -3.7514 Br  0  0  0  0  0  0  0  0  0  0  0  0
    1.0294    4.9659   -1.0440 C   0  0  0  0  0  0  0  0  0  0  0  0
    1.0633    0.0415    0.0654 Tc  0  0  0  0  0 15  0  0  0  0  0  0
  1  2  1  0
  2  3  2  0
  2  7  1  0
  3  4  1  0
  4  5  2  0
  4 23  1  0
  5  6  1  0
  5 22  1  0
  6  7  2  0
  6 21  1  0
  7  8  1  0
  8  9  1  0
  9 10  2  0
  9 11  1  0
 11 12  1  0
 12 13  1  0
 12 17  1  0
 13 14  1  0
 14 15  2  0
 14 16  1  0
 17 18  1  0
 18 19  2  0
 18 20  1  0
M  END
>  <DRUGBANK_ID>  (1) 
DB09137

>  <COMMON_NAME>  (1) 
Technetium Tc-99m mebrofenin

>  <CAS_NUMBER>  (1) 
1415247-71-0

>  <UNII>  (1) 
F2NQ468L52

>  <SYNONYMS>  (1) 
Bis(2-[[2-(3-bromo-2,4,6-trimethylanilino)-2-oxoethyl]-(carboxymethyl)amino]acetate) technetium; Technetium (99mTc) mebrofenin; Technetium Tc 99m diisopropyl-iminodiacetic acid; Technetium Tc 99m DISIDA; Technetium Tc 99m Mebrofenin

$$$$
