
     RDKit          3D

 42 46  0  0  0  0  0  0  0  0999 V2000
   -2.0819   -0.0435   -0.0386 Cl  0  0  0  0  0  0  0  0  0  0  0  0
    7.2759    2.0755   -0.9865 O   0  0  0  0  0  0  0  0  0  0  0  0
    7.6229    0.0987    0.1858 O   0  0  0  0  0  0  0  0  0  0  0  0
    9.2115    3.9734   -2.0239 O   0  0  0  0  0  0  0  0  0  0  0  0
    7.3439    3.4857   -3.2764 O   0  0  0  0  0  0  0  0  0  0  0  0
    4.4518    9.6436   -3.7115 O   0  0  0  0  0  0  0  0  0  0  0  0
    4.2931    8.2495   -2.0327 O   0  0  0  0  0  0  0  0  0  0  0  0
    3.0642    1.7666   -2.0565 O   0  0  0  0  0  0  0  0  0  0  0  0
    4.8926    2.3394   -1.0345 O   0  0  0  0  0  0  0  0  0  0  0  0
    3.9052   -0.0115    0.1324 N   0  0  0  0  0  0  0  0  0  0  0  0
    8.7415    7.7140   -3.7834 N   0  0  0  0  0  0  0  0  0  0  0  0
    3.9025    2.5675   -1.6849 N   0  0  0  0  0  0  0  0  0  0  0  0
    6.6022    0.9599   -0.3474 C   0  0  0  0  0  0  0  0  0  0  0  0
    5.7532    1.4921    0.8987 C   0  0  0  0  0  0  0  0  0  0  0  0
    5.8226    0.1603   -1.4793 C   0  0  0  0  0  0  0  0  0  0  0  0
    4.6586    0.5050    1.2880 C   0  0  0  0  0  0  0  0  0  0  0  0
    4.7098   -0.7221   -0.8926 C   0  0  0  0  0  0  0  0  0  0  0  0
    8.6561    1.9987   -0.7028 C   0  0  0  0  0  0  0  0  0  0  0  0
    8.8397    0.5322   -0.4295 C   0  0  0  0  0  0  0  0  0  0  0  0
    9.4784    2.5499   -1.8703 C   0  0  0  0  0  0  0  0  0  0  0  0
    2.5046   -0.0463    0.1533 C   0  0  0  0  0  0  0  0  0  0  0  0
    1.7265    1.1370    0.2387 C   0  0  0  0  0  0  0  0  0  0  0  0
    1.7702   -1.2312    0.0215 C   0  0  0  0  0  0  0  0  0  0  0  0
    6.5705    6.5373   -2.4723 C   0  0  0  0  0  0  0  0  0  0  0  0
    7.8897    5.7571   -2.8636 C   0  0  0  0  0  0  0  0  0  0  0  0
    8.0776    4.2914   -2.7260 C   0  0  0  0  0  0  0  0  0  0  0  0
    0.3255    1.1560    0.0936 C   0  0  0  0  0  0  0  0  0  0  0  0
    0.3557   -1.2355   -0.0158 C   0  0  0  0  0  0  0  0  0  0  0  0
    6.4277    7.9701   -3.1506 C   0  0  0  0  0  0  0  0  0  0  0  0
    8.8709    6.3914   -3.5306 C   0  0  0  0  0  0  0  0  0  0  0  0
    5.3063    5.7089   -2.6572 C   0  0  0  0  0  0  0  0  0  0  0  0
   -0.3599   -0.0414    0.0052 C   0  0  0  0  0  0  0  0  0  0  0  0
    7.5593    8.3752   -3.7948 C   0  0  0  0  0  0  0  0  0  0  0  0
   10.1138    5.8333   -4.1496 C   0  0  0  0  0  0  0  0  0  0  0  0
    5.1174    4.6258   -1.8594 C   0  0  0  0  0  0  0  0  0  0  0  0
    4.2311    6.0049   -3.5200 C   0  0  0  0  0  0  0  0  0  0  0  0
    5.0321    8.6734   -2.9279 C   0  0  0  0  0  0  0  0  0  0  0  0
    7.7475    9.5694   -4.6126 C   0  0  0  0  0  0  0  0  0  0  0  0
    3.9332    3.8863   -2.0676 C   0  0  0  0  0  0  0  0  0  0  0  0
    2.9735    5.3886   -3.4566 C   0  0  0  0  0  0  0  0  0  0  0  0
    2.8400    4.2306   -2.7929 C   0  0  0  0  0  0  0  0  0  0  0  0
    5.1022   10.5754   -4.5654 C   0  0  0  0  0  0  0  0  0  0  0  0
  1 32  1  0
  2 13  1  0
  2 18  1  0
  3 13  1  0
  3 19  1  0
  4 20  1  0
  4 26  1  0
  5 26  2  0
  6 37  1  0
  6 42  1  0
  7 37  2  0
  8 12  1  0
  9 12  2  0
 10 16  1  0
 10 17  1  0
 10 21  1  0
 11 30  1  0
 11 33  1  0
 12 39  1  0
 13 14  1  0
 13 15  1  0
 14 16  1  0
 15 17  1  0
 18 19  1  0
 18 20  1  0
 21 22  2  0
 21 23  1  0
 22 27  1  0
 23 28  2  0
 24 25  1  0
 24 29  1  0
 24 31  1  0
 25 26  1  0
 25 30  2  0
 27 32  2  0
 28 32  1  0
 29 33  2  0
 29 37  1  0
 30 34  1  0
 31 35  2  0
 31 36  1  0
 33 38  1  0
 35 39  1  0
 36 40  2  0
 39 41  2  0
 40 41  1  0
M  CHG  2   8  -1  12   1
M  END
>  <DRUGBANK_ID>  (1) 
DB09233

>  <COMMON_NAME>  (1) 
Cronidipine

>  <CAS_NUMBER>  (1) 
113759-50-5

>  <UNII>  (1) 
7TXJ9MY5V9

>  <SYNONYMS>  (1) 
Cronidipine

$$$$
