TR1
     RDKit          3D

 32 33  0  0  0  0  0  0  0  0999 V2000
    0.7374    2.1974   -0.8025 N   0  0  0  0  0  0  0  0  0  0  0  0
    0.2039    1.2678    0.2444 C   0  0  2  0  0  0  0  0  0  0  0  0
    1.0637   -0.0801    0.1944 C   0  0  0  0  0  0  0  0  0  0  0  0
    2.1275   -0.0902    0.8397 O   0  0  0  0  0  0  0  0  0  0  0  0
    2.0873    4.3711   -7.3050 C   0  0  0  0  0  0  0  0  0  0  0  0
    2.9389    5.4507   -7.2250 C   0  0  0  0  0  0  0  0  0  0  0  0
    1.6060    3.8521   -8.5224 C   0  0  0  0  0  0  0  0  0  0  0  0
    3.2563    6.1043   -8.3789 C   0  0  0  0  0  0  0  0  0  0  0  0
    1.9906    4.4711   -9.6871 C   0  0  0  0  0  0  0  0  0  0  0  0
    2.7752    5.6232   -9.6005 C   0  0  0  0  0  0  0  0  0  0  0  0
    0.8113    2.7177   -3.5968 C   0  0  0  0  0  0  0  0  0  0  0  0
    0.7356    4.0504   -3.7364 C   0  0  0  0  0  0  0  0  0  0  0  0
    1.4570    1.9618   -4.9011 C   0  0  0  0  0  0  0  0  0  0  0  0
    1.2185    4.5361   -4.9544 C   0  0  0  0  0  0  0  0  0  0  0  0
    1.9877    2.4448   -6.0455 C   0  0  0  0  0  0  0  0  0  0  0  0
    1.7777    3.7660   -6.0641 C   0  0  0  0  0  0  0  0  0  0  0  0
    0.0425    2.1483   -2.0832 C   0  0  0  0  0  0  0  0  0  0  0  0
   -1.3121    1.2628    0.2736 C   0  0  0  0  0  0  0  0  0  0  0  0
   -1.9358    0.4958    1.7732 S   0  0  0  0  0  0  0  0  0  0  0  0
    0.9225   -1.1646   -0.6226 N   0  0  0  0  0  0  0  0  0  0  0  0
   -0.0573   -1.7060   -1.5983 C   0  0  0  0  0  0  0  0  0  0  0  0
    0.4264   -1.9878   -3.0956 C   0  0  0  0  0  0  0  0  0  0  0  0
    0.1044   -3.0163   -3.6983 O   0  0  0  0  0  0  0  0  0  0  0  0
    1.0912   -1.0321   -3.8333 N   0  0  0  0  0  0  0  0  0  0  0  0
    1.0341    0.3315   -3.4015 C   0  0  1  0  0  0  0  0  0  0  0  0
    2.7251    1.1713   -2.8852 C   0  0  0  0  0  0  0  0  0  0  0  0
    3.7573    1.4575   -4.0171 C   0  0  0  0  0  0  0  0  0  0  0  0
    3.0354    2.6598   -2.0314 C   0  0  0  0  0  0  0  0  0  0  0  0
   -0.6364    0.9715   -4.2034 C   0  0  0  0  0  0  0  0  0  0  0  0
   -1.7020    1.2711   -3.5600 O   0  0  0  0  0  0  0  0  0  0  0  0
   -0.6928    1.4660   -5.5341 O   0  0  0  0  0  0  0  0  0  0  0  0
   -1.2330    2.8655   -5.8420 C   0  0  0  0  0  0  0  0  0  0  0  0
  1 17  1  0
  2 18  1  6
  2  3  1  0
  2  1  1  0
  3  4  2  0
  3 20  1  0
  5  6  2  0
  5  7  1  0
  5 16  1  0
  6  8  1  0
  7  9  2  0
  8 10  2  0
  9 10  1  0
 11 12  2  0
 11 13  1  0
 11 17  1  0
 12 14  1  0
 13 15  2  0
 14 16  2  0
 15 16  1  0
 18 19  1  0
 20 21  1  0
 21 22  1  0
 22 23  2  0
 22 24  1  0
 25 24  1  6
 25 26  1  0
 25 29  1  0
 26 27  1  0
 26 28  1  0
 29 30  2  0
 29 31  1  0
 31 32  1  0
M  END
>  <DRUGBANK_ID>  (1) 
DB08643

>  <COMMON_NAME>  (1) 
2-(2-{2-[(BIPHENYL-4-YLMETHYL)-AMINO]-3-MERCAPTO-PENTANOYLAMINO}-ACETYLAMINO)-3-METHYL-BUTYRIC ACID METHYL ESTER

$$$$
