
     RDKit          3D

 15 16  0  0  0  0  0  0  0  0999 V2000
   -1.1206    1.1914   -0.0150 C   0  0  0  0  0  0  0  0  0  0  0  0
    0.2731    1.1940    0.0102 C   0  0  0  0  0  0  0  0  0  0  0  0
    0.9827   -0.0122    0.0296 C   0  0  0  0  0  0  0  0  0  0  0  0
    0.2752   -1.2249    0.0555 C   0  0  0  0  0  0  0  0  0  0  0  0
   -1.1228   -1.2288    0.0057 C   0  0  0  0  0  0  0  0  0  0  0  0
   -1.8169   -0.0171   -0.0440 C   0  0  0  0  0  0  0  0  0  0  0  0
    2.4825   -0.0091   -0.0058 C   0  0  0  0  0  0  0  0  0  0  0  0
   -1.8356   -2.4354    0.0211 N   0  0  0  0  0  0  0  0  0  0  0  0
   -1.7112   -3.4085    1.0535 C   0  0  0  0  0  0  0  0  0  0  0  0
   -2.8990   -4.3167    0.7894 C   0  0  0  0  0  0  0  0  0  0  0  0
   -3.3078   -4.0261   -0.5544 O   0  0  0  0  0  0  0  0  0  0  0  0
   -2.7468   -2.8339   -0.9298 C   0  0  0  0  0  0  0  0  0  0  0  0
   -3.0162   -2.2812   -1.9863 O   0  0  0  0  0  0  0  0  0  0  0  0
   -2.5613   -5.7952    0.9352 C   0  0  0  0  0  0  0  0  0  0  0  0
   -2.1694   -6.1051    2.2673 O   0  0  0  0  0  0  0  0  0  0  0  0
  1  2  2  0
  1  6  1  0
  2  3  1  0
  3  4  2  0
  3  7  1  0
  4  5  1  0
  5  6  2  0
  5  8  1  0
  8  9  1  0
  8 12  1  0
  9 10  1  0
 10 11  1  0
 10 14  1  0
 11 12  1  0
 12 13  2  0
 14 15  1  0
M  END
>  <DRUGBANK_ID>  (1) 
DB09245

>  <COMMON_NAME>  (1) 
Toloxatone

>  <CAS_NUMBER>  (1) 
29218-27-7

>  <UNII>  (1) 
5T206015T5

>  <SYNONYMS>  (1) 
Toloxatone

$$$$
