
     RDKit          3D

 14 14  0  0  1  0  0  0  0  0999 V2000
    0.8086   -0.4116    0.2808 C   0  0  0  0  0  0  0  0  0  0  0  0
    0.6012   -1.3282   -0.7853 O   0  0  0  0  0  0  0  0  0  0  0  0
    1.2476   -1.0118   -2.0374 C   0  0  1  0  0  0  0  0  0  0  0  0
    0.7614    0.3307   -2.6942 C   0  0  0  0  0  0  0  0  0  0  0  0
    1.2111    1.6498   -2.0731 C   0  0  0  0  0  0  0  0  0  0  0  0
    0.6392    2.8683   -2.4192 C   0  0  0  0  0  0  0  0  0  0  0  0
    0.9089    4.0126   -1.6353 C   0  0  0  0  0  0  0  0  0  0  0  0
    1.6858    3.9508   -0.4699 C   0  0  0  0  0  0  0  0  0  0  0  0
    1.7460    4.9834    0.4594 N   0  0  0  0  0  0  0  0  0  0  0  0
    2.2414    2.7465   -0.1369 C   0  0  0  0  0  0  0  0  0  0  0  0
    2.1235    1.6940   -1.0186 C   0  0  0  0  0  0  0  0  0  0  0  0
    2.8047   -1.2129   -2.1910 C   0  0  0  0  0  0  0  0  0  0  0  0
    3.1994   -2.2524   -2.9511 O   0  0  0  0  0  0  0  0  0  0  0  0
    3.6928   -0.5173   -1.6949 O   0  0  0  0  0  0  0  0  0  0  0  0
  1  2  1  0
  3  2  1  0
  3  4  1  1
  3 12  1  0
  4  5  1  0
  5  6  2  0
  5 11  1  0
  6  7  1  0
  7  8  2  0
  8  9  1  0
  8 10  1  0
 10 11  2  0
 12 13  1  0
 12 14  2  0
M  END
>  <DRUGBANK_ID>  (1) 
DB16109

>  <COMMON_NAME>  (1) 
GED-0507-34-Levo

>  <CAS_NUMBER>  (1) 
921195-93-9

>  <UNII>  (1) 
Y4H78S56YZ

$$$$
