PRC
     RDKit          3D

 29 32  0  0  0  0  0  0  0  0999 V2000
    0.6874    1.2232   -0.0002 C   0  0  0  0  0  0  0  0  0  0  0  0
   -0.6932    1.1248   -0.0022 C   0  0  0  0  0  0  0  0  0  0  0  0
   -1.3597   -0.0481   -0.0065 N   0  0  0  0  0  0  0  0  0  0  0  0
   -0.6063   -1.1765   -0.0181 C   0  0  0  0  0  0  0  0  0  0  0  0
    0.7868   -1.1983    0.0010 C   0  0  0  0  0  0  0  0  0  0  0  0
    1.4324    0.0458   -0.0014 C   0  0  0  0  0  0  0  0  0  0  0  0
    1.5256   -2.4573    0.0567 C   0  0  0  0  0  0  0  0  0  0  0  0
    1.2566   -3.3440   -0.9130 N   0  0  0  0  0  0  0  0  0  0  0  0
    1.9367   -4.5050   -0.9424 C   0  0  0  0  0  0  0  0  0  0  0  0
    2.8562   -4.8375   -0.0264 N   0  0  0  0  0  0  0  0  0  0  0  0
    3.0719   -3.9427    0.9599 C   0  0  0  0  0  0  0  0  0  0  0  0
    2.4327   -2.7304    1.0508 C   0  0  0  0  0  0  0  0  0  0  0  0
    1.6666   -5.4060   -1.9739 N   0  0  0  0  0  0  0  0  0  0  0  0
    0.8840   -5.1314   -3.1105 C   0  0  0  0  0  0  0  0  0  0  0  0
   -0.2395   -5.9537   -3.3871 C   0  0  0  0  0  0  0  0  0  0  0  0
   -1.1516   -5.6176   -4.4032 C   0  0  0  0  0  0  0  0  0  0  0  0
   -0.8782   -4.4836   -5.1682 C   0  0  0  0  0  0  0  0  0  0  0  0
    0.2491   -3.7001   -4.9482 C   0  0  0  0  0  0  0  0  0  0  0  0
    1.1476   -4.0143   -3.9310 C   0  0  0  0  0  0  0  0  0  0  0  0
    2.3261   -3.0940   -3.7558 C   0  0  0  0  0  0  0  0  0  0  0  0
   -2.3310   -6.3958   -4.6157 N   0  0  0  0  0  0  0  0  0  0  0  0
   -3.2735   -6.1453   -5.6111 C   0  0  0  0  0  0  0  0  0  0  0  0
   -4.4279   -7.0485   -5.7340 C   0  0  0  0  0  0  0  0  0  0  0  0
   -5.2045   -7.4563   -4.6541 C   0  0  0  0  0  0  0  0  0  0  0  0
   -6.3538   -8.2106   -4.9018 C   0  0  0  0  0  0  0  0  0  0  0  0
   -6.6829   -8.5229   -6.2151 C   0  0  0  0  0  0  0  0  0  0  0  0
   -5.9547   -8.1335   -7.2812 N   0  0  0  0  0  0  0  0  0  0  0  0
   -4.8526   -7.3901   -7.0174 C   0  0  0  0  0  0  0  0  0  0  0  0
   -3.2486   -5.2407   -6.4458 O   0  0  0  0  0  0  0  0  0  0  0  0
  1  2  2  0
  1  6  1  0
  2  3  1  0
  3  4  2  0
  4  5  1  0
  5  6  2  0
  5  7  1  0
  7  8  2  0
  7 12  1  0
  8  9  1  0
  9 10  2  0
  9 13  1  0
 10 11  1  0
 11 12  2  0
 13 14  1  0
 14 15  2  0
 14 19  1  0
 15 16  1  0
 16 17  2  0
 16 21  1  0
 17 18  1  0
 18 19  2  0
 19 20  1  0
 21 22  1  0
 22 23  1  0
 22 29  2  0
 23 24  2  0
 23 28  1  0
 24 25  1  0
 25 26  2  0
 26 27  1  0
 27 28  2  0
M  END
>  <DRUGBANK_ID>  (1) 
DB03878

>  <SECONDARY_ACCESSION_NUMBERS>  (1) 
EXPT02657

>  <COMMON_NAME>  (1) 
N-[4-Methyl-3-[[4-(3-Pyridinyl)-2-Pyrimidinyl]Amino]Phenyl]-3-Pyridinecarboxamide

>  <UNII>  (1) 
Q8SP783P3P

$$$$
