
     RDKit          3D

 38 38  0  0  1  0  0  0  0  0999 V2000
    0.6384    0.2321    0.0470 O   0  0  0  0  0  0  0  0  0  0  0  0
    0.3829   -0.6936    1.0904 C   0  0  0  0  0  0  0  0  0  0  0  0
    0.8579   -2.1485    0.9574 C   0  0  1  0  0  0  0  0  0  0  0  0
    2.2770   -2.2649    0.9341 O   0  0  0  0  0  0  0  0  0  0  0  0
    2.8646   -1.4923   -0.1843 C   0  0  0  0  0  0  0  0  0  0  0  0
    2.2546   -2.2022   -1.7568 P   0  0  2  0  0  0  0  0  0  0  0  0
    4.2351   -1.4548   -1.8686 O   0  0  0  0  0  0  0  0  0  0  0  0
    4.8269   -0.4381   -3.2666 C   0  0  0  0  0  0  0  0  0  0  0  0
    3.6272   -0.1944   -4.7173 C   0  0  0  0  0  0  0  0  0  0  0  0
    1.9422    0.0922   -4.5176 C   0  0  0  0  0  0  0  0  0  0  0  0
    1.6155    1.0425   -3.4910 O   0  0  0  0  0  0  0  0  0  0  0  0
    2.5665    1.1739   -2.4781 C   0  0  0  0  0  0  0  0  0  0  0  0
    2.7851   -0.1910   -2.1800 C   0  0  0  0  0  0  0  0  0  0  0  0
    3.3666   -1.7766   -3.4492 C   0  0  0  0  0  0  0  0  0  0  0  0
    4.5524   -3.0720   -3.0046 C   0  0  0  0  0  0  0  0  0  0  0  0
    5.1308   -3.1926   -1.3456 C   0  0  0  0  0  0  0  0  0  0  0  0
    4.4337   -4.2369   -0.4861 C   0  0  0  0  0  0  0  0  0  0  0  0
    4.4073   -5.4257   -1.3894 C   0  0  0  0  0  0  0  0  0  0  0  0
    5.8533   -5.5354   -1.9170 C   0  0  0  0  0  0  0  0  0  0  0  0
    6.7781   -5.6512   -0.7005 C   0  0  0  0  0  0  0  0  0  0  0  0
    6.3279   -6.8871    0.0612 C   0  0  0  0  0  0  0  0  0  0  0  0
    6.3942   -8.0761   -0.8980 C   0  0  0  0  0  0  0  0  0  0  0  0
    7.8313   -8.2215   -1.4023 C   0  0  0  0  0  0  0  0  0  0  0  0
    8.7635   -8.4411   -0.2080 C   0  0  0  0  0  0  0  0  0  0  0  0
    8.3624   -9.7143    0.5432 C   0  0  0  0  0  0  0  0  0  0  0  0
    8.4282  -10.9290   -0.3817 C   0  0  0  0  0  0  0  0  0  0  0  0
    9.8422  -11.1026   -0.9094 C   0  0  0  0  0  0  0  0  0  0  0  0
    1.9266   -3.5675   -1.1686 O   0  0  0  0  0  0  0  0  0  0  0  0
    1.6780   -2.8734   -3.2434 O   0  0  0  0  0  0  0  0  0  0  0  0
    0.3427   -3.0599    2.0808 C   0  0  0  0  0  0  0  0  0  0  0  0
   -1.1282   -3.1076    2.0787 N   0  0  0  0  0  0  0  0  0  0  0  0
   -1.8560   -1.9667    2.4732 C   0  0  0  0  0  0  0  0  0  0  0  0
   -3.2090   -1.9767    2.2900 N   0  0  0  0  0  0  0  0  0  0  0  0
   -3.7931   -3.1248    2.3437 C   0  0  0  0  0  0  0  0  0  0  0  0
   -3.0433   -4.3978    2.3997 C   0  0  0  0  0  0  0  0  0  0  0  0
   -1.7717   -4.3218    2.0007 C   0  0  0  0  0  0  0  0  0  0  0  0
   -5.1502   -3.1331    2.3182 N   0  0  0  0  0  0  0  0  0  0  0  0
   -1.3206   -0.9784    2.9575 O   0  0  0  0  0  0  0  0  0  0  0  0
  2  1  1  0
  3  2  1  1
  3  4  1  0
  4  5  1  0
  5  6  1  0
  6  7  1  0
  6 28  2  0
  6 29  1  6
  7  8  1  0
  8  9  1  0
  9 10  1  0
 10 11  1  0
 11 12  1  0
 12 13  1  0
 13 14  1  0
 14 15  1  0
 15 16  1  0
 16 17  1  0
 17 18  1  0
 18 19  1  0
 19 20  1  0
 20 21  1  0
 21 22  1  0
 22 23  1  0
 23 24  1  0
 24 25  1  0
 25 26  1  0
 26 27  1  0
 30  3  1  0
 31 30  1  0
 31 36  1  0
 32 31  1  0
 32 38  2  0
 33 32  1  0
 34 33  2  0
 34 37  1  0
 35 34  1  0
 36 35  2  0
M  END
>  <DRUGBANK_ID>  (1) 
DB12151

>  <SECONDARY_ACCESSION_NUMBERS>  (1) 
DB05176

>  <COMMON_NAME>  (1) 
Brincidofovir

>  <CAS_NUMBER>  (1) 
444805-28-1

>  <UNII>  (1) 
6794O900AX

>  <SYNONYMS>  (1) 
Brincidofovir; Cidofovir hexadecyloxypropyl ester

$$$$
