
     RDKit          3D

 38 40  0  0  0  0  0  0  0  0999 V2000
    1.0104    0.0380    0.1219 C   0  0  0  0  0  0  0  0  0  0  0  0
    0.5680   -0.3915    1.5267 C   0  0  0  0  0  0  0  0  0  0  0  0
    1.1464    0.5153    2.5917 C   0  0  0  0  0  0  0  0  0  0  0  0
   -0.9240   -0.4970    1.6760 C   0  0  0  0  0  0  0  0  0  0  0  0
   -1.7354   -1.5951    1.4786 C   0  0  0  0  0  0  0  0  0  0  0  0
   -3.0869   -1.2439    1.4250 N   0  0  0  0  0  0  0  0  0  0  0  0
   -3.2962   -0.0007    1.7251 C   0  0  0  0  0  0  0  0  0  0  0  0
   -4.5052    0.6051    1.5221 N   0  0  0  0  0  0  0  0  0  0  0  0
   -4.8203    1.9267    1.3303 C   0  0  0  0  0  0  0  0  0  0  0  0
   -6.0131    2.2307    1.3960 O   0  0  0  0  0  0  0  0  0  0  0  0
   -3.7984    2.9293    1.0966 C   0  0  0  0  0  0  0  0  0  0  0  0
   -3.8470    4.2220    1.5916 C   0  0  0  0  0  0  0  0  0  0  0  0
   -2.5241    4.7190    1.6573 C   0  0  0  0  0  0  0  0  0  0  0  0
   -2.0041    5.7407    2.4420 N   0  0  0  0  0  0  0  0  0  0  0  0
   -2.5999    6.4416    3.4842 C   0  0  0  0  0  0  0  0  0  0  0  0
   -2.0259    7.4498    3.9025 O   0  0  0  0  0  0  0  0  0  0  0  0
   -3.8739    6.0124    4.0422 C   0  0  0  0  0  0  0  0  0  0  0  0
   -4.9873    6.8296    4.2299 C   0  0  0  0  0  0  0  0  0  0  0  0
   -6.0802    6.0316    4.6383 C   0  0  0  0  0  0  0  0  0  0  0  0
   -7.3946    6.3916    4.8705 N   0  0  0  0  0  0  0  0  0  0  0  0
   -7.8890    7.6651    4.7954 C   0  0  0  0  0  0  0  0  0  0  0  0
   -9.0531    7.9541    5.0509 O   0  0  0  0  0  0  0  0  0  0  0  0
   -5.5993    4.7461    4.7517 C   0  0  0  0  0  0  0  0  0  0  0  0
   -4.2406    4.7503    4.4910 N   0  0  0  0  0  0  0  0  0  0  0  0
   -3.4156    3.5585    4.5501 C   0  0  0  0  0  0  0  0  0  0  0  0
   -1.8020    3.9225    0.7909 C   0  0  0  0  0  0  0  0  0  0  0  0
   -2.6219    2.8828    0.3776 N   0  0  0  0  0  0  0  0  0  0  0  0
   -2.2784    1.9008   -0.6275 C   0  0  0  0  0  0  0  0  0  0  0  0
   -1.9269    0.7154    2.4280 S   0  0  0  0  0  0  0  0  0  0  0  0
   -1.2320   -2.9723    1.3492 C   0  0  0  0  0  0  0  0  0  0  0  0
   -0.0562   -3.2872    1.3628 O   0  0  0  0  0  0  0  0  0  0  0  0
   -2.1542   -3.9760    1.2790 N   0  0  0  0  0  0  0  0  0  0  0  0
   -3.5871   -3.8434    1.2583 C   0  0  0  0  0  0  0  0  0  0  0  0
   -4.2061   -4.6627    0.1683 C   0  0  0  0  0  0  0  0  0  0  0  0
   -3.8919   -6.1414    0.2364 C   0  0  0  0  0  0  0  0  0  0  0  0
   -4.4346   -6.8246    1.4233 N   0  0  0  0  0  0  0  0  0  0  0  0
   -4.1477   -8.2511    1.3148 C   0  0  0  0  0  0  0  0  0  0  0  0
   -3.8921   -6.3829    2.7092 C   0  0  0  0  0  0  0  0  0  0  0  0
  1  2  1  0
  2  3  1  0
  2  4  1  0
  4  5  2  0
  4 29  1  0
  5  6  1  0
  5 30  1  0
  6  7  2  0
  7  8  1  0
  7 29  1  0
  8  9  1  0
  9 10  2  0
  9 11  1  0
 11 12  2  0
 11 27  1  0
 12 13  1  0
 13 14  1  0
 13 26  2  0
 14 15  1  0
 15 16  2  0
 15 17  1  0
 17 18  2  0
 17 24  1  0
 18 19  1  0
 19 20  1  0
 19 23  2  0
 20 21  1  0
 21 22  2  0
 23 24  1  0
 24 25  1  0
 26 27  1  0
 27 28  1  0
 30 31  2  0
 30 32  1  0
 32 33  1  0
 33 34  1  0
 34 35  1  0
 35 36  1  0
 36 37  1  0
 36 38  1  0
M  END
>  <DRUGBANK_ID>  (1) 
DB02295

>  <SECONDARY_ACCESSION_NUMBERS>  (1) 
EXPT00474

>  <COMMON_NAME>  (1) 
N-[3-(Dimethylamino)Propyl]-2-({[4-({[4-(Formylamino)-1-Methyl-1h-Pyrrol-2-Yl]Carbonyl}Amino)-1-Methyl-1h-Pyrrol-2-Yl]Carbonyl}Amino)-5-Isopropyl-1,3-Thiazole-4-Carboxamide

$$$$
