1BD
     RDKit          3D

 18 18  0  0  0  0  0  0  0  0999 V2000
   -4.3648    4.3102    0.6706 C   0  0  0  0  0  0  0  0  0  0  0  0
   -3.0038    4.0661    0.8695 C   0  0  0  0  0  0  0  0  0  0  0  0
   -2.4629    2.7883    0.6587 C   0  0  0  0  0  0  0  0  0  0  0  0
   -3.3277    1.7134    0.4075 C   0  0  0  0  0  0  0  0  0  0  0  0
   -4.7068    1.9641    0.2528 C   0  0  0  0  0  0  0  0  0  0  0  0
   -5.2174    3.2579    0.3588 C   0  0  0  0  0  0  0  0  0  0  0  0
   -0.9819    2.6269    0.5670 C   0  0  0  0  0  0  0  0  0  0  0  0
   -0.1758    3.5868    0.8942 N   0  0  0  0  0  0  0  0  0  0  0  0
    1.1156    3.3136    0.4071 O   0  0  0  0  0  0  0  0  0  0  0  0
    1.9029    4.5085    0.5083 C   0  0  0  0  0  0  0  0  0  0  0  0
    1.5836    5.5563   -0.5550 C   0  0  0  0  0  0  0  0  0  0  0  0
    0.2246    6.1730   -0.4153 C   0  0  0  0  0  0  0  0  0  0  0  0
   -0.0247    7.2673    0.0776 O   0  0  0  0  0  0  0  0  0  0  0  0
   -0.7641    5.4168   -0.9191 O   0  0  0  0  0  0  0  0  0  0  0  0
   -2.8129    0.3028    0.4067 C   0  0  0  0  0  0  0  0  0  0  0  0
   -2.1630    0.0076    1.5665 F   0  0  0  0  0  0  0  0  0  0  0  0
   -1.9322    0.0521   -0.5978 F   0  0  0  0  0  0  0  0  0  0  0  0
   -3.7920   -0.6350    0.2841 F   0  0  0  0  0  0  0  0  0  0  0  0
  1  6  2  0
  2  1  1  0
  3  2  2  0
  3  4  1  0
  4  5  2  0
  5  6  1  0
  7  3  1  0
  8  7  2  0
  9  8  1  0
 10  9  1  0
 11 10  1  0
 12 11  1  0
 13 12  2  0
 14 12  1  0
 15  4  1  0
 15 17  1  0
 16 15  1  0
 18 15  1  0
M  END
>  <DRUGBANK_ID>  (1) 
DB06885

>  <COMMON_NAME>  (1) 
3-[({(1E)-[2-(trifluoromethyl)phenyl]methylidene}amino)oxy]propanoic acid

$$$$
