
     RDKit          3D

 12 11  0  0  0  0  0  0  0  0999 V2000
    0.8531    0.1039   -0.0745 C   0  0  0  0  0  0  0  0  0  0  0  0
    0.2194    0.9031   -0.7546 O   0  0  0  0  0  0  0  0  0  0  0  0
    0.2842   -0.8670    0.7051 O   0  0  0  0  0  0  0  0  0  0  0  0
    2.2265    0.0953   -0.0185 N   0  0  0  0  0  0  0  0  0  0  0  0
    3.0339    1.0672   -0.7515 C   0  0  0  0  0  0  0  0  0  0  0  0
    3.9794    1.8612    0.1569 C   0  0  0  0  0  0  0  0  0  0  0  0
    5.0272    0.9868    0.8483 C   0  0  0  0  0  0  0  0  0  0  0  0
    5.9354    0.2842   -0.1503 C   0  0  0  0  0  0  0  0  0  0  0  0
   -1.1881   -0.8927    0.7409 C   0  0  0  0  0  0  0  0  0  0  0  0
   -1.6948    0.4328    1.2854 C   0  0  0  0  0  0  0  0  0  0  0  0
   -2.1294    1.5699    1.7525 C   0  0  0  0  0  0  0  0  0  0  0  0
   -2.8194    3.3810    2.4954 I   0  0  0  0  0  0  0  0  0  0  0  0
  2  1  2  0
  3  1  1  0
  4  1  1  0
  5  4  1  0
  6  5  1  0
  7  6  1  0
  8  7  1  0
  9  3  1  0
 10  9  1  0
 11 10  3  0
 12 11  1  0
M  END
>  <DRUGBANK_ID>  (1) 
DB15666

>  <COMMON_NAME>  (1) 
Iodopropynyl butylcarbamate

>  <CAS_NUMBER>  (1) 
55406-53-6

>  <UNII>  (1) 
603P14DHEB

>  <SYNONYMS>  (1) 
3-iodo-2-propyn-1-yl N-butylcarbamate; 3-iodo-2-propynyl butylcarbamate; 3-iodoprop-2-yn-1-yl butylcarbamate; 3-iodoprop-2-ynyl butylcarbamate; butyl-3-iodo-2-propynylcarbamate; Iodocarbe; Iodopropynyl butyl carbamate; IPBC

$$$$
