
     RDKit          3D

 39 43  0  0  0  0  0  0  0  0999 V2000
    1.0476    0.0358    0.0843 C   0  0  0  0  0  0  0  0  0  0  0  0
    0.3317   -0.3351   -0.8608 O   0  0  0  0  0  0  0  0  0  0  0  0
    0.4163    0.4789    1.2176 N   0  0  0  0  0  0  0  0  0  0  0  0
    2.4248   -0.0855    0.1359 N   0  0  0  0  0  0  0  0  0  0  0  0
    0.7318    0.6891    3.6402 N   0  0  0  0  0  0  0  0  0  0  0  0
    1.5781    1.3134    4.5088 N   0  0  0  0  0  0  0  0  0  0  0  0
    2.1041    1.8537    2.3705 C   0  0  0  0  0  0  0  0  0  0  0  0
    2.4476    1.9744    3.7265 C   0  0  0  0  0  0  0  0  0  0  0  0
    1.0709    0.9593    2.3278 C   0  0  0  0  0  0  0  0  0  0  0  0
    3.6220    2.7593    4.2776 C   0  0  0  0  0  0  0  0  0  0  0  0
   -0.3793   -1.4941    3.5793 C   0  0  0  0  0  0  0  0  0  0  0  0
   -0.2680   -0.1981    4.1021 C   0  0  0  0  0  0  0  0  0  0  0  0
   -1.1717    0.2567    5.0633 C   0  0  0  0  0  0  0  0  0  0  0  0
   -2.2121   -0.5765    5.4798 C   0  0  0  0  0  0  0  0  0  0  0  0
   -2.3273   -1.8814    4.9816 C   0  0  0  0  0  0  0  0  0  0  0  0
   -1.3971   -2.3380    4.0372 C   0  0  0  0  0  0  0  0  0  0  0  0
   -3.4229   -2.7867    5.4659 C   0  0  0  0  0  0  0  0  0  0  0  0
    4.4139   -1.3304   -0.7789 C   0  0  0  0  0  0  0  0  0  0  0  0
    5.1477   -1.7686   -1.9479 C   0  0  0  0  0  0  0  0  0  0  0  0
    4.9155   -1.7196    0.4643 C   0  0  0  0  0  0  0  0  0  0  0  0
    6.3019   -2.5409   -1.8425 C   0  0  0  0  0  0  0  0  0  0  0  0
    4.7703   -1.3468   -3.2003 C   0  0  0  0  0  0  0  0  0  0  0  0
    3.2286   -0.5586   -0.9248 C   0  0  0  0  0  0  0  0  0  0  0  0
    2.9410   -0.0812   -2.1682 C   0  0  0  0  0  0  0  0  0  0  0  0
    3.8455   -0.3439   -3.1798 C   0  0  0  0  0  0  0  0  0  0  0  0
    6.7768   -2.8835   -0.5916 C   0  0  0  0  0  0  0  0  0  0  0  0
    6.0874   -2.4765    0.5502 C   0  0  0  0  0  0  0  0  0  0  0  0
    5.3501   -1.8120   -4.3537 O   0  0  0  0  0  0  0  0  0  0  0  0
    4.8015   -1.4395   -5.6428 C   0  0  0  0  0  0  0  0  0  0  0  0
    3.3647   -1.9255   -5.9504 C   0  0  0  0  0  0  0  0  0  0  0  0
    2.3328   -1.2370   -5.1655 N   0  0  0  0  0  0  0  0  0  0  0  0
    0.2652   -0.1681   -6.8507 O   0  0  0  0  0  0  0  0  0  0  0  0
    2.1584    0.2055   -5.4543 C   0  0  0  0  0  0  0  0  0  0  0  0
    1.0244   -1.8820   -5.2143 C   0  0  0  0  0  0  0  0  0  0  0  0
    0.3776   -1.5780   -6.5704 C   0  0  0  0  0  0  0  0  0  0  0  0
    1.5307    0.4765   -6.7846 C   0  0  0  0  0  0  0  0  0  0  0  0
    3.1346    3.8074    5.2862 C   0  0  0  0  0  0  0  0  0  0  0  0
    4.6345    1.8190    4.9563 C   0  0  0  0  0  0  0  0  0  0  0  0
    4.3646    3.4981    3.1357 C   0  0  0  0  0  0  0  0  0  0  0  0
  2  1  2  0
  3  1  1  0
  4  1  1  0
  6  5  1  0
  8  6  2  0
  8  7  1  0
  9  3  1  0
  9  5  1  0
  9  7  2  0
 10  8  1  0
 10 37  1  0
 10 38  1  0
 10 39  1  0
 12  5  1  0
 12 11  2  0
 13 12  1  0
 14 13  2  0
 15 14  1  0
 16 11  1  0
 16 15  2  0
 17 15  1  0
 19 18  1  0
 20 18  2  0
 21 19  2  0
 22 19  1  0
 23  4  1  0
 23 18  1  0
 24 23  2  0
 25 22  2  0
 25 24  1  0
 26 21  1  0
 27 20  1  0
 27 26  2  0
 28 22  1  0
 29 28  1  0
 30 29  1  0
 31 30  1  0
 33 31  1  0
 34 31  1  0
 35 32  1  0
 35 34  1  0
 36 32  1  0
 36 33  1  0
M  END
>  <DRUGBANK_ID>  (1) 
DB03044

>  <SECONDARY_ACCESSION_NUMBERS>  (1) 
EXPT00616

>  <COMMON_NAME>  (1) 
Doramapimod

>  <CAS_NUMBER>  (1) 
285983-48-4

>  <UNII>  (1) 
HO1A8B3YVV

>  <SYNONYMS>  (1) 
Doramapimod

$$$$
