498
     RDKit          3D

 17 19  0  0  0  0  0  0  0  0999 V2000
    1.4689    2.3460    0.0730 O   0  0  0  0  0  0  0  0  0  0  0  0
    1.3881   -2.3839    0.1272 O   0  0  0  0  0  0  0  0  0  0  0  0
    2.0838   -0.0326   -0.1440 C   0  0  0  0  0  0  0  0  0  0  0  0
    1.1607    1.1728   -0.0220 C   0  0  0  0  0  0  0  0  0  0  0  0
    1.1218   -1.2021    0.0172 C   0  0  0  0  0  0  0  0  0  0  0  0
   -0.2215    0.6991   -0.0082 C   0  0  0  0  0  0  0  0  0  0  0  0
   -0.2432   -0.6865    0.0062 C   0  0  0  0  0  0  0  0  0  0  0  0
    2.8747   -0.0424   -1.4368 C   0  0  0  0  0  0  0  0  0  0  0  0
   -1.3852    1.4427   -0.0050 C   0  0  0  0  0  0  0  0  0  0  0  0
   -1.4260   -1.3999    0.0089 C   0  0  0  0  0  0  0  0  0  0  0  0
    3.7622    1.0122   -1.7048 C   0  0  0  0  0  0  0  0  0  0  0  0
    2.8181   -1.1114   -2.3451 C   0  0  0  0  0  0  0  0  0  0  0  0
   -2.5944    0.7420    0.0158 C   0  0  0  0  0  0  0  0  0  0  0  0
   -2.6148   -0.6672    0.0194 C   0  0  0  0  0  0  0  0  0  0  0  0
    4.5851    0.9833   -2.8305 C   0  0  0  0  0  0  0  0  0  0  0  0
    3.6851   -1.1682   -3.4343 C   0  0  0  0  0  0  0  0  0  0  0  0
    4.5517   -0.1112   -3.6901 C   0  0  0  0  0  0  0  0  0  0  0  0
  1  4  2  0
  2  5  2  0
  3  4  1  0
  3  5  1  0
  3  8  1  0
  4  6  1  0
  5  7  1  0
  6  7  2  0
  6  9  1  0
  7 10  1  0
  8 11  2  0
  8 12  1  0
  9 13  2  0
 10 14  2  0
 11 15  1  0
 12 16  2  0
 13 14  1  0
 15 17  2  0
 16 17  1  0
M  END
>  <DRUGBANK_ID>  (1) 
DB00498

>  <SECONDARY_ACCESSION_NUMBERS>  (1) 
APRD00166

>  <COMMON_NAME>  (1) 
Phenindione

>  <CAS_NUMBER>  (1) 
83-12-5

>  <UNII>  (1) 
5M7Y6274ZE

>  <SYNONYMS>  (1) 
2-phenyl-1,3-diketohydrindene; 2-Phenyl-1,3-indandione; 2-phenyl-1,3(2H)-Indenedione; Fenindiona; Fenindione; Phenindion; Ph√©nindione; Phenindione; Phenindionum; PID

$$$$
