
     RDKit          3D

 24 25  0  0  1  0  0  0  0  0999 V2000
    1.0991    0.0838    0.0281 C   0  0  0  0  0  0  0  0  0  0  0  0
    0.7170   -1.0292    0.9405 C   0  0  0  0  0  0  0  0  0  0  0  0
    1.2412   -2.2518    0.8126 C   0  0  0  0  0  0  0  0  0  0  0  0
    0.7301   -3.3421    1.4865 N   0  0  0  0  0  0  0  0  0  0  0  0
    0.9682   -4.6766    0.9561 C   0  0  2  0  0  0  0  0  0  0  0  0
    2.3859   -4.8851    0.9455 O   0  0  0  0  0  0  0  0  0  0  0  0
    2.7664   -5.6729   -0.2370 C   0  0  2  0  0  0  0  0  0  0  0  0
    4.2542   -5.3033   -0.5258 C   0  0  0  0  0  0  0  0  0  0  0  0
    5.2230   -5.8208    0.4461 O   0  0  0  0  0  0  0  0  0  0  0  0
    4.8587   -5.2628    2.0426 P   0  0  2  0  0  0  0  0  0  0  0  0
    3.5842   -6.2470    2.2444 O   0  0  0  0  0  0  0  0  0  0  0  0
    6.0782   -6.0586    2.5238 O   0  0  0  0  0  0  0  0  0  0  0  0
    4.4945   -4.7048    3.6391 O   0  0  0  0  0  0  0  0  0  0  0  0
    5.1465   -5.4832    4.8862 P   0  0  0  0  0  0  0  0  0  0  0  0
    6.6962   -5.1129    4.7493 O   0  0  0  0  0  0  0  0  0  0  0  0
    4.6086   -4.5089    6.0308 O   0  0  0  0  0  0  0  0  0  0  0  0
    4.8346   -6.9196    5.1194 O   0  0  0  0  0  0  0  0  0  0  0  0
    1.6901   -5.2576   -1.1805 C   0  0  0  0  0  0  0  0  0  0  0  0
    0.6584   -4.7413   -0.4958 C   0  0  0  0  0  0  0  0  0  0  0  0
   -0.1719   -3.1866    2.5312 C   0  0  0  0  0  0  0  0  0  0  0  0
   -0.6781   -4.1150    3.1524 O   0  0  0  0  0  0  0  0  0  0  0  0
   -0.5098   -1.8874    2.8223 N   0  0  0  0  0  0  0  0  0  0  0  0
   -0.3167   -0.8364    1.9757 C   0  0  0  0  0  0  0  0  0  0  0  0
   -0.9638    0.2116    2.0677 O   0  0  0  0  0  0  0  0  0  0  0  0
  1  2  1  0
  2  3  2  0
  2 23  1  0
  3  4  1  0
  4 20  1  0
  5  4  1  6
  5  6  1  0
  5 19  1  0
  6  7  1  0
  7  8  1  6
  7 18  1  0
  8  9  1  0
 10  9  1  0
 10 11  1  0
 10 12  2  0
 10 13  1  0
 13 14  1  0
 14 15  1  0
 14 16  1  0
 14 17  2  0
 18 19  2  0
 20 21  2  0
 20 22  1  0
 22 23  1  0
 23 24  2  0
M  END
>  <DRUGBANK_ID>  (1) 
DB02569

>  <SECONDARY_ACCESSION_NUMBERS>  (1) 
EXPT01096

>  <COMMON_NAME>  (1) 
2',3'-Dehydro-2',3'-Deoxy-Thymidine 5'-Diphosphate

$$$$
