IBR
     RDKit          3D

 16 16  0  0  0  0  0  0  0  0999 V2000
    1.1021   -0.0261   -0.0038 C   0  0  0  0  0  0  0  0  0  0  0  0
    0.4760    0.7054    0.7490 O   0  0  0  0  0  0  0  0  0  0  0  0
   -0.5135   -0.3877   -1.8871 C   0  0  0  0  0  0  0  0  0  0  0  0
    0.4397   -0.8909   -0.9983 C   0  0  0  0  0  0  0  0  0  0  0  0
    0.8491   -2.2316   -1.0557 C   0  0  0  0  0  0  0  0  0  0  0  0
    0.2882   -3.1179   -1.9771 C   0  0  0  0  0  0  0  0  0  0  0  0
   -0.6872   -2.6413   -2.8442 C   0  0  0  0  0  0  0  0  0  0  0  0
   -1.0376   -1.2875   -2.8393 C   0  0  0  0  0  0  0  0  0  0  0  0
    0.5968   -4.4671   -1.9438 N   0  0  0  0  0  0  0  0  0  0  0  0
   -0.9047    1.7091   -3.1787 C   0  0  0  0  0  0  0  0  0  0  0  0
   -0.9639    1.0586   -1.8294 C   0  0  0  0  0  0  0  0  0  0  0  0
   -2.0820    1.9936   -3.7858 O   0  0  0  0  0  0  0  0  0  0  0  0
    0.1613    1.8998   -3.7439 O   0  0  0  0  0  0  0  0  0  0  0  0
   -4.0561    0.5686   -3.1540 C   0  0  0  0  0  0  0  0  0  0  0  0
   -3.3925    1.9420   -3.1674 C   0  0  0  0  0  0  0  0  0  0  0  0
   -3.9539   -0.5084   -1.5340 Br  0  0  0  0  0  0  0  0  0  0  0  0
  1  2  2  0
  1  4  1  0
  3  4  2  0
  3  8  1  0
  3 11  1  0
  4  5  1  0
  5  6  2  0
  6  7  1  0
  6  9  1  0
  7  8  2  0
 10 11  1  0
 10 12  1  0
 10 13  2  0
 12 15  1  0
 14 15  1  0
 14 16  1  0
M  END
>  <DRUGBANK_ID>  (1) 
DB07955

>  <COMMON_NAME>  (1) 
(2-BROMOETHYL)(2-'FORMYL-4'-AMINOPHENYL) ACETATE

$$$$
