
     RDKit          3D

 34 37  0  0  1  0  0  0  0  0999 V2000
    2.1960   -0.0746   -0.2601 C   0  0  1  0  0  0  0  0  0  0  0  0
    2.6500   -1.3682    0.4471 C   0  0  0  0  0  0  0  0  0  0  0  0
    4.1136   -1.3237    0.8831 C   0  0  0  0  0  0  0  0  0  0  0  0
    4.5324   -0.0157    1.5848 C   0  0  1  0  0  0  0  0  0  0  0  0
    4.1189    1.2191    0.7562 C   0  0  0  0  0  0  0  0  0  0  0  0
    2.6352    1.2270    0.4482 C   0  0  0  0  0  0  0  0  0  0  0  0
    4.1154    0.0164    3.0081 N   0  0  0  0  0  0  0  0  0  0  0  0
    4.6479    1.1997    3.6790 C   0  0  0  0  0  0  0  0  0  0  0  0
    2.6890   -0.0547    3.3010 C   0  0  0  0  0  0  0  0  0  0  0  0
    2.6345   -0.0938   -1.7517 C   0  0  1  0  0  0  0  0  0  0  0  0
    2.2027    1.2246   -2.3827 C   0  0  0  0  0  0  0  0  0  0  0  0
    4.0625   -0.2623   -1.9195 O   0  0  0  0  0  0  0  0  0  0  0  0
    4.1373   -1.4796   -2.5255 C   0  0  0  0  0  0  0  0  0  0  0  0
    2.8948   -1.9819   -2.8247 C   0  0  0  0  0  0  0  0  0  0  0  0
    1.8960   -1.1485   -2.4084 O   0  0  0  0  0  0  0  0  0  0  0  0
    2.6664   -3.1997   -3.4687 C   0  0  0  0  0  0  0  0  0  0  0  0
    1.2319   -3.5553   -3.7147 C   0  0  0  0  0  0  0  0  0  0  0  0
    3.7929   -3.9605   -3.8221 C   0  0  0  0  0  0  0  0  0  0  0  0
    5.0549   -3.4560   -3.4283 C   0  0  0  0  0  0  0  0  0  0  0  0
    5.2471   -2.2233   -2.8043 C   0  0  0  0  0  0  0  0  0  0  0  0
    6.8540   -1.7446   -2.4148 Cl  0  0  0  0  0  0  0  0  0  0  0  0
    3.6052   -5.2264   -4.6161 C   0  0  0  0  0  0  0  0  0  0  0  0
    2.5172   -5.6882   -4.9110 O   0  0  0  0  0  0  0  0  0  0  0  0
    4.6168   -5.9612   -5.1367 N   0  0  0  0  0  0  0  0  0  0  0  0
    6.0595   -5.9646   -5.0627 C   0  0  0  0  0  0  0  0  0  0  0  0
    6.5266   -7.0822   -4.1985 C   0  0  0  0  0  0  0  0  0  0  0  0
    6.1957   -8.3687   -4.4199 C   0  0  0  0  0  0  0  0  0  0  0  0
    5.3529   -8.8125   -5.5804 C   0  0  0  0  0  0  0  0  0  0  0  0
    6.6642   -9.3999   -3.5245 C   0  0  0  0  0  0  0  0  0  0  0  0
    7.4801   -9.1078   -2.5008 C   0  0  0  0  0  0  0  0  0  0  0  0
    8.0085  -10.1546   -1.5787 C   0  0  0  0  0  0  0  0  0  0  0  0
    7.8561   -7.8050   -2.2826 N   0  0  0  0  0  0  0  0  0  0  0  0
    7.4350   -6.7409   -3.0490 C   0  0  0  0  0  0  0  0  0  0  0  0
    7.7960   -5.6001   -2.8115 O   0  0  0  0  0  0  0  0  0  0  0  0
  1  2  1  1
  1  6  1  0
  1 10  1  0
  2  3  1  0
  4  3  1  0
  4  5  1  0
  4  7  1  1
  5  6  1  0
  7  8  1  0
  7  9  1  0
 10 11  1  6
 10 12  1  0
 10 15  1  0
 12 13  1  0
 13 14  2  0
 13 20  1  0
 14 15  1  0
 14 16  1  0
 16 17  1  0
 16 18  2  0
 18 19  1  0
 18 22  1  0
 19 20  2  0
 20 21  1  0
 22 23  2  0
 22 24  1  0
 24 25  1  0
 25 26  1  0
 26 27  2  0
 26 33  1  0
 27 28  1  0
 27 29  1  0
 29 30  2  0
 30 31  1  0
 30 32  1  0
 32 33  1  0
 33 34  2  0
M  END
>  <DRUGBANK_ID>  (1) 
DB18314

>  <COMMON_NAME>  (1) 
Valemetostat

>  <CAS_NUMBER>  (1) 
1809336-39-7

>  <UNII>  (1) 
60RD0234VE

>  <SYNONYMS>  (1) 
Ezh1/2 inhibitor ds-3201

$$$$
