
     RDKit          3D

 26 30  0  0  0  0  0  0  0  0999 V2000
   -2.0797   -0.0560   -0.0565 C   0  0  0  0  0  0  0  0  0  0  0  0
    2.4525    4.0810    3.8714 C   0  0  0  0  0  0  0  0  0  0  0  0
    3.6070    3.3269    3.6883 C   0  0  0  0  0  0  0  0  0  0  0  0
    3.3007   -0.8524    3.5583 C   0  0  0  0  0  0  0  0  0  0  0  0
    2.1690   -0.0444    3.7307 C   0  0  0  0  0  0  0  0  0  0  0  0
    2.8161   -2.4479   -1.2401 C   0  0  0  0  0  0  0  0  0  0  0  0
    3.9564   -3.1519   -1.2948 C   0  0  0  0  0  0  0  0  0  0  0  0
    1.2509    3.4087    3.9812 C   0  0  0  0  0  0  0  0  0  0  0  0
    4.6642    1.1157    3.4039 C   0  0  0  0  0  0  0  0  0  0  0  0
    1.3242    0.6749   -0.0207 C   0  0  0  0  0  0  0  0  0  0  0  0
    0.1652   -1.1977   -0.0314 C   0  0  0  0  0  0  0  0  0  0  0  0
    3.5274    1.9271    3.6165 C   0  0  0  0  0  0  0  0  0  0  0  0
    1.4656   -0.7298   -0.0786 C   0  0  0  0  0  0  0  0  0  0  0  0
    4.5534   -0.2791    3.3347 C   0  0  0  0  0  0  0  0  0  0  0  0
    2.2544    1.3386    3.7615 C   0  0  0  0  0  0  0  0  0  0  0  0
    2.6857   -1.4920   -0.1177 C   0  0  0  0  0  0  0  0  0  0  0  0
    4.9275   -2.9851   -0.2781 C   0  0  0  0  0  0  0  0  0  0  0  0
    5.7432   -2.1433    1.5767 C   0  0  0  0  0  0  0  0  0  0  0  0
    1.1359    2.0638    3.9401 N   0  0  0  0  0  0  0  0  0  0  0  0
    0.0477    1.0645   -0.0273 N   0  0  0  0  0  0  0  0  0  0  0  0
    6.0900   -3.5569   -0.0621 N   0  0  0  0  0  0  0  0  0  0  0  0
    6.6018   -3.0301    1.1055 N   0  0  0  0  0  0  0  0  0  0  0  0
    3.5669   -1.2587    0.7998 N   0  0  0  0  0  0  0  0  0  0  0  0
   -0.6375   -0.0909   -0.0097 N   0  0  0  0  0  0  0  0  0  0  0  0
    4.6692   -2.0539    0.7156 N   0  0  0  0  0  0  0  0  0  0  0  0
    6.0096   -1.2665    3.0584 S   0  0  0  0  0  0  0  0  0  0  0  0
  3  2  2  0
  5  4  1  0
  7  6  2  0
  8  2  1  0
 12  3  1  0
 12  9  2  0
 13 10  1  0
 13 11  2  0
 14  4  2  0
 14  9  1  0
 15  5  2  0
 15 12  1  0
 16  6  1  0
 16 13  1  0
 17  7  1  0
 19  8  2  0
 19 15  1  0
 20 10  2  0
 21 17  2  0
 22 18  2  0
 22 21  1  0
 23 16  2  0
 24  1  1  0
 24 11  1  0
 24 20  1  0
 25 17  1  0
 25 18  1  0
 25 23  1  0
 26 14  1  0
 26 18  1  0
M  END
>  <DRUGBANK_ID>  (1) 
DB06314

>  <SECONDARY_ACCESSION_NUMBERS>  (1) 
DB08584

>  <COMMON_NAME>  (1) 
SGX-523

>  <CAS_NUMBER>  (1) 
1022150-57-7

>  <UNII>  (1) 
WH8SQN09KJ

>  <SYNONYMS>  (1) 
6-{[6-(1-methyl-1H-pyrazol-4-yl)[1,2,4]triazolo[4,3-b]pyridazin-3-yl]sulfanyl}quinoline

$$$$
