
     RDKit          3D

 25 29  0  0  0  0  0  0  0  0999 V2000
    1.0957   -0.0761    0.0002 C   0  0  0  0  0  0  0  0  0  0  0  0
    0.6537   -1.3965   -0.2990 O   0  0  0  0  0  0  0  0  0  0  0  0
    0.9811   -1.8864   -1.5326 C   0  0  0  0  0  0  0  0  0  0  0  0
    2.2971   -1.7936   -1.9894 C   0  0  0  0  0  0  0  0  0  0  0  0
    2.6874   -2.4308   -3.1617 C   0  0  0  0  0  0  0  0  0  0  0  0
    1.7664   -3.1580   -3.9151 C   0  0  0  0  0  0  0  0  0  0  0  0
    2.1725   -3.7931   -5.0849 C   0  0  0  0  0  0  0  0  0  0  0  0
    1.2625   -4.4977   -5.8822 C   0  0  0  0  0  0  0  0  0  0  0  0
    1.6362   -5.1788   -7.1411 C   0  0  0  0  0  0  0  0  0  0  0  0
    2.8922   -4.9767   -7.7564 C   0  0  0  0  0  0  0  0  0  0  0  0
    3.2126   -5.6851   -8.8969 C   0  0  0  0  0  0  0  0  0  0  0  0
    2.3351   -6.5613   -9.4743 C   0  0  0  0  0  0  0  0  0  0  0  0
    2.8518   -7.1581  -10.5790 O   0  0  0  0  0  0  0  0  0  0  0  0
    4.1986   -6.6341  -10.5690 C   0  0  0  0  0  0  0  0  0  0  0  0
    4.3987   -5.6221   -9.5571 O   0  0  0  0  0  0  0  0  0  0  0  0
    1.0904   -6.7861   -8.9337 C   0  0  0  0  0  0  0  0  0  0  0  0
    0.7443   -6.0978   -7.7543 C   0  0  0  0  0  0  0  0  0  0  0  0
   -0.5525   -6.4136   -7.0668 C   0  0  0  0  0  0  0  0  0  0  0  0
   -1.0810   -5.2019   -6.3258 C   0  0  0  0  0  0  0  0  0  0  0  0
   -0.0376   -4.5720   -5.4745 N   0  0  0  0  0  0  0  0  0  0  0  0
   -0.4416   -3.9819   -4.3172 C   0  0  0  0  0  0  0  0  0  0  0  0
    0.4289   -3.2527   -3.4937 C   0  0  0  0  0  0  0  0  0  0  0  0
    0.0341   -2.6195   -2.2771 C   0  0  0  0  0  0  0  0  0  0  0  0
   -1.2932   -2.8053   -1.9463 O   0  0  0  0  0  0  0  0  0  0  0  0
   -1.7831   -2.1850   -0.7567 C   0  0  0  0  0  0  0  0  0  0  0  0
  1  2  1  0
  2  3  1  0
  3  4  2  0
  3 23  1  0
  4  5  1  0
  5  6  2  0
  6  7  1  0
  6 22  1  0
  7  8  2  0
  8  9  1  0
  8 20  1  0
  9 10  2  0
  9 17  1  0
 10 11  1  0
 11 12  2  0
 11 15  1  0
 12 13  1  0
 12 16  1  0
 13 14  1  0
 14 15  1  0
 16 17  2  0
 17 18  1  0
 18 19  1  0
 19 20  1  0
 20 21  2  0
 21 22  1  0
 22 23  2  0
 23 24  1  0
 24 25  1  0
M  CHG  1  20   1
M  END
>  <DRUGBANK_ID>  (1) 
DB04115

>  <SECONDARY_ACCESSION_NUMBERS>  (1) 
EXPT00672

>  <COMMON_NAME>  (1) 
Berberine

>  <CAS_NUMBER>  (1) 
2086-83-1

>  <UNII>  (1) 
0I8Y3P32UF

$$$$
