N8E
     RDKit          3D

 24 23  0  0  0  0  0  0  0  0999 V2000
    1.0725   -0.0309    0.0170 C   0  0  0  0  0  0  0  0  0  0  0  0
    0.6947   -0.4631    1.4257 C   0  0  0  0  0  0  0  0  0  0  0  0
    1.2839    0.5240    2.4524 C   0  0  0  0  0  0  0  0  0  0  0  0
    0.7386    1.8732    2.1867 C   0  0  0  0  0  0  0  0  0  0  0  0
   -0.7293    1.6099    2.2561 C   0  0  0  0  0  0  0  0  0  0  0  0
   -1.2890    1.3366    3.6874 C   0  0  0  0  0  0  0  0  0  0  0  0
   -1.0381    2.3527    4.8481 C   0  0  0  0  0  0  0  0  0  0  0  0
   -1.8580    3.6208    4.8261 C   0  0  0  0  0  0  0  0  0  0  0  0
   -3.2467    3.7581    4.6288 O   0  0  0  0  0  0  0  0  0  0  0  0
   -3.6724    3.0196    3.4812 C   0  0  0  0  0  0  0  0  0  0  0  0
   -2.7442    3.1440    2.2132 C   0  0  0  0  0  0  0  0  0  0  0  0
   -1.5674    3.9665    1.7952 O   0  0  0  0  0  0  0  0  0  0  0  0
   -0.7900    4.8189    2.5882 C   0  0  0  0  0  0  0  0  0  0  0  0
   -1.6028    6.0534    2.8345 C   0  0  0  0  0  0  0  0  0  0  0  0
   -3.0193    6.0706    2.3444 O   0  0  0  0  0  0  0  0  0  0  0  0
   -3.6680    5.3571    1.1475 C   0  0  0  0  0  0  0  0  0  0  0  0
   -2.8784    4.9255   -0.2498 C   0  0  0  0  0  0  0  0  0  0  0  0
   -1.5062    5.3810   -0.5415 O   0  0  0  0  0  0  0  0  0  0  0  0
   -0.9841    6.5085    0.2049 C   0  0  0  0  0  0  0  0  0  0  0  0
   -1.4191    8.0548    0.4481 C   0  0  0  0  0  0  0  0  0  0  0  0
   -2.8162    8.4345    0.3879 O   0  0  0  0  0  0  0  0  0  0  0  0
   -3.5017    7.6279   -0.5396 C   0  0  0  0  0  0  0  0  0  0  0  0
   -2.9905    7.4494   -1.9786 C   0  0  0  0  0  0  0  0  0  0  0  0
   -1.6199    7.1784   -2.2463 O   0  0  0  0  0  0  0  0  0  0  0  0
  1  2  1  0
  2  3  1  0
  3  4  1  0
  4  5  1  0
  5  6  1  0
  6  7  1  0
  7  8  1  0
  8  9  1  0
  9 10  1  0
 10 11  1  0
 11 12  1  0
 12 13  1  0
 13 14  1  0
 14 15  1  0
 15 16  1  0
 16 17  1  0
 17 18  1  0
 18 19  1  0
 19 20  1  0
 20 21  1  0
 21 22  1  0
 22 23  1  0
 23 24  1  0
M  END
>  <DRUGBANK_ID>  (1) 
DB08249

>  <COMMON_NAME>  (1) 
3,6,9,12,15-PENTAOXATRICOSAN-1-OL

>  <UNII>  (1) 
85FR004F9B

$$$$
