
     RDKit          3D

 17 17  0  0  0  0  0  0  0  0999 V2000
    0.8900   -0.0729   -0.0294 C   0  0  0  0  0  0  0  0  0  0  0  0
    0.3129   -0.2410    1.3528 C   0  0  0  0  0  0  0  0  0  0  0  0
   -0.2621    0.6611    1.9519 O   0  0  0  0  0  0  0  0  0  0  0  0
    0.5292   -1.5391    1.8332 O   0  0  0  0  0  0  0  0  0  0  0  0
    0.2169   -1.8037    3.1866 C   0  0  0  0  0  0  0  0  0  0  0  0
   -1.1165   -1.5984    3.5535 C   0  0  0  0  0  0  0  0  0  0  0  0
   -1.5787   -2.0032    4.7942 C   0  0  0  0  0  0  0  0  0  0  0  0
   -0.7228   -2.6818    5.6564 C   0  0  0  0  0  0  0  0  0  0  0  0
    0.6204   -2.9458    5.2956 C   0  0  0  0  0  0  0  0  0  0  0  0
    1.3948   -3.8842    6.1678 C   0  0  0  0  0  0  0  0  0  0  0  0
    2.5289   -4.2937    5.9850 O   0  0  0  0  0  0  0  0  0  0  0  0
    0.6600   -4.3592    7.2011 O   0  0  0  0  0  0  0  0  0  0  0  0
    1.1277   -2.4241    4.0716 C   0  0  0  0  0  0  0  0  0  0  0  0
    2.5452   -2.5219    3.8114 O   0  0  0  0  0  0  0  0  0  0  0  0
    3.2503   -1.8212    2.8261 C   0  0  0  0  0  0  0  0  0  0  0  0
    2.7903   -1.0534    1.9895 O   0  0  0  0  0  0  0  0  0  0  0  0
    4.7263   -2.0038    2.8487 C   0  0  0  0  0  0  0  0  0  0  0  0
  1  2  1  0
  2  3  2  0
  2  4  1  0
  4  5  1  0
  5  6  2  0
  5 13  1  0
  6  7  1  0
  7  8  2  0
  8  9  1  0
  9 10  1  0
  9 13  2  0
 10 11  2  0
 10 12  1  0
 13 14  1  0
 14 15  1  0
 15 16  2  0
 15 17  1  0
M  END
>  <DRUGBANK_ID>  (1) 
DB13839

>  <COMMON_NAME>  (1) 
Dipyrocetyl

>  <CAS_NUMBER>  (1) 
486-79-3

>  <UNII>  (1) 
EF5UVE254C

>  <SYNONYMS>  (1) 
Dipyrocetyl

$$$$
