
     RDKit          3D

 22 23  0  0  1  0  0  0  0  0999 V2000
    1.2506   -0.1575    0.2526 C   0  0  0  0  0  0  0  0  0  0  0  0
   -2.2873    3.2565   -1.6928 C   0  0  0  0  0  0  0  0  0  0  0  0
   -2.6540    4.3970   -3.8149 C   0  0  0  0  0  0  0  0  0  0  0  0
    0.5429    1.1780    0.4685 C   0  0  2  0  0  0  0  0  0  0  0  0
   -2.8869    4.2340   -2.3078 C   0  0  0  0  0  0  0  0  0  0  0  0
   -1.7856    3.2101   -0.2438 C   0  0  1  0  0  0  0  0  0  0  0  0
   -0.7884    1.0626   -0.3024 C   0  0  2  0  0  0  0  0  0  0  0  0
   -3.7075    5.1124   -1.4494 C   0  0  2  0  0  0  0  0  0  0  0  0
   -2.1422    4.4842    0.5151 C   0  0  1  0  0  0  0  0  0  0  0  0
   -0.4137    1.3332   -1.8229 C   0  0  1  0  0  0  0  0  0  0  0  0
   -3.5610    4.8419    0.1060 C   0  0  1  0  0  0  0  0  0  0  0  0
    0.4456    2.7250   -2.1221 C   0  0  2  0  0  0  0  0  0  0  0  0
    1.6698    2.6314   -1.2048 C   0  0  1  0  0  0  0  0  0  0  0  0
   -1.9241    1.8720    0.2744 N   0  0  0  0  0  0  0  0  0  0  0  0
   -3.7003    3.7912   -4.5408 O   0  0  0  0  0  0  0  0  0  0  0  0
   -5.0374    4.7639   -1.8081 O   0  0  0  0  0  0  0  0  0  0  0  0
   -1.8912    4.3285    1.9140 O   0  0  0  0  0  0  0  0  0  0  0  0
    0.2984    0.2623   -2.4656 O   0  0  0  0  0  0  0  0  0  0  0  0
   -3.9853    5.9864    0.8354 O   0  0  0  0  0  0  0  0  0  0  0  0
    0.1031    4.1481   -2.1217 O   0  0  0  0  0  0  0  0  0  0  0  0
    2.4171    3.8486   -1.2200 O   0  0  0  0  0  0  0  0  0  0  0  0
    1.3353    2.3376    0.1491 O   0  0  0  0  0  0  0  0  0  0  0  0
  4  1  1  6
  5  2  2  0
  5  3  1  0
  6  2  1  0
  6 14  1  1
  7  4  1  0
  7 14  1  1
  8  5  1  0
  8 16  1  6
  9  6  1  0
  9 17  1  1
 10  7  1  0
 10 18  1  1
 11  8  1  0
 11  9  1  0
 11 19  1  1
 12 10  1  0
 12 20  1  1
 13 12  1  0
 13 21  1  1
 15  3  1  0
 22  4  1  0
 22 13  1  0
M  END
>  <DRUGBANK_ID>  (1) 
DB02218

>  <SECONDARY_ACCESSION_NUMBERS>  (1) 
EXPT00405

>  <COMMON_NAME>  (1) 
N-[4-hydroxymethyl-cyclohexan-6-yl-1,2,3-triol]-4,6-dideoxy-4-aminoglucopyranoside

$$$$
