C27
     RDKit          3D

 26 28  0  0  0  0  0  0  0  0999 V2000
    1.3015    0.0696    0.1757 C   0  0  0  0  0  0  0  0  0  0  0  0
    1.1967    0.8658   -0.9976 O   0  0  0  0  0  0  0  0  0  0  0  0
    1.6881    2.1460   -1.0334 C   0  0  0  0  0  0  0  0  0  0  0  0
    2.9527    2.5612   -0.9259 C   0  0  0  0  0  0  0  0  0  0  0  0
    3.1995    3.9221   -1.2496 C   0  0  0  0  0  0  0  0  0  0  0  0
    2.2322    4.8516   -1.7906 C   0  0  0  0  0  0  0  0  0  0  0  0
    0.9376    4.4822   -2.0172 C   0  0  0  0  0  0  0  0  0  0  0  0
    0.8069    3.1399   -1.4889 C   0  0  0  0  0  0  0  0  0  0  0  0
   -0.0918    5.4595   -2.8013 C   0  0  0  0  0  0  0  0  0  0  0  0
   -0.0033    5.6624   -4.1928 C   0  0  0  0  0  0  0  0  0  0  0  0
   -0.9598    6.4370   -4.9375 C   0  0  0  0  0  0  0  0  0  0  0  0
   -2.1620    6.8913   -4.3739 C   0  0  0  0  0  0  0  0  0  0  0  0
   -2.3496    6.7002   -3.0165 C   0  0  0  0  0  0  0  0  0  0  0  0
   -3.8964    6.6256   -2.4516 C   0  0  0  0  0  0  0  0  0  0  0  0
   -4.7524    5.1529   -2.1983 C   0  0  0  0  0  0  0  0  0  0  0  0
   -4.2282    4.1901   -1.0595 C   0  0  2  0  0  0  0  0  0  0  0  0
   -4.4889    4.4936    0.4264 C   0  0  0  0  0  0  0  0  0  0  0  0
   -2.8486    4.5802   -1.1421 C   0  0  0  0  0  0  0  0  0  0  0  0
   -1.9183    3.5350   -1.0761 C   0  0  0  0  0  0  0  0  0  0  0  0
   -1.0866    3.8131   -0.1711 O   0  0  0  0  0  0  0  0  0  0  0  0
   -2.1329    2.5337   -2.0024 N   0  0  0  0  0  0  0  0  0  0  0  0
   -1.1366    1.5994   -2.6327 C   0  0  0  0  0  0  0  0  0  0  0  0
   -3.3745    2.0193   -1.7678 C   0  0  0  0  0  0  0  0  0  0  0  0
   -4.3746    2.7359   -1.3363 N   0  0  0  0  0  0  0  0  0  0  0  0
   -3.5305    0.6794   -1.9402 N   0  0  0  0  0  0  0  0  0  0  0  0
   -1.1521    6.2609   -2.2537 C   0  0  0  0  0  0  0  0  0  0  0  0
  1  2  1  0
  2  3  1  0
  3  4  2  0
  3  8  1  0
  4  5  1  0
  5  6  2  0
  6  7  1  0
  7  8  2  0
  7  9  1  0
  9 10  2  0
  9 26  1  0
 10 11  1  0
 11 12  2  0
 12 13  1  0
 13 14  1  0
 13 26  2  0
 14 15  1  0
 16 15  1  0
 16 17  1  1
 16 18  1  0
 16 24  1  0
 18 19  1  0
 19 20  2  0
 19 21  1  0
 21 22  1  0
 21 23  1  0
 23 24  2  0
 23 25  1  0
M  END
>  <DRUGBANK_ID>  (1) 
DB07519

>  <COMMON_NAME>  (1) 
(6R)-2-amino-6-[2-(3'-methoxybiphenyl-3-yl)ethyl]-3,6-dimethyl-5,6-dihydropyrimidin-4(3H)-one

$$$$
