
     RDKit          3D

  9  8  0  0  1  0  0  0  0  0999 V2000
    1.0720   -1.6234   -1.7089 N   0  0  0  0  0  0  0  0  0  0  0  0
    0.4955   -0.3295   -1.2823 C   0  0  2  0  0  0  0  0  0  0  0  0
    0.9846    0.0550    0.1171 C   0  0  0  0  0  0  0  0  0  0  0  0
    0.1065   -0.4008    1.2549 C   0  0  0  0  0  0  0  0  0  0  0  0
    0.6649   -1.3331    2.0555 O   0  0  0  0  0  0  0  0  0  0  0  0
   -0.9943    0.0780    1.4834 O   0  0  0  0  0  0  0  0  0  0  0  0
   -1.0401   -0.4174   -1.4250 C   0  0  0  0  0  0  0  0  0  0  0  0
   -1.5893    0.5430   -2.2045 O   0  0  0  0  0  0  0  0  0  0  0  0
   -1.7121   -1.3147   -0.9334 O   0  0  0  0  0  0  0  0  0  0  0  0
  2  7  1  0
  2  3  1  0
  2  1  1  1
  3  4  1  0
  4  5  1  0
  4  6  2  0
  7  8  1  0
  7  9  2  0
M  END
>  <DRUGBANK_ID>  (1) 
DB02655

>  <SECONDARY_ACCESSION_NUMBERS>  (1) 
EXPT01114

>  <COMMON_NAME>  (1) 
D-Aspartic Acid

>  <CAS_NUMBER>  (1) 
1783-96-6

>  <UNII>  (1) 
4SR0Q8YD1X

$$$$
