
     RDKit          3D

 39 43  0  0  1  0  0  0  0  0999 V2000
   -1.7562    1.6979   -2.5064 C   0  0  0  0  0  0  0  0  0  0  0  0
   -0.3026    1.3132   -2.7502 C   0  0  1  0  0  0  0  0  0  0  0  0
   -0.2777    0.0565   -3.6702 C   0  0  2  0  0  0  0  0  0  0  0  0
    1.1183   -0.4716   -4.1435 C   0  0  2  0  0  0  0  0  0  0  0  0
    2.1879    0.5582   -4.2763 C   0  0  0  0  0  0  0  0  0  0  0  0
    1.9875    1.4046   -2.9969 C   0  0  1  0  0  0  0  0  0  0  0  0
    0.7441    2.1690   -3.1669 O   0  0  0  0  0  0  0  0  0  0  0  0
    2.1427    0.6390   -1.7395 O   0  0  0  0  0  0  0  0  0  0  0  0
    1.2688   -0.3788   -1.1490 C   0  0  1  0  0  0  0  0  0  0  0  0
    1.0581   -1.7832   -1.7235 C   0  0  0  0  0  0  0  0  0  0  0  0
    2.4171   -2.4615   -1.8506 C   0  0  1  0  0  0  0  0  0  0  0  0
    2.5080   -3.0388   -0.4811 C   0  0  0  0  0  0  0  0  0  0  0  0
    2.2842   -1.9421    0.5656 C   0  0  0  0  0  0  0  0  0  0  0  0
    1.7417   -0.6605    0.2490 C   0  0  0  0  0  0  0  0  0  0  0  0
    1.4509    0.2881    1.2265 C   0  0  0  0  0  0  0  0  0  0  0  0
    1.7020   -0.0309    2.5479 C   0  0  0  0  0  0  0  0  0  0  0  0
    2.2103   -1.3034    2.8647 C   0  0  0  0  0  0  0  0  0  0  0  0
    2.4817   -2.2580    1.8819 C   0  0  0  0  0  0  0  0  0  0  0  0
    2.9004   -3.5152    2.2044 O   0  0  0  0  0  0  0  0  0  0  0  0
    2.4656   -1.6409    4.2530 C   0  0  0  0  0  0  0  0  0  0  0  0
    2.9093   -2.7528    4.5946 O   0  0  0  0  0  0  0  0  0  0  0  0
    2.2150   -0.6566    5.2914 C   0  0  0  0  0  0  0  0  0  0  0  0
    2.5129   -1.0373    6.5985 C   0  0  0  0  0  0  0  0  0  0  0  0
    2.3015   -0.1474    7.6310 C   0  0  0  0  0  0  0  0  0  0  0  0
    1.7929    1.1218    7.3618 C   0  0  0  0  0  0  0  0  0  0  0  0
    1.4900    1.5160    6.0557 C   0  0  0  0  0  0  0  0  0  0  0  0
    1.7053    0.6134    5.0036 C   0  0  0  0  0  0  0  0  0  0  0  0
    1.4116    0.9696    3.5966 C   0  0  0  0  0  0  0  0  0  0  0  0
    0.9198    2.1218    3.2304 N   0  0  0  0  0  0  0  0  0  0  0  0
    0.9881    2.7489    5.7312 O   0  0  0  0  0  0  0  0  0  0  0  0
    0.7674    3.6731    6.7852 C   0  0  0  0  0  0  0  0  0  0  0  0
    0.8656    1.4694    0.8372 O   0  0  0  0  0  0  0  0  0  0  0  0
    2.4933   -3.4342   -3.0358 C   0  0  0  0  0  0  0  0  0  0  0  0
    3.4110   -3.3539   -3.8636 O   0  0  0  0  0  0  0  0  0  0  0  0
    1.3517   -4.4131   -3.2404 C   0  0  0  0  0  0  0  0  0  0  0  0
    1.1902   -5.2321   -2.1023 O   0  0  0  0  0  0  0  0  0  0  0  0
    3.5686   -1.5981   -1.9518 O   0  0  0  0  0  0  0  0  0  0  0  0
    1.0698   -1.7009   -4.9184 N   0  0  0  0  0  0  0  0  0  0  0  0
   -0.9557    0.3712   -4.8961 O   0  0  0  0  0  0  0  0  0  0  0  0
  2  3  1  0
  2  7  1  0
  2  1  1  6
  3  4  1  0
  3 39  1  6
  4  5  1  0
  4 38  1  6
  5  6  1  0
  6  7  1  0
  6  8  1  1
  9 10  1  0
  9 14  1  0
  9  8  1  6
 10 11  1  0
 11 12  1  0
 11 33  1  0
 11 37  1  6
 12 13  1  0
 13 14  2  0
 13 18  1  0
 14 15  1  0
 15 16  2  0
 15 32  1  0
 16 17  1  0
 16 28  1  0
 17 18  2  0
 17 20  1  0
 18 19  1  0
 20 21  2  0
 20 22  1  0
 22 23  2  0
 22 27  1  0
 23 24  1  0
 24 25  2  0
 25 26  1  0
 26 27  2  0
 26 30  1  0
 27 28  1  0
 28 29  2  0
 30 31  1  0
 33 34  2  0
 33 35  1  0
 35 36  1  0
M  END
>  <DRUGBANK_ID>  (1) 
DB13103

>  <COMMON_NAME>  (1) 
Camsirubicin

>  <CAS_NUMBER>  (1) 
236095-29-7

>  <UNII>  (1) 
7W3RB6E22W

>  <SYNONYMS>  (1) 
5-imino-13-deoxydoxorubicin; 5(8H)-Naphthacenone, 10-((3-amino-2,3,6-trideoxy-alpha-L-lyxo-hexopyranosyl)oxy)-7,9,10,12-tetrahydro-6,8,11-trihydroxy-8-(2-hydroxyethyl)-12-imino-1-methoxy-, (8R,10S)-

$$$$
