SY1
     RDKit          3D

 27 30  0  0  0  0  0  0  0  0999 V2000
    1.3059    0.2992   -2.4022 N   0  0  0  0  0  0  0  0  0  0  0  0
   -1.2960    1.3749   -2.8146 C   0  0  0  0  0  0  0  0  0  0  0  0
   -0.9744    2.8526   -2.5966 C   0  0  0  0  0  0  0  0  0  0  0  0
    0.7943    2.2732   -0.9760 C   0  0  0  0  0  0  0  0  0  0  0  0
    1.3520    3.8385   -2.8260 C   0  0  0  0  0  0  0  0  0  0  0  0
    3.4420    4.0860   -3.8878 C   0  0  0  0  0  0  0  0  0  0  0  0
    5.5503    5.7911   -4.7147 C   0  0  0  0  0  0  0  0  0  0  0  0
    3.2677    5.4409   -4.0870 C   0  0  0  0  0  0  0  0  0  0  0  0
    0.1891    6.9198   -1.4288 C   0  0  0  0  0  0  0  0  0  0  0  0
    0.9575    8.0491   -1.7510 C   0  0  0  0  0  0  0  0  0  0  0  0
    1.4571    8.9131   -0.7974 C   0  0  0  0  0  0  0  0  0  0  0  0
   -0.0156    7.8724    0.7838 C   0  0  0  0  0  0  0  0  0  0  0  0
   -1.1400    5.7522    0.3131 C   0  0  0  0  0  0  0  0  0  0  0  0
   -1.7921    4.8441    0.6510 N   0  0  0  0  0  0  0  0  0  0  0  0
   -0.3172    6.8426   -0.1238 C   0  0  0  0  0  0  0  0  0  0  0  0
    0.9409    8.8450    0.4767 C   0  0  0  0  0  0  0  0  0  0  0  0
   -0.0840    5.8753   -2.4985 C   0  0  0  0  0  0  0  0  0  0  0  0
    1.1143    5.2056   -3.0075 N   0  0  0  0  0  0  0  0  0  0  0  0
    0.4085    3.0829   -2.1373 N   0  0  0  0  0  0  0  0  0  0  0  0
   -0.9306    0.5548   -1.5732 C   0  0  0  0  0  0  0  0  0  0  0  0
    0.5482    0.7723   -1.2451 C   0  0  1  0  0  0  0  0  0  0  0  0
    1.9648    5.9803   -3.7857 C   0  0  0  0  0  0  0  0  0  0  0  0
    1.7142    7.0813   -4.2688 O   0  0  0  0  0  0  0  0  0  0  0  0
    2.4613    3.2883   -3.2594 N   0  0  0  0  0  0  0  0  0  0  0  0
    4.2781    6.2963   -4.5510 C   0  0  0  0  0  0  0  0  0  0  0  0
    5.7111    4.4088   -4.7112 C   0  0  0  0  0  0  0  0  0  0  0  0
    4.6526    3.5587   -4.3328 C   0  0  0  0  0  0  0  0  0  0  0  0
  2  3  1  0
  2 20  1  0
  3 19  1  0
  4 19  1  0
  4 21  1  0
  5 18  1  0
  5 24  2  0
  5 19  1  0
  6  8  2  0
  6 27  1  0
  6 24  1  0
  7 25  2  0
  7 26  1  0
  8 25  1  0
  8 22  1  0
  9 10  2  0
  9 17  1  0
  9 15  1  0
 10 11  1  0
 11 16  2  0
 12 16  1  0
 12 15  2  0
 13 15  1  0
 13 14  3  0
 17 18  1  0
 18 22  1  0
 20 21  1  0
 21  1  1  6
 22 23  2  0
 26 27  2  0
M  END
>  <DRUGBANK_ID>  (1) 
DB08588

>  <COMMON_NAME>  (1) 
2-({2-[(3R)-3-AMINOPIPERIDIN-1-YL]-4-OXOQUINAZOLIN-3(4H)-YL}METHYL)BENZONITRILE

$$$$
