
     RDKit          3D

 29 28  0  0  0  0  0  0  0  0999 V2000
    1.0279    0.0996    0.1025 C   0  0  0  0  0  0  0  0  0  0  0  0
   -1.6043   -0.4117   -3.7836 C   0  0  0  0  0  0  0  0  0  0  0  0
    0.5579    0.8380   -1.1443 C   0  0  0  0  0  0  0  0  0  0  0  0
   -1.0417   -1.1887   -2.6051 C   0  0  0  0  0  0  0  0  0  0  0  0
    1.0611    0.1982   -2.4357 C   0  0  0  0  0  0  0  0  0  0  0  0
    0.4842   -1.1832   -2.7368 C   0  0  0  0  0  0  0  0  0  0  0  0
    0.6223   -1.3704    0.1889 C   0  0  0  0  0  0  0  0  0  0  0  0
    1.0798   -2.0664    1.4421 C   0  0  0  0  0  0  0  0  0  0  0  0
   -1.1371   -1.0832   -5.0774 C   0  0  0  0  0  0  0  0  0  0  0  0
   -1.6086   -2.5437   -5.0879 C   0  0  0  0  0  0  0  0  0  0  0  0
    0.4325   -1.4262    2.6468 C   0  0  0  0  0  0  0  0  0  0  0  0
   -1.0985   -1.4813    2.5270 C   0  0  0  0  0  0  0  0  0  0  0  0
   -3.1379   -2.5607   -5.0570 C   0  0  0  0  0  0  0  0  0  0  0  0
   -3.6624   -1.7756   -6.2630 C   0  0  0  0  0  0  0  0  0  0  0  0
   -1.5889   -2.9318    2.4041 C   0  0  0  0  0  0  0  0  0  0  0  0
   -1.1100   -3.7490    3.6071 C   0  0  0  0  0  0  0  0  0  0  0  0
   -3.1362   -2.4176   -7.5515 C   0  0  0  0  0  0  0  0  0  0  0  0
   -3.6319   -3.8637   -7.6376 C   0  0  0  0  0  0  0  0  0  0  0  0
   -1.6161   -3.1147    4.9068 C   0  0  0  0  0  0  0  0  0  0  0  0
   -3.1483   -3.0907    4.9325 C   0  0  0  0  0  0  0  0  0  0  0  0
   -5.1630   -3.8842   -7.6398 C   0  0  0  0  0  0  0  0  0  0  0  0
   -5.6989   -3.0940   -8.8381 C   0  0  0  0  0  0  0  0  0  0  0  0
   -3.7228   -4.5100    4.8845 C   0  0  0  0  0  0  0  0  0  0  0  0
   -3.2310   -5.3601    6.0568 C   0  0  0  0  0  0  0  0  0  0  0  0
   -5.2181   -3.7146  -10.1537 C   0  0  0  0  0  0  0  0  0  0  0  0
   -3.6510   -4.7453    7.3822 C   0  0  0  0  0  0  0  0  0  0  0  0
   -5.7093   -5.1586  -10.2998 C   0  0  0  0  0  0  0  0  0  0  0  0
   -7.2308   -5.2486  -10.2608 C   0  0  0  0  0  0  0  0  0  0  0  0
   -7.7892   -4.5022  -11.3397 O   0  0  0  0  0  0  0  0  0  0  0  0
  3  1  1  0
  4  2  1  0
  5  3  1  0
  6  4  1  0
  6  5  1  0
  7  1  1  0
  8  7  1  0
  9  2  1  0
 10  9  1  0
 11  8  1  0
 12 11  1  0
 13 10  1  0
 14 13  1  0
 15 12  1  0
 16 15  1  0
 17 14  1  0
 18 17  1  0
 19 16  1  0
 20 19  1  0
 21 18  1  0
 22 21  1  0
 23 20  1  0
 24 23  1  0
 24 26  1  0
 25 22  1  0
 25 27  1  0
 27 28  1  0
 28 29  1  0
M  END
>  <DRUGBANK_ID>  (1) 
DB11220

>  <COMMON_NAME>  (1) 
Octacosanol

>  <CAS_NUMBER>  (1) 
557-61-9

>  <UNII>  (1) 
81I2215OVK

>  <SYNONYMS>  (1) 
1-Octacosanol; cluytyl alcohol; montanyl alcohol; n-octacosanol; Octacosanol; Octacosyl alcohol

$$$$
