ET1
     RDKit          3D

 27 29  0  0  0  0  0  0  0  0999 V2000
   -0.2144   -0.0087   -0.3406 C   0  0  0  0  0  0  0  0  0  0  0  0
    1.9253   -2.3818    0.9630 C   0  0  0  0  0  0  0  0  0  0  0  0
   -0.7098   -2.7502    2.7497 C   0  0  0  0  0  0  0  0  0  0  0  0
   -0.3701   -1.7424    1.9265 C   0  0  0  0  0  0  0  0  0  0  0  0
    2.2333    1.9522    1.5009 N   0  0  0  0  0  0  0  0  0  0  0  0
    1.1783    2.3403    2.5984 C   0  0  0  0  0  0  0  0  0  0  0  0
    1.1005    1.0028    2.8186 C   0  0  0  0  0  0  0  0  0  0  0  0
    2.5986    0.8868    3.1127 C   0  0  0  0  0  0  0  0  0  0  0  0
    3.2935    1.3922    2.0279 C   0  0  0  0  0  0  0  0  0  0  0  0
    4.5340    1.8792    4.0785 C   0  0  0  0  0  0  0  0  0  0  0  0
    5.2559    1.8069    2.8561 C   0  0  0  0  0  0  0  0  0  0  0  0
    4.6216    1.4876    1.6864 C   0  0  0  0  0  0  0  0  0  0  0  0
    3.2580    1.3233    4.2477 C   0  0  0  0  0  0  0  0  0  0  0  0
    4.9138    2.5711    5.1808 O   0  0  0  0  0  0  0  0  0  0  0  0
    6.2087    3.1043    5.0809 C   0  0  0  0  0  0  0  0  0  0  0  0
   -0.1671    0.4162    1.6268 C   0  0  0  0  0  0  0  0  0  0  0  0
   -0.2698    1.4642   -1.4716 C   0  0  0  0  0  0  0  0  0  0  0  0
    1.7896    0.7964    0.4073 S   0  0  0  0  0  0  0  0  0  0  0  0
    1.1236   -1.3111    1.1060 C   0  0  0  0  0  0  0  0  0  0  0  0
    1.4329   -3.5160    1.7106 C   0  0  0  0  0  0  0  0  0  0  0  0
    0.2475   -3.6652    2.6255 C   0  0  0  0  0  0  0  0  0  0  0  0
    0.6901    1.7043    0.3586 O   0  0  0  0  0  0  0  0  0  0  0  0
    2.6231    0.7437   -0.8577 O   0  0  0  0  0  0  0  0  0  0  0  0
    0.3199    2.5510   -1.4880 O   0  0  0  0  0  0  0  0  0  0  0  0
   -1.0529    1.2075   -2.5043 O   0  0  0  0  0  0  0  0  0  0  0  0
   -0.0490   -4.6970    3.4614 O   0  0  0  0  0  0  0  0  0  0  0  0
    0.8093   -5.7716    3.2396 C   0  0  0  0  0  0  0  0  0  0  0  0
  1 16  1  0
  1 17  1  0
  2 20  2  0
  3 21  2  0
  4  3  1  0
  5  6  1  0
  5 18  1  0
  7  6  2  0
  7 16  1  0
  8  7  1  0
  8  9  2  0
  9  5  1  0
 10 11  1  0
 10 13  2  0
 11 12  2  0
 12  9  1  0
 13  8  1  0
 14 10  1  0
 14 15  1  0
 17 25  1  0
 18 19  1  0
 19  2  1  0
 19  4  2  0
 20 21  1  0
 21 26  1  0
 22 18  2  0
 23 18  2  0
 24 17  2  0
 26 27  1  0
M  END
>  <DRUGBANK_ID>  (1) 
DB07724

>  <COMMON_NAME>  (1) 
Indeglitazar

>  <CAS_NUMBER>  (1) 
835619-41-5

>  <UNII>  (1) 
JMC809G4ZH

>  <SYNONYMS>  (1) 
Indeglitazar

$$$$
