
     RDKit          3D

 11  9  0  0  1  0  0  0  0  0999 V2000
    1.0936   -0.1399   -2.5522 C   0  0  2  0  0  0  0  0  0  0  0  0
    0.5774    0.7372   -1.3968 C   0  0  2  0  0  0  0  0  0  0  0  0
    1.2366    0.4486   -0.0265 C   0  0  0  0  0  0  0  0  0  0  0  0
    2.2538   -0.2920   -0.0276 O   0  0  0  0  0  0  0  0  0  0  0  0
    0.5198    0.6785    0.9940 O   0  0  0  0  0  0  0  0  0  0  0  0
   -0.8747    0.6417   -1.2827 O   0  0  0  0  0  0  0  0  0  0  0  0
    1.6199   -1.5429   -2.1739 C   0  0  0  0  0  0  0  0  0  0  0  0
    2.7196   -2.0050   -2.4060 O   0  0  0  0  0  0  0  0  0  0  0  0
    0.6941   -2.3422   -1.5694 O   0  0  0  0  0  0  0  0  0  0  0  0
    2.1045    0.5846   -3.2586 O   0  0  0  0  0  0  0  0  0  0  0  0
   -0.2023   -1.6593    0.9663 K   0  0  0  0  0 15  0  0  0  0  0  0
  1  7  1  0
  1 10  1  1
  2  6  1  1
  2  3  1  0
  2  1  1  0
  3  4  2  0
  3  5  1  0
  7  8  2  0
  7  9  1  0
M  CHG  2   5  -1  11   1
M  END
>  <DRUGBANK_ID>  (1) 
DB11107

>  <COMMON_NAME>  (1) 
Potassium bitartrate

>  <CAS_NUMBER>  (1) 
868-14-4

>  <UNII>  (1) 
NPT6P8P3UU

>  <SYNONYMS>  (1) 
Potassium bitartrate; potassium hydrogen tartrate

$$$$
