THZ
     RDKit          3D

 20 21  0  0  0  0  0  0  0  0999 V2000
    1.0095   -0.0359   -0.0838 N   0  0  0  0  0  0  0  0  0  0  0  0
    0.4027    1.1794    0.4842 C   0  0  1  0  0  0  0  0  0  0  0  0
    1.0268    2.4696   -0.1560 C   0  0  0  0  0  0  0  0  0  0  0  0
    0.7771    2.7138   -1.6503 C   0  0  0  0  0  0  0  0  0  0  0  0
   -0.6641    3.0330   -1.8905 C   0  0  0  0  0  0  0  0  0  0  0  0
   -1.2040    4.1817   -1.1828 N   0  0  0  0  0  0  0  0  0  0  0  0
   -2.2170    4.8427   -1.7958 C   0  0  0  0  0  0  0  0  0  0  0  0
   -2.8979    5.6796   -0.9913 N   0  0  0  0  0  0  0  0  0  0  0  0
   -2.4908    4.6938   -3.0358 N   0  0  0  0  0  0  0  0  0  0  0  0
   -1.1894    1.0258    0.6805 C   0  0  0  0  0  0  0  0  0  0  0  0
   -1.6399    1.3436    1.7741 O   0  0  0  0  0  0  0  0  0  0  0  0
   -2.1026    0.7022   -0.4728 C   0  0  0  0  0  0  0  0  0  0  0  0
   -1.6898   -0.3318   -1.7976 S   0  0  0  0  0  0  0  0  0  0  0  0
   -2.7965    0.5194   -2.8393 C   0  0  0  0  0  0  0  0  0  0  0  0
   -3.0079    0.3975   -4.2315 C   0  0  0  0  0  0  0  0  0  0  0  0
   -4.0136    1.1665   -4.8352 C   0  0  0  0  0  0  0  0  0  0  0  0
   -4.7228    2.1051   -4.0976 C   0  0  0  0  0  0  0  0  0  0  0  0
   -4.4535    2.2733   -2.7310 C   0  0  0  0  0  0  0  0  0  0  0  0
   -3.5141    1.4403   -2.0710 C   0  0  0  0  0  0  0  0  0  0  0  0
   -3.1619    1.4716   -0.7120 N   0  0  0  0  0  0  0  0  0  0  0  0
  2  1  1  6
  2  3  1  0
  2 10  1  0
  3  4  1  0
  4  5  1  0
  5  6  1  0
  6  7  1  0
  7  8  1  0
  7  9  2  0
 10 11  2  0
 10 12  1  0
 12 13  1  0
 12 20  2  0
 13 14  1  0
 14 15  2  0
 14 19  1  0
 15 16  1  0
 16 17  2  0
 17 18  1  0
 18 19  2  0
 19 20  1  0
M  END
>  <DRUGBANK_ID>  (1) 
DB08624

>  <COMMON_NAME>  (1) 
1-[(4S)-4-amino-5-(1,3-benzothiazol-2-yl)-5-oxopentyl]guanidine

$$$$
