1HP
     RDKit          3D

 18 20  0  0  0  0  0  0  0  0999 V2000
   -0.9014   -1.4984    0.0013 C   0  0  0  0  0  0  0  0  0  0  0  0
    0.2806   -0.7568    0.0005 C   0  0  0  0  0  0  0  0  0  0  0  0
    1.6115   -1.0915    0.0005 N   0  0  0  0  0  0  0  0  0  0  0  0
    2.0971   -2.4483   -0.0023 C   0  0  0  0  0  0  0  0  0  0  0  0
    2.3452    0.0688   -0.0006 C   0  0  0  0  0  0  0  0  0  0  0  0
    3.6792    0.0855   -0.0011 N   0  0  0  0  0  0  0  0  0  0  0  0
    1.5589    1.1255   -0.0028 N   0  0  0  0  0  0  0  0  0  0  0  0
    0.2832    0.6316   -0.0037 C   0  0  0  0  0  0  0  0  0  0  0  0
   -0.8513    1.3688   -0.0099 N   0  0  0  0  0  0  0  0  0  0  0  0
   -1.9924    0.6322   -0.0102 C   0  0  0  0  0  0  0  0  0  0  0  0
   -2.0922   -0.7667   -0.0074 C   0  0  0  0  0  0  0  0  0  0  0  0
   -3.3945   -1.4425    0.0119 C   0  0  0  0  0  0  0  0  0  0  0  0
   -3.7816   -2.2169    1.1172 C   0  0  0  0  0  0  0  0  0  0  0  0
   -5.0779   -2.7252    1.2099 C   0  0  0  0  0  0  0  0  0  0  0  0
   -5.9285   -2.6356    0.1177 C   0  0  0  0  0  0  0  0  0  0  0  0
   -7.1417   -3.2490    0.2096 O   0  0  0  0  0  0  0  0  0  0  0  0
   -5.5380   -1.9580   -1.0308 C   0  0  0  0  0  0  0  0  0  0  0  0
   -4.2986   -1.3096   -1.0550 C   0  0  0  0  0  0  0  0  0  0  0  0
  1  2  2  0
  2  3  1  0
  3  5  1  0
  3  4  1  0
  5  6  1  0
  7  5  2  0
  8  2  1  0
  8  7  1  0
  9  8  2  0
 10  9  1  0
 10 11  2  0
 11  1  1  0
 12 11  1  0
 12 18  1  0
 13 12  2  0
 14 13  1  0
 14 15  2  0
 15 17  1  0
 16 15  1  0
 17 18  2  0
M  END
>  <DRUGBANK_ID>  (1) 
DB06898

>  <COMMON_NAME>  (1) 
4-(2-amino-1-methyl-1H-imidazo[4,5-b]pyridin-6-yl)phenol

>  <UNII>  (1) 
YL9NJ9QS6V

$$$$
