
     RDKit          3D

 25 25  0  0  1  0  0  0  0  0999 V2000
   -0.4891    0.4107    1.5929 O   0  0  0  0  0  0  0  0  0  0  0  0
    1.1562   -3.8628    0.3935 O   0  0  0  0  0  0  0  0  0  0  0  0
    6.0657   -0.6550    2.9691 O   0  0  0  0  0  0  0  0  0  0  0  0
    1.4366   -9.7249    4.0677 O   0  0  0  0  0  0  0  0  0  0  0  0
    0.7504   -8.0145    2.8065 O   0  0  0  0  0  0  0  0  0  0  0  0
    1.6033   -0.7266    2.1195 C   0  0  2  0  0  0  0  0  0  0  0  0
    2.1393   -2.1286    1.7247 C   0  0  2  0  0  0  0  0  0  0  0  0
    0.4843   -0.4992    1.0977 C   0  0  1  0  0  0  0  0  0  0  0  0
   -0.1437   -1.8844    0.8728 C   0  0  0  0  0  0  0  0  0  0  0  0
    1.0487   -2.7701    0.9401 C   0  0  0  0  0  0  0  0  0  0  0  0
    2.6176   -2.8263    2.9917 C   0  0  0  0  0  0  0  0  0  0  0  0
    2.7501    0.2775    2.1765 C   0  0  0  0  0  0  0  0  0  0  0  0
    3.9785   -0.2527    2.1475 C   0  0  0  0  0  0  0  0  0  0  0  0
    1.4769   -3.5018    3.6444 C   0  0  0  0  0  0  0  0  0  0  0  0
    5.3776    0.1238    1.9927 C   0  0  2  0  0  0  0  0  0  0  0  0
    5.7537   -0.3626    0.5725 C   0  0  0  0  0  0  0  0  0  0  0  0
    4.9576    0.3759   -0.5222 C   0  0  0  0  0  0  0  0  0  0  0  0
    1.3930   -4.8288    3.6756 C   0  0  0  0  0  0  0  0  0  0  0  0
    5.0782    1.8921   -0.3459 C   0  0  0  0  0  0  0  0  0  0  0  0
    2.4975   -5.7484    3.2349 C   0  0  0  0  0  0  0  0  0  0  0  0
    6.5421    2.3355   -0.3472 C   0  0  0  0  0  0  0  0  0  0  0  0
    2.9453   -6.6083    4.4060 C   0  0  0  0  0  0  0  0  0  0  0  0
    1.8282   -7.5075    4.9193 C   0  0  0  0  0  0  0  0  0  0  0  0
    7.1981    2.0034   -1.6764 C   0  0  0  0  0  0  0  0  0  0  0  0
    1.2866   -8.4067    3.8203 C   0  0  0  0  0  0  0  0  0  0  0  0
  2 10  2  0
  4 25  1  0
  5 25  2  0
  6  7  1  0
  6  8  1  0
  6 12  1  6
  7 10  1  0
  7 11  1  1
  8  9  1  0
  8  1  1  1
  9 10  1  0
 11 14  1  0
 12 13  2  0
 13 15  1  0
 14 18  2  0
 15  3  1  1
 15 16  1  0
 16 17  1  0
 17 19  1  0
 18 20  1  0
 19 21  1  0
 20 22  1  0
 21 24  1  0
 22 23  1  0
 23 25  1  0
M  END
>  <DRUGBANK_ID>  (1) 
DB00917

>  <SECONDARY_ACCESSION_NUMBERS>  (1) 
APRD00927

>  <COMMON_NAME>  (1) 
Dinoprostone

>  <CAS_NUMBER>  (1) 
363-24-6

>  <UNII>  (1) 
K7Q1JQR04M

>  <SYNONYMS>  (1) 
(15S)-prostaglandin E2; (5Z,11Î±,13E,15S)-11,15-dihydroxy-9-oxoprosta-5,13-dien-1-oic acid; (5Z,13E)-(15S)-11alpha,15-Dihydroxy-9-oxoprost-13-enoate; (5Z,13E)-(15S)-11alpha,15-Dihydroxy-9-oxoprosta-5,13-dienoate; (E,Z)-(1R,2R,3R)-7-(3-Hydroxy-2-((3S)-(3-hydroxy-1-octenyl))-5-oxocyclopentyl)-5-heptenoic acid; (Z)-7-((1R,2R,3R)-3-hydroxy-2-((S,E)-3-hydroxyoct-1-enyl)-5-oxocyclopentyl)hept-5-enoic acid; Dinoproston; Dinoprostona; Dinoprostone; Dinoprostone Prostaglandin E2; Dinoprostonum; PGE2; Prostaglandin E2

$$$$
