TSP
     RDKit          3D

 21 22  0  0  0  0  0  0  0  0999 V2000
    5.9660    0.4108   -1.3292 P   0  0  0  0  0  0  0  0  0  0  0  0
    7.3023   -0.1291   -1.6851 O   0  0  0  0  0  0  0  0  0  0  0  0
    5.8134    1.9878   -1.1941 O   0  0  0  0  0  0  0  0  0  0  0  0
    5.5294    0.0087    0.1529 O   0  0  0  0  0  0  0  0  0  0  0  0
    4.7695   -0.0446   -2.2684 O   0  0  0  0  0  0  0  0  0  0  0  0
    3.8902    0.8587   -2.9089 C   0  0  0  0  0  0  0  0  0  0  0  0
    2.5712    0.7665   -2.1554 C   0  0  1  0  0  0  0  0  0  0  0  0
    1.6061    1.6838   -2.7027 O   0  0  0  0  0  0  0  0  0  0  0  0
    2.0031   -0.6472   -2.2974 C   0  0  1  0  0  0  0  0  0  0  0  0
    0.9121   -1.0840   -0.8813 S   0  0  0  0  0  0  0  0  0  0  0  0
    1.1886   -0.5051   -3.5686 C   0  0  0  0  0  0  0  0  0  0  0  0
    0.6637    0.9245   -3.4842 C   0  0  2  0  0  0  0  0  0  0  0  0
    0.4396    1.5867   -4.7761 N   0  0  0  0  0  0  0  0  0  0  0  0
    1.4923    1.8113   -5.6479 C   0  0  0  0  0  0  0  0  0  0  0  0
    2.6775    1.5362   -5.4418 O   0  0  0  0  0  0  0  0  0  0  0  0
    1.1865    2.3855   -6.8417 N   0  0  0  0  0  0  0  0  0  0  0  0
    0.0441    3.0747   -7.0986 C   0  0  0  0  0  0  0  0  0  0  0  0
   -0.0597    3.8320   -8.0531 O   0  0  0  0  0  0  0  0  0  0  0  0
   -1.0632    2.8327   -6.1474 C   0  0  0  0  0  0  0  0  0  0  0  0
   -2.3517    3.5188   -6.4439 C   0  0  0  0  0  0  0  0  0  0  0  0
   -0.8294    2.0544   -5.0825 C   0  0  0  0  0  0  0  0  0  0  0  0
  1  2  2  0
  1  3  1  0
  1  4  1  0
  1  5  1  0
  5  6  1  0
  7  8  1  0
  7  9  1  0
  7  6  1  6
  8 12  1  0
  9 11  1  0
  9 10  1  1
 11 12  1  0
 12 13  1  6
 13 14  1  0
 13 21  1  0
 14 15  2  0
 14 16  1  0
 16 17  1  0
 17 18  2  0
 17 19  1  0
 19 20  1  0
 19 21  2  0
M  END
>  <DRUGBANK_ID>  (1) 
DB08651

>  <COMMON_NAME>  (1) 
3'-THIO-THYMIDINE-5'-PHOSPHATE

$$$$
