
     RDKit          3D

 15 16  0  0  0  0  0  0  0  0999 V2000
   -0.6129    1.2391    0.0074 C   0  0  0  0  0  0  0  0  0  0  0  0
   -1.3977   -0.0491    0.0134 C   0  0  0  0  0  0  0  0  0  0  0  0
   -0.6861   -1.1976   -0.0050 C   0  0  0  0  0  0  0  0  0  0  0  0
    0.6906   -1.1582    0.0125 N   0  0  0  0  0  0  0  0  0  0  0  0
    1.3467    0.0281    0.0033 C   0  0  0  0  0  0  0  0  0  0  0  0
    0.7652    1.1838   -0.0006 N   0  0  0  0  0  0  0  0  0  0  0  0
   -1.2084    2.3202    0.0040 O   0  0  0  0  0  0  0  0  0  0  0  0
   -3.2690    0.0946    0.0615 Br  0  0  0  0  0  0  0  0  0  0  0  0
   -1.3508   -2.5182   -0.0200 C   0  0  0  0  0  0  0  0  0  0  0  0
   -2.1810   -2.8749   -1.0948 C   0  0  0  0  0  0  0  0  0  0  0  0
   -2.9215   -4.0563   -1.0649 C   0  0  0  0  0  0  0  0  0  0  0  0
   -2.9417   -4.8256    0.0935 C   0  0  0  0  0  0  0  0  0  0  0  0
   -2.1607   -4.4534    1.1862 C   0  0  0  0  0  0  0  0  0  0  0  0
   -1.2781   -3.3741    1.0851 C   0  0  0  0  0  0  0  0  0  0  0  0
    2.6913   -0.0444    0.0023 N   0  0  0  0  0  0  0  0  0  0  0  0
  1  2  1  0
  1  6  1  0
  1  7  2  0
  2  8  1  0
  2  3  2  0
  3  9  1  0
  3  4  1  0
  4  5  1  0
  5  6  2  0
  5 15  1  0
  9 10  2  0
 10 11  1  0
 11 12  2  0
 12 13  1  0
 13 14  2  0
 14  9  1  0
M  END
>  <DRUGBANK_ID>  (1) 
DB04168

>  <SECONDARY_ACCESSION_NUMBERS>  (1) 
EXPT00347

>  <COMMON_NAME>  (1) 
Bropirimine

>  <CAS_NUMBER>  (1) 
56741-95-8

>  <UNII>  (1) 
J57CTF25XJ

>  <SYNONYMS>  (1) 
Bropirimina; Bropirimine; Bropiriminum

$$$$
