
     RDKit          3D

 36 41  0  0  1  0  0  0  0  0999 V2000
    1.4180   -0.0217    2.4119 C   0  0  0  0  0  0  0  0  0  0  0  0
    0.4356   -0.3717    1.3011 C   0  0  1  0  0  0  0  0  0  0  0  0
    0.2755   -1.9169    1.2346 C   0  0  0  0  0  0  0  0  0  0  0  0
   -0.7070   -2.3166    0.2136 N   0  0  0  0  0  0  0  0  0  0  0  0
   -0.9352   -3.7769    0.2161 C   0  0  0  0  0  0  0  0  0  0  0  0
   -1.4944   -4.3711    1.4917 C   0  0  0  0  0  0  0  0  0  0  0  0
   -2.7679   -4.0095    1.9149 C   0  0  0  0  0  0  0  0  0  0  0  0
   -3.3232   -4.3709    3.1372 C   0  0  0  0  0  0  0  0  0  0  0  0
   -2.6511   -5.3807    3.8379 C   0  0  0  0  0  0  0  0  0  0  0  0
   -1.4679   -5.9609    3.3307 C   0  0  0  0  0  0  0  0  0  0  0  0
   -0.9751   -7.1549    3.9226 N   0  0  0  0  0  0  0  0  0  0  0  0
    0.1825   -7.8374    3.4831 C   0  0  0  0  0  0  0  0  0  0  0  0
    1.2513   -7.0587    3.4483 N   0  0  0  0  0  0  0  0  0  0  0  0
    2.3002   -7.4850    2.7374 C   0  0  0  0  0  0  0  0  0  0  0  0
    2.2989   -8.6611    2.0644 C   0  0  0  0  0  0  0  0  0  0  0  0
    3.6810   -8.8658    1.0462 Cl  0  0  0  0  0  0  0  0  0  0  0  0
    1.3059   -9.5688    2.4559 C   0  0  0  0  0  0  0  0  0  0  0  0
    0.1873   -9.1441    3.1411 N   0  0  0  0  0  0  0  0  0  0  0  0
    1.5986  -11.0709    2.4881 C   0  0  0  0  0  0  0  0  0  0  0  0
    2.3761  -11.5856    3.6076 C   0  0  0  0  0  0  0  0  0  0  0  0
    3.6224  -11.1293    3.1069 N   0  0  0  0  0  0  0  0  0  0  0  0
    3.5770  -11.8496    1.9098 C   0  0  0  0  0  0  0  0  0  0  0  0
    2.2975  -11.7033    1.3759 C   0  0  0  0  0  0  0  0  0  0  0  0
    2.1206  -11.9872   -0.0063 C   0  0  0  0  0  0  0  0  0  0  0  0
    3.1965  -12.6059   -0.6875 C   0  0  0  0  0  0  0  0  0  0  0  0
    4.3823  -12.9191   -0.0092 C   0  0  0  0  0  0  0  0  0  0  0  0
    5.6217  -13.4273   -0.6688 C   0  0  0  0  0  0  0  0  0  0  0  0
    4.5610  -12.6212    1.3350 C   0  0  0  0  0  0  0  0  0  0  0  0
   -0.8300   -5.3244    2.2462 C   0  0  0  0  0  0  0  0  0  0  0  0
   -4.6332   -3.7458    3.5759 C   0  0  0  0  0  0  0  0  0  0  0  0
   -5.7971   -3.8261    2.6111 C   0  0  0  0  0  0  0  0  0  0  0  0
   -5.1857   -2.4896    2.9145 C   0  0  0  0  0  0  0  0  0  0  0  0
   -1.9456   -1.5586    0.4417 C   0  0  0  0  0  0  0  0  0  0  0  0
   -1.8040   -0.0351    0.4731 C   0  0  1  0  0  0  0  0  0  0  0  0
   -3.1927    0.5392    0.7816 C   0  0  0  0  0  0  0  0  0  0  0  0
   -0.8455    0.3343    1.5310 N   0  0  0  0  0  0  0  0  0  0  0  0
  2  3  1  0
  2 36  1  0
  2  1  1  1
  3  4  1  0
  4  5  1  0
  4 33  1  0
  5  6  1  0
  6  7  2  0
  6 29  1  0
  7  8  1  0
  8  9  2  0
  8 30  1  0
  9 10  1  0
 10 11  1  0
 10 29  2  0
 11 12  1  0
 12 13  2  0
 12 18  1  0
 13 14  1  0
 14 15  2  0
 15 16  1  0
 15 17  1  0
 17 18  2  0
 17 19  1  0
 19 20  2  0
 19 23  1  0
 20 21  1  0
 21 22  1  0
 22 23  2  0
 22 28  1  0
 23 24  1  0
 24 25  2  0
 25 26  1  0
 26 27  1  0
 26 28  2  0
 30 31  1  0
 30 32  1  0
 31 32  1  0
 34 33  1  0
 34 36  1  0
 34 35  1  1
M  END
>  <DRUGBANK_ID>  (1) 
DB15343

>  <COMMON_NAME>  (1) 
Tuspetinib

>  <UNII>  (1) 
C0WUS7XXE9

>  <SYNONYMS>  (1) 
2-Pyrimidinamine, 5-chloro-N-(3-cyclopropyl-5-(((3R,5S)-3,5-dimethyl-1-piperazinyl)methyl)phenyl)-4-(6-methyl-1H-indol-3-yl)-, rel-; 5-Chloro-N-(3-cyclopropyl-5-(((3R,5S)-3,5-dimethylpiperazine-1-yl) methyl) phenyl)-4-(6-methyl-1hindol-3-yl) pyrimidin-2-amine

$$$$
