
     RDKit          3D

 41 45  0  0  0  0  0  0  0  0999 V2000
    2.4108   -0.0113   -0.1053 C   0  0  0  0  0  0  0  0  0  0  0  0
    1.7733    1.2216   -0.1185 C   0  0  0  0  0  0  0  0  0  0  0  0
    0.3861    1.2736   -0.1584 C   0  0  0  0  0  0  0  0  0  0  0  0
   -0.3880    0.1043   -0.1863 C   0  0  0  0  0  0  0  0  0  0  0  0
    0.2361   -1.1623   -0.2277 C   0  0  0  0  0  0  0  0  0  0  0  0
    1.6546   -1.1892   -0.1726 C   0  0  0  0  0  0  0  0  0  0  0  0
   -0.4338   -2.5123   -0.1722 C   0  0  0  0  0  0  0  0  0  0  0  0
    0.2598   -3.5352   -0.1065 O   0  0  0  0  0  0  0  0  0  0  0  0
   -1.8921   -2.6982   -0.1588 C   0  0  0  0  0  0  0  0  0  0  0  0
   -2.6373   -2.1529   -1.2105 C   0  0  0  0  0  0  0  0  0  0  0  0
   -4.0206   -2.1179   -1.1189 C   0  0  0  0  0  0  0  0  0  0  0  0
   -4.6100   -2.7218   -0.0207 C   0  0  0  0  0  0  0  0  0  0  0  0
   -3.9203   -3.3347    0.9812 N   0  0  0  0  0  0  0  0  0  0  0  0
   -2.5566   -3.3279    0.9048 C   0  0  0  0  0  0  0  0  0  0  0  0
   -1.8278   -3.8222    2.0765 C   0  0  0  0  0  0  0  0  0  0  0  0
   -1.0737   -3.0212    2.9140 C   0  0  0  0  0  0  0  0  0  0  0  0
   -0.4464   -3.8963    3.7569 N   0  0  0  0  0  0  0  0  0  0  0  0
   -0.7904   -5.1689    3.4705 N   0  0  0  0  0  0  0  0  0  0  0  0
   -1.6658   -5.1328    2.4610 N   0  0  0  0  0  0  0  0  0  0  0  0
    0.5331   -3.5329    4.7697 C   0  0  0  0  0  0  0  0  0  0  0  0
    0.1015   -3.8166    6.1736 C   0  0  0  0  0  0  0  0  0  0  0  0
    0.0190   -5.1481    6.5649 C   0  0  0  0  0  0  0  0  0  0  0  0
   -0.2172   -5.4865    7.8910 C   0  0  0  0  0  0  0  0  0  0  0  0
   -0.3477   -4.4687    8.8429 C   0  0  0  0  0  0  0  0  0  0  0  0
   -0.2135   -3.1210    8.4808 C   0  0  0  0  0  0  0  0  0  0  0  0
   -0.0641   -2.7953    7.1253 C   0  0  0  0  0  0  0  0  0  0  0  0
   -0.0704   -2.0637    9.5497 C   0  0  0  0  0  0  0  0  0  0  0  0
    1.1351   -1.4313    9.4682 F   0  0  0  0  0  0  0  0  0  0  0  0
   -1.0142   -1.0903    9.4801 F   0  0  0  0  0  0  0  0  0  0  0  0
   -0.1320   -2.5688   10.8135 F   0  0  0  0  0  0  0  0  0  0  0  0
   -0.2267   -6.9318    8.2960 C   0  0  0  0  0  0  0  0  0  0  0  0
    0.7547   -7.2043    9.1985 F   0  0  0  0  0  0  0  0  0  0  0  0
   -1.3973   -7.2999    8.8761 F   0  0  0  0  0  0  0  0  0  0  0  0
   -0.0246   -7.7870    7.2570 F   0  0  0  0  0  0  0  0  0  0  0  0
   -0.8611   -1.5998    2.9799 C   0  0  0  0  0  0  0  0  0  0  0  0
   -1.9315   -0.7601    3.2283 C   0  0  0  0  0  0  0  0  0  0  0  0
   -1.6692    0.5913    3.2794 C   0  0  0  0  0  0  0  0  0  0  0  0
   -0.4374    1.1309    3.1232 N   0  0  0  0  0  0  0  0  0  0  0  0
    0.5854    0.2818    2.9087 C   0  0  0  0  0  0  0  0  0  0  0  0
    0.4244   -1.0803    2.8231 C   0  0  0  0  0  0  0  0  0  0  0  0
   -2.0732    0.4483    0.0044 Cl  0  0  0  0  0  0  0  0  0  0  0  0
  1  2  2  0
  1  6  1  0
  2  3  1  0
  3  4  2  0
  4  5  1  0
  4 41  1  0
  5  6  2  0
  5  7  1  0
  7  8  2  0
  7  9  1  0
  9 10  2  0
  9 14  1  0
 10 11  1  0
 11 12  2  0
 12 13  1  0
 13 14  2  0
 14 15  1  0
 15 16  2  0
 15 19  1  0
 16 17  1  0
 16 35  1  0
 17 18  1  0
 17 20  1  0
 18 19  2  0
 20 21  1  0
 21 22  2  0
 21 26  1  0
 22 23  1  0
 23 24  2  0
 23 31  1  0
 24 25  1  0
 25 26  2  0
 25 27  1  0
 27 28  1  0
 27 29  1  0
 27 30  1  0
 31 32  1  0
 31 33  1  0
 31 34  1  0
 35 36  2  0
 35 40  1  0
 36 37  1  0
 37 38  2  0
 38 39  1  0
 39 40  2  0
M  END
>  <DRUGBANK_ID>  (1) 
DB12580

>  <COMMON_NAME>  (1) 
Tradipitant

>  <CAS_NUMBER>  (1) 
622370-35-8

>  <UNII>  (1) 
NY0COC51FI

>  <SYNONYMS>  (1) 
Tradipitant

$$$$
