
     RDKit          3D

 15 15  0  0  0  0  0  0  0  0999 V2000
    0.0669   -2.3249    0.0019 C   0  0  0  0  0  0  0  0  0  0  0  0
    1.3120   -1.6722    0.0072 C   0  0  0  0  0  0  0  0  0  0  0  0
    1.4090   -0.2872    0.0073 C   0  0  0  0  0  0  0  0  0  0  0  0
    0.2318    0.4289    0.0069 C   0  0  0  0  0  0  0  0  0  0  0  0
   -1.0477   -0.2373    0.0029 C   0  0  0  0  0  0  0  0  0  0  0  0
   -1.1186   -1.6121   -0.0011 C   0  0  0  0  0  0  0  0  0  0  0  0
   -2.6292    0.5278    0.0048 Cl  0  0  0  0  0  0  0  0  0  0  0  0
    0.1837    1.8739   -0.0052 C   0  0  0  0  0  0  0  0  0  0  0  0
    1.0487    2.8474    0.0229 N   0  0  0  0  0  0  0  0  0  0  0  0
    0.7858    4.2509    0.0080 N   0  0  0  0  0  0  0  0  0  0  0  0
   -0.2314    5.2364   -0.0013 C   0  0  0  0  0  0  0  0  0  0  0  0
   -0.0028    6.5135    0.0042 N   0  0  0  0  0  0  0  0  0  0  0  0
   -1.5650    4.9477   -0.0174 N   0  0  0  0  0  0  0  0  0  0  0  0
   -1.9050    3.6624   -0.0206 O   0  0  0  0  0  0  0  0  0  0  0  0
    2.9710    0.4368    0.0035 Cl  0  0  0  0  0  0  0  0  0  0  0  0
  1  2  2  0
  1  6  1  0
  2  3  1  0
  3  4  2  0
  3 15  1  0
  4  5  1  0
  4  8  1  0
  5  6  2  0
  5  7  1  0
  8  9  2  0
  9 10  1  0
 10 11  1  0
 11 12  2  0
 11 13  1  0
 13 14  1  0
M  END
>  <DRUGBANK_ID>  (1) 
DB13410

>  <COMMON_NAME>  (1) 
Guanoxabenz

>  <CAS_NUMBER>  (1) 
24047-25-4

>  <UNII>  (1) 
P9HIK5V7WK

>  <SYNONYMS>  (1) 
Guanoxabenz

$$$$
