
     RDKit          3D

 22 23  0  0  0  0  0  0  0  0999 V2000
    0.4832   -2.8347    2.4674 C   0  0  0  0  0  0  0  0  0  0  0  0
   -0.0669   -3.6019    3.5007 C   0  0  0  0  0  0  0  0  0  0  0  0
    0.0670   -4.9849    3.4815 C   0  0  0  0  0  0  0  0  0  0  0  0
    0.6976   -5.6041    2.4030 C   0  0  0  0  0  0  0  0  0  0  0  0
    1.1895   -4.8495    1.3319 C   0  0  0  0  0  0  0  0  0  0  0  0
    1.0363   -3.4554    1.3136 C   0  0  0  0  0  0  0  0  0  0  0  0
    0.2503   -1.5102   -0.0719 O   0  0  0  0  0  0  0  0  0  0  0  0
   -1.0808   -1.8267    0.1499 C   0  0  0  0  0  0  0  0  0  0  0  0
   -1.4954   -3.1575    0.3309 C   0  0  0  0  0  0  0  0  0  0  0  0
   -1.9553   -0.8030    0.4055 C   0  0  0  0  0  0  0  0  0  0  0  0
   -3.1865   -1.1249    1.0003 C   0  0  0  0  0  0  0  0  0  0  0  0
   -2.6156   -3.4683    1.0505 C   0  0  0  0  0  0  0  0  0  0  0  0
    1.1368   -2.6719   -0.0379 C   0  0  2  0  0  0  0  0  0  0  0  0
    0.8361   -3.4151   -1.3971 C   0  0  0  0  0  0  0  0  0  0  0  0
    1.2083   -2.5792   -2.6061 C   0  0  0  0  0  0  0  0  0  0  0  0
    3.0637   -1.7385   -3.8158 C   0  0  0  0  0  0  0  0  0  0  0  0
    2.6560   -2.5035   -2.6577 N   0  0  0  0  0  0  0  0  0  0  0  0
   -3.4892   -2.4671    1.3403 C   0  0  0  0  0  0  0  0  0  0  0  0
   -5.1686   -2.2891    3.0247 F   0  0  0  0  0  0  0  0  0  0  0  0
   -5.7960   -2.7117    0.9731 F   0  0  0  0  0  0  0  0  0  0  0  0
   -4.8087   -2.9153    1.8815 C   0  0  0  0  0  0  0  0  0  0  0  0
   -4.8356   -4.2544    2.1584 F   0  0  0  0  0  0  0  0  0  0  0  0
  1  2  2  0
  2  3  1  0
  3  4  2  0
  4  5  1  0
  6  1  1  0
  6  5  2  0
  7  8  1  0
  8 10  1  0
  9  8  2  0
  9 12  1  0
 10 11  2  0
 11 18  1  0
 13 14  1  6
 13  7  1  0
 13  6  1  0
 14 15  1  0
 15 17  1  0
 17 16  1  0
 18 12  2  0
 18 21  1  0
 21 19  1  0
 21 20  1  0
 21 22  1  0
M  END
>  <DRUGBANK_ID>  (1) 
DB08472

>  <COMMON_NAME>  (1) 
(R)-Fluoxetine

>  <CAS_NUMBER>  (1) 
100568-03-4

>  <UNII>  (1) 
F279341RUQ

>  <SYNONYMS>  (1) 
(+)-fluoxetine; (R)-(+)-fluoxetine; (R)-N-methyl-3-(4-trifluoromethylphenoxy)-3-phenylpropylamine; (R)-N-methyl-3-(4-trifluoromethylphenyloxy)-3-(phenyl)propylamine; (R)-N-methyl-3-phenyl-3-[(α,α,α-trifluoro-p-tolyl)oxy]propylamine; (R)-N-methyl-γ-(4-trifluoromethylphenoxy)-3-phenylpropylamine; (R)-Prozac

$$$$
