
     RDKit          3D

  9  9  0  0  0  0  0  0  0  0999 V2000
   -2.6008   -0.3548   -0.0157 C   0  0  0  0  0  0  0  0  0  0  0  0
   -1.1331   -0.1236    0.0046 C   0  0  0  0  0  0  0  0  0  0  0  0
   -0.1315   -1.0812    0.0384 C   0  0  0  0  0  0  0  0  0  0  0  0
   -0.2432   -2.5816    0.0384 C   0  0  0  0  0  0  0  0  0  0  0  0
    0.3194   -3.2196   -1.2323 C   0  0  0  0  0  0  0  0  0  0  0  0
    1.7315   -3.0699   -1.3227 O   0  0  0  0  0  0  0  0  0  0  0  0
    1.4018   -0.3005    0.1252 S   0  0  0  0  0  0  0  0  0  0  0  0
    0.6245    1.2176    0.0298 C   0  0  0  0  0  0  0  0  0  0  0  0
   -0.6843    1.1905   -0.0154 N   0  0  0  0  0  0  0  0  0  0  0  0
  1  2  1  0
  2  3  2  0
  2  9  1  0
  3  4  1  0
  3  7  1  0
  4  5  1  0
  5  6  1  0
  7  8  1  0
  8  9  2  0
M  END
>  <DRUGBANK_ID>  (1) 
DB02969

>  <SECONDARY_ACCESSION_NUMBERS>  (1) 
EXPT03151

>  <COMMON_NAME>  (1) 
5-(2-hydroxyethyl)-4-methylthiazole

>  <CAS_NUMBER>  (1) 
137-00-8

>  <UNII>  (1) 
3XYV4I47I8

>  <SYNONYMS>  (1) 
4-Methyl-5-(2-hydroxyethyl)thiazole; 4-Methyl-5-hydroxethylthiazole; 4-Methyl-5-thiazoleethanol; 4-Methyl-5-thiazolethanol; Hemineurine; Sulfurol

$$$$
