I0G
     RDKit          3D

 21 24  0  0  0  0  0  0  0  0999 V2000
    0.9934    0.5975    0.8647 C   0  0  1  0  0  0  0  0  0  0  0  0
   -0.4383    0.3759    0.4619 C   0  0  0  0  0  0  0  0  0  0  0  0
   -1.3501    1.4415    0.5236 C   0  0  0  0  0  0  0  0  0  0  0  0
   -2.6506    1.2818    0.0693 C   0  0  0  0  0  0  0  0  0  0  0  0
   -3.0754    0.0608   -0.4360 C   0  0  0  0  0  0  0  0  0  0  0  0
    3.2636   -3.2817    1.0564 C   0  0  0  0  0  0  0  0  0  0  0  0
    2.6112   -5.0058   -1.0385 C   0  0  0  0  0  0  0  0  0  0  0  0
    1.7183   -4.0040   -0.6474 C   0  0  0  0  0  0  0  0  0  0  0  0
    2.3651    1.1724   -1.0910 C   0  0  0  0  0  0  0  0  0  0  0  0
    2.2777   -0.3397   -0.9544 C   0  0  0  0  0  0  0  0  0  0  0  0
    1.8795   -0.5958    0.5058 C   0  0  2  0  0  0  0  0  0  0  0  0
   -3.4692    2.3693    0.1287 O   0  0  0  0  0  0  0  0  0  0  0  0
   -2.1830   -1.0156   -0.4674 C   0  0  0  0  0  0  0  0  0  0  0  0
   -0.8771   -0.8678    0.0066 C   0  0  0  0  0  0  0  0  0  0  0  0
   -0.0775   -1.9765   -0.0587 O   0  0  0  0  0  0  0  0  0  0  0  0
    1.1320   -1.9216    0.7252 C   0  0  1  0  0  0  0  0  0  0  0  0
    2.0383   -3.1074    0.3828 C   0  0  0  0  0  0  0  0  0  0  0  0
    4.1901   -4.2285    0.6109 C   0  0  0  0  0  0  0  0  0  0  0  0
    3.8643   -5.0713   -0.4388 C   0  0  0  0  0  0  0  0  0  0  0  0
    4.8103   -5.9535   -0.8711 O   0  0  0  0  0  0  0  0  0  0  0  0
    1.6386    1.7688    0.1109 C   0  0  0  0  0  0  0  0  0  0  0  0
  1 21  1  6
  1  2  1  0
  1 11  1  0
  2  3  2  0
  2 14  1  0
  3  4  1  0
  4 12  1  0
  4  5  2  0
  5 13  1  0
  6 17  2  0
  6 18  1  0
  7  8  2  0
  7 19  1  0
  8 17  1  0
  9 21  1  0
  9 10  1  0
 11 10  1  6
 11 16  1  0
 13 14  2  0
 14 15  1  0
 15 16  1  0
 16 17  1  6
 18 19  2  0
 19 20  1  0
M  END
>  <DRUGBANK_ID>  (1) 
DB07933

>  <SECONDARY_ACCESSION_NUMBERS>  (1) 
DB12801

>  <COMMON_NAME>  (1) 
Erteberel

>  <CAS_NUMBER>  (1) 
533884-09-2

>  <UNII>  (1) 
2ZUL6758TZ

>  <SYNONYMS>  (1) 
(3aS,4R,9bR)-4-(4-Hydroxyphenyl)-1,2,3,3a,4,9b-hexahydrocyclopenta(c)(1) benzopyran-8-ol; Erteberel

$$$$
