
     RDKit          3D

 28 31  0  0  0  0  0  0  0  0999 V2000
    1.5775    0.2476   -0.9432 C   0  0  0  0  0  0  0  0  0  0  0  0
    1.8228    0.7632   -2.1902 C   0  0  0  0  0  0  0  0  0  0  0  0
    3.1740   -1.3064   -2.4047 C   0  0  0  0  0  0  0  0  0  0  0  0
    2.4870   -1.9540   -1.4313 C   0  0  0  0  0  0  0  0  0  0  0  0
    2.0270   -3.3871   -1.3979 C   0  0  0  0  0  0  0  0  0  0  0  0
    2.2664   -3.9621   -0.0233 C   0  0  0  0  0  0  0  0  0  0  0  0
    1.4831   -1.6414    3.6302 C   0  0  0  0  0  0  0  0  0  0  0  0
    3.6184   -3.4675    2.8248 C   0  0  0  0  0  0  0  0  0  0  0  0
    3.2260    0.2275   -2.1760 C   0  0  0  0  0  0  0  0  0  0  0  0
    4.0943    0.9622   -1.7201 O   0  0  0  0  0  0  0  0  0  0  0  0
    2.4553   -4.6914    4.3924 C   0  0  2  0  0  0  0  0  0  0  0  0
    2.7658   -5.3639    5.6820 O   0  0  0  0  0  0  0  0  0  0  0  0
    3.7155   -3.9064    4.2842 C   0  0  2  0  0  0  0  0  0  0  0  0
    3.3509   -2.9838    5.5379 C   0  0  0  0  0  0  0  0  0  0  0  0
    2.2169   -1.0358   -0.2595 C   0  0  1  0  0  0  0  0  0  0  0  0
    3.7509   -0.7950    0.2550 C   0  0  0  0  0  0  0  0  0  0  0  0
    1.3475   -3.3175    3.6690 C   0  0  1  0  0  0  0  0  0  0  0  0
   -0.2877   -3.2593    3.5986 C   0  0  0  0  0  0  0  0  0  0  0  0
    2.0788   -3.7213    2.3756 C   0  0  1  0  0  0  0  0  0  0  0  0
    1.6153   -1.7079    1.0486 C   0  0  1  0  0  0  0  0  0  0  0  0
    2.8165   -1.7399    1.7480 F   0  0  0  0  0  0  0  0  0  0  0  0
    0.9930   -0.9296    2.2256 C   0  0  1  0  0  0  0  0  0  0  0  0
   -0.3774   -0.6001    2.1712 O   0  0  0  0  0  0  0  0  0  0  0  0
    1.7860   -6.0634    4.0509 C   0  0  0  0  0  0  0  0  0  0  0  0
    2.3185   -7.2225    4.1465 O   0  0  0  0  0  0  0  0  0  0  0  0
    1.4571   -3.2240    1.0515 C   0  0  1  0  0  0  0  0  0  0  0  0
    0.3281   -5.9123    3.9838 C   0  0  0  0  0  0  0  0  0  0  0  0
   -0.2093   -5.8263    2.6794 O   0  0  0  0  0  0  0  0  0  0  0  0
  1  2  2  0
  1 15  1  0
  2  9  1  0
  3  4  2  0
  4  5  1  0
  5  6  1  0
 26  6  1  6
  7 22  1  0
  7 17  1  0
  8 13  1  0
  9  3  1  0
  9 10  2  0
 11 17  1  0
 11 13  1  0
 11 12  1  1
 11 24  1  0
 13 14  1  1
 15  4  1  0
 15 16  1  1
 17 19  1  0
 17 18  1  6
 19  8  1  1
 20 15  1  0
 20 26  1  0
 20 21  1  1
 22 20  1  0
 22 23  1  6
 24 27  1  0
 24 25  2  0
 26 19  1  0
 27 28  1  0
M  END
>  <DRUGBANK_ID>  (1) 
DB01234

>  <SECONDARY_ACCESSION_NUMBERS>  (1) 
APRD00674

>  <COMMON_NAME>  (1) 
Dexamethasone

>  <CAS_NUMBER>  (1) 
50-02-2

>  <UNII>  (1) 
7S5I7G3JQL

>  <SYNONYMS>  (1) 
1-Dehydro-16alpha-methyl-9alpha-fluorohydrocortisone; 1-Dehydro-16α-methyl-9α-fluorohydrocortisone; 16alpha-Methyl-9alpha-fluoro-1-dehydrocortisol; 16α-Methyl-9α-fluoro-1-dehydrocortisol; 9alpha-Fluoro-16alpha-methylprednisolone; 9α-Fluoro-16α-methylprednisolone; Dexametasona; Dexaméthasone; Dexamethasone; Dexamethasonum

$$$$
