
     RDKit          3D

 19 22  0  0  0  0  0  0  0  0999 V2000
   -0.4144   -1.5303   -1.0515 N   0  0  0  0  0  0  0  0  0  0  0  0
    1.0875   -1.4645   -0.9555 C   0  0  0  0  0  0  0  0  0  0  0  0
    1.7453   -0.4879    0.0129 C   0  0  0  0  0  0  0  0  0  0  0  0
    1.4578    0.7993   -0.1450 N   0  0  0  0  0  0  0  0  0  0  0  0
   -1.2704   -0.7076   -0.4232 C   0  0  0  0  0  0  0  0  0  0  0  0
   -0.9875    0.6893   -0.3450 C   0  0  0  0  0  0  0  0  0  0  0  0
    0.2931    1.2258   -0.9196 C   0  0  0  0  0  0  0  0  0  0  0  0
   -0.8315   -2.6375   -1.9100 C   0  0  0  0  0  0  0  0  0  0  0  0
    2.1115   -1.7721   -2.5719 C   0  0  0  0  0  0  0  0  0  0  0  0
    1.9510   -3.1836   -2.2969 N   0  0  0  0  0  0  0  0  0  0  0  0
    2.6009    1.5205    0.0321 C   0  0  0  0  0  0  0  0  0  0  0  0
    2.8667   -0.5567    0.8817 C   0  0  0  0  0  0  0  0  0  0  0  0
    3.5127    0.6907    0.6616 C   0  0  0  0  0  0  0  0  0  0  0  0
    0.3410   -2.7501   -2.8540 C   0  0  0  0  0  0  0  0  0  0  0  0
   -1.9169    1.5940    0.1281 C   0  0  0  0  0  0  0  0  0  0  0  0
   -2.5395   -1.1075    0.0968 C   0  0  0  0  0  0  0  0  0  0  0  0
    2.9819   -2.7530   -1.0499 C   0  0  0  0  0  0  0  0  0  0  0  0
   -3.1691    1.1839    0.5763 C   0  0  0  0  0  0  0  0  0  0  0  0
   -3.4588   -0.1818    0.5700 C   0  0  0  0  0  0  0  0  0  0  0  0
  2  1  1  0
  3  2  1  0
  4  3  1  0
  4  7  1  0
  5  1  1  0
  6  5  2  0
  7  6  1  0
  8  1  1  0
  9  2  1  0
 10  9  1  0
 10 14  1  0
 11  4  1  0
 11 13  2  0
 12  3  2  0
 13 12  1  0
 14  8  1  0
 15  6  1  0
 16  5  1  0
 17 10  1  0
 18 15  2  0
 19 16  2  0
 19 18  1  0
M  END
>  <DRUGBANK_ID>  (1) 
DB09305

>  <COMMON_NAME>  (1) 
Aptazapine

>  <CAS_NUMBER>  (1) 
71576-40-4

>  <UNII>  (1) 
240J927J1R

>  <SYNONYMS>  (1) 
Aptazapine

$$$$
