
     RDKit          3D

 21 21  0  0  0  0  0  0  0  0999 V2000
   -1.0259    0.7977    2.4744 O   0  0  0  0  0  0  0  0  0  0  0  0
    0.6377    1.1773    4.9941 O   0  0  0  0  0  0  0  0  0  0  0  0
    0.7995   -0.7325    1.0849 O   0  0  0  0  0  0  0  0  0  0  0  0
    1.3447   -2.5486    3.2266 O   0  0  0  0  0  0  0  0  0  0  0  0
    3.1731    8.0317    4.7706 O   0  0  0  0  0  0  0  0  0  0  0  0
   -0.0764    7.9994    1.6689 O   0  0  0  0  0  0  0  0  0  0  0  0
    4.0931    4.0980    4.1053 O   0  0  0  0  0  0  0  0  0  0  0  0
    4.2222    5.7619    5.4827 O   0  0  0  0  0  0  0  0  0  0  0  0
    1.6299    3.8987    2.7329 N   0  0  0  0  0  0  0  0  0  0  0  0
    0.9069    6.0257    2.2156 N   0  0  0  0  0  0  0  0  0  0  0  0
    1.5664    7.9850    3.2232 N   0  0  0  0  0  0  0  0  0  0  0  0
    3.7059    5.2020    4.5087 N   0  0  0  0  0  0  0  0  0  0  0  0
    0.3884    1.0916    2.5378 C   0  0  1  0  0  0  0  0  0  0  0  0
    0.5536    1.9509    3.7975 C   0  0  2  0  0  0  0  0  0  0  0  0
    1.1551   -0.2459    2.4007 C   0  0  1  0  0  0  0  0  0  0  0  0
    1.7600    2.8653    3.7550 C   0  0  0  0  0  0  0  0  0  0  0  0
    0.7763   -1.2725    3.4872 C   0  0  0  0  0  0  0  0  0  0  0  0
    1.7887    5.2530    2.9463 C   0  0  0  0  0  0  0  0  0  0  0  0
    2.6306    5.8922    3.8019 C   0  0  0  0  0  0  0  0  0  0  0  0
    2.5084    7.3546    3.9862 C   0  0  0  0  0  0  0  0  0  0  0  0
    0.7485    7.3771    2.3229 C   0  0  0  0  0  0  0  0  0  0  0  0
  4 17  1  0
  5 20  2  0
  6 21  2  0
  7 12  1  0
  8 12  2  0
  9 16  1  0
  9 18  1  0
 10 18  1  0
 10 21  1  0
 11 20  1  0
 11 21  1  0
 12 19  1  0
 13  1  1  1
 13 14  1  0
 14  2  1  1
 14 16  1  0
 15 17  1  0
 15 13  1  0
 15  3  1  6
 18 19  2  0
 19 20  1  0
M  CHG  2   7  -1  12   1
M  END
>  <DRUGBANK_ID>  (1) 
DB04162

>  <SECONDARY_ACCESSION_NUMBERS>  (1) 
EXPT01887

>  <COMMON_NAME>  (1) 
5-Nitro-6-ribityl-amino-2,4(1H,3H)-pyrimidinedione

$$$$
