
     RDKit          3D

 39 43  0  0  0  0  0  0  0  0999 V2000
    1.5782    0.2535   -0.2132 C   0  0  0  0  0  0  0  0  0  0  0  0
    0.9343    1.5511    0.0083 N   0  0  0  0  0  0  0  0  0  0  0  0
   -0.1600    2.0945   -0.6409 C   0  0  0  0  0  0  0  0  0  0  0  0
   -0.6376    3.1576   -0.2502 O   0  0  0  0  0  0  0  0  0  0  0  0
   -0.7783    1.4281   -1.8137 C   0  0  0  0  0  0  0  0  0  0  0  0
   -0.9680    2.2570   -2.9138 C   0  0  0  0  0  0  0  0  0  0  0  0
   -1.2908    1.8165   -4.2199 C   0  0  0  0  0  0  0  0  0  0  0  0
   -1.2857    2.6176   -5.3997 C   0  0  0  0  0  0  0  0  0  0  0  0
   -0.8850    3.9350   -5.5336 O   0  0  0  0  0  0  0  0  0  0  0  0
   -0.2283    4.5732   -4.5219 C   0  0  0  0  0  0  0  0  0  0  0  0
    0.9814    4.1497   -3.9407 C   0  0  0  0  0  0  0  0  0  0  0  0
    1.5099    4.7826   -2.7860 C   0  0  0  0  0  0  0  0  0  0  0  0
    0.8855    5.9068   -2.2692 C   0  0  0  0  0  0  0  0  0  0  0  0
    1.4576    6.6547   -1.2096 N   0  0  0  0  0  0  0  0  0  0  0  0
    1.0967    7.8968   -0.6708 C   0  0  0  0  0  0  0  0  0  0  0  0
    1.7336    8.4225    0.2132 O   0  0  0  0  0  0  0  0  0  0  0  0
   -0.2068    8.5258   -1.1232 C   0  0  0  0  0  0  0  0  0  0  0  0
   -0.1944    9.0347   -2.6103 C   0  0  0  0  0  0  0  0  0  0  0  0
   -0.2207   10.0164   -1.5082 C   0  0  0  0  0  0  0  0  0  0  0  0
   -1.3233    7.8320   -0.3143 C   0  0  0  0  0  0  0  0  0  0  0  0
   -0.9902    7.0588    0.5926 O   0  0  0  0  0  0  0  0  0  0  0  0
   -2.6820    7.9190   -0.4611 N   0  0  0  0  0  0  0  0  0  0  0  0
   -3.4147    8.6860   -1.3349 C   0  0  0  0  0  0  0  0  0  0  0  0
   -3.1897    8.5875   -2.6954 C   0  0  0  0  0  0  0  0  0  0  0  0
   -3.7269    9.5048   -3.5735 C   0  0  0  0  0  0  0  0  0  0  0  0
   -4.6765   10.3792   -3.0897 C   0  0  0  0  0  0  0  0  0  0  0  0
   -5.2322   11.2575   -3.9292 F   0  0  0  0  0  0  0  0  0  0  0  0
   -5.0792   10.3376   -1.7545 C   0  0  0  0  0  0  0  0  0  0  0  0
   -4.4129    9.5138   -0.8512 C   0  0  0  0  0  0  0  0  0  0  0  0
   -0.3283    6.2318   -2.8607 C   0  0  0  0  0  0  0  0  0  0  0  0
   -0.8917    5.6344   -3.9721 C   0  0  0  0  0  0  0  0  0  0  0  0
   -1.7159    2.0787   -6.6109 C   0  0  0  0  0  0  0  0  0  0  0  0
   -2.0812    0.7529   -6.6277 C   0  0  0  0  0  0  0  0  0  0  0  0
   -2.0289   -0.0525   -5.5408 N   0  0  0  0  0  0  0  0  0  0  0  0
   -1.6395    0.4668   -4.3552 C   0  0  0  0  0  0  0  0  0  0  0  0
   -1.6111   -0.3361   -3.2006 C   0  0  0  0  0  0  0  0  0  0  0  0
   -1.2171    0.1255   -1.9196 C   0  0  0  0  0  0  0  0  0  0  0  0
   -1.3432   -0.7833   -0.9017 O   0  0  0  0  0  0  0  0  0  0  0  0
   -1.3825   -0.3034    0.4417 C   0  0  0  0  0  0  0  0  0  0  0  0
  1  2  1  0
  2  3  1  0
  3  4  2  0
  3  5  1  0
  5  6  2  0
  5 37  1  0
  6  7  1  0
  7  8  2  0
  7 35  1  0
  8  9  1  0
  8 32  1  0
  9 10  1  0
 10 11  2  0
 10 31  1  0
 11 12  1  0
 12 13  2  0
 13 14  1  0
 13 30  1  0
 14 15  1  0
 15 16  2  0
 15 17  1  0
 17 18  1  0
 17 19  1  0
 17 20  1  0
 18 19  1  0
 20 21  2  0
 20 22  1  0
 22 23  1  0
 23 24  2  0
 23 29  1  0
 24 25  1  0
 25 26  2  0
 26 27  1  0
 26 28  1  0
 28 29  2  0
 30 31  2  0
 32 33  2  0
 33 34  1  0
 34 35  2  0
 35 36  1  0
 36 37  2  0
 37 38  1  0
 38 39  1  0
M  END
>  <DRUGBANK_ID>  (1) 
DB17525

>  <COMMON_NAME>  (1) 
Zanzalintinib

>  <CAS_NUMBER>  (1) 
2367004-54-2

>  <UNII>  (1) 
KC2JC2ZA04

>  <SYNONYMS>  (1) 
XL092

$$$$
