
     RDKit          3D

 27 31  0  0  1  0  0  0  0  0999 V2000
    1.2501   -0.2130    0.3507 C   0  0  0  0  0  0  0  0  0  0  0  0
    0.4081   -1.2930    0.1335 C   0  0  0  0  0  0  0  0  0  0  0  0
   -0.9492   -1.0697   -0.0051 C   0  0  0  0  0  0  0  0  0  0  0  0
   -1.4102    0.2573   -0.0181 C   0  0  0  0  0  0  0  0  0  0  0  0
   -0.5089    1.3414    0.0277 C   0  0  0  0  0  0  0  0  0  0  0  0
    0.8673    1.1139    0.1211 C   0  0  0  0  0  0  0  0  0  0  0  0
    1.8611    2.2558   -0.1275 C   0  0  0  0  0  0  0  0  0  0  0  0
    1.4217    3.3886   -0.3307 O   0  0  0  0  0  0  0  0  0  0  0  0
    3.2582    2.0440   -0.1909 N   0  0  0  0  0  0  0  0  0  0  0  0
    3.7770    0.7751   -0.3806 N   0  0  0  0  0  0  0  0  0  0  0  0
    3.2530    0.0494   -1.4172 C   0  0  0  0  0  0  0  0  0  0  0  0
    2.4790    0.3224   -2.2739 O   0  0  0  0  0  0  0  0  0  0  0  0
    4.0282   -1.1846   -1.3605 C   0  0  1  0  0  0  0  0  0  0  0  0
    4.9705   -0.9272   -2.5980 C   0  0  1  0  0  0  0  0  0  0  0  0
    6.7231   -0.8923   -2.2305 C   0  0  0  0  0  0  0  0  0  0  0  0
    7.1021   -1.6863   -1.1984 C   0  0  0  0  0  0  0  0  0  0  0  0
    5.8744   -2.4406   -0.9603 C   0  0  1  0  0  0  0  0  0  0  0  0
    4.9474   -1.3100   -0.2318 C   0  0  1  0  0  0  0  0  0  0  0  0
    5.0401    0.2741   -0.0500 C   0  0  0  0  0  0  0  0  0  0  0  0
    6.0271    0.9403    0.2262 O   0  0  0  0  0  0  0  0  0  0  0  0
    5.6004   -2.8779   -2.7184 C   0  0  2  0  0  0  0  0  0  0  0  0
    4.4637   -2.1733   -3.3291 C   0  0  1  0  0  0  0  0  0  0  0  0
    4.7551   -3.7652   -3.4420 C   0  0  0  0  0  0  0  0  0  0  0  0
   -1.8773   -2.2518    0.0239 C   0  0  0  0  0  0  0  0  0  0  0  0
   -2.6685   -2.2343    1.1301 F   0  0  0  0  0  0  0  0  0  0  0  0
   -2.7038   -2.3181   -1.0493 F   0  0  0  0  0  0  0  0  0  0  0  0
   -1.2166   -3.4465    0.0666 F   0  0  0  0  0  0  0  0  0  0  0  0
  1  2  2  0
  1  6  1  0
  2  3  1  0
  3  4  2  0
  3 24  1  0
  4  5  1  0
  5  6  2  0
  6  7  1  0
  7  8  2  0
  7  9  1  0
  9 10  1  0
 10 11  1  0
 10 19  1  0
 11 12  2  0
 13 11  1  1
 13 14  1  0
 13 18  1  0
 14 15  1  1
 14 22  1  0
 15 16  2  0
 17 16  1  6
 17 18  1  0
 17 21  1  0
 18 19  1  6
 19 20  2  0
 21 22  1  0
 21 23  1  1
 22 23  1  1
 24 25  1  0
 24 26  1  0
 24 27  1  0
M  END
>  <DRUGBANK_ID>  (1) 
DB12020

>  <SECONDARY_ACCESSION_NUMBERS>  (1) 
DB06000

>  <COMMON_NAME>  (1) 
Tecovirimat

>  <CAS_NUMBER>  (1) 
869572-92-9

>  <UNII>  (1) 
F925RR824R

>  <SYNONYMS>  (1) 
ST-246; Tecovirimat

$$$$
