5CB
     RDKit          3D

 32 35  0  0  0  0  0  0  0  0999 V2000
    0.9764    0.0201   -0.0506 O   0  0  0  0  0  0  0  0  0  0  0  0
    5.7488   -4.3550   -0.5550 Cl  0  0  0  0  0  0  0  0  0  0  0  0
    1.6368    4.8954   -1.3358 Cl  0  0  0  0  0  0  0  0  0  0  0  0
    5.2371   -4.0226    2.0681 C   0  0  0  0  0  0  0  0  0  0  0  0
    4.9424   -3.2671    3.2034 C   0  0  0  0  0  0  0  0  0  0  0  0
    5.3875   -3.4074    0.8349 C   0  0  0  0  0  0  0  0  0  0  0  0
    4.7944   -1.8764    3.0731 C   0  0  0  0  0  0  0  0  0  0  0  0
    5.2585   -2.0245    0.7069 C   0  0  0  0  0  0  0  0  0  0  0  0
    4.9569   -1.2319    1.8445 C   0  0  0  0  0  0  0  0  0  0  0  0
    4.4158   -0.7722    4.3332 S   0  0  0  0  0  0  0  0  0  0  0  0
    4.4738    0.5544    3.2751 C   0  0  0  0  0  0  0  0  0  0  0  0
    4.8078    0.1955    1.9826 C   0  0  0  0  0  0  0  0  0  0  0  0
    5.0377    1.1810    0.8931 C   0  0  0  0  0  0  0  0  0  0  0  0
    3.9930    1.0629   -0.0919 N   0  0  0  0  0  0  0  0  0  0  0  0
    3.2045    2.1619   -0.3252 C   0  0  0  0  0  0  0  0  0  0  0  0
    2.1667    1.9943   -1.4337 C   0  0  0  0  0  0  0  0  0  0  0  0
    0.5373    3.6758   -0.5642 C   0  0  1  0  0  0  0  0  0  0  0  0
    0.8399    2.2761   -0.9093 N   0  0  0  0  0  0  0  0  0  0  0  0
    0.3429    4.0699    0.9075 C   0  0  0  0  0  0  0  0  0  0  0  0
    0.3236    1.2859    0.0439 C   0  0  2  0  0  0  0  0  0  0  0  0
    0.1597    3.0033    1.8790 N   0  0  0  0  0  0  0  0  0  0  0  0
    0.2275    1.7660    1.5311 C   0  0  0  0  0  0  0  0  0  0  0  0
    0.1324    0.8126    2.5227 N   0  0  0  0  0  0  0  0  0  0  0  0
   -0.0892    1.1264    3.9321 C   0  0  0  0  0  0  0  0  0  0  0  0
   -1.4139    0.5456    4.4157 C   0  0  0  0  0  0  0  0  0  0  0  0
   -2.4850   -1.6266    3.7489 C   0  0  0  0  0  0  0  0  0  0  0  0
   -1.4261   -0.9598    4.3550 C   0  0  0  0  0  0  0  0  0  0  0  0
   -2.5526   -3.0112    3.8577 C   0  0  0  0  0  0  0  0  0  0  0  0
   -0.3953   -1.6173    4.9402 N   0  0  0  0  0  0  0  0  0  0  0  0
   -1.5196   -3.6977    4.4823 C   0  0  0  0  0  0  0  0  0  0  0  0
   -0.4451   -2.9665    4.9544 C   0  0  0  0  0  0  0  0  0  0  0  0
    3.2889    3.1591    0.3728 O   0  0  0  0  0  0  0  0  0  0  0  0
  2  6  1  0
  4  5  2  0
  4  6  1  0
  5  7  1  0
  6  8  2  0
  7  9  2  0
  7 10  1  0
  8  9  1  0
  9 12  1  0
 10 11  1  0
 11 12  2  0
 12 13  1  0
 13 14  1  0
 14 15  1  0
 15 16  1  0
 15 32  2  0
 16 18  1  0
 17  3  1  1
 17 18  1  0
 17 19  1  0
 18 20  1  0
 19 21  1  0
 20  1  1  1
 20 22  1  0
 21 22  2  0
 22 23  1  0
 23 24  1  0
 24 25  1  0
 25 27  1  0
 26 27  2  0
 26 28  1  0
 27 29  1  0
 28 30  2  0
 29 31  2  0
 30 31  1  0
M  END
>  <DRUGBANK_ID>  (1) 
DB07165

>  <COMMON_NAME>  (1) 
N-(5-CHLORO-BENZO[B]THIOPHEN-3-YLMETHYL)-2-[6-CHLORO-OXO-3-(2-PYRIDIN-2-YL-ETHYLAMINO)-2H-PYRAZIN-1-YL]-ACETAMIDE

$$$$
