
     RDKit          3D

 10 10  0  0  0  0  0  0  0  0999 V2000
    1.0068   -0.0657    0.0415 O   0  0  0  0  0  0  0  0  0  0  0  0
    2.2329   -0.0818    0.0399 C   0  0  0  0  0  0  0  0  0  0  0  0
    2.9738    0.8521    0.6869 N   0  0  0  0  0  0  0  0  0  0  0  0
    4.4167    0.9532    0.6308 C   0  0  0  0  0  0  0  0  0  0  0  0
    4.8668    2.2395   -0.0175 C   0  0  0  0  0  0  0  0  0  0  0  0
    4.2274    3.4454    0.3115 C   0  0  0  0  0  0  0  0  0  0  0  0
    4.6363    4.6536   -0.2435 C   0  0  0  0  0  0  0  0  0  0  0  0
    5.7317    4.6853   -1.0976 C   0  0  0  0  0  0  0  0  0  0  0  0
    6.4203    3.5083   -1.3894 C   0  0  0  0  0  0  0  0  0  0  0  0
    5.9704    2.2834   -0.8829 C   0  0  0  0  0  0  0  0  0  0  0  0
  1  2  2  0
  2  3  1  0
  3  4  1  0
  4  5  1  0
  5  6  2  0
  5 10  1  0
  6  7  1  0
  7  8  2  0
  8  9  1  0
  9 10  2  0
M  END
>  <DRUGBANK_ID>  (1) 
DB02481

>  <SECONDARY_ACCESSION_NUMBERS>  (1) 
EXPT00729

>  <COMMON_NAME>  (1) 
N-Benzylformamide

>  <CAS_NUMBER>  (1) 
6343-54-0

>  <UNII>  (1) 
L363D92ELK

$$$$
