DA8
     RDKit          3D

 29 30  0  0  0  0  0  0  0  0999 V2000
   -7.2907    2.7547    1.0117 C   0  0  0  0  0  0  0  0  0  0  0  0
   -7.9119    1.4002    1.3521 C   0  0  0  0  0  0  0  0  0  0  0  0
   -7.6236    0.2977    0.2844 C   0  0  0  0  0  0  0  0  0  0  0  0
   -6.2021   -0.1705    0.2489 C   0  0  0  0  0  0  0  0  0  0  0  0
   -6.1688   -0.5818    1.6707 C   0  0  0  0  0  0  0  0  0  0  0  0
   -6.5954   -1.9744    1.8829 C   0  0  0  0  0  0  0  0  0  0  0  0
   -5.6069   -2.6680    1.1049 O   0  0  0  0  0  0  0  0  0  0  0  0
   -4.2773   -2.4430    1.6908 C   0  0  2  0  0  0  0  0  0  0  0  0
   -4.5046   -2.5548    3.1197 O   0  0  0  0  0  0  0  0  0  0  0  0
   -4.7787   -1.4998    4.0896 C   0  0  2  0  0  0  0  0  0  0  0  0
   -5.9952   -1.5924    5.0120 C   0  0  0  0  0  0  0  0  0  0  0  0
   -7.0486   -0.7956    4.5214 O   0  0  0  0  0  0  0  0  0  0  0  0
   -4.3079    0.0406    3.7319 C   0  0  2  0  0  0  0  0  0  0  0  0
   -4.9090    1.1064    4.4508 O   0  0  0  0  0  0  0  0  0  0  0  0
   -3.6633    0.3567    2.1455 C   0  0  0  0  0  0  0  0  0  0  0  0
   -3.2446   -1.0633    1.2760 C   0  0  1  0  0  0  0  0  0  0  0  0
   -1.7538   -1.2971    1.0556 O   0  0  0  0  0  0  0  0  0  0  0  0
   -0.5860   -1.5043    1.9892 C   0  0  2  0  0  0  0  0  0  0  0  0
   -0.5829   -2.7978    2.7155 O   0  0  0  0  0  0  0  0  0  0  0  0
   -1.8187   -2.9078    3.3885 C   0  0  1  0  0  0  0  0  0  0  0  0
   -2.6042   -4.2816    3.7204 C   0  0  0  0  0  0  0  0  0  0  0  0
   -1.9476   -1.5560    4.1904 C   0  0  1  0  0  0  0  0  0  0  0  0
   -2.2000   -1.6053    5.5592 O   0  0  0  0  0  0  0  0  0  0  0  0
   -1.4184   -0.1397    3.7508 C   0  0  1  0  0  0  0  0  0  0  0  0
   -1.5982    1.1329    4.4017 O   0  0  0  0  0  0  0  0  0  0  0  0
   -0.2269   -0.2657    2.9108 C   0  0  2  0  0  0  0  0  0  0  0  0
   -0.0317    0.9425    2.1485 O   0  0  0  0  0  0  0  0  0  0  0  0
   -5.7687    2.8897    1.1076 C   0  0  0  0  0  0  0  0  0  0  0  0
   -5.1973    4.1861    0.5892 C   0  0  0  0  0  0  0  0  0  0  0  0
  1  2  1  0
  1 28  1  0
  2  3  1  0
  3  4  1  0
  4  5  1  0
  5  6  1  0
  6  7  1  0
  8  9  1  0
  8 16  1  0
  8  7  1  6
  9 10  1  0
 10 13  1  0
 10 11  1  6
 11 12  1  0
 13 14  1  6
 13 15  1  0
 15 16  1  0
 16 17  1  1
 18 19  1  0
 18 26  1  0
 18 17  1  1
 19 20  1  0
 20 21  1  1
 20 22  1  0
 22 23  1  1
 22 24  1  0
 24 25  1  1
 24 26  1  0
 26 27  1  6
 28 29  1  0
M  END
>  <DRUGBANK_ID>  (1) 
DB07633

>  <COMMON_NAME>  (1) 
octyl 3-deoxy-2-O-(6-deoxy-alpha-L-galactopyranosyl)-beta-D-xylo-hexopyranoside

$$$$
