
     RDKit          3D

  8  7  0  0  1  0  0  0  0  0999 V2000
    3.3372    2.8886    1.4545 C   0  0  0  0  0  0  0  0  0  0  0  0
    2.9533    1.5441    2.6368 S   0  0  0  0  0  0  0  0  0  0  0  0
    1.1269    1.3634    2.4564 C   0  0  0  0  0  0  0  0  0  0  0  0
    0.3245    2.6520    2.1874 C   0  0  2  0  0  0  0  0  0  0  0  0
    0.3525    2.9615    0.7327 N   0  0  0  0  0  0  0  0  0  0  0  0
    0.7255    3.8165    3.1595 C   0  0  0  0  0  0  0  0  0  0  0  0
   -0.3046    4.4063    3.7986 O   0  0  0  0  0  0  0  0  0  0  0  0
    1.8597    4.2365    3.3955 O   0  0  0  0  0  0  0  0  0  0  0  0
  1  2  1  0
  2  3  1  0
  4  6  1  0
  4  5  1  6
  4  3  1  0
  6  7  1  0
  6  8  2  0
M  END
>  <DRUGBANK_ID>  (1) 
DB02216

>  <SECONDARY_ACCESSION_NUMBERS>  (1) 
EXPT01076; EXPT02919

>  <COMMON_NAME>  (1) 
S-Methylcysteine

>  <CAS_NUMBER>  (1) 
1187-84-4

>  <UNII>  (1) 
A34I1H07YM

$$$$
