
     RDKit          3D

  6  5  0  0  0  0  0  0  0  0999 V2000
    1.0041   -0.0366    0.1425 C   0  0  0  0  0  0  0  0  0  0  0  0
    0.5208    1.1655    0.9394 C   0  0  0  0  0  0  0  0  0  0  0  0
    0.9689    2.4893    0.3120 C   0  0  0  0  0  0  0  0  0  0  0  0
    0.4657    2.6890   -1.1164 C   0  0  0  0  0  0  0  0  0  0  0  0
   -1.0401    2.7160   -1.1644 C   0  0  0  0  0  0  0  0  0  0  0  0
   -1.6858    3.6679   -1.5984 O   0  0  0  0  0  0  0  0  0  0  0  0
  1  2  1  0
  2  3  1  0
  3  4  1  0
  4  5  1  0
  5  6  2  0
M  END
>  <DRUGBANK_ID>  (1) 
DB01919

>  <SECONDARY_ACCESSION_NUMBERS>  (1) 
EXPT02684

>  <COMMON_NAME>  (1) 
Pentanal

>  <CAS_NUMBER>  (1) 
110-62-3

>  <UNII>  (1) 
B975S3014W

$$$$
