
     RDKit          3D

 34 37  0  0  0  0  0  0  0  0999 V2000
   -0.7539    0.1308    0.2191 C   0  0  0  0  0  0  0  0  0  0  0  0
   -1.4755   -2.0905   -0.1528 C   0  0  0  0  0  0  0  0  0  0  0  0
    0.5479   -0.0076   -0.1687 C   0  0  0  0  0  0  0  0  0  0  0  0
   -1.8768   -0.8547   -0.0385 C   0  0  0  0  0  0  0  0  0  0  0  0
   -2.3514    3.9162    1.2799 C   0  0  0  0  0  0  0  0  0  0  0  0
   -0.6784    5.1360    2.4777 C   0  0  0  0  0  0  0  0  0  0  0  0
   -0.0929   -2.3859   -0.0620 O   0  0  0  0  0  0  0  0  0  0  0  0
    0.8318   -1.3343   -0.0637 C   0  0  0  0  0  0  0  0  0  0  0  0
   -1.4814    5.0733    1.4176 C   0  0  0  0  0  0  0  0  0  0  0  0
   -2.0482    2.7416    2.0830 C   0  0  0  0  0  0  0  0  0  0  0  0
   -1.0291    2.8733    3.0878 C   0  0  0  0  0  0  0  0  0  0  0  0
   -2.5864   -3.1156   -0.2075 C   0  0  0  0  0  0  0  0  0  0  0  0
   -0.2769    6.5280    2.7761 C   0  0  0  0  0  0  0  0  0  0  0  0
   -0.4376    4.1031    3.3669 O   0  0  0  0  0  0  0  0  0  0  0  0
    1.3735    1.2066   -0.2940 C   0  0  0  0  0  0  0  0  0  0  0  0
   -2.5059    1.4767    1.6671 C   0  0  0  0  0  0  0  0  0  0  0  0
   -0.6921    1.2252    0.6247 O   0  0  0  0  0  0  0  0  0  0  0  0
   -3.2564    3.9459    0.4623 O   0  0  0  0  0  0  0  0  0  0  0  0
   -2.4288   -4.3056   -0.2095 O   0  0  0  0  0  0  0  0  0  0  0  0
    0.1986    6.6665    4.0273 O   0  0  0  0  0  0  0  0  0  0  0  0
    1.0738    2.5175   -0.6889 O   0  0  0  0  0  0  0  0  0  0  0  0
   -2.8718    1.4077    0.0596 O   0  0  0  0  0  0  0  0  0  0  0  0
   -0.4809    7.4744    2.0317 O   0  0  0  0  0  0  0  0  0  0  0  0
   -3.8503   -2.5853   -0.2365 O   0  0  0  0  0  0  0  0  0  0  0  0
   -1.3808    2.7911   -1.7106 C   0  0  0  0  0  0  0  0  0  0  0  0
   -0.2202    3.2271   -0.7175 C   0  0  0  0  0  0  0  0  0  0  0  0
   -1.9102    1.4277   -1.4099 C   0  0  0  0  0  0  0  0  0  0  0  0
    2.1698   -1.5064   -0.0019 C   0  0  0  0  0  0  0  0  0  0  0  0
   -0.4932    1.7841    3.8067 C   0  0  0  0  0  0  0  0  0  0  0  0
   -2.6349    3.4542   -1.7704 O   0  0  0  0  0  0  0  0  0  0  0  0
   -0.9275    0.5003    3.5137 C   0  0  0  0  0  0  0  0  0  0  0  0
    3.0743   -0.3858    0.0119 C   0  0  0  0  0  0  0  0  0  0  0  0
    2.6957    0.9674   -0.0913 C   0  0  0  0  0  0  0  0  0  0  0  0
   -1.9305    0.3234    2.4960 C   0  0  0  0  0  0  0  0  0  0  0  0
  2  4  2  0
  3  1  1  0
  4  1  1  0
  5 10  1  0
  6 14  1  0
  7  2  1  0
  8  3  2  0
  8  7  1  0
  9  5  1  0
  9  6  2  0
 10 16  2  0
 11 10  1  0
 11 29  2  0
 12  2  1  0
 13  6  1  0
 14 11  1  0
 15  3  1  0
 16 22  1  0
 17  1  2  0
 18  5  2  0
 19 12  2  0
 20 13  1  0
 21 15  1  0
 22 27  1  0
 23 13  2  0
 24 12  1  0
 25 26  1  0
 26 21  1  0
 27 25  1  0
 28  8  1  0
 28 32  2  0
 29 31  1  0
 30 25  1  0
 31 34  2  0
 32 33  1  0
 33 15  2  0
 34 16  1  0
M  END
>  <DRUGBANK_ID>  (1) 
DB01003

>  <SECONDARY_ACCESSION_NUMBERS>  (1) 
APRD00336

>  <COMMON_NAME>  (1) 
Cromoglicic acid

>  <CAS_NUMBER>  (1) 
16110-51-3

>  <UNII>  (1) 
Y0TK0FS77W

>  <SYNONYMS>  (1) 
5-[3-(2-carboxy-4-oxo-4H-5-chromenyloxy)-2-hydroxypropoxy]-4-oxo-4H-2-chromenecarboxylic acid; Acide Cromoglicique; Acido Cromoglicico; Acidum Cromoglicicum; Cromoglicate; Cromoglicic acid; Cromoglycate; Cromoglycic acid; Cromolyn

$$$$
