
     RDKit          3D

 43 49  0  0  1  0  0  0  0  0999 V2000
    4.0899   -2.6752    3.5563 C   0  0  2  0  0  0  0  0  0  0  0  0
    4.2077   -3.7329    4.7295 O   0  0  0  0  0  0  0  0  0  0  0  0
    4.2108   -5.0167    4.1869 C   0  0  0  0  0  0  0  0  0  0  0  0
    4.1987   -4.8371    2.8340 C   0  0  0  0  0  0  0  0  0  0  0  0
    4.6519   -5.7661    1.9143 C   0  0  0  0  0  0  0  0  0  0  0  0
    4.7344   -5.4555    0.4631 C   0  0  0  0  0  0  0  0  0  0  0  0
    3.7941   -4.2992    0.1104 C   0  0  1  0  0  0  0  0  0  0  0  0
    2.3021   -4.5063    0.1002 N   0  0  0  0  0  0  0  0  0  0  0  0
    1.8442   -5.4722   -0.9312 C   0  0  0  0  0  0  0  0  0  0  0  0
    2.5467   -6.7837   -0.8319 C   0  0  0  0  0  0  0  0  0  0  0  0
    2.3926   -8.2934   -0.6081 C   0  0  0  0  0  0  0  0  0  0  0  0
    2.2785   -7.4229    0.5410 C   0  0  0  0  0  0  0  0  0  0  0  0
    1.6459   -4.6527    1.4192 C   0  0  0  0  0  0  0  0  0  0  0  0
    2.0369   -3.6048    2.4657 C   0  0  0  0  0  0  0  0  0  0  0  0
    3.6153   -3.5418    2.4651 C   0  0  1  0  0  0  0  0  0  0  0  0
    4.1708   -3.1860    1.1194 C   0  0  1  0  0  0  0  0  0  0  0  0
    5.7747   -2.9321    1.2168 C   0  0  0  0  0  0  0  0  0  0  0  0
    6.1546   -1.9257    2.3171 C   0  0  0  0  0  0  0  0  0  0  0  0
    4.7812   -1.2788    2.6967 C   0  0  2  0  0  0  0  0  0  0  0  0
    4.6227   -0.2118    3.6740 O   0  0  0  0  0  0  0  0  0  0  0  0
    3.4051   -0.4919    4.4367 C   0  0  0  0  0  0  0  0  0  0  0  0
    3.9654   -0.7861    1.3401 C   0  0  2  0  0  0  0  0  0  0  0  0
    3.3633   -1.9868    0.7737 C   0  0  0  0  0  0  0  0  0  0  0  0
    4.3285    0.0638    0.0256 C   0  0  2  0  0  0  0  0  0  0  0  0
    4.0486   -0.5831   -1.4551 C   0  0  0  0  0  0  0  0  0  0  0  0
    5.7289    0.3383    0.0544 O   0  0  0  0  0  0  0  0  0  0  0  0
    3.5227    1.4376    0.0570 C   0  0  0  0  0  0  0  0  0  0  0  0
    3.8708    2.2810   -1.1950 C   0  0  0  0  0  0  0  0  0  0  0  0
    1.9830    1.1987    0.0981 C   0  0  0  0  0  0  0  0  0  0  0  0
    3.9202    2.2879    1.2830 C   0  0  0  0  0  0  0  0  0  0  0  0
    4.9822   -7.0024    2.3600 C   0  0  0  0  0  0  0  0  0  0  0  0
    4.6444   -7.3100    3.6504 C   0  0  0  0  0  0  0  0  0  0  0  0
    4.2615   -6.3613    4.6117 C   0  0  0  0  0  0  0  0  0  0  0  0
    3.8711   -6.9583    5.8741 O   0  0  0  0  0  0  0  0  0  0  0  0
    4.0081   -8.3657    6.2142 C   0  0  0  0  0  0  0  0  0  0  0  0
    4.3630   -9.2818    5.4740 O   0  0  0  0  0  0  0  0  0  0  0  0
    3.7254   -8.7365    7.6453 C   0  0  0  0  0  0  0  0  0  0  0  0
    4.6038   -7.9514    8.5962 C   0  0  0  0  0  0  0  0  0  0  0  0
    4.1836   -6.4848    8.6618 C   0  0  0  0  0  0  0  0  0  0  0  0
    2.7004   -6.3078    8.9896 C   0  0  0  0  0  0  0  0  0  0  0  0
    2.3908   -6.8160   10.3722 C   0  0  0  0  0  0  0  0  0  0  0  0
    1.9395   -5.8874   11.2254 O   0  0  0  0  0  0  0  0  0  0  0  0
    2.5318   -8.0017   10.7201 O   0  0  0  0  0  0  0  0  0  0  0  0
  1  2  1  1
  1 15  1  0
  1 19  1  0
  2  3  1  0
  3  4  2  0
  3 33  1  0
  4  5  1  0
  5  6  1  0
  5 31  2  0
  7  6  1  1
  7  8  1  0
  8  9  1  0
  8 13  1  0
  9 10  1  0
 10 11  1  0
 10 12  1  0
 11 12  1  0
 13 14  1  0
 15 14  1  6
 15  4  1  0
 15 16  1  0
 16  7  1  0
 16 17  1  1
 16 23  1  0
 17 18  1  0
 19 18  1  0
 19 20  1  1
 19 22  1  0
 20 21  1  0
 22 23  1  6
 24 26  1  0
 24 27  1  0
 24 25  1  6
 24 22  1  0
 27 28  1  0
 27 29  1  0
 27 30  1  0
 31 32  1  0
 32 33  2  0
 33 34  1  0
 34 35  1  0
 35 36  2  0
 35 37  1  0
 37 38  1  0
 38 39  1  0
 39 40  1  0
 40 41  1  0
 41 42  1  0
 41 43  2  0
M  END
>  <DRUGBANK_ID>  (1) 
DB16117

>  <COMMON_NAME>  (1) 
Buprenorphine hemiadipate

>  <CAS_NUMBER>  (1) 
951123-45-8

>  <UNII>  (1) 
968KUA5J54

>  <SYNONYMS>  (1) 
Buprenorphine adipate ester

$$$$
