545
     RDKit          3D

 13 13  0  0  0  0  0  0  0  0999 V2000
    1.0538   -0.0105    0.1335 O   0  0  0  0  0  0  0  0  0  0  0  0
    3.0473   -0.9219   -0.5005 O   0  0  0  0  0  0  0  0  0  0  0  0
    0.0191    3.3551    0.9208 N   0  0  0  0  0  0  0  0  0  0  0  0
    3.2140    0.9573    0.8128 N   0  0  0  0  0  0  0  0  0  0  0  0
    0.1679    1.0315    0.5113 C   0  0  0  0  0  0  0  0  0  0  0  0
    0.4578    2.3424    0.1307 C   0  0  0  0  0  0  0  0  0  0  0  0
   -0.9511    3.1363    1.8430 C   0  0  0  0  0  0  0  0  0  0  0  0
   -0.7968    0.7598    1.4734 C   0  0  0  0  0  0  0  0  0  0  0  0
   -1.4017    1.8407    2.1075 C   0  0  0  0  0  0  0  0  0  0  0  0
    0.7682    4.6339    0.9576 C   0  0  0  0  0  0  0  0  0  0  0  0
    2.4884   -0.0346    0.1267 C   0  0  0  0  0  0  0  0  0  0  0  0
    2.7427    1.9587    1.7334 C   0  0  0  0  0  0  0  0  0  0  0  0
    4.6639    0.9231    0.6996 C   0  0  0  0  0  0  0  0  0  0  0  0
  1  5  1  0
  1 11  1  0
  2 11  2  0
  3  6  2  0
  3  7  1  0
  3 10  1  0
  4 11  1  0
  4 12  1  0
  4 13  1  0
  5  6  1  0
  5  8  2  0
  7  9  2  0
  8  9  1  0
M  CHG  1   3   1
M  END
>  <DRUGBANK_ID>  (1) 
DB00545

>  <SECONDARY_ACCESSION_NUMBERS>  (1) 
APRD00380

>  <COMMON_NAME>  (1) 
Pyridostigmine

>  <CAS_NUMBER>  (1) 
155-97-5

>  <UNII>  (1) 
19QM69HH21

>  <SYNONYMS>  (1) 
Piridostigmina; Pyridostigmine cation

$$$$
