
     RDKit          3D

 14 13  0  0  1  0  0  0  0  0999 V2000
    1.5379    2.9615   -1.4586 O   0  0  0  0  0  0  0  0  0  0  0  0
    2.8495    2.7293   -0.9982 C   0  0  0  0  0  0  0  0  0  0  0  0
    3.1451    1.6821    0.1051 C   0  0  0  0  0  0  0  0  0  0  0  0
    3.7547    0.6390   -0.1667 O   0  0  0  0  0  0  0  0  0  0  0  0
    2.7605    1.9783    1.5624 C   0  0  1  0  0  0  0  0  0  0  0  0
    3.3486    3.2097    1.9731 O   0  0  0  0  0  0  0  0  0  0  0  0
    1.2488    2.0172    1.7734 C   0  0  2  0  0  0  0  0  0  0  0  0
    0.6370    2.7211    0.6995 O   0  0  0  0  0  0  0  0  0  0  0  0
    0.8357    2.7228    3.0714 C   0  0  0  0  0  0  0  0  0  0  0  0
   -0.5838    2.8749    3.1098 O   0  0  0  0  0  0  0  0  0  0  0  0
   -1.1702    3.8309    1.7926 P   0  0  0  0  0  0  0  0  0  0  0  0
   -2.1418    2.5473    1.4922 O   0  0  0  0  0  0  0  0  0  0  0  0
   -2.1064    4.5429    2.9293 O   0  0  0  0  0  0  0  0  0  0  0  0
   -1.6950    4.6865    0.6137 O   0  0  0  0  0  0  0  0  0  0  0  0
  1  2  1  0
  2  3  1  0
  3  4  2  0
  3  5  1  0
  5  6  1  6
  7  9  1  0
  7  8  1  6
  7  5  1  0
  9 10  1  0
 10 11  1  0
 11 12  1  0
 11 13  1  0
 11 14  2  0
M  END
>  <DRUGBANK_ID>  (1) 
DB04034

>  <SECONDARY_ACCESSION_NUMBERS>  (1) 
EXPT00260

>  <COMMON_NAME>  (1) 
Ribulose-5-Phosphate

>  <UNII>  (1) 
6MF87847MR

$$$$
