DBA
     RDKit          3D

 13 13  0  0  0  0  0  0  0  0999 V2000
    1.0058   -0.6065   -0.2244 C   0  0  0  0  0  0  0  0  0  0  0  0
    0.3603   -0.6050    1.1916 C   0  0  0  0  0  0  0  0  0  0  0  0
    0.1653    1.5746    2.3001 C   0  0  0  0  0  0  0  0  0  0  0  0
    1.0918    2.3593    1.5867 C   0  0  0  0  0  0  0  0  0  0  0  0
    1.6632    3.5175    2.1170 C   0  0  0  0  0  0  0  0  0  0  0  0
    1.2703    3.9795    3.3476 C   0  0  0  0  0  0  0  0  0  0  0  0
    0.2979    3.2760    4.0481 C   0  0  0  0  0  0  0  0  0  0  0  0
   -0.2701    2.0780    3.5459 C   0  0  0  0  0  0  0  0  0  0  0  0
    1.5910    2.0129    0.2443 C   0  0  0  0  0  0  0  0  0  0  0  0
   -1.3218    1.4168    4.3983 C   0  0  0  0  0  0  0  0  0  0  0  0
    0.4073   -0.3543   -1.2715 O   0  0  0  0  0  0  0  0  0  0  0  0
    2.3494   -0.8409   -0.2363 O   0  0  0  0  0  0  0  0  0  0  0  0
   -0.4227    0.4376    1.7877 O   0  0  0  0  0  0  0  0  0  0  0  0
  1  2  1  0
  1 11  2  0
  1 12  1  0
  2 13  1  0
  3  4  2  0
  3  8  1  0
  3 13  1  0
  4  5  1  0
  4  9  1  0
  5  6  2  0
  6  7  1  0
  7  8  2  0
  8 10  1  0
M  END
>  <DRUGBANK_ID>  (1) 
DB07634

>  <COMMON_NAME>  (1) 
(2,6-Dimethylphenoxy)acetic acid

>  <CAS_NUMBER>  (1) 
13335-71-2

>  <UNII>  (1) 
8RVEL9W5CF

>  <SYNONYMS>  (1) 
(2,6-Xylyloxy) acetic acid

$$$$
