
     RDKit          3D

  8  8  0  0  0  0  0  0  0  0999 V2000
   -3.2883   -0.0408    0.0014 O   0  0  0  0  0  0  0  0  0  0  0  0
   -1.9260    0.0010   -0.0021 C   0  0  0  0  0  0  0  0  0  0  0  0
   -1.2394    1.2124   -0.0044 C   0  0  0  0  0  0  0  0  0  0  0  0
    0.1574    1.2078   -0.0040 C   0  0  0  0  0  0  0  0  0  0  0  0
    0.8485   -0.0046   -0.0034 C   0  0  0  0  0  0  0  0  0  0  0  0
    2.5692   -0.0049   -0.0006 Cl  0  0  0  0  0  0  0  0  0  0  0  0
    0.1550   -1.2144   -0.0044 C   0  0  0  0  0  0  0  0  0  0  0  0
   -1.2407   -1.2100   -0.0031 C   0  0  0  0  0  0  0  0  0  0  0  0
  1  2  1  0
  2  3  2  0
  2  8  1  0
  3  4  1  0
  4  5  2  0
  5  6  1  0
  5  7  1  0
  7  8  2  0
M  END
>  <DRUGBANK_ID>  (1) 
DB13154

>  <COMMON_NAME>  (1) 
Parachlorophenol

>  <CAS_NUMBER>  (1) 
106-48-9

>  <UNII>  (1) 
3DLC36A01X

>  <SYNONYMS>  (1) 
4-Chlorophenol; 4-chlorphenol; p-Chlorophenol; Parachlorophenol

$$$$
