
     RDKit          3D

 27 27  0  0  1  0  0  0  0  0999 V2000
   -2.8189    1.3021    0.8460 O   0  0  0  0  0  0  0  0  0  0  0  0
   -3.0920    0.0498    1.2784 C   0  0  0  0  0  0  0  0  0  0  0  0
   -4.1387   -0.2225    1.8050 O   0  0  0  0  0  0  0  0  0  0  0  0
   -1.9293   -0.9123    1.0074 C   0  0  0  0  0  0  0  0  0  0  0  0
   -1.7970   -1.4172   -0.4219 C   0  0  0  0  0  0  0  0  0  0  0  0
   -1.2398   -0.4306   -1.4482 C   0  0  2  0  0  0  0  0  0  0  0  0
   -1.6133    0.9572   -1.2010 N   0  0  0  0  0  0  0  0  0  0  0  0
   -1.5219    2.1396   -1.8029 C   0  0  0  0  0  0  0  0  0  0  0  0
   -2.0213    3.1232   -1.2598 O   0  0  0  0  0  0  0  0  0  0  0  0
   -0.8902    2.2896   -2.9626 N   0  0  0  0  0  0  0  0  0  0  0  0
   -0.1760    1.3263   -3.7690 C   0  0  1  0  0  0  0  0  0  0  0  0
   -0.8476    0.8676   -5.0813 C   0  0  0  0  0  0  0  0  0  0  0  0
   -0.9456    2.1034   -6.4020 S   0  0  0  0  0  0  0  0  0  0  0  0
   -1.7906    3.4817   -5.5689 C   0  0  0  0  0  0  0  0  0  0  0  0
   -3.2335    3.2308   -5.1983 C   0  0  0  0  0  0  0  0  0  0  0  0
   -3.7154    2.0799   -4.5580 C   0  0  0  0  0  0  0  0  0  0  0  0
   -5.0608    1.7405   -4.5430 C   0  0  0  0  0  0  0  0  0  0  0  0
   -5.9688    2.6988   -4.9218 C   0  0  0  0  0  0  0  0  0  0  0  0
   -7.2755    2.4178   -4.8829 F   0  0  0  0  0  0  0  0  0  0  0  0
   -5.5355    3.9644   -5.3000 C   0  0  0  0  0  0  0  0  0  0  0  0
   -4.1755    4.2110   -5.4977 C   0  0  0  0  0  0  0  0  0  0  0  0
    1.3205    1.5160   -3.9294 C   0  0  0  0  0  0  0  0  0  0  0  0
    2.0762    0.6019   -3.2510 O   0  0  0  0  0  0  0  0  0  0  0  0
    1.8275    2.3964   -4.5905 O   0  0  0  0  0  0  0  0  0  0  0  0
   -1.8557   -0.9521   -2.7600 C   0  0  0  0  0  0  0  0  0  0  0  0
   -0.9794   -1.5382   -3.6141 O   0  0  0  0  0  0  0  0  0  0  0  0
   -3.0336   -0.8277   -3.0564 O   0  0  0  0  0  0  0  0  0  0  0  0
  1  2  1  0
  2  3  2  0
  2  4  1  0
  4  5  1  0
  6 25  1  0
  6  7  1  0
  6  5  1  1
  7  8  1  0
  8  9  2  0
  8 10  1  0
 11 10  1  0
 11 12  1  6
 11 22  1  0
 12 13  1  0
 13 14  1  0
 14 15  1  0
 15 16  2  0
 15 21  1  0
 16 17  1  0
 17 18  2  0
 18 19  1  0
 18 20  1  0
 20 21  2  0
 22 23  1  0
 22 24  2  0
 25 26  1  0
 25 27  2  0
M  ISO  1  19  18
M  END
>  <DRUGBANK_ID>  (1) 
DB14772

>  <COMMON_NAME>  (1) 
DCFBC F-18

>  <CAS_NUMBER>  (1) 
1169942-33-9

>  <UNII>  (1) 
TUP7882K8T

>  <SYNONYMS>  (1) 
18F DCFBC

$$$$
