
     RDKit          3D

 36 39  0  0  1  0  0  0  0  0999 V2000
   -2.5144    3.8666    2.1127 C   0  0  0  0  0  0  0  0  0  0  0  0
   -1.2512    3.6635    2.6594 C   0  0  0  0  0  0  0  0  0  0  0  0
   -0.3959    2.7101    2.1285 C   0  0  0  0  0  0  0  0  0  0  0  0
   -0.7327    1.9709    0.9872 C   0  0  0  0  0  0  0  0  0  0  0  0
   -2.0105    2.2169    0.4126 C   0  0  0  0  0  0  0  0  0  0  0  0
   -2.8974    3.1510    0.9856 C   0  0  0  0  0  0  0  0  0  0  0  0
    0.1212    0.7244    0.6086 C   0  0  2  0  0  0  0  0  0  0  0  0
    0.1891   -0.5759    1.5301 C   0  0  0  0  0  0  0  0  0  0  0  0
    1.1244   -1.3791    1.4693 O   0  0  0  0  0  0  0  0  0  0  0  0
   -0.8999   -0.9904    2.3359 N   0  0  0  0  0  0  0  0  0  0  0  0
   -1.8375   -0.0043    2.8318 C   0  0  1  0  0  0  0  0  0  0  0  0
   -3.2505    0.4583    2.8714 C   0  0  2  0  0  0  0  0  0  0  0  0
   -2.8198    1.3328    3.9617 N   0  0  0  0  0  0  0  0  0  0  0  0
   -1.5596    0.8416    4.0846 C   0  0  0  0  0  0  0  0  0  0  0  0
   -0.6562    0.9665    4.8442 O   0  0  0  0  0  0  0  0  0  0  0  0
   -3.5777    2.3043    4.5186 C   0  0  0  0  0  0  0  0  0  0  0  0
   -4.9159    2.1112    4.4927 C   0  0  0  0  0  0  0  0  0  0  0  0
   -5.6024    1.0967    3.5847 C   0  0  0  0  0  0  0  0  0  0  0  0
   -4.6580   -0.4675    3.3788 S   0  0  0  0  0  0  0  0  0  0  0  0
   -5.7945    2.8834    5.4346 C   0  0  0  0  0  0  0  0  0  0  0  0
   -5.5054    2.5515    6.8932 N   0  0  0  0  0  0  0  0  0  0  0  0
   -4.2898    2.6597    7.4837 C   0  0  0  0  0  0  0  0  0  0  0  0
   -4.0027    2.3203    8.7686 C   0  0  0  0  0  0  0  0  0  0  0  0
   -5.0342    1.9094    9.5578 C   0  0  0  0  0  0  0  0  0  0  0  0
   -6.3260    1.8891    9.0242 C   0  0  0  0  0  0  0  0  0  0  0  0
   -6.5304    2.1593    7.6709 C   0  0  0  0  0  0  0  0  0  0  0  0
   -4.6463    1.4764   10.9107 C   0  0  0  0  0  0  0  0  0  0  0  0
   -3.4822    1.4927   11.2850 O   0  0  0  0  0  0  0  0  0  0  0  0
   -5.6373    1.0124   11.7071 N   0  0  0  0  0  0  0  0  0  0  0  0
   -2.9343    3.6401    5.1872 C   0  0  0  0  0  0  0  0  0  0  0  0
   -1.7862    3.5274    5.6798 O   0  0  0  0  0  0  0  0  0  0  0  0
   -3.7822    4.5679    5.3752 O   0  0  0  0  0  0  0  0  0  0  0  0
    1.8030    1.3831    0.3139 S   0  0  0  0  0  0  0  0  0  0  0  0
    2.7008    0.3862   -0.2180 O   0  0  0  0  0  0  0  0  0  0  0  0
    1.7093    2.6745   -0.3422 O   0  0  0  0  0  0  0  0  0  0  0  0
    2.2807    1.6773    1.8319 O   0  0  0  0  0  0  0  0  0  0  0  0
  1  2  2  0
  1  6  1  0
  2  3  1  0
  3  4  2  0
  4  5  1  0
  5  6  2  0
  7 33  1  0
  7  8  1  1
  7  4  1  0
  8  9  2  0
  8 10  1  0
 11 12  1  0
 11 14  1  0
 11 10  1  1
 12 13  1  0
 12 19  1  1
 13 14  1  0
 13 16  1  0
 14 15  2  0
 16 17  2  0
 16 30  1  0
 17 18  1  0
 17 20  1  0
 18 19  1  0
 20 21  1  0
 21 22  2  0
 21 26  1  0
 22 23  1  0
 23 24  2  0
 24 25  1  0
 24 27  1  0
 25 26  2  0
 27 28  2  0
 27 29  1  0
 30 31  2  0
 30 32  1  0
 33 34  2  0
 33 35  2  0
 33 36  1  0
M  CHG  2  21   1  32  -1
M  END
>  <DRUGBANK_ID>  (1) 
DB13499

>  <COMMON_NAME>  (1) 
Cefsulodin

>  <CAS_NUMBER>  (1) 
62587-73-9

>  <UNII>  (1) 
OV42LHE42B

>  <SYNONYMS>  (1) 
Cefsulodin; cefsulodino

$$$$
