
     RDKit          3D

 25 24  0  0  1  0  0  0  0  0999 V2000
   -0.1060   -0.3352   -0.6597 C   0  0  0  0  0  0  0  0  0  0  0  0
   -0.5374    1.1216   -0.7112 C   0  0  0  0  0  0  0  0  0  0  0  0
   -2.0375    1.2445   -0.4393 C   0  0  0  0  0  0  0  0  0  0  0  0
   -2.3983    0.7002    0.9466 C   0  0  0  0  0  0  0  0  0  0  0  0
   -1.6269    1.4490    2.0404 C   0  0  0  0  0  0  0  0  0  0  0  0
   -1.9821    2.9409    2.0276 C   0  0  0  0  0  0  0  0  0  0  0  0
   -3.4761    3.1292    2.2745 C   0  0  0  0  0  0  0  0  0  0  0  0
   -3.8759    2.4639    3.5796 C   0  0  0  0  0  0  0  0  0  0  0  0
   -3.1873    3.1742    4.6969 C   0  0  0  0  0  0  0  0  0  0  0  0
   -3.8490    3.8842    5.6016 C   0  0  0  0  0  0  0  0  0  0  0  0
   -5.3385    3.8769    5.6993 C   0  0  0  0  0  0  0  0  0  0  0  0
   -5.7000    3.1839    7.0027 C   0  0  0  0  0  0  0  0  0  0  0  0
   -5.0957    3.9520    8.1867 C   0  0  0  0  0  0  0  0  0  0  0  0
   -5.4991    5.4121    8.1301 C   0  0  0  0  0  0  0  0  0  0  0  0
   -6.9846    5.4332    8.1894 C   0  0  0  0  0  0  0  0  0  0  0  0
   -7.4494    4.8227    9.5511 C   0  0  0  0  0  0  0  0  0  0  0  0
   -7.1951    5.7220   10.7219 C   0  0  0  0  0  0  0  0  0  0  0  0
   -7.9368    7.0537   10.4970 C   0  0  0  0  0  0  0  0  0  0  0  0
  -10.0038    4.2592    8.2218 C   0  0  0  0  0  0  0  0  0  0  0  0
   -9.8376    5.8216    8.2570 C   0  0  2  0  0  0  0  0  0  0  0  0
  -10.3488    6.4695    9.5542 C   0  0  0  0  0  0  0  0  0  0  0  0
  -11.3677    3.9574    7.9832 O   0  0  0  0  0  0  0  0  0  0  0  0
  -10.0380    6.3537    6.9654 O   0  0  0  0  0  0  0  0  0  0  0  0
  -11.5401    6.5234    9.7675 O   0  0  0  0  0  0  0  0  0  0  0  0
   -9.4249    6.9304   10.4789 O   0  0  0  0  0  0  0  0  0  0  0  0
  2  1  1  0
  3  2  1  0
  4  3  1  0
  5  4  1  0
  6  5  1  0
  7  6  1  0
  8  7  1  0
  9  8  1  0
 10  9  2  0
 11 10  1  0
 12 11  1  0
 13 12  1  0
 14 13  1  0
 15 14  1  0
 16 15  1  0
 17 16  1  0
 18 17  1  0
 20 19  1  0
 20 23  1  6
 21 20  1  0
 22 19  1  0
 24 21  2  0
 25 18  1  0
 25 21  1  0
M  END
>  <DRUGBANK_ID>  (1) 
DB03831

>  <SECONDARY_ACCESSION_NUMBERS>  (1) 
EXPT02220

>  <COMMON_NAME>  (1) 
[(Z)-octadec-9-enyl] (2R)-2,3-bis(oxidanyl)propanoate

$$$$
