
     RDKit          3D

 26 29  0  0  0  0  0  0  0  0999 V2000
    1.0839   -0.0302    0.1170 F   0  0  0  0  0  0  0  0  0  0  0  0
    2.4244   -0.0173    0.0308 C   0  0  0  0  0  0  0  0  0  0  0  0
    3.0968    1.1947    0.0079 C   0  0  0  0  0  0  0  0  0  0  0  0
    4.4852    1.2072   -0.1797 C   0  0  0  0  0  0  0  0  0  0  0  0
    5.2089    0.0131   -0.3023 C   0  0  0  0  0  0  0  0  0  0  0  0
    4.5082   -1.1935   -0.1329 C   0  0  0  0  0  0  0  0  0  0  0  0
    3.1140   -1.2111   -0.0248 C   0  0  0  0  0  0  0  0  0  0  0  0
    6.9810    0.0431   -0.7164 P   0  0  0  0  0  0  0  0  0  0  0  0
    7.1676    0.8111   -2.3376 C   0  0  0  0  0  0  0  0  0  0  0  0
    6.7036    2.1109   -2.5933 C   0  0  0  0  0  0  0  0  0  0  0  0
    6.6374    2.6105   -3.8975 C   0  0  0  0  0  0  0  0  0  0  0  0
    7.1174    1.8523   -4.9598 C   0  0  0  0  0  0  0  0  0  0  0  0
    7.7054    0.6185   -4.7099 C   0  0  0  0  0  0  0  0  0  0  0  0
    7.7173    0.1005   -3.4137 C   0  0  0  0  0  0  0  0  0  0  0  0
    7.8330    0.9557    0.5668 C   0  0  0  0  0  0  0  0  0  0  0  0
    7.6423    0.5899    1.9101 C   0  0  0  0  0  0  0  0  0  0  0  0
    8.2517    1.3019    2.9440 C   0  0  0  0  0  0  0  0  0  0  0  0
    9.1034    2.3614    2.6479 C   0  0  0  0  0  0  0  0  0  0  0  0
    9.3546    2.6964    1.3193 C   0  0  0  0  0  0  0  0  0  0  0  0
    8.7062    2.0132    0.2863 C   0  0  0  0  0  0  0  0  0  0  0  0
    7.5863   -1.6562   -0.7742 C   0  0  0  0  0  0  0  0  0  0  0  0
    6.9664   -2.6007   -1.6144 C   0  0  0  0  0  0  0  0  0  0  0  0
    7.2921   -3.9541   -1.5401 C   0  0  0  0  0  0  0  0  0  0  0  0
    8.3077   -4.3729   -0.6880 C   0  0  0  0  0  0  0  0  0  0  0  0
    9.0072   -3.4363    0.0689 C   0  0  0  0  0  0  0  0  0  0  0  0
    8.6346   -2.0914    0.0425 C   0  0  0  0  0  0  0  0  0  0  0  0
  1  2  1  0
  2  3  2  0
  2  7  1  0
  3  4  1  0
  4  5  2  0
  5  6  1  0
  5  8  1  0
  6  7  2  0
  8  9  1  0
  8 15  1  0
  8 21  1  0
  9 10  2  0
  9 14  1  0
 10 11  1  0
 11 12  2  0
 12 13  1  0
 13 14  2  0
 15 16  2  0
 15 20  1  0
 16 17  1  0
 17 18  2  0
 18 19  1  0
 19 20  2  0
 21 22  2  0
 21 26  1  0
 22 23  1  0
 23 24  2  0
 24 25  1  0
 25 26  2  0
M  CHG  1   8   1
M  ISO  1   1  18
M  END
>  <DRUGBANK_ID>  (1) 
DB15424

>  <COMMON_NAME>  (1) 
Bfpet F-18

>  <CAS_NUMBER>  (1) 
863644-14-8

>  <UNII>  (1) 
BHG7KQ27XV

>  <SYNONYMS>  (1) 
18F-TPP

$$$$
