170
     RDKit          3D

 13 14  0  0  0  0  0  0  0  0999 V2000
   -1.4677    2.2267   -0.0345 O   0  0  0  0  0  0  0  0  0  0  0  0
    0.1273   -2.8687   -0.0094 O   0  0  0  0  0  0  0  0  0  0  0  0
    0.3490    0.7306   -0.0088 C   0  0  0  0  0  0  0  0  0  0  0  0
    0.7745   -0.5967   -0.0040 C   0  0  0  0  0  0  0  0  0  0  0  0
   -2.0650   -0.0624    0.0191 C   0  0  0  0  0  0  0  0  0  0  0  0
   -1.0910    1.0614   -0.0141 C   0  0  0  0  0  0  0  0  0  0  0  0
   -0.2101   -1.6930    0.0134 C   0  0  0  0  0  0  0  0  0  0  0  0
   -1.6392   -1.3309    0.0550 C   0  0  0  0  0  0  0  0  0  0  0  0
    1.2938    1.7651   -0.0038 C   0  0  0  0  0  0  0  0  0  0  0  0
    2.1431   -0.8955   -0.0040 C   0  0  0  0  0  0  0  0  0  0  0  0
   -3.5159    0.3041    0.0037 C   0  0  0  0  0  0  0  0  0  0  0  0
    2.6573    1.4663    0.0129 C   0  0  0  0  0  0  0  0  0  0  0  0
    3.0816    0.1377    0.0111 C   0  0  0  0  0  0  0  0  0  0  0  0
  1  6  2  0
  2  7  2  0
  3  4  2  0
  3  6  1  0
  3  9  1  0
  4  7  1  0
  4 10  1  0
  5  6  1  0
  5  8  2  0
  5 11  1  0
  7  8  1  0
  9 12  2  0
 10 13  2  0
 12 13  1  0
M  END
>  <DRUGBANK_ID>  (1) 
DB00170

>  <SECONDARY_ACCESSION_NUMBERS>  (1) 
NUTR00062

>  <COMMON_NAME>  (1) 
Menadione

>  <CAS_NUMBER>  (1) 
58-27-5

>  <UNII>  (1) 
723JX6CXY5

>  <SYNONYMS>  (1) 
2-Methyl-1,4-Naphthalenedione; 2-Methyl-1,4-naphthochinon; 2-Methyl-1,4-naphthoquinone; Menadione; Vitamin K 3; Vitamin K3

$$$$
