
     RDKit          3D

 10 11  0  0  0  0  0  0  0  0999 V2000
   -2.4919    0.6419   -0.0138 C   0  0  0  0  0  0  0  0  0  0  0  0
   -2.4530   -0.7507   -0.0050 C   0  0  0  0  0  0  0  0  0  0  0  0
   -1.2255   -1.4141    0.0058 C   0  0  0  0  0  0  0  0  0  0  0  0
   -0.0233   -0.6849    0.0033 C   0  0  0  0  0  0  0  0  0  0  0  0
    1.2349   -1.2922   -0.0028 C   0  0  0  0  0  0  0  0  0  0  0  0
    2.4117   -0.6229   -0.0017 N   0  0  0  0  0  0  0  0  0  0  0  0
    2.3365    0.7239    0.0064 C   0  0  0  0  0  0  0  0  0  0  0  0
    1.1458    1.4331    0.0084 C   0  0  0  0  0  0  0  0  0  0  0  0
   -0.0606    0.7239    0.0039 C   0  0  0  0  0  0  0  0  0  0  0  0
   -1.3042    1.3760   -0.0036 C   0  0  0  0  0  0  0  0  0  0  0  0
  1  2  2  0
  1 10  1  0
  2  3  1  0
  3  4  2  0
  4  5  1  0
  4  9  1  0
  5  6  2  0
  6  7  1  0
  7  8  2  0
  8  9  1  0
  9 10  2  0
M  END
>  <DRUGBANK_ID>  (1) 
DB04329

>  <SECONDARY_ACCESSION_NUMBERS>  (1) 
EXPT01938

>  <COMMON_NAME>  (1) 
Isoquinoline

>  <CAS_NUMBER>  (1) 
119-65-3

>  <UNII>  (1) 
JGX76Y85M6

$$$$
