A56
     RDKit          3D

 19 21  0  0  0  0  0  0  0  0999 V2000
    3.8676   -1.2405   -0.0022 C   0  0  0  0  0  0  0  0  0  0  0  0
    2.5069   -1.5590    0.0091 C   0  0  0  0  0  0  0  0  0  0  0  0
    1.5286   -0.5452    0.0079 C   0  0  0  0  0  0  0  0  0  0  0  0
    1.9400    0.8041   -0.0032 C   0  0  0  0  0  0  0  0  0  0  0  0
    3.3105    1.1058   -0.0112 C   0  0  0  0  0  0  0  0  0  0  0  0
    4.2682    0.0914   -0.0107 C   0  0  0  0  0  0  0  0  0  0  0  0
    0.1531   -0.8303    0.0143 C   0  0  0  0  0  0  0  0  0  0  0  0
   -0.8001    0.2023    0.0202 C   0  0  0  0  0  0  0  0  0  0  0  0
   -0.4097    1.5522    0.0204 C   0  0  0  0  0  0  0  0  0  0  0  0
    0.9727    1.8258   -0.0024 C   0  0  0  0  0  0  0  0  0  0  0  0
   -2.6316   -0.3254   -0.0254 Br  0  0  0  0  0  0  0  0  0  0  0  0
   -1.3655    2.6664    0.0461 C   0  0  0  0  0  0  0  0  0  0  0  0
   -1.3333    3.5243   -0.9734 N   0  0  0  0  0  0  0  0  0  0  0  0
   -2.2429    4.4839   -0.9094 C   0  0  0  0  0  0  0  0  0  0  0  0
   -3.1188    4.6396    0.0702 N   0  0  0  0  0  0  0  0  0  0  0  0
   -3.0397    3.7528    1.0497 C   0  0  0  0  0  0  0  0  0  0  0  0
   -2.1773    2.7520    1.0975 N   0  0  0  0  0  0  0  0  0  0  0  0
   -3.9138    3.8792    2.0899 N   0  0  0  0  0  0  0  0  0  0  0  0
   -2.2775    5.3911   -1.9301 N   0  0  0  0  0  0  0  0  0  0  0  0
  1  6  2  0
  1  2  1  0
  2  3  2  0
  3  4  1  0
  3  7  1  0
  4 10  1  0
  4  5  2  0
  5  6  1  0
  7  8  2  0
  8  9  1  0
  8 11  1  0
  9 12  1  0
  9 10  2  0
 12 17  1  0
 12 13  2  0
 13 14  1  0
 14 15  2  0
 14 19  1  0
 15 16  1  0
 16 18  1  0
 16 17  2  0
M  END
>  <DRUGBANK_ID>  (1) 
DB07319

>  <COMMON_NAME>  (1) 
6-(3-BROMO-2-NAPHTHYL)-1,3,5-TRIAZINE-2,4-DIAMINE

$$$$
