171
     RDKit          3D

 13 13  0  0  0  0  0  0  0  0999 V2000
    1.3797   -0.2160   -0.0007 C   0  0  0  0  0  0  0  0  0  0  0  0
    0.4761   -1.2832    0.0140 C   0  0  0  0  0  0  0  0  0  0  0  0
   -0.9082   -1.0605    0.0100 C   0  0  0  0  0  0  0  0  0  0  0  0
   -1.3497    0.2642   -0.0073 C   0  0  0  0  0  0  0  0  0  0  0  0
   -1.7652   -2.1350    0.0923 N   0  0  0  0  0  0  0  0  0  0  0  0
   -3.2158   -2.0713    0.0752 C   0  0  0  0  0  0  0  0  0  0  0  0
   -3.7896   -2.7570   -1.1429 C   0  0  0  0  0  0  0  0  0  0  0  0
   -3.5867   -4.5247   -1.0746 S   0  0  0  0  0  0  0  0  0  0  0  0
   -4.0327   -5.0277    0.2005 O   0  0  0  0  0  0  0  0  0  0  0  0
   -4.0387   -5.1090   -2.3202 O   0  0  0  0  0  0  0  0  0  0  0  0
   -1.9720   -4.6328   -1.0790 O   0  0  0  0  0  0  0  0  0  0  0  0
   -0.4568    1.3323    0.0181 C   0  0  0  0  0  0  0  0  0  0  0  0
    0.9096    1.0936   -0.0151 C   0  0  0  0  0  0  0  0  0  0  0  0
  1  2  2  0
  1 13  1  0
  2  3  1  0
  3  4  2  0
  3  5  1  0
  4 12  1  0
  5  6  1  0
  6  7  1  0
  7  8  1  0
  8  9  2  0
  8 10  2  0
  8 11  1  0
 12 13  2  0
M  END
>  <DRUGBANK_ID>  (1) 
DB02283

>  <SECONDARY_ACCESSION_NUMBERS>  (1) 
EXPT00051

>  <COMMON_NAME>  (1) 
2-Phenylamino-Ethanesulfonic Acid

$$$$
