
     RDKit          3D

 28 29  0  0  0  0  0  0  0  0999 V2000
    0.9035    0.0808    0.0442 C   0  0  0  0  0  0  0  0  0  0  0  0
    0.4975   -0.0228   -1.4164 C   0  0  0  0  0  0  0  0  0  0  0  0
    0.9930   -1.2283   -2.0141 O   0  0  0  0  0  0  0  0  0  0  0  0
    2.3527   -1.3237   -2.1111 C   0  0  0  0  0  0  0  0  0  0  0  0
    3.1481   -0.4523   -1.8085 O   0  0  0  0  0  0  0  0  0  0  0  0
    2.7768   -2.6324   -2.7476 C   0  0  0  0  0  0  0  0  0  0  0  0
    2.1332   -3.7957   -2.0909 N   0  0  0  0  0  0  0  0  0  0  0  0
    3.1236   -4.7779   -1.6212 C   0  0  0  0  0  0  0  0  0  0  0  0
    3.8853   -5.4197   -2.7841 C   0  0  0  0  0  0  0  0  0  0  0  0
    2.9762   -6.1267   -3.6845 N   0  0  0  0  0  0  0  0  0  0  0  0
    1.9738   -5.1968   -4.2183 C   0  0  0  0  0  0  0  0  0  0  0  0
    1.2318   -4.4757   -3.0583 C   0  0  0  0  0  0  0  0  0  0  0  0
    2.8987   -7.4604   -4.0374 C   0  0  0  0  0  0  0  0  0  0  0  0
    2.0628   -7.8641   -4.8533 O   0  0  0  0  0  0  0  0  0  0  0  0
    3.7981   -8.5147   -3.4718 C   0  0  0  0  0  0  0  0  0  0  0  0
    4.7547   -8.3958   -2.5483 C   0  0  0  0  0  0  0  0  0  0  0  0
    5.6874   -9.3624   -2.0112 C   0  0  0  0  0  0  0  0  0  0  0  0
    6.3502  -10.1975   -2.8854 C   0  0  0  0  0  0  0  0  0  0  0  0
    7.4080  -10.9685   -2.4311 C   0  0  0  0  0  0  0  0  0  0  0  0
    7.8171  -10.8826   -1.0826 C   0  0  0  0  0  0  0  0  0  0  0  0
    7.2250   -9.9297   -0.2286 C   0  0  0  0  0  0  0  0  0  0  0  0
    6.1227   -9.2133   -0.6871 C   0  0  0  0  0  0  0  0  0  0  0  0
    7.6301   -9.5735    1.0388 O   0  0  0  0  0  0  0  0  0  0  0  0
    8.8563  -10.1356    1.5022 C   0  0  0  0  0  0  0  0  0  0  0  0
    8.7604  -11.6875   -0.5072 O   0  0  0  0  0  0  0  0  0  0  0  0
    9.3460  -12.7335   -1.2511 C   0  0  0  0  0  0  0  0  0  0  0  0
    8.1056  -11.7863   -3.2727 O   0  0  0  0  0  0  0  0  0  0  0  0
    7.7209  -11.8304   -4.6342 C   0  0  0  0  0  0  0  0  0  0  0  0
  1  2  1  0
  2  3  1  0
  3  4  1  0
  4  5  2  0
  4  6  1  0
  6  7  1  0
  7  8  1  0
  7 12  1  0
  8  9  1  0
  9 10  1  0
 10 11  1  0
 10 13  1  0
 11 12  1  0
 13 14  2  0
 13 15  1  0
 15 16  2  0
 16 17  1  0
 17 18  2  0
 17 22  1  0
 18 19  1  0
 19 20  2  0
 19 27  1  0
 20 21  1  0
 20 25  1  0
 21 22  2  0
 21 23  1  0
 23 24  1  0
 25 26  1  0
 27 28  1  0
M  END
>  <DRUGBANK_ID>  (1) 
DB13342

>  <COMMON_NAME>  (1) 
Cinepazet

>  <CAS_NUMBER>  (1) 
23887-41-4

>  <UNII>  (1) 
0LC95WWE9Q

>  <SYNONYMS>  (1) 
Cinepazet

$$$$
