HAZ
     RDKit          3D

 33 36  0  0  0  0  0  0  0  0999 V2000
    7.1586    3.1017    0.9716 O   0  0  0  0  0  0  0  0  0  0  0  0
    7.2212    1.9604    1.2350 C   0  0  0  0  0  0  0  0  0  0  0  0
    6.3633    1.0706    0.6513 O   0  0  0  0  0  0  0  0  0  0  0  0
    9.5068    3.2921    2.6142 C   0  0  0  0  0  0  0  0  0  0  0  0
    9.5211    1.7693    2.3917 C   0  0  0  0  0  0  0  0  0  0  0  0
    8.1215    1.2963    2.3087 C   0  0  0  0  0  0  0  0  0  0  0  0
    9.1231    3.8706    4.0163 C   0  0  0  0  0  0  0  0  0  0  0  0
    9.9076    4.7007    4.5050 O   0  0  0  0  0  0  0  0  0  0  0  0
    7.9793    3.5849    4.7737 N   0  0  0  0  0  0  0  0  0  0  0  0
    4.7121    1.4007    2.9026 C   0  0  0  0  0  0  0  0  0  0  0  0
    5.6018    0.7766    3.7705 C   0  0  0  0  0  0  0  0  0  0  0  0
    6.5060    1.5403    4.6236 C   0  0  0  0  0  0  0  0  0  0  0  0
    6.7594    2.9242    4.3995 C   0  0  0  0  0  0  0  0  0  0  0  0
    5.9988    3.4897    3.4029 C   0  0  0  0  0  0  0  0  0  0  0  0
    4.9565    2.7592    2.7103 C   0  0  0  0  0  0  0  0  0  0  0  0
    3.7169    0.6930    2.1914 N   0  0  0  0  0  0  0  0  0  0  0  0
    2.3875    1.0145    2.0735 C   0  0  0  0  0  0  0  0  0  0  0  0
    1.6659    0.3670    1.3030 O   0  0  0  0  0  0  0  0  0  0  0  0
    2.9487    5.7219    4.7425 C   0  0  0  0  0  0  0  0  0  0  0  0
    1.5421    5.1677    4.4476 C   0  0  1  0  0  0  0  0  0  0  0  0
   -1.1955    7.4779    5.7617 C   0  0  0  0  0  0  0  0  0  0  0  0
    1.5673    4.6910    3.0643 C   0  0  0  0  0  0  0  0  0  0  0  0
    3.9066    4.6771    4.3122 C   0  0  0  0  0  0  0  0  0  0  0  0
    3.4552    3.1778    4.9130 C   0  0  0  0  0  0  0  0  0  0  0  0
    1.7613    1.2964    5.0103 O   0  0  0  0  0  0  0  0  0  0  0  0
    1.8595    2.2467    2.6990 C   0  0  0  0  0  0  0  0  0  0  0  0
    2.0027    2.5107    4.4223 N   0  0  2  0  0  0  0  0  0  0  0  0
    1.0423    3.7644    5.0689 C   0  0  2  0  0  0  0  0  0  0  0  0
   -0.4714    3.7054    4.8219 C   0  0  0  0  0  0  0  0  0  0  0  0
   -1.0819    5.0296    5.3531 C   0  0  0  0  0  0  0  0  0  0  0  0
   -0.6028    6.4463    4.8782 C   0  0  1  0  0  0  0  0  0  0  0  0
    0.6383    6.2668    4.1026 C   0  0  1  0  0  0  0  0  0  0  0  0
    0.7748    7.1548    5.0867 O   0  0  0  0  0  0  0  0  0  0  0  0
  1  2  2  0
  2  3  1  0
  2  6  1  0
  4  5  1  0
  4  7  1  0
  5  6  1  0
  7  8  2  0
  7  9  1  0
  9 13  1  0
 10 11  2  0
 10 15  1  0
 10 16  1  0
 11 12  1  0
 12 13  2  0
 13 14  1  0
 14 15  2  0
 16 17  1  0
 17 18  2  0
 17 26  1  0
 19 20  1  0
 19 23  1  0
 20 22  1  6
 20 28  1  0
 20 32  1  0
 23 24  1  0
 24 27  1  0
 27 28  1  0
 27 26  1  0
 27 25  1  1
 28 29  1  6
 29 30  1  0
 30 31  1  0
 31 21  1  1
 31 32  1  0
 31 33  1  0
 32 33  1  1
M  CHG  2  25  -1  27   1
M  END
>  <DRUGBANK_ID>  (1) 
DB07882

>  <COMMON_NAME>  (1) 
4-{4-[2-(1A,7A-DIMETHYL-4-OXY-OCTAHYDRO-1-OXA-4-AZA-CYCLOPROPA[A]NAPHTHALEN-4-YL) -ACETYLAMINO]-PHENYLCARBAMOYL}-BUTYRIC ACID

$$$$
