1002
     RDKit          3D

 21 22  0  0  1  0  0  0  0  0999 V2000
    0.9962   -0.4730   -0.0143 O   0  0  0  0  0  0  0  0  0  0  0  0
    2.1931    2.3784    0.3276 N   0  0  0  0  0  0  0  0  0  0  0  0
    3.0567   -1.3717   -0.2961 N   0  0  0  0  0  0  0  0  0  0  0  0
    2.7260    1.0477    0.8386 C   0  0  1  0  0  0  0  0  0  0  0  0
    2.5376    1.0410    2.3834 C   0  0  0  0  0  0  0  0  0  0  0  0
    2.9268    3.5015    0.9658 C   0  0  0  0  0  0  0  0  0  0  0  0
    3.4301    2.1362    2.9843 C   0  0  0  0  0  0  0  0  0  0  0  0
    2.9154    3.4693    2.4842 C   0  0  0  0  0  0  0  0  0  0  0  0
    2.2621    2.6250   -1.1243 C   0  0  0  0  0  0  0  0  0  0  0  0
    2.2322   -0.3096    0.1774 C   0  0  0  0  0  0  0  0  0  0  0  0
    3.6751    2.7429   -1.7840 C   0  0  0  0  0  0  0  0  0  0  0  0
    4.4472    1.4591   -1.7858 C   0  0  0  0  0  0  0  0  0  0  0  0
    4.5074   -1.5638   -0.4015 C   0  0  0  0  0  0  0  0  0  0  0  0
    3.5093    0.5320   -2.4951 C   0  0  0  0  0  0  0  0  0  0  0  0
    5.3319   -1.2564    0.6964 C   0  0  0  0  0  0  0  0  0  0  0  0
    5.1797   -1.9349   -1.6397 C   0  0  0  0  0  0  0  0  0  0  0  0
    6.7107   -1.0544    0.5575 C   0  0  0  0  0  0  0  0  0  0  0  0
    6.5814   -1.7076   -1.7321 C   0  0  0  0  0  0  0  0  0  0  0  0
    4.7822   -0.9701    2.0359 C   0  0  0  0  0  0  0  0  0  0  0  0
    4.5464   -2.3241   -2.9929 C   0  0  0  0  0  0  0  0  0  0  0  0
    7.3324   -1.2553   -0.6544 C   0  0  0  0  0  0  0  0  0  0  0  0
  1 10  2  0
  2  4  1  0
  2  6  1  0
  2  9  1  0
  3 10  1  0
  3 13  1  0
  4  5  1  0
  4 10  1  6
  5  7  1  0
  6  8  1  0
  7  8  1  0
  9 11  1  0
 11 12  1  0
 12 14  1  0
 13 15  2  0
 13 16  1  0
 15 17  1  0
 15 19  1  0
 16 18  2  0
 16 20  1  0
 17 21  2  0
 18 21  1  0
M  END
>  <DRUGBANK_ID>  (1) 
DB01002

>  <SECONDARY_ACCESSION_NUMBERS>  (1) 
APRD00110

>  <COMMON_NAME>  (1) 
Levobupivacaine

>  <CAS_NUMBER>  (1) 
27262-47-1

>  <UNII>  (1) 
A5H73K9U3W

>  <SYNONYMS>  (1) 
(-)-bupivacaine; (S)-1-butyl-2',6'-pipecoloxylidide; (S)-bupivacaine; L-(-)-1-Butyl-2',6'-pipecoloxylidide; L-(−)-bupivacaine; Levobupivacaína; Levobupivacaine

$$$$
