GD7
     RDKit          3D

 10  9  0  0  0  0  0  0  0  0999 V2000
    4.7327   -1.6884   -0.4120 C   0  0  0  0  0  0  0  0  0  0  0  0
    4.5036    0.3775   -1.8567 C   0  0  0  0  0  0  0  0  0  0  0  0
    3.9588   -1.9234   -2.7041 C   0  0  0  0  0  0  0  0  0  0  0  0
    1.5728   -1.9769   -0.7450 C   0  0  0  0  0  0  0  0  0  0  0  0
    2.4033   -0.7301   -1.0561 C   0  0  2  0  0  0  0  0  0  0  0  0
    3.8820   -0.9859   -1.4842 C   0  0  0  0  0  0  0  0  0  0  0  0
    1.9980    1.1953    2.4198 C   0  0  0  0  0  0  0  0  0  0  0  0
    2.2774    0.2365   -0.0055 O   0  0  0  0  0  0  0  0  0  0  0  0
    2.9632    0.0400    1.4526 P   0  0  1  0  0  0  0  0  0  0  0  0
    4.3631    0.6210    1.5047 O   0  0  0  0  0  0  0  0  0  0  0  0
  1  6  1  0
  2  6  1  0
  3  6  1  0
  5  4  1  1
  5  6  1  0
  5  8  1  0
  9 10  2  0
  9  8  1  0
  9  7  1  1
M  END
>  <DRUGBANK_ID>  (1) 
DB07821

>  <COMMON_NAME>  (1) 
(1R)-1,2,2-trimethylpropyl (R)-methylphosphinate

$$$$
