
     RDKit          3D

 26 31  0  0  0  0  0  0  0  0999 V2000
    0.7008    0.1151   -4.7470 O   0  0  0  0  0  0  0  0  0  0  0  0
    4.5906    0.7746   -7.5166 O   0  0  0  0  0  0  0  0  0  0  0  0
    2.5984   -0.6481   -8.8641 O   0  0  0  0  0  0  0  0  0  0  0  0
    7.2618    1.6865   -7.7023 O   0  0  0  0  0  0  0  0  0  0  0  0
    1.4878    1.6463   -2.2475 N   0  0  2  0  0  0  0  0  0  0  0  0
    3.4526    1.0613   -4.9153 C   0  0  1  0  0  0  0  0  0  0  0  0
    1.6536    1.1926   -5.2413 C   0  0  2  0  0  0  0  0  0  0  0  0
    1.9593    1.9367   -3.8085 C   0  0  2  0  0  0  0  0  0  0  0  0
    3.9510    1.4557   -3.0048 C   0  0  0  0  0  0  0  0  0  0  0  0
    2.6834    2.3790   -1.8821 C   0  0  0  0  0  0  0  0  0  0  0  0
    3.5204    0.3154   -6.7029 C   0  0  1  0  0  0  0  0  0  0  0  0
    4.2286    2.0901   -5.6974 C   0  0  0  0  0  0  0  0  0  0  0  0
    0.9163    0.4409   -2.7709 C   0  0  0  0  0  0  0  0  0  0  0  0
    3.1105    3.3196   -4.0747 C   0  0  0  0  0  0  0  0  0  0  0  0
    0.7129    0.2880   -6.4215 C   0  0  0  0  0  0  0  0  0  0  0  0
    1.8488   -0.9760   -3.1313 C   0  0  0  0  0  0  0  0  0  0  0  0
    4.3953    3.1182   -4.8832 C   0  0  0  0  0  0  0  0  0  0  0  0
    0.3327    1.9157   -1.3330 C   0  0  0  0  0  0  0  0  0  0  0  0
    0.9478    0.5457   -7.8250 C   0  0  0  0  0  0  0  0  0  0  0  0
    2.3590    0.0954   -7.8963 C   0  0  0  0  0  0  0  0  0  0  0  0
    5.1116    1.6817   -6.6941 C   0  0  0  0  0  0  0  0  0  0  0  0
    3.4247   -1.3636   -3.1770 C   0  0  0  0  0  0  0  0  0  0  0  0
    2.6571   -1.3594   -4.4248 C   0  0  0  0  0  0  0  0  0  0  0  0
    5.7670    3.2745   -4.6817 C   0  0  0  0  0  0  0  0  0  0  0  0
    6.3998    2.0907   -6.7393 C   0  0  0  0  0  0  0  0  0  0  0  0
    6.7611    2.8115   -5.6268 C   0  0  0  0  0  0  0  0  0  0  0  0
  2 21  1  0
  3 20  2  0
  4 25  1  0
  5  8  1  0
  5 10  1  0
  5 18  1  1
  5 13  1  0
  6  7  1  0
  6  9  1  1
  6 11  1  0
  6 12  1  0
  7  8  1  0
  7 15  1  0
  7  1  1  6
  8 14  1  1
  9 10  1  0
 11  2  1  6
 11 20  1  0
 12 17  1  0
 12 21  2  0
 13 16  1  0
 14 17  1  0
 15 19  1  0
 16 22  1  0
 16 23  1  0
 17 24  2  0
 19 20  1  0
 21 25  1  0
 22 23  1  0
 24 26  1  0
 25 26  2  0
M  CHG  1   5   1
M  END
>  <DRUGBANK_ID>  (1) 
DB06800

>  <COMMON_NAME>  (1) 
Methylnaltrexone

>  <CAS_NUMBER>  (1) 
916055-93-1

>  <UNII>  (1) 
0RK7M7IABE

>  <SYNONYMS>  (1) 
MNTX

$$$$
