C1E
     RDKit          3D

 17 17  0  0  0  0  0  0  0  0999 V2000
    0.8448   -0.1753    0.1634 O   0  0  0  0  0  0  0  0  0  0  0  0
    2.0593   -0.0601    0.1206 C   0  0  0  0  0  0  0  0  0  0  0  0
    2.7377    0.7089   -0.9402 C   0  0  0  0  0  0  0  0  0  0  0  0
    2.3777    1.4742   -1.9698 C   0  0  0  0  0  0  0  0  0  0  0  0
    3.3249    2.1375   -2.8861 C   0  0  0  0  0  0  0  0  0  0  0  0
    2.4116    3.0685   -4.1165 Cl  0  0  0  0  0  0  0  0  0  0  0  0
    4.6914    2.1963   -2.9677 C   0  0  0  0  0  0  0  0  0  0  0  0
    5.2083    2.9871   -4.0130 O   0  0  0  0  0  0  0  0  0  0  0  0
    5.7225    1.5131   -2.0555 C   0  0  0  0  0  0  0  0  0  0  0  0
    7.0225    1.7292   -2.3354 O   0  0  0  0  0  0  0  0  0  0  0  0
    5.5347    0.8035   -1.0991 O   0  0  0  0  0  0  0  0  0  0  0  0
    3.0036   -0.8078    1.0431 C   0  0  0  0  0  0  0  0  0  0  0  0
    2.6779   -2.1296    1.3438 C   0  0  0  0  0  0  0  0  0  0  0  0
    3.5515   -2.9259    2.0932 C   0  0  0  0  0  0  0  0  0  0  0  0
    4.7740   -2.4187    2.5320 C   0  0  0  0  0  0  0  0  0  0  0  0
    5.1290   -1.1105    2.2164 C   0  0  0  0  0  0  0  0  0  0  0  0
    4.2300   -0.2917    1.5153 C   0  0  0  0  0  0  0  0  0  0  0  0
  2  1  2  0
  2 12  1  0
  3  2  1  0
  4  3  2  0
  5  4  1  0
  6  5  1  0
  7  9  1  0
  7  5  2  0
  8  7  1  0
  9 10  1  0
 11  9  2  0
 12 13  2  0
 12 17  1  0
 13 14  1  0
 14 15  2  0
 16 15  1  0
 17 16  2  0
M  END
>  <DRUGBANK_ID>  (1) 
DB07516

>  <COMMON_NAME>  (1) 
(2Z,4E)-3-chloro-2-hydroxy-6-oxo-6-phenylhexa-2,4-dienoic acid

$$$$
