TQ4
     RDKit          3D

 20 22  0  0  0  0  0  0  0  0999 V2000
    0.0617    0.6318    0.0843 C   0  0  0  0  0  0  0  0  0  0  0  0
    0.0320   -0.7762    0.0674 C   0  0  0  0  0  0  0  0  0  0  0  0
    1.3151   -1.3586   -0.0076 C   0  0  0  0  0  0  0  0  0  0  0  0
    2.4512   -0.6543   -0.0396 N   0  0  0  0  0  0  0  0  0  0  0  0
    2.3442    0.6747    0.0004 C   0  0  0  0  0  0  0  0  0  0  0  0
    1.1907    1.3407    0.0821 N   0  0  0  0  0  0  0  0  0  0  0  0
    1.4754   -2.7194   -0.2708 N   0  0  0  0  0  0  0  0  0  0  0  0
   -1.1391    1.3259    0.0401 C   0  0  0  0  0  0  0  0  0  0  0  0
   -2.3538    0.6757   -0.1351 C   0  0  0  0  0  0  0  0  0  0  0  0
   -2.4061   -0.7074   -0.0324 C   0  0  0  0  0  0  0  0  0  0  0  0
   -1.2332   -1.4547    0.1150 C   0  0  0  0  0  0  0  0  0  0  0  0
    3.4962    1.3918   -0.0798 N   0  0  0  0  0  0  0  0  0  0  0  0
   -1.2730   -3.2384    0.4156 S   0  0  0  0  0  0  0  0  0  0  0  0
   -2.9510   -3.7544    0.4203 C   0  0  0  0  0  0  0  0  0  0  0  0
   -3.7701   -3.5736   -0.6927 C   0  0  0  0  0  0  0  0  0  0  0  0
   -5.1315   -3.8312   -0.5918 C   0  0  0  0  0  0  0  0  0  0  0  0
   -5.6511   -4.4096    0.5713 C   0  0  0  0  0  0  0  0  0  0  0  0
   -4.7897   -4.7577    1.6155 C   0  0  0  0  0  0  0  0  0  0  0  0
   -3.4516   -4.3855    1.5596 C   0  0  0  0  0  0  0  0  0  0  0  0
   -7.1283   -4.6038    0.7047 C   0  0  0  0  0  0  0  0  0  0  0  0
  1  2  1  0
  1  6  2  0
  1  8  1  0
  2  3  2  0
  2 11  1  0
  3  4  1  0
  3  7  1  0
  4  5  2  0
  5  6  1  0
  5 12  1  0
  8  9  2  0
  9 10  1  0
 10 11  2  0
 11 13  1  0
 13 14  1  0
 14 15  2  0
 14 19  1  0
 15 16  1  0
 16 17  2  0
 17 18  1  0
 17 20  1  0
 18 19  2  0
M  END
>  <DRUGBANK_ID>  (1) 
DB04306

>  <SECONDARY_ACCESSION_NUMBERS>  (1) 
EXPT03100

>  <COMMON_NAME>  (1) 
5-[(4-Methylphenyl)Sulfanyl]-2,4-Quinazolinediamine

$$$$
