
     RDKit          3D

  5  3  0  0  0  0  0  0  0  0999 V2000
    0.3489    0.3864    0.9023 C   0  0  0  0  0  0  0  0  0  0  0  0
   -0.2543    0.7414    1.9971 O   0  0  0  0  0  0  0  0  0  0  0  0
   -0.2327    0.0420   -0.1530 O   0  0  0  0  0  0  0  0  0  0  0  0
    1.6125    0.3400    1.0220 O   0  0  0  0  0  0  0  0  0  0  0  0
    1.9097   -0.5382   -1.0501 N   0  0  0  0  0  0  0  0  0  0  0  0
  1  2  1  0
  1  3  2  0
  1  4  1  0
M  CHG  2   4  -1   5   1
M  END
>  <DRUGBANK_ID>  (1) 
DB15925

>  <COMMON_NAME>  (1) 
Ammonium bicarbonate

>  <CAS_NUMBER>  (1) 
1066-33-7

>  <UNII>  (1) 
45JP4345C9

>  <SYNONYMS>  (1) 
Ammonium hydrogen carbonate; Carbonic acid, monoammonium salt; Monoammonium carbonate

$$$$
