398
     RDKit          3D

 32 34  0  0  0  0  0  0  0  0999 V2000
   -1.9829    0.5681    0.9804 Cl  0  0  0  0  0  0  0  0  0  0  0  0
   -0.1145    3.6634    0.9646 F   0  0  0  0  0  0  0  0  0  0  0  0
    0.0786    3.5868   -1.2091 F   0  0  0  0  0  0  0  0  0  0  0  0
   -1.6839    2.8036   -0.2570 F   0  0  0  0  0  0  0  0  0  0  0  0
   -1.7820   -2.8143   -0.3080 O   0  0  0  0  0  0  0  0  0  0  0  0
    5.6944   -1.2836    0.0792 O   0  0  0  0  0  0  0  0  0  0  0  0
   -3.2271   -0.4949   -5.6368 O   0  0  0  0  0  0  0  0  0  0  0  0
    3.8061   -0.0780    0.0066 N   0  0  0  0  0  0  0  0  0  0  0  0
    3.8300   -2.5335   -0.0264 N   0  0  0  0  0  0  0  0  0  0  0  0
   -3.8957   -0.2300   -2.9222 N   0  0  0  0  0  0  0  0  0  0  0  0
   -1.6321   -2.0285   -5.3215 N   0  0  0  0  0  0  0  0  0  0  0  0
    2.4600    0.2581    0.2806 C   0  0  0  0  0  0  0  0  0  0  0  0
    0.3954    1.5767    0.0442 C   0  0  0  0  0  0  0  0  0  0  0  0
    1.8249    1.4648   -0.0487 C   0  0  0  0  0  0  0  0  0  0  0  0
    2.5187   -2.9616   -0.4187 C   0  0  0  0  0  0  0  0  0  0  0  0
    1.6955   -0.6618    0.9499 C   0  0  0  0  0  0  0  0  0  0  0  0
   -0.3901   -3.0634   -0.5952 C   0  0  0  0  0  0  0  0  0  0  0  0
   -0.3377    0.4998    0.5188 C   0  0  0  0  0  0  0  0  0  0  0  0
    1.8405   -2.2994   -1.4299 C   0  0  0  0  0  0  0  0  0  0  0  0
    1.7503   -3.7988    0.4302 C   0  0  0  0  0  0  0  0  0  0  0  0
    0.3199   -0.6104    0.9627 C   0  0  0  0  0  0  0  0  0  0  0  0
    0.4210   -2.3064   -1.4723 C   0  0  0  0  0  0  0  0  0  0  0  0
    0.3147   -3.8722    0.3210 C   0  0  0  0  0  0  0  0  0  0  0  0
    4.4538   -1.2989    0.0025 C   0  0  0  0  0  0  0  0  0  0  0  0
   -0.3293    2.8803   -0.1259 C   0  0  0  0  0  0  0  0  0  0  0  0
   -2.5878   -1.9787   -1.0944 C   0  0  0  0  0  0  0  0  0  0  0  0
   -2.3687   -1.9527   -2.4392 C   0  0  0  0  0  0  0  0  0  0  0  0
   -2.9689   -1.1111   -3.3451 C   0  0  0  0  0  0  0  0  0  0  0  0
   -3.6600   -1.2038   -0.6802 C   0  0  0  0  0  0  0  0  0  0  0  0
   -4.2237   -0.2977   -1.6043 C   0  0  0  0  0  0  0  0  0  0  0  0
   -2.6089   -1.1979   -4.8019 C   0  0  0  0  0  0  0  0  0  0  0  0
   -0.6605   -2.9838   -4.7994 C   0  0  0  0  0  0  0  0  0  0  0  0
  1 18  1  0
  2 25  1  0
  3 25  1  0
  4 25  1  0
  5 17  1  0
  5 26  1  0
  6 24  2  0
  7 31  2  0
  8 12  1  0
  8 24  1  0
  9 15  1  0
  9 24  1  0
 10 28  2  0
 10 30  1  0
 11 31  1  0
 11 32  1  0
 12 14  1  0
 12 16  2  0
 13 14  2  0
 13 18  1  0
 13 25  1  0
 15 19  2  0
 15 20  1  0
 16 21  1  0
 17 22  2  0
 17 23  1  0
 18 21  2  0
 19 22  1  0
 20 23  2  0
 26 27  2  0
 26 29  1  0
 27 28  1  0
 28 31  1  0
 29 30  2  0
M  END
>  <DRUGBANK_ID>  (1) 
DB00398

>  <SECONDARY_ACCESSION_NUMBERS>  (1) 
APRD01304; DB07438

>  <COMMON_NAME>  (1) 
Sorafenib

>  <CAS_NUMBER>  (1) 
284461-73-0

>  <UNII>  (1) 
9ZOQ3TZI87

>  <SYNONYMS>  (1) 
4-(4-((((4-Chloro-3-(trifluoromethyl)phenyl)amino)carbonyl)amino)phenoxy)-N-methyl-2-pyridinecarboxamide; N-(4-Chloro-3-(trifluoromethyl)phenyl)-N'-(4-(2-(N-methylcarbamoyl)-4-pyridyloxy)phenyl)urea; Soraf√©nib; Sorafenib; Sorafenibum

$$$$
