
     RDKit          3D

 31 35  0  0  0  0  0  0  0  0999 V2000
   -1.5139    1.2142   -0.1433 N   0  0  0  0  0  0  0  0  0  0  0  0
   -2.2475    0.0756   -0.5112 C   0  0  0  0  0  0  0  0  0  0  0  0
   -1.2677   -0.9520   -0.6922 C   0  0  0  0  0  0  0  0  0  0  0  0
   -0.9398   -4.1650    3.0640 C   0  0  0  0  0  0  0  0  0  0  0  0
   -0.9460   -5.5010    3.1722 N   0  0  0  0  0  0  0  0  0  0  0  0
   -0.0131   -5.7582    4.1573 C   0  0  0  0  0  0  0  0  0  0  0  0
    0.6117   -4.2362    4.1522 C   0  0  0  0  0  0  0  0  0  0  0  0
    0.1096   -3.4616    2.6212 C   0  0  0  0  0  0  0  0  0  0  0  0
   -0.3607   -6.4749    5.3276 C   0  0  0  0  0  0  0  0  0  0  0  0
   -0.5435   -5.3482    6.0396 C   0  0  0  0  0  0  0  0  0  0  0  0
    0.6250   -4.7939    6.5022 C   0  0  0  0  0  0  0  0  0  0  0  0
    0.9793   -3.7503    5.6440 C   0  0  0  0  0  0  0  0  0  0  0  0
   -2.0945   -6.1009    2.5304 C   0  0  0  0  0  0  0  0  0  0  0  0
   -3.5745   -5.0566    2.2108 C   0  0  0  0  0  0  0  0  0  0  0  0
   -3.3112   -3.5581    1.9886 C   0  0  0  0  0  0  0  0  0  0  0  0
   -2.4905   -3.2311    0.6539 N   0  0  0  0  0  0  0  0  0  0  0  0
   -1.9280   -1.6628    1.5443 C   0  0  0  0  0  0  0  0  0  0  0  0
   -0.8325   -4.2931   -0.3409 C   0  0  0  0  0  0  0  0  0  0  0  0
   -0.8566   -3.4607    1.1300 C   0  0  0  0  0  0  0  0  0  0  0  0
   -2.2301   -4.9843    0.4292 C   0  0  0  0  0  0  0  0  0  0  0  0
   -2.8413   -4.5334   -0.9860 N   0  0  0  0  0  0  0  0  0  0  0  0
   -2.5613   -3.2163   -1.4502 C   0  0  0  0  0  0  0  0  0  0  0  0
   -1.2049   -2.4301   -0.3676 C   0  0  0  0  0  0  0  0  0  0  0  0
   -2.4688   -6.2120    0.3068 O   0  0  0  0  0  0  0  0  0  0  0  0
   -3.2658   -2.6710   -2.2935 O   0  0  0  0  0  0  0  0  0  0  0  0
   -0.1644    0.8860   -0.1339 C   0  0  0  0  0  0  0  0  0  0  0  0
   -0.0199   -0.4489   -0.4408 C   0  0  0  0  0  0  0  0  0  0  0  0
    1.1482   -1.1903   -0.1530 C   0  0  0  0  0  0  0  0  0  0  0  0
    2.3146   -0.5417   -0.0133 C   0  0  0  0  0  0  0  0  0  0  0  0
    2.2357    0.8363   -0.0068 C   0  0  0  0  0  0  0  0  0  0  0  0
    1.0172    1.5825    0.0357 C   0  0  0  0  0  0  0  0  0  0  0  0
  1  2  1  0
  2  3  2  0
  3 27  1  0
  4  5  1  0
  5  6  1  0
  5 13  1  0
  6  7  2  0
  6  9  1  0
  7  8  1  0
  8  4  2  0
  8 19  1  0
  9 10  2  0
 10 11  1  0
 11 12  2  0
 12  7  1  0
 13 14  1  0
 14 15  1  0
 15 16  1  0
 16 17  1  0
 16 18  1  0
 19 20  1  0
 20 21  1  0
 20 24  2  0
 21 22  1  0
 22 23  1  0
 22 25  2  0
 23 19  2  0
 23  3  1  0
 26 27  2  0
 26  1  1  0
 27 28  1  0
 28 29  2  0
 29 30  1  0
 30 31  2  0
 31 26  1  0
M  END
>  <DRUGBANK_ID>  (1) 
DB03777

>  <SECONDARY_ACCESSION_NUMBERS>  (1) 
EXPT00703

>  <COMMON_NAME>  (1) 
Bisindolylmaleimide I

>  <CAS_NUMBER>  (1) 
133052-90-1

>  <UNII>  (1) 
L79H6N0V6C

$$$$
