
     RDKit          3D

 30 34  0  0  0  0  0  0  0  0999 V2000
    2.4213    1.4637   -0.0418 C   0  0  0  0  0  0  0  0  0  0  0  0
    1.5565    0.3039   -0.0076 N   0  0  0  0  0  0  0  0  0  0  0  0
    1.9826   -0.9985   -0.0026 C   0  0  0  0  0  0  0  0  0  0  0  0
    0.8689   -1.8150   -0.0210 C   0  0  0  0  0  0  0  0  0  0  0  0
   -0.2817   -0.9688   -0.0275 C   0  0  0  0  0  0  0  0  0  0  0  0
    0.1783    0.3542    0.0013 C   0  0  0  0  0  0  0  0  0  0  0  0
   -0.6961    1.4534    0.0235 C   0  0  0  0  0  0  0  0  0  0  0  0
   -2.0691    1.2014    0.0064 C   0  0  0  0  0  0  0  0  0  0  0  0
   -2.5542   -0.1019   -0.0205 C   0  0  0  0  0  0  0  0  0  0  0  0
   -1.6754   -1.1920   -0.0301 C   0  0  0  0  0  0  0  0  0  0  0  0
    0.9211   -3.2379    0.0176 C   0  0  0  0  0  0  0  0  0  0  0  0
    1.4907   -4.0262    0.9478 C   0  0  0  0  0  0  0  0  0  0  0  0
    1.2884   -5.4319    0.5132 C   0  0  0  0  0  0  0  0  0  0  0  0
    1.6479   -6.4383    1.0932 O   0  0  0  0  0  0  0  0  0  0  0  0
    0.6098   -5.3989   -0.6546 N   0  0  0  0  0  0  0  0  0  0  0  0
    0.3339   -4.1275   -1.0154 C   0  0  0  0  0  0  0  0  0  0  0  0
   -0.2861   -3.7954   -2.0084 O   0  0  0  0  0  0  0  0  0  0  0  0
    2.1222   -3.6418    2.1676 C   0  0  0  0  0  0  0  0  0  0  0  0
    3.4438   -3.8683    2.4952 C   0  0  0  0  0  0  0  0  0  0  0  0
    3.6768   -3.3162    3.7312 N   0  0  0  0  0  0  0  0  0  0  0  0
    2.5221   -2.7426    4.2249 C   0  0  0  0  0  0  0  0  0  0  0  0
    1.5327   -2.9139    3.2503 C   0  0  0  0  0  0  0  0  0  0  0  0
    0.2465   -2.3828    3.4966 C   0  0  0  0  0  0  0  0  0  0  0  0
   -0.0190   -1.7091    4.6954 C   0  0  0  0  0  0  0  0  0  0  0  0
    0.9849   -1.5713    5.6563 C   0  0  0  0  0  0  0  0  0  0  0  0
    2.2750   -2.0832    5.4434 C   0  0  0  0  0  0  0  0  0  0  0  0
    0.6907   -0.8746    6.9173 N   0  0  0  0  0  0  0  0  0  0  0  0
   -0.4542   -0.4283    7.0794 O   0  0  0  0  0  0  0  0  0  0  0  0
    1.6063   -0.7725    7.7476 O   0  0  0  0  0  0  0  0  0  0  0  0
    4.9510   -3.3042    4.4200 C   0  0  0  0  0  0  0  0  0  0  0  0
  1  2  1  0
  2  3  1  0
  2  6  1  0
  3  4  2  0
  4  5  1  0
  4 11  1  0
  5  6  2  0
  5 10  1  0
  6  7  1  0
  7  8  2  0
  8  9  1  0
  9 10  2  0
 11 12  2  0
 11 16  1  0
 12 13  1  0
 12 18  1  0
 13 14  2  0
 13 15  1  0
 15 16  1  0
 16 17  2  0
 18 19  2  0
 18 22  1  0
 19 20  1  0
 20 21  1  0
 20 30  1  0
 21 22  2  0
 21 26  1  0
 22 23  1  0
 23 24  2  0
 24 25  1  0
 25 26  2  0
 25 27  1  0
 27 28  2  0
 27 29  1  0
M  CHG  2  27   1  29  -1
M  END
>  <DRUGBANK_ID>  (1) 
DB05608

>  <COMMON_NAME>  (1) 
MKC-1

>  <CAS_NUMBER>  (1) 
125313-92-0

>  <UNII>  (1) 
DNZ11VPY7Q

$$$$
