
     RDKit          3D

 33 34  0  0  0  0  0  0  0  0999 V2000
    1.0672   -0.1252    0.2691 O   0  0  0  0  0  0  0  0  0  0  0  0
    3.0370    0.6776    0.9023 O   0  0  0  0  0  0  0  0  0  0  0  0
    3.0724   -0.7042   -2.0731 C   0  0  0  0  0  0  0  0  0  0  0  0
    3.2256   -1.1373   -0.6364 C   0  0  1  0  0  0  0  0  0  0  0  0
    2.4364   -0.1625    0.2738 C   0  0  0  0  0  0  0  0  0  0  0  0
    2.6923    1.7317   -2.1116 C   0  0  0  0  0  0  0  0  0  0  0  0
    2.8895    2.9482   -2.7087 C   0  0  0  0  0  0  0  0  0  0  0  0
    3.6468    3.0323   -3.8729 C   0  0  0  0  0  0  0  0  0  0  0  0
    4.1985    1.9160   -4.4837 C   0  0  0  0  0  0  0  0  0  0  0  0
    4.0236    0.6986   -3.8745 C   0  0  0  0  0  0  0  0  0  0  0  0
    3.2953    0.6234   -2.6579 C   0  0  0  0  0  0  0  0  0  0  0  0
    3.8352    4.2307   -4.4267 F   0  0  0  0  0  0  0  0  0  0  0  0
    2.8466   -2.5409   -0.3445 N   0  0  0  0  0  0  0  0  0  0  0  0
    1.9016   -4.5330   -0.3903 O   0  0  0  0  0  0  0  0  0  0  0  0
    3.2651   -3.2302   -3.3876 C   0  0  0  0  0  0  0  0  0  0  0  0
    2.0143   -3.5475   -2.5873 C   0  0  1  0  0  0  0  0  0  0  0  0
    2.2573   -3.5534   -1.0481 C   0  0  0  0  0  0  0  0  0  0  0  0
    3.7975   -5.5810   -3.3516 C   0  0  0  0  0  0  0  0  0  0  0  0
    4.6914   -6.5680   -3.1757 C   0  0  0  0  0  0  0  0  0  0  0  0
    6.0117   -6.2700   -2.8586 C   0  0  0  0  0  0  0  0  0  0  0  0
    6.4050   -4.9289   -2.7514 C   0  0  0  0  0  0  0  0  0  0  0  0
    5.5770   -3.9288   -3.1196 C   0  0  0  0  0  0  0  0  0  0  0  0
    4.2559   -4.2914   -3.3570 C   0  0  0  0  0  0  0  0  0  0  0  0
    6.9357   -7.2710   -2.6884 N   0  0  0  0  0  0  0  0  0  0  0  0
    8.7461   -9.9507   -3.3961 Cl  0  0  0  0  0  0  0  0  0  0  0  0
    7.0149   -9.5824   -3.5659 C   0  0  0  0  0  0  0  0  0  0  0  0
    6.4868   -8.6501   -2.4866 C   0  0  0  0  0  0  0  0  0  0  0  0
    9.0629   -6.4574   -3.7812 C   0  0  0  0  0  0  0  0  0  0  0  0
    8.3251   -6.8645   -2.4739 C   0  0  0  0  0  0  0  0  0  0  0  0
    8.6998   -4.9298   -4.6504 Cl  0  0  0  0  0  0  0  0  0  0  0  0
    0.7952   -2.9018   -3.0447 N   0  0  0  0  0  0  0  0  0  0  0  0
   -0.0910   -0.3425   -1.9136 C   0  0  0  0  0  0  0  0  0  0  0  0
    0.0907   -0.8732   -0.4961 C   0  0  0  0  0  0  0  0  0  0  0  0
  4  3  1  6
  4  5  1  0
  5  1  1  0
  5  2  2  0
  7  6  2  0
  8  7  1  0
  9  8  2  0
 10  9  1  0
 11  3  1  0
 11  6  1  0
 11 10  2  0
 12  8  1  0
 13  4  1  0
 16 31  1  1
 16 15  1  0
 17 13  1  0
 17 14  2  0
 17 16  1  0
 19 18  2  0
 20 19  1  0
 21 20  2  0
 22 21  1  0
 23 15  1  0
 23 18  1  0
 23 22  2  0
 24 20  1  0
 26 25  1  0
 27 24  1  0
 27 26  1  0
 29 24  1  0
 29 28  1  0
 30 28  1  0
 33  1  1  0
 33 32  1  0
M  END
>  <DRUGBANK_ID>  (1) 
DB16627

>  <COMMON_NAME>  (1) 
Melphalan flufenamide

>  <CAS_NUMBER>  (1) 
380449-51-4

>  <UNII>  (1) 
F70C5K4786

>  <SYNONYMS>  (1) 
Melflufen; Melphalan flufenamide; MFF

$$$$
