
     RDKit          3D

 30 34  0  0  0  0  0  0  0  0999 V2000
    2.5007    0.0414   -0.0639 C   0  0  0  0  0  0  0  0  0  0  0  0
    0.9947   -0.0163   -0.0386 C   0  0  0  0  0  0  0  0  0  0  0  0
    0.2978    1.2044   -0.0141 C   0  0  0  0  0  0  0  0  0  0  0  0
   -1.0930    1.2434   -0.0149 C   0  0  0  0  0  0  0  0  0  0  0  0
   -1.7974    0.0400   -0.0432 C   0  0  0  0  0  0  0  0  0  0  0  0
   -1.1157   -1.1864   -0.0716 C   0  0  0  0  0  0  0  0  0  0  0  0
    0.2861   -1.2391   -0.0605 C   0  0  0  0  0  0  0  0  0  0  0  0
    0.9344   -2.4607    0.0517 N   0  0  0  0  0  0  0  0  0  0  0  0
    0.9391   -3.5194   -0.9567 C   0  0  0  0  0  0  0  0  0  0  0  0
    1.9266   -4.6219   -0.4564 C   0  0  0  0  0  0  0  0  0  0  0  0
    2.4403   -4.0550    0.8313 C   0  0  0  0  0  0  0  0  0  0  0  0
    1.8267   -2.8404    1.0738 C   0  0  0  0  0  0  0  0  0  0  0  0
    2.0300   -2.0919    2.1768 N   0  0  0  0  0  0  0  0  0  0  0  0
    2.9235   -2.5172    3.0850 C   0  0  0  0  0  0  0  0  0  0  0  0
    3.5596   -3.7465    2.9530 C   0  0  0  0  0  0  0  0  0  0  0  0
    3.3073   -4.5291    1.8084 C   0  0  0  0  0  0  0  0  0  0  0  0
    3.9289   -5.7889    1.7019 N   0  0  0  0  0  0  0  0  0  0  0  0
    3.8697   -6.8026    2.6304 C   0  0  0  0  0  0  0  0  0  0  0  0
    4.5667   -7.8612    2.0948 C   0  0  0  0  0  0  0  0  0  0  0  0
    5.1114   -7.3646    0.8911 C   0  0  0  0  0  0  0  0  0  0  0  0
    4.6666   -6.1298    0.6272 N   0  0  0  0  0  0  0  0  0  0  0  0
    5.9109   -8.0553    0.0080 N   0  0  0  0  0  0  0  0  0  0  0  0
    5.6986   -9.3729   -0.5379 C   0  0  0  0  0  0  0  0  0  0  0  0
    6.6941   -9.3936   -1.6922 C   0  0  0  0  0  0  0  0  0  0  0  0
    7.7468   -8.5541   -1.1954 N   0  0  0  0  0  0  0  0  0  0  0  0
    7.2295   -7.6519   -0.2612 C   0  0  0  0  0  0  0  0  0  0  0  0
    7.8868   -6.7455    0.2339 O   0  0  0  0  0  0  0  0  0  0  0  0
    3.1975   -1.5785    4.2244 C   0  0  0  0  0  0  0  0  0  0  0  0
   -1.8442    2.3891    0.0103 O   0  0  0  0  0  0  0  0  0  0  0  0
   -1.1165    3.6168    0.0289 C   0  0  0  0  0  0  0  0  0  0  0  0
  1  2  1  0
  2  3  2  0
  2  7  1  0
  3  4  1  0
  4  5  2  0
  4 29  1  0
  5  6  1  0
  6  7  2  0
  7  8  1  0
  8  9  1  0
  8 12  1  0
  9 10  1  0
 10 11  1  0
 11 12  2  0
 11 16  1  0
 12 13  1  0
 13 14  2  0
 14 15  1  0
 14 28  1  0
 15 16  2  0
 16 17  1  0
 17 18  1  0
 17 21  1  0
 18 19  2  0
 19 20  1  0
 20 21  2  0
 20 22  1  0
 22 23  1  0
 22 26  1  0
 23 24  1  0
 24 25  1  0
 25 26  1  0
 26 27  2  0
 29 30  1  0
M  END
>  <DRUGBANK_ID>  (1) 
DB12910

>  <COMMON_NAME>  (1) 
Emicerfont

>  <CAS_NUMBER>  (1) 
786701-13-1

>  <UNII>  (1) 
OJ8EG4264P

>  <SYNONYMS>  (1) 
Emicerfont

$$$$
