
     RDKit          3D

 12 11  0  0  0  0  0  0  0  0999 V2000
    1.0279    0.0181   -0.0210 C   0  0  0  0  0  0  0  0  0  0  0  0
    0.5535   -0.3650   -1.3979 C   0  0  0  0  0  0  0  0  0  0  0  0
    0.9069    0.3931   -2.4679 N   0  0  0  0  0  0  0  0  0  0  0  0
    1.7549    1.5605   -2.4424 C   0  0  0  0  0  0  0  0  0  0  0  0
    2.9951    1.3280   -3.2995 C   0  0  0  0  0  0  0  0  0  0  0  0
    2.6756    1.2164   -4.7968 C   0  0  0  0  0  0  0  0  0  0  0  0
    1.9407    2.4462   -5.3583 C   0  0  1  0  0  0  0  0  0  0  0  0
    2.7753    3.7345   -5.1888 C   0  0  0  0  0  0  0  0  0  0  0  0
    3.0933    4.3667   -6.3397 O   0  0  0  0  0  0  0  0  0  0  0  0
   -0.1906   -1.4056   -1.5896 N   0  0  0  0  0  0  0  0  0  0  0  0
    3.1276    4.1827   -4.1033 O   0  0  0  0  0  0  0  0  0  0  0  0
    1.5781    2.2005   -6.7641 N   0  0  0  0  0  0  0  0  0  0  0  0
  1  2  1  0
  2 10  2  0
  2  3  1  0
  3  4  1  0
  4  5  1  0
  5  6  1  0
  6  7  1  0
  7  8  1  0
  7 12  1  6
  8  9  1  0
  8 11  2  0
M  END
>  <DRUGBANK_ID>  (1) 
DB03305

>  <SECONDARY_ACCESSION_NUMBERS>  (1) 
EXPT01862

>  <COMMON_NAME>  (1) 
N(G)-Iminoethylornithine

>  <CAS_NUMBER>  (1) 
36889-13-1

>  <UNII>  (1) 
XQ6P9GL3YT

>  <SYNONYMS>  (1) 
L-NIO; N(G)-Iminoethylornithine; N5-(1-Iminoethyl)-L-ornithine

$$$$
