NDT
     RDKit          3D

 21 23  0  0  0  0  0  0  0  0999 V2000
    0.0030   -0.6900    0.0610 C   0  0  0  0  0  0  0  0  0  0  0  0
    0.0150    0.7190    0.0820 C   0  0  0  0  0  0  0  0  0  0  0  0
   -1.2080    1.3750    0.1640 C   0  0  0  0  0  0  0  0  0  0  0  0
   -2.3300    0.6260   -0.2650 C   0  0  0  0  0  0  0  0  0  0  0  0
   -2.3180   -0.7290   -0.0250 C   0  0  0  0  0  0  0  0  0  0  0  0
   -1.1880   -1.3590    0.1280 C   0  0  0  0  0  0  0  0  0  0  0  0
    1.2210   -1.3550   -0.0280 C   0  0  0  0  0  0  0  0  0  0  0  0
    2.3340   -0.6320   -0.0850 N   0  0  0  0  0  0  0  0  0  0  0  0
    2.3010    0.6850   -0.0590 N   0  0  0  0  0  0  0  0  0  0  0  0
    1.1670    1.3600    0.0230 B   0  0  0  0  0  0  0  0  0  0  0  0
    1.1901    2.8596    0.0491 O   0  0  0  0  0  0  0  0  0  0  0  0
    3.8172    1.5755   -0.1360 S   0  0  0  0  0  0  0  0  0  0  0  0
    3.8163    2.4784   -1.3717 O   0  0  0  0  0  0  0  0  0  0  0  0
    3.9696    2.4330    1.1224 O   0  0  0  0  0  0  0  0  0  0  0  0
    5.1972    0.4091   -0.2421 C   0  0  0  0  0  0  0  0  0  0  0  0
    5.2852   -0.5044   -1.3293 C   0  0  0  0  0  0  0  0  0  0  0  0
    6.1765   -1.5868   -1.2493 C   0  0  0  0  0  0  0  0  0  0  0  0
    7.0978   -1.6046   -0.3315 C   0  0  0  0  0  0  0  0  0  0  0  0
    7.2097   -0.5396    0.5722 C   0  0  0  0  0  0  0  0  0  0  0  0
    6.1480    0.3896    0.6936 C   0  0  0  0  0  0  0  0  0  0  0  0
    8.0544   -2.7822   -0.2390 C   0  0  0  0  0  0  0  0  0  0  0  0
  1  2  1  0
  1  6  2  0
  1  7  1  0
  2  3  2  0
  2 10  1  0
  3  4  1  0
  4  5  2  0
  5  6  1  0
  7  8  2  0
  8  9  1  0
  9 10  1  0
  9 12  1  0
 10 11  1  0
 12 13  2  0
 12 14  2  0
 12 15  1  0
 15 16  2  0
 15 20  1  0
 16 17  1  0
 17 18  2  0
 18 19  1  0
 18 21  1  0
 19 20  2  0
M  END
>  <DRUGBANK_ID>  (1) 
DB08265

>  <COMMON_NAME>  (1) 
2-(TOLUENE-4-SULFONYL)-2H-BENZO[D][1,2,3]DIAZABORININ-1-OL

>  <UNII>  (1) 
YEB3W2L5P3

$$$$
