
     RDKit          3D

 10 10  0  0  0  0  0  0  0  0999 V2000
    1.3211   -0.2195    0.1145 C   0  0  0  0  0  0  0  0  0  0  0  0
    0.4530   -1.3125    0.0169 C   0  0  0  0  0  0  0  0  0  0  0  0
    0.7670    1.0677    0.1921 C   0  0  0  0  0  0  0  0  0  0  0  0
    2.8187   -0.4314    0.1834 C   0  0  0  0  0  0  0  0  0  0  0  0
   -0.9306   -1.1172   -0.0303 C   0  0  0  0  0  0  0  0  0  0  0  0
   -0.6103    1.2660    0.1082 C   0  0  0  0  0  0  0  0  0  0  0  0
    3.6217    0.0939   -1.0309 C   0  0  0  0  0  0  0  0  0  0  0  0
   -1.4589    0.1729   -0.0022 C   0  0  0  0  0  0  0  0  0  0  0  0
    3.5049    1.6041   -1.2387 C   0  0  0  0  0  0  0  0  0  0  0  0
    5.0467   -0.2282   -0.8486 N   0  0  0  0  0  0  0  0  0  0  0  0
  1  2  2  0
  1  3  1  0
  1  4  1  0
  2  5  1  0
  3  6  2  0
  4  7  1  0
  5  8  2  0
  6  8  1  0
  7  9  1  0
  7 10  1  0
M  END
>  <DRUGBANK_ID>  (1) 
DB00182

>  <SECONDARY_ACCESSION_NUMBERS>  (1) 
APRD00480

>  <COMMON_NAME>  (1) 
Amphetamine

>  <CAS_NUMBER>  (1) 
300-62-9

>  <UNII>  (1) 
CK833KGX7E

>  <SYNONYMS>  (1) 
(+-)-alpha-Methylphenylethylamine; 1-phenyl-2-aminopropane; alpha-Methylbenzeneethaneamine; Amfetamina; Amfetamine; Amfetaminum; Amphetamine; beta-Aminopropylbenzene; beta-Phenylisopropylamin; Desoxynorephedrine; rac-(2R)-1-phenylpropan-2-amine; rac-amphetamine; α-methylbenzeneethaneamine; α-methylphenethylamine; β-aminopropylbenzene; β-phenylisopropylamine

$$$$
