639
     RDKit          3D

 25 27  0  0  1  0  0  0  0  0999 V2000
   -1.3800   -0.1056    1.8560 Cl  0  0  0  0  0  0  0  0  0  0  0  0
    3.0785    0.7248   -0.1205 Cl  0  0  0  0  0  0  0  0  0  0  0  0
   -4.8225   -1.0237    3.7814 Cl  0  0  0  0  0  0  0  0  0  0  0  0
    0.1916    2.3570   -0.1084 S   0  0  0  0  0  0  0  0  0  0  0  0
   -1.5647    3.3874    2.5151 N   0  0  0  0  0  0  0  0  0  0  0  0
   -0.6558    3.3158    4.5437 N   0  0  0  0  0  0  0  0  0  0  0  0
   -1.6043    2.9488   -0.0466 C   0  0  0  0  0  0  0  0  0  0  0  0
   -2.5100    2.5468   -1.2706 C   0  0  0  0  0  0  0  0  0  0  0  0
   -2.2877    2.9463    1.3410 C   0  0  0  0  0  0  0  0  0  0  0  0
   -2.9620    1.0750   -1.4639 C   0  0  0  0  0  0  0  0  0  0  0  0
   -3.8508    0.4711   -0.3764 C   0  0  0  0  0  0  0  0  0  0  0  0
    0.3336    0.5579   -0.0504 C   0  0  0  0  0  0  0  0  0  0  0  0
   -1.6092    4.6622    3.0020 C   0  0  0  0  0  0  0  0  0  0  0  0
   -1.0344    2.6078    3.5043 C   0  0  0  0  0  0  0  0  0  0  0  0
   -4.5686    1.2722    0.5145 C   0  0  0  0  0  0  0  0  0  0  0  0
   -3.8128   -0.9040   -0.1002 C   0  0  0  0  0  0  0  0  0  0  0  0
   -1.0148    4.5918    4.2400 C   0  0  0  0  0  0  0  0  0  0  0  0
   -4.8673    0.8123    1.8080 C   0  0  0  0  0  0  0  0  0  0  0  0
   -4.1523   -1.3871    1.1814 C   0  0  0  0  0  0  0  0  0  0  0  0
   -0.6939   -0.3073    0.2861 C   0  0  0  0  0  0  0  0  0  0  0  0
    1.5663   -0.1138   -0.1657 C   0  0  0  0  0  0  0  0  0  0  0  0
   -4.6283   -0.5106    2.1509 C   0  0  0  0  0  0  0  0  0  0  0  0
   -0.7106   -1.6760   -0.0021 C   0  0  0  0  0  0  0  0  0  0  0  0
    1.6348   -1.5290   -0.1537 C   0  0  0  0  0  0  0  0  0  0  0  0
    0.4982   -2.3153   -0.1573 C   0  0  0  0  0  0  0  0  0  0  0  0
  1 20  1  0
  2 21  1  0
  3 22  1  0
  4  7  1  0
  4 12  1  0
  5  9  1  0
  5 13  1  0
  5 14  1  0
  6 14  2  0
  6 17  1  0
  7  8  1  0
  7  9  1  0
  8 10  1  0
 10 11  1  0
 11 15  2  0
 11 16  1  0
 12 20  2  0
 12 21  1  0
 13 17  2  0
 15 18  1  0
 16 19  2  0
 18 22  2  0
 19 22  1  0
 20 23  1  0
 21 24  2  0
 23 25  2  0
 24 25  1  0
M  END
>  <DRUGBANK_ID>  (1) 
DB00639

>  <SECONDARY_ACCESSION_NUMBERS>  (1) 
APRD00834

>  <COMMON_NAME>  (1) 
Butoconazole

>  <CAS_NUMBER>  (1) 
64872-76-0

>  <UNII>  (1) 
0Q771797PH

>  <SYNONYMS>  (1) 
1-[4-(4-Chloro-phenyl)-2-(2,6-dichloro-phenylsulfanyl)-butyl]-1H-imidazole; Butoconazol; Butoconazole; Butoconazolum

$$$$
