700
     RDKit          3D

 30 33  0  0  0  0  0  0  0  0999 V2000
    1.0355   -0.2150   -0.1084 C   0  0  0  0  0  0  0  0  0  0  0  0
    0.6046    0.5517   -1.3448 C   0  0  0  0  0  0  0  0  0  0  0  0
    0.0424   -0.0759   -2.4583 C   0  0  0  0  0  0  0  0  0  0  0  0
   -0.5015    0.6603   -3.5100 C   0  0  0  0  0  0  0  0  0  0  0  0
   -0.3774    2.0424   -3.5268 C   0  0  0  0  0  0  0  0  0  0  0  0
    0.2952    2.6841   -2.4903 C   0  0  0  0  0  0  0  0  0  0  0  0
    0.7668    1.9479   -1.3962 C   0  0  0  0  0  0  0  0  0  0  0  0
    0.6544   -1.7228    0.0442 C   0  0  1  0  0  0  0  0  0  0  0  0
    1.2907   -2.3006    1.3353 C   0  0  0  0  0  0  0  0  0  0  0  0
    0.6321   -2.6353    2.3157 O   0  0  0  0  0  0  0  0  0  0  0  0
    2.6635   -2.4791    1.2574 N   0  0  0  0  0  0  0  0  0  0  0  0
    3.6420   -1.4046    1.4912 C   0  0  0  0  0  0  0  0  0  0  0  0
    4.2486   -2.2495    2.6082 C   0  0  0  0  0  0  0  0  0  0  0  0
    5.7757   -2.4279    2.6309 C   0  0  0  0  0  0  0  0  0  0  0  0
    6.5382   -2.2375    3.5703 O   0  0  0  0  0  0  0  0  0  0  0  0
    6.3030   -2.8438    1.4537 O   0  0  0  0  0  0  0  0  0  0  0  0
    3.4020   -3.4173    2.1122 C   0  0  0  0  0  0  0  0  0  0  0  0
   -0.7925   -1.9383    0.1872 N   0  0  0  0  0  0  0  0  0  0  0  0
   -1.7092   -2.1463   -0.8306 C   0  0  0  0  0  0  0  0  0  0  0  0
   -2.8945   -1.2918   -0.6511 C   0  0  0  0  0  0  0  0  0  0  0  0
   -2.7961    0.0940   -0.4767 C   0  0  0  0  0  0  0  0  0  0  0  0
   -2.8128    0.1524    0.9516 C   0  0  0  0  0  0  0  0  0  0  0  0
   -3.6397   -0.8959    1.3682 C   0  0  0  0  0  0  0  0  0  0  0  0
   -3.8975   -1.1818    2.7070 C   0  0  0  0  0  0  0  0  0  0  0  0
   -3.0699   -0.5274    3.6305 C   0  0  0  0  0  0  0  0  0  0  0  0
   -2.1295    0.4249    3.2244 C   0  0  0  0  0  0  0  0  0  0  0  0
   -0.9610    1.0056    4.3498 Cl  0  0  0  0  0  0  0  0  0  0  0  0
   -2.0463    0.8475    1.8973 C   0  0  0  0  0  0  0  0  0  0  0  0
   -3.9860   -1.5386    0.1855 N   0  0  0  0  0  0  0  0  0  0  0  0
   -1.5012   -2.8576   -1.7948 O   0  0  0  0  0  0  0  0  0  0  0  0
  1  2  1  0
  8  1  1  1
  2  3  2  0
  2  7  1  0
  3  4  1  0
  4  5  2  0
  5  6  1  0
  6  7  2  0
  8  9  1  0
  8 18  1  0
  9 10  2  0
  9 11  1  0
 11 12  1  0
 11 17  1  0
 12 13  1  0
 13 14  1  0
 13 17  1  0
 14 15  2  0
 14 16  1  0
 18 19  1  0
 19 20  1  0
 19 30  2  0
 20 21  2  0
 20 29  1  0
 21 22  1  0
 22 23  2  0
 22 28  1  0
 23 24  1  0
 23 29  1  0
 24 25  2  0
 25 26  1  0
 26 27  1  0
 26 28  2  0
M  END
>  <DRUGBANK_ID>  (1) 
DB03744

>  <SECONDARY_ACCESSION_NUMBERS>  (1) 
EXPT00293

>  <COMMON_NAME>  (1) 
Cp403700, (S)-1-{2-[(5-Chloro-1h-Indole-2-Carbonyl)-Amino]-3-Phenyl-Propionyl}-Azetidine-3-Carboxylate

$$$$
