XX4
     RDKit          3D

 31 34  0  0  0  0  0  0  0  0999 V2000
    0.7566   -0.0121   -0.3474 C   0  0  0  0  0  0  0  0  0  0  0  0
   -0.0303   -1.2514   -0.6833 N   0  0  0  0  0  0  0  0  0  0  0  0
    0.6476   -1.9710   -1.7192 C   0  0  0  0  0  0  0  0  0  0  0  0
    1.5239   -1.4534   -2.4138 O   0  0  0  0  0  0  0  0  0  0  0  0
    0.3516   -3.4557   -1.8953 C   0  0  0  0  0  0  0  0  0  0  0  0
    1.1128   -4.5542   -0.9984 C   0  0  0  0  0  0  0  0  0  0  0  0
    1.3349   -4.4550    0.5819 N   0  0  0  0  0  0  0  0  0  0  0  0
    1.8289   -3.0622    1.0957 C   0  0  0  0  0  0  0  0  0  0  0  0
    1.5198   -2.5536    2.6381 C   0  0  0  0  0  0  0  0  0  0  0  0
    1.2808   -1.0417    3.1353 C   0  0  0  0  0  0  0  0  0  0  0  0
    0.5263   -0.4969    4.2980 C   0  0  0  0  0  0  0  0  0  0  0  0
   -0.0538    0.9898    4.4462 C   0  0  0  0  0  0  0  0  0  0  0  0
   -0.6405    1.3940    5.3931 O   0  0  0  0  0  0  0  0  0  0  0  0
    0.2823    1.9854    3.3563 C   0  0  0  0  0  0  0  0  0  0  0  0
   -0.4599    2.1807    2.1857 C   0  0  0  0  0  0  0  0  0  0  0  0
    0.1429    2.8300    1.0914 C   0  0  0  0  0  0  0  0  0  0  0  0
    1.3987    3.4137    1.2312 C   0  0  0  0  0  0  0  0  0  0  0  0
    2.0222    3.4072    2.4751 C   0  0  0  0  0  0  0  0  0  0  0  0
    1.4913    2.6489    3.5205 C   0  0  0  0  0  0  0  0  0  0  0  0
    0.0721   -1.4556    5.1796 C   0  0  0  0  0  0  0  0  0  0  0  0
    0.3639   -2.8816    4.8183 C   0  0  0  0  0  0  0  0  0  0  0  0
    1.1060   -3.5404    3.5140 C   0  0  0  0  0  0  0  0  0  0  0  0
    0.9459   -5.0667    2.9350 N   0  0  0  0  0  0  0  0  0  0  0  0
    0.9238   -5.3955    1.5882 C   0  0  0  0  0  0  0  0  0  0  0  0
    0.1311   -6.4951    1.0631 N   0  0  0  0  0  0  0  0  0  0  0  0
   -1.3261   -1.7877    0.2771 C   0  0  0  0  0  0  0  0  0  0  0  0
   -1.2015   -1.2891    1.7124 C   0  0  0  0  0  0  0  0  0  0  0  0
   -1.8497   -2.1669    2.9695 C   0  0  0  0  0  0  0  0  0  0  0  0
   -1.7006   -3.6929    3.2428 C   0  0  0  0  0  0  0  0  0  0  0  0
   -1.5861   -4.0879    1.8285 C   0  0  0  0  0  0  0  0  0  0  0  0
   -1.3100   -3.2676    0.5701 C   0  0  0  0  0  0  0  0  0  0  0  0
  1  2  1  0
  2 26  1  0
  2  3  1  0
  3  4  2  0
  3  5  1  0
  5  6  1  0
  6  7  1  0
  7 24  1  0
  7  8  1  0
  8  9  1  0
  9 10  2  0
  9 22  1  0
 10 11  1  0
 11 12  1  0
 11 20  2  0
 12 14  1  0
 12 13  2  0
 14 15  2  0
 14 19  1  0
 15 16  1  0
 16 17  2  0
 17 18  1  0
 18 19  2  0
 20 21  1  0
 21 22  2  0
 22 23  1  0
 23 24  2  0
 24 25  1  0
 26 27  1  0
 26 31  1  0
 27 28  1  0
 28 29  1  0
 29 30  1  0
 30 31  1  0
M  END
>  <DRUGBANK_ID>  (1) 
DB08749

>  <COMMON_NAME>  (1) 
3-(2-AMINO-6-BENZOYLQUINAZOLIN-3(4H)-YL)-N-CYCLOHEXYL-N-METHYLPROPANAMIDE

$$$$
