
     RDKit          3D

 20 20  0  0  0  0  0  0  0  0999 V2000
    0.9483   -0.0856    0.0021 P   0  0  2  0  0  0  0  0  0  0  0  0
    0.8850    1.3346    0.8028 O   0  0  0  0  0  0  0  0  0  0  0  0
    1.0701    0.4332   -1.5630 O   0  0  0  0  0  0  0  0  0  0  0  0
   -0.6001   -0.0856    0.0021 O   0  0  0  0  0  0  0  0  0  0  0  0
   -0.6236    0.3034    2.6965 C   0  0  1  0  0  0  0  0  0  0  0  0
    3.5422    1.2340    0.4043 C   0  0  0  0  0  0  0  0  0  0  0  0
    2.7783   -0.0856    0.0021 C   0  0  0  0  0  0  0  0  0  0  0  0
    3.4410    1.6207    1.8633 C   0  0  0  0  0  0  0  0  0  0  0  0
    0.4071    1.3186    2.1542 C   0  0  0  0  0  0  0  0  0  0  0  0
   -0.5401   -1.2410    2.3301 C   0  0  0  0  0  0  0  0  0  0  0  0
    3.7893    0.4362    2.7214 C   0  0  0  0  0  0  0  0  0  0  0  0
   -0.5786    0.3975    4.2440 C   0  0  0  0  0  0  0  0  0  0  0  0
    5.2603    0.1982    2.8731 C   0  0  0  0  0  0  0  0  0  0  0  0
    0.6687   -2.0742    2.6892 C   0  0  0  0  0  0  0  0  0  0  0  0
    5.7504    1.3668    3.6810 C   0  0  0  0  0  0  0  0  0  0  0  0
    1.7377   -1.5159    3.3777 C   0  0  0  0  0  0  0  0  0  0  0  0
    0.7982   -3.4055    2.3716 C   0  0  0  0  0  0  0  0  0  0  0  0
    2.8741   -2.2262    3.7657 C   0  0  0  0  0  0  0  0  0  0  0  0
    1.9224   -4.1508    2.7909 C   0  0  0  0  0  0  0  0  0  0  0  0
    2.9959   -3.5258    3.4402 C   0  0  0  0  0  0  0  0  0  0  0  0
  1  2  1  0
  1  3  1  0
  1  4  2  0
  1  7  1  0
  2  9  1  0
  5  9  1  0
  5 10  1  0
  5 12  1  1
  6  7  1  0
  6  8  1  0
  8 11  1  0
 10 14  1  0
 11 13  1  0
 13 15  1  0
 14 16  2  0
 14 17  1  0
 16 18  1  0
 17 19  2  0
 18 20  2  0
 19 20  1  0
M  END
>  <DRUGBANK_ID>  (1) 
DB06965

>  <COMMON_NAME>  (1) 
Hexylphosphonic acid (R)-2-methyl-3-phenylpropyl ester

$$$$
