
     RDKit          3D

 33 35  0  0  1  0  0  0  0  0999 V2000
    7.1549    0.5277    0.3406 C   0  0  0  0  0  0  0  0  0  0  0  0
    6.9458    0.2730   -1.6227 C   0  0  1  0  0  0  0  0  0  0  0  0
    5.7233    0.9553   -2.8082 C   0  0  0  0  0  0  0  0  0  0  0  0
    6.1006    1.7446   -3.6894 O   0  0  0  0  0  0  0  0  0  0  0  0
    4.3246    0.6688   -2.7637 N   0  0  0  0  0  0  0  0  0  0  0  0
    3.3201   -0.0858   -1.8217 C   0  0  1  0  0  0  0  0  0  0  0  0
    3.9426   -1.1339   -0.8872 C   0  0  0  0  0  0  0  0  0  0  0  0
    3.7075   -2.7097   -0.8311 C   0  0  0  0  0  0  0  0  0  0  0  0
    4.5792   -3.7388    0.0460 C   0  0  0  0  0  0  0  0  0  0  0  0
    5.6196   -3.1618    0.9188 C   0  0  0  0  0  0  0  0  0  0  0  0
    5.7387   -1.6219    0.8653 C   0  0  0  0  0  0  0  0  0  0  0  0
    4.9272   -0.4799   -0.0855 C   0  0  0  0  0  0  0  0  0  0  0  0
    5.2080    1.3664   -0.4415 C   0  0  0  0  0  0  0  0  0  0  0  0
    6.5080    2.3167   -0.8786 C   0  0  0  0  0  0  0  0  0  0  0  0
    6.8370    3.6229   -0.9182 C   0  0  0  0  0  0  0  0  0  0  0  0
    5.7748    4.2269   -0.3972 C   0  0  0  0  0  0  0  0  0  0  0  0
    4.5462    3.6134   -0.0162 N   0  0  0  0  0  0  0  0  0  0  0  0
    4.2659    2.2521   -0.1533 C   0  0  0  0  0  0  0  0  0  0  0  0
    3.0933    1.6338    0.1934 N   0  0  0  0  0  0  0  0  0  0  0  0
    2.4417    0.8532   -0.7849 C   0  0  0  0  0  0  0  0  0  0  0  0
    1.2110    0.7640   -0.7770 O   0  0  0  0  0  0  0  0  0  0  0  0
    2.8694    1.4908    1.6548 C   0  0  0  0  0  0  0  0  0  0  0  0
    3.8750    0.6836    2.5588 C   0  0  0  0  0  0  0  0  0  0  0  0
    5.1204    1.3277    2.8245 O   0  0  0  0  0  0  0  0  0  0  0  0
    8.3129    0.1406   -2.1800 N   0  0  0  0  0  0  0  0  0  0  0  0
    9.0809   -0.9959   -2.2955 C   0  0  0  0  0  0  0  0  0  0  0  0
   10.2846   -0.8534   -2.0921 O   0  0  0  0  0  0  0  0  0  0  0  0
    8.5503   -2.4298   -2.6935 C   0  0  0  0  0  0  0  0  0  0  0  0
    7.8815   -3.3143   -1.6413 C   0  0  0  0  0  0  0  0  0  0  0  0
    6.7464   -2.4258   -1.6553 C   0  0  0  0  0  0  0  0  0  0  0  0
    6.2034   -2.1291   -2.8437 F   0  0  0  0  0  0  0  0  0  0  0  0
    5.7474   -2.6432   -1.0771 F   0  0  0  0  0  0  0  0  0  0  0  0
    7.3555   -1.5108   -0.8635 F   0  0  0  0  0  0  0  0  0  0  0  0
  2  1  1  1
  2  3  1  0
  2 25  1  0
  3  4  2  0
  3  5  1  0
  6  7  1  0
  6 20  1  0
  6  5  1  1
  7  8  2  0
  7 12  1  0
  8  9  1  0
  9 10  2  0
 10 11  1  0
 11 12  2  0
 12 13  1  0
 13 14  2  0
 13 18  1  0
 14 15  1  0
 15 16  2  0
 16 17  1  0
 17 18  2  0
 18 19  1  0
 19 20  1  0
 19 22  1  0
 20 21  2  0
 22 23  1  0
 23 24  1  0
 25 26  1  0
 26 27  2  0
 26 28  1  0
 28 29  1  0
 29 30  1  0
 30 31  1  0
 30 32  1  0
 30 33  1  0
M  END
>  <DRUGBANK_ID>  (1) 
DB12050

>  <COMMON_NAME>  (1) 
LY-3039478

>  <CAS_NUMBER>  (1) 
1421438-81-4

>  <UNII>  (1) 
923X28214S

$$$$
