SX2
     RDKit          3D

 15 15  0  0  0  0  0  0  0  0999 V2000
   -1.6036    0.0147   -0.0191 Br  0  0  0  0  0  0  0  0  0  0  0  0
    0.2788    0.0605   -0.0218 C   0  0  0  0  0  0  0  0  0  0  0  0
    1.0076   -1.1061   -0.0320 C   0  0  0  0  0  0  0  0  0  0  0  0
    2.3542   -1.1264   -0.0013 N   0  0  0  0  0  0  0  0  0  0  0  0
    0.9779    1.2624   -0.0067 C   0  0  0  0  0  0  0  0  0  0  0  0
    2.3829    1.2506    0.0053 C   0  0  0  0  0  0  0  0  0  0  0  0
    3.0444    0.0270    0.0187 C   0  0  0  0  0  0  0  0  0  0  0  0
    4.4577   -0.0252    0.0800 N   0  0  0  0  0  0  0  0  0  0  0  0
    5.1386   -1.2311    0.0013 C   0  0  0  0  0  0  0  0  0  0  0  0
    4.6287   -2.3141   -0.2692 O   0  0  0  0  0  0  0  0  0  0  0  0
    6.6481   -1.1880    0.1773 C   0  0  0  0  0  0  0  0  0  0  0  0
    7.1464   -1.9514    1.4103 C   0  0  0  0  0  0  0  0  0  0  0  0
    6.7007   -3.4028    1.5180 C   0  0  0  0  0  0  0  0  0  0  0  0
    7.6953   -4.3155    1.4666 O   0  0  0  0  0  0  0  0  0  0  0  0
    5.5501   -3.7566    1.7395 O   0  0  0  0  0  0  0  0  0  0  0  0
  1  2  1  0
  2  5  2  0
  2  3  1  0
  3  4  2  0
  4  7  1  0
  5  6  1  0
  6  7  2  0
  7  8  1  0
  9  8  1  0
  9 11  1  0
 10  9  2  0
 11 12  1  0
 13 12  1  0
 13 14  1  0
 15 13  2  0
M  END
>  <DRUGBANK_ID>  (1) 
DB08578

>  <COMMON_NAME>  (1) 
4-[(5-bromopyridin-2-yl)amino]-4-oxobutanoic acid

$$$$
