
     RDKit          3D

 21 24  0  0  1  0  0  0  0  0999 V2000
    4.4350    7.3865   -0.0378 C   0  0  0  0  0  0  0  0  0  0  0  0
    4.0187    8.2865    0.9099 C   0  0  0  0  0  0  0  0  0  0  0  0
    3.4965    7.5519    2.3900 S   0  0  0  0  0  0  0  0  0  0  0  0
    4.0433    6.0421    1.8860 C   0  0  0  0  0  0  0  0  0  0  0  0
    4.6328    6.2005    0.6625 C   0  0  0  0  0  0  0  0  0  0  0  0
    5.4670    5.2610    0.2754 N   0  0  0  0  0  0  0  0  0  0  0  0
    5.5774    4.1465    1.1273 C   0  0  0  0  0  0  0  0  0  0  0  0
    4.8480    3.6211    2.1765 C   0  0  0  0  0  0  0  0  0  0  0  0
    4.0269    4.7971    2.7198 C   0  0  0  0  0  0  0  0  0  0  0  0
    3.3832    4.6513    3.7011 O   0  0  0  0  0  0  0  0  0  0  0  0
    4.1656    1.9890    2.4991 C   0  0  0  0  0  0  0  0  0  0  0  0
    3.7082    1.7618    3.6242 O   0  0  0  0  0  0  0  0  0  0  0  0
    4.0078    0.8045    1.5199 N   0  0  0  0  0  0  0  0  0  0  0  0
    4.6641    0.5537    0.1137 C   0  0  1  0  0  0  0  0  0  0  0  0
    4.2161    0.8561   -1.4373 C   0  0  0  0  0  0  0  0  0  0  0  0
    4.5756    2.2271   -2.0421 N   0  0  0  0  0  0  0  0  0  0  0  0
    6.0498    2.5148   -1.8596 C   0  0  0  0  0  0  0  0  0  0  0  0
    6.6165    2.0238   -0.5508 C   0  0  0  0  0  0  0  0  0  0  0  0
    5.3785    1.7808    0.2993 C   0  0  0  0  0  0  0  0  0  0  0  0
    3.7971    2.7657    0.0380 C   0  0  0  0  0  0  0  0  0  0  0  0
    3.6374    3.1241   -1.3855 C   0  0  0  0  0  0  0  0  0  0  0  0
  1  2  2  0
  1  5  1  0
  2  3  1  0
  3  4  1  0
  4  5  2  0
  4  9  1  0
  5  6  1  0
  6  7  1  0
  7  8  2  0
  8  9  1  0
  8 11  1  0
  9 10  2  0
 11 12  2  0
 11 13  1  0
 14 15  1  0
 14 19  1  0
 14 13  1  1
 15 16  1  0
 16 17  1  0
 16 21  1  0
 17 18  1  0
 18 19  1  0
 19 20  1  0
 20 21  1  0
M  END
>  <DRUGBANK_ID>  (1) 
DB12402

>  <COMMON_NAME>  (1) 
Pumosetrag

>  <CAS_NUMBER>  (1) 
153062-94-3

>  <UNII>  (1) 
1G26B32139

>  <SYNONYMS>  (1) 
Pumosetrag

$$$$
