1348
     RDKit          3D

 31 33  0  0  1  0  0  0  0  0999 V2000
   -0.9252   -0.1204    1.5080 S   0  0  0  0  0  0  0  0  0  0  0  0
   -1.0264    0.0765   -1.5033 S   0  0  0  0  0  0  0  0  0  0  0  0
    2.9923    2.7844   -0.9069 O   0  0  0  0  0  0  0  0  0  0  0  0
    3.6344   -2.4392    0.4265 O   0  0  0  0  0  0  0  0  0  0  0  0
    2.8722   -2.1556   -1.6932 O   0  0  0  0  0  0  0  0  0  0  0  0
    7.1222   -1.9702    1.8750 O   0  0  0  0  0  0  0  0  0  0  0  0
    5.8005   -0.3619    2.7058 O   0  0  0  0  0  0  0  0  0  0  0  0
    2.2200    0.7054   -0.4027 N   0  0  0  0  0  0  0  0  0  0  0  0
    5.0925    0.5254    0.3556 N   0  0  0  0  0  0  0  0  0  0  0  0
    0.0019    0.0348   -0.0225 C   0  0  0  0  0  0  0  0  0  0  0  0
    0.8535   -1.1993   -0.0756 C   0  0  0  0  0  0  0  0  0  0  0  0
    2.2585   -0.6443    0.1256 C   0  0  1  0  0  0  0  0  0  0  0  0
    0.9232    1.2525   -0.0830 C   0  0  0  0  0  0  0  0  0  0  0  0
    3.2296    1.5819   -0.7397 C   0  0  0  0  0  0  0  0  0  0  0  0
   -2.4736    0.3846    0.7890 C   0  0  0  0  0  0  0  0  0  0  0  0
   -2.5771   -0.0890   -0.6490 C   0  0  0  0  0  0  0  0  0  0  0  0
    2.9723   -1.7751   -0.5161 C   0  0  0  0  0  0  0  0  0  0  0  0
    4.6772    1.0935   -0.9176 C   0  0  2  0  0  0  0  0  0  0  0  0
    6.4475   -0.0518    0.3738 C   0  0  1  0  0  0  0  0  0  0  0  0
    4.8621    0.0834   -2.0348 C   0  0  0  0  0  0  0  0  0  0  0  0
    7.5339    0.9708   -0.0414 C   0  0  0  0  0  0  0  0  0  0  0  0
    7.7132    2.1497    0.9021 C   0  0  0  0  0  0  0  0  0  0  0  0
    6.4393   -0.8018    1.7446 C   0  0  0  0  0  0  0  0  0  0  0  0
    8.3110    1.7492    2.2282 C   0  0  0  0  0  0  0  0  0  0  0  0
    8.3259    2.6713    3.2642 C   0  0  0  0  0  0  0  0  0  0  0  0
    8.6818    0.4361    2.5269 C   0  0  0  0  0  0  0  0  0  0  0  0
    7.3278   -2.9163    0.8056 C   0  0  0  0  0  0  0  0  0  0  0  0
    8.4904    2.2334    4.5790 C   0  0  0  0  0  0  0  0  0  0  0  0
    8.5651   -0.0317    3.8323 C   0  0  0  0  0  0  0  0  0  0  0  0
    8.5120    0.8728    4.8704 C   0  0  0  0  0  0  0  0  0  0  0  0
    5.9955   -3.2653    0.2343 C   0  0  0  0  0  0  0  0  0  0  0  0
  1 10  1  0
  1 15  1  0
  2 10  1  0
  2 16  1  0
  3 14  2  0
  4 17  1  0
  5 17  2  0
  6 23  1  0
  6 27  1  0
  7 23  2  0
  8 12  1  0
  8 13  1  0
  8 14  1  0
 10 11  1  0
 10 13  1  0
 11 12  1  0
 12 17  1  6
 14 18  1  0
 15 16  1  0
 18  9  1  0
 18 20  1  6
 19  9  1  0
 19 21  1  1
 19 23  1  0
 21 22  1  0
 22 24  1  0
 24 25  2  0
 24 26  1  0
 25 28  1  0
 26 29  2  0
 27 31  1  0
 28 30  2  0
 29 30  1  0
M  END
>  <DRUGBANK_ID>  (1) 
DB01348

>  <COMMON_NAME>  (1) 
Spirapril

>  <CAS_NUMBER>  (1) 
83647-97-6

>  <UNII>  (1) 
96U2K78I3V

>  <SYNONYMS>  (1) 
Espirapril; Spirapril; Spiraprilum

$$$$
