LZD
     RDKit          3D

 25 27  0  0  0  0  0  0  0  0999 V2000
    0.6243    1.4255   -0.4736 C   0  0  0  0  0  0  0  0  0  0  0  0
   -0.7886    1.4234    0.1093 C   0  0  0  0  0  0  0  0  0  0  0  0
   -1.6436    0.2429   -0.3788 C   0  0  0  0  0  0  0  0  0  0  0  0
   -0.9856   -1.0764   -0.0348 C   0  0  2  0  0  0  0  0  0  0  0  0
   -1.2753   -1.2708    1.4034 N   0  0  0  0  0  0  0  0  0  0  0  0
   -2.1321   -2.1953    2.0074 C   0  0  0  0  0  0  0  0  0  0  0  0
   -2.6678   -1.9480    3.0585 O   0  0  0  0  0  0  0  0  0  0  0  0
   -2.2579   -3.4770    1.3292 C   0  0  0  0  0  0  0  0  0  0  0  0
   -3.4341   -4.1245    1.3629 N   0  0  0  0  0  0  0  0  0  0  0  0
   -3.3178   -5.0313    0.3987 N   0  0  0  0  0  0  0  0  0  0  0  0
   -2.0922   -4.9989   -0.2216 C   0  0  0  0  0  0  0  0  0  0  0  0
   -1.2938   -4.1444    0.5273 C   0  0  0  0  0  0  0  0  0  0  0  0
    0.0919   -3.9537    0.3717 N   0  0  0  0  0  0  0  0  0  0  0  0
    1.1000   -3.3260    1.1766 C   0  0  0  0  0  0  0  0  0  0  0  0
    2.2586   -3.3633    0.7440 O   0  0  0  0  0  0  0  0  0  0  0  0
    0.8801   -2.5709    2.4656 C   0  0  0  0  0  0  0  0  0  0  0  0
    0.1615   -3.2010    3.4604 C   0  0  0  0  0  0  0  0  0  0  0  0
   -0.2450   -4.4633    3.2793 F   0  0  0  0  0  0  0  0  0  0  0  0
   -0.3492   -2.4882    4.5579 C   0  0  0  0  0  0  0  0  0  0  0  0
   -0.1824   -1.1061    4.6757 C   0  0  0  0  0  0  0  0  0  0  0  0
    0.6035   -0.4559    3.7415 C   0  0  0  0  0  0  0  0  0  0  0  0
    1.1956   -1.2019    2.6988 C   0  0  0  0  0  0  0  0  0  0  0  0
    1.9623   -0.4841    1.8769 F   0  0  0  0  0  0  0  0  0  0  0  0
    0.4760   -1.0004   -0.6162 C   0  0  0  0  0  0  0  0  0  0  0  0
    1.2345    0.1602   -0.2411 N   0  0  0  0  0  0  0  0  0  0  0  0
  1  2  1  0
  1 25  1  0
  2  3  1  0
  3  4  1  0
  4  5  1  1
  4 24  1  0
  5  6  1  0
  6  7  2  0
  6  8  1  0
  8  9  2  0
  8 12  1  0
  9 10  1  0
 10 11  1  0
 11 12  2  0
 12 13  1  0
 13 14  1  0
 14 15  2  0
 14 16  1  0
 16 17  2  0
 16 22  1  0
 17 18  1  0
 17 19  1  0
 19 20  2  0
 20 21  1  0
 21 22  2  0
 22 23  1  0
 24 25  1  0
M  END
>  <DRUGBANK_ID>  (1) 
DB08141

>  <COMMON_NAME>  (1) 
4-{[(2,6-difluorophenyl)carbonyl]amino}-N-[(3S)-piperidin-3-yl]-1H-pyrazole-3-carboxamide

$$$$
