BSI
     RDKit          3D

 28 31  0  0  0  0  0  0  0  0999 V2000
   -2.4512    0.7483    0.2223 C   0  0  0  0  0  0  0  0  0  0  0  0
   -1.2355    1.4139    0.0879 C   0  0  0  0  0  0  0  0  0  0  0  0
   -0.0651    0.6787   -0.1014 C   0  0  0  0  0  0  0  0  0  0  0  0
    1.2605    1.3566   -0.2931 C   0  0  0  0  0  0  0  0  0  0  0  0
    2.2296   -0.8326    0.5416 C   0  0  1  0  0  0  0  0  0  0  0  0
    1.1716   -1.4707   -0.3672 C   0  0  0  0  0  0  0  0  0  0  0  0
    3.6867    0.2563   -2.2735 C   0  0  0  0  0  0  0  0  0  0  0  0
    3.2935   -0.7632   -4.8643 C   0  0  0  0  0  0  0  0  0  0  0  0
    2.5190    0.2966   -4.3962 C   0  0  0  0  0  0  0  0  0  0  0  0
    2.7693    0.8460   -3.1477 C   0  0  0  0  0  0  0  0  0  0  0  0
    3.0454   -1.3016   -6.2017 C   0  0  0  0  0  0  0  0  0  0  0  0
    2.5246   -3.1615   -7.6747 C   0  0  0  0  0  0  0  0  0  0  0  0
    3.1120   -0.4627   -7.3248 C   0  0  0  0  0  0  0  0  0  0  0  0
    4.0091    2.3849   -0.8091 O   0  0  0  0  0  0  0  0  0  0  0  0
   -0.1270   -0.7186   -0.2280 C   0  0  0  0  0  0  0  0  0  0  0  0
   -1.3473   -1.3799   -0.1058 C   0  0  0  0  0  0  0  0  0  0  0  0
   -2.5051   -0.6440    0.1332 C   0  0  0  0  0  0  0  0  0  0  0  0
    2.4527    0.6060    0.1752 N   0  0  0  0  0  0  0  0  0  0  0  0
    3.9128    0.9462   -0.6347 S   0  0  0  0  0  0  0  0  0  0  0  0
    4.4767   -0.8022   -2.7225 C   0  0  0  0  0  0  0  0  0  0  0  0
    4.3199   -1.2576   -4.0398 C   0  0  0  0  0  0  0  0  0  0  0  0
    2.7147   -2.6513   -6.3899 C   0  0  0  0  0  0  0  0  0  0  0  0
    2.5765   -2.3105   -8.7770 C   0  0  0  0  0  0  0  0  0  0  0  0
    2.8705   -0.9607   -8.6033 C   0  0  0  0  0  0  0  0  0  0  0  0
    4.9641    0.1976    0.0093 O   0  0  0  0  0  0  0  0  0  0  0  0
    1.9275   -1.0109    2.0378 C   0  0  0  0  0  0  0  0  0  0  0  0
    2.7076   -0.8148    2.9581 O   0  0  0  0  0  0  0  0  0  0  0  0
    0.6783   -1.4397    2.3210 O   0  0  0  0  0  0  0  0  0  0  0  0
  1  2  2  0
  1 17  1  0
  2  3  1  0
  3  4  1  0
  3 15  2  0
  4 18  1  0
  5  6  1  0
  5 18  1  0
  5 26  1  1
  6 15  1  0
  7 10  2  0
  7 19  1  0
  7 20  1  0
  8  9  2  0
  8 11  1  0
  8 21  1  0
  9 10  1  0
 11 13  2  0
 11 22  1  0
 12 22  2  0
 12 23  1  0
 13 24  1  0
 14 19  2  0
 15 16  1  0
 16 17  2  0
 18 19  1  0
 19 25  2  0
 20 21  2  0
 23 24  2  0
 26 27  2  0
 26 28  1  0
M  END
>  <DRUGBANK_ID>  (1) 
DB03207

>  <SECONDARY_ACCESSION_NUMBERS>  (1) 
EXPT00763

>  <COMMON_NAME>  (1) 
2-(Biphenyl-4-Sulfonyl)-1,2,3,4-Tetrahydro-Isoquinoline-3-Carboxylic Acid

$$$$
