
     RDKit          3D

  9  9  0  0  0  0  0  0  0  0999 V2000
    0.0210   -1.3287   -0.0383 N   0  0  0  0  0  0  0  0  0  0  0  0
    1.2266   -0.6263    0.0824 C   0  0  0  0  0  0  0  0  0  0  0  0
    1.1980    0.7454   -0.0297 N   0  0  0  0  0  0  0  0  0  0  0  0
    0.0575    1.3632   -0.0031 C   0  0  0  0  0  0  0  0  0  0  0  0
   -1.2342    0.6559    0.0910 C   0  0  0  0  0  0  0  0  0  0  0  0
   -1.1839   -0.6637   -0.0755 C   0  0  0  0  0  0  0  0  0  0  0  0
    2.2917   -1.2179    0.2843 O   0  0  0  0  0  0  0  0  0  0  0  0
    0.0557    2.7254   -0.0922 N   0  0  0  0  0  0  0  0  0  0  0  0
    0.0071   -2.7739    0.1540 C   0  0  0  0  0  0  0  0  0  0  0  0
  2  1  1  0
  3  2  1  0
  4  3  2  0
  5  4  1  0
  6  1  1  0
  6  5  2  0
  7  2  2  0
  8  4  1  0
  9  1  1  0
M  END
>  <DRUGBANK_ID>  (1) 
DB04314

>  <SECONDARY_ACCESSION_NUMBERS>  (1) 
EXPT00076

>  <COMMON_NAME>  (1) 
1-Methylcytosine

>  <CAS_NUMBER>  (1) 
1122-47-0

>  <UNII>  (1) 
1J54NE82RV

>  <SYNONYMS>  (1) 
N-Methylcytosine

$$$$
