
     RDKit          3D

 31 34  0  0  0  0  0  0  0  0999 V2000
    2.2932    0.0359    0.0185 O   0  0  0  0  0  0  0  0  0  0  0  0
    0.9419    0.0319   -0.1665 C   0  0  0  0  0  0  0  0  0  0  0  0
    0.2395   -1.1479   -0.3807 C   0  0  0  0  0  0  0  0  0  0  0  0
   -1.1593   -1.1103   -0.4677 C   0  0  0  0  0  0  0  0  0  0  0  0
   -1.8493    0.1025   -0.2846 C   0  0  0  0  0  0  0  0  0  0  0  0
   -3.3407    0.1054   -0.0510 C   0  0  0  0  0  0  0  0  0  0  0  0
   -3.7888    0.8060    1.2317 C   0  0  0  0  0  0  0  0  0  0  0  0
   -4.5243    1.8078    1.1707 O   0  0  0  0  0  0  0  0  0  0  0  0
   -3.5344    0.2905    2.4729 N   0  0  0  0  0  0  0  0  0  0  0  0
   -2.7793   -0.8444    2.7861 C   0  0  0  0  0  0  0  0  0  0  0  0
   -1.5901   -0.9851    2.2125 N   0  0  0  0  0  0  0  0  0  0  0  0
   -0.9282   -2.1476    2.3937 C   0  0  0  0  0  0  0  0  0  0  0  0
   -1.3930   -3.1807    3.1577 C   0  0  0  0  0  0  0  0  0  0  0  0
   -2.5194   -3.0021    3.8617 N   0  0  0  0  0  0  0  0  0  0  0  0
   -3.2078   -1.8183    3.6781 C   0  0  0  0  0  0  0  0  0  0  0  0
   -4.4812   -1.6647    4.4549 C   0  0  0  0  0  0  0  0  0  0  0  0
   -5.4854   -2.7480    4.1711 C   0  0  0  0  0  0  0  0  0  0  0  0
   -5.1650   -4.0847    4.4547 C   0  0  0  0  0  0  0  0  0  0  0  0
   -6.0930   -5.0953    4.2653 C   0  0  0  0  0  0  0  0  0  0  0  0
   -7.3745   -4.7706    3.8388 C   0  0  0  0  0  0  0  0  0  0  0  0
   -7.7117   -3.4435    3.5650 C   0  0  0  0  0  0  0  0  0  0  0  0
   -6.7558   -2.4371    3.6800 C   0  0  0  0  0  0  0  0  0  0  0  0
   -0.6524   -4.4358    3.2366 C   0  0  0  0  0  0  0  0  0  0  0  0
   -1.2275   -5.6749    2.9104 C   0  0  0  0  0  0  0  0  0  0  0  0
   -0.4637   -6.8493    2.9611 C   0  0  0  0  0  0  0  0  0  0  0  0
    0.8782   -6.7802    3.3283 C   0  0  0  0  0  0  0  0  0  0  0  0
    1.6663   -7.8884    3.4113 O   0  0  0  0  0  0  0  0  0  0  0  0
    1.4727   -5.5641    3.6261 C   0  0  0  0  0  0  0  0  0  0  0  0
    0.7140   -4.4005    3.5706 C   0  0  0  0  0  0  0  0  0  0  0  0
   -1.1171    1.2874   -0.1475 C   0  0  0  0  0  0  0  0  0  0  0  0
    0.2756    1.2480   -0.0840 C   0  0  0  0  0  0  0  0  0  0  0  0
  1  2  1  0
  2  3  2  0
  2 31  1  0
  3  4  1  0
  4  5  2  0
  5  6  1  0
  5 30  1  0
  6  7  1  0
  7  8  2  0
  7  9  1  0
  9 10  1  0
 10 11  2  0
 10 15  1  0
 11 12  1  0
 12 13  2  0
 13 14  1  0
 13 23  1  0
 14 15  2  0
 15 16  1  0
 16 17  1  0
 17 18  2  0
 17 22  1  0
 18 19  1  0
 19 20  2  0
 20 21  1  0
 21 22  2  0
 23 24  2  0
 23 29  1  0
 24 25  1  0
 25 26  2  0
 26 27  1  0
 26 28  1  0
 28 29  2  0
 30 31  2  0
M  END
>  <DRUGBANK_ID>  (1) 
DB04049

>  <SECONDARY_ACCESSION_NUMBERS>  (1) 
EXPT00888

>  <COMMON_NAME>  (1) 
Coelenteramide

>  <UNII>  (1) 
S5MSB8RF66

$$$$
