
     RDKit          3D

 30 29  0  0  1  0  0  0  0  0999 V2000
   -1.4655    0.3145   -4.0602 C   0  0  0  0  0  0  0  0  0  0  0  0
   -7.6393    7.1458   -0.7544 C   0  0  0  0  0  0  0  0  0  0  0  0
   -1.3723    6.8735    2.9129 C   0  0  0  0  0  0  0  0  0  0  0  0
   -1.3814    8.7798    1.4356 C   0  0  0  0  0  0  0  0  0  0  0  0
    0.2436    7.3948    0.6291 C   0  0  0  0  0  0  0  0  0  0  0  0
   -1.9536    1.6757   -3.6042 C   0  0  0  0  0  0  0  0  0  0  0  0
   -6.6749    8.2498   -0.3451 C   0  0  0  0  0  0  0  0  0  0  0  0
   -1.4222    1.9820   -2.2054 C   0  0  0  0  0  0  0  0  0  0  0  0
   -5.7823    7.7879    0.8077 C   0  0  0  0  0  0  0  0  0  0  0  0
    0.1133    2.0615   -2.1748 C   0  0  0  0  0  0  0  0  0  0  0  0
   -4.9509    6.5780    0.4057 C   0  0  0  0  0  0  0  0  0  0  0  0
    0.7069    3.0857   -3.1480 C   0  0  0  0  0  0  0  0  0  0  0  0
   -4.2390    6.7965   -0.9221 C   0  0  0  0  0  0  0  0  0  0  0  0
   -1.8285    5.1158   -0.1991 C   0  0  0  0  0  0  0  0  0  0  0  0
    0.8129    8.1244    2.7318 C   0  0  0  0  0  0  0  0  0  0  0  0
    1.6472    6.8424    3.1553 C   0  0  0  0  0  0  0  0  0  0  0  0
   -0.6719    4.2825    0.4506 C   0  0  0  0  0  0  0  0  0  0  0  0
   -1.6947    5.8477   -2.8025 C   0  0  0  0  0  0  0  0  0  0  0  0
   -1.4765    6.1579   -1.3455 C   0  0  1  0  0  0  0  0  0  0  0  0
    0.2641    4.4936   -2.9254 C   0  0  0  0  0  0  0  0  0  0  0  0
   -3.2178    7.8867   -0.8787 C   0  0  0  0  0  0  0  0  0  0  0  0
   -0.4037    7.7897    1.9307 N   0  0  0  0  0  0  0  0  0  0  0  0
    1.0239    5.4272   -2.6014 O   0  0  0  0  0  0  0  0  0  0  0  0
   -3.4634    9.0470   -0.5683 O   0  0  0  0  0  0  0  0  0  0  0  0
   -0.0292    4.8248    2.6070 O   0  0  0  0  0  0  0  0  0  0  0  0
    1.6530    4.0025    0.8095 O   0  0  0  0  0  0  0  0  0  0  0  0
   -1.0711    4.6230   -3.1539 O   0  0  0  0  0  0  0  0  0  0  0  0
    2.0375    5.8844    2.1140 O   0  0  0  0  0  0  0  0  0  0  0  0
   -1.9466    7.5173   -1.1138 O   0  0  0  0  0  0  0  0  0  0  0  0
    0.7208    5.1059    1.3057 P   0  0  1  0  0  0  0  0  0  0  0  0
  6  1  1  0
  7  2  1  0
  8  6  1  0
  9  7  1  0
 10  8  1  0
 11  9  1  0
 12 10  1  0
 13 11  1  0
 16 15  1  0
 17 14  1  0
 19 29  1  0
 19 18  1  6
 19 14  1  0
 20 12  1  0
 21 13  1  0
 22  3  1  0
 22  4  1  0
 22  5  1  0
 22 15  1  0
 23 20  2  0
 24 21  2  0
 27 18  1  0
 27 20  1  0
 28 16  1  0
 29 21  1  0
 30 17  1  0
 30 25  2  0
 30 26  1  1
 30 28  1  0
M  CHG  2  22   1  26  -1
M  END
>  <DRUGBANK_ID>  (1) 
DB03827

>  <SECONDARY_ACCESSION_NUMBERS>  (1) 
EXPT00186

>  <COMMON_NAME>  (1) 
(3s)-3,4-Di-N-Hexanoyloxybutyl-1-Phosphocholine

$$$$
