
     RDKit          3D

 33 34  0  0  1  0  0  0  0  0999 V2000
    7.7217   -7.2591    0.2128 C   0  0  2  0  0  0  0  0  0  0  0  0
    7.1662   -7.1017   -1.1793 O   0  0  0  0  0  0  0  0  0  0  0  0
    6.2707   -6.0284   -1.6852 C   0  0  1  0  0  0  0  0  0  0  0  0
    4.7812   -6.4418   -1.5276 C   0  0  0  0  0  0  0  0  0  0  0  0
    3.9244   -5.7993   -0.9879 O   0  0  0  0  0  0  0  0  0  0  0  0
    6.8489   -4.6772   -1.2870 C   0  0  1  0  0  0  0  0  0  0  0  0
    8.1022   -4.2876   -1.8848 O   0  0  0  0  0  0  0  0  0  0  0  0
    9.1626   -5.2670   -1.7844 C   0  0  1  0  0  0  0  0  0  0  0  0
    8.9597   -6.3073   -2.7000 O   0  0  0  0  0  0  0  0  0  0  0  0
    8.6862   -5.7424   -3.9671 C   0  0  2  0  0  0  0  0  0  0  0  0
    8.1092   -6.9128   -4.7486 C   0  0  0  0  0  0  0  0  0  0  0  0
    6.9126   -7.4345   -4.1346 O   0  0  0  0  0  0  0  0  0  0  0  0
   10.0350   -5.1301   -4.3557 C   0  0  2  0  0  0  0  0  0  0  0  0
   11.0290   -6.1750   -4.2976 O   0  0  0  0  0  0  0  0  0  0  0  0
   10.4790   -4.0214   -3.3357 C   0  0  2  0  0  0  0  0  0  0  0  0
   11.7590   -3.5003   -3.6727 O   0  0  0  0  0  0  0  0  0  0  0  0
   10.5191   -4.5967   -1.9202 C   0  0  1  0  0  0  0  0  0  0  0  0
   10.7256   -3.6372   -0.8775 O   0  0  0  0  0  0  0  0  0  0  0  0
    5.9290   -3.4365   -1.0104 C   0  0  1  0  0  0  0  0  0  0  0  0
    4.7262   -3.6474   -0.2662 O   0  0  0  0  0  0  0  0  0  0  0  0
    6.5396   -2.2481   -0.1787 C   0  0  2  0  0  0  0  0  0  0  0  0
    6.0367   -0.9942   -0.6830 O   0  0  0  0  0  0  0  0  0  0  0  0
    8.0504   -2.1350   -0.1574 C   0  0  0  0  0  0  0  0  0  0  0  0
    8.5088   -1.0242    0.5993 O   0  0  0  0  0  0  0  0  0  0  0  0
    6.7661   -7.9446    1.0501 O   0  0  0  0  0  0  0  0  0  0  0  0
    5.6770   -7.0580    1.2521 C   0  0  1  0  0  0  0  0  0  0  0  0
    4.3566   -7.7417    1.4776 C   0  0  0  0  0  0  0  0  0  0  0  0
    5.9299   -5.7690    2.0525 C   0  0  1  0  0  0  0  0  0  0  0  0
    6.0132   -6.0562    3.4215 O   0  0  0  0  0  0  0  0  0  0  0  0
    7.2244   -5.0718    1.6622 C   0  0  1  0  0  0  0  0  0  0  0  0
    7.6729   -3.9470    2.3933 O   0  0  0  0  0  0  0  0  0  0  0  0
    8.3129   -6.0891    1.2273 C   0  0  2  0  0  0  0  0  0  0  0  0
    9.6060   -5.5231    0.9805 O   0  0  0  0  0  0  0  0  0  0  0  0
  1  2  1  6
  1 25  1  0
  3  2  1  0
  3  4  1  1
  4  5  2  0
  6  3  1  0
  6  7  1  6
  6 19  1  0
  8  7  1  6
  8  9  1  0
 10  9  1  0
 10 11  1  6
 11 12  1  0
 13 10  1  0
 13 14  1  1
 13 15  1  0
 15 16  1  6
 15 17  1  0
 17  8  1  0
 17 18  1  1
 19 20  1  1
 21 23  1  0
 21 22  1  6
 21 19  1  0
 23 24  1  0
 26 25  1  0
 26 27  1  1
 28 26  1  0
 28 29  1  1
 28 30  1  0
 30 31  1  1
 30 32  1  0
 32  1  1  0
 32 33  1  6
M  END
>  <DRUGBANK_ID>  (1) 
DB17690

>  <COMMON_NAME>  (1) 
Trisaccharide B

>  <CAS_NUMBER>  (1) 
49777-14-2

>  <UNII>  (1) 
2P888H42QS

>  <SYNONYMS>  (1) 
.alpha.-d-gal-(1->3)-(.alpha.-l-fuc-(1->2))-d-gal; 3-o-(.alpha.-d-galactopyranosyl)-2-o-(.alpha.-l-fucopyranosyl)-d-galactose; B trisaccharide; B-trisaccharide; Blood group b trisaccharide

$$$$
