
     RDKit          3D

 31 33  0  0  1  0  0  0  0  0999 V2000
    0.8960    0.0678   -0.0542 C   0  0  0  0  0  0  0  0  0  0  0  0
    3.3433    2.5307   -3.6902 C   0  0  0  0  0  0  0  0  0  0  0  0
    3.9229   -1.7600   -4.1953 C   0  0  0  0  0  0  0  0  0  0  0  0
    0.4304   -0.9511   -1.1390 C   0  0  2  0  0  0  0  0  0  0  0  0
    4.5052    0.2660   -4.4518 C   0  0  0  0  0  0  0  0  0  0  0  0
    0.8707   -2.4260   -1.0850 C   0  0  2  0  0  0  0  0  0  0  0  0
    2.0863   -2.5159   -1.9551 C   0  0  2  0  0  0  0  0  0  0  0  0
    5.1098    1.4905   -4.7776 C   0  0  0  0  0  0  0  0  0  0  0  0
    3.3190    0.3145   -3.7608 C   0  0  0  0  0  0  0  0  0  0  0  0
    1.7314   -1.5320   -3.0414 C   0  0  2  0  0  0  0  0  0  0  0  0
    6.2741    1.5709   -5.4944 N   0  0  0  0  0  0  0  0  0  0  0  0
    4.4967    2.6323   -4.3803 N   0  0  0  0  0  0  0  0  0  0  0  0
    2.6774    1.4223   -3.3261 N   0  0  0  0  0  0  0  0  0  0  0  0
    4.8825   -1.0396   -4.7113 N   0  0  0  0  0  0  0  0  0  0  0  0
    2.9304   -0.9861   -3.6367 N   0  0  0  0  0  0  0  0  0  0  0  0
   -0.1532   -3.3338   -1.4813 O   0  0  0  0  0  0  0  0  0  0  0  0
    2.3071   -3.8545   -2.3792 O   0  0  0  0  0  0  0  0  0  0  0  0
    5.4969   -4.7293    1.7471 O   0  0  0  0  0  0  0  0  0  0  0  0
    5.3746   -1.9496    1.5225 O   0  0  0  0  0  0  0  0  0  0  0  0
    7.1109   -3.2275    1.0996 O   0  0  0  0  0  0  0  0  0  0  0  0
    2.5932   -1.2472    1.4184 O   0  0  0  0  0  0  0  0  0  0  0  0
    0.4950   -1.7814    3.0314 O   0  0  0  0  0  0  0  0  0  0  0  0
    3.7018   -3.2966    1.1460 O   0  0  0  0  0  0  0  0  0  0  0  0
    2.9927   -2.1293    3.5118 O   0  0  0  0  0  0  0  0  0  0  0  0
    0.5346   -0.3067    1.2946 O   0  0  0  0  0  0  0  0  0  0  0  0
    0.9016   -0.5129   -2.4333 O   0  0  0  0  0  0  0  0  0  0  0  0
    4.8226   -3.2911    3.4464 O   0  0  0  0  0  0  0  0  0  0  0  0
    1.6880   -3.4926    1.9956 O   0  0  0  0  0  0  0  0  0  0  0  0
    6.0302   -3.2576    2.2080 P   0  0  0  0  0  0  0  0  0  0  0  0
    1.1113   -1.8996    1.6451 P   0  0  1  0  0  0  0  0  0  0  0  0
    3.2553   -3.3919    2.7210 P   0  0  2  0  0  0  0  0  0  0  0  0
  4  1  1  1
  4 26  1  0
  6  4  1  0
  6  7  1  0
  6 16  1  6
  7 10  1  0
  7 17  1  6
  8  5  2  0
  9  5  1  0
 10 26  1  0
 10 15  1  1
 11  8  1  0
 12  2  2  0
 12  8  1  0
 13  2  1  0
 13  9  2  0
 14  3  2  0
 14  5  1  0
 15  3  1  0
 15  9  1  0
 25  1  1  0
 29 18  1  0
 29 19  1  0
 29 20  2  0
 29 27  1  0
 30 21  1  1
 30 22  2  0
 30 25  1  0
 30 28  1  0
 31 23  1  6
 31 24  2  0
 31 27  1  0
 31 28  1  0
M  END
>  <DRUGBANK_ID>  (1) 
DB00171

>  <SECONDARY_ACCESSION_NUMBERS>  (1) 
NUTR00017; EXPT00007

>  <COMMON_NAME>  (1) 
ATP

>  <CAS_NUMBER>  (1) 
56-65-5

>  <UNII>  (1) 
8L70Q75FXE

>  <SYNONYMS>  (1) 
Adenosine 5'-triphosphate; Adenosine triphosphate; Adenosine-5'-triphosphate; ATP

$$$$
