1231
     RDKit          3D

 23 25  0  0  0  0  0  0  0  0999 V2000
    0.8965   -0.1120   -0.1234 O   0  0  0  0  0  0  0  0  0  0  0  0
    2.8844    3.9005    2.0254 N   0  0  0  0  0  0  0  0  0  0  0  0
    3.6230    4.9637    1.2919 C   0  0  0  0  0  0  0  0  0  0  0  0
    1.4847    4.2030    1.7700 C   0  0  0  0  0  0  0  0  0  0  0  0
    3.2503    2.5833    1.4347 C   0  0  0  0  0  0  0  0  0  0  0  0
    3.1528    6.3467    1.7820 C   0  0  0  0  0  0  0  0  0  0  0  0
    0.8430    5.5025    2.1771 C   0  0  0  0  0  0  0  0  0  0  0  0
    1.6579    6.6219    1.5769 C   0  0  0  0  0  0  0  0  0  0  0  0
    2.5780    1.3476    2.0526 C   0  0  0  0  0  0  0  0  0  0  0  0
    1.0479    1.1757    1.8731 C   0  0  0  0  0  0  0  0  0  0  0  0
    0.4239    1.1546    0.3971 C   0  0  0  0  0  0  0  0  0  0  0  0
    0.8155    2.2109   -0.6916 C   0  0  0  0  0  0  0  0  0  0  0  0
   -1.1321    1.0759    0.5778 C   0  0  0  0  0  0  0  0  0  0  0  0
    0.2166    3.4816   -0.7193 C   0  0  0  0  0  0  0  0  0  0  0  0
   -1.7684   -0.1689    0.6639 C   0  0  0  0  0  0  0  0  0  0  0  0
    1.8684    2.0837   -1.6072 C   0  0  0  0  0  0  0  0  0  0  0  0
   -2.0034    2.1836    0.7050 C   0  0  0  0  0  0  0  0  0  0  0  0
    0.6220    4.5951   -1.4483 C   0  0  0  0  0  0  0  0  0  0  0  0
   -3.1606   -0.2454    0.8033 C   0  0  0  0  0  0  0  0  0  0  0  0
    2.3786    3.2266   -2.2769 C   0  0  0  0  0  0  0  0  0  0  0  0
   -3.3682    2.1287    0.8901 C   0  0  0  0  0  0  0  0  0  0  0  0
    1.7708    4.4807   -2.1800 C   0  0  0  0  0  0  0  0  0  0  0  0
   -3.9642    0.8852    0.9127 C   0  0  0  0  0  0  0  0  0  0  0  0
  1 11  1  0
  2  3  1  0
  2  4  1  0
  2  5  1  0
  3  6  1  0
  4  7  1  0
  5  9  1  0
  6  8  1  0
  7  8  1  0
  9 10  1  0
 10 11  1  0
 11 12  1  0
 11 13  1  0
 12 14  2  0
 12 16  1  0
 13 15  2  0
 13 17  1  0
 14 18  1  0
 15 19  1  0
 16 20  2  0
 17 21  2  0
 18 22  2  0
 19 23  2  0
 20 22  1  0
 21 23  1  0
M  END
>  <DRUGBANK_ID>  (1) 
DB01231

>  <SECONDARY_ACCESSION_NUMBERS>  (1) 
APRD00929

>  <COMMON_NAME>  (1) 
Diphenidol

>  <CAS_NUMBER>  (1) 
972-02-1

>  <UNII>  (1) 
NQO8R319LY

>  <SYNONYMS>  (1) 
alpha,alpha-Diphenyl-1-piperidinebutanol; Difenidol; Dif√©nidol; Difenidolo; Difenidolum; Diphenidol; Diphenyl(3-(1-piperidyl)propyl)carbinol

$$$$
