
     RDKit          3D

 11 11  0  0  0  0  0  0  0  0999 V2000
    0.9206    0.0074    0.0604 O   0  0  0  0  0  0  0  0  0  0  0  0
    2.2906    0.0074    0.0604 N   0  0  0  0  0  0  0  0  0  0  0  0
    2.9037   -0.6056   -0.8067 O   0  0  0  0  0  0  0  0  0  0  0  0
    2.9756    0.6923    1.0292 O   0  0  0  0  0  0  0  0  0  0  0  0
    4.9556    0.6923    1.0292 Hg  0  0  0  0  0  2  0  0  0  0  0  0
    7.0356    0.6923    1.0292 C   0  0  0  0  0  0  0  0  0  0  0  0
    7.7593    0.3618   -0.1503 C   0  0  0  0  0  0  0  0  0  0  0  0
    9.1316    0.0770   -0.0595 C   0  0  0  0  0  0  0  0  0  0  0  0
    9.7879    0.3749    1.0231 C   0  0  0  0  0  0  0  0  0  0  0  0
    9.1298    0.9900    2.0964 C   0  0  0  0  0  0  0  0  0  0  0  0
    7.7143    1.0022    2.1352 C   0  0  0  0  0  0  0  0  0  0  0  0
  1  2  1  0
  2  3  2  0
  2  4  1  0
  4  5  1  0
  5  6  1  0
  6  7  2  0
  6 11  1  0
  7  8  1  0
  8  9  2  0
  9 10  1  0
 10 11  2  0
M  CHG  2   1  -1   2   1
M  END
>  <DRUGBANK_ID>  (1) 
DB13388

>  <COMMON_NAME>  (1) 
Phenylmercuric nitrate

>  <CAS_NUMBER>  (1) 
55-68-5

>  <UNII>  (1) 
CG8692ZN14

$$$$
