
     RDKit          3D

 10  9  0  0  1  0  0  0  0  0999 V2000
    0.9431   -0.1785    0.0742 C   0  0  0  0  0  0  0  0  0  0  0  0
    0.1608    1.3877    3.8893 C   0  0  0  0  0  0  0  0  0  0  0  0
    0.2405    0.4702    1.2345 C   0  0  0  0  0  0  0  0  0  0  0  0
    0.7019    2.8246    3.7322 C   0  0  1  0  0  0  0  0  0  0  0  0
    0.3841    3.4357    2.3656 C   0  0  0  0  0  0  0  0  0  0  0  0
    0.0964    3.6994    4.7807 N   0  0  0  0  0  0  0  0  0  0  0  0
   -0.7143    1.2211    1.0771 O   0  0  0  0  0  0  0  0  0  0  0  0
   -0.5243    4.2077    2.1188 O   0  0  0  0  0  0  0  0  0  0  0  0
    1.1971    2.9880    1.3843 O   0  0  0  0  0  0  0  0  0  0  0  0
    0.9076    0.0932    2.8217 S   0  0  0  0  0  0  0  0  0  0  0  0
  3  1  1  0
  4  2  1  0
  4  6  1  1
  5  4  1  0
  7  3  2  0
  8  5  2  0
  9  5  1  0
 10  2  1  0
 10  3  1  0
M  END
>  <DRUGBANK_ID>  (1) 
DB02039

>  <SECONDARY_ACCESSION_NUMBERS>  (1) 
EXPT02873

>  <COMMON_NAME>  (1) 
S-Acetyl-Cysteine

>  <UNII>  (1) 
SSR768695G

$$$$
