RRT
     RDKit          3D

 17 17  0  0  0  0  0  0  0  0999 V2000
    0.7850   -0.1518    0.0556 S   0  0  0  0  0  0  0  0  0  0  0  0
    0.2584    0.9483   -1.3190 C   0  0  0  0  0  0  0  0  0  0  0  0
    0.9230    2.3371   -1.2514 C   0  0  1  0  0  0  0  0  0  0  0  0
    2.4585    2.3587   -1.2979 C   0  0  0  0  0  0  0  0  0  0  0  0
    3.0102    1.7888   -2.5735 C   0  0  0  0  0  0  0  0  0  0  0  0
    3.6219    2.6315   -3.5003 C   0  0  0  0  0  0  0  0  0  0  0  0
    2.8879    0.4248   -2.8776 C   0  0  0  0  0  0  0  0  0  0  0  0
    4.0717    2.1142   -4.7128 C   0  0  0  0  0  0  0  0  0  0  0  0
    3.3158   -0.0877   -4.0909 C   0  0  0  0  0  0  0  0  0  0  0  0
    3.8979    0.7630   -5.0160 C   0  0  0  0  0  0  0  0  0  0  0  0
   -0.4505    4.3334   -2.0374 C   0  0  0  0  0  0  0  0  0  0  0  0
   -0.7809    5.0431   -2.9851 O   0  0  0  0  0  0  0  0  0  0  0  0
    0.3601    3.2515   -2.2531 N   0  0  0  0  0  0  0  0  0  0  0  0
   -0.8315    4.6625   -0.6156 C   0  0  0  0  0  0  0  0  0  0  0  0
   -1.6685    3.5875    0.0142 C   0  0  0  0  0  0  0  0  0  0  0  0
   -1.1720    3.0619    1.1576 O   0  0  0  0  0  0  0  0  0  0  0  0
   -2.7104    3.1616   -0.4745 O   0  0  0  0  0  0  0  0  0  0  0  0
  1  2  1  0
  3  2  1  6
  3  4  1  0
  3 13  1  0
  4  5  1  0
  5  6  2  0
  5  7  1  0
  6  8  1  0
  7  9  2  0
  8 10  2  0
  9 10  1  0
 11 12  2  0
 11 13  1  0
 11 14  1  0
 14 15  1  0
 15 16  1  0
 15 17  2  0
M  END
>  <DRUGBANK_ID>  (1) 
DB01935

>  <SECONDARY_ACCESSION_NUMBERS>  (1) 
EXPT02817

>  <COMMON_NAME>  (1) 
3-{[(1r)-1-Benzyl-2-Sulfanylethyl]Amino}-3-Oxopropanoic Acid

$$$$
