
     RDKit          3D

 26 29  0  0  0  0  0  0  0  0999 V2000
    0.9496    0.0242    0.0102 C   0  0  0  0  0  0  0  0  0  0  0  0
    0.2797    0.8934   -1.0343 C   0  0  0  0  0  0  0  0  0  0  0  0
   -0.6272    0.4155   -1.9449 C   0  0  0  0  0  0  0  0  0  0  0  0
   -0.6590    0.9851   -3.2692 N   0  0  0  0  0  0  0  0  0  0  0  0
   -1.1680    0.2672   -4.4600 C   0  0  0  0  0  0  0  0  0  0  0  0
   -0.1232   -0.5949   -5.1100 C   0  0  0  0  0  0  0  0  0  0  0  0
    1.2693   -0.8259   -4.0639 S   0  0  0  0  0  0  0  0  0  0  0  0
    2.1330   -1.6364   -4.9352 O   0  0  0  0  0  0  0  0  0  0  0  0
    1.0005   -1.3825   -2.7742 O   0  0  0  0  0  0  0  0  0  0  0  0
    1.6305    0.8458   -3.9440 N   0  0  0  0  0  0  0  0  0  0  0  0
    0.6124    1.5591   -3.4583 C   0  0  0  0  0  0  0  0  0  0  0  0
    0.8408    2.6622   -2.3617 C   0  0  0  0  0  0  0  0  0  0  0  0
    0.7648    2.1948   -1.1378 N   0  0  0  0  0  0  0  0  0  0  0  0
    0.9539    4.1547   -2.4959 C   0  0  0  0  0  0  0  0  0  0  0  0
   -0.1514    5.0163   -2.5730 C   0  0  0  0  0  0  0  0  0  0  0  0
    0.0199    6.4095   -2.4205 C   0  0  0  0  0  0  0  0  0  0  0  0
    1.2646    6.9873   -2.1555 C   0  0  0  0  0  0  0  0  0  0  0  0
    1.5463    8.3282   -2.0907 O   0  0  0  0  0  0  0  0  0  0  0  0
    0.5424    9.2934   -2.4637 C   0  0  0  0  0  0  0  0  0  0  0  0
   -0.5549    9.3812   -1.3922 C   0  0  0  0  0  0  0  0  0  0  0  0
   -1.7207   10.2582   -1.8139 C   0  0  0  0  0  0  0  0  0  0  0  0
   -2.2409    9.8843   -3.1984 C   0  0  0  0  0  0  0  0  0  0  0  0
   -1.1450    9.9898   -4.2545 C   0  0  0  0  0  0  0  0  0  0  0  0
    0.0523    9.1178   -3.9152 C   0  0  0  0  0  0  0  0  0  0  0  0
    2.3357    6.1236   -1.9545 C   0  0  0  0  0  0  0  0  0  0  0  0
    2.1806    4.7325   -2.1421 C   0  0  0  0  0  0  0  0  0  0  0  0
  1  2  1  0
  2  3  2  0
  2 13  1  0
  3  4  1  0
  4  5  1  0
  4 11  1  0
  5  6  1  0
  6  7  1  0
  7  8  2  0
  7  9  2  0
  7 10  1  0
 10 11  2  0
 11 12  1  0
 12 13  2  0
 12 14  1  0
 14 15  2  0
 14 26  1  0
 15 16  1  0
 16 17  2  0
 17 18  1  0
 17 25  1  0
 18 19  1  0
 19 20  1  0
 19 24  1  0
 20 21  1  0
 21 22  1  0
 22 23  1  0
 23 24  1  0
 25 26  2  0
M  END
>  <DRUGBANK_ID>  (1) 
DB16304

>  <COMMON_NAME>  (1) 
TAK-653

>  <CAS_NUMBER>  (1) 
1358751-06-0

>  <UNII>  (1) 
9E3TOE5RIZ

$$$$
