
     RDKit          3D

  1  0  0  0  0  0  0  0  0  0999 V2000
    1.0251    0.0632    0.0733 Cu  0  0  0  0  0 15  0  0  0  0  0  0
M  END
>  <DRUGBANK_ID>  (1) 
DB09130

>  <COMMON_NAME>  (1) 
Copper

>  <CAS_NUMBER>  (1) 
7440-50-8

>  <UNII>  (1) 
789U1901C5

>  <SYNONYMS>  (1) 
cobre; cuivre; cuprum; Kupfer

$$$$
