KY1
     RDKit          3D

 14 14  0  0  0  0  0  0  0  0999 V2000
    1.1139   -0.0205   -0.0621 C   0  0  0  0  0  0  0  0  0  0  0  0
    0.5973    1.1902   -0.8162 C   0  0  0  0  0  0  0  0  0  0  0  0
   -1.0015    2.0592   -3.3643 C   0  0  0  0  0  0  0  0  0  0  0  0
   -1.9010    1.9542   -4.4344 C   0  0  0  0  0  0  0  0  0  0  0  0
   -1.7010    1.0373   -5.4710 C   0  0  0  0  0  0  0  0  0  0  0  0
   -0.5907    0.1998   -5.4556 C   0  0  0  0  0  0  0  0  0  0  0  0
    0.3218    0.2878   -4.4047 C   0  0  0  0  0  0  0  0  0  0  0  0
    0.1107    1.2004   -3.3543 C   0  0  0  0  0  0  0  0  0  0  0  0
    0.5758   -1.2968   -0.6465 C   0  0  0  0  0  0  0  0  0  0  0  0
   -0.1661   -2.0887   -0.0801 O   0  0  0  0  0  0  0  0  0  0  0  0
    0.9814   -1.5206   -1.9065 O   0  0  0  0  0  0  0  0  0  0  0  0
    1.1072    1.2193   -2.2489 C   0  0  0  0  0  0  0  0  0  0  0  0
    2.3091    1.2089   -2.5076 O   0  0  0  0  0  0  0  0  0  0  0  0
   -1.2776    2.9713   -2.3554 N   0  0  0  0  0  0  0  0  0  0  0  0
  1  2  1  0
  1  9  1  0
  2 12  1  0
  3  4  2  0
  3  8  1  0
  3 14  1  0
  4  5  1  0
  5  6  2  0
  6  7  1  0
  7  8  2  0
  8 12  1  0
  9 10  2  0
  9 11  1  0
 12 13  2  0
M  END
>  <DRUGBANK_ID>  (1) 
DB08060

>  <COMMON_NAME>  (1) 
4-(2-AMINOPHENYL)-4-OXOBUTANOIC ACID

>  <UNII>  (1) 
YU3DZ8UH2S

$$$$
