
     RDKit          3D

 40 44  0  0  0  0  0  0  0  0999 V2000
    0.8124   -0.5502    0.4369 C   0  0  0  0  0  0  0  0  0  0  0  0
   -0.9500   -0.2525    0.1188 C   0  0  0  0  0  0  0  0  0  0  0  0
   -1.0856    1.0733    0.5189 N   0  0  0  0  0  0  0  0  0  0  0  0
    0.2460    1.6282    0.1793 C   0  0  0  0  0  0  0  0  0  0  0  0
    1.4140    0.6689   -0.0441 C   0  0  0  0  0  0  0  0  0  0  0  0
   -1.5254    0.7744    1.8828 C   0  0  0  0  0  0  0  0  0  0  0  0
   -0.5777   -0.2358    2.6216 C   0  0  0  0  0  0  0  0  0  0  0  0
   -0.4395   -1.6535    2.2984 N   0  0  0  0  0  0  0  0  0  0  0  0
   -0.5289   -2.6270    1.0203 C   0  0  0  0  0  0  0  0  0  0  0  0
   -2.4930   -3.2479   -5.9303 C   0  0  2  0  0  0  0  0  0  0  0  0
   -2.6787   -4.6725   -6.2841 C   0  0  2  0  0  0  0  0  0  0  0  0
   -3.8112   -3.8629   -7.5908 C   0  0  1  0  0  0  0  0  0  0  0  0
   -3.0229   -3.0143   -8.6767 C   0  0  0  0  0  0  0  0  0  0  0  0
   -1.7431   -2.6994   -8.4550 C   0  0  0  0  0  0  0  0  0  0  0  0
   -1.3195   -2.9770   -7.0616 C   0  0  0  0  0  0  0  0  0  0  0  0
   -1.7990   -3.1423   -3.6907 C   0  0  0  0  0  0  0  0  0  0  0  0
   -1.8550   -4.6272   -3.5056 C   0  0  2  0  0  0  0  0  0  0  0  0
   -2.7737   -5.3096   -4.6404 C   0  0  0  0  0  0  0  0  0  0  0  0
   -2.0003   -2.4813   -4.8519 C   0  0  0  0  0  0  0  0  0  0  0  0
   -1.3850   -2.9914   -1.3213 C   0  0  0  0  0  0  0  0  0  0  0  0
   -1.7571   -4.2318   -0.9431 C   0  0  0  0  0  0  0  0  0  0  0  0
   -2.3522   -5.0416   -2.0388 C   0  0  0  0  0  0  0  0  0  0  0  0
   -1.6908   -2.3076   -2.5696 C   0  0  0  0  0  0  0  0  0  0  0  0
   -1.0014   -3.8532    1.4060 C   0  0  0  0  0  0  0  0  0  0  0  0
   -1.5385   -4.6602    0.3978 C   0  0  0  0  0  0  0  0  0  0  0  0
   -0.4845   -2.4254   -0.5151 C   0  0  0  0  0  0  0  0  0  0  0  0
    0.1518    0.2408    3.5061 O   0  0  0  0  0  0  0  0  0  0  0  0
   -0.8276   -2.2293   -9.5395 C   0  0  0  0  0  0  0  0  0  0  0  0
   -1.4013   -1.8153  -10.7107 N   0  0  0  0  0  0  0  0  0  0  0  0
    0.3849   -2.2663   -9.4462 O   0  0  0  0  0  0  0  0  0  0  0  0
   -5.0985   -4.4953   -7.9486 N   0  0  0  0  0  0  0  0  0  0  0  0
   -1.8957   -5.9007    0.7386 F   0  0  0  0  0  0  0  0  0  0  0  0
    0.3063   -1.6124   -1.4235 O   0  0  0  0  0  0  0  0  0  0  0  0
   -1.7335   -1.0428   -2.6381 O   0  0  0  0  0  0  0  0  0  0  0  0
   -2.1580   -1.1152   -5.0055 O   0  0  0  0  0  0  0  0  0  0  0  0
   -0.1322   -3.1673   -6.7962 O   0  0  0  0  0  0  0  0  0  0  0  0
   -3.8491   -3.1161   -5.4178 O   0  0  0  0  0  0  0  0  0  0  0  0
   -3.6681   -2.3275   -9.7299 O   0  0  0  0  0  0  0  0  0  0  0  0
   -6.0991   -4.5577   -6.8593 C   0  0  0  0  0  0  0  0  0  0  0  0
   -5.8555   -3.8674   -9.0570 C   0  0  0  0  0  0  0  0  0  0  0  0
  1  2  1  0
  2  3  1  0
  3  6  1  0
  3  4  1  0
  4  5  1  0
  5  1  1  0
  6  7  1  0
  7 27  2  0
  7  8  1  0
  8  9  1  0
  9 24  2  0
 10 15  1  0
 10 37  1  6
 10 19  1  0
 10 11  1  0
 11 12  1  0
 12 13  1  0
 12 31  1  6
 13 14  2  0
 13 38  1  0
 14 28  1  0
 14 15  1  0
 15 36  2  0
 16 23  1  0
 16 17  1  0
 16 19  2  0
 17 18  1  6
 11 18  1  1
 19 35  1  0
 20 23  1  0
 20 26  2  0
 20 21  1  0
 21 22  1  0
 22 17  1  0
 23 34  2  0
 24 25  1  0
 25 21  2  0
 25 32  1  0
 26  9  1  0
 26 33  1  0
 28 29  1  0
 28 30  2  0
 31 39  1  0
 31 40  1  0
M  END
>  <DRUGBANK_ID>  (1) 
DB12329

>  <COMMON_NAME>  (1) 
Eravacycline

>  <CAS_NUMBER>  (1) 
1207283-85-9

>  <UNII>  (1) 
07896928ZC

>  <SYNONYMS>  (1) 
Eravacyclina; Eravacycline; Eravacyclinum

$$$$
