
     RDKit          3D

 30 32  0  0  1  0  0  0  0  0999 V2000
   -1.0601    0.4979    2.2841 C   0  0  0  0  0  0  0  0  0  0  0  0
   -0.3589    0.4655    3.6170 C   0  0  0  0  0  0  0  0  0  0  0  0
   -0.8128   -0.0983    4.5900 O   0  0  0  0  0  0  0  0  0  0  0  0
    0.8662    1.0840    3.6767 N   0  0  0  0  0  0  0  0  0  0  0  0
    1.6859    1.5246    2.5354 C   0  0  1  0  0  0  0  0  0  0  0  0
    2.6762    2.5577    3.0798 C   0  0  0  0  0  0  0  0  0  0  0  0
    3.8544    2.8708    2.1640 C   0  0  0  0  0  0  0  0  0  0  0  0
    3.4950    2.9850    0.6990 C   0  0  0  0  0  0  0  0  0  0  0  0
    3.5484    4.2370    0.0847 C   0  0  0  0  0  0  0  0  0  0  0  0
    3.2542    4.4380   -1.2788 C   0  0  0  0  0  0  0  0  0  0  0  0
    2.8563    3.3253   -2.0544 C   0  0  0  0  0  0  0  0  0  0  0  0
    2.7803    2.0355   -1.4275 C   0  0  0  0  0  0  0  0  0  0  0  0
    3.1279    1.8545   -0.0616 C   0  0  0  0  0  0  0  0  0  0  0  0
    3.0670    0.5274    0.5950 C   0  0  0  0  0  0  0  0  0  0  0  0
    2.3713    0.3790    1.7952 C   0  0  0  0  0  0  0  0  0  0  0  0
    2.2716   -0.9031    2.3160 C   0  0  0  0  0  0  0  0  0  0  0  0
    2.9221   -2.0325    1.8497 C   0  0  0  0  0  0  0  0  0  0  0  0
    3.6301   -1.8917    0.6723 C   0  0  0  0  0  0  0  0  0  0  0  0
    3.6861   -0.6260    0.0457 C   0  0  0  0  0  0  0  0  0  0  0  0
    2.8749   -3.2407    2.5248 O   0  0  0  0  0  0  0  0  0  0  0  0
    2.0572   -3.4324    4.0372 P   0  0  0  0  0  0  0  0  0  0  0  0
    2.2758   -2.0322    4.5865 O   0  0  0  0  0  0  0  0  0  0  0  0
    0.6804   -3.6609    3.2111 O   0  0  0  0  0  0  0  0  0  0  0  0
    1.2395   -3.6240    5.5496 O   0  0  0  0  0  0  0  0  0  0  0  0
    2.3473    0.8646   -2.0477 O   0  0  0  0  0  0  0  0  0  0  0  0
    1.9964    0.8553   -3.4272 C   0  0  0  0  0  0  0  0  0  0  0  0
    2.5332    3.2115   -3.3645 O   0  0  0  0  0  0  0  0  0  0  0  0
    2.3567    4.1956   -4.3274 C   0  0  0  0  0  0  0  0  0  0  0  0
    3.4523    5.7745   -1.5340 O   0  0  0  0  0  0  0  0  0  0  0  0
    3.3254    6.2711   -2.8346 C   0  0  0  0  0  0  0  0  0  0  0  0
  1  2  1  0
  2  3  2  0
  2  4  1  0
  5  6  1  0
  5 15  1  0
  5  4  1  1
  6  7  1  0
  7  8  1  0
  8  9  2  0
  8 13  1  0
  9 10  1  0
 10 11  2  0
 10 29  1  0
 11 12  1  0
 11 27  1  0
 12 13  2  0
 12 25  1  0
 13 14  1  0
 14 15  2  0
 14 19  1  0
 15 16  1  0
 16 17  2  0
 17 18  1  0
 17 20  1  0
 18 19  2  0
 20 21  1  0
 21 22  2  0
 21 23  1  0
 21 24  1  0
 25 26  1  0
 27 28  1  0
 29 30  1  0
M  END
>  <DRUGBANK_ID>  (1) 
DB11872

>  <COMMON_NAME>  (1) 
ZD-6126

>  <CAS_NUMBER>  (1) 
219923-05-4

>  <UNII>  (1) 
GBO3S6M9W7

$$$$
