
     RDKit          3D

 28 29  0  0  1  0  0  0  0  0999 V2000
   -7.5488    6.6714   -5.2135 S   0  0  0  0  0  0  0  0  0  0  0  0
   -2.2413    1.7867   -3.3144 O   0  0  0  0  0  0  0  0  0  0  0  0
   -6.3536   -0.3538   -8.7432 O   0  0  0  0  0  0  0  0  0  0  0  0
   -6.8483    5.3376   -5.8426 O   0  0  0  0  0  0  0  0  0  0  0  0
   -5.3466    0.3737   -2.2558 O   0  0  0  0  0  0  0  0  0  0  0  0
   -4.2594   -0.4869   -3.9805 O   0  0  0  0  0  0  0  0  0  0  0  0
   -6.5218    7.4375   -4.5023 O   0  0  0  0  0  0  0  0  0  0  0  0
   -8.7694    6.2887   -4.5653 O   0  0  0  0  0  0  0  0  0  0  0  0
   -3.9015    2.6672   -4.5964 C   0  0  0  0  0  0  0  0  0  0  0  0
   -3.6642    1.8525   -3.3422 C   0  0  1  0  0  0  0  0  0  0  0  0
   -4.2219    1.8394   -5.8090 C   0  0  0  0  0  0  0  0  0  0  0  0
   -8.6223    1.1413   -9.0976 C   0  0  0  0  0  0  0  0  0  0  0  0
   -7.2788    0.4000   -9.6154 C   0  0  0  0  0  0  0  0  0  0  0  0
   -5.2691    2.3088   -6.5023 C   0  0  0  0  0  0  0  0  0  0  0  0
   -3.6607    0.6720   -6.3333 C   0  0  0  0  0  0  0  0  0  0  0  0
   -8.6417    2.3677   -8.1530 C   0  0  0  0  0  0  0  0  0  0  0  0
   -5.4855    0.3353   -7.9366 C   0  0  0  0  0  0  0  0  0  0  0  0
   -5.8245    1.5744   -7.5241 C   0  0  0  0  0  0  0  0  0  0  0  0
   -4.2962   -0.0899   -7.3854 C   0  0  0  0  0  0  0  0  0  0  0  0
   -4.4704    0.4933   -3.2807 C   0  0  0  0  0  0  0  0  0  0  0  0
   -8.4207    3.6532   -8.6739 C   0  0  0  0  0  0  0  0  0  0  0  0
   -8.4992    2.1804   -6.7497 C   0  0  0  0  0  0  0  0  0  0  0  0
   -1.7512    0.7075   -2.5533 C   0  0  0  0  0  0  0  0  0  0  0  0
   -7.6618    4.4421   -6.5054 C   0  0  0  0  0  0  0  0  0  0  0  0
   -7.8860    4.6549   -7.8635 C   0  0  0  0  0  0  0  0  0  0  0  0
   -8.0092    3.2162   -5.9236 C   0  0  0  0  0  0  0  0  0  0  0  0
   -2.1826    0.8779   -1.1129 C   0  0  0  0  0  0  0  0  0  0  0  0
   -7.9163    7.5635   -6.7202 C   0  0  0  0  0  0  0  0  0  0  0  0
  1  4  1  0
  1  7  2  0
  1  8  2  0
  1 28  1  0
  2 23  1  0
  3 13  1  0
  3 17  1  0
  4 24  1  0
  5 20  1  0
  6 20  2  0
  9 11  1  0
 10 20  1  0
 10  9  1  6
 10  2  1  0
 11 14  2  0
 11 15  1  0
 12 13  1  0
 12 16  1  0
 14 18  1  0
 15 19  2  0
 16 21  2  0
 16 22  1  0
 17 18  2  0
 17 19  1  0
 21 25  1  0
 22 26  2  0
 23 27  1  0
 24 25  2  0
 24 26  1  0
M  END
>  <DRUGBANK_ID>  (1) 
DB06536

>  <SECONDARY_ACCESSION_NUMBERS>  (1) 
DB07399

>  <COMMON_NAME>  (1) 
Tesaglitazar

>  <CAS_NUMBER>  (1) 
251565-85-2

>  <UNII>  (1) 
6734037O3L

>  <SYNONYMS>  (1) 
Tesaglitazar

$$$$
