
     RDKit          3D

 25 24  0  0  1  0  0  0  0  0999 V2000
    7.8406    0.1008    0.1964 C   0  0  0  0  0  0  0  0  0  0  0  0
    6.5219    0.7236    0.6253 C   0  0  0  0  0  0  0  0  0  0  0  0
    5.3457   -0.0887    0.0811 C   0  0  0  0  0  0  0  0  0  0  0  0
    5.3734   -1.5293    0.6036 C   0  0  0  0  0  0  0  0  0  0  0  0
    5.3315   -1.5557    2.1366 C   0  0  0  0  0  0  0  0  0  0  0  0
    4.0352   -0.9240    2.6451 C   0  0  0  0  0  0  0  0  0  0  0  0
    2.8411   -1.7349    2.1525 C   0  0  0  0  0  0  0  0  0  0  0  0
    2.9189   -3.1943    2.6223 C   0  0  0  0  0  0  0  0  0  0  0  0
    1.7734   -4.1195    6.2425 C   0  0  0  0  0  0  0  0  0  0  0  0
    0.5824   -3.5855    7.0587 C   0  0  0  0  0  0  0  0  0  0  0  0
    0.7255   -4.5505    3.9238 C   0  0  0  0  0  0  0  0  0  0  0  0
   -0.4521   -0.1754    6.8774 C   0  0  0  0  0  0  0  0  0  0  0  0
   -0.1036   -3.5604    3.0270 C   0  0  2  0  0  0  0  0  0  0  0  0
   -1.2305   -0.9036    5.7447 C   0  0  1  0  0  0  0  0  0  0  0  0
    2.8637   -3.3014    4.1598 C   0  0  0  0  0  0  0  0  0  0  0  0
   -1.0711   -2.6055    3.7504 C   0  0  2  0  0  0  0  0  0  0  0  0
   -0.3432   -1.6404    4.7226 C   0  0  1  0  0  0  0  0  0  0  0  0
    1.7621   -3.9294    4.7517 N   0  0  0  0  0  0  0  0  0  0  0  0
   -0.6976   -4.0988    6.7271 O   0  0  0  0  0  0  0  0  0  0  0  0
   -1.3292    0.6252    7.6624 O   0  0  0  0  0  0  0  0  0  0  0  0
   -0.8387   -4.3594    2.0858 O   0  0  0  0  0  0  0  0  0  0  0  0
   -2.2304   -1.7592    6.3027 O   0  0  0  0  0  0  0  0  0  0  0  0
    3.7549   -2.8280    4.8427 O   0  0  0  0  0  0  0  0  0  0  0  0
   -2.0112   -3.4739    4.3936 O   0  0  0  0  0  0  0  0  0  0  0  0
    0.4973   -0.7174    4.0477 O   0  0  0  0  0  0  0  0  0  0  0  0
  2  1  1  0
  3  2  1  0
  4  3  1  0
  5  4  1  0
  6  5  1  0
  7  6  1  0
  8  7  1  0
 10  9  1  0
 13 21  1  6
 13 16  1  0
 13 11  1  0
 14 22  1  1
 14 17  1  0
 14 12  1  0
 15  8  1  0
 16 24  1  1
 16 17  1  0
 17 25  1  6
 18  9  1  0
 18 11  1  0
 18 15  1  0
 19 10  1  0
 20 12  1  0
 23 15  2  0
M  END
>  <DRUGBANK_ID>  (1) 
DB01970

>  <SECONDARY_ACCESSION_NUMBERS>  (1) 
EXPT01736

>  <COMMON_NAME>  (1) 
Hg9a-9, Nonanoyl-N-Hydroxyethylglucamide

$$$$
