
     RDKit          3D

 36 38  0  0  1  0  0  0  0  0999 V2000
    1.1176    1.1725    2.3511 C   0  0  0  0  0  0  0  0  0  0  0  0
    0.5735   -0.0391    1.6185 C   0  0  2  0  0  0  0  0  0  0  0  0
    0.8321   -0.0336    0.1041 C   0  0  1  0  0  0  0  0  0  0  0  0
   -0.0141    0.9224   -0.7618 C   0  0  0  0  0  0  0  0  0  0  0  0
    0.6604    1.6865   -1.4836 O   0  0  0  0  0  0  0  0  0  0  0  0
   -1.3870    0.8716   -0.8841 N   0  0  0  0  0  0  0  0  0  0  0  0
   -2.4091    0.3579    0.0217 C   0  0  0  0  0  0  0  0  0  0  0  0
   -3.4657   -0.2667   -0.8201 C   0  0  0  0  0  0  0  0  0  0  0  0
   -3.4995    0.6549   -2.0110 C   0  0  0  0  0  0  0  0  0  0  0  0
   -2.0619    1.3017   -2.1276 C   0  0  1  0  0  0  0  0  0  0  0  0
   -2.2853    2.8302   -2.3978 C   0  0  0  0  0  0  0  0  0  0  0  0
   -3.2291    3.1496   -3.1242 O   0  0  0  0  0  0  0  0  0  0  0  0
   -1.4930    3.7728   -1.7616 N   0  0  0  0  0  0  0  0  0  0  0  0
   -0.1270    4.1282   -2.1278 C   0  0  0  0  0  0  0  0  0  0  0  0
    0.4037    4.6486   -0.8008 C   0  0  0  0  0  0  0  0  0  0  0  0
   -0.7588    5.5171   -0.3125 C   0  0  0  0  0  0  0  0  0  0  0  0
   -2.0559    4.8237   -0.8278 C   0  0  2  0  0  0  0  0  0  0  0  0
   -2.7445    4.0205    0.3865 C   0  0  0  0  0  0  0  0  0  0  0  0
   -3.2268    4.7004    1.6848 C   0  0  0  0  0  0  0  0  0  0  0  0
   -4.2848    5.5174    1.5074 C   0  0  0  0  0  0  0  0  0  0  0  0
   -4.6143    6.6310    2.3752 C   0  0  0  0  0  0  0  0  0  0  0  0
   -4.3235    6.6488    3.6719 C   0  0  0  0  0  0  0  0  0  0  0  0
   -3.5285    5.5857    4.0026 C   0  0  0  0  0  0  0  0  0  0  0  0
   -2.8719    4.7214    3.0136 C   0  0  0  0  0  0  0  0  0  0  0  0
   -2.8724    5.9072   -1.7264 C   0  0  0  0  0  0  0  0  0  0  0  0
   -3.0937    5.7459   -2.9746 O   0  0  0  0  0  0  0  0  0  0  0  0
   -3.2983    7.1359   -1.3357 N   0  0  0  0  0  0  0  0  0  0  0  0
   -3.6183    7.5233    0.0000 C   0  0  1  0  0  0  0  0  0  0  0  0
   -2.7831    8.6958    0.6234 C   0  0  1  0  0  0  0  0  0  0  0  0
   -3.5411    9.9359    0.3471 C   0  0  0  0  0  0  0  0  0  0  0  0
   -2.3925    8.6272    2.0108 O   0  0  0  0  0  0  0  0  0  0  0  0
   -5.4262    7.3711    0.0328 C   0  0  0  0  0  0  0  0  0  0  0  0
   -6.1338    6.3532    0.0771 O   0  0  0  0  0  0  0  0  0  0  0  0
   -6.2273    8.4288    0.2432 N   0  0  0  0  0  0  0  0  0  0  0  0
    2.3050    0.2808   -0.0936 N   0  0  0  0  0  0  0  0  0  0  0  0
   -0.7801    0.0080    2.0094 O   0  0  0  0  0  0  0  0  0  0  0  0
  2 36  1  0
  2  3  1  0
  2  1  1  1
  3  4  1  0
  3 35  1  1
  4  5  2  0
  4  6  1  0
  6  7  1  0
  6 10  1  0
  7  8  1  0
  8  9  1  0
  9 10  1  0
 10 11  1  1
 11 12  2  0
 11 13  1  0
 13 14  1  0
 13 17  1  0
 14 15  1  0
 15 16  1  0
 16 17  1  0
 17 18  1  1
 17 25  1  0
 18 19  1  0
 19 20  2  0
 19 24  1  0
 20 21  1  0
 21 22  2  0
 22 23  1  0
 23 24  2  0
 25 26  2  0
 25 27  1  0
 28 27  1  6
 28 29  1  0
 28 32  1  0
 29 30  1  1
 29 31  1  0
 32 33  2  0
 32 34  1  0
M  END
>  <DRUGBANK_ID>  (1) 
DB11784

>  <COMMON_NAME>  (1) 
NRX-1074

>  <CAS_NUMBER>  (1) 
1421866-48-9

>  <UNII>  (1) 
TTT1F11FZB

$$$$
