
     RDKit          3D

 13 12  0  0  0  0  0  0  0  0999 V2000
    0.8258   -0.0318    0.0740 C   0  0  0  0  0  0  0  0  0  0  0  0
    0.0811   -0.9326   -0.2870 O   0  0  0  0  0  0  0  0  0  0  0  0
    0.2657    1.0027    0.7251 O   0  0  0  0  0  0  0  0  0  0  0  0
    2.5048    2.6163   -0.2347 C   0  0  0  0  0  0  0  0  0  0  0  0
    3.2673    3.3648    0.3599 O   0  0  0  0  0  0  0  0  0  0  0  0
    1.2213    2.9559   -0.4331 O   0  0  0  0  0  0  0  0  0  0  0  0
    3.3195   -1.3630   -3.1687 O   0  0  0  0  0  0  0  0  0  0  0  0
    2.5217   -1.3283   -2.2452 C   0  0  0  0  0  0  0  0  0  0  0  0
    1.2057   -1.3677   -2.4808 O   0  0  0  0  0  0  0  0  0  0  0  0
    2.8868   -1.2254   -0.7827 C   0  0  0  0  0  0  0  0  0  0  0  0
    2.8754    1.2938   -0.8435 C   0  0  0  0  0  0  0  0  0  0  0  0
    2.3679    0.0519   -0.0854 C   0  0  0  0  0  0  0  0  0  0  0  0
    2.9304    0.0540    1.2466 O   0  0  0  0  0  0  0  0  0  0  0  0
  1 12  1  0
  2  1  2  0
  3  1  1  0
  4 11  1  0
  5  4  2  0
  6  4  1  0
  8  7  2  0
  8  9  1  0
 10  8  1  0
 11 12  1  0
 12 10  1  0
 12 13  1  0
M  END
>  <DRUGBANK_ID>  (1) 
DB04272

>  <SECONDARY_ACCESSION_NUMBERS>  (1) 
EXPT00922

>  <COMMON_NAME>  (1) 
Citric acid

>  <CAS_NUMBER>  (1) 
77-92-9

>  <UNII>  (1) 
XF417D3PSL

>  <SYNONYMS>  (1) 
2-hydroxy-1,2,3-propanetricarboxyic acid; 2-Hydroxytricarballylic acid; 3-carboxy-3-hydroxypentane-1,5-dioic acid; ácido cítrico; Acidum citricum; Anhydrous citric acid; Citric acid monoglyceride; Citric acid, anhydrous; Citric acid,anhydrous; Citronensäure

$$$$
