
     RDKit          3D

 36 38  0  0  1  0  0  0  0  0999 V2000
    1.1731    0.1613    0.0471 C   0  0  0  0  0  0  0  0  0  0  0  0
    0.6028   -1.2336    0.0986 C   0  0  1  0  0  0  0  0  0  0  0  0
    1.2589   -2.0344    1.2504 C   0  0  0  0  0  0  0  0  0  0  0  0
    0.7881   -1.6441    2.4506 F   0  0  0  0  0  0  0  0  0  0  0  0
    1.1267   -3.3707    1.2061 F   0  0  0  0  0  0  0  0  0  0  0  0
    2.5977   -1.8384    1.2337 F   0  0  0  0  0  0  0  0  0  0  0  0
   -0.8527   -1.2984   -0.0310 O   0  0  0  0  0  0  0  0  0  0  0  0
   -1.6680   -0.9713    1.0110 C   0  0  0  0  0  0  0  0  0  0  0  0
   -1.4497    0.2652    1.6280 C   0  0  0  0  0  0  0  0  0  0  0  0
   -2.2378    0.7521    2.6473 C   0  0  0  0  0  0  0  0  0  0  0  0
   -3.3720    0.0538    2.9959 C   0  0  0  0  0  0  0  0  0  0  0  0
   -3.6920   -1.1540    2.3254 C   0  0  0  0  0  0  0  0  0  0  0  0
   -2.8017   -1.7364    1.3647 C   0  0  0  0  0  0  0  0  0  0  0  0
   -3.1743   -3.1127    0.7761 C   0  0  0  0  0  0  0  0  0  0  0  0
   -4.2577   -3.6108    1.0795 O   0  0  0  0  0  0  0  0  0  0  0  0
   -2.3220   -3.7602   -0.1225 N   0  0  0  0  0  0  0  0  0  0  0  0
   -1.0020   -4.2595    0.2526 C   0  0  0  0  0  0  0  0  0  0  0  0
   -0.0344   -3.9472   -0.9105 C   0  0  0  0  0  0  0  0  0  0  0  0
   -0.4935   -4.4564   -2.1862 N   0  0  0  0  0  0  0  0  0  0  0  0
   -1.7914   -3.8824   -2.5552 C   0  0  0  0  0  0  0  0  0  0  0  0
   -2.7693   -4.3334   -1.4075 C   0  0  0  0  0  0  0  0  0  0  0  0
    0.5348   -4.8370   -3.0266 C   0  0  0  0  0  0  0  0  0  0  0  0
    1.2712   -5.9610   -2.6165 C   0  0  0  0  0  0  0  0  0  0  0  0
    2.2211   -6.5292   -3.4371 C   0  0  0  0  0  0  0  0  0  0  0  0
    2.4931   -5.9277   -4.6591 C   0  0  0  0  0  0  0  0  0  0  0  0
    1.8028   -4.7562   -4.9661 C   0  0  0  0  0  0  0  0  0  0  0  0
    0.8192   -4.2087   -4.1893 N   0  0  0  0  0  0  0  0  0  0  0  0
    3.4631   -6.5379   -5.6192 C   0  0  0  0  0  0  0  0  0  0  0  0
    2.8928   -6.8327   -6.8180 F   0  0  0  0  0  0  0  0  0  0  0  0
    4.5180   -5.7246   -5.8881 F   0  0  0  0  0  0  0  0  0  0  0  0
    3.9988   -7.7072   -5.1670 F   0  0  0  0  0  0  0  0  0  0  0  0
    1.0170   -6.5386   -1.4306 F   0  0  0  0  0  0  0  0  0  0  0  0
   -4.3673    0.6840    4.3347 S   0  0  0  0  0  0  0  0  0  0  0  0
   -5.6111    1.1298    3.7630 O   0  0  0  0  0  0  0  0  0  0  0  0
   -4.3179   -0.3361    5.3770 O   0  0  0  0  0  0  0  0  0  0  0  0
   -3.5298    2.1224    4.9899 C   0  0  0  0  0  0  0  0  0  0  0  0
  2  1  1  1
  2  3  1  0
  2  7  1  0
  3  4  1  0
  3  5  1  0
  3  6  1  0
  7  8  1  0
  8  9  2  0
  8 13  1  0
  9 10  1  0
 10 11  2  0
 11 12  1  0
 11 33  1  0
 12 13  2  0
 13 14  1  0
 14 15  2  0
 14 16  1  0
 16 17  1  0
 16 21  1  0
 17 18  1  0
 18 19  1  0
 19 20  1  0
 19 22  1  0
 20 21  1  0
 22 23  2  0
 22 27  1  0
 23 24  1  0
 23 32  1  0
 24 25  2  0
 25 26  1  0
 25 28  1  0
 26 27  2  0
 28 29  1  0
 28 30  1  0
 28 31  1  0
 33 34  2  0
 33 35  2  0
 33 36  1  0
M  END
>  <DRUGBANK_ID>  (1) 
DB12426

>  <COMMON_NAME>  (1) 
Bitopertin

>  <CAS_NUMBER>  (1) 
845614-11-1

>  <UNII>  (1) 
Q8L6AN59YY

>  <SYNONYMS>  (1) 
Bitopertin

$$$$
