
     RDKit          3D

 29 33  0  0  0  0  0  0  0  0999 V2000
   -2.3224   -1.4910   -7.6282 C   0  0  0  0  0  0  0  0  0  0  0  0
   -1.6919   -0.4700   -6.8159 N   0  0  0  0  0  0  0  0  0  0  0  0
   -0.6178    0.1642   -7.6058 C   0  0  0  0  0  0  0  0  0  0  0  0
    0.1270    1.1862   -6.8569 C   0  0  0  0  0  0  0  0  0  0  0  0
    1.4285    1.3241   -6.7112 N   0  0  0  0  0  0  0  0  0  0  0  0
    1.6486    2.5257   -6.1007 N   0  0  0  0  0  0  0  0  0  0  0  0
    0.4882    3.1480   -5.9577 C   0  0  0  0  0  0  0  0  0  0  0  0
    0.3657    4.5002   -5.2891 C   0  0  1  0  0  0  0  0  0  0  0  0
    1.4678    5.4593   -5.7694 C   0  0  0  0  0  0  0  0  0  0  0  0
    1.1191    6.2053   -7.0510 C   0  0  0  0  0  0  0  0  0  0  0  0
   -0.2067    7.0086   -6.9954 C   0  0  1  0  0  0  0  0  0  0  0  0
   -1.3168    6.0974   -6.5878 C   0  0  0  0  0  0  0  0  0  0  0  0
   -1.0161    5.1583   -5.3638 C   0  0  0  0  0  0  0  0  0  0  0  0
   -0.3778    8.2579   -6.3100 O   0  0  0  0  0  0  0  0  0  0  0  0
   -0.4542    8.1502   -4.9476 C   0  0  0  0  0  0  0  0  0  0  0  0
    0.7311    7.9812   -4.3575 N   0  0  0  0  0  0  0  0  0  0  0  0
    0.7434    7.5786   -3.0723 C   0  0  0  0  0  0  0  0  0  0  0  0
   -0.3906    7.4162   -2.3053 C   0  0  0  0  0  0  0  0  0  0  0  0
   -1.6150    7.7268   -2.8903 C   0  0  0  0  0  0  0  0  0  0  0  0
   -1.6591    8.1071   -4.2421 C   0  0  0  0  0  0  0  0  0  0  0  0
   -0.5246    2.3058   -6.4155 N   0  0  0  0  0  0  0  0  0  0  0  0
   -1.9009    2.5487   -6.7208 C   0  0  0  0  0  0  0  0  0  0  0  0
   -2.1606    3.6967   -7.4257 C   0  0  0  0  0  0  0  0  0  0  0  0
   -3.4444    4.2662   -7.4991 C   0  0  0  0  0  0  0  0  0  0  0  0
   -4.5238    3.5071   -7.2047 C   0  0  0  0  0  0  0  0  0  0  0  0
   -6.1042    4.1557   -7.3821 Cl  0  0  0  0  0  0  0  0  0  0  0  0
   -4.2906    2.1756   -6.8444 C   0  0  0  0  0  0  0  0  0  0  0  0
   -2.9545    1.7110   -6.6062 C   0  0  0  0  0  0  0  0  0  0  0  0
   -2.7019    0.3294   -6.1104 C   0  0  0  0  0  0  0  0  0  0  0  0
  1  2  1  0
  2  3  1  0
  2 29  1  0
  3  4  1  0
  4  5  2  0
  4 21  1  0
  5  6  1  0
  6  7  2  0
  7 21  1  0
  8  9  1  0
  8 13  1  0
  8  7  1  6
  9 10  1  0
 11 10  1  0
 11 12  1  0
 11 14  1  1
 12 13  1  0
 14 15  1  0
 15 16  2  0
 15 20  1  0
 16 17  1  0
 17 18  2  0
 18 19  1  0
 19 20  2  0
 21 22  1  0
 22 23  2  0
 22 28  1  0
 23 24  1  0
 24 25  2  0
 25 26  1  0
 25 27  1  0
 27 28  2  0
 28 29  1  0
M  END
>  <DRUGBANK_ID>  (1) 
DB14823

>  <COMMON_NAME>  (1) 
Balovaptan

>  <CAS_NUMBER>  (1) 
1228088-30-9

>  <UNII>  (1) 
RAX5D5AGV6

>  <SYNONYMS>  (1) 
Balovaptan

$$$$
