PY1
     RDKit          3D

 21 24  0  0  0  0  0  0  0  0999 V2000
    1.0179    0.7834    0.0251 C   0  0  0  0  0  0  0  0  0  0  0  0
   -0.3701    1.1238    0.0253 C   0  0  0  0  0  0  0  0  0  0  0  0
   -1.1297    0.0129    0.0135 N   0  0  0  0  0  0  0  0  0  0  0  0
   -0.2468   -0.9971    0.0336 N   0  0  0  0  0  0  0  0  0  0  0  0
    1.0535   -0.5925    0.0429 C   0  0  0  0  0  0  0  0  0  0  0  0
    2.1910    1.6436    0.0012 C   0  0  0  0  0  0  0  0  0  0  0  0
   -0.9272    2.4783   -0.0194 C   0  0  0  0  0  0  0  0  0  0  0  0
   -1.6817    2.8772    1.0356 N   0  0  0  0  0  0  0  0  0  0  0  0
   -2.1061    4.1600    1.0308 C   0  0  0  0  0  0  0  0  0  0  0  0
   -1.7980    5.0751    0.0359 C   0  0  0  0  0  0  0  0  0  0  0  0
   -1.0175    4.6495   -1.0314 C   0  0  0  0  0  0  0  0  0  0  0  0
   -0.5766    3.3308   -1.0648 C   0  0  0  0  0  0  0  0  0  0  0  0
    3.1198    1.6202   -1.0685 C   0  0  0  0  0  0  0  0  0  0  0  0
    4.1841    2.5485   -1.0142 C   0  0  0  0  0  0  0  0  0  0  0  0
    4.3338    3.4271   -0.0084 N   0  0  0  0  0  0  0  0  0  0  0  0
    3.4279    3.4190    0.9909 C   0  0  0  0  0  0  0  0  0  0  0  0
    2.3505    2.5603    1.0409 C   0  0  0  0  0  0  0  0  0  0  0  0
    3.0349    0.7480   -2.1821 C   0  0  0  0  0  0  0  0  0  0  0  0
    3.9849    0.7685   -3.1974 C   0  0  0  0  0  0  0  0  0  0  0  0
    5.0261    1.6807   -3.1329 C   0  0  0  0  0  0  0  0  0  0  0  0
    5.1099    2.5601   -2.0502 C   0  0  0  0  0  0  0  0  0  0  0  0
  1  2  1  0
  1  5  2  0
  1  6  1  0
  2  3  2  0
  2  7  1  0
  3  4  1  0
  4  5  1  0
  6 13  2  0
  6 17  1  0
  7  8  2  0
  7 12  1  0
  8  9  1  0
  9 10  2  0
 10 11  1  0
 11 12  2  0
 13 14  1  0
 13 18  1  0
 14 15  2  0
 14 21  1  0
 15 16  1  0
 16 17  2  0
 18 19  2  0
 19 20  1  0
 20 21  2  0
M  END
>  <DRUGBANK_ID>  (1) 
DB03921

>  <SECONDARY_ACCESSION_NUMBERS>  (1) 
EXPT02712

>  <COMMON_NAME>  (1) 
4-(3-Pyridin-2-Yl-1h-Pyrazol-4-Yl)Quinoline

$$$$
