Genistein
     RDKit          3D

 20 22  0  0  0  0  0  0  0  0999 V2000
    2.4093    0.1128    0.0853 O   0  0  0  0  0  0  0  0  0  0  0  0
    1.0592    0.0916   -0.0725 C   0  0  0  0  0  0  0  0  0  0  0  0
    0.4205   -1.1110   -0.2784 C   0  0  0  0  0  0  0  0  0  0  0  0
   -0.9380   -1.0903   -0.4935 C   0  0  0  0  0  0  0  0  0  0  0  0
   -1.6933    0.0143   -0.0588 C   0  0  0  0  0  0  0  0  0  0  0  0
   -1.0631    1.2537    0.0223 C   0  0  0  0  0  0  0  0  0  0  0  0
    0.3370    1.2858   -0.0281 C   0  0  0  0  0  0  0  0  0  0  0  0
   -2.8220   -0.3945    0.8440 C   0  0  0  0  0  0  0  0  0  0  0  0
   -2.2846   -0.9259    1.9752 C   0  0  0  0  0  0  0  0  0  0  0  0
   -2.4282   -2.2692    2.3098 O   0  0  0  0  0  0  0  0  0  0  0  0
   -2.6782   -3.0773    1.2217 C   0  0  0  0  0  0  0  0  0  0  0  0
   -1.8797   -4.1923    1.0234 C   0  0  0  0  0  0  0  0  0  0  0  0
   -2.2029   -5.0496   -0.0179 C   0  0  0  0  0  0  0  0  0  0  0  0
   -1.5157   -6.2159   -0.1763 O   0  0  0  0  0  0  0  0  0  0  0  0
   -3.2465   -4.7553   -0.9025 C   0  0  0  0  0  0  0  0  0  0  0  0
   -3.9282   -3.5381   -0.8008 C   0  0  0  0  0  0  0  0  0  0  0  0
   -4.8251   -3.2467   -1.7891 O   0  0  0  0  0  0  0  0  0  0  0  0
   -3.6208   -2.6880    0.2619 C   0  0  0  0  0  0  0  0  0  0  0  0
   -3.9493   -1.2490    0.3173 C   0  0  0  0  0  0  0  0  0  0  0  0
   -5.0111   -0.8003   -0.1061 O   0  0  0  0  0  0  0  0  0  0  0  0
  1  2  1  0
  2  3  2  0
  2  7  1  0
  3  4  1  0
  4  5  2  0
  5  6  1  0
  5  8  1  0
  6  7  2  0
  8  9  2  0
  8 19  1  0
  9 10  1  0
 10 11  1  0
 11 12  2  0
 11 18  1  0
 12 13  1  0
 13 14  1  0
 13 15  2  0
 15 16  1  0
 16 17  1  0
 16 18  2  0
 18 19  1  0
 19 20  2  0
M  END
>  <DRUGBANK_ID>  (1) 
DB01645

>  <SECONDARY_ACCESSION_NUMBERS>  (1) 
EXPT01582

>  <COMMON_NAME>  (1) 
Genistein

>  <CAS_NUMBER>  (1) 
446-72-0

>  <UNII>  (1) 
DH2M523P0H

>  <SYNONYMS>  (1) 
4',5,7-trihydroxyisoflavone; 4H-1-BENZOPYRAN-4-ONE, 5,7-DIHYDROXY-3-(4-HYDROXYPHENYL)-; 5,7-dihydroxy-3-(4-hydroxyphenyl)-4H-1-benzopyran-4-one; 5,7-dihydroxy-3-(4-hydroxyphenyl)-chromen-4-one; 5,7,4'-trihydroxyisoflavone; Genistein; Genisteol; Genisterin

$$$$
