
     RDKit          3D

 41 42  0  0  0  0  0  0  0  0999 V2000
    0.1490   -1.0955    0.1392 C   0  0  0  0  0  0  0  0  0  0  0  0
    1.3575   -0.4696    0.0247 C   0  0  0  0  0  0  0  0  0  0  0  0
    2.7231   -1.1271    0.0193 C   0  0  0  0  0  0  0  0  0  0  0  0
    1.5042    1.0388   -0.1346 C   0  0  0  0  0  0  0  0  0  0  0  0
    0.2387    1.8319    0.1374 C   0  0  0  0  0  0  0  0  0  0  0  0
   -0.9267    1.1506   -0.5449 C   0  0  0  0  0  0  0  0  0  0  0  0
   -1.1739   -0.2938   -0.0139 C   0  0  0  0  0  0  0  0  0  0  0  0
   -2.1318   -0.9008   -1.0756 C   0  0  0  0  0  0  0  0  0  0  0  0
   -1.8621   -0.1797    1.3667 C   0  0  0  0  0  0  0  0  0  0  0  0
  -13.2792  -22.0702    2.7518 C   0  0  0  0  0  0  0  0  0  0  0  0
  -11.8445  -22.6540    2.7785 C   0  0  0  0  0  0  0  0  0  0  0  0
  -11.3366  -22.7485    1.3253 C   0  0  0  0  0  0  0  0  0  0  0  0
  -11.9845  -24.0887    3.3600 C   0  0  0  0  0  0  0  0  0  0  0  0
  -10.6401  -24.6750    3.7607 C   0  0  2  0  0  0  0  0  0  0  0  0
  -10.8165  -26.0091    4.2356 O   0  0  0  0  0  0  0  0  0  0  0  0
  -10.0102  -23.8126    4.8510 C   0  0  0  0  0  0  0  0  0  0  0  0
  -10.0936  -22.3244    4.5998 C   0  0  0  0  0  0  0  0  0  0  0  0
   -9.2522  -21.5366    5.5763 C   0  0  0  0  0  0  0  0  0  0  0  0
  -10.8571  -21.7923    3.6134 C   0  0  0  0  0  0  0  0  0  0  0  0
  -10.8365  -20.3544    3.3285 C   0  0  0  0  0  0  0  0  0  0  0  0
   -9.7310  -19.6057    3.1431 C   0  0  0  0  0  0  0  0  0  0  0  0
   -9.6753  -18.1568    2.9412 C   0  0  0  0  0  0  0  0  0  0  0  0
  -10.9747  -17.3894    2.8243 C   0  0  0  0  0  0  0  0  0  0  0  0
   -8.4814  -17.5132    2.8691 C   0  0  0  0  0  0  0  0  0  0  0  0
   -8.3656  -16.0792    2.6438 C   0  0  0  0  0  0  0  0  0  0  0  0
   -7.2482  -15.3389    2.5303 C   0  0  0  0  0  0  0  0  0  0  0  0
   -7.2317  -13.8866    2.2790 C   0  0  0  0  0  0  0  0  0  0  0  0
   -8.5297  -13.1235    2.1297 C   0  0  0  0  0  0  0  0  0  0  0  0
   -6.0657  -13.2066    2.1728 C   0  0  0  0  0  0  0  0  0  0  0  0
   -5.9827  -11.7697    1.9240 C   0  0  0  0  0  0  0  0  0  0  0  0
   -4.8222  -11.1044    1.8219 C   0  0  0  0  0  0  0  0  0  0  0  0
   -4.7119   -9.6744    1.5746 C   0  0  0  0  0  0  0  0  0  0  0  0
   -3.5448   -8.9980    1.4692 C   0  0  0  0  0  0  0  0  0  0  0  0
   -2.1990   -9.6818    1.6051 C   0  0  0  0  0  0  0  0  0  0  0  0
   -3.5324   -7.5421    1.2169 C   0  0  0  0  0  0  0  0  0  0  0  0
   -2.3957   -6.8313    1.1079 C   0  0  0  0  0  0  0  0  0  0  0  0
   -2.2440   -5.4092    0.8854 C   0  0  0  0  0  0  0  0  0  0  0  0
   -1.0478   -4.7737    0.8078 C   0  0  0  0  0  0  0  0  0  0  0  0
    0.2939   -5.4541    0.9108 C   0  0  0  0  0  0  0  0  0  0  0  0
   -1.0128   -3.3219    0.6184 C   0  0  0  0  0  0  0  0  0  0  0  0
    0.0710   -2.5511    0.3944 C   0  0  0  0  0  0  0  0  0  0  0  0
  1  2  2  0
  2  3  1  0
  2  4  1  0
  4  5  1  0
  5  6  1  0
  6  7  1  0
  7  1  1  0
  7  8  1  0
  7  9  1  0
 10 11  1  0
 11 12  1  0
 11 13  1  0
 13 14  1  0
 14 15  1  1
 14 16  1  0
 16 17  1  0
 17 18  1  0
 17 19  2  0
 19 11  1  0
 19 20  1  0
 20 21  2  0
 21 22  1  0
 22 23  1  0
 22 24  2  0
 24 25  1  0
 25 26  2  0
 26 27  1  0
 27 28  1  0
 27 29  2  0
 29 30  1  0
 30 31  2  0
 31 32  1  0
 32 33  2  0
 33 34  1  0
 33 35  1  0
 35 36  2  0
 36 37  1  0
 37 38  2  0
 38 39  1  0
 38 40  1  0
 40 41  2  0
 41  1  1  0
M  END
>  <DRUGBANK_ID>  (1) 
DB15914

>  <COMMON_NAME>  (1) 
Cryptoxanthin

>  <CAS_NUMBER>  (1) 
472-70-8

>  <UNII>  (1) 
6ZIB13GI33

>  <SYNONYMS>  (1) 
beta-Cryptoxanthin; Cryptoxanthine; Cryptoxanthol; Kryptoxanthin; Neocryptoxanthin

$$$$
