
     RDKit          3D

 20 21  0  0  1  0  0  0  0  0999 V2000
    0.8674   -1.1479    2.2765 C   0  0  0  0  0  0  0  0  0  0  0  0
    0.4245   -1.1285    0.8070 C   0  0  2  0  0  0  0  0  0  0  0  0
    1.0570    0.0382    0.0352 C   0  0  0  0  0  0  0  0  0  0  0  0
    2.5507    0.1057    0.3488 C   0  0  0  0  0  0  0  0  0  0  0  0
    3.1966   -1.2822    0.1220 C   0  0  0  0  0  0  0  0  0  0  0  0
    3.2607   -1.5740   -1.3722 C   0  0  0  0  0  0  0  0  0  0  0  0
    3.9733   -0.5378   -2.1084 N   0  0  0  0  0  0  0  0  0  0  0  0
    5.1193    0.0197   -1.5335 C   0  0  0  0  0  0  0  0  0  0  0  0
    5.6230   -0.2969   -0.4548 O   0  0  0  0  0  0  0  0  0  0  0  0
    5.6859    1.0517   -2.2960 C   0  0  0  0  0  0  0  0  0  0  0  0
    5.2146    1.4312   -3.5120 C   0  0  0  0  0  0  0  0  0  0  0  0
    5.9927    2.4140   -4.0461 N   0  0  0  0  0  0  0  0  0  0  0  0
    6.9267    2.6370   -3.1350 C   0  0  0  0  0  0  0  0  0  0  0  0
    6.7623    1.8426   -2.0347 N   0  0  0  0  0  0  0  0  0  0  0  0
    7.5689    1.8186   -0.8366 C   0  0  0  0  0  0  0  0  0  0  0  0
    4.1033    0.8338   -4.0643 N   0  0  0  0  0  0  0  0  0  0  0  0
    3.4372   -0.1680   -3.3563 C   0  0  0  0  0  0  0  0  0  0  0  0
    2.4214   -0.7091   -3.8033 O   0  0  0  0  0  0  0  0  0  0  0  0
    3.6135    1.2102   -5.3734 C   0  0  0  0  0  0  0  0  0  0  0  0
   -0.9880   -1.0733    0.7208 O   0  0  0  0  0  0  0  0  0  0  0  0
  2 20  1  0
  2  3  1  0
  2  1  1  1
  3  4  1  0
  4  5  1  0
  5  6  1  0
  6  7  1  0
  7  8  1  0
  7 17  1  0
  8  9  2  0
  8 10  1  0
 10 11  2  0
 10 14  1  0
 11 12  1  0
 11 16  1  0
 12 13  2  0
 13 14  1  0
 14 15  1  0
 16 17  1  0
 16 19  1  0
 17 18  2  0
M  END
>  <DRUGBANK_ID>  (1) 
DB12406

>  <COMMON_NAME>  (1) 
Lisofylline

>  <CAS_NUMBER>  (1) 
100324-81-0

>  <UNII>  (1) 
L1F2Q2X956

>  <SYNONYMS>  (1) 
Lisofylline

$$$$
