
     RDKit          3D

 15 16  0  0  0  0  0  0  0  0999 V2000
   -1.4284   -3.2731    0.0069 N   0  0  0  0  0  0  0  0  0  0  0  0
   -2.3938   -2.7819    0.9003 C   0  0  0  0  0  0  0  0  0  0  0  0
   -3.6995   -3.2102    0.7610 N   0  0  0  0  0  0  0  0  0  0  0  0
   -0.0335   -2.8217    0.1622 C   0  0  1  0  0  0  0  0  0  0  0  0
   -1.7749   -4.2366   -0.9165 C   0  0  0  0  0  0  0  0  0  0  0  0
    0.4533   -3.2221    1.4547 O   0  0  0  0  0  0  0  0  0  0  0  0
   -2.9581   -4.8363   -0.8826 C   0  0  0  0  0  0  0  0  0  0  0  0
   -3.9760   -4.1830   -0.0508 C   0  0  0  0  0  0  0  0  0  0  0  0
    1.2899   -4.7058   -0.1446 O   0  0  0  0  0  0  0  0  0  0  0  0
    1.2854   -4.3682    1.2495 C   0  0  2  0  0  0  0  0  0  0  0  0
   -2.1009   -1.9643    1.7793 O   0  0  0  0  0  0  0  0  0  0  0  0
    1.0035   -3.4463   -0.7682 C   0  0  0  0  0  0  0  0  0  0  0  0
   -5.2682   -4.6002   -0.1803 N   0  0  0  0  0  0  0  0  0  0  0  0
    1.5547   -5.6058    3.3570 O   0  0  0  0  0  0  0  0  0  0  0  0
    0.8214   -5.5431    2.1263 C   0  0  0  0  0  0  0  0  0  0  0  0
  2  1  1  0
  3  2  1  0
  4  1  1  6
  5  1  1  0
  6  4  1  0
  7  5  2  0
  8  7  1  0
  8  3  2  0
  9 12  1  0
 10  6  1  0
 10  9  1  0
 10 15  1  1
 11  2  2  0
 12  4  1  0
 13  8  1  0
 14 15  1  0
M  END
>  <DRUGBANK_ID>  (1) 
DB04961

>  <COMMON_NAME>  (1) 
Troxacitabine

>  <CAS_NUMBER>  (1) 
145918-75-8

>  <UNII>  (1) 
60KQZ0388Y

>  <SYNONYMS>  (1) 
(-)-ODDC; Troxacitabina; Troxacitabine; Troxacitabinum

$$$$
