
     RDKit          3D

 24 26  0  0  0  0  0  0  0  0999 V2000
    1.0263    0.1479   -0.0873 C   0  0  0  0  0  0  0  0  0  0  0  0
    0.2496   -1.0944   -0.4134 C   0  0  0  0  0  0  0  0  0  0  0  0
   -0.8147   -1.3382    0.1496 O   0  0  0  0  0  0  0  0  0  0  0  0
    0.8286   -1.8134   -1.4171 O   0  0  0  0  0  0  0  0  0  0  0  0
    0.2300   -3.0834   -1.8372 C   0  0  0  0  0  0  0  0  0  0  0  0
   -0.2386   -3.9270   -0.6179 C   0  0  0  0  0  0  0  0  0  0  0  0
    0.1384   -3.6533    0.5320 O   0  0  0  0  0  0  0  0  0  0  0  0
   -0.9638   -5.0972   -0.8065 N   0  0  0  0  0  0  0  0  0  0  0  0
   -0.7985   -5.9110   -1.9530 C   0  0  0  0  0  0  0  0  0  0  0  0
   -0.5122   -7.2770   -1.7590 C   0  0  0  0  0  0  0  0  0  0  0  0
   -0.4361   -8.1643   -2.8280 C   0  0  0  0  0  0  0  0  0  0  0  0
   -0.6487   -7.6920   -4.1143 C   0  0  0  0  0  0  0  0  0  0  0  0
   -0.8968   -6.3356   -4.3388 C   0  0  0  0  0  0  0  0  0  0  0  0
   -0.9489   -5.4280   -3.2605 C   0  0  0  0  0  0  0  0  0  0  0  0
   -1.2768   -3.9955   -3.5287 C   0  0  0  0  0  0  0  0  0  0  0  0
   -0.7894   -2.9750   -2.9041 N   0  0  0  0  0  0  0  0  0  0  0  0
   -2.2989   -3.7170   -4.5934 C   0  0  0  0  0  0  0  0  0  0  0  0
   -1.9702   -2.9385   -5.7087 C   0  0  0  0  0  0  0  0  0  0  0  0
   -2.9746   -2.5430   -6.5995 C   0  0  0  0  0  0  0  0  0  0  0  0
   -4.2864   -2.9842   -6.4189 C   0  0  0  0  0  0  0  0  0  0  0  0
   -4.5924   -3.8451   -5.3651 C   0  0  0  0  0  0  0  0  0  0  0  0
   -3.6081   -4.1873   -4.4333 C   0  0  0  0  0  0  0  0  0  0  0  0
   -0.6028   -8.7938   -5.4335 Cl  0  0  0  0  0  0  0  0  0  0  0  0
   -1.5196   -5.6667    0.4129 C   0  0  0  0  0  0  0  0  0  0  0  0
  1  2  1  0
  2  3  2  0
  2  4  1  0
  4  5  1  0
  5  6  1  0
  5 16  1  0
  6  7  2  0
  6  8  1  0
  8  9  1  0
  8 24  1  0
  9 10  2  0
  9 14  1  0
 10 11  1  0
 11 12  2  0
 12 13  1  0
 12 23  1  0
 13 14  2  0
 14 15  1  0
 15 16  2  0
 15 17  1  0
 17 18  2  0
 17 22  1  0
 18 19  1  0
 19 20  2  0
 20 21  1  0
 21 22  2  0
M  END
>  <DRUGBANK_ID>  (1) 
DB14671

>  <SECONDARY_ACCESSION_NUMBERS>  (1) 
DBSALT002270

>  <COMMON_NAME>  (1) 
Temazepam acetate

>  <CAS_NUMBER>  (1) 
18818-64-9

>  <UNII>  (1) 
9F3H3E4BIM

$$$$
