
     RDKit          3D

 10  9  0  0  0  0  0  0  0  0999 V2000
   -2.6453   -0.5399    2.2570 O   0  0  0  0  0  0  0  0  0  0  0  0
   -1.8004   -0.0940    1.3100 C   0  0  0  0  0  0  0  0  0  0  0  0
    0.7393   -1.4396   -1.1351 C   0  0  0  0  0  0  0  0  0  0  0  0
    0.2215   -1.2255    0.2828 C   0  0  2  0  0  0  0  0  0  0  0  0
   -1.3207   -1.1586    0.3305 C   0  0  2  0  0  0  0  0  0  0  0  0
    0.3987   -2.6250   -1.6729 O   0  0  0  0  0  0  0  0  0  0  0  0
    1.3901   -0.6336   -1.7901 O   0  0  0  0  0  0  0  0  0  0  0  0
   -1.5236    1.0975    1.2398 O   0  0  0  0  0  0  0  0  0  0  0  0
    0.8452   -0.0382    0.7952 O   0  0  0  0  0  0  0  0  0  0  0  0
   -1.8977   -0.8299   -0.9448 O   0  0  0  0  0  0  0  0  0  0  0  0
  1  2  1  0
  4  3  1  0
  4  9  1  6
  5 10  1  6
  5  4  1  0
  5  2  1  0
  6  3  1  0
  7  3  2  0
  8  2  2  0
M  END
>  <DRUGBANK_ID>  (1) 
DB01694

>  <SECONDARY_ACCESSION_NUMBERS>  (1) 
EXPT03007

>  <COMMON_NAME>  (1) 
D-tartaric acid

>  <CAS_NUMBER>  (1) 
147-71-7

>  <UNII>  (1) 
RRX6A4PL3C

>  <SYNONYMS>  (1) 
(-)-Tartaric acid; (−)-(S,S)-tartaric acid; (−)-D-tartaric acid; (−)-Weinsäure; (2S,3S)-(−)-tartaric acid; (2S,3S)-tartaric acid; (S,S)-(−)-tartaric acid; (S,S)-Tartaric acid; D-(−)-tartaric acid; D-tartaric acid; D-threaric acid; Linksweinsäure

$$$$
