
     RDKit          3D

 25 27  0  0  0  0  0  0  0  0999 V2000
    0.9095    0.0468   -0.0379 C   0  0  0  0  0  0  0  0  0  0  0  0
    0.1737   -0.3912    1.2266 C   0  0  0  0  0  0  0  0  0  0  0  0
   -0.6778    0.6744    1.8805 C   0  0  0  0  0  0  0  0  0  0  0  0
    2.1382   -0.0117   -0.0016 O   0  0  0  0  0  0  0  0  0  0  0  0
    0.1900    0.5052   -1.1661 N   0  0  0  0  0  0  0  0  0  0  0  0
    2.6995    0.5973   -3.9848 C   0  0  0  0  0  0  0  0  0  0  0  0
    2.2907    1.7295   -4.6841 C   0  0  0  0  0  0  0  0  0  0  0  0
    1.3032    2.5427   -4.1445 C   0  0  0  0  0  0  0  0  0  0  0  0
    0.6981    2.1963   -2.9311 C   0  0  0  0  0  0  0  0  0  0  0  0
    0.9907    0.9891   -2.2801 C   0  0  0  0  0  0  0  0  0  0  0  0
    2.0466    0.2219   -2.8013 C   0  0  0  0  0  0  0  0  0  0  0  0
   -2.1359   -1.1328   -3.5828 N   0  0  0  0  0  0  0  0  0  0  0  0
   -1.6370   -1.7411   -2.3480 C   0  0  0  0  0  0  0  0  0  0  0  0
   -1.6685    0.2397   -3.7595 C   0  0  0  0  0  0  0  0  0  0  0  0
   -1.9551   -0.9168   -1.1210 C   0  0  0  0  0  0  0  0  0  0  0  0
   -2.0058    1.0703   -2.5400 C   0  0  0  0  0  0  0  0  0  0  0  0
   -1.3324    0.4953   -1.2795 C   0  0  0  0  0  0  0  0  0  0  0  0
   -1.7421   -1.9313   -4.7607 C   0  0  0  0  0  0  0  0  0  0  0  0
   -0.2141   -2.0922   -5.0366 C   0  0  0  0  0  0  0  0  0  0  0  0
    0.4446   -2.8258   -4.0013 O   0  0  0  0  0  0  0  0  0  0  0  0
    0.3461   -2.2613   -7.7614 S   0  0  0  0  0  0  0  0  0  0  0  0
    0.2976   -3.8064   -8.4952 C   0  0  0  0  0  0  0  0  0  0  0  0
   -0.0259   -2.9342   -6.2420 C   0  0  0  0  0  0  0  0  0  0  0  0
   -0.1429   -4.3056   -6.2847 C   0  0  0  0  0  0  0  0  0  0  0  0
    0.0288   -4.8097   -7.5908 C   0  0  0  0  0  0  0  0  0  0  0  0
  1  2  1  0
  1  5  1  0
  1  4  2  0
  2  3  1  0
  5 10  1  0
  5 17  1  0
  6 11  2  0
  6  7  1  0
  7  8  2  0
  8  9  1  0
  9 10  2  0
 10 11  1  0
 12 13  1  0
 12 14  1  0
 12 18  1  0
 13 15  1  0
 14 16  1  0
 15 17  1  0
 16 17  1  0
 18 19  1  0
 19 20  1  0
 19 23  1  0
 21 22  1  0
 21 23  1  0
 22 25  2  0
 23 24  2  0
 24 25  1  0
M  END
>  <DRUGBANK_ID>  (1) 
DB09170

>  <COMMON_NAME>  (1) 
Î²-Hydroxythiofentanyl

>  <CAS_NUMBER>  (1) 
1474-34-6

>  <UNII>  (1) 
MG6JW60TUG

>  <SYNONYMS>  (1) 
beta-Hydroxythiofentanyl

$$$$
