
     RDKit          3D

 29 32  0  0  0  0  0  0  0  0999 V2000
   -1.4479    0.8220   -0.2097 C   0  0  0  0  0  0  0  0  0  0  0  0
   -2.6273   -0.6128   -0.3736 C   0  0  1  0  0  0  0  0  0  0  0  0
   -2.9774   -2.4558   -0.0191 C   0  0  0  0  0  0  0  0  0  0  0  0
   -2.5637   -3.1965    1.0267 C   0  0  0  0  0  0  0  0  0  0  0  0
   -1.0451   -2.8392    1.2108 C   0  0  0  0  0  0  0  0  0  0  0  0
   -0.8838   -1.6527    0.2151 C   0  0  2  0  0  0  0  0  0  0  0  0
    0.3029   -0.8188    0.1057 C   0  0  0  0  0  0  0  0  0  0  0  0
    0.0780    0.4808   -0.0581 C   0  0  0  0  0  0  0  0  0  0  0  0
    1.1878    1.3191   -0.0282 N   0  0  0  0  0  0  0  0  0  0  0  0
    2.4896    0.8139    0.0286 C   0  0  0  0  0  0  0  0  0  0  0  0
    2.6604   -0.6647   -0.0275 C   0  0  0  0  0  0  0  0  0  0  0  0
    1.5729   -1.4315   -0.0128 C   0  0  0  0  0  0  0  0  0  0  0  0
    3.5053    1.5356    0.0911 O   0  0  0  0  0  0  0  0  0  0  0  0
   -2.1103   -0.7416    0.9211 C   0  0  0  0  0  0  0  0  0  0  0  0
   -2.9381   -0.5512    1.9883 C   0  0  0  0  0  0  0  0  0  0  0  0
   -4.3348    0.0808    1.8903 C   0  0  0  0  0  0  0  0  0  0  0  0
   -1.0524   -2.0898   -1.5427 N   0  0  0  0  0  0  0  0  0  0  0  0
   -2.1712   -2.2884   -2.2199 C   0  0  0  0  0  0  0  0  0  0  0  0
   -2.6061   -2.9223   -3.4518 C   0  0  0  0  0  0  0  0  0  0  0  0
   -1.6421   -3.6155   -4.1286 C   0  0  0  0  0  0  0  0  0  0  0  0
   -1.9749   -4.0798   -5.3762 C   0  0  0  0  0  0  0  0  0  0  0  0
   -3.2713   -3.9291   -5.8869 C   0  0  0  0  0  0  0  0  0  0  0  0
   -4.3017   -3.3816   -5.1188 C   0  0  0  0  0  0  0  0  0  0  0  0
   -3.9846   -2.9044   -3.8543 C   0  0  0  0  0  0  0  0  0  0  0  0
   -5.0608   -2.4271   -3.1276 O   0  0  0  0  0  0  0  0  0  0  0  0
   -5.6002   -3.2282   -5.5316 O   0  0  0  0  0  0  0  0  0  0  0  0
   -5.8608   -3.5852   -6.8799 C   0  0  0  0  0  0  0  0  0  0  0  0
   -0.7353   -4.7634   -6.3408 Cl  0  0  0  0  0  0  0  0  0  0  0  0
   -3.9227   -3.3121    1.6386 C   0  0  0  0  0  0  0  0  0  0  0  0
  2  1  1  6
  1  8  1  0
  2  3  1  0
  2 14  1  0
  3  4  2  0
  4 29  1  0
  5  4  1  0
  6  5  1  0
  6 14  1  0
  6 17  1  6
  7  6  1  0
  7 12  1  0
  8  7  2  0
  8  9  1  0
  9 10  1  0
 10 11  1  0
 10 13  2  0
 11 12  2  0
 14 15  2  0
 15 16  1  0
 17 18  2  0
 18 19  1  0
 19 24  1  0
 20 19  2  0
 21 20  1  0
 21 28  1  0
 22 21  2  0
 23 22  1  0
 23 26  1  0
 24 23  2  0
 24 25  1  0
 26 27  1  0
M  END
>  <DRUGBANK_ID>  (1) 
DB05520

>  <COMMON_NAME>  (1) 
Mimopezil

>  <CAS_NUMBER>  (1) 
180694-97-7

>  <UNII>  (1) 
4MU6P880QL

>  <SYNONYMS>  (1) 
Mimopezil; Mimop√©zil; Mimopezilo; Mimopezilum; N-(2-Hydroxy-3-methoxy-5-chlorobenzylidene)huperzine A

$$$$
