
     RDKit          3D

  9  9  0  0  0  0  0  0  0  0999 V2000
    1.0039   -0.0303   -0.0967 S   0  0  0  0  0  0  0  0  0  0  0  0
    0.4747    1.4159    0.8734 C   0  0  0  0  0  0  0  0  0  0  0  0
    0.9877    1.4889    2.2982 C   0  0  0  0  0  0  0  0  0  0  0  0
    1.2189    0.3103    3.0376 C   0  0  0  0  0  0  0  0  0  0  0  0
    1.6697    0.3483    4.3596 C   0  0  0  0  0  0  0  0  0  0  0  0
    1.8598    1.5675    4.9943 C   0  0  0  0  0  0  0  0  0  0  0  0
    1.5985    2.7501    4.3075 C   0  0  0  0  0  0  0  0  0  0  0  0
    1.1656    2.7153    2.9721 C   0  0  0  0  0  0  0  0  0  0  0  0
    0.7959    4.5926    2.0875 I   0  0  0  0  0  0  0  0  0  0  0  0
  1  2  1  0
  2  3  1  0
  3  4  2  0
  3  8  1  0
  4  5  1  0
  5  6  2  0
  6  7  1  0
  7  8  2  0
  8  9  1  0
M  END
>  <DRUGBANK_ID>  (1) 
DB03630

>  <SECONDARY_ACCESSION_NUMBERS>  (1) 
EXPT01829

>  <COMMON_NAME>  (1) 
2-Iodobenzylthio Group

$$$$
