1544
     RDKit          3D

 23 25  0  0  0  0  0  0  0  0999 V2000
    2.1780   -0.0582   -0.0246 F   0  0  0  0  0  0  0  0  0  0  0  0
    1.9832    6.1297   -1.5067 O   0  0  0  0  0  0  0  0  0  0  0  0
    0.1452    2.4341    6.0095 O   0  0  0  0  0  0  0  0  0  0  0  0
    0.2175    0.7008    4.6651 O   0  0  0  0  0  0  0  0  0  0  0  0
    0.9962    5.4299    0.4480 N   0  0  0  0  0  0  0  0  0  0  0  0
    1.7156    2.8158   -0.9400 N   0  0  0  0  0  0  0  0  0  0  0  0
    0.2698    1.9156    4.8899 N   0  0  0  0  0  0  0  0  0  0  0  0
    0.8567    3.1110    1.3622 C   0  0  0  0  0  0  0  0  0  0  0  0
    0.8638    4.5074    1.5237 C   0  0  0  0  0  0  0  0  0  0  0  0
    0.9587    2.4415    0.0332 C   0  0  0  0  0  0  0  0  0  0  0  0
    0.6605    2.2728    2.4785 C   0  0  0  0  0  0  0  0  0  0  0  0
    2.6161    3.9515   -0.7301 C   0  0  0  0  0  0  0  0  0  0  0  0
    0.7054    5.0225    2.8264 C   0  0  0  0  0  0  0  0  0  0  0  0
    1.8280    5.2458   -0.6576 C   0  0  0  0  0  0  0  0  0  0  0  0
    0.1628    1.1984   -0.1394 C   0  0  0  0  0  0  0  0  0  0  0  0
    0.4861    2.8127    3.7509 C   0  0  0  0  0  0  0  0  0  0  0  0
    0.5189    4.1905    3.9335 C   0  0  0  0  0  0  0  0  0  0  0  0
    0.2427    6.6762    0.4821 C   0  0  0  0  0  0  0  0  0  0  0  0
    0.8406   -0.0215   -0.1171 C   0  0  0  0  0  0  0  0  0  0  0  0
   -1.2360    1.2275   -0.0839 C   0  0  0  0  0  0  0  0  0  0  0  0
    0.1343   -1.2176   -0.0570 C   0  0  0  0  0  0  0  0  0  0  0  0
   -1.9448    0.0232   -0.0397 C   0  0  0  0  0  0  0  0  0  0  0  0
   -1.2607   -1.1962   -0.0307 C   0  0  0  0  0  0  0  0  0  0  0  0
  1 19  1  0
  2 14  2  0
  3  7  1  0
  4  7  2  0
  5  9  1  0
  5 14  1  0
  5 18  1  0
  6 10  2  0
  6 12  1  0
  7 16  1  0
  8  9  2  0
  8 10  1  0
  8 11  1  0
  9 13  1  0
 10 15  1  0
 11 16  2  0
 12 14  1  0
 13 17  2  0
 15 19  2  0
 15 20  1  0
 16 17  1  0
 19 21  1  0
 20 22  2  0
 21 23  2  0
 22 23  1  0
M  CHG  2   3  -1   7   1
M  END
>  <DRUGBANK_ID>  (1) 
DB01544

>  <COMMON_NAME>  (1) 
Flunitrazepam

>  <CAS_NUMBER>  (1) 
1622-62-4

>  <UNII>  (1) 
620X0222FQ

>  <SYNONYMS>  (1) 
Flunitrazepam; Flunitrazepamum

$$$$
