
     RDKit          3D

 28 30  0  0  1  0  0  0  0  0999 V2000
    1.9047    3.2555    0.7416 C   0  0  0  0  0  0  0  0  0  0  0  0
    1.5467    6.1209    0.0145 C   0  0  0  0  0  0  0  0  0  0  0  0
    1.2690    5.2322   -2.4494 C   0  0  0  0  0  0  0  0  0  0  0  0
    1.2580    3.7806   -2.9604 C   0  0  0  0  0  0  0  0  0  0  0  0
    1.7105    4.2184    1.8756 C   0  0  0  0  0  0  0  0  0  0  0  0
    1.0656    7.3662   -0.1382 C   0  0  0  0  0  0  0  0  0  0  0  0
    2.0219    5.5806    1.3340 C   0  0  0  0  0  0  0  0  0  0  0  0
    1.0902    8.3440    0.9396 C   0  0  0  0  0  0  0  0  0  0  0  0
    2.1758    8.7321    1.6501 C   0  0  0  0  0  0  0  0  0  0  0  0
    3.5799    8.2937    1.4261 C   0  0  0  0  0  0  0  0  0  0  0  0
    2.0464    9.7453    2.7587 C   0  0  0  0  0  0  0  0  0  0  0  0
    4.6002    9.3704    1.2281 C   0  0  0  0  0  0  0  0  0  0  0  0
    4.1615    7.1647    1.8006 C   0  0  0  0  0  0  0  0  0  0  0  0
    3.1069   10.8439    2.6116 C   0  0  2  0  0  0  0  0  0  0  0  0
    4.5121   10.2554    2.4686 C   0  0  0  0  0  0  0  0  0  0  0  0
    3.0691   11.7097    3.7404 O   0  0  0  0  0  0  0  0  0  0  0  0
   -0.0647    1.0825   -0.4196 C   0  0  0  0  0  0  0  0  0  0  0  0
    0.5511    1.5675   -1.7429 C   0  0  2  0  0  0  0  0  0  0  0  0
    1.3951    0.3752   -2.2315 C   0  0  0  0  0  0  0  0  0  0  0  0
    0.5158   -0.8753   -2.3829 C   0  0  0  0  0  0  0  0  0  0  0  0
    0.7922   -1.4902   -5.2447 C   0  0  0  0  0  0  0  0  0  0  0  0
   -0.0499   -0.3092   -4.7683 C   0  0  0  0  0  0  0  0  0  0  0  0
   -1.1668    0.0043   -5.7471 C   0  0  0  0  0  0  0  0  0  0  0  0
   -0.6201   -0.6194   -3.3791 C   0  0  0  0  0  0  0  0  0  0  0  0
    1.4088    2.8482   -1.7103 C   0  0  2  0  0  0  0  0  0  0  0  0
    1.7873    5.0822   -1.0314 C   0  0  2  0  0  0  0  0  0  0  0  0
    1.1460    3.7660   -0.5172 C   0  0  2  0  0  0  0  0  0  0  0  0
   -0.3516    4.1039   -0.2299 C   0  0  0  0  0  0  0  0  0  0  0  0
  1  5  1  0
  2  6  2  0
  2  7  1  0
  3  4  1  0
  5  7  1  0
  6  8  1  0
  8  9  2  0
  9 10  1  0
  9 11  1  0
 10 12  1  0
 10 13  2  0
 11 14  1  0
 12 15  1  0
 14 16  1  1
 14 15  1  0
 18 19  1  0
 18 17  1  1
 19 20  1  0
 20 24  1  0
 22 21  1  0
 22 23  1  0
 24 22  1  0
 25  4  1  6
 25 18  1  0
 26 27  1  0
 26  2  1  0
 26  3  1  6
 27 25  1  0
 27  1  1  0
 27 28  1  1
M  END
>  <DRUGBANK_ID>  (1) 
DB00169

>  <SECONDARY_ACCESSION_NUMBERS>  (1) 
NUTR00008; APRD00506

>  <COMMON_NAME>  (1) 
Cholecalciferol

>  <CAS_NUMBER>  (1) 
67-97-0

>  <UNII>  (1) 
1C6V77QF41

>  <SYNONYMS>  (1) 
(+)-vitamin D3; (3Î²,5Z,7E)-9,10-secocholesta-5,7,10(19)-trien-3-ol; (5Z,7E)-(3S)-9,10-secocholesta-5,7,10(19)-trien-3-ol; Activated 7-dehydrocholesterol; Calciol; CC; Cholecalciferol; Cholecalciferolum; Colecalciferol; Colecalciferolum; Oleovitamin D3; Vitamin D-3; Vitamin D3

$$$$
