
     RDKit          3D

 20 20  0  0  0  0  0  0  0  0999 V2000
   -1.3367   -4.4336    0.2669 P   0  0  2  0  0  0  0  0  0  0  0  0
   -1.3578   -2.9287   -0.3333 O   0  0  0  0  0  0  0  0  0  0  0  0
   -2.6748   -5.1882   -0.1945 O   0  0  0  0  0  0  0  0  0  0  0  0
   -2.1116   -3.9849    1.5300 O   0  0  0  0  0  0  0  0  0  0  0  0
   -0.0011   -2.1863    1.7466 C   0  0  2  0  0  0  0  0  0  0  0  0
   -1.1513   -6.1029   -1.9871 C   0  0  0  0  0  0  0  0  0  0  0  0
   -0.4208   -4.9638   -1.2261 C   0  0  0  0  0  0  0  0  0  0  0  0
   -2.5372   -5.7275   -2.5976 C   0  0  0  0  0  0  0  0  0  0  0  0
   -0.2348   -2.2014    0.1785 C   0  0  0  0  0  0  0  0  0  0  0  0
    1.2049   -1.3074    2.1710 C   0  0  0  0  0  0  0  0  0  0  0  0
   -2.4684   -4.5439   -3.5420 C   0  0  0  0  0  0  0  0  0  0  0  0
    0.3365   -3.5128    2.4953 C   0  0  0  0  0  0  0  0  0  0  0  0
   -1.7069   -4.9334   -4.7903 C   0  0  0  0  0  0  0  0  0  0  0  0
    1.6573   -0.3154    1.1513 C   0  0  0  0  0  0  0  0  0  0  0  0
   -2.3648   -6.1388   -5.4490 C   0  0  0  0  0  0  0  0  0  0  0  0
    2.4408   -0.7573    0.0740 C   0  0  0  0  0  0  0  0  0  0  0  0
    1.2009    0.9962    1.2044 C   0  0  0  0  0  0  0  0  0  0  0  0
    2.7018    0.0978   -0.9907 C   0  0  0  0  0  0  0  0  0  0  0  0
    1.4872    1.8579    0.1475 C   0  0  0  0  0  0  0  0  0  0  0  0
    2.2238    1.4021   -0.9467 C   0  0  0  0  0  0  0  0  0  0  0  0
  1  2  1  0
  1  3  1  0
  1  4  2  0
  1  7  1  0
  2  9  1  0
  5 12  1  6
  5 10  1  0
  5  9  1  0
  6  7  1  0
  6  8  1  0
  8 11  1  0
 10 14  1  0
 11 13  1  0
 13 15  1  0
 14 16  2  0
 14 17  1  0
 16 18  1  0
 17 19  2  0
 18 20  2  0
 19 20  1  0
M  END
>  <DRUGBANK_ID>  (1) 
DB06966

>  <COMMON_NAME>  (1) 
Hexylphosphonic acid (S)-2-methyl-3-phenylpropyl ester

$$$$
