
     RDKit          3D

 25 24  0  0  0  0  0  0  0  0999 V2000
    1.2443   -3.6493    0.5180 Ca  0  0  0  0  0 15  0  0  0  0  0  0
   -1.3050    0.0000   -0.1630 O   0  0  0  0  0  0  0  0  0  0  0  0
   -1.3050    0.0000   -0.1630 O   0  0  0  0  0  0  0  0  0  0  0  0
    2.1857    1.4545   -0.2136 O   0  0  0  0  0  0  0  0  0  0  0  0
    2.1857    1.4545   -0.2136 O   0  0  0  0  0  0  0  0  0  0  0  0
    2.1839   -1.4566   -0.2138 O   0  0  0  0  0  0  0  0  0  0  0  0
    2.1839   -1.4566   -0.2138 O   0  0  0  0  0  0  0  0  0  0  0  0
   -0.7062   -2.3772    0.4688 O   0  0  0  0  0  0  0  0  0  0  0  0
   -0.7062   -2.3772    0.4688 O   0  0  0  0  0  0  0  0  0  0  0  0
   -1.9861    2.8321   -0.5616 O   0  0  0  0  0  0  0  0  0  0  0  0
   -1.9861    2.8321   -0.5616 O   0  0  0  0  0  0  0  0  0  0  0  0
    1.6460    3.0650   -0.6488 O   0  0  0  0  0  0  0  0  0  0  0  0
    1.6460    3.0650   -0.6488 O   0  0  0  0  0  0  0  0  0  0  0  0
   -0.3720    1.1970    0.1360 C   0  0  1  0  0  0  0  0  0  0  0  0
   -0.3720    1.1970    0.1360 C   0  0  1  0  0  0  0  0  0  0  0  0
    1.0250    0.6520   -0.0550 C   0  0  0  0  0  0  0  0  0  0  0  0
    1.0250    0.6520   -0.0550 C   0  0  0  0  0  0  0  0  0  0  0  0
    1.0240   -0.6530   -0.0550 C   0  0  0  0  0  0  0  0  0  0  0  0
    1.0240   -0.6530   -0.0550 C   0  0  0  0  0  0  0  0  0  0  0  0
   -0.3720   -1.1970    0.1360 C   0  0  0  0  0  0  0  0  0  0  0  0
   -0.3720   -1.1970    0.1360 C   0  0  0  0  0  0  0  0  0  0  0  0
   -0.6540    2.3857   -0.7683 C   0  0  2  0  0  0  0  0  0  0  0  0
   -0.6540    2.3857   -0.7683 C   0  0  2  0  0  0  0  0  0  0  0  0
    0.3139    3.5114   -0.4421 C   0  0  0  0  0  0  0  0  0  0  0  0
    0.3139    3.5114   -0.4421 C   0  0  0  0  0  0  0  0  0  0  0  0
  2 20  1  0
  3 21  1  0
  4 16  1  0
  5 17  1  0
  6 18  1  0
  7 19  1  0
  8 20  2  0
  9 21  2  0
 12 24  1  0
 13 25  1  0
 14  2  1  6
 14 16  1  0
 14 22  1  0
 15  3  1  6
 15 17  1  0
 15 23  1  0
 16 18  2  0
 17 19  2  0
 18 20  1  0
 19 21  1  0
 22 10  1  1
 22 24  1  0
 23 11  1  1
 23 25  1  0
M  CHG  3   1   2   4  -1   5  -1
M  END
>  <DRUGBANK_ID>  (1) 
DB14483

>  <SECONDARY_ACCESSION_NUMBERS>  (1) 
DBSALT002425

>  <COMMON_NAME>  (1) 
Calcium ascorbate

>  <CAS_NUMBER>  (1) 
5743-27-1

>  <UNII>  (1) 
J96U0ZD4Y6

>  <SYNONYMS>  (1) 
Ascorbic acid calcium salt; Calcium ascorbate; Calcium ascorbate anhydrous; Calcium diascorbate; L-ascorbic acid, calcium salt (2:1)

$$$$
