
     RDKit          3D

 31 36  0  0  1  0  0  0  0  0999 V2000
   -1.2093   -0.0984    0.6658 C   0  0  0  0  0  0  0  0  0  0  0  0
   -2.1897   -0.9842    1.1000 O   0  0  0  0  0  0  0  0  0  0  0  0
   -1.6330   -2.3374    1.4594 C   0  0  1  0  0  0  0  0  0  0  0  0
   -0.1863   -2.1196    1.3071 C   0  0  1  0  0  0  0  0  0  0  0  0
    0.0981   -0.6001    1.1624 C   0  0  2  0  0  0  0  0  0  0  0  0
   -0.1810   -3.8692    3.7175 C   0  0  1  0  0  0  0  0  0  0  0  0
    0.3971   -3.0274    2.5429 C   0  0  2  0  0  0  0  0  0  0  0  0
    1.3258   -3.8850    5.0075 C   0  0  1  0  0  0  0  0  0  0  0  0
    1.1202   -2.3882    4.8172 C   0  0  2  0  0  0  0  0  0  0  0  0
    1.1352   -2.1601    3.3994 O   0  0  0  0  0  0  0  0  0  0  0  0
    1.9315   -1.5404    5.6190 O   0  0  0  0  0  0  0  0  0  0  0  0
    2.5671   -2.4117    6.4796 C   0  0  0  0  0  0  0  0  0  0  0  0
    3.0673   -3.4229    5.5284 C   0  0  2  0  0  0  0  0  0  0  0  0
   -1.3547    0.8673   -0.0738 O   0  0  0  0  0  0  0  0  0  0  0  0
   -1.7792   -2.9795    3.0339 C   0  0  1  0  0  0  0  0  0  0  0  0
   -0.1893   -5.5668    3.4228 C   0  0  2  0  0  0  0  0  0  0  0  0
    2.2403   -5.3473    4.4795 C   0  0  1  0  0  0  0  0  0  0  0  0
    0.9806   -6.2265    4.4439 C   0  0  1  0  0  0  0  0  0  0  0  0
    2.4848   -2.4754    7.6485 O   0  0  0  0  0  0  0  0  0  0  0  0
    0.1065   -2.5675   -0.0386 O   0  0  0  0  0  0  0  0  0  0  0  0
   -2.6294   -1.8718    3.4321 O   0  0  0  0  0  0  0  0  0  0  0  0
    0.6137   -0.0345    2.4336 C   0  0  0  0  0  0  0  0  0  0  0  0
    0.4151   -4.3348    1.6437 C   0  0  0  0  0  0  0  0  0  0  0  0
   -0.4536   -5.2867    2.0475 O   0  0  0  0  0  0  0  0  0  0  0  0
    1.1833   -4.5381    0.6959 O   0  0  0  0  0  0  0  0  0  0  0  0
    4.0312   -2.4330    4.9193 O   0  0  0  0  0  0  0  0  0  0  0  0
    3.2519   -5.1751    3.1602 C   0  0  0  0  0  0  0  0  0  0  0  0
    2.8185   -3.8402    2.7852 C   0  0  0  0  0  0  0  0  0  0  0  0
    4.7466   -4.8521    3.1566 C   0  0  0  0  0  0  0  0  0  0  0  0
    2.9845   -6.0882    1.9819 C   0  0  0  0  0  0  0  0  0  0  0  0
    0.3286   -6.1941    5.7285 O   0  0  0  0  0  0  0  0  0  0  0  0
  1  2  1  0
  1 14  2  0
  3  2  1  1
  3  4  1  0
  3 15  1  0
  4  5  1  0
  4 20  1  6
  5  1  1  0
  5 22  1  1
  6  7  1  0
  6  8  1  0
  6 16  1  0
  7  4  1  0
  7 23  1  0
  8  9  1  0
  8 17  1  0
  9 10  1  6
  9 11  1  0
  7 10  1  1
 11 12  1  0
 12 13  1  0
 12 19  2  0
  8 13  1  1
 13 26  1  6
  6 15  1  1
 15 21  1  1
 16 24  1  1
 17 18  1  0
 17 27  1  6
 18 16  1  0
 18 31  1  1
 23 24  1  0
 23 25  2  0
 27 28  1  0
 27 29  1  0
 27 30  1  0
M  END
>  <DRUGBANK_ID>  (1) 
DB06745

>  <COMMON_NAME>  (1) 
ginkgolide-C

>  <CAS_NUMBER>  (1) 
15291-76-6

>  <UNII>  (1) 
32ZQ957R4A

$$$$
