BJM
     RDKit          3D

 23 27  0  0  0  0  0  0  0  0999 V2000
    0.6866   -0.0484   -0.4606 C   0  0  1  0  0  0  0  0  0  0  0  0
    2.2189    0.0312   -1.3808 C   0  0  1  0  0  0  0  0  0  0  0  0
   -1.3507   -0.1347   -0.2606 C   0  0  0  0  0  0  0  0  0  0  0  0
   -0.9041    0.0396   -1.5066 C   0  0  2  0  0  0  0  0  0  0  0  0
   -0.0676   -1.4902    0.9071 C   0  0  2  0  0  0  0  0  0  0  0  0
   -0.1563    1.4609    0.8612 C   0  0  1  0  0  0  0  0  0  0  0  0
   -1.0205   -1.6458   -0.5120 C   0  0  0  0  0  0  0  0  0  0  0  0
   -1.1186    1.6046   -0.5001 C   0  0  0  0  0  0  0  0  0  0  0  0
   -0.1408   -0.0036    1.7616 C   0  0  0  0  0  0  0  0  0  0  0  0
    7.1136   -1.8673   -0.0994 C   0  0  1  0  0  0  0  0  0  0  0  0
    6.5345   -2.3319    1.1705 C   0  0  0  0  0  0  0  0  0  0  0  0
    6.5923   -2.3256   -1.4044 C   0  0  0  0  0  0  0  0  0  0  0  0
    4.8678   -1.7597   -2.9173 C   0  0  0  0  0  0  0  0  0  0  0  0
    4.3006   -2.1782   -3.7954 N   0  0  0  0  0  0  0  0  0  0  0  0
    1.1254   -1.3694    0.1151 C   0  0  0  0  0  0  0  0  0  0  0  0
    1.0418    1.3213    0.0754 C   0  0  0  0  0  0  0  0  0  0  0  0
    3.7643    0.0154   -0.3853 C   0  0  0  0  0  0  0  0  0  0  0  0
    2.3065   -1.0018   -2.3731 N   0  0  0  0  0  0  0  0  0  0  0  0
    4.8062   -0.9835   -0.4842 N   0  0  0  0  0  0  0  0  0  0  0  0
    3.9463    0.9036    0.4651 O   0  0  0  0  0  0  0  0  0  0  0  0
   -1.6590    0.1150   -2.6592 O   0  0  0  0  0  0  0  0  0  0  0  0
    5.9419   -1.0706    0.5819 C   0  0  2  0  0  0  0  0  0  0  0  0
    5.5736   -1.2284   -1.7510 C   0  0  1  0  0  0  0  0  0  0  0  0
  1  2  1  0
  1  3  1  6
  1 16  1  0
  1 15  1  0
  2 17  1  0
  2 18  1  6
  3  4  1  0
  4  8  1  0
  4 21  1  6
  4  7  1  0
  5  7  1  6
  5  9  1  0
  5 15  1  0
  6 16  1  6
  6  8  1  0
  6  9  1  0
 10 11  1  1
 10 12  1  0
 10 22  1  0
 22 11  1  1
 12 23  1  0
 13 14  3  0
 17 20  2  0
 17 19  1  0
 19 22  1  0
 19 23  1  0
 23 13  1  6
M  END
>  <DRUGBANK_ID>  (1) 
DB07465

>  <COMMON_NAME>  (1) 
(1S,3S,5S)-2-{(2S)-2-amino-2-[(1R,3S,5R,7S)-3-hydroxytricyclo[3.3.1.1~3,7~]dec-1-yl]acetyl}-2-azabicyclo[3.1.0]hexane-3-carbonitrile

$$$$
