
     RDKit          3D

 20 22  0  0  0  0  0  0  0  0999 V2000
    1.3643   -0.2787    0.1246 C   0  0  0  0  0  0  0  0  0  0  0  0
   -1.8130   -3.9982   -1.4099 N   0  0  0  0  0  0  0  0  0  0  0  0
   -1.8311   -4.5527   -0.1605 C   0  0  0  0  0  0  0  0  0  0  0  0
   -0.9503   -1.0608    0.1537 C   0  0  0  0  0  0  0  0  0  0  0  0
    0.4047   -1.3077    0.1409 C   0  0  0  0  0  0  0  0  0  0  0  0
   -1.9933   -2.1461    0.0604 C   0  0  2  0  0  0  0  0  0  0  0  0
    2.6968   -0.5303    0.2781 O   0  0  0  0  0  0  0  0  0  0  0  0
   -2.1584   -3.4736    0.8257 C   0  0  0  0  0  0  0  0  0  0  0  0
    0.9420    1.0551    0.0064 C   0  0  0  0  0  0  0  0  0  0  0  0
   -2.0434   -2.5817   -1.4072 C   0  0  0  0  0  0  0  0  0  0  0  0
   -1.6929   -5.7491    0.0828 O   0  0  0  0  0  0  0  0  0  0  0  0
   -1.3563    0.2748    0.0624 C   0  0  0  0  0  0  0  0  0  0  0  0
   -0.4303    1.3190    0.0300 C   0  0  0  0  0  0  0  0  0  0  0  0
    3.2028   -1.8532    0.2636 C   0  0  0  0  0  0  0  0  0  0  0  0
    1.7145    2.1798   -0.1530 O   0  0  0  0  0  0  0  0  0  0  0  0
    3.1045    1.9961   -0.4038 C   0  0  0  0  0  0  0  0  0  0  0  0
    2.9510   -2.5865   -1.0522 C   0  0  0  0  0  0  0  0  0  0  0  0
    2.7603   -2.8028    1.3814 C   0  0  0  0  0  0  0  0  0  0  0  0
    3.1300   -4.1696    0.8237 C   0  0  0  0  0  0  0  0  0  0  0  0
    3.1080   -4.0565   -0.7063 C   0  0  0  0  0  0  0  0  0  0  0  0
  2 10  1  0
  2  3  1  0
  3  8  1  0
  4  5  2  0
  4 12  1  0
  5  1  1  0
  6  4  1  1
  7  1  1  0
  8  6  1  0
  9  1  2  0
 10  6  1  0
 11  3  2  0
 12 13  2  0
 13  9  1  0
 14  7  1  0
 15  9  1  0
 16 15  1  0
 17 14  1  0
 18 14  1  0
 19 18  1  0
 19 20  1  0
 20 17  1  0
M  END
>  <DRUGBANK_ID>  (1) 
DB03606

>  <SECONDARY_ACCESSION_NUMBERS>  (1) 
EXPT00229

>  <COMMON_NAME>  (1) 
(S)-Rolipram

>  <CAS_NUMBER>  (1) 
85416-73-5

>  <UNII>  (1) 
H6G4VMQ24K

>  <SYNONYMS>  (1) 
(+)-rolipram; (S)-(+)-rolipram; S-rolipram

$$$$
