3LP
     RDKit          3D

 25 28  0  0  0  0  0  0  0  0999 V2000
    0.9004    1.0391    2.1530 O   0  0  0  0  0  0  0  0  0  0  0  0
    0.4065    1.0746    0.8010 C   0  0  1  0  0  0  0  0  0  0  0  0
    0.9067    2.3818    0.1783 C   0  0  0  0  0  0  0  0  0  0  0  0
    0.4875    2.6032   -1.2096 N   0  0  0  0  0  0  0  0  0  0  0  0
    0.9889    3.8689   -1.7640 C   0  0  0  0  0  0  0  0  0  0  0  0
    0.0747    5.0210   -1.3332 C   0  0  0  0  0  0  0  0  0  0  0  0
    0.5923    6.3625   -1.8406 C   0  0  0  0  0  0  0  0  0  0  0  0
    2.0462    6.5923   -1.4371 C   0  0  0  0  0  0  0  0  0  0  0  0
    2.9485    5.4720   -1.9437 C   0  0  0  0  0  0  0  0  0  0  0  0
    2.4652    4.1335   -1.4196 C   0  0  0  0  0  0  0  0  0  0  0  0
    0.9844   -0.1111    0.0195 C   0  0  0  0  0  0  0  0  0  0  0  0
    0.2769   -1.3567    0.2411 N   0  0  0  0  0  0  0  0  0  0  0  0
    0.6274   -2.2849    1.2053 C   0  0  0  0  0  0  0  0  0  0  0  0
    1.6201   -2.2761    2.1973 C   0  0  0  0  0  0  0  0  0  0  0  0
    1.7193   -3.3917    3.0382 C   0  0  0  0  0  0  0  0  0  0  0  0
    0.8602   -4.4859    2.9005 C   0  0  0  0  0  0  0  0  0  0  0  0
    0.9421   -5.6821    3.7937 C   0  0  0  0  0  0  0  0  0  0  0  0
   -0.1184   -4.4738    1.9043 C   0  0  0  0  0  0  0  0  0  0  0  0
   -0.2372   -3.3702    1.0563 C   0  0  0  0  0  0  0  0  0  0  0  0
   -1.1073   -3.0756   -0.0126 C   0  0  0  0  0  0  0  0  0  0  0  0
   -0.7597   -1.8462   -0.5244 C   0  0  0  0  0  0  0  0  0  0  0  0
   -2.2023   -3.9246   -0.5550 C   0  0  0  0  0  0  0  0  0  0  0  0
   -3.1292   -3.0888   -1.4428 C   0  0  0  0  0  0  0  0  0  0  0  0
   -2.3030   -2.2426   -2.4277 C   0  0  0  0  0  0  0  0  0  0  0  0
   -1.4452   -1.1901   -1.6838 C   0  0  0  0  0  0  0  0  0  0  0  0
  2  3  1  0
  2 11  1  0
  2  1  1  1
  3  4  1  0
  4  5  1  0
  5 10  1  0
  5  6  1  0
  6  7  1  0
  7  8  1  0
  8  9  1  0
  9 10  1  0
 11 12  1  0
 12 21  1  0
 12 13  1  0
 13 14  2  0
 13 19  1  0
 14 15  1  0
 15 16  2  0
 16 17  1  0
 16 18  1  0
 18 19  2  0
 19 20  1  0
 20 22  1  0
 20 21  2  0
 21 25  1  0
 22 23  1  0
 23 24  1  0
 24 25  1  0
M  END
>  <DRUGBANK_ID>  (1) 
DB07061

>  <COMMON_NAME>  (1) 
1-(CYCLOHEXYLAMINO)-3-(6-METHYL-3,4-DIHYDRO-1H-CARBAZOL-9(2H)-YL)PROPAN-2-OL

$$$$
