
     RDKit          3D

 28 30  0  0  0  0  0  0  0  0999 V2000
    6.0956   -0.6687    4.1681 O   0  0  0  0  0  0  0  0  0  0  0  0
    5.2280   -2.1219   -1.8743 N   0  0  0  0  0  0  0  0  0  0  0  0
    4.8694   -0.5467    2.1950 N   0  0  0  0  0  0  0  0  0  0  0  0
    5.1346   -0.1010   -0.3295 C   0  0  2  0  0  0  0  0  0  0  0  0
    4.5371   -1.0016    0.7888 C   0  0  1  0  0  0  0  0  0  0  0  0
    4.7829   -0.7395   -1.6618 C   0  0  0  0  0  0  0  0  0  0  0  0
    4.9062   -2.4359    0.4772 C   0  0  0  0  0  0  0  0  0  0  0  0
    4.6000   -2.9750   -0.8827 C   0  0  0  0  0  0  0  0  0  0  0  0
    6.6337    0.1957   -0.3951 C   0  0  0  0  0  0  0  0  0  0  0  0
    4.9324   -2.6346   -3.2285 C   0  0  0  0  0  0  0  0  0  0  0  0
    3.4276   -2.7097   -3.6160 C   0  0  0  0  0  0  0  0  0  0  0  0
    4.5528    0.8885    2.4070 C   0  0  0  0  0  0  0  0  0  0  0  0
    5.7259   -1.2213    3.1193 C   0  0  0  0  0  0  0  0  0  0  0  0
    7.4281   -0.0743    0.8042 C   0  0  0  0  0  0  0  0  0  0  0  0
    6.1733   -2.7162    2.9929 C   0  0  0  0  0  0  0  0  0  0  0  0
    2.7116   -1.3659   -3.6292 C   0  0  0  0  0  0  0  0  0  0  0  0
    5.5053    1.7803    2.9339 C   0  0  0  0  0  0  0  0  0  0  0  0
    3.3641    1.4666    1.9178 C   0  0  0  0  0  0  0  0  0  0  0  0
    8.4157   -0.9848    0.8601 C   0  0  0  0  0  0  0  0  0  0  0  0
    7.6615   -3.0333    2.9831 C   0  0  0  0  0  0  0  0  0  0  0  0
    5.3214    3.1688    2.9243 C   0  0  0  0  0  0  0  0  0  0  0  0
    3.1738    2.8617    1.9082 C   0  0  0  0  0  0  0  0  0  0  0  0
    1.4918   -1.2303   -2.9470 C   0  0  0  0  0  0  0  0  0  0  0  0
    3.3751   -0.1990   -4.0609 C   0  0  0  0  0  0  0  0  0  0  0  0
    4.1464    3.7107    2.4271 C   0  0  0  0  0  0  0  0  0  0  0  0
    0.9923    0.0400   -2.6423 C   0  0  0  0  0  0  0  0  0  0  0  0
    2.9404    1.0586   -3.6288 C   0  0  0  0  0  0  0  0  0  0  0  0
    1.7283    1.1818   -2.9597 C   0  0  0  0  0  0  0  0  0  0  0  0
  1 13  2  0
  2  6  1  0
  2  8  1  0
  2 10  1  0
  3 12  1  0
  3 13  1  0
  4  5  1  0
  4  6  1  0
  4  9  1  1
  5  7  1  0
  5  3  1  1
  7  8  1  0
  9 14  1  0
 10 11  1  0
 11 16  1  0
 12 17  2  0
 12 18  1  0
 13 15  1  0
 14 19  2  0
 15 20  1  0
 16 23  2  0
 16 24  1  0
 17 21  1  0
 18 22  2  0
 21 25  2  0
 22 25  1  0
 23 26  1  0
 24 27  2  0
 26 28  2  0
 27 28  1  0
M  END
>  <DRUGBANK_ID>  (1) 
DB09169

>  <COMMON_NAME>  (1) 
3-Allylfentanyl

>  <CAS_NUMBER>  (1) 
82208-84-2

>  <UNII>  (1) 
V990X77S2I

$$$$
