
     RDKit          3D

 19 18  0  0  0  0  0  0  0  0999 V2000
   -0.1716    6.8167   -0.1735 C   0  0  0  0  0  0  0  0  0  0  0  0
   -0.2667    5.3961   -0.3837 N   0  0  0  0  0  0  0  0  0  0  0  0
    1.0372    4.7565   -0.0938 C   0  0  0  0  0  0  0  0  0  0  0  0
    1.6102    4.7570    1.4217 C   0  0  0  0  0  0  0  0  0  0  0  0
    1.2461    3.7470    2.4052 O   0  0  0  0  0  0  0  0  0  0  0  0
    1.0647    2.2096    1.9021 P   0  0  2  0  0  0  0  0  0  0  0  0
   -0.0243    2.0948    0.8599 O   0  0  0  0  0  0  0  0  0  0  0  0
    0.9757    1.2561    3.0861 O   0  0  0  0  0  0  0  0  0  0  0  0
    2.5137    2.2926    1.3611 O   0  0  0  0  0  0  0  0  0  0  0  0
    3.0903    3.0221   -0.0978 P   0  0  0  0  0  0  0  0  0  0  0  0
    4.2063    3.7070    0.7544 O   0  0  0  0  0  0  0  0  0  0  0  0
    3.4511    1.5835   -0.5659 O   0  0  0  0  0  0  0  0  0  0  0  0
    3.6065    3.6749   -1.4035 O   0  0  0  0  0  0  0  0  0  0  0  0
   -1.3248    4.6873    0.3375 C   0  0  0  0  0  0  0  0  0  0  0  0
   -1.2802    4.6758    1.8567 C   0  0  0  0  0  0  0  0  0  0  0  0
   -1.0711    5.9720    2.5753 C   0  0  0  0  0  0  0  0  0  0  0  0
   -1.6759    6.3136    3.6835 C   0  0  0  0  0  0  0  0  0  0  0  0
   -1.4824    7.6989    4.1973 C   0  0  0  0  0  0  0  0  0  0  0  0
   -2.4734    5.2637    4.3742 C   0  0  0  0  0  0  0  0  0  0  0  0
  1  2  1  0
  2  3  1  0
  2 14  1  0
  3  4  1  0
  4  5  1  0
  6  8  2  0
  6  9  1  0
  6  7  1  0
  6  5  1  0
  9 10  1  0
 10 11  1  0
 10 12  1  0
 10 13  2  0
 14 15  1  0
 15 16  1  0
 16 17  2  3
 17 18  1  0
 17 19  1  0
M  CHG  3   7  -1  11  -1  12  -1
M  END
>  <DRUGBANK_ID>  (1) 
DB02369

>  <SECONDARY_ACCESSION_NUMBERS>  (1) 
EXPT00160

>  <COMMON_NAME>  (1) 
3-Aza-2,3-Dihydrogeranyl Diphosphate

$$$$
