1NB
     RDKit          3D

 12 12  0  0  0  0  0  0  0  0999 V2000
    0.9920    0.0129   -0.0071 C   0  0  1  0  0  0  0  0  0  0  0  0
    0.6744   -1.1443   -0.9813 C   0  0  1  0  0  0  0  0  0  0  0  0
    1.4686   -2.3613   -0.4944 C   0  0  0  0  0  0  0  0  0  0  0  0
   -0.6051    1.8641    0.5224 C   0  0  0  0  0  0  0  0  0  0  0  0
    1.5564   -0.5562    2.3012 O   0  0  0  0  0  0  0  0  0  0  0  0
   -0.8200   -2.5195   -2.2964 O   0  0  0  0  0  0  0  0  0  0  0  0
    0.4684   -3.2305    0.2800 C   0  0  0  0  0  0  0  0  0  0  0  0
   -0.7522   -1.7084   -1.1141 C   0  0  1  0  0  0  0  0  0  0  0  0
    0.4004    1.3521   -0.4578 C   0  0  0  0  0  0  0  0  0  0  0  0
   -0.9262   -2.6273    0.0810 C   0  0  0  0  0  0  0  0  0  0  0  0
   -0.4348    2.9760    1.2431 C   0  0  0  0  0  0  0  0  0  0  0  0
    0.6905   -0.3255    1.4518 C   0  0  0  0  0  0  0  0  0  0  0  0
  1 12  1  1
  1  9  1  0
  1  2  1  0
  2  3  1  1
  2  8  1  0
  3  7  1  0
  4  9  1  0
  4 11  2  0
  5 12  2  0
  7 10  1  0
  8  6  1  6
  8 10  1  0
M  END
>  <DRUGBANK_ID>  (1) 
DB06901

>  <COMMON_NAME>  (1) 
2-(2-HYDROXY-CYCLOPENTYL)-PENT-4-ENAL

$$$$
