
     RDKit          3D

 28 31  0  0  0  0  0  0  0  0999 V2000
   -5.2410   -0.8520    0.0927 C   0  0  0  0  0  0  0  0  0  0  0  0
    5.2138    0.9163    0.0683 C   0  0  0  0  0  0  0  0  0  0  0  0
   -4.0080   -1.4831    0.3350 C   0  0  0  0  0  0  0  0  0  0  0  0
    3.9696    1.5113    0.3376 C   0  0  0  0  0  0  0  0  0  0  0  0
   -4.1190    1.2709   -0.3920 C   0  0  0  0  0  0  0  0  0  0  0  0
    4.1428   -1.2428   -0.3772 C   0  0  0  0  0  0  0  0  0  0  0  0
   -5.2883    0.5072   -0.2879 C   0  0  0  0  0  0  0  0  0  0  0  0
    5.2924   -0.4454   -0.2980 C   0  0  0  0  0  0  0  0  0  0  0  0
   -2.9263    0.6242   -0.1073 C   0  0  0  0  0  0  0  0  0  0  0  0
    2.9360   -0.6277   -0.0821 C   0  0  0  0  0  0  0  0  0  0  0  0
   -2.8486   -0.7427    0.2000 C   0  0  0  0  0  0  0  0  0  0  0  0
    2.8304    0.7350    0.2354 C   0  0  0  0  0  0  0  0  0  0  0  0
   -0.6716   -0.0757    0.2148 C   0  0  0  0  0  0  0  0  0  0  0  0
    0.6652    0.0273    0.2232 C   0  0  0  0  0  0  0  0  0  0  0  0
   -1.5382    1.1394   -0.0631 C   0  0  0  0  0  0  0  0  0  0  0  0
    1.5558   -1.1705   -0.0512 C   0  0  0  0  0  0  0  0  0  0  0  0
   -1.5267   -1.1545    0.3268 N   0  0  0  0  0  0  0  0  0  0  0  0
    1.5009    1.1196    0.3575 N   0  0  0  0  0  0  0  0  0  0  0  0
   -1.1834    2.2820   -0.2825 O   0  0  0  0  0  0  0  0  0  0  0  0
    1.2223   -2.3165   -0.2856 O   0  0  0  0  0  0  0  0  0  0  0  0
   -7.4887    0.3336   -1.7995 O   0  0  0  0  0  0  0  0  0  0  0  0
   -7.6902    1.0715    0.5639 O   0  0  0  0  0  0  0  0  0  0  0  0
   -6.6391    2.5520   -1.2024 O   0  0  0  0  0  0  0  0  0  0  0  0
    7.4645   -0.2348   -1.8475 O   0  0  0  0  0  0  0  0  0  0  0  0
    7.7221   -0.9257    0.5246 O   0  0  0  0  0  0  0  0  0  0  0  0
    6.6876   -2.4660   -1.1997 O   0  0  0  0  0  0  0  0  0  0  0  0
   -6.8758    1.2527   -0.6190 S   0  0  0  0  0  0  0  0  0  0  0  0
    6.8956   -1.1502   -0.6424 S   0  0  0  0  0  0  0  0  0  0  0  0
  3  1  2  0
  4  2  2  0
  7  1  1  0
  7  5  2  0
  8  2  1  0
  8  6  2  0
  9  5  1  0
 10  6  1  0
 11  3  1  0
 11  9  2  0
 12  4  1  0
 12 10  2  0
 14 13  2  0
 15  9  1  0
 15 13  1  0
 16 10  1  0
 16 14  1  0
 17 11  1  0
 17 13  1  0
 18 12  1  0
 18 14  1  0
 19 15  2  0
 20 16  2  0
 27  7  1  0
 27 21  1  0
 27 22  2  0
 27 23  2  0
 28  8  1  0
 28 24  1  0
 28 25  2  0
 28 26  2  0
M  END
>  <DRUGBANK_ID>  (1) 
DB11577

>  <COMMON_NAME>  (1) 
Indigotindisulfonic acid

>  <CAS_NUMBER>  (1) 
483-20-5

>  <UNII>  (1) 
X7OI7JF73P

>  <SYNONYMS>  (1) 
2-(1,3-Dihydro-3-oxo-5-sulpho-2H-indol-2-ylidene)-3-oxoindoline-5-sulphonic acid; 5,5'-indigotindisulfonic Acid; Blue X; FD&C Blue #2; Indigo carmine; Indigo carmine acid; indigo carmine free acid; indigo-5,5'-disulfonic acid; Indigotindisulfonate; Indigotine; Saxon blue

$$$$
