
     RDKit          3D

 19 20  0  0  0  0  0  0  0  0999 V2000
    0.5329   -1.5323    0.0153 C   0  0  0  0  0  0  0  0  0  0  0  0
    1.6133   -0.8421    0.2788 C   0  0  0  0  0  0  0  0  0  0  0  0
    1.7893    0.5156   -0.1123 C   0  0  0  0  0  0  0  0  0  0  0  0
   -0.5142   -0.6933   -0.0620 C   0  0  0  0  0  0  0  0  0  0  0  0
   -0.3895    0.7751   -0.0227 C   0  0  0  0  0  0  0  0  0  0  0  0
   -1.5531    1.4957   -0.0054 C   0  0  0  0  0  0  0  0  0  0  0  0
   -2.7283    0.7613   -0.0135 C   0  0  0  0  0  0  0  0  0  0  0  0
   -2.7814   -0.6512   -0.0233 C   0  0  0  0  0  0  0  0  0  0  0  0
   -1.6436   -1.4085   -0.0471 C   0  0  0  0  0  0  0  0  0  0  0  0
    0.8105    1.4317   -0.0223 C   0  0  0  0  0  0  0  0  0  0  0  0
    1.0412    2.7710    0.1044 O   0  0  0  0  0  0  0  0  0  0  0  0
    2.3763    3.3774    0.1530 C   0  0  0  0  0  0  0  0  0  0  0  0
    3.9589    1.6470    1.3878 C   0  0  0  0  0  0  0  0  0  0  0  0
    4.8183    1.3750    0.1648 N   0  0  0  0  0  0  0  0  0  0  0  0
    4.1122   -0.9939   -0.2132 C   0  0  0  0  0  0  0  0  0  0  0  0
    5.2290   -0.0364   -0.1016 C   0  0  0  0  0  0  0  0  0  0  0  0
    5.8186   -0.3109   -1.4697 C   0  0  0  0  0  0  0  0  0  0  0  0
    3.3449    3.0773    1.3496 C   0  0  1  0  0  0  0  0  0  0  0  0
    4.4716    3.9730    1.2762 O   0  0  0  0  0  0  0  0  0  0  0  0
  1  2  2  0
  2  3  1  0
  4  1  1  0
  5  4  2  0
  6  5  1  0
  6  7  2  0
  7  8  1  0
  8  9  2  0
  9  4  1  0
 10  5  1  0
 10  3  2  0
 10 11  1  0
 11 12  1  0
 12 18  1  0
 13 14  1  0
 14 16  1  0
 16 15  1  0
 16 17  1  0
 18 13  1  0
 18 19  1  6
M  END
>  <DRUGBANK_ID>  (1) 
DB03322

>  <SECONDARY_ACCESSION_NUMBERS>  (1) 
EXPT02931

>  <COMMON_NAME>  (1) 
Dexpropranolol

>  <CAS_NUMBER>  (1) 
5051-22-9

>  <UNII>  (1) 
PG6KY07UD7

>  <SYNONYMS>  (1) 
(+)-1-Isopropylamino-3-(1-naphthyloxy)-2-propanol; (+)-Propranolol; (R)-(+)-propranolol; 2R-Propranolol; D-Propranolol; Dexpropranolol; R (+)-Propanolol; R-(+)-Propranolol

$$$$
