
     RDKit          3D

 21 24  0  0  1  0  0  0  0  0999 V2000
   -0.1031    0.6109    0.2178 C   0  0  1  0  0  0  0  0  0  0  0  0
   -0.1733   -0.8380   -0.5790 C   0  0  2  0  0  0  0  0  0  0  0  0
    1.1470    1.4593   -0.1372 C   0  0  1  0  0  0  0  0  0  0  0  0
   -1.3056    1.4729   -0.1639 C   0  0  0  0  0  0  0  0  0  0  0  0
   -1.5847   -1.6984   -0.2027 C   0  0  1  0  0  0  0  0  0  0  0  0
    1.2519   -1.4662   -0.2303 C   0  0  0  0  0  0  0  0  0  0  0  0
    2.5447    0.8111    0.0490 C   0  0  1  0  0  0  0  0  0  0  0  0
    1.2060    1.7483   -1.7274 C   0  0  0  0  0  0  0  0  0  0  0  0
   -2.5276    0.6934   -0.0488 C   0  0  0  0  0  0  0  0  0  0  0  0
   -2.6649   -0.6334    0.0513 C   0  0  0  0  0  0  0  0  0  0  0  0
   -2.5235   -2.5769   -1.4003 C   0  0  0  0  0  0  0  0  0  0  0  0
   -1.2380   -2.3811    1.1681 C   0  0  0  0  0  0  0  0  0  0  0  0
    2.4586   -0.5799   -0.6994 C   0  0  0  0  0  0  0  0  0  0  0  0
    3.1703    2.0099   -0.7273 C   0  0  0  0  0  0  0  0  0  0  0  0
    3.1982    0.5079    1.4108 C   0  0  0  0  0  0  0  0  0  0  0  0
    2.6606    2.0077   -2.1118 C   0  0  0  0  0  0  0  0  0  0  0  0
   -4.1172   -1.0691    0.2603 C   0  0  0  0  0  0  0  0  0  0  0  0
   -3.4103   -1.5759   -2.2369 C   0  0  0  0  0  0  0  0  0  0  0  0
    3.6132    3.0883   -0.2128 O   0  0  0  0  0  0  0  0  0  0  0  0
   -4.3640   -0.8896   -1.2374 C   0  0  0  0  0  0  0  0  0  0  0  0
   -5.2293   -0.1002   -1.6214 O   0  0  0  0  0  0  0  0  0  0  0  0
  1  2  1  0
  1  3  1  0
  1  4  1  6
  2  5  1  0
  2  6  1  1
  3  7  1  0
  3  8  1  6
  4  9  1  0
  5 10  1  0
  5 11  1  0
  5 12  1  1
  6 13  1  0
  7 14  1  0
  7 13  1  0
  7 15  1  1
  8 16  1  0
  9 10  2  0
 10 17  1  0
 11 18  1  0
 14 16  1  0
 14 19  2  0
 17 20  1  0
 18 20  1  0
 20 21  2  0
M  END
>  <DRUGBANK_ID>  (1) 
DB01456

>  <COMMON_NAME>  (1) 
5-androstenedione

>  <CAS_NUMBER>  (1) 
571-36-8

>  <UNII>  (1) 
HEE11L5C3G

>  <SYNONYMS>  (1) 
5-Androstene-3,17-dione; androst-5-ene-3,17-dione; delta5-Androstene-3,17-dione

$$$$
