
     RDKit          3D

  6  5  0  0  0  0  0  0  0  0999 V2000
    0.8645    0.0632   -0.0610 O   0  0  0  0  0  0  0  0  0  0  0  0
    0.3595   -1.0971   -0.5137 C   0  0  0  0  0  0  0  0  0  0  0  0
    1.0812   -2.0093   -0.8696 O   0  0  0  0  0  0  0  0  0  0  0  0
   -1.2010   -1.1220   -0.5234 C   0  0  0  0  0  0  0  0  0  0  0  0
   -1.7770    0.0117   -0.0811 O   0  0  0  0  0  0  0  0  0  0  0  0
   -1.8278   -2.0960   -0.9034 O   0  0  0  0  0  0  0  0  0  0  0  0
  1  2  1  0
  2  3  2  0
  2  4  1  0
  4  5  1  0
  4  6  2  0
M  END
>  <DRUGBANK_ID>  (1) 
DB03902

>  <SECONDARY_ACCESSION_NUMBERS>  (1) 
EXPT02457; DB02737

>  <COMMON_NAME>  (1) 
Oxalic Acid

>  <CAS_NUMBER>  (1) 
144-62-7

>  <UNII>  (1) 
9E7R5L6H31

$$$$
