
     RDKit          3D

 10 10  0  0  0  0  0  0  0  0999 V2000
    1.3820   -0.2113    0.0430 C   0  0  0  0  0  0  0  0  0  0  0  0
    0.4968   -1.2977    0.0210 C   0  0  0  0  0  0  0  0  0  0  0  0
    0.8628    1.0906    0.0112 C   0  0  0  0  0  0  0  0  0  0  0  0
    2.8696   -0.4355    0.1403 C   0  0  0  0  0  0  0  0  0  0  0  0
   -0.8819   -1.0845   -0.0115 C   0  0  0  0  0  0  0  0  0  0  0  0
   -0.5157    1.3002    0.0308 C   0  0  0  0  0  0  0  0  0  0  0  0
    3.6212    0.0696   -1.0693 C   0  0  0  0  0  0  0  0  0  0  0  0
   -1.3873    0.2139   -0.0017 C   0  0  0  0  0  0  0  0  0  0  0  0
    4.5540    1.0124   -0.7997 O   0  0  0  0  0  0  0  0  0  0  0  0
    3.4273   -0.3308   -2.2114 O   0  0  0  0  0  0  0  0  0  0  0  0
  1  2  2  0
  1  3  1  0
  1  4  1  0
  2  5  1  0
  3  6  2  0
  4  7  1  0
  5  8  2  0
  6  8  1  0
  7  9  1  0
  7 10  2  0
M  END
>  <DRUGBANK_ID>  (1) 
DB09269

>  <COMMON_NAME>  (1) 
Phenylacetic acid

>  <CAS_NUMBER>  (1) 
103-82-2

>  <UNII>  (1) 
ER5I1W795A

>  <SYNONYMS>  (1) 
.ALPHA.-TOLUIC ACID; .OMEGA.-PHENYLACETIC ACID; 2-PHENYLACETIC ACID; ACETIC ACID, PHENYL-; ANTINEOPLASTON AS 2-1 COMPONENT PHENYLACETIC ACID; ANTINEOPLASTON AS2-1 COMPONENT PHENYLACETIC ACID; ASTUGENAL COMPONENT PHENYLACETIC ACID; benzeneacetic acid; α-toluic acid; ω-phenylacetic acid

$$$$
