
     RDKit          3D

 18 19  0  0  1  0  0  0  0  0999 V2000
    0.9755    0.0832   -0.1323 S   0  0  0  0  0  0  0  0  0  0  0  0
   -0.7799   -4.4511    0.7521 O   0  0  0  0  0  0  0  0  0  0  0  0
   -2.1656   -1.7606    0.5967 O   0  0  0  0  0  0  0  0  0  0  0  0
   -2.2772   -3.6589   -1.2589 O   0  0  0  0  0  0  0  0  0  0  0  0
    1.8039   -3.4789    1.2307 N   0  0  0  0  0  0  0  0  0  0  0  0
    1.0581   -2.8877    0.1067 C   0  0  2  0  0  0  0  0  0  0  0  0
    0.2778   -1.5646    0.3823 C   0  0  2  0  0  0  0  0  0  0  0  0
   -0.0452   -3.8863   -0.3467 C   0  0  2  0  0  0  0  0  0  0  0  0
   -1.0821   -1.7128   -0.3485 C   0  0  1  0  0  0  0  0  0  0  0  0
   -1.0056   -3.0192   -1.1453 C   0  0  2  0  0  0  0  0  0  0  0  0
    2.4132   -2.5309    2.1441 C   0  0  0  0  0  0  0  0  0  0  0  0
    2.7723   -0.0793   -0.0776 C   0  0  0  0  0  0  0  0  0  0  0  0
    2.9696   -3.1211    3.4093 C   0  0  0  0  0  0  0  0  0  0  0  0
    3.1273   -2.2623    4.5094 C   0  0  0  0  0  0  0  0  0  0  0  0
    3.3406   -4.4615    3.5238 C   0  0  0  0  0  0  0  0  0  0  0  0
    3.6088   -2.7497    5.7222 C   0  0  0  0  0  0  0  0  0  0  0  0
    3.7888   -4.9548    4.7486 C   0  0  0  0  0  0  0  0  0  0  0  0
    3.9289   -4.0984    5.8371 C   0  0  0  0  0  0  0  0  0  0  0  0
  7  1  1  6
  1 12  1  0
  5 11  1  0
  6  7  1  0
  6  8  1  0
  6  5  1  1
  7  9  1  0
  8 10  1  0
  8  2  1  1
  9  3  1  1
  9 10  1  0
 10  4  1  1
 11 13  1  0
 13 14  2  0
 13 15  1  0
 14 16  1  0
 15 17  2  0
 16 18  2  0
 17 18  1  0
M  END
>  <DRUGBANK_ID>  (1) 
DB06984

>  <COMMON_NAME>  (1) 
(1R,2R,3R,4S,5R)-4-(Benzylamino)-5-(methylthio)cyclopentane-1,2,3-triol

>  <SYNONYMS>  (1) 
Benzylation of mannostatin A, 1b

$$$$
