PQA
     RDKit          3D

 28 31  0  0  0  0  0  0  0  0999 V2000
    0.9948   -0.2216   -0.1209 N   0  0  0  0  0  0  0  0  0  0  0  0
    0.3165   -0.9203    0.8327 C   0  0  0  0  0  0  0  0  0  0  0  0
    0.6143   -1.0649    2.1595 C   0  0  0  0  0  0  0  0  0  0  0  0
   -0.4266   -1.8704    2.6800 C   0  0  0  0  0  0  0  0  0  0  0  0
   -1.3777   -2.1192    1.7789 N   0  0  0  0  0  0  0  0  0  0  0  0
   -0.8892   -1.5662    0.6401 N   0  0  0  0  0  0  0  0  0  0  0  0
   -1.5741   -1.6673   -0.5770 C   0  0  0  0  0  0  0  0  0  0  0  0
   -0.8861   -2.1283   -1.7065 C   0  0  0  0  0  0  0  0  0  0  0  0
   -1.5417   -2.1594   -2.9307 C   0  0  0  0  0  0  0  0  0  0  0  0
   -2.8530   -1.7015   -3.0121 C   0  0  0  0  0  0  0  0  0  0  0  0
   -3.4763   -1.7140   -4.1968 F   0  0  0  0  0  0  0  0  0  0  0  0
   -3.5291   -1.2247   -1.8895 C   0  0  0  0  0  0  0  0  0  0  0  0
   -2.8951   -1.2222   -0.6503 C   0  0  0  0  0  0  0  0  0  0  0  0
    1.7608   -0.4366    2.7686 C   0  0  0  0  0  0  0  0  0  0  0  0
    2.5569    0.2853    2.2026 O   0  0  0  0  0  0  0  0  0  0  0  0
    1.9922   -0.7450    4.1563 C   0  0  0  0  0  0  0  0  0  0  0  0
    2.1322   -2.1207    4.4316 C   0  0  0  0  0  0  0  0  0  0  0  0
    2.4514   -2.4435    5.6843 C   0  0  0  0  0  0  0  0  0  0  0  0
    2.6754   -1.3525    6.4879 C   0  0  0  0  0  0  0  0  0  0  0  0
    2.6789    0.0018    6.3006 C   0  0  0  0  0  0  0  0  0  0  0  0
    3.1458    0.8827    7.2293 O   0  0  0  0  0  0  0  0  0  0  0  0
    3.8369    0.4920    8.4788 C   0  0  0  0  0  0  0  0  0  0  0  0
    5.1523   -0.3172    8.3709 C   0  0  0  0  0  0  0  0  0  0  0  0
    4.9298   -1.8056    8.1548 C   0  0  0  0  0  0  0  0  0  0  0  0
    3.8707   -2.3892    9.0597 N   0  0  0  0  0  0  0  0  0  0  0  0
    2.6323   -1.5796    9.3784 C   0  0  0  0  0  0  0  0  0  0  0  0
    2.9260   -0.1001    9.5734 C   0  0  0  0  0  0  0  0  0  0  0  0
    2.2093    0.3294    5.0685 C   0  0  0  0  0  0  0  0  0  0  0  0
  1  2  1  0
  2  3  2  0
  2  6  1  0
  3  4  1  0
  3 14  1  0
  4  5  2  0
  5  6  1  0
  6  7  1  0
  7  8  2  0
  7 13  1  0
  8  9  1  0
  9 10  2  0
 10 11  1  0
 10 12  1  0
 12 13  2  0
 14 15  2  0
 14 16  1  0
 16 17  2  0
 16 28  1  0
 17 18  1  0
 18 19  2  0
 19 20  1  0
 20 21  1  0
 20 28  2  0
 21 22  1  0
 22 23  1  0
 22 27  1  0
 23 24  1  0
 24 25  1  0
 25 26  1  0
 26 27  1  0
M  END
>  <DRUGBANK_ID>  (1) 
DB08423

>  <COMMON_NAME>  (1) 
[5-AMINO-1-(4-FLUOROPHENYL)-1H-PYRAZOL-4-YL][3-(PIPERIDIN-4-YLOXY)PHENYL]METHANONE

$$$$
