
     RDKit          3D

 16 17  0  0  1  0  0  0  0  0999 V2000
    1.2069   -0.1101   -0.0457 C   0  0  0  0  0  0  0  0  0  0  0  0
    0.6451    1.0935    0.7143 C   0  0  2  0  0  0  0  0  0  0  0  0
   -0.8851    1.1704    0.4701 C   0  0  2  0  0  0  0  0  0  0  0  0
   -1.3779    2.3614   -0.3710 C   0  0  1  0  0  0  0  0  0  0  0  0
   -0.6493    3.6587    0.0063 C   0  0  1  0  0  0  0  0  0  0  0  0
    0.8510    3.4748   -0.2117 C   0  0  1  0  0  0  0  0  0  0  0  0
    2.9306    4.0442    0.5449 C   0  0  0  0  0  0  0  0  0  0  0  0
    2.6844    2.5476    0.8517 C   0  0  0  0  0  0  0  0  0  0  0  0
    1.6771    4.5385    0.2709 N   0  0  0  0  0  0  0  0  0  0  0  0
    1.3996    2.3019    0.3987 N   0  0  0  0  0  0  0  0  0  0  0  0
    0.7801   -0.0554   -1.4079 O   0  0  0  0  0  0  0  0  0  0  0  0
   -1.5337    1.2200    1.7504 O   0  0  0  0  0  0  0  0  0  0  0  0
   -1.2764    2.1701   -1.7901 O   0  0  0  0  0  0  0  0  0  0  0  0
   -1.1214    4.7349   -0.8147 O   0  0  0  0  0  0  0  0  0  0  0  0
    3.9963    4.6256    0.5530 O   0  0  0  0  0  0  0  0  0  0  0  0
    3.4171    1.8084    1.4759 O   0  0  0  0  0  0  0  0  0  0  0  0
  2  1  1  6
  3  2  1  0
  3 12  1  1
  4  3  1  0
  4 13  1  6
  5  4  1  0
  5 14  1  6
  6  5  1  0
  8  7  1  0
  6  9  1  1
  9  7  1  0
 10  2  1  0
 10  6  1  0
 10  8  1  0
 11  1  1  0
 15  7  2  0
 16  8  2  0
M  END
>  <DRUGBANK_ID>  (1) 
DB02742

>  <SECONDARY_ACCESSION_NUMBERS>  (1) 
EXPT01973

>  <COMMON_NAME>  (1) 
Kifunensine

>  <CAS_NUMBER>  (1) 
109944-15-2

>  <UNII>  (1) 
0NI8960271

$$$$
