
     RDKit          3D

 32 34  0  0  0  0  0  0  0  0999 V2000
    1.0122   -0.0072    0.0891 C   0  0  0  0  0  0  0  0  0  0  0  0
    0.5802   -1.3321    0.3711 O   0  0  0  0  0  0  0  0  0  0  0  0
    0.8872   -2.2380   -0.6115 C   0  0  0  0  0  0  0  0  0  0  0  0
    2.1797   -2.4942   -1.1058 C   0  0  0  0  0  0  0  0  0  0  0  0
    3.2224   -1.7638   -0.5987 O   0  0  0  0  0  0  0  0  0  0  0  0
    4.5193   -2.0280   -1.1217 C   0  0  0  0  0  0  0  0  0  0  0  0
    2.3518   -3.5153   -2.0480 C   0  0  0  0  0  0  0  0  0  0  0  0
    1.2803   -4.3369   -2.4176 C   0  0  0  0  0  0  0  0  0  0  0  0
    1.4665   -5.4405   -3.4408 C   0  0  0  0  0  0  0  0  0  0  0  0
    0.4622   -6.5310   -3.4111 N   0  0  0  0  0  0  0  0  0  0  0  0
   -0.0492   -7.1374   -4.6457 C   0  0  0  0  0  0  0  0  0  0  0  0
   -1.1111   -6.2846   -5.4490 C   0  0  0  0  0  0  0  0  0  0  0  0
   -0.5730   -4.9853   -5.9128 C   0  0  0  0  0  0  0  0  0  0  0  0
    0.6272   -5.4886   -6.6667 C   0  0  0  0  0  0  0  0  0  0  0  0
    0.6784   -5.6566   -8.1757 N   0  0  0  0  0  0  0  0  0  0  0  0
    1.4247   -5.1535   -9.3167 C   0  0  0  0  0  0  0  0  0  0  0  0
    0.7062   -5.2088  -10.3900 O   0  0  0  0  0  0  0  0  0  0  0  0
    2.9667   -4.5310   -9.5297 C   0  0  0  0  0  0  0  0  0  0  0  0
    4.0744   -4.3518   -8.5990 C   0  0  0  0  0  0  0  0  0  0  0  0
    4.1266   -4.3993   -7.2478 O   0  0  0  0  0  0  0  0  0  0  0  0
    2.8318   -4.5909   -6.9670 C   0  0  0  0  0  0  0  0  0  0  0  0
    1.7280   -3.2467   -7.3917 C   0  0  0  0  0  0  0  0  0  0  0  0
    1.9936   -2.5507   -8.5164 F   0  0  0  0  0  0  0  0  0  0  0  0
    5.3342   -3.8027   -8.8415 C   0  0  0  0  0  0  0  0  0  0  0  0
    5.5746   -3.2783  -10.0248 C   0  0  0  0  0  0  0  0  0  0  0  0
    4.5533   -3.3056  -10.9865 C   0  0  0  0  0  0  0  0  0  0  0  0
    4.8957   -2.6820  -12.2877 C   0  0  0  0  0  0  0  0  0  0  0  0
    3.2676   -3.9137  -10.7433 C   0  0  0  0  0  0  0  0  0  0  0  0
   -0.6816   -6.3154   -2.5295 C   0  0  0  0  0  0  0  0  0  0  0  0
   -1.1503   -4.8720   -2.4234 C   0  0  0  0  0  0  0  0  0  0  0  0
   -0.0030   -4.0462   -1.9382 C   0  0  0  0  0  0  0  0  0  0  0  0
   -0.1975   -3.0063   -1.0373 C   0  0  0  0  0  0  0  0  0  0  0  0
  1  2  1  0
  2  3  1  0
  3  4  2  0
  3 32  1  0
  4  5  1  0
  4  7  1  0
  5  6  1  0
  7  8  2  0
  8  9  1  0
  8 31  1  0
  9 10  1  0
 10 11  1  0
 10 29  1  0
 11 12  1  0
 12 13  1  0
 13 14  1  0
 14 15  1  0
 15 16  1  0
 16 17  2  0
 16 18  1  0
 18 19  2  0
 18 28  1  0
 19 20  1  0
 19 24  1  0
 20 21  1  0
 21 22  1  0
 22 23  1  0
 24 25  2  0
 25 26  1  0
 26 27  1  0
 26 28  2  0
 29 30  1  0
 30 31  1  0
 31 32  2  0
M  ISO  1  23  18
M  END
>  <DRUGBANK_ID>  (1) 
DB14900

>  <COMMON_NAME>  (1) 
ISO-1 F-18

>  <CAS_NUMBER>  (1) 
945992-47-2

>  <UNII>  (1) 
3G67X40A29

>  <SYNONYMS>  (1) 
[18F]ISO-1; F-18-ISO

$$$$
