
     RDKit          3D

 43 49  0  0  0  0  0  0  0  0999 V2000
    4.5996    0.1922   -0.0996 C   0  0  0  0  0  0  0  0  0  0  0  0
    4.3193   -1.1659   -0.0213 C   0  0  0  0  0  0  0  0  0  0  0  0
    2.9614   -1.6123    0.0009 C   0  0  0  0  0  0  0  0  0  0  0  0
    1.8501   -0.7458   -0.0092 C   0  0  0  0  0  0  0  0  0  0  0  0
    2.1728    0.6336   -0.0600 C   0  0  0  0  0  0  0  0  0  0  0  0
    3.5163    1.0459   -0.1511 C   0  0  0  0  0  0  0  0  0  0  0  0
    0.5480   -1.1890    0.0385 N   0  0  0  0  0  0  0  0  0  0  0  0
   -0.4133   -0.2399    0.0123 C   0  0  0  0  0  0  0  0  0  0  0  0
   -0.1522    1.1340   -0.0404 C   0  0  0  0  0  0  0  0  0  0  0  0
    1.1509    1.6039   -0.0321 C   0  0  0  0  0  0  0  0  0  0  0  0
    5.9483    0.6852   -0.1615 O   0  0  0  0  0  0  0  0  0  0  0  0
    6.2967    2.0628   -0.0071 C   0  0  0  0  0  0  0  0  0  0  0  0
    5.4937    2.9837    0.1158 O   0  0  0  0  0  0  0  0  0  0  0  0
    7.6550    2.3083    0.1570 N   0  0  0  0  0  0  0  0  0  0  0  0
    8.0365    3.4320    0.9930 C   0  0  0  0  0  0  0  0  0  0  0  0
    8.5037    4.6219    0.1927 C   0  0  0  0  0  0  0  0  0  0  0  0
    9.6041    4.2581   -0.8206 C   0  0  0  0  0  0  0  0  0  0  0  0
    9.2155    2.9942   -1.6363 C   0  0  0  0  0  0  0  0  0  0  0  0
    8.6825    1.8457   -0.7625 C   0  0  0  0  0  0  0  0  0  0  0  0
    9.9480    5.4092   -1.7071 N   0  0  0  0  0  0  0  0  0  0  0  0
    8.7789    5.8314   -2.5012 C   0  0  0  0  0  0  0  0  0  0  0  0
    9.0600    6.9956   -3.4270 C   0  0  0  0  0  0  0  0  0  0  0  0
    9.5812    8.1781   -2.6320 C   0  0  0  0  0  0  0  0  0  0  0  0
   10.7939    7.7647   -1.8059 C   0  0  0  0  0  0  0  0  0  0  0  0
   10.4788    6.5511   -0.9297 C   0  0  0  0  0  0  0  0  0  0  0  0
   -1.8837   -0.3731    0.2324 C   0  0  0  0  0  0  0  0  0  0  0  0
   -2.4304    0.8831    0.0222 N   0  0  0  0  0  0  0  0  0  0  0  0
   -1.4229    1.9211   -0.0236 C   0  0  0  0  0  0  0  0  0  0  0  0
   -3.7824    1.1424   -0.0935 C   0  0  0  0  0  0  0  0  0  0  0  0
   -4.6362   -0.0687    0.0778 C   0  0  0  0  0  0  0  0  0  0  0  0
   -4.1263   -0.9212    1.0102 C   0  0  0  0  0  0  0  0  0  0  0  0
   -2.7296   -1.3525    0.6338 C   0  0  0  0  0  0  0  0  0  0  0  0
   -5.2837   -1.4573    1.9163 C   0  0  2  0  0  0  0  0  0  0  0  0
   -6.0911   -0.0109    2.2211 C   0  0  0  0  0  0  0  0  0  0  0  0
   -6.6256    0.5861    1.1226 O   0  0  0  0  0  0  0  0  0  0  0  0
   -6.1203    0.0391   -0.0779 C   0  0  0  0  0  0  0  0  0  0  0  0
   -4.2677    2.2364   -0.2151 O   0  0  0  0  0  0  0  0  0  0  0  0
   -6.2420    0.5007    3.3299 O   0  0  0  0  0  0  0  0  0  0  0  0
    1.4485    3.0908    0.0330 C   0  0  0  0  0  0  0  0  0  0  0  0
    2.1885    3.5140    1.3077 C   0  0  0  0  0  0  0  0  0  0  0  0
   -5.9996   -2.2198    3.1146 C   0  0  0  0  0  0  0  0  0  0  0  0
   -5.4411   -2.5672    1.0447 O   0  0  0  0  0  0  0  0  0  0  0  0
   -7.4847   -2.5256    2.6264 C   0  0  0  0  0  0  0  0  0  0  0  0
  1  2  2  0
  1  6  1  0
  1 11  1  0
  2  3  1  0
  3  4  2  0
  4  5  1  0
  4  7  1  0
  5  6  2  0
  5 10  1  0
  7  8  2  0
  8  9  1  0
  8 26  1  0
  9 10  2  0
  9 28  1  0
 10 39  1  0
 11 12  1  0
 12 13  2  0
 12 14  1  0
 14 15  1  0
 14 19  1  0
 15 16  1  0
 16 17  1  0
 17 18  1  0
 17 20  1  0
 18 19  1  0
 20 21  1  0
 20 25  1  0
 21 22  1  0
 22 23  1  0
 23 24  1  0
 24 25  1  0
 26 27  1  0
 27 28  1  0
 27 29  1  0
 29 30  1  0
 29 37  2  0
 30 31  2  0
 30 36  1  0
 31 32  1  0
 31 33  1  0
 32 26  2  0
 33 34  1  0
 33 41  1  0
 33 42  1  6
 34 35  1  0
 34 38  2  0
 35 36  1  0
 39 40  1  0
 41 43  1  0
M  END
>  <DRUGBANK_ID>  (1) 
DB00762

>  <SECONDARY_ACCESSION_NUMBERS>  (1) 
APRD00579

>  <COMMON_NAME>  (1) 
Irinotecan

>  <CAS_NUMBER>  (1) 
97682-44-5

>  <UNII>  (1) 
7673326042

>  <SYNONYMS>  (1) 
(+)-Irinotecan; (S)-4,11-diethyl-4-hydroxy-3,14-dioxo-3,4,12,14-tetrahydro-1H-pyrano[3',4':6,7]indolizino[1,2-b]quinolin-9-yl 4-(2-(5-(3-(2,4-dihydroxy-5-isopropylphenyl)-5-hydroxy-4H-1,2,4-triazol-4-yl)-1H-indol-1-yl)ethyl)piperidine-1-carboxylate; Irinotecan; Irinotecan lactone; Irinotecan liposome injection; Irinotecanum

$$$$
