
     RDKit          3D

 29 30  0  0  0  0  0  0  0  0999 V2000
    2.9239    0.0444   -3.6163 C   0  0  0  0  0  0  0  0  0  0  0  0
    3.9927    0.6143   -3.8227 O   0  0  0  0  0  0  0  0  0  0  0  0
    1.9636   -0.0033   -4.5828 N   0  0  0  0  0  0  0  0  0  0  0  0
    0.6417   -0.6068   -4.4583 C   0  0  2  0  0  0  0  0  0  0  0  0
   -0.0274   -0.0956   -3.1594 C   0  0  0  0  0  0  0  0  0  0  0  0
    0.6694   -2.1300   -4.6545 C   0  0  0  0  0  0  0  0  0  0  0  0
   -0.7299   -2.8003   -4.6661 C   0  0  0  0  0  0  0  0  0  0  0  0
   -0.5859   -1.0653   -2.3621 N   0  0  0  0  0  0  0  0  0  0  0  0
   -0.0443    1.0964   -2.8590 O   0  0  0  0  0  0  0  0  0  0  0  0
   -1.1044   -0.7782   -1.0544 C   0  0  2  0  0  0  0  0  0  0  0  0
   -0.1193   -1.4287   -0.0859 C   0  0  0  0  0  0  0  0  0  0  0  0
    0.7683   -2.2149   -0.4141 O   0  0  0  0  0  0  0  0  0  0  0  0
   -2.5478   -1.2972   -0.9475 C   0  0  0  0  0  0  0  0  0  0  0  0
   -3.2227   -0.9715    0.3811 C   0  0  1  0  0  0  0  0  0  0  0  0
   -2.8088   -1.8958    1.5342 C   0  0  0  0  0  0  0  0  0  0  0  0
   -2.7601   -0.9853    2.7474 C   0  0  0  0  0  0  0  0  0  0  0  0
   -2.5693    0.3255    2.2083 N   0  0  0  0  0  0  0  0  0  0  0  0
   -2.8595    0.4132    0.8733 C   0  0  0  0  0  0  0  0  0  0  0  0
   -2.7901    1.4317    0.2110 O   0  0  0  0  0  0  0  0  0  0  0  0
    2.5506   -0.5530   -2.4610 O   0  0  0  0  0  0  0  0  0  0  0  0
    3.4617   -0.4687   -1.3522 C   0  0  0  0  0  0  0  0  0  0  0  0
    4.6921   -1.2901   -1.6155 C   0  0  0  0  0  0  0  0  0  0  0  0
    4.5581   -2.6577   -1.8867 C   0  0  0  0  0  0  0  0  0  0  0  0
    5.6682   -3.4102   -2.2565 C   0  0  0  0  0  0  0  0  0  0  0  0
    6.9147   -2.7971   -2.3724 C   0  0  0  0  0  0  0  0  0  0  0  0
    7.0525   -1.4330   -2.1167 C   0  0  0  0  0  0  0  0  0  0  0  0
    5.9533   -0.6884   -1.6953 C   0  0  0  0  0  0  0  0  0  0  0  0
   -1.6316   -2.2676   -5.7680 C   0  0  0  0  0  0  0  0  0  0  0  0
   -0.5849   -4.3130   -4.6778 C   0  0  0  0  0  0  0  0  0  0  0  0
  1  2  2  0
  1  3  1  0
  1 20  1  0
  4  6  1  1
  4  5  1  0
  4  3  1  0
  5  8  1  0
  5  9  2  0
  6  7  1  0
  7 28  1  0
  7 29  1  0
 10 13  1  6
 10 11  1  0
 10  8  1  0
 11 12  2  0
 14 13  1  6
 14 15  1  0
 15 16  1  0
 16 17  1  0
 17 18  1  0
 18 14  1  0
 18 19  2  0
 20 21  1  0
 21 22  1  0
 22 23  2  0
 23 24  1  0
 24 25  2  0
 25 26  1  0
 26 27  2  0
 27 22  1  0
M  END
>  <DRUGBANK_ID>  (1) 
DB15797

>  <COMMON_NAME>  (1) 
GC-373

>  <UNII>  (1) 
W9SVW656LQ

$$$$
