
     RDKit          3D

 19 19  0  0  0  0  0  0  0  0999 V2000
   -1.0967    0.9409    0.0974 C   0  0  0  0  0  0  0  0  0  0  0  0
    0.3548    1.2019    0.0002 C   0  0  0  0  0  0  0  0  0  0  0  0
   -1.4103   -0.7317   -0.0251 S   0  0  0  0  0  0  0  0  0  0  0  0
    1.1921    2.3910   -0.0026 N   0  0  0  0  0  0  0  0  0  0  0  0
    1.0949   -0.0737   -0.0185 C   0  0  0  0  0  0  0  0  0  0  0  0
    0.8988    3.7405   -0.0205 C   0  0  0  0  0  0  0  0  0  0  0  0
   -2.3291    1.7780    0.2971 C   0  0  0  0  0  0  0  0  0  0  0  0
    0.2280   -1.1420   -0.0212 C   0  0  0  0  0  0  0  0  0  0  0  0
    1.7650    4.6167    0.0022 O   0  0  0  0  0  0  0  0  0  0  0  0
   -2.2966    3.0029    0.2865 O   0  0  0  0  0  0  0  0  0  0  0  0
   -0.5462    4.0808   -0.0249 C   0  0  0  0  0  0  0  0  0  0  0  0
   -3.6643    1.4844    0.5424 O   0  0  0  0  0  0  0  0  0  0  0  0
   -1.0559    3.4870   -1.5433 N   0  0  0  0  0  0  0  0  0  0  0  0
    2.5943   -0.2861   -0.0060 C   0  0  0  0  0  0  0  0  0  0  0  0
   -2.5307    3.5362   -1.9185 C   0  0  0  0  0  0  0  0  0  0  0  0
   -0.8754    3.5981    1.6930 C   0  0  0  0  0  0  0  0  0  0  0  0
   -4.4487    2.8305    0.5908 C   0  0  0  0  0  0  0  0  0  0  0  0
   -3.1388    4.8994   -1.5831 C   0  0  0  0  0  0  0  0  0  0  0  0
   -2.6623    5.7462   -2.7109 C   0  0  0  0  0  0  0  0  0  0  0  0
  2  1  2  0
  3  1  1  0
  4  2  1  0
  5  2  1  0
  5  8  2  0
  6  4  1  0
  7  1  1  0
  8  3  1  0
  9  6  2  0
 10  7  2  0
 11  6  1  0
 12  7  1  0
 13 11  1  0
 14  5  1  0
 15 13  1  0
 16 11  1  0
 17 12  1  0
 18 15  1  0
 19 18  1  0
M  END
>  <DRUGBANK_ID>  (1) 
DB09009

>  <COMMON_NAME>  (1) 
Articaine

>  <CAS_NUMBER>  (1) 
23964-58-1

>  <UNII>  (1) 
D3SQ406G9X

>  <SYNONYMS>  (1) 
Artica√≠na; Articaine; Articainum

$$$$
