IH6
     RDKit          3D

 26 27  0  0  0  0  0  0  0  0999 V2000
    0.9080   -0.0013    0.0393 C   0  0  0  0  0  0  0  0  0  0  0  0
    0.4014    0.5039   -1.3018 C   0  0  0  0  0  0  0  0  0  0  0  0
   -0.0333    0.9372   -2.4522 C   0  0  0  0  0  0  0  0  0  0  0  0
   -0.5399    1.4424   -3.7933 C   0  0  0  0  0  0  0  0  0  0  0  0
   -0.9268    2.8329   -3.9928 O   0  0  0  0  0  0  0  0  0  0  0  0
   -1.7151    3.4603   -3.0880 C   0  0  0  0  0  0  0  0  0  0  0  0
   -1.5504    3.2427   -1.7725 C   0  0  0  0  0  0  0  0  0  0  0  0
   -2.2558    4.0008   -0.8716 C   0  0  0  0  0  0  0  0  0  0  0  0
   -3.2249    4.9580   -1.0890 C   0  0  0  0  0  0  0  0  0  0  0  0
   -3.4620    5.1508   -2.4398 C   0  0  0  0  0  0  0  0  0  0  0  0
   -2.6854    4.4241   -3.4252 C   0  0  0  0  0  0  0  0  0  0  0  0
   -4.6066    5.2760    0.2522 S   0  0  0  0  0  0  0  0  0  0  0  0
   -4.2900    6.5929    0.7995 O   0  0  0  0  0  0  0  0  0  0  0  0
   -5.8478    5.0656   -0.4372 O   0  0  0  0  0  0  0  0  0  0  0  0
   -4.4969    4.1084    1.6500 N   0  0  0  0  0  0  0  0  0  0  0  0
   -3.3119    4.3188    2.5785 C   0  0  0  0  0  0  0  0  0  0  0  0
   -2.0562    3.7317    1.9987 C   0  0  0  0  0  0  0  0  0  0  0  0
   -2.2878    1.8762    1.6487 S   0  0  0  0  0  0  0  0  0  0  0  0
   -4.0157    1.7509    0.7552 C   0  0  0  0  0  0  0  0  0  0  0  0
   -4.9854    2.5955    1.6215 C   0  0  2  0  0  0  0  0  0  0  0  0
   -6.4236    2.2717    1.1795 C   0  0  0  0  0  0  0  0  0  0  0  0
   -7.0667    2.9502    0.3823 O   0  0  0  0  0  0  0  0  0  0  0  0
   -7.0073    1.1006    1.5467 N   0  0  0  0  0  0  0  0  0  0  0  0
   -6.5121    0.0952    2.3760 O   0  0  0  0  0  0  0  0  0  0  0  0
   -4.3024    2.1961   -0.6765 C   0  0  0  0  0  0  0  0  0  0  0  0
   -4.1485    0.2505    0.5291 C   0  0  0  0  0  0  0  0  0  0  0  0
  1  2  1  0
  2  3  3  0
  3  4  1  0
  4  5  1  0
  5  6  1  0
  6  7  2  0
  6 11  1  0
  7  8  1  0
  8  9  2  0
  9 10  1  0
  9 12  1  0
 10 11  2  0
 12 13  2  0
 12 14  2  0
 12 15  1  0
 15 16  1  0
 15 20  1  0
 16 17  1  0
 17 18  1  0
 18 19  1  0
 19 20  1  0
 19 25  1  0
 19 26  1  0
 20 21  1  6
 21 22  2  0
 21 23  1  0
 23 24  1  0
M  END
>  <DRUGBANK_ID>  (1) 
DB07964

>  <COMMON_NAME>  (1) 
(3S)-4-{[4-(BUT-2-YNYLOXY)PHENYL]SULFONYL}-N-HYDROXY-2,2-DIMETHYLTHIOMORPHOLINE-3-CARBOXAMIDE

$$$$
