L12
     RDKit          3D

 17 19  0  0  0  0  0  0  0  0999 V2000
   -1.5336   -1.1651   -0.1604 C   0  0  0  0  0  0  0  0  0  0  0  0
   -2.0865   -2.5604   -0.0429 C   0  0  0  0  0  0  0  0  0  0  0  0
   -2.9573   -2.8194    1.2176 C   0  0  0  0  0  0  0  0  0  0  0  0
   -4.2223   -1.9905    1.3121 C   0  0  0  0  0  0  0  0  0  0  0  0
   -4.1498   -0.6213    1.5770 C   0  0  0  0  0  0  0  0  0  0  0  0
   -5.2541    0.1751    1.3262 C   0  0  0  0  0  0  0  0  0  0  0  0
   -6.4704   -0.3177    1.0362 N   0  0  0  0  0  0  0  0  0  0  0  0
   -6.5672   -1.6639    0.9783 C   0  0  0  0  0  0  0  0  0  0  0  0
   -5.4837   -2.5300    1.0699 C   0  0  0  0  0  0  0  0  0  0  0  0
   -2.2372   -0.0255   -0.5062 C   0  0  0  0  0  0  0  0  0  0  0  0
    1.0578   -1.4185    0.0462 C   0  0  0  0  0  0  0  0  0  0  0  0
   -0.1723   -0.7424   -0.0448 C   0  0  0  0  0  0  0  0  0  0  0  0
   -0.1632    0.6528   -0.0646 C   0  0  0  0  0  0  0  0  0  0  0  0
    1.0042    1.4158    0.0062 C   0  0  0  0  0  0  0  0  0  0  0  0
    2.2135    0.7185    0.0049 C   0  0  0  0  0  0  0  0  0  0  0  0
   -1.4684    1.0595   -0.1840 N   0  0  0  0  0  0  0  0  0  0  0  0
    2.2425   -0.6749    0.0242 C   0  0  0  0  0  0  0  0  0  0  0  0
  1  2  1  0
  1 10  2  0
  1 12  1  0
  2  3  1  0
  3  4  1  0
  4  5  2  0
  4  9  1  0
  5  6  1  0
  6  7  2  0
  7  8  1  0
  8  9  2  0
 10 16  1  0
 11 12  2  0
 11 17  1  0
 12 13  1  0
 13 14  2  0
 13 16  1  0
 14 15  1  0
 15 17  2  0
M  END
>  <DRUGBANK_ID>  (1) 
DB01953

>  <SECONDARY_ACCESSION_NUMBERS>  (1) 
EXPT01988

>  <COMMON_NAME>  (1) 
Inhibitor of P38 Kinase

>  <UNII>  (1) 
2X6GDX4TXP

$$$$
