
     RDKit          3D

 22 24  0  0  0  0  0  0  0  0999 V2000
    1.4191   -0.2269    0.0182 C   0  0  0  0  0  0  0  0  0  0  0  0
    0.5431   -1.3028    0.0447 C   0  0  0  0  0  0  0  0  0  0  0  0
   -0.8363   -1.0830    0.0498 C   0  0  0  0  0  0  0  0  0  0  0  0
   -1.3819    0.2133    0.0091 C   0  0  0  0  0  0  0  0  0  0  0  0
   -0.4662    1.2803    0.0584 C   0  0  0  0  0  0  0  0  0  0  0  0
    0.9144    1.0665    0.0221 C   0  0  0  0  0  0  0  0  0  0  0  0
   -2.8598    0.4242   -0.1622 C   0  0  0  0  0  0  0  0  0  0  0  0
   -3.3694    1.6673   -0.3141 C   0  0  0  0  0  0  0  0  0  0  0  0
   -4.7984    2.0717   -0.4387 C   0  0  0  0  0  0  0  0  0  0  0  0
   -5.3157    2.7961    0.7325 N   0  0  0  0  0  0  0  0  0  0  0  0
   -6.3234    3.7640    0.2647 C   0  0  0  0  0  0  0  0  0  0  0  0
   -5.4877    4.9794   -0.0946 C   0  0  0  0  0  0  0  0  0  0  0  0
   -4.4834    5.0357    1.0397 C   0  0  0  0  0  0  0  0  0  0  0  0
   -4.3383    3.5929    1.4972 C   0  0  0  0  0  0  0  0  0  0  0  0
   -3.7678   -0.7793   -0.3140 C   0  0  0  0  0  0  0  0  0  0  0  0
   -3.5010   -1.5720   -1.5815 C   0  0  0  0  0  0  0  0  0  0  0  0
   -2.8033   -1.0339   -2.6806 C   0  0  0  0  0  0  0  0  0  0  0  0
   -2.4752   -1.8310   -3.7718 C   0  0  0  0  0  0  0  0  0  0  0  0
   -2.8733   -3.1625   -3.7843 C   0  0  0  0  0  0  0  0  0  0  0  0
   -3.5818   -3.7045   -2.7122 C   0  0  0  0  0  0  0  0  0  0  0  0
   -3.9277   -2.9016   -1.6289 C   0  0  0  0  0  0  0  0  0  0  0  0
   -2.5253   -4.1386   -5.1553 Cl  0  0  0  0  0  0  0  0  0  0  0  0
  1  2  2  0
  1  6  1  0
  2  3  1  0
  3  4  2  0
  4  5  1  0
  4  7  1  0
  5  6  2  0
  7  8  2  3
  7 15  1  0
  8  9  1  0
  9 10  1  0
 10 11  1  0
 10 14  1  0
 11 12  1  0
 12 13  1  0
 13 14  1  0
 15 16  1  0
 16 17  2  0
 16 21  1  0
 17 18  1  0
 18 19  2  0
 19 20  1  0
 19 22  1  0
 20 21  2  0
M  END
>  <DRUGBANK_ID>  (1) 
DB13846

>  <COMMON_NAME>  (1) 
Pyrrobutamine

>  <CAS_NUMBER>  (1) 
91-82-7

>  <UNII>  (1) 
VE6KP18S8X

$$$$
