
     RDKit          3D

 31 35  0  0  0  0  0  0  0  0999 V2000
    2.5137   -0.2044    0.4060 O   0  0  0  0  0  0  0  0  0  0  0  0
    1.3279   -0.0401    0.1407 C   0  0  0  0  0  0  0  0  0  0  0  0
    0.7605    1.3402    0.0478 C   0  0  0  0  0  0  0  0  0  0  0  0
   -1.0205    1.1367   -0.0099 S   0  0  0  0  0  0  0  0  0  0  0  0
   -0.9167   -0.6103   -0.0362 C   0  0  0  0  0  0  0  0  0  0  0  0
   -1.9134   -1.3152    0.0027 O   0  0  0  0  0  0  0  0  0  0  0  0
    0.3855   -1.0202   -0.0611 N   0  0  0  0  0  0  0  0  0  0  0  0
    0.7175   -2.4424   -0.0893 C   0  0  0  0  0  0  0  0  0  0  0  0
    1.4983   -2.8148   -1.3369 C   0  0  0  0  0  0  0  0  0  0  0  0
    2.7946   -2.2962   -1.5533 C   0  0  0  0  0  0  0  0  0  0  0  0
    3.4078   -2.4946   -2.7646 C   0  0  0  0  0  0  0  0  0  0  0  0
    4.6645   -2.0438   -3.3632 C   0  0  0  0  0  0  0  0  0  0  0  0
    5.6326   -1.2698   -2.8459 C   0  0  0  0  0  0  0  0  0  0  0  0
    6.7109   -0.9595   -3.6969 C   0  0  0  0  0  0  0  0  0  0  0  0
    6.7760   -0.3506   -4.9405 C   0  0  0  0  0  0  0  0  0  0  0  0
    8.1176   -0.4304   -5.4211 C   0  0  0  0  0  0  0  0  0  0  0  0
    8.7012    0.4395   -6.5550 C   0  0  0  0  0  0  0  0  0  0  0  0
    9.5375    1.6548   -6.1970 N   0  0  0  0  0  0  0  0  0  0  0  0
   10.8270    1.3662   -5.5264 C   0  0  0  0  0  0  0  0  0  0  0  0
   10.5737    0.8965   -4.1056 C   0  0  0  0  0  0  0  0  0  0  0  0
    9.7143    1.6953   -3.2864 O   0  0  0  0  0  0  0  0  0  0  0  0
    8.5301    2.1558   -3.9605 C   0  0  0  0  0  0  0  0  0  0  0  0
    8.8303    2.6579   -5.3692 C   0  0  0  0  0  0  0  0  0  0  0  0
    8.6942   -1.3959   -4.5800 C   0  0  0  0  0  0  0  0  0  0  0  0
    7.9606   -1.4155   -3.4050 N   0  0  0  0  0  0  0  0  0  0  0  0
    4.7090   -2.6580   -4.7640 C   0  0  0  0  0  0  0  0  0  0  0  0
    5.5314   -2.6269   -5.6337 O   0  0  0  0  0  0  0  0  0  0  0  0
    3.5312   -3.3634   -4.8697 N   0  0  0  0  0  0  0  0  0  0  0  0
    2.7750   -3.2823   -3.7225 C   0  0  0  0  0  0  0  0  0  0  0  0
    1.5636   -3.8990   -3.5200 C   0  0  0  0  0  0  0  0  0  0  0  0
    0.9137   -3.6526   -2.3136 C   0  0  0  0  0  0  0  0  0  0  0  0
  1  2  2  0
  2  3  1  0
  2  7  1  0
  3  4  1  0
  4  5  1  0
  5  6  2  0
  5  7  1  0
  7  8  1  0
  8  9  1  0
  9 10  2  0
  9 31  1  0
 10 11  1  0
 11 12  1  0
 11 29  2  0
 12 13  2  0
 13 14  1  0
 14 15  2  0
 14 25  1  0
 15 16  1  0
 16 17  1  0
 16 24  2  0
 17 18  1  0
 18 19  1  0
 18 23  1  0
 19 20  1  0
 20 21  1  0
 21 22  1  0
 22 23  1  0
 24 25  1  0
 26 12  1  0
 26 27  2  0
 28 26  1  0
 29 28  1  0
 29 30  1  0
 30 31  2  0
M  END
>  <DRUGBANK_ID>  (1) 
DB16821

>  <COMMON_NAME>  (1) 
S-49076

>  <CAS_NUMBER>  (1) 
1265965-22-7

>  <UNII>  (1) 
65ZUU7MATU

$$$$
