250
     RDKit          3D

 17 18  0  0  0  0  0  0  0  0999 V2000
    1.0708    0.0590    0.0281 S   0  0  0  0  0  0  0  0  0  0  0  0
    0.6690   -0.5218   -1.2450 O   0  0  0  0  0  0  0  0  0  0  0  0
    0.6704   -0.5497    1.2792 O   0  0  0  0  0  0  0  0  0  0  0  0
   -0.8055    5.7320    0.1285 N   0  0  0  0  0  0  0  0  0  0  0  0
    7.0423    0.0541   -0.0357 N   0  0  0  0  0  0  0  0  0  0  0  0
    0.4429    1.7296    0.0259 C   0  0  0  0  0  0  0  0  0  0  0  0
    2.8526    0.0793    0.0428 C   0  0  0  0  0  0  0  0  0  0  0  0
    0.7610    2.5863   -1.0323 C   0  0  0  0  0  0  0  0  0  0  0  0
    3.5644    1.2783    0.0640 C   0  0  0  0  0  0  0  0  0  0  0  0
   -0.3461    2.1827    1.0840 C   0  0  0  0  0  0  0  0  0  0  0  0
    3.5379   -1.1391    0.0295 C   0  0  0  0  0  0  0  0  0  0  0  0
    0.3248    3.9145   -1.0017 C   0  0  0  0  0  0  0  0  0  0  0  0
    4.9600    1.2596    0.0433 C   0  0  0  0  0  0  0  0  0  0  0  0
   -0.8032    3.5060    1.0834 C   0  0  0  0  0  0  0  0  0  0  0  0
    4.9389   -1.1432    0.0344 C   0  0  0  0  0  0  0  0  0  0  0  0
   -0.4916    4.3787    0.0345 C   0  0  0  0  0  0  0  0  0  0  0  0
    5.6614    0.0539    0.0538 C   0  0  0  0  0  0  0  0  0  0  0  0
  1  2  2  0
  1  3  2  0
  1  6  1  0
  1  7  1  0
  4 16  1  0
  5 17  1  0
  6  8  2  0
  6 10  1  0
  7  9  2  0
  7 11  1  0
  8 12  1  0
  9 13  1  0
 10 14  2  0
 11 15  2  0
 12 16  2  0
 13 17  2  0
 14 16  1  0
 15 17  1  0
M  END
>  <DRUGBANK_ID>  (1) 
DB00250

>  <SECONDARY_ACCESSION_NUMBERS>  (1) 
APRD00345

>  <COMMON_NAME>  (1) 
Dapsone

>  <CAS_NUMBER>  (1) 
80-08-0

>  <UNII>  (1) 
8W5C518302

>  <SYNONYMS>  (1) 
1,1'-sulfonylbis(4-aminobenzene); 1,1'-Sulfonylbis[4-aminobenzene]; 4-(4-amino-benzenesulfonyl)-phenylamine; 4-(4-aminophenylsulfonyl)aniline; 4-(4-aminophenylsulfonyl)benzenamine; 4-aminophenyl sulfone; 4,4'-dapsone; 4,4'-diaminodiphenyl sulfone; 4,4'-Diaminodiphenyl sulphone; 4,4'-Diaminodiphenylsulfone; 4,4'-sulfonylbisaniline; 4,4'-Sulfonylbisbenzenamine; 4,4'-Sulfonylbisbenzeneamine; 4,4'-Sulfonyldianilin; 4,4'-sulfonyldianiline; bis(4-aminophenyl)sulfone; Bis(p-aminophenyl) sulfone; DADPS; Dapsona; Dapsone; Dapsonum; DDS; Diaphenylsulfone; p-aminophenyl sulfone; p,p-sulphonylbisbenzamine; p,p-sulphonylbisbenzenamine; p,p'-diaminodiphenyl sulfone

$$$$
