
     RDKit          3D

 31 32  0  0  0  0  0  0  0  0999 V2000
    0.8493   -0.1526    0.0531 C   0  0  0  0  0  0  0  0  0  0  0  0
    0.3917   -0.5548   -1.3334 C   0  0  0  0  0  0  0  0  0  0  0  0
   -0.3746   -1.7671   -1.4849 C   0  0  0  0  0  0  0  0  0  0  0  0
   -0.9246   -2.2094   -2.6309 C   0  0  0  0  0  0  0  0  0  0  0  0
   -1.8020   -3.3659   -2.7198 C   0  0  0  0  0  0  0  0  0  0  0  0
   -2.8515   -3.5016   -1.8744 C   0  0  0  0  0  0  0  0  0  0  0  0
   -3.3068   -2.4632   -0.8747 C   0  0  0  0  0  0  0  0  0  0  0  0
   -3.7142   -4.7375   -1.8489 C   0  0  0  0  0  0  0  0  0  0  0  0
   -3.1596   -5.9025   -2.6550 C   0  0  0  0  0  0  0  0  0  0  0  0
   -2.6630   -5.4034   -4.0011 C   0  0  0  0  0  0  0  0  0  0  0  0
   -1.5033   -4.3810   -3.8481 C   0  0  0  0  0  0  0  0  0  0  0  0
   -1.3400   -3.7099   -5.2336 C   0  0  0  0  0  0  0  0  0  0  0  0
   -0.2001   -5.1387   -3.5239 C   0  0  0  0  0  0  0  0  0  0  0  0
    0.7030    0.2092   -2.3867 C   0  0  0  0  0  0  0  0  0  0  0  0
    1.5462    1.3318   -2.1991 C   0  0  0  0  0  0  0  0  0  0  0  0
    2.0139    2.0139   -3.2160 C   0  0  0  0  0  0  0  0  0  0  0  0
    3.0322    2.9966   -3.0331 C   0  0  0  0  0  0  0  0  0  0  0  0
    3.5517    3.2676   -4.3400 C   0  0  0  0  0  0  0  0  0  0  0  0
    3.3236    3.8426   -2.0229 C   0  0  0  0  0  0  0  0  0  0  0  0
    4.1235    5.1542   -2.1541 C   0  0  0  0  0  0  0  0  0  0  0  0
    4.6579    5.5357   -1.1008 O   0  0  0  0  0  0  0  0  0  0  0  0
    4.3452    5.9395   -3.3135 N   0  0  0  0  0  0  0  0  0  0  0  0
    3.8271    5.9994   -4.6928 C   0  0  0  0  0  0  0  0  0  0  0  0
    2.4415    5.8474   -5.0090 C   0  0  0  0  0  0  0  0  0  0  0  0
    2.0307    5.1894   -6.2120 C   0  0  0  0  0  0  0  0  0  0  0  0
    2.9480    4.8750   -7.2260 C   0  0  0  0  0  0  0  0  0  0  0  0
    4.2936    5.2148   -7.0068 C   0  0  0  0  0  0  0  0  0  0  0  0
    4.7376    5.7279   -5.7469 C   0  0  0  0  0  0  0  0  0  0  0  0
    2.4348    4.0440   -8.3837 C   0  0  0  0  0  0  0  0  0  0  0  0
    3.3089    3.8539   -9.4037 O   0  0  0  0  0  0  0  0  0  0  0  0
    1.3295    3.5710   -8.4081 O   0  0  0  0  0  0  0  0  0  0  0  0
  1  2  1  0
  2  3  1  0
  2 14  2  0
  3  4  2  0
  4  5  1  0
  5  6  2  0
  5 11  1  0
  6  7  1  0
  6  8  1  0
  8  9  1  0
  9 10  1  0
 10 11  1  0
 11 12  1  0
 11 13  1  0
 14 15  1  0
 15 16  2  0
 16 17  1  0
 17 18  1  0
 17 19  2  0
 19 20  1  0
 20 21  2  0
 20 22  1  0
 22 23  1  0
 23 24  2  0
 23 28  1  0
 24 25  1  0
 25 26  2  0
 26 27  1  0
 26 29  1  0
 27 28  2  0
 29 30  1  0
 29 31  2  0
M  END
>  <DRUGBANK_ID>  (1) 
DB17418

>  <COMMON_NAME>  (1) 
Retinamidic acid

>  <CAS_NUMBER>  (1) 
74193-17-2

>  <UNII>  (1) 
QGJ09HO5S0

>  <SYNONYMS>  (1) 
Benzoic acid, 4-((15-oxoretin-15-yl)amino)-; N-4-carboxyphenylretinamide; Retinamide (rii); Retinamide, n-(4-carboxyphenyl)-; Rii-retinamide

$$$$
