
     RDKit          3D

 41 45  0  0  1  0  0  0  0  0999 V2000
    3.9202    0.6448   -0.3946 C   0  0  1  0  0  0  0  0  0  0  0  0
    5.1028   -0.2889   -0.6638 C   0  0  0  0  0  0  0  0  0  0  0  0
    5.7284   -0.7814    0.6552 C   0  0  0  0  0  0  0  0  0  0  0  0
    6.2104    0.3886    1.5424 C   0  0  2  0  0  0  0  0  0  0  0  0
    6.7358   -0.1256    2.7707 O   0  0  0  0  0  0  0  0  0  0  0  0
    5.0115    1.2399    1.8911 C   0  0  0  0  0  0  0  0  0  0  0  0
    4.2745    1.6899    0.6629 C   0  0  0  0  0  0  0  0  0  0  0  0
    7.2942    1.1866    0.8210 C   0  0  0  0  0  0  0  0  0  0  0  0
    8.4665    0.5411    0.4600 C   0  0  0  0  0  0  0  0  0  0  0  0
    9.3868    1.2167   -0.3267 C   0  0  0  0  0  0  0  0  0  0  0  0
    9.1314    2.5267   -0.7415 C   0  0  0  0  0  0  0  0  0  0  0  0
    7.9310    3.0920   -0.3490 C   0  0  0  0  0  0  0  0  0  0  0  0
    7.0255    2.4595    0.4247 N   0  0  0  0  0  0  0  0  0  0  0  0
   10.0853    3.2862   -1.5179 C   0  0  0  0  0  0  0  0  0  0  0  0
   10.5238    4.4398   -0.9802 N   0  0  0  0  0  0  0  0  0  0  0  0
   11.4531    5.1017   -1.6863 C   0  0  0  0  0  0  0  0  0  0  0  0
   11.9213    4.6721   -2.9049 C   0  0  0  0  0  0  0  0  0  0  0  0
   11.3843    3.4957   -3.3740 C   0  0  0  0  0  0  0  0  0  0  0  0
   10.4784    2.7723   -2.6962 N   0  0  0  0  0  0  0  0  0  0  0  0
    3.3924    1.2799   -1.6398 N   0  0  0  0  0  0  0  0  0  0  0  0
    2.1432    2.0208   -1.3488 C   0  0  1  0  0  0  0  0  0  0  0  0
    2.3308    3.3094   -0.5355 C   0  0  0  0  0  0  0  0  0  0  0  0
    0.9813    3.9247   -0.5472 C   0  0  0  0  0  0  0  0  0  0  0  0
    0.5548    3.7450   -1.8927 N   0  0  0  0  0  0  0  0  0  0  0  0
    1.1694    2.5301   -2.4645 C   0  0  0  0  0  0  0  0  0  0  0  0
   -0.2128    4.6548   -2.5795 C   0  0  0  0  0  0  0  0  0  0  0  0
   -0.4533    4.5288   -3.7789 O   0  0  0  0  0  0  0  0  0  0  0  0
   -0.6234    5.9408   -1.8270 C   0  0  0  0  0  0  0  0  0  0  0  0
   -1.3904    5.7559   -0.5896 N   0  0  0  0  0  0  0  0  0  0  0  0
   -1.0649    6.0741    0.7154 C   0  0  0  0  0  0  0  0  0  0  0  0
   -1.7465    5.6749    1.6423 O   0  0  0  0  0  0  0  0  0  0  0  0
    0.1423    6.8973    0.9967 C   0  0  0  0  0  0  0  0  0  0  0  0
    0.4100    8.0255    0.2238 C   0  0  0  0  0  0  0  0  0  0  0  0
    1.5611    8.7889    0.4406 C   0  0  0  0  0  0  0  0  0  0  0  0
    2.4116    8.4487    1.5006 C   0  0  0  0  0  0  0  0  0  0  0  0
    2.1157    7.3569    2.3204 C   0  0  0  0  0  0  0  0  0  0  0  0
    1.0044    6.5544    2.0455 C   0  0  0  0  0  0  0  0  0  0  0  0
    1.8321    9.9893   -0.4250 C   0  0  0  0  0  0  0  0  0  0  0  0
    1.8097   11.1461    0.2870 F   0  0  0  0  0  0  0  0  0  0  0  0
    3.0440    9.9360   -1.0391 F   0  0  0  0  0  0  0  0  0  0  0  0
    0.9161   10.1430   -1.4229 F   0  0  0  0  0  0  0  0  0  0  0  0
  1  2  1  0
  1  7  1  0
  1 20  1  6
  2  3  1  0
  4  3  1  0
  4  5  1  1
  4  6  1  0
  4  8  1  0
  6  7  1  0
  8  9  2  0
  8 13  1  0
  9 10  1  0
 10 11  2  0
 11 12  1  0
 11 14  1  0
 12 13  2  0
 14 15  2  0
 14 19  1  0
 15 16  1  0
 16 17  2  0
 17 18  1  0
 18 19  2  0
 21 22  1  0
 21 25  1  0
 21 20  1  6
 22 23  1  0
 23 24  1  0
 24 25  1  0
 24 26  1  0
 26 27  2  0
 26 28  1  0
 28 29  1  0
 29 30  1  0
 30 31  2  0
 30 32  1  0
 32 33  2  0
 32 37  1  0
 33 34  1  0
 34 35  2  0
 34 38  1  0
 35 36  1  0
 36 37  2  0
 38 39  1  0
 38 40  1  0
 38 41  1  0
M  END
>  <DRUGBANK_ID>  (1) 
DB17200

>  <COMMON_NAME>  (1) 
PF-4136309

>  <CAS_NUMBER>  (1) 
1341224-83-6

>  <UNII>  (1) 
3M2595V4KT

>  <SYNONYMS>  (1) 
Benzamide, n-(2-((3s)-3-((trans-4-hydroxy-4-(5-(2-pyrimidinyl)- 2-pyridinyl)cyclohexyl)amino)-1-pyrrolidinyl)-2-oxoethyl)-3-(trifluoromethyl)-; N-(2-((3s)-3-((trans-4-hydroxy-4-(5-(pyrimidin-2-yl)pyridin-2- yl)cyclohexyl)amino)pyrrolidin-1-yl)-2-oxoethyl)-3-(trifluoromethyl)benzamide

$$$$
