
     RDKit          3D

 20 23  0  0  1  0  0  0  0  0999 V2000
    0.9628    1.9636   -0.5932 N   0  0  0  0  0  0  0  0  0  0  0  0
   -0.4319    2.1866    1.6583 N   0  0  0  0  0  0  0  0  0  0  0  0
   -0.5360    1.6861   -0.8240 C   0  0  0  0  0  0  0  0  0  0  0  0
   -1.0086    2.6390    0.2166 C   0  0  0  0  0  0  0  0  0  0  0  0
    1.2502    3.2579    0.5076 C   0  0  0  0  0  0  0  0  0  0  0  0
   -1.4778    0.5221   -0.3758 C   0  0  0  0  0  0  0  0  0  0  0  0
    0.7211    3.0280    1.9681 C   0  0  0  0  0  0  0  0  0  0  0  0
    1.8573    0.8737   -0.5694 C   0  0  0  0  0  0  0  0  0  0  0  0
   -1.1004   -0.7748   -0.4694 C   0  0  0  0  0  0  0  0  0  0  0  0
    0.1494   -1.0815   -1.2760 C   0  0  0  0  0  0  0  0  0  0  0  0
    1.5081   -0.5013   -0.8265 C   0  0  0  0  0  0  0  0  0  0  0  0
    0.2902    0.8538    1.9546 C   0  0  0  0  0  0  0  0  0  0  0  0
   -2.8076    0.8184    0.1688 C   0  0  0  0  0  0  0  0  0  0  0  0
    3.1096    1.1256    0.0466 C   0  0  0  0  0  0  0  0  0  0  0  0
   -1.9842   -1.7655    0.0839 C   0  0  0  0  0  0  0  0  0  0  0  0
    2.4508   -1.4974   -0.4687 C   0  0  0  0  0  0  0  0  0  0  0  0
   -3.6391   -0.1398    0.7472 C   0  0  0  0  0  0  0  0  0  0  0  0
   -3.2223   -1.4121    0.7026 C   0  0  0  0  0  0  0  0  0  0  0  0
    3.9626    0.1179    0.4654 C   0  0  0  0  0  0  0  0  0  0  0  0
    3.6494   -1.1932    0.1758 C   0  0  0  0  0  0  0  0  0  0  0  0
  1  3  1  0
  1  5  1  0
  1  8  1  0
  2  4  1  0
  2  7  1  0
  2 12  1  0
  3  4  1  0
  3  6  1  0
  5  7  1  0
  6  9  2  0
  6 13  1  0
  8 11  2  0
  8 14  1  0
  9 10  1  0
  9 15  1  0
 10 11  1  0
 11 16  1  0
 13 17  2  0
 14 19  2  0
 15 18  2  0
 16 20  2  0
 17 18  1  0
 19 20  1  0
M  END
>  <DRUGBANK_ID>  (1) 
DB06148

>  <COMMON_NAME>  (1) 
Mianserin

>  <CAS_NUMBER>  (1) 
24219-97-4

>  <UNII>  (1) 
250PJI13LM

>  <SYNONYMS>  (1) 
1,2,3,4,10,14b-Hexahydro-2-methyldibenzo(c,f)pyrazino(1,2-a)azepine; Mianserin; Mianserina; Mianserine; MiansÃ©rine; Mianserinum; Mianseryna

$$$$
