
     RDKit          3D

 11 11  0  0  0  0  0  0  0  0999 V2000
    1.0321    0.0274    0.0051 C   0  0  0  0  0  0  0  0  0  0  0  0
    0.6613    0.9427    1.1652 C   0  0  0  0  0  0  0  0  0  0  0  0
    1.1208    2.3195    0.9878 N   0  0  0  0  0  0  0  0  0  0  0  0
    2.0078    2.7533    0.0575 C   0  0  0  0  0  0  0  0  0  0  0  0
    2.6878    2.0937   -0.7132 O   0  0  0  0  0  0  0  0  0  0  0  0
    2.0464    4.2523    0.1299 C   0  0  0  0  0  0  0  0  0  0  0  0
    1.2094    4.5239    1.2552 O   0  0  0  0  0  0  0  0  0  0  0  0
    0.9410    3.3275    1.8654 C   0  0  0  0  0  0  0  0  0  0  0  0
    0.6364    3.2393    3.0485 O   0  0  0  0  0  0  0  0  0  0  0  0
    3.4395    4.7759    0.4212 C   0  0  0  0  0  0  0  0  0  0  0  0
    1.5303    4.8188   -1.1889 C   0  0  0  0  0  0  0  0  0  0  0  0
  1  2  1  0
  2  3  1  0
  3  4  1  0
  3  8  1  0
  4  5  2  0
  4  6  1  0
  6  7  1  0
  6 10  1  0
  6 11  1  0
  7  8  1  0
  8  9  2  0
M  END
>  <DRUGBANK_ID>  (1) 
DB13799

>  <COMMON_NAME>  (1) 
Ethadione

>  <CAS_NUMBER>  (1) 
520-77-4

>  <UNII>  (1) 
I0F8O700BB

$$$$
