VXX
     RDKit          3D

 13 13  0  0  0  0  0  0  0  0999 V2000
   -1.2373   -1.2265   -0.0013 C   0  0  0  0  0  0  0  0  0  0  0  0
   -1.8904    0.0174   -0.0114 C   0  0  0  0  0  0  0  0  0  0  0  0
    0.1669   -1.2554    0.0112 C   0  0  0  0  0  0  0  0  0  0  0  0
   -1.1619    1.2105    0.0008 C   0  0  0  0  0  0  0  0  0  0  0  0
    0.9050   -0.0591    0.0116 C   0  0  0  0  0  0  0  0  0  0  0  0
    2.2753    0.0338    0.0081 O   0  0  0  0  0  0  0  0  0  0  0  0
    0.2250    1.1652    0.0148 C   0  0  0  0  0  0  0  0  0  0  0  0
   -2.0813   -2.4649   -0.0050 C   0  0  0  0  0  0  0  0  0  0  0  0
    2.9827   -1.2021   -0.0244 C   0  0  0  0  0  0  0  0  0  0  0  0
   -3.3050   -2.4278   -0.0185 O   0  0  0  0  0  0  0  0  0  0  0  0
   -1.3394   -3.6044    0.0088 O   0  0  0  0  0  0  0  0  0  0  0  0
    0.8964    2.3584    0.0332 O   0  0  0  0  0  0  0  0  0  0  0  0
   -2.1168   -4.8138    0.0061 C   0  0  0  0  0  0  0  0  0  0  0  0
  1  2  2  0
  1  3  1  0
  1  8  1  0
  2  4  1  0
  3  5  2  0
  4  7  2  0
  5  6  1  0
  5  7  1  0
  6  9  1  0
  7 12  1  0
  8 10  2  0
  8 11  1  0
 11 13  1  0
M  END
>  <DRUGBANK_ID>  (1) 
DB08711

>  <COMMON_NAME>  (1) 
Methyl vanillate

>  <CAS_NUMBER>  (1) 
3943-74-6

>  <UNII>  (1) 
2HXG8QSO3D

>  <SYNONYMS>  (1) 
4-hydroxy-3-methoxy methyl benzoate; 4-hydroxy-3-methoxybenzoic acid methyl ester; Methyl 3-methoxy-4-hydroxybenzoate; Methyl 4-hydroxy-3-methoxybenzoate; Vanillic acid, methyl ester

$$$$
