1444
     RDKit          3D

 17 18  0  0  1  0  0  0  0  0999 V2000
   -1.0571    0.0445    0.0075 S   0  0  0  0  0  0  0  0  0  0  0  0
    1.3304    4.7375    1.2833 S   0  0  0  0  0  0  0  0  0  0  0  0
   -2.6064    4.9704   -1.2572 N   0  0  0  0  0  0  0  0  0  0  0  0
   -1.8319    4.6555   -0.0307 C   0  0  0  0  0  0  0  0  0  0  0  0
   -1.3988    3.1950    0.0281 C   0  0  0  0  0  0  0  0  0  0  0  0
   -0.1346    2.7186    0.0510 C   0  0  0  0  0  0  0  0  0  0  0  0
   -2.6168    4.9589    1.2566 C   0  0  0  0  0  0  0  0  0  0  0  0
   -2.9077    6.4116   -1.3089 C   0  0  0  0  0  0  0  0  0  0  0  0
   -1.8249    4.6377   -2.4613 C   0  0  0  0  0  0  0  0  0  0  0  0
    0.1471    1.2883    0.0372 C   0  0  0  0  0  0  0  0  0  0  0  0
    0.9573    3.6659   -0.0208 C   0  0  0  0  0  0  0  0  0  0  0  0
    1.4042    0.6891    0.0359 C   0  0  0  0  0  0  0  0  0  0  0  0
    1.8871    3.8109   -1.0384 C   0  0  0  0  0  0  0  0  0  0  0  0
    1.3825   -0.7310    0.0081 C   0  0  0  0  0  0  0  0  0  0  0  0
    2.8419    4.8339   -0.7857 C   0  0  0  0  0  0  0  0  0  0  0  0
    0.0984   -1.2134   -0.0036 C   0  0  0  0  0  0  0  0  0  0  0  0
    2.6081    5.4659    0.4127 C   0  0  0  0  0  0  0  0  0  0  0  0
  1 10  1  0
  1 16  1  0
  2 11  1  0
  2 17  1  0
  3  4  1  0
  3  8  1  0
  3  9  1  0
  4  5  1  0
  4  7  1  0
  5  6  2  3
  6 10  1  0
  6 11  1  0
 10 12  2  0
 11 13  2  0
 12 14  1  0
 13 15  1  0
 14 16  2  0
 15 17  2  0
M  END
>  <DRUGBANK_ID>  (1) 
DB01444

>  <COMMON_NAME>  (1) 
Dimethylthiambutene

>  <CAS_NUMBER>  (1) 
524-84-5

>  <UNII>  (1) 
915D88LM9O

>  <SYNONYMS>  (1) 
3-dimethylamino-1,1-bis(2-thienyl)-1-butene; 3-dimethylamino-1,1-di-(2'-thienyl)-1-butene; Dimethibutin; Dimethylthiambutene; Dimethylthiambutenum; Dimetiltiambutene; Dimetiltiambuteno; N,N-dimethyl-4,4-di(2-thienyl)-3-buten-2-amine; N,N,1-trimethyl-3,3-di-2-thienylallylamine; N,N,1-trimethyl-3,3-di(2-thienyl)-2-propenylamine; Ohton

$$$$
