
     RDKit          3D

 10 10  0  0  1  0  0  0  0  0999 V2000
    0.9624    0.0585   -0.1091 C   0  0  0  0  0  0  0  0  0  0  0  0
    0.4399    0.2841    1.3094 C   0  0  0  0  0  0  0  0  0  0  0  0
   -1.0674   -0.0110    1.3460 C   0  0  0  0  0  0  0  0  0  0  0  0
    0.7248    1.6440    1.7930 N   0  0  0  0  0  0  0  0  0  0  0  0
    1.1355    1.6312    3.2248 C   0  0  1  0  0  0  0  0  0  0  0  0
    1.0865    0.2200    3.8145 C   0  0  0  0  0  0  0  0  0  0  0  0
    1.2683   -0.8839    2.4139 S   0  0  0  0  0  0  0  0  0  0  0  0
    2.5607    2.1998    3.3919 C   0  0  0  0  0  0  0  0  0  0  0  0
    2.6591    3.2550    4.2406 O   0  0  0  0  0  0  0  0  0  0  0  0
    3.5649    1.7416    2.8570 O   0  0  0  0  0  0  0  0  0  0  0  0
  1  2  1  0
  2  3  1  0
  2  4  1  0
  2  7  1  0
  4  5  1  0
  5  6  1  0
  5  8  1  6
  6  7  1  0
  8  9  1  0
  8 10  2  0
M  END
>  <DRUGBANK_ID>  (1) 
DB01635

>  <SECONDARY_ACCESSION_NUMBERS>  (1) 
EXPT00133

>  <COMMON_NAME>  (1) 
2,2-Dimethylthiazolidine-4-Carboxylic Acid;(Dmt)Thiazolidine

$$$$
