
     RDKit          3D

 27 29  0  0  1  0  0  0  0  0999 V2000
    4.0154   -7.6259   -2.8860 N   0  0  0  0  0  0  0  0  0  0  0  0
    4.9960   -6.7221   -3.1513 C   0  0  0  0  0  0  0  0  0  0  0  0
    5.1027   -6.2457   -4.2768 O   0  0  0  0  0  0  0  0  0  0  0  0
    5.8230   -6.3458   -2.1219 N   0  0  0  0  0  0  0  0  0  0  0  0
    5.6552   -6.7765   -0.8136 C   0  0  0  0  0  0  0  0  0  0  0  0
    5.4891   -5.9151    0.2710 C   0  0  0  0  0  0  0  0  0  0  0  0
    4.1726   -6.7721    1.0771 S   0  0  0  0  0  0  0  0  0  0  0  0
    5.0939   -8.2564    0.9285 C   0  0  0  0  0  0  0  0  0  0  0  0
    5.4989   -8.1702   -0.3942 C   0  0  0  0  0  0  0  0  0  0  0  0
    4.9788   -9.3678    1.8405 C   0  0  0  0  0  0  0  0  0  0  0  0
    4.8183  -10.2571    2.6657 C   0  0  0  0  0  0  0  0  0  0  0  0
    4.5503  -11.3613    3.5672 C   0  0  0  0  0  0  0  0  0  0  0  0
    4.7991  -12.6710    3.1305 C   0  0  0  0  0  0  0  0  0  0  0  0
    4.4922  -13.7819    3.9324 C   0  0  0  0  0  0  0  0  0  0  0  0
    3.8053  -13.6056    5.1282 C   0  0  0  0  0  0  0  0  0  0  0  0
    3.5674  -12.3125    5.5764 C   0  0  0  0  0  0  0  0  0  0  0  0
    2.8991  -12.1429    6.7270 F   0  0  0  0  0  0  0  0  0  0  0  0
    3.9977  -11.1936    4.8464 C   0  0  0  0  0  0  0  0  0  0  0  0
    5.7213   -4.4854    0.4873 C   0  0  0  0  0  0  0  0  0  0  0  0
    5.9777   -3.7075   -0.4374 O   0  0  0  0  0  0  0  0  0  0  0  0
    5.7192   -3.9373    1.7683 N   0  0  0  0  0  0  0  0  0  0  0  0
    5.3304   -4.5142    3.0750 C   0  0  1  0  0  0  0  0  0  0  0  0
    5.9773   -5.8698    3.3777 C   0  0  0  0  0  0  0  0  0  0  0  0
    5.6168   -6.4385    4.7236 C   0  0  0  0  0  0  0  0  0  0  0  0
    6.0316   -5.4683    5.7847 C   0  0  0  0  0  0  0  0  0  0  0  0
    5.3719   -4.1780    5.5592 N   0  0  0  0  0  0  0  0  0  0  0  0
    5.7354   -3.5971    4.2525 C   0  0  0  0  0  0  0  0  0  0  0  0
  1  2  1  0
  2  3  2  0
  2  4  1  0
  4  5  1  0
  5  6  2  0
  5  9  1  0
  6  7  1  0
  6 19  1  0
  7  8  1  0
  8  9  2  0
  8 10  1  0
 10 11  3  0
 11 12  1  0
 12 13  2  0
 12 18  1  0
 13 14  1  0
 14 15  2  0
 15 16  1  0
 16 17  1  0
 16 18  2  0
 19 20  2  0
 19 21  1  0
 22 23  1  0
 22 27  1  0
 22 21  1  6
 23 24  1  0
 24 25  1  0
 25 26  1  0
 26 27  1  0
M  END
>  <DRUGBANK_ID>  (1) 
DB17237

>  <COMMON_NAME>  (1) 
PHI-101

>  <CAS_NUMBER>  (1) 
2127107-15-5

>  <UNII>  (1) 
U2UY9TBQ8Z

>  <SYNONYMS>  (1) 
2-thiophenecarboxamide, 3-((aminocarbonyl)amino)-5-(2-(3-fluorophenyl)ethynyl)-n-(3s)-3-piperidinyl-; N-(2-(n-((3s)(3-piperidyl))carbamoyl)-5-(2-(3-fluorophenyl)ethynyl)(3-thienyl))aminamide; PHI101

$$$$
