
     RDKit          3D

 30 29  0  0  0  0  0  0  0  0999 V2000
    1.1601   -0.1434   -0.0523 C   0  0  0  0  0  0  0  0  0  0  0  0
    0.5693    0.5339   -1.2866 C   0  0  0  0  0  0  0  0  0  0  0  0
    1.0563   -0.1643   -2.5546 C   0  0  0  0  0  0  0  0  0  0  0  0
   -0.9708    0.5574   -1.2348 C   0  0  0  0  0  0  0  0  0  0  0  0
   -1.5443    1.3080   -0.0223 C   0  0  0  0  0  0  0  0  0  0  0  0
   -1.1237    2.7786    0.0492 C   0  0  0  0  0  0  0  0  0  0  0  0
   -1.5727    3.6059   -1.1683 C   0  0  0  0  0  0  0  0  0  0  0  0
   -3.0983    3.6496   -1.2861 C   0  0  0  0  0  0  0  0  0  0  0  0
   -0.9842    5.0305   -1.1276 C   0  0  0  0  0  0  0  0  0  0  0  0
    0.5526    5.0718   -1.1900 C   0  0  0  0  0  0  0  0  0  0  0  0
    1.1366    4.4258   -2.4452 C   0  0  0  0  0  0  0  0  0  0  0  0
    0.6664    5.0768   -3.7557 C   0  0  0  0  0  0  0  0  0  0  0  0
    1.1361    6.5265   -3.8524 C   0  0  0  0  0  0  0  0  0  0  0  0
    1.1476    4.2608   -4.9649 C   0  0  0  0  0  0  0  0  0  0  0  0
    0.5705    2.8384   -4.9996 C   0  0  0  0  0  0  0  0  0  0  0  0
   -0.9629    2.7727   -4.9992 C   0  0  0  0  0  0  0  0  0  0  0  0
   -1.5929    3.4441   -6.2154 C   0  0  0  0  0  0  0  0  0  0  0  0
   -1.1389    2.8090   -7.5392 C   0  0  0  0  0  0  0  0  0  0  0  0
   -1.5765    1.3452   -7.6286 C   0  0  0  0  0  0  0  0  0  0  0  0
   -1.6432    3.6242   -8.7427 C   0  0  0  0  0  0  0  0  0  0  0  0
   -1.0848    5.0580   -8.7885 C   0  0  0  0  0  0  0  0  0  0  0  0
    0.4422    5.1312   -8.8416 C   0  0  0  0  0  0  0  0  0  0  0  0
    1.0679    4.4200  -10.0526 C   0  0  0  0  0  0  0  0  0  0  0  0
    0.6175    5.0802  -11.3546 C   0  0  0  0  0  0  0  0  0  0  0  0
    2.6041    4.4009   -9.9368 C   0  0  0  0  0  0  0  0  0  0  0  0
    3.1174    3.5931   -8.7306 C   0  0  0  0  0  0  0  0  0  0  0  0
    2.6849    2.1191   -8.7360 C   0  0  0  0  0  0  0  0  0  0  0  0
    3.1493    1.3473   -9.9810 C   0  0  0  0  0  0  0  0  0  0  0  0
    4.6741    1.3214  -10.0609 C   0  0  0  0  0  0  0  0  0  0  0  0
    2.5833   -0.0712   -9.9768 C   0  0  0  0  0  0  0  0  0  0  0  0
  1  2  1  0
  2  3  1  0
  2  4  1  0
  4  5  1  0
  5  6  1  0
  6  7  1  0
  7  8  1  0
  7  9  1  0
  9 10  1  0
 10 11  1  0
 11 12  1  0
 12 13  1  0
 12 14  1  0
 14 15  1  0
 15 16  1  0
 16 17  1  0
 17 18  1  0
 18 19  1  0
 18 20  1  0
 20 21  1  0
 21 22  1  0
 22 23  1  0
 23 24  1  0
 23 25  1  0
 25 26  1  0
 26 27  1  0
 27 28  1  0
 28 29  1  0
 28 30  1  0
M  END
>  <DRUGBANK_ID>  (1) 
DB11420

>  <COMMON_NAME>  (1) 
Squalane

>  <CAS_NUMBER>  (1) 
111-01-3

>  <UNII>  (1) 
GW89575KF9

>  <SYNONYMS>  (1) 
Hexamethyltetracosane

$$$$
