
     RDKit          3D

 27 28  0  0  0  0  0  0  0  0999 V2000
    1.0030   -0.0022    0.1199 C   0  0  0  0  0  0  0  0  0  0  0  0
    0.4930   -0.0186    1.5775 C   0  0  0  0  0  0  0  0  0  0  0  0
    1.1604    4.8912   -0.5410 C   0  0  0  0  0  0  0  0  0  0  0  0
    0.5421    8.2453   -2.0479 C   0  0  0  0  0  0  0  0  0  0  0  0
    0.5986    1.2196   -0.6855 C   0  0  0  0  0  0  0  0  0  0  0  0
    2.1406    5.4954   -1.5791 C   0  0  1  0  0  0  0  0  0  0  0  0
    0.2045    6.8638   -2.5761 C   0  0  2  0  0  0  0  0  0  0  0  0
    0.9158    1.1508    2.4366 C   0  0  0  0  0  0  0  0  0  0  0  0
   -0.5912    2.0274   -2.4814 C   0  0  0  0  0  0  0  0  0  0  0  0
    1.4021    5.8887   -2.8709 C   0  0  1  0  0  0  0  0  0  0  0  0
   -0.2987    3.4384   -2.0451 C   0  0  0  0  0  0  0  0  0  0  0  0
   -1.3910    1.9307   -3.7450 C   0  0  0  0  0  0  0  0  0  0  0  0
    1.0667    2.4496   -0.3676 C   0  0  0  0  0  0  0  0  0  0  0  0
   -1.4111    4.1701   -3.9783 C   0  0  0  0  0  0  0  0  0  0  0  0
   -0.2078    0.9862   -1.7948 N   0  0  0  0  0  0  0  0  0  0  0  0
   -0.8700    4.3782   -2.7181 N   0  0  0  0  0  0  0  0  0  0  0  0
   -1.7583    2.9336   -4.4351 N   0  0  0  0  0  0  0  0  0  0  0  0
    0.5976    3.5951   -0.9761 N   0  0  0  0  0  0  0  0  0  0  0  0
    1.4113    8.9461   -2.9207 O   0  0  0  0  0  0  0  0  0  0  0  0
    2.8378    6.6472   -1.0815 O   0  0  0  0  0  0  0  0  0  0  0  0
   -0.5726    7.1266   -3.7356 O   0  0  0  0  0  0  0  0  0  0  0  0
    0.2006    2.0391    2.8658 O   0  0  0  0  0  0  0  0  0  0  0  0
    2.2657    1.2267    2.5611 O   0  0  0  0  0  0  0  0  0  0  0  0
    2.2456    6.3997   -3.9058 O   0  0  0  0  0  0  0  0  0  0  0  0
   -1.7652    0.7400   -4.1724 O   0  0  0  0  0  0  0  0  0  0  0  0
    2.0605    2.6641    0.5540 O   0  0  0  0  0  0  0  0  0  0  0  0
   -1.5445    5.0914   -4.7561 O   0  0  0  0  0  0  0  0  0  0  0  0
  2  1  1  0
  5  1  1  0
  6  3  1  0
  6 20  1  1
  7  4  1  0
  7 21  1  6
  8  2  1  0
 10  6  1  0
 10  7  1  0
 10 24  1  6
 11  9  1  0
 12  9  1  0
 13  5  2  0
 15  5  1  0
 15  9  2  0
 16 11  2  0
 16 14  1  0
 17 12  2  0
 17 14  1  0
 18  3  1  0
 18 11  1  0
 18 13  1  0
 19  4  1  0
 22  8  2  0
 23  8  1  0
 25 12  1  0
 26 13  1  0
 27 14  2  0
M  END
>  <DRUGBANK_ID>  (1) 
DB04262

>  <SECONDARY_ACCESSION_NUMBERS>  (1) 
EXPT02791

>  <COMMON_NAME>  (1) 
3-(7-hydroxy-8-ribityllumazine-6-yl) propionic acid

$$$$
