FR9
     RDKit          3D

 33 36  0  0  0  0  0  0  0  0999 V2000
   -1.0774    0.0551   -0.3400 C   0  0  0  0  0  0  0  0  0  0  0  0
   -0.2501   -1.0322   -0.2056 N   0  0  0  0  0  0  0  0  0  0  0  0
    0.9954   -0.5302    0.0099 C   0  0  0  0  0  0  0  0  0  0  0  0
    1.0003    0.7767    0.0446 N   0  0  0  0  0  0  0  0  0  0  0  0
   -0.3115    1.1779   -0.1122 C   0  0  0  0  0  0  0  0  0  0  0  0
   -0.7396    2.5818   -0.0510 C   0  0  0  0  0  0  0  0  0  0  0  0
    0.0482    3.5148    0.0338 O   0  0  0  0  0  0  0  0  0  0  0  0
   -2.0861    2.8502   -0.0937 N   0  0  0  0  0  0  0  0  0  0  0  0
   -0.5720   -2.4652   -0.1578 C   0  0  1  0  0  0  0  0  0  0  0  0
   -0.1355   -3.2199   -1.3564 C   0  0  0  0  0  0  0  0  0  0  0  0
    1.2741   -3.2340   -1.3756 O   0  0  0  0  0  0  0  0  0  0  0  0
    0.0009   -3.1797    1.1283 C   0  0  0  0  0  0  0  0  0  0  0  0
   -0.5470   -2.4385    2.3031 C   0  0  0  0  0  0  0  0  0  0  0  0
   -1.9467   -2.2067    1.7922 N   0  0  0  0  0  0  0  0  0  0  0  0
   -2.8949   -3.2784    1.4380 C   0  0  0  0  0  0  0  0  0  0  0  0
   -4.1662   -2.4893    1.1273 C   0  0  0  0  0  0  0  0  0  0  0  0
   -3.8394   -0.7340    1.0988 C   0  0  0  0  0  0  0  0  0  0  0  0
   -2.5305   -0.8259    1.6345 C   0  0  0  0  0  0  0  0  0  0  0  0
   -4.1834    1.0353    1.2907 C   0  0  0  0  0  0  0  0  0  0  0  0
   -3.5639    1.8408    2.3178 C   0  0  0  0  0  0  0  0  0  0  0  0
   -3.5841    0.9455    3.1016 C   0  0  0  0  0  0  0  0  0  0  0  0
   -2.3621    0.2573    2.5510 C   0  0  0  0  0  0  0  0  0  0  0  0
   -5.2555    0.4545    3.2483 N   0  0  0  0  0  0  0  0  0  0  0  0
   -5.8200   -0.7700    3.1094 C   0  0  0  0  0  0  0  0  0  0  0  0
   -6.9112   -1.0284    2.5993 O   0  0  0  0  0  0  0  0  0  0  0  0
   -5.1139   -1.7705    3.6425 N   0  0  0  0  0  0  0  0  0  0  0  0
   -3.7147   -1.7389    3.7834 C   0  0  0  0  0  0  0  0  0  0  0  0
   -1.7759   -1.3861    5.1767 C   0  0  0  0  0  0  0  0  0  0  0  0
   -2.7662   -2.2956    4.6692 C   0  0  0  0  0  0  0  0  0  0  0  0
   -2.6551   -3.6496    4.6261 C   0  0  0  0  0  0  0  0  0  0  0  0
   -1.8049   -4.1428    5.5283 C   0  0  0  0  0  0  0  0  0  0  0  0
   -0.8974   -3.2851    6.1723 C   0  0  0  0  0  0  0  0  0  0  0  0
   -0.8030   -1.9154    5.9331 C   0  0  0  0  0  0  0  0  0  0  0  0
  1  2  1  0
  1  5  2  0
  2  3  1  0
  3  4  2  0
  4  5  1  0
  5  6  1  0
  6  7  2  0
  6  8  1  0
  9  2  1  0
  9 10  1  6
  9 12  1  0
 10 11  1  0
 12 13  1  0
 13 14  1  0
 14 15  1  0
 14 18  1  0
 15 16  2  0
 16 17  1  0
 17 18  2  0
 17 19  1  0
 18 22  1  0
 19 20  2  0
 20 21  1  0
 21 22  2  0
 21 23  1  0
 23 24  1  0
 24 25  2  0
 24 26  1  0
 26 27  1  0
 27 29  1  0
 28 29  2  0
 28 33  1  0
 29 30  1  0
 30 31  2  0
 31 32  1  0
 32 33  2  0
M  END
>  <DRUGBANK_ID>  (1) 
DB02830

>  <SECONDARY_ACCESSION_NUMBERS>  (1) 
EXPT01487

>  <COMMON_NAME>  (1) 
FR236913

$$$$
