
     RDKit          3D

 28 30  0  0  1  0  0  0  0  0999 V2000
   -1.2366    1.3768    0.5135 N   0  0  0  0  0  0  0  0  0  0  0  0
   -2.4967    0.7921    0.4063 C   0  0  0  0  0  0  0  0  0  0  0  0
   -2.6903   -0.5342    0.2147 C   0  0  0  0  0  0  0  0  0  0  0  0
   -1.4449   -1.3932   -0.0837 C   0  0  2  0  0  0  0  0  0  0  0  0
   -0.0113   -0.7287    0.1998 C   0  0  0  0  0  0  0  0  0  0  0  0
    1.2797   -1.3336    0.1677 C   0  0  0  0  0  0  0  0  0  0  0  0
    2.4284   -0.6148    0.0605 N   0  0  0  0  0  0  0  0  0  0  0  0
    2.3661    0.7259    0.0459 C   0  0  0  0  0  0  0  0  0  0  0  0
    1.1886    1.4327    0.1983 C   0  0  0  0  0  0  0  0  0  0  0  0
   -0.0071    0.6873    0.3404 C   0  0  0  0  0  0  0  0  0  0  0  0
   -3.9687   -1.3647    0.1130 C   0  0  0  0  0  0  0  0  0  0  0  0
   -3.9260   -2.5956    0.1123 O   0  0  0  0  0  0  0  0  0  0  0  0
   -5.2113   -0.8385    0.0360 N   0  0  0  0  0  0  0  0  0  0  0  0
    1.1874    2.9293    0.0601 C   0  0  0  0  0  0  0  0  0  0  0  0
   -3.5830    1.7874    0.1653 C   0  0  0  0  0  0  0  0  0  0  0  0
    1.6332   -2.6459    0.3738 O   0  0  0  0  0  0  0  0  0  0  0  0
    0.5745   -3.5608    0.3469 C   0  0  0  0  0  0  0  0  0  0  0  0
   -0.3058   -3.4389    1.5985 C   0  0  0  0  0  0  0  0  0  0  0  0
   -1.5584   -2.2240   -1.4377 C   0  0  0  0  0  0  0  0  0  0  0  0
   -1.4178   -1.7255   -2.7465 C   0  0  0  0  0  0  0  0  0  0  0  0
   -1.3408   -2.6278   -3.8126 C   0  0  0  0  0  0  0  0  0  0  0  0
   -1.2971   -4.0108   -3.6380 C   0  0  0  0  0  0  0  0  0  0  0  0
   -1.4147   -4.5399   -2.3737 C   0  0  0  0  0  0  0  0  0  0  0  0
   -1.7009   -3.6660   -1.3296 C   0  0  0  0  0  0  0  0  0  0  0  0
   -1.3432   -0.4467   -3.2583 O   0  0  0  0  0  0  0  0  0  0  0  0
   -1.3612    0.5342   -2.2814 C   0  0  0  0  0  0  0  0  0  0  0  0
   -1.2267   -4.8798   -4.7519 C   0  0  0  0  0  0  0  0  0  0  0  0
   -1.2286   -5.6252   -5.6609 N   0  0  0  0  0  0  0  0  0  0  0  0
  1  2  1  0
  1 10  1  0
  2  3  2  0
  2 15  1  0
  3  4  1  0
  3 11  1  0
  4  5  1  0
  4 19  1  6
  5  6  1  0
  5 10  2  0
  6  7  2  0
  6 16  1  0
  7  8  1  0
  8  9  2  0
  9 10  1  0
  9 14  1  0
 11 12  2  0
 11 13  1  0
 16 17  1  0
 17 18  1  0
 19 20  2  0
 19 24  1  0
 20 21  1  0
 20 25  1  0
 21 22  2  0
 22 23  1  0
 22 27  1  0
 23 24  2  0
 25 26  1  0
 27 28  3  0
M  END
>  <DRUGBANK_ID>  (1) 
DB16165

>  <COMMON_NAME>  (1) 
Finerenone

>  <CAS_NUMBER>  (1) 
1050477-31-0

>  <UNII>  (1) 
DE2O63YV8R

>  <SYNONYMS>  (1) 
Finerenone

$$$$
