
     RDKit          3D

  7  6  0  0  0  0  0  0  0  0999 V2000
    0.9162    0.0479    0.0267 C   0  0  0  0  0  0  0  0  0  0  0  0
    0.5142    0.2906    1.4899 C   0  0  0  0  0  0  0  0  0  0  0  0
    0.8927    1.5826    1.9653 O   0  0  0  0  0  0  0  0  0  0  0  0
    2.2887    1.7570    2.1195 N   0  0  0  0  0  0  0  0  0  0  0  0
    3.0160    0.7970    1.8804 O   0  0  0  0  0  0  0  0  0  0  0  0
    2.5813    2.8953    2.4882 O   0  0  0  0  0  0  0  0  0  0  0  0
    0.4301    1.1064   -0.8592 N   0  0  0  0  0  0  0  0  0  0  0  0
  1  2  1  0
  1  7  1  0
  2  3  1  0
  3  4  1  0
  4  5  2  0
  4  6  1  0
M  CHG  2   4   1   6  -1
M  END
>  <DRUGBANK_ID>  (1) 
DB13585

>  <COMMON_NAME>  (1) 
Aminoethyl nitrate

>  <CAS_NUMBER>  (1) 
646-02-6

>  <UNII>  (1) 
S1IA7R2J48

>  <SYNONYMS>  (1) 
2-aminoethyl nitrate; Aminoethyl nitrate; Itramin

$$$$
