
     RDKit          3D

 25 25  0  0  1  0  0  0  0  0999 V2000
   -4.9235    9.3548   -0.0618 C   0  0  0  0  0  0  0  0  0  0  0  0
   -4.3628    7.9616   -0.1176 C   0  0  0  0  0  0  0  0  0  0  0  0
   -5.2879    6.9713   -0.1787 N   0  0  0  0  0  0  0  0  0  0  0  0
   -4.8220    5.7102   -0.2469 C   0  0  0  0  0  0  0  0  0  0  0  0
   -3.4656    5.3569   -0.2937 C   0  0  0  0  0  0  0  0  0  0  0  0
   -3.1591    3.8587   -0.0940 C   0  0  0  0  0  0  0  0  0  0  0  0
   -3.6206    3.2754    1.1856 O   0  0  0  0  0  0  0  0  0  0  0  0
   -3.0453    4.1055    2.5901 P   0  0  0  0  0  0  0  0  0  0  0  0
   -2.1997    5.0415    1.7263 O   0  0  0  0  0  0  0  0  0  0  0  0
   -4.4716    4.8948    2.5605 O   0  0  0  0  0  0  0  0  0  0  0  0
   -2.5303    4.8484    3.8472 O   0  0  0  0  0  0  0  0  0  0  0  0
   -2.4697    6.4169   -0.2625 C   0  0  0  0  0  0  0  0  0  0  0  0
   -0.9200    6.1564   -0.2372 C   0  0  0  0  0  0  0  0  0  0  0  0
   -0.3098    5.7269    1.0280 N   0  0  0  0  0  0  0  0  0  0  0  0
    1.0142    5.1662    1.2006 C   0  0  2  0  0  0  0  0  0  0  0  0
    0.9749    3.5967    1.3140 C   0  0  0  0  0  0  0  0  0  0  0  0
    1.4792    2.9831    2.6343 C   0  0  0  0  0  0  0  0  0  0  0  0
    0.4532    3.1567    3.7322 C   0  0  0  0  0  0  0  0  0  0  0  0
    0.2569    2.1149    4.5579 O   0  0  0  0  0  0  0  0  0  0  0  0
   -0.2531    4.1243    3.8035 O   0  0  0  0  0  0  0  0  0  0  0  0
    1.7019    5.9230    2.4009 C   0  0  0  0  0  0  0  0  0  0  0  0
    2.6548    6.7926    2.0130 O   0  0  0  0  0  0  0  0  0  0  0  0
    1.4571    5.8223    3.5904 O   0  0  0  0  0  0  0  0  0  0  0  0
   -2.9739    7.7309   -0.1538 C   0  0  0  0  0  0  0  0  0  0  0  0
   -2.1690    8.8386   -0.1043 O   0  0  0  0  0  0  0  0  0  0  0  0
  1  2  1  0
  2  3  2  0
  2 24  1  0
  3  4  1  0
  4  5  2  0
  5  6  1  0
  5 12  1  0
  6  7  1  0
  7  8  1  0
  8  9  1  0
  8 10  1  0
  8 11  2  0
 12 13  1  0
 12 24  2  0
 13 14  1  0
 15 21  1  0
 15 16  1  1
 15 14  1  0
 16 17  1  0
 17 18  1  0
 18 19  1  0
 18 20  2  0
 21 22  1  0
 21 23  2  0
 24 25  1  0
M  END
>  <DRUGBANK_ID>  (1) 
DB04762

>  <COMMON_NAME>  (1) 
N-PYRIDOXYL-D-GLUTAMIC ACID-5'-MONOPHOSPHATE

$$$$
