
     RDKit          3D

 20 23  0  0  1  0  0  0  0  0999 V2000
   -9.4871   -5.2326    3.7015 C   0  0  0  0  0  0  0  0  0  0  0  0
   -9.2960   -6.3674    2.1941 C   0  0  1  0  0  0  0  0  0  0  0  0
   -9.1711   -5.6365    0.8637 C   0  0  0  0  0  0  0  0  0  0  0  0
   -8.4461   -4.4206    1.1402 C   0  0  0  0  0  0  0  0  0  0  0  0
   -7.1189   -4.9023    1.6801 C   0  0  2  0  0  0  0  0  0  0  0  0
   -7.0830   -5.9191    2.8349 C   0  0  1  0  0  0  0  0  0  0  0  0
   -8.5832   -7.0350    3.1821 C   0  0  1  0  0  0  0  0  0  0  0  0
  -10.5650   -7.0871    3.2408 C   0  0  0  0  0  0  0  0  0  0  0  0
  -11.2251   -7.4915    1.8486 C   0  0  0  0  0  0  0  0  0  0  0  0
   -9.8850   -7.9614    1.6694 C   0  0  2  0  0  0  0  0  0  0  0  0
   -9.9207   -9.2330    2.4106 O   0  0  0  0  0  0  0  0  0  0  0  0
   -5.4511   -6.0471    2.8148 C   0  0  0  0  0  0  0  0  0  0  0  0
   -4.6146   -4.4514    2.7968 C   0  0  0  0  0  0  0  0  0  0  0  0
   -5.0826   -2.9173    2.0849 C   0  0  0  0  0  0  0  0  0  0  0  0
   -5.8354   -1.6755    1.8220 C   0  0  0  0  0  0  0  0  0  0  0  0
   -7.4915   -1.2924    1.8904 C   0  0  2  0  0  0  0  0  0  0  0  0
   -7.9082   -2.1578    3.1614 C   0  0  0  0  0  0  0  0  0  0  0  0
   -6.7909   -3.0614    3.4280 C   0  0  0  0  0  0  0  0  0  0  0  0
   -6.3962   -3.6169    2.0128 C   0  0  2  0  0  0  0  0  0  0  0  0
   -7.5581   -1.4336    0.4236 O   0  0  0  0  0  0  0  0  0  0  0  0
  2  3  1  0
  2  7  1  0
  2 10  1  0
  2  1  1  1
  3  4  1  0
  5  4  1  1
  5  6  1  0
  5 19  1  0
  6  7  1  0
  6 12  1  6
  7  8  1  1
  8  9  1  0
  9 10  1  0
 10 11  1  1
 12 13  1  0
 13 14  1  0
 14 15  2  0
 14 19  1  0
 15 16  1  0
 16 17  1  0
 16 20  1  1
 17 18  1  0
 19 18  1  1
M  END
>  <DRUGBANK_ID>  (1) 
DB01554

>  <COMMON_NAME>  (1) 
Bolandiol

>  <CAS_NUMBER>  (1) 
19793-20-5

>  <UNII>  (1) 
49SD6G16U5

>  <SYNONYMS>  (1) 
19-nor-4-androstenediol; 3beta,17beta-dihydroxyestr-4-ene; 4-norendiol; Bolandiol

$$$$
