AEH
     RDKit          3D

 12 12  0  0  0  0  0  0  0  0999 V2000
    0.9869   -0.0786   -0.0691 C   0  0  0  0  0  0  0  0  0  0  0  0
   -1.3187   -3.0855    0.2854 C   0  0  0  0  0  0  0  0  0  0  0  0
    0.9407   -3.9037   -0.0519 C   0  0  0  0  0  0  0  0  0  0  0  0
    0.4852    0.6170   -1.3234 C   0  0  0  0  0  0  0  0  0  0  0  0
   -2.7873   -3.2973    0.5826 C   0  0  0  0  0  0  0  0  0  0  0  0
   -3.1318   -1.2493    2.0408 N   0  0  0  0  0  0  0  0  0  0  0  0
    2.7337   -2.3364   -0.3550 O   0  0  0  0  0  0  0  0  0  0  0  0
    1.4090   -2.5902   -0.1392 C   0  0  0  0  0  0  0  0  0  0  0  0
   -0.4196   -4.1481    0.1800 C   0  0  0  0  0  0  0  0  0  0  0  0
   -3.2500   -2.7075    1.9345 C   0  0  0  0  0  0  0  0  0  0  0  0
   -0.8306   -1.7840    0.1142 C   0  0  0  0  0  0  0  0  0  0  0  0
    0.5348   -1.5157   -0.0306 C   0  0  0  0  0  0  0  0  0  0  0  0
  1  4  1  0
  1 12  1  0
  2  5  1  0
  2  9  2  0
  2 11  1  0
  3  8  2  0
  3  9  1  0
  5 10  1  0
  6 10  1  0
  7  8  1  0
  8 12  1  0
 11 12  2  0
M  END
>  <DRUGBANK_ID>  (1) 
DB07346

>  <COMMON_NAME>  (1) 
4-(2-aminoethyl)-2-ethylphenol

$$$$
