
     RDKit          3D

 19 21  0  0  0  0  0  0  0  0999 V2000
    1.3639   -0.1820   -0.0121 C   0  0  0  0  0  0  0  0  0  0  0  0
    0.5325   -1.2875   -0.0856 C   0  0  0  0  0  0  0  0  0  0  0  0
    0.8026    1.0946   -0.0239 C   0  0  0  0  0  0  0  0  0  0  0  0
   -7.7574   -0.1215   -0.9192 C   0  0  0  0  0  0  0  0  0  0  0  0
   -7.0441    0.6954   -1.7746 C   0  0  0  0  0  0  0  0  0  0  0  0
   -0.8449   -1.1050   -0.2336 C   0  0  0  0  0  0  0  0  0  0  0  0
   -0.5946    1.2683   -0.0637 C   0  0  0  0  0  0  0  0  0  0  0  0
   -7.0306   -0.8474    0.0422 C   0  0  0  0  0  0  0  0  0  0  0  0
   -5.6655    0.5227   -1.8608 C   0  0  0  0  0  0  0  0  0  0  0  0
   -3.6588    0.6077    0.9300 C   0  0  0  0  0  0  0  0  0  0  0  0
   -1.4540    0.1683   -0.2013 C   0  0  0  0  0  0  0  0  0  0  0  0
   -5.5794   -0.6867    0.1218 C   0  0  0  0  0  0  0  0  0  0  0  0
   -4.6964   -0.3438    1.2130 C   0  0  0  0  0  0  0  0  0  0  0  0
   -4.9514   -0.3281   -1.0504 C   0  0  0  0  0  0  0  0  0  0  0  0
   -2.9326    0.2765   -0.2014 C   0  0  0  0  0  0  0  0  0  0  0  0
   -3.9195   -1.4871    1.8287 C   0  0  0  0  0  0  0  0  0  0  0  0
   -3.6171   -0.3076   -1.1948 N   0  0  0  0  0  0  0  0  0  0  0  0
   -2.7990   -1.8083    1.5914 O   0  0  0  0  0  0  0  0  0  0  0  0
   -4.4439   -2.0425    2.9265 O   0  0  0  0  0  0  0  0  0  0  0  0
  2  1  2  0
  3  1  1  0
  5  4  2  0
  6  2  1  0
  7  3  2  0
  8  4  1  0
  9  5  1  0
 11  6  2  0
 11  7  1  0
 12  8  2  0
 13 10  2  0
 13 12  1  0
 14  9  2  0
 14 12  1  0
 15 10  1  0
 15 11  1  0
 16 13  1  0
 17 14  1  0
 17 15  2  0
 18 16  2  0
 19 16  1  0
M  END
>  <DRUGBANK_ID>  (1) 
DB13551

>  <COMMON_NAME>  (1) 
Cinchophen

>  <CAS_NUMBER>  (1) 
132-60-5

>  <UNII>  (1) 
39Y533Z02M

>  <SYNONYMS>  (1) 
Cinchophen

$$$$
