FOK
     RDKit          3D

 29 31  0  0  0  0  0  0  0  0999 V2000
   -1.4659   -1.4646   -0.7741 C   0  0  1  0  0  0  0  0  0  0  0  0
   -1.4768   -2.8536   -0.4590 O   0  0  0  0  0  0  0  0  0  0  0  0
   -2.7629   -0.7891    0.1223 C   0  0  0  0  0  0  0  0  0  0  0  0
   -2.7560    0.8695   -0.0173 C   0  0  0  0  0  0  0  0  0  0  0  0
   -1.3140    1.8437    0.5927 C   0  0  0  0  0  0  0  0  0  0  0  0
    0.1233    1.2736   -0.4558 C   0  0  1  0  0  0  0  0  0  0  0  0
    1.4456    1.6090    0.3104 C   0  0  2  0  0  0  0  0  0  0  0  0
    1.7359    2.9990    0.3815 O   0  0  0  0  0  0  0  0  0  0  0  0
    2.5780    0.7594   -0.1898 C   0  0  2  0  0  0  0  0  0  0  0  0
    2.7916    1.2457   -1.6406 O   0  0  0  0  0  0  0  0  0  0  0  0
    2.6601   -1.0001    0.1331 C   0  0  1  0  0  0  0  0  0  0  0  0
    2.9825   -2.2967    1.2269 O   0  0  0  0  0  0  0  0  0  0  0  0
    1.2324   -1.5049   -0.0626 C   0  0  1  0  0  0  0  0  0  0  0  0
    0.8682   -1.8935    1.3673 O   0  0  0  0  0  0  0  0  0  0  0  0
    0.0318   -0.6227   -0.4948 C   0  0  2  0  0  0  0  0  0  0  0  0
    1.4142   -2.6469   -1.0819 C   0  0  0  0  0  0  0  0  0  0  0  0
    0.7911   -2.7222   -2.1311 O   0  0  0  0  0  0  0  0  0  0  0  0
    2.5767   -3.5638   -0.8229 C   0  0  0  0  0  0  0  0  0  0  0  0
    2.4439   -3.8293    0.6540 C   0  0  2  0  0  0  0  0  0  0  0  0
    0.9758   -4.4439    0.9222 C   0  0  0  0  0  0  0  0  0  0  0  0
    0.3702   -5.2416   -0.0022 C   0  0  0  0  0  0  0  0  0  0  0  0
    3.1099   -5.2466    1.0923 C   0  0  0  0  0  0  0  0  0  0  0  0
    4.0880   -0.9379   -0.4373 C   0  0  0  0  0  0  0  0  0  0  0  0
   -1.8546    3.2457    0.6926 C   0  0  0  0  0  0  0  0  0  0  0  0
   -0.7649    1.7736    2.1884 C   0  0  0  0  0  0  0  0  0  0  0  0
   -0.4722   -0.3421    0.7915 C   0  0  0  0  0  0  0  0  0  0  0  0
    2.2550    1.0896   -2.8952 C   0  0  0  0  0  0  0  0  0  0  0  0
    2.4248    1.8463   -3.7833 O   0  0  0  0  0  0  0  0  0  0  0  0
    1.5383   -0.2055   -3.0937 C   0  0  0  0  0  0  0  0  0  0  0  0
  1  3  1  0
  1 15  1  0
  1  2  1  1
  3  4  1  0
  4  5  1  0
  6  5  1  1
  5 24  1  0
  5 25  1  0
  6  7  1  0
  6 15  1  0
  7  9  1  0
  7  8  1  6
  9 11  1  0
  9 10  1  6
 10 27  1  0
 11 12  1  0
 11 13  1  0
 11 23  1  6
 12 19  1  0
 13 15  1  0
 13 16  1  0
 13 14  1  1
 15 26  1  6
 16 18  1  0
 16 17  2  0
 18 19  1  0
 19 22  1  1
 19 20  1  0
 20 21  2  0
 27 28  2  0
 27 29  1  0
M  END
>  <DRUGBANK_ID>  (1) 
DB02587

>  <SECONDARY_ACCESSION_NUMBERS>  (1) 
EXPT01467

>  <COMMON_NAME>  (1) 
Colforsin

>  <CAS_NUMBER>  (1) 
66575-29-9

>  <UNII>  (1) 
1F7A44V6OU

>  <SYNONYMS>  (1) 
7β-acetoxy-8,13-epoxy-1α,6β,9α-trihydroxylabd-14-en-11-one; Coleonolk; Colforsin; colforsina; colforsine; colforsinum; Forskolin

$$$$
