
     RDKit          3D

 35 36  0  0  0  0  0  0  0  0999 V2000
    7.4232   -1.9796    0.2728 O   0  0  0  0  0  0  0  0  0  0  0  0
    7.5975   -6.9086    2.2483 O   0  0  0  0  0  0  0  0  0  0  0  0
    2.5434   -4.9954    2.9674 O   0  0  0  0  0  0  0  0  0  0  0  0
    3.3222   -3.2147    4.0967 O   0  0  0  0  0  0  0  0  0  0  0  0
    4.8600   -2.8786    1.5678 N   0  0  0  0  0  0  0  0  0  0  0  0
    7.7557   -4.1408   -0.0338 N   0  0  0  0  0  0  0  0  0  0  0  0
    9.6271   -5.9677    1.9761 N   0  0  0  0  0  0  0  0  0  0  0  0
    9.4742   -8.8988   -0.5078 N   0  0  0  0  0  0  0  0  0  0  0  0
    9.9135  -11.0779   -0.1386 N   0  0  0  0  0  0  0  0  0  0  0  0
   11.7029   -9.6369   -0.2881 N   0  0  0  0  0  0  0  0  0  0  0  0
    5.4074   -3.3588    0.2961 C   0  0  1  0  0  0  0  0  0  0  0  0
    4.7672   -2.6604   -0.9311 C   0  0  0  0  0  0  0  0  0  0  0  0
    7.6443   -5.5474    0.2829 C   0  0  1  0  0  0  0  0  0  0  0  0
    8.0332   -6.4148   -0.9124 C   0  0  0  0  0  0  0  0  0  0  0  0
    6.9203   -3.1006    0.2416 C   0  0  0  0  0  0  0  0  0  0  0  0
    5.2327   -3.2158   -2.2778 C   0  0  0  0  0  0  0  0  0  0  0  0
    9.3922   -6.5813   -1.4543 C   0  0  0  0  0  0  0  0  0  0  0  0
    3.4098   -3.1378    1.6662 C   0  0  2  0  0  0  0  0  0  0  0  0
    8.2715   -6.0729    1.6171 C   0  0  0  0  0  0  0  0  0  0  0  0
    9.9907   -7.5907   -0.5890 C   0  0  0  0  0  0  0  0  0  0  0  0
    4.8623   -4.6723   -2.4344 C   0  0  0  0  0  0  0  0  0  0  0  0
    2.6667   -1.8228    1.4586 C   0  0  0  0  0  0  0  0  0  0  0  0
    3.0808   -3.7440    3.0429 C   0  0  0  0  0  0  0  0  0  0  0  0
    5.8812   -5.5582   -2.6639 C   0  0  0  0  0  0  0  0  0  0  0  0
    3.5960   -5.2235   -2.3414 C   0  0  0  0  0  0  0  0  0  0  0  0
   10.7308   -5.4165    1.2188 C   0  0  0  0  0  0  0  0  0  0  0  0
    5.7299   -6.9539   -2.5293 C   0  0  0  0  0  0  0  0  0  0  0  0
    3.4221   -6.6157   -2.1982 C   0  0  0  0  0  0  0  0  0  0  0  0
   10.3748   -9.8626   -0.3160 C   0  0  0  0  0  0  0  0  0  0  0  0
    4.5019   -7.4858   -2.2231 C   0  0  0  0  0  0  0  0  0  0  0  0
   10.6018   -4.1864    0.6129 C   0  0  0  0  0  0  0  0  0  0  0  0
   11.8603   -6.1909    0.8421 C   0  0  0  0  0  0  0  0  0  0  0  0
   11.3350   -3.8491   -0.5395 C   0  0  0  0  0  0  0  0  0  0  0  0
   12.6120   -5.8561   -0.3248 C   0  0  0  0  0  0  0  0  0  0  0  0
   12.3117   -4.7028   -1.0427 C   0  0  0  0  0  0  0  0  0  0  0  0
  1 15  2  0
  2 19  2  0
  3 23  1  0
  4 23  2  0
  6 15  1  0
  7 19  1  0
  7 26  1  0
  8 20  1  0
  8 29  2  3
  9 29  1  0
 10 29  1  0
 11  5  1  0
 11 12  1  6
 11 15  1  0
 12 16  1  0
 13  6  1  0
 13 14  1  6
 13 19  1  0
 14 17  1  0
 16 21  1  0
 17 20  1  0
 18 23  1  0
 18 22  1  1
 18  5  1  0
 21 24  2  0
 21 25  1  0
 24 27  1  0
 25 28  2  0
 26 31  2  0
 26 32  1  0
 27 30  2  0
 28 30  1  0
 31 33  1  0
 32 34  2  0
 33 35  2  0
 34 35  1  0
M  CHG  1   8   1
M  END
>  <DRUGBANK_ID>  (1) 
DB02747

>  <SECONDARY_ACCESSION_NUMBERS>  (1) 
EXPT01886

>  <COMMON_NAME>  (1) 
Diamino-N-[(4S)-5-anilino-4-{[(2S)-2-{[(1R)-1-carboxyethyl]amino}-4-phenylbutanoyl]amino}-5-oxopentyl]methaniminium

$$$$
