
     RDKit          3D

 17 17  0  0  0  0  0  0  0  0999 V2000
    0.9307    2.7922    0.5808 C   0  0  0  0  0  0  0  0  0  0  0  0
    0.4869    1.4052    0.1110 C   0  0  2  0  0  0  0  0  0  0  0  0
   -0.2126    1.3545   -1.2455 C   0  0  2  0  0  0  0  0  0  0  0  0
   -0.3045   -0.1109   -1.7264 C   0  0  1  0  0  0  0  0  0  0  0  0
   -0.8234   -1.0637   -0.6115 C   0  0  2  0  0  0  0  0  0  0  0  0
    1.4149   -1.3232    0.7310 C   0  0  1  0  0  0  0  0  0  0  0  0
   -0.1215   -0.8052    0.7729 C   0  0  2  0  0  0  0  0  0  0  0  0
    2.1812   -0.9826   -0.4624 N   0  0  0  0  0  0  0  0  0  0  0  0
   -0.6744   -0.8878    4.0352 N   0  0  0  0  0  0  0  0  0  0  0  0
   -0.8247   -1.6424    1.7788 N   0  0  0  0  0  0  0  0  0  0  0  0
   -0.7406   -1.2457    2.9622 N   0  0  0  0  0  0  0  0  0  0  0  0
    2.3574    2.8977    0.3775 O   0  0  0  0  0  0  0  0  0  0  0  0
    0.5451    2.1355   -2.1763 O   0  0  0  0  0  0  0  0  0  0  0  0
   -1.0749   -0.2334   -2.9279 O   0  0  0  0  0  0  0  0  0  0  0  0
   -0.7312   -2.4378   -1.0292 O   0  0  0  0  0  0  0  0  0  0  0  0
    2.1298   -0.7982    1.8356 O   0  0  0  0  0  0  0  0  0  0  0  0
   -0.1966    0.6201    1.0797 O   0  0  0  0  0  0  0  0  0  0  0  0
  2 17  1  0
  2  1  1  1
  3  2  1  0
  3  4  1  0
  3 13  1  6
  4  5  1  0
  4 14  1  6
  5  7  1  0
  5 15  1  6
  7 17  1  0
  7 10  1  1
  7  6  1  0
  6  8  1  6
 11  9  2  0
 11 10  2  0
 12  1  1  0
 16  6  1  0
M  CHG  2   9  -1  11   1
M  END
>  <DRUGBANK_ID>  (1) 
DB03286

>  <SECONDARY_ACCESSION_NUMBERS>  (1) 
EXPT00899

>  <COMMON_NAME>  (1) 
C-(1-Azido-Alpha-D-Glucopyranosyl) Formamide

$$$$
