
     RDKit          3D

 17 18  0  0  0  0  0  0  0  0999 V2000
    2.3639   -0.0329   -0.1633 N   0  0  0  0  0  0  0  0  0  0  0  0
    0.9902   -0.0353    0.0515 C   0  0  0  0  0  0  0  0  0  0  0  0
    0.3022    1.1697    0.1109 C   0  0  0  0  0  0  0  0  0  0  0  0
   -1.0831    1.1816    0.2529 C   0  0  0  0  0  0  0  0  0  0  0  0
   -1.8367    0.0037    0.1397 C   0  0  0  0  0  0  0  0  0  0  0  0
   -1.1521   -1.2101    0.0394 C   0  0  0  0  0  0  0  0  0  0  0  0
    0.2517   -1.2236    0.0117 C   0  0  0  0  0  0  0  0  0  0  0  0
   -3.3402    0.0168    0.1014 C   0  0  0  0  0  0  0  0  0  0  0  0
   -3.9701   -1.0367    0.2395 O   0  0  0  0  0  0  0  0  0  0  0  0
   -4.0230    1.2133   -0.0071 N   0  0  0  0  0  0  0  0  0  0  0  0
   -3.7608    2.2703   -0.9158 C   0  0  0  0  0  0  0  0  0  0  0  0
   -2.7722    2.1231   -1.9041 C   0  0  0  0  0  0  0  0  0  0  0  0
   -2.3226    3.2028   -2.6470 C   0  0  0  0  0  0  0  0  0  0  0  0
   -2.9792    4.4139   -2.5315 C   0  0  0  0  0  0  0  0  0  0  0  0
   -4.0629    4.5409   -1.6525 C   0  0  0  0  0  0  0  0  0  0  0  0
   -4.4808    3.4777   -0.8320 C   0  0  0  0  0  0  0  0  0  0  0  0
   -5.4133    3.7411    0.1810 N   0  0  0  0  0  0  0  0  0  0  0  0
  1  2  1  0
  2  3  2  0
  2  7  1  0
  3  4  1  0
  4  5  2  0
  5  6  1  0
  5  8  1  0
  6  7  2  0
  8  9  2  0
  8 10  1  0
 10 11  1  0
 11 12  2  0
 11 16  1  0
 12 13  1  0
 13 14  2  0
 14 15  1  0
 15 16  2  0
 16 17  1  0
M  END
>  <DRUGBANK_ID>  (1) 
DB16142

>  <COMMON_NAME>  (1) 
Acetyldinaline

>  <CAS_NUMBER>  (1) 
58338-59-3

>  <UNII>  (1) 
RG9G4Z82PY

>  <SYNONYMS>  (1) 
Dinalin; Dinaline

$$$$
