
     RDKit          3D

 20 22  0  0  1  0  0  0  0  0999 V2000
    0.9022    0.0412   -0.0653 C   0  0  0  0  0  0  0  0  0  0  0  0
   -3.8141    6.9030   -1.7957 C   0  0  0  0  0  0  0  0  0  0  0  0
   -1.9929    2.8681   -1.3958 C   0  0  0  0  0  0  0  0  0  0  0  0
   -2.6914    7.8845   -1.4043 C   0  0  2  0  0  0  0  0  0  0  0  0
   -0.7802    4.4664   -0.4550 C   0  0  0  0  0  0  0  0  0  0  0  0
   -0.2860    5.7004   -0.1663 C   0  0  0  0  0  0  0  0  0  0  0  0
   -0.0037    3.4917    0.2461 C   0  0  0  0  0  0  0  0  0  0  0  0
   -1.6537    8.1591   -2.4975 C   0  0  2  0  0  0  0  0  0  0  0  0
   -0.5536    7.1542   -2.1893 C   0  0  2  0  0  0  0  0  0  0  0  0
   -0.6192    7.0527   -0.6659 C   0  0  1  0  0  0  0  0  0  0  0  0
   -0.2960    2.1090    0.0730 C   0  0  0  0  0  0  0  0  0  0  0  0
    0.3193    1.0700    0.7761 N   0  0  0  0  0  0  0  0  0  0  0  0
   -1.7989    4.2001   -1.2944 N   0  0  0  0  0  0  0  0  0  0  0  0
   -1.3147    1.8408   -0.8033 N   0  0  0  0  0  0  0  0  0  0  0  0
    0.7492    5.4462    0.6930 N   0  0  0  0  0  0  0  0  0  0  0  0
    0.9397    4.1358    0.9745 N   0  0  0  0  0  0  0  0  0  0  0  0
   -3.4612    5.9928   -2.8318 O   0  0  0  0  0  0  0  0  0  0  0  0
   -1.1313    9.4960   -2.4099 O   0  0  0  0  0  0  0  0  0  0  0  0
    0.7382    7.5730   -2.6310 O   0  0  0  0  0  0  0  0  0  0  0  0
   -1.9595    7.3653   -0.2623 O   0  0  0  0  0  0  0  0  0  0  0  0
  4  2  1  6
  6  5  2  0
  7  5  1  0
  8  4  1  0
  8 18  1  1
  9  8  1  0
  9 19  1  1
 10  6  1  6
 10  9  1  0
 11  7  1  0
 12  1  1  0
 12 11  1  0
 13  3  2  0
 13  5  1  0
 14  3  1  0
 14 11  2  0
 15  6  1  0
 16  7  2  0
 16 15  1  0
 17  2  1  0
 20  4  1  0
 20 10  1  0
M  END
>  <DRUGBANK_ID>  (1) 
DB02066

>  <SECONDARY_ACCESSION_NUMBERS>  (1) 
EXPT01450

>  <COMMON_NAME>  (1) 
N7-Methyl-Formycin A

$$$$
