
     RDKit          3D

 28 32  0  0  0  0  0  0  0  0999 V2000
    2.0848    0.1386    0.4978 F   0  0  0  0  0  0  0  0  0  0  0  0
    0.7479    0.1242    0.4094 C   0  0  0  0  0  0  0  0  0  0  0  0
    0.0737    1.2990    0.1273 C   0  0  0  0  0  0  0  0  0  0  0  0
   -1.3137    1.2682    0.0201 C   0  0  0  0  0  0  0  0  0  0  0  0
   -1.9967    0.0430    0.0527 C   0  0  0  0  0  0  0  0  0  0  0  0
   -1.2996   -1.1603    0.2380 C   0  0  0  0  0  0  0  0  0  0  0  0
   -1.9638   -2.5122    0.0408 C   0  0  0  0  0  0  0  0  0  0  0  0
   -1.5771   -3.2980   -1.2497 C   0  0  0  0  0  0  0  0  0  0  0  0
   -0.1474   -3.5835   -1.4000 N   0  0  0  0  0  0  0  0  0  0  0  0
    0.3145   -4.8436   -1.1051 N   0  0  0  0  0  0  0  0  0  0  0  0
    1.5398   -5.1312   -1.2154 N   0  0  0  0  0  0  0  0  0  0  0  0
    2.4876   -4.0964   -1.3419 C   0  0  0  0  0  0  0  0  0  0  0  0
    3.8708   -4.3367   -1.2198 C   0  0  0  0  0  0  0  0  0  0  0  0
    4.7933   -3.2646   -1.2624 C   0  0  0  0  0  0  0  0  0  0  0  0
    4.3332   -1.9558   -1.4011 C   0  0  0  0  0  0  0  0  0  0  0  0
    5.1445   -0.8574   -1.4571 O   0  0  0  0  0  0  0  0  0  0  0  0
    6.4667   -1.1205   -1.0012 C   0  0  0  0  0  0  0  0  0  0  0  0
    6.9939   -2.3120   -1.6133 N   0  0  0  0  0  0  0  0  0  0  0  0
    7.9391   -2.2546   -2.7133 C   0  0  0  0  0  0  0  0  0  0  0  0
    9.3822   -1.8655   -2.5285 C   0  0  0  0  0  0  0  0  0  0  0  0
    8.4698   -0.9656   -3.3066 C   0  0  0  0  0  0  0  0  0  0  0  0
    6.2660   -3.4782   -1.3617 C   0  0  0  0  0  0  0  0  0  0  0  0
    6.7387   -4.6070   -1.3327 O   0  0  0  0  0  0  0  0  0  0  0  0
    2.9827   -1.7237   -1.5934 C   0  0  0  0  0  0  0  0  0  0  0  0
    2.0945   -2.7998   -1.6076 C   0  0  0  0  0  0  0  0  0  0  0  0
    0.6789   -2.5836   -1.8814 C   0  0  0  0  0  0  0  0  0  0  0  0
    0.3118   -1.5504   -2.4041 O   0  0  0  0  0  0  0  0  0  0  0  0
    0.0664   -1.0831    0.5384 C   0  0  0  0  0  0  0  0  0  0  0  0
  1  2  1  0
  2  3  2  0
  2 28  1  0
  3  4  1  0
  4  5  2  0
  5  6  1  0
  6  7  1  0
  6 28  2  0
  7  8  1  0
  8  9  1  0
  9 10  1  0
  9 26  1  0
 10 11  2  0
 11 12  1  0
 12 13  2  0
 12 25  1  0
 13 14  1  0
 14 15  2  0
 14 22  1  0
 15 16  1  0
 15 24  1  0
 16 17  1  0
 17 18  1  0
 18 19  1  0
 18 22  1  0
 19 20  1  0
 19 21  1  0
 20 21  1  0
 22 23  2  0
 24 25  2  0
 25 26  1  0
 26 27  2  0
M  END
>  <DRUGBANK_ID>  (1) 
DB16344

>  <COMMON_NAME>  (1) 
Tulrampator

>  <CAS_NUMBER>  (1) 
1038984-31-4

>  <UNII>  (1) 
7633T9D4LN

>  <SYNONYMS>  (1) 
Tulrampator

$$$$
