
     RDKit          3D

 23 23  0  0  0  0  0  0  0  0999 V2000
    0.9871   -0.2670    0.1646 S   0  0  0  0  0  0  0  0  0  0  0  0
    3.7848   -2.6464    6.4431 F   0  0  0  0  0  0  0  0  0  0  0  0
    5.5911   -1.8081    5.5523 F   0  0  0  0  0  0  0  0  0  0  0  0
    4.8503   -1.0547    7.4632 F   0  0  0  0  0  0  0  0  0  0  0  0
    1.3938    2.2108    7.9833 F   0  0  0  0  0  0  0  0  0  0  0  0
    2.8119    3.3885    6.8247 F   0  0  0  0  0  0  0  0  0  0  0  0
    0.7411    3.4622    6.3755 F   0  0  0  0  0  0  0  0  0  0  0  0
   -0.3652    3.7873    1.2918 O   0  0  0  0  0  0  0  0  0  0  0  0
    1.1811   -0.5858    2.7644 N   0  0  0  0  0  0  0  0  0  0  0  0
    0.8283    2.7316   -0.2648 N   0  0  0  0  0  0  0  0  0  0  0  0
   -0.0091    2.6040    4.5678 N   0  0  0  0  0  0  0  0  0  0  0  0
    0.5233    0.3819    1.8440 C   0  0  1  0  0  0  0  0  0  0  0  0
    1.8292   -0.2662    3.9493 C   0  0  0  0  0  0  0  0  0  0  0  0
    0.9179    1.8503    2.0566 C   0  0  1  0  0  0  0  0  0  0  0  0
    3.6185   -0.4942    5.5084 C   0  0  0  0  0  0  0  0  0  0  0  0
    2.0735    1.3044    5.8681 C   0  0  0  0  0  0  0  0  0  0  0  0
    1.2945    0.5120    4.9861 C   0  0  0  0  0  0  0  0  0  0  0  0
    3.0021   -0.8748    4.3009 C   0  0  0  0  0  0  0  0  0  0  0  0
    3.2660    0.6947    6.1699 C   0  0  0  0  0  0  0  0  0  0  0  0
    4.4676   -1.4859    6.2316 C   0  0  0  0  0  0  0  0  0  0  0  0
    1.7115    2.5687    6.7083 C   0  0  0  0  0  0  0  0  0  0  0  0
    0.3845    2.8408    1.0214 C   0  0  0  0  0  0  0  0  0  0  0  0
    0.4113    2.2623    3.4292 C   0  0  0  0  0  0  0  0  0  0  0  0
 12  1  1  6
  2 20  1  0
  3 20  1  0
  4 20  1  0
  5 21  1  0
  6 21  1  0
  7 21  1  0
  8 22  2  0
  9 13  1  0
 10 22  1  0
 11 23  3  0
 12  9  1  0
 12 14  1  0
 13 17  2  0
 13 18  1  0
 14 22  1  0
 14 23  1  1
 15 18  2  0
 15 19  1  0
 15 20  1  0
 16 17  1  0
 16 19  2  0
 16 21  1  0
M  END
>  <DRUGBANK_ID>  (1) 
DB06913

>  <COMMON_NAME>  (1) 
(3R)-3-[3,5-Bis(trifluoromethyl)anilino]-2-cyano-3-sulfanylpropanamide

$$$$
