
     RDKit          3D

 33 37  0  0  1  0  0  0  0  0999 V2000
    0.8086    0.0491    0.0014 C   0  0  0  0  0  0  0  0  0  0  0  0
    0.3534    0.3895   -1.4072 C   0  0  0  0  0  0  0  0  0  0  0  0
   -0.4752   -0.3385   -1.9712 O   0  0  0  0  0  0  0  0  0  0  0  0
    0.7665    1.5823   -1.9668 N   0  0  0  0  0  0  0  0  0  0  0  0
   -0.0571    2.3586   -2.9196 C   0  0  0  0  0  0  0  0  0  0  0  0
    0.8335    3.5055   -3.4691 C   0  0  0  0  0  0  0  0  0  0  0  0
    0.8350    3.4589   -4.8280 F   0  0  0  0  0  0  0  0  0  0  0  0
    0.2835    4.7029   -3.1239 F   0  0  0  0  0  0  0  0  0  0  0  0
    2.1725    3.2445   -2.8190 C   0  0  0  0  0  0  0  0  0  0  0  0
    3.4140    3.9012   -2.9719 C   0  0  0  0  0  0  0  0  0  0  0  0
    3.6687    5.2791   -4.0909 S   0  0  0  0  0  0  0  0  0  0  0  0
    5.3841    5.8461   -3.8630 C   0  0  0  0  0  0  0  0  0  0  0  0
    6.3900    5.0259   -4.2566 N   0  0  0  0  0  0  0  0  0  0  0  0
    7.6472    5.5483   -4.1374 C   0  0  0  0  0  0  0  0  0  0  0  0
    7.9509    6.8274   -3.6525 C   0  0  0  0  0  0  0  0  0  0  0  0
    6.9319    7.6231   -3.2450 N   0  0  0  0  0  0  0  0  0  0  0  0
    5.6562    7.1477   -3.3774 C   0  0  0  0  0  0  0  0  0  0  0  0
    4.6373    7.9854   -2.9483 N   0  0  0  0  0  0  0  0  0  0  0  0
    9.2614    7.2589   -3.5602 N   0  0  0  0  0  0  0  0  0  0  0  0
   10.1388    7.3533   -4.7197 C   0  0  0  0  0  0  0  0  0  0  0  0
   11.4247    6.5675   -4.4410 C   0  0  0  0  0  0  0  0  0  0  0  0
   12.1195    7.0351   -3.1369 C   0  0  0  0  0  0  0  0  0  0  0  0
   12.6937    8.4564   -3.2878 C   0  0  0  0  0  0  0  0  0  0  0  0
   13.9882    8.4487   -2.6795 O   0  0  0  0  0  0  0  0  0  0  0  0
   14.5402    7.1552   -2.9197 C   0  0  0  0  0  0  0  0  0  0  0  0
   13.3724    6.1684   -2.8482 C   0  0  1  0  0  0  0  0  0  0  0  0
   13.3270    5.5050   -1.5366 N   0  0  0  0  0  0  0  0  0  0  0  0
   11.0687    6.9900   -1.9892 C   0  0  0  0  0  0  0  0  0  0  0  0
    9.7851    7.7688   -2.3050 C   0  0  0  0  0  0  0  0  0  0  0  0
    4.4935    3.4104   -2.2170 C   0  0  0  0  0  0  0  0  0  0  0  0
    4.3769    2.2874   -1.4068 C   0  0  0  0  0  0  0  0  0  0  0  0
    3.1694    1.6273   -1.3161 C   0  0  0  0  0  0  0  0  0  0  0  0
    2.0615    2.1294   -1.9672 C   0  0  0  0  0  0  0  0  0  0  0  0
  1  2  1  0
  2  3  2  0
  2  4  1  0
  4  5  1  0
  4 33  1  0
  5  6  1  0
  6  7  1  0
  6  8  1  0
  6  9  1  0
  9 10  2  0
  9 33  1  0
 10 11  1  0
 10 30  1  0
 11 12  1  0
 12 13  2  0
 12 17  1  0
 13 14  1  0
 14 15  2  0
 15 16  1  0
 15 19  1  0
 16 17  2  0
 17 18  1  0
 19 20  1  0
 19 29  1  0
 20 21  1  0
 21 22  1  0
 22 23  1  0
 22 28  1  0
 23 24  1  0
 24 25  1  0
 26 22  1  0
 26 25  1  0
 26 27  1  1
 28 29  1  0
 30 31  2  0
 31 32  1  0
 32 33  2  0
M  END
>  <DRUGBANK_ID>  (1) 
DB17131

>  <COMMON_NAME>  (1) 
JAB-3068

>  <UNII>  (1) 
V6Q7413SA8

>  <SYNONYMS>  (1) 
JAB3068

$$$$
