
     RDKit          3D

 33 35  0  0  1  0  0  0  0  0999 V2000
    6.7120    5.3653    0.6274 C   0  0  0  0  0  0  0  0  0  0  0  0
    5.8794    5.0587   -0.9769 C   0  0  2  0  0  0  0  0  0  0  0  0
    5.5624    3.7604   -1.9314 N   0  0  0  0  0  0  0  0  0  0  0  0
    4.5175    2.7741   -1.8245 C   0  0  0  0  0  0  0  0  0  0  0  0
    4.7263    1.5627   -1.9950 O   0  0  0  0  0  0  0  0  0  0  0  0
    3.1689    3.1519   -1.3222 C   0  0  2  0  0  0  0  0  0  0  0  0
    2.2750    3.6491   -2.4613 C   0  0  0  0  0  0  0  0  0  0  0  0
    1.1791    4.4712   -1.8468 C   0  0  0  0  0  0  0  0  0  0  0  0
    1.7678    4.7606   -0.5332 C   0  0  0  0  0  0  0  0  0  0  0  0
    3.1539    4.2590   -0.3628 N   0  0  0  0  0  0  0  0  0  0  0  0
    4.0225    4.5207    0.9927 C   0  0  0  0  0  0  0  0  0  0  0  0
    3.9477    5.6424    1.5478 O   0  0  0  0  0  0  0  0  0  0  0  0
    5.2385    3.3074    1.5133 C   0  0  2  0  0  0  0  0  0  0  0  0
    6.2996    2.9401    0.4295 C   0  0  0  0  0  0  0  0  0  0  0  0
    7.0366    1.6896    0.4756 C   0  0  0  0  0  0  0  0  0  0  0  0
    5.9710    0.9522    1.2593 C   0  0  0  0  0  0  0  0  0  0  0  0
    4.8560    1.9158    1.7490 N   0  0  0  0  0  0  0  0  0  0  0  0
    3.7517    1.4721    2.5147 C   0  0  0  0  0  0  0  0  0  0  0  0
    3.5095    0.2642    2.5412 O   0  0  0  0  0  0  0  0  0  0  0  0
    2.6172    2.6329    3.1460 C   0  0  1  0  0  0  0  0  0  0  0  0
    3.3216    3.6061    3.8793 O   0  0  0  0  0  0  0  0  0  0  0  0
    1.6430    3.3931    2.1925 C   0  0  2  0  0  0  0  0  0  0  0  0
    2.2187    2.7477    1.0663 N   0  0  0  0  0  0  0  0  0  0  0  0
    1.3386    5.1755    2.3382 C   0  0  0  0  0  0  0  0  0  0  0  0
    0.8053    6.4389    1.2952 C   0  0  0  0  0  0  0  0  0  0  0  0
   -0.5363    6.4098    0.9002 C   0  0  0  0  0  0  0  0  0  0  0  0
   -0.9912    7.1534   -0.2228 C   0  0  0  0  0  0  0  0  0  0  0  0
   -0.1270    7.8265   -1.0977 C   0  0  0  0  0  0  0  0  0  0  0  0
    1.2138    7.8887   -0.7806 C   0  0  0  0  0  0  0  0  0  0  0  0
    1.6504    7.3572    0.4817 C   0  0  0  0  0  0  0  0  0  0  0  0
    5.5870    6.4149   -1.4447 C   0  0  0  0  0  0  0  0  0  0  0  0
    4.3557    6.8494   -1.6900 N   0  0  0  0  0  0  0  0  0  0  0  0
    6.5779    7.2476   -1.4616 O   0  0  0  0  0  0  0  0  0  0  0  0
  2 31  1  0
  2  3  1  0
  2  1  1  6
  3  4  1  0
  4  5  2  0
  6  4  1  6
  6  7  1  0
  6 10  1  0
  7  8  1  0
  8  9  1  0
  9 10  1  0
 10 11  1  0
 11 12  2  0
 13 11  1  6
 13 14  1  0
 13 17  1  0
 14 15  1  0
 15 16  1  0
 16 17  1  0
 17 18  1  0
 18 19  2  0
 18 20  1  0
 20 21  1  6
 22 24  1  0
 22 23  1  6
 22 20  1  0
 24 25  1  0
 25 26  2  0
 25 30  1  0
 26 27  1  0
 27 28  2  0
 28 29  1  0
 29 30  2  0
 31 32  1  0
 31 33  2  0
M  END
>  <DRUGBANK_ID>  (1) 
DB04092

>  <SECONDARY_ACCESSION_NUMBERS>  (1) 
EXPT00584

>  <COMMON_NAME>  (1) 
Apstatin

>  <CAS_NUMBER>  (1) 
160470-73-5

>  <UNII>  (1) 
JZK8P9AG86

$$$$
