
     RDKit          3D

 17 17  0  0  0  0  0  0  0  0999 V2000
    1.1278   -0.0328   -0.0423 C   0  0  0  0  0  0  0  0  0  0  0  0
   -0.6457    3.2317   -5.3591 C   0  0  0  0  0  0  0  0  0  0  0  0
   -1.4731    2.4215   -4.5752 C   0  0  0  0  0  0  0  0  0  0  0  0
    1.2016    2.7697   -3.8703 C   0  0  0  0  0  0  0  0  0  0  0  0
    0.7607    0.2001   -1.4838 C   0  0  0  0  0  0  0  0  0  0  0  0
    0.6866    3.4557   -4.9901 C   0  0  0  0  0  0  0  0  0  0  0  0
   -0.9975    1.8137   -3.3995 C   0  0  0  0  0  0  0  0  0  0  0  0
    0.3569    1.9821   -3.0597 C   0  0  0  0  0  0  0  0  0  0  0  0
   -1.9612    1.0789   -2.5331 C   0  0  0  0  0  0  0  0  0  0  0  0
    1.5075    4.5022   -5.7174 C   0  0  0  0  0  0  0  0  0  0  0  0
    1.9178    5.4977   -4.8808 F   0  0  0  0  0  0  0  0  0  0  0  0
    2.6343    4.0045   -6.2912 F   0  0  0  0  0  0  0  0  0  0  0  0
    0.8231    5.1308   -6.7167 F   0  0  0  0  0  0  0  0  0  0  0  0
    0.4146   -0.6889   -2.2529 O   0  0  0  0  0  0  0  0  0  0  0  0
   -1.8320    0.7900   -1.3548 O   0  0  0  0  0  0  0  0  0  0  0  0
   -3.0868    0.7368   -3.1861 O   0  0  0  0  0  0  0  0  0  0  0  0
    0.9063    1.5455   -1.8256 O   0  0  0  0  0  0  0  0  0  0  0  0
  3  2  2  0
  5  1  1  0
  6  2  1  0
  6  4  2  0
  7  3  1  0
  8  4  1  0
  8  7  2  0
  9  7  1  0
 10  6  1  0
 11 10  1  0
 12 10  1  0
 13 10  1  0
 14  5  2  0
 15  9  2  0
 16  9  1  0
 17  5  1  0
 17  8  1  0
M  END
>  <DRUGBANK_ID>  (1) 
DB08814

>  <COMMON_NAME>  (1) 
Triflusal

>  <CAS_NUMBER>  (1) 
322-79-2

>  <UNII>  (1) 
1Z0YFI05OO

>  <SYNONYMS>  (1) 
Triflusal; Triflusalum

$$$$
