
     RDKit          3D

 30 31  0  0  1  0  0  0  0  0999 V2000
   -4.6207  -10.0498    1.8323 C   0  0  0  0  0  0  0  0  0  0  0  0
   -4.5962   -8.6619    2.4113 C   0  0  0  0  0  0  0  0  0  0  0  0
   -4.5107   -8.8773    3.7977 N   0  0  0  0  0  0  0  0  0  0  0  0
   -4.3022  -10.1458    4.1214 C   0  0  0  0  0  0  0  0  0  0  0  0
   -4.2215  -11.3220    2.9191 S   0  0  0  0  0  0  0  0  0  0  0  0
   -4.0859  -10.5792    5.3609 N   0  0  0  0  0  0  0  0  0  0  0  0
   -4.0278   -7.0408    1.7213 C   0  0  0  0  0  0  0  0  0  0  0  0
   -3.3264   -6.9732    0.5424 N   0  0  0  0  0  0  0  0  0  0  0  0
   -2.5323   -6.2424   -0.4580 O   0  0  0  0  0  0  0  0  0  0  0  0
   -2.8000   -6.3912   -2.0173 C   0  0  0  0  0  0  0  0  0  0  0  0
   -1.6523   -7.0986   -2.5771 C   0  0  0  0  0  0  0  0  0  0  0  0
   -1.6689   -8.0945   -3.2723 O   0  0  0  0  0  0  0  0  0  0  0  0
   -0.5399   -6.4821   -2.1540 O   0  0  0  0  0  0  0  0  0  0  0  0
   -4.1976   -5.7465    2.4430 C   0  0  0  0  0  0  0  0  0  0  0  0
   -4.1334   -5.7483    3.6792 O   0  0  0  0  0  0  0  0  0  0  0  0
   -4.3215   -4.6023    1.6563 N   0  0  0  0  0  0  0  0  0  0  0  0
   -4.1193   -4.6083    0.1700 C   0  0  1  0  0  0  0  0  0  0  0  0
   -5.0581   -5.6491   -0.6927 C   0  0  2  0  0  0  0  0  0  0  0  0
   -5.2879   -4.5524   -1.6308 N   0  0  0  0  0  0  0  0  0  0  0  0
   -4.6422   -3.5846   -0.8444 C   0  0  0  0  0  0  0  0  0  0  0  0
   -4.4312   -2.4061   -1.0497 O   0  0  0  0  0  0  0  0  0  0  0  0
   -5.9815   -4.3359   -3.0903 S   0  0  0  0  0  0  0  0  0  0  0  0
   -7.2624   -3.7171   -2.8510 O   0  0  0  0  0  0  0  0  0  0  0  0
   -5.0399   -3.8041   -4.0437 O   0  0  0  0  0  0  0  0  0  0  0  0
   -6.3115   -5.8205   -3.6145 O   0  0  0  0  0  0  0  0  0  0  0  0
   -5.9188   -6.9201   -0.5169 C   0  0  0  0  0  0  0  0  0  0  0  0
   -5.0978   -8.2486    0.1017 O   0  0  0  0  0  0  0  0  0  0  0  0
   -3.6108   -8.8929   -0.0634 C   0  0  0  0  0  0  0  0  0  0  0  0
   -3.2537   -9.2697   -1.1316 O   0  0  0  0  0  0  0  0  0  0  0  0
   -2.5202   -8.9115    1.2271 N   0  0  0  0  0  0  0  0  0  0  0  0
  1  2  2  0
  1  5  1  0
  2  3  1  0
  2  7  1  0
  3  4  2  0
  4  5  1  0
  4  6  1  0
  7  8  2  0
  7 14  1  0
  8  9  1  0
  9 10  1  0
 10 11  1  0
 11 12  2  0
 11 13  1  0
 14 15  2  0
 14 16  1  0
 17 18  1  0
 17 20  1  0
 17 16  1  1
 18 19  1  0
 18 26  1  1
 19 20  1  0
 19 22  1  0
 20 21  2  0
 22 23  2  0
 22 24  2  0
 22 25  1  0
 26 27  1  0
 27 28  1  0
 28 29  2  0
 28 30  1  0
M  END
>  <DRUGBANK_ID>  (1) 
DB13553

>  <COMMON_NAME>  (1) 
Carumonam

>  <CAS_NUMBER>  (1) 
87638-04-8

>  <UNII>  (1) 
486890PI06

>  <SYNONYMS>  (1) 
Carumonam

$$$$
