
     RDKit          3D

 14 14  0  0  1  0  0  0  0  0999 V2000
    0.9639    0.1513    0.1195 C   0  0  0  0  0  0  0  0  0  0  0  0
    0.4863    0.5034   -1.2969 C   0  0  1  0  0  0  0  0  0  0  0  0
    0.5568   -2.8061   -3.4501 C   0  0  1  0  0  0  0  0  0  0  0  0
   -0.0309   -1.7280   -2.5262 C   0  0  1  0  0  0  0  0  0  0  0  0
    1.9960   -3.1489   -3.0547 C   0  0  1  0  0  0  0  0  0  0  0  0
    0.9304   -0.5238   -2.3742 C   0  0  2  0  0  0  0  0  0  0  0  0
    2.8374   -1.8603   -2.9969 C   0  0  1  0  0  0  0  0  0  0  0  0
    0.4757   -1.1233    0.5247 O   0  0  0  0  0  0  0  0  0  0  0  0
   -0.9268    0.7048   -1.2969 O   0  0  0  0  0  0  0  0  0  0  0  0
   -0.2525   -3.9870   -3.4030 O   0  0  0  0  0  0  0  0  0  0  0  0
   -1.3164   -1.3232   -3.0011 O   0  0  0  0  0  0  0  0  0  0  0  0
    1.9701   -3.8269   -1.7822 O   0  0  0  0  0  0  0  0  0  0  0  0
    3.0451   -1.2307   -4.2450 O   0  0  0  0  0  0  0  0  0  0  0  0
    2.2676   -0.9444   -2.0641 O   0  0  0  0  0  0  0  0  0  0  0  0
  2  1  1  0
  2  9  1  1
  3 10  1  1
  4  3  1  0
  4 11  1  6
  5  3  1  0
  5 12  1  1
  6  2  1  0
  6  4  1  0
  7  5  1  0
  7 13  1  6
  8  1  1  0
  6 14  1  1
 14  7  1  0
M  END
>  <DRUGBANK_ID>  (1) 
DB04526

>  <SECONDARY_ACCESSION_NUMBERS>  (1) 
EXPT01620

>  <COMMON_NAME>  (1) 
L-Glycero-D-Manno-Heptopyranose

$$$$
