
     RDKit          3D

  8  7  0  0  1  0  0  0  0  0999 V2000
   -1.0411    1.9290   -1.7846 O   0  0  0  0  0  0  0  0  0  0  0  0
    0.3882    1.8108   -1.8893 C   0  0  2  0  0  0  0  0  0  0  0  0
    0.7585    0.3587   -2.2312 C   0  0  0  0  0  0  0  0  0  0  0  0
   -0.1710   -0.2387   -3.6837 S   0  0  0  0  0  0  0  0  0  0  0  0
    0.9981    2.2482   -0.5354 C   0  0  2  0  0  0  0  0  0  0  0  0
    0.6195    1.3056    0.4813 O   0  0  0  0  0  0  0  0  0  0  0  0
    0.5132    3.6564   -0.1482 C   0  0  0  0  0  0  0  0  0  0  0  0
    1.1739    4.1936    1.4613 S   0  0  0  0  0  0  0  0  0  0  0  0
  2  3  1  0
  2  1  1  1
  3  4  1  0
  5  7  1  0
  5  6  1  1
  5  2  1  0
  7  8  1  0
M  END
>  <DRUGBANK_ID>  (1) 
DB02184

>  <SECONDARY_ACCESSION_NUMBERS>  (1) 
EXPT01293

>  <COMMON_NAME>  (1) 
D-1,4-dithiothreitol

>  <SYNONYMS>  (1) 
(2S,3S)-1,4-dimercaptobutane-2,3-diol; D-DTT; D-threo-1,4-dimercapto-2,3-butanediol

$$$$
