
     RDKit          3D

 43 46  0  0  0  0  0  0  0  0999 V2000
    0.9453   -0.2860   -0.0827 S   0  0  0  0  0  0  0  0  0  0  0  0
    0.4183   -1.6244   -0.2677 O   0  0  0  0  0  0  0  0  0  0  0  0
    0.4691    0.4884    1.0486 O   0  0  0  0  0  0  0  0  0  0  0  0
    4.0770    1.8358   -4.7047 O   0  0  0  0  0  0  0  0  0  0  0  0
    1.6107    6.3285   -2.2796 O   0  0  0  0  0  0  0  0  0  0  0  0
    3.7798    6.3904   -1.7313 O   0  0  0  0  0  0  0  0  0  0  0  0
    2.6787    1.9400   -2.9986 N   0  0  0  0  0  0  0  0  0  0  0  0
    3.1306    4.9129   -3.3773 N   0  0  0  0  0  0  0  0  0  0  0  0
    2.1815    2.3036   -1.6725 C   0  0  2  0  0  0  0  0  0  0  0  0
    0.7019    2.0608   -1.5490 C   0  0  0  0  0  0  0  0  0  0  0  0
    2.3035    3.7120   -1.2048 C   0  0  0  0  0  0  0  0  0  0  0  0
    0.3482    0.6113   -1.5232 C   0  0  0  0  0  0  0  0  0  0  0  0
    2.0548    4.4111    0.1090 C   0  0  0  0  0  0  0  0  0  0  0  0
    2.8582   -0.3996   -0.1466 C   0  0  0  0  0  0  0  0  0  0  0  0
    3.6556    2.5184   -3.7660 C   0  0  0  0  0  0  0  0  0  0  0  0
    4.2474    3.9289   -3.4365 C   0  0  2  0  0  0  0  0  0  0  0  0
    2.7097    3.8229    1.2989 C   0  0  0  0  0  0  0  0  0  0  0  0
    5.1730    3.8836   -2.2119 C   0  0  0  0  0  0  0  0  0  0  0  0
    3.3709   -1.1096    1.0711 C   0  0  0  0  0  0  0  0  0  0  0  0
    3.2115    4.5444    2.3653 C   0  0  0  0  0  0  0  0  0  0  0  0
    2.5081    2.4888    1.4710 C   0  0  0  0  0  0  0  0  0  0  0  0
    6.3587    3.0213   -2.3365 C   0  0  0  0  0  0  0  0  0  0  0  0
    3.9873   -0.4414    2.1429 C   0  0  0  0  0  0  0  0  0  0  0  0
    3.1858   -2.4664    1.1725 C   0  0  0  0  0  0  0  0  0  0  0  0
    3.4648    3.8835    3.5718 C   0  0  0  0  0  0  0  0  0  0  0  0
    2.5171    1.9025    2.7002 C   0  0  0  0  0  0  0  0  0  0  0  0
    7.5758    3.6687   -2.2236 C   0  0  0  0  0  0  0  0  0  0  0  0
    6.2326    1.6256   -2.2776 C   0  0  0  0  0  0  0  0  0  0  0  0
    2.9417    5.9774   -2.4857 C   0  0  0  0  0  0  0  0  0  0  0  0
    3.1402    2.5434    3.7290 C   0  0  0  0  0  0  0  0  0  0  0  0
    3.9919   -1.0003    3.4169 C   0  0  0  0  0  0  0  0  0  0  0  0
    3.3173   -3.0734    2.4126 C   0  0  0  0  0  0  0  0  0  0  0  0
    3.6604   -2.3340    3.5467 C   0  0  0  0  0  0  0  0  0  0  0  0
    8.7071    2.9040   -2.1054 C   0  0  0  0  0  0  0  0  0  0  0  0
    7.3666    0.8661   -2.1183 C   0  0  0  0  0  0  0  0  0  0  0  0
    8.6024    1.5096   -2.0753 C   0  0  0  0  0  0  0  0  0  0  0  0
    0.5290    6.1978   -3.2348 C   0  0  0  0  0  0  0  0  0  0  0  0
    1.0196    6.8238   -4.4998 C   0  0  0  0  0  0  0  0  0  0  0  0
    0.9947    8.2124   -4.5971 C   0  0  0  0  0  0  0  0  0  0  0  0
    1.7564    6.0804   -5.4342 C   0  0  0  0  0  0  0  0  0  0  0  0
    1.7153    8.8344   -5.6067 C   0  0  0  0  0  0  0  0  0  0  0  0
    2.6430    6.7139   -6.2862 C   0  0  0  0  0  0  0  0  0  0  0  0
    2.5619    8.0888   -6.4286 C   0  0  0  0  0  0  0  0  0  0  0  0
  1  2  2  0
  1  3  2  0
  1 12  1  0
  1 14  1  0
  4 15  2  0
  5 29  1  0
  5 37  1  0
  6 29  2  0
  7 15  1  0
  8 29  1  0
  9  7  1  0
  9 10  1  6
  9 11  1  0
 10 12  1  0
 11 13  1  0
 13 17  1  0
 14 19  1  0
 15 16  1  0
 16  8  1  0
 16 18  1  1
 17 20  2  0
 17 21  1  0
 18 22  1  0
 19 23  2  0
 19 24  1  0
 20 25  1  0
 21 26  2  0
 22 27  2  0
 22 28  1  0
 23 31  1  0
 24 32  2  0
 25 30  2  0
 26 30  1  0
 27 34  1  0
 28 35  2  0
 31 33  2  0
 32 33  1  0
 34 36  2  0
 35 36  1  0
 37 38  1  0
 38 39  2  0
 38 40  1  0
 39 41  1  0
 40 42  2  0
 41 43  2  0
 42 43  1  0
M  END
>  <DRUGBANK_ID>  (1) 
DB02200

>  <SECONDARY_ACCESSION_NUMBERS>  (1) 
EXPT03232

>  <COMMON_NAME>  (1) 
3-[N-[benzyloxycarbonyl]-phenylalaninyl-amino]-5-phenyl-pentane-1-sulfonylmethylbenzene

$$$$
