
     RDKit          3D

 32 35  0  0  0  0  0  0  0  0999 V2000
    1.0611   -0.0898   -0.0133 C   0  0  0  0  0  0  0  0  0  0  0  0
    0.4866    1.2456   -0.4998 C   0  0  0  0  0  0  0  0  0  0  0  0
    1.0122    1.5388   -1.9057 C   0  0  0  0  0  0  0  0  0  0  0  0
   -1.0037    1.2036   -0.4577 C   0  0  0  0  0  0  0  0  0  0  0  0
   -1.6725    0.0132   -0.3283 N   0  0  0  0  0  0  0  0  0  0  0  0
   -2.9214    0.3806   -0.3423 C   0  0  0  0  0  0  0  0  0  0  0  0
   -3.0729    1.7414   -0.4934 O   0  0  0  0  0  0  0  0  0  0  0  0
   -1.7819    2.2912   -0.5272 N   0  0  0  0  0  0  0  0  0  0  0  0
   -4.0098   -0.3990   -0.4280 N   0  0  0  0  0  0  0  0  0  0  0  0
   -4.8614   -0.2280   -1.5502 C   0  0  0  0  0  0  0  0  0  0  0  0
   -6.1212    0.3100   -0.9422 C   0  0  0  0  0  0  0  0  0  0  0  0
   -6.8756   -0.7875   -0.1911 C   0  0  0  0  0  0  0  0  0  0  0  0
   -5.9323   -1.0524    1.0190 C   0  0  0  0  0  0  0  0  0  0  0  0
   -4.4622   -1.3657    0.5595 C   0  0  0  0  0  0  0  0  0  0  0  0
   -8.3143   -0.3170    0.1563 C   0  0  0  0  0  0  0  0  0  0  0  0
   -9.3058   -0.3459   -0.9323 O   0  0  0  0  0  0  0  0  0  0  0  0
   -9.1000    0.4763   -2.0060 C   0  0  0  0  0  0  0  0  0  0  0  0
   -8.1269    0.1863   -2.9386 C   0  0  0  0  0  0  0  0  0  0  0  0
   -7.5979    1.2414   -3.6851 C   0  0  0  0  0  0  0  0  0  0  0  0
   -8.3180    2.4148   -3.8269 C   0  0  0  0  0  0  0  0  0  0  0  0
   -9.4960    2.5785   -3.1814 N   0  0  0  0  0  0  0  0  0  0  0  0
   -9.8462    1.6140   -2.2666 C   0  0  0  0  0  0  0  0  0  0  0  0
   -7.8978    3.3651   -4.8698 C   0  0  0  0  0  0  0  0  0  0  0  0
   -7.5405    2.8312   -6.1289 C   0  0  0  0  0  0  0  0  0  0  0  0
   -7.1339    3.6297   -7.1925 C   0  0  0  0  0  0  0  0  0  0  0  0
   -7.0818    5.0056   -7.0166 C   0  0  0  0  0  0  0  0  0  0  0  0
   -7.4564    5.5742   -5.7892 C   0  0  0  0  0  0  0  0  0  0  0  0
   -7.8211    4.7528   -4.7066 C   0  0  0  0  0  0  0  0  0  0  0  0
   -6.4415    6.0694   -8.2909 S   0  0  0  0  0  0  0  0  0  0  0  0
   -7.5554    6.9020   -8.7348 O   0  0  0  0  0  0  0  0  0  0  0  0
   -5.2334    6.6535   -7.7645 O   0  0  0  0  0  0  0  0  0  0  0  0
   -5.9762    5.0373   -9.6596 C   0  0  0  0  0  0  0  0  0  0  0  0
  1  2  1  0
  2  3  1  0
  2  4  1  0
  4  5  1  0
  4  8  2  0
  5  6  2  0
  6  7  1  0
  6  9  1  0
  7  8  1  0
  9 10  1  0
  9 14  1  0
 10 11  1  0
 11 12  1  0
 12 13  1  0
 12 15  1  0
 13 14  1  0
 15 16  1  0
 16 17  1  0
 17 18  2  0
 17 22  1  0
 18 19  1  0
 19 20  2  0
 20 21  1  0
 20 23  1  0
 21 22  2  0
 23 24  2  0
 23 28  1  0
 24 25  1  0
 25 26  2  0
 26 27  1  0
 26 29  1  0
 27 28  2  0
 29 30  2  0
 29 31  2  0
 29 32  1  0
M  END
>  <DRUGBANK_ID>  (1) 
DB12627

>  <COMMON_NAME>  (1) 
GSK-1292263

>  <CAS_NUMBER>  (1) 
1032823-75-8

>  <UNII>  (1) 
R1J57STA6O

$$$$
