
     RDKit          3D

 23 25  0  0  0  0  0  0  0  0999 V2000
    0.6117    0.1784   -0.1544 C   0  0  0  0  0  0  0  0  0  0  0  0
    0.3722   -1.3163   -0.1304 C   0  0  0  0  0  0  0  0  0  0  0  0
    0.8725   -2.1849    1.0135 C   0  0  0  0  0  0  0  0  0  0  0  0
    0.7246   -3.5752    1.0849 C   0  0  0  0  0  0  0  0  0  0  0  0
    0.1363   -4.3605   -0.0362 C   0  0  0  0  0  0  0  0  0  0  0  0
    1.1798   -4.0474    2.3818 C   0  0  0  0  0  0  0  0  0  0  0  0
    1.6595   -2.8818    3.0204 C   0  0  0  0  0  0  0  0  0  0  0  0
    2.1786   -2.8815    4.3275 C   0  0  0  0  0  0  0  0  0  0  0  0
    2.2342   -4.0650    5.0318 C   0  0  0  0  0  0  0  0  0  0  0  0
    1.7852   -5.2343    4.4431 C   0  0  0  0  0  0  0  0  0  0  0  0
    1.2505   -5.2878    3.1205 C   0  0  0  0  0  0  0  0  0  0  0  0
    0.8146   -6.6419    2.6729 C   0  0  0  0  0  0  0  0  0  0  0  0
    0.1317   -7.0441    1.1523 Cl  0  0  0  0  0  0  0  0  0  0  0  0
    0.9345   -7.7098    3.4763 C   0  0  0  0  0  0  0  0  0  0  0  0
    1.4891   -7.6191    4.8222 C   0  0  0  0  0  0  0  0  0  0  0  0
    1.5860   -8.6185    5.5339 O   0  0  0  0  0  0  0  0  0  0  0  0
    1.8806   -6.3901    5.2300 N   0  0  0  0  0  0  0  0  0  0  0  0
    1.5365   -1.8041    2.1520 N   0  0  0  0  0  0  0  0  0  0  0  0
    2.0184   -0.4767    2.4801 C   0  0  0  0  0  0  0  0  0  0  0  0
    3.2520   -0.0531    1.7075 C   0  0  0  0  0  0  0  0  0  0  0  0
    3.2287   -0.2888    0.3853 F   0  0  0  0  0  0  0  0  0  0  0  0
    3.4455    1.2798    1.8730 F   0  0  0  0  0  0  0  0  0  0  0  0
    4.3536   -0.6793    2.1774 F   0  0  0  0  0  0  0  0  0  0  0  0
  1  2  1  0
  2  3  1  0
  3  4  2  0
  3 18  1  0
  4  5  1  0
  4  6  1  0
  6  7  2  0
  6 11  1  0
  7  8  1  0
  7 18  1  0
  8  9  2  0
  9 10  1  0
 10 11  2  0
 10 17  1  0
 11 12  1  0
 12 13  1  0
 12 14  2  0
 14 15  1  0
 15 16  2  0
 15 17  1  0
 18 19  1  0
 19 20  1  0
 20 21  1  0
 20 22  1  0
 20 23  1  0
M  END
>  <DRUGBANK_ID>  (1) 
DB13937

>  <COMMON_NAME>  (1) 
LGD-3303

>  <CAS_NUMBER>  (1) 
917891-35-1

>  <UNII>  (1) 
7N4E1X2RJM

>  <SYNONYMS>  (1) 
9-Chloro-2-ethyl-1-methyl-3-(2,2,2-trifluoroethyl)-3H-pyrrolo(3,2-F)quinolin-7(6H)-one

$$$$
