
     RDKit          3D

 13 15  0  0  0  0  0  0  0  0999 V2000
    1.1242   -0.0153    0.2391 O   0  0  0  0  0  0  0  0  0  0  0  0
    2.3402    0.0591    0.0726 C   0  0  0  0  0  0  0  0  0  0  0  0
    3.1313    1.3356    0.3286 C   0  0  0  0  0  0  0  0  0  0  0  0
    4.1620    1.5991   -0.7731 C   0  0  0  0  0  0  0  0  0  0  0  0
    5.0068    0.3780   -0.9855 C   0  0  0  0  0  0  0  0  0  0  0  0
    6.2990    0.3655   -1.5021 C   0  0  0  0  0  0  0  0  0  0  0  0
    6.9689   -0.8622   -1.6904 C   0  0  0  0  0  0  0  0  0  0  0  0
    6.3523   -2.0879   -1.3868 C   0  0  0  0  0  0  0  0  0  0  0  0
    5.0637   -2.0651   -0.8932 C   0  0  0  0  0  0  0  0  0  0  0  0
    4.4392   -0.8478   -0.6997 C   0  0  0  0  0  0  0  0  0  0  0  0
    3.1500   -1.0083   -0.2196 N   0  0  0  0  0  0  0  0  0  0  0  0
    2.8580   -2.4316   -0.0797 C   0  0  0  0  0  0  0  0  0  0  0  0
    4.1440   -3.1822   -0.5075 C   0  0  0  0  0  0  0  0  0  0  0  0
  1  2  2  0
  2  3  1  0
  2 11  1  0
  3  4  1  0
  4  5  1  0
  5  6  1  0
  5 10  2  0
  6  7  2  0
  7  8  1  0
  8  9  2  0
  9 10  1  0
  9 13  1  0
 10 11  1  0
 11 12  1  0
 12 13  1  0
M  END
>  <DRUGBANK_ID>  (1) 
DB02756

>  <SECONDARY_ACCESSION_NUMBERS>  (1) 
EXPT02722

>  <COMMON_NAME>  (1) 
Pyroquilon

>  <CAS_NUMBER>  (1) 
57369-32-1

>  <UNII>  (1) 
WS195Z0WJH

>  <SYNONYMS>  (1) 
1,2,5,6-tetrahydropyrrolo[3,2,1-ij]quinolin-4-one

$$$$
