
     RDKit          3D

 20 19  0  0  0  0  0  0  0  0999 V2000
    1.0319    0.2000   -0.1124 C   0  0  0  0  0  0  0  0  0  0  0  0
    0.5982   -1.1180   -0.7632 C   0  0  0  0  0  0  0  0  0  0  0  0
    1.1266   -2.3495   -0.0304 C   0  0  0  0  0  0  0  0  0  0  0  0
    0.5749   -2.4629    1.3844 C   0  0  0  0  0  0  0  0  0  0  0  0
   -0.9586   -2.4181    1.3517 C   0  0  0  0  0  0  0  0  0  0  0  0
   -1.4132   -3.6845    0.6373 C   0  0  0  0  0  0  0  0  0  0  0  0
   -0.7504   -4.8719    1.3595 C   0  0  0  0  0  0  0  0  0  0  0  0
   -1.1621   -4.8388    2.8360 C   0  0  0  0  0  0  0  0  0  0  0  0
   -2.6550   -4.9619    2.8556 C   0  0  0  0  0  0  0  0  0  0  0  0
   -2.9776   -6.2888    2.1611 C   0  0  0  0  0  0  0  0  0  0  0  0
   -2.6592   -7.4825    3.0513 C   0  0  0  0  0  0  0  0  0  0  0  0
   -3.4057   -7.5581    4.4236 C   0  0  0  0  0  0  0  0  0  0  0  0
   -4.9479   -7.7169    4.6219 C   0  0  0  0  0  0  0  0  0  0  0  0
   -5.6197   -8.6633    3.8202 O   0  0  0  0  0  0  0  0  0  0  0  0
   -5.4862   -8.5110    2.4244 C   0  0  0  0  0  0  0  0  0  0  0  0
   -6.0223   -7.2486    1.6933 C   0  0  0  0  0  0  0  0  0  0  0  0
   -6.1135   -5.7655    2.2509 C   0  0  0  0  0  0  0  0  0  0  0  0
   -5.3123   -5.2112    3.2684 O   0  0  0  0  0  0  0  0  0  0  0  0
   -5.4635   -7.2393    0.3452 O   0  0  0  0  0  0  0  0  0  0  0  0
    0.5124    0.5215    1.2883 C   0  0  0  0  0  0  0  0  0  0  0  0
  1  2  1  0
  1 20  1  0
  2  3  1  0
  3  4  1  0
  4  5  1  0
  5  6  1  0
  6  7  1  0
  7  8  1  0
  8  9  1  0
  9 10  1  0
 10 11  1  0
 11 12  1  0
 12 13  1  0
 13 14  1  0
 14 15  1  0
 15 16  1  0
 16 17  1  0
 16 19  1  0
 17 18  1  0
M  END
>  <DRUGBANK_ID>  (1) 
DB15662

>  <COMMON_NAME>  (1) 
Myristyl glyceryl ether

>  <CAS_NUMBER>  (1) 
1561-06-4

>  <UNII>  (1) 
S4JE3R143V

>  <SYNONYMS>  (1) 
1-o-tetradecylglycerol; 3-Tetradecyloxy-1,2-propanediol; Glycerin 1-tetradecyl ether; Myristyl glyceryl ether

$$$$
