
     RDKit          3D

  9  9  0  0  0  0  0  0  0  0999 V2000
   -2.1833    2.2187   -0.0142 Cl  0  0  0  0  0  0  0  0  0  0  0  0
    0.9826   -0.9896    0.0180 C   0  0  0  0  0  0  0  0  0  0  0  0
   -0.3678   -1.3328    0.0113 C   0  0  0  0  0  0  0  0  0  0  0  0
    1.3441    0.3561    0.0040 C   0  0  0  0  0  0  0  0  0  0  0  0
    0.3716    1.3542   -0.0108 C   0  0  0  0  0  0  0  0  0  0  0  0
   -0.9744    0.9942   -0.0080 C   0  0  0  0  0  0  0  0  0  0  0  0
   -1.3528   -0.3470    0.0006 C   0  0  0  0  0  0  0  0  0  0  0  0
    3.0092    0.7897    0.0031 Cl  0  0  0  0  0  0  0  0  0  0  0  0
   -0.8245   -2.9917    0.0122 Cl  0  0  0  0  0  0  0  0  0  0  0  0
  1  6  1  0
  3  2  2  0
  4  2  1  0
  5  4  2  0
  6  5  1  0
  7  3  1  0
  7  6  2  0
  8  4  1  0
  9  3  1  0
M  END
>  <DRUGBANK_ID>  (1) 
DB03836

>  <SECONDARY_ACCESSION_NUMBERS>  (1) 
EXPT03027

>  <COMMON_NAME>  (1) 
1,3,5-trichlorobenzene

>  <CAS_NUMBER>  (1) 
108-70-3

>  <UNII>  (1) 
2HS4M0BX3C

>  <SYNONYMS>  (1) 
1,3,5-trichloro-benzene; s-trichlorobenzene; sym-trichlorobenzene

$$$$
