PFQ
     RDKit          3D

 25 28  0  0  0  0  0  0  0  0999 V2000
   -1.8595    0.7323    0.0212 C   0  0  0  0  0  0  0  0  0  0  0  0
    2.4478   -0.1709   -0.0796 C   0  0  0  0  0  0  0  0  0  0  0  0
    3.8961   -0.0277   -0.0804 C   0  0  0  0  0  0  0  0  0  0  0  0
    4.5805    0.5041    1.0175 C   0  0  0  0  0  0  0  0  0  0  0  0
    5.9655    0.3304    1.1248 C   0  0  0  0  0  0  0  0  0  0  0  0
    6.6684   -0.3915    0.1574 C   0  0  0  0  0  0  0  0  0  0  0  0
    5.9943   -0.9274   -0.9343 C   0  0  0  0  0  0  0  0  0  0  0  0
    4.6276   -0.7088   -1.0705 C   0  0  0  0  0  0  0  0  0  0  0  0
    2.0103   -3.4665   -1.3508 C   0  0  0  0  0  0  0  0  0  0  0  0
    2.1623   -4.8552   -1.2377 C   0  0  0  0  0  0  0  0  0  0  0  0
    2.7199   -5.4121   -0.0857 C   0  0  0  0  0  0  0  0  0  0  0  0
    3.1583   -4.5822    0.9484 C   0  0  0  0  0  0  0  0  0  0  0  0
   -0.6782    1.3613    0.0299 N   0  0  0  0  0  0  0  0  0  0  0  0
    0.3487    0.5064   -0.0151 C   0  0  0  0  0  0  0  0  0  0  0  0
    1.6560    0.9284    0.0077 O   0  0  0  0  0  0  0  0  0  0  0  0
    0.2866   -0.8938   -0.0578 C   0  0  0  0  0  0  0  0  0  0  0  0
   -1.4321   -2.7664    0.2316 N   0  0  0  0  0  0  0  0  0  0  0  0
   -1.0329   -1.4457    0.0322 C   0  0  0  0  0  0  0  0  0  0  0  0
   -2.0799   -0.5918    0.0107 N   0  0  0  0  0  0  0  0  0  0  0  0
    2.9737   -3.1970    0.8631 C   0  0  0  0  0  0  0  0  0  0  0  0
    1.6784   -1.3184   -0.1556 C   0  0  0  0  0  0  0  0  0  0  0  0
    2.3262   -2.6386   -0.2576 C   0  0  0  0  0  0  0  0  0  0  0  0
   -0.3883   -4.6962    1.4329 C   0  0  0  0  0  0  0  0  0  0  0  0
   -0.4698   -3.8242    0.2022 C   0  0  0  0  0  0  0  0  0  0  0  0
   -1.5121   -5.5406    1.5079 O   0  0  0  0  0  0  0  0  0  0  0  0
  1 13  2  0
  1 19  1  0
  2  3  1  0
  2 15  1  0
  2 21  2  0
  3  4  2  0
  3  8  1  0
  4  5  1  0
  5  6  2  0
  6  7  1  0
  7  8  2  0
  9 10  2  0
  9 22  1  0
 10 11  1  0
 11 12  2  0
 12 20  1  0
 13 14  1  0
 14 15  1  0
 14 16  2  0
 16 18  1  0
 16 21  1  0
 17 18  1  0
 17 24  1  0
 18 19  2  0
 20 22  2  0
 21 22  1  0
 23 24  1  0
 23 25  1  0
M  END
>  <DRUGBANK_ID>  (1) 
DB08393

>  <COMMON_NAME>  (1) 
2-[(5,6-DIPHENYLFURO[2,3-D]PYRIMIDIN-4-YL)AMINO]ETHANOL

$$$$
