IN4
     RDKit          3D

 26 27  0  0  0  0  0  0  0  0999 V2000
    1.4601   -0.2750    0.0320 C   0  0  0  0  0  0  0  0  0  0  0  0
    0.5742   -1.3632    0.0681 C   0  0  0  0  0  0  0  0  0  0  0  0
   -0.8004   -1.1623    0.0687 C   0  0  0  0  0  0  0  0  0  0  0  0
   -1.2937    0.1355    0.0234 C   0  0  0  0  0  0  0  0  0  0  0  0
   -0.3891    1.2123   -0.0429 C   0  0  0  0  0  0  0  0  0  0  0  0
    0.9843    1.0340   -0.0587 C   0  0  0  0  0  0  0  0  0  0  0  0
   -2.7691    0.3692   -0.1916 C   0  0  1  0  0  0  0  0  0  0  0  0
   -3.3715    1.2421    0.9757 C   0  0  0  0  0  0  0  0  0  0  0  0
   -2.8602    2.7022    1.1840 C   0  0  0  0  0  0  0  0  0  0  0  0
   -3.0783    3.6411    0.0127 C   0  0  0  0  0  0  0  0  0  0  0  0
    1.8892    2.2146   -0.2649 C   0  0  0  0  0  0  0  0  0  0  0  0
    1.4900    3.4451   -0.3909 N   0  0  0  0  0  0  0  0  0  0  0  0
    3.2320    2.0505   -0.3474 N   0  0  0  0  0  0  0  0  0  0  0  0
   -4.0400    3.3527   -0.9572 C   0  0  0  0  0  0  0  0  0  0  0  0
   -3.9858    3.9110   -2.2330 C   0  0  0  0  0  0  0  0  0  0  0  0
   -3.2637    5.0727   -2.4263 C   0  0  0  0  0  0  0  0  0  0  0  0
   -3.3507    5.7756   -3.7465 C   0  0  0  0  0  0  0  0  0  0  0  0
   -2.5316    5.5704   -1.3359 C   0  0  0  0  0  0  0  0  0  0  0  0
   -2.3371    4.8014   -0.1739 C   0  0  0  0  0  0  0  0  0  0  0  0
   -2.8540    6.9563   -3.9430 N   0  0  0  0  0  0  0  0  0  0  0  0
   -3.9774    5.2234   -4.8205 N   0  0  0  0  0  0  0  0  0  0  0  0
   -2.9670    0.9124   -1.6140 C   0  0  0  0  0  0  0  0  0  0  0  0
   -2.5073    0.1927   -2.8297 C   0  0  0  0  0  0  0  0  0  0  0  0
   -3.2559   -0.0662   -3.7824 O   0  0  0  0  0  0  0  0  0  0  0  0
   -1.1702    0.0480   -2.8245 O   0  0  0  0  0  0  0  0  0  0  0  0
   -0.6686   -0.6253   -3.9610 C   0  0  0  0  0  0  0  0  0  0  0  0
  1  2  2  0
  1  6  1  0
  2  3  1  0
  3  4  2  0
  4  5  1  0
  4  7  1  0
  5  6  2  0
  6 11  1  0
  7  8  1  1
  7 22  1  0
  8  9  1  0
  9 10  1  0
 10 14  2  0
 10 19  1  0
 11 12  2  0
 11 13  1  0
 14 15  1  0
 15 16  2  0
 16 17  1  0
 16 18  1  0
 17 20  2  0
 17 21  1  0
 18 19  2  0
 22 23  1  0
 23 24  2  0
 23 25  1  0
 25 26  1  0
M  END
>  <DRUGBANK_ID>  (1) 
DB07985

>  <COMMON_NAME>  (1) 
+/-METHYL 4-(AMINOIMINOMETHYL)-BETA-[3- INH (AMINOIMINO)PHENYL]BENZENE PENTANOATE

$$$$
