
     RDKit          3D

 28 31  0  0  1  0  0  0  0  0999 V2000
    1.4836   -0.7987   -2.1739 C   0  0  0  0  0  0  0  0  0  0  0  0
   -3.3244   -0.1746    1.2101 C   0  0  0  0  0  0  0  0  0  0  0  0
   -1.9576   -0.3116    1.8476 C   0  0  0  0  0  0  0  0  0  0  0  0
   -4.4126    3.7252   -2.1929 C   0  0  0  0  0  0  0  0  0  0  0  0
   -1.5613   -2.8055   -5.9394 C   0  0  0  0  0  0  0  0  0  0  0  0
   -2.4303   -3.8797   -6.1350 C   0  0  0  0  0  0  0  0  0  0  0  0
   -0.1954    2.2956   -2.7348 C   0  0  0  0  0  0  0  0  0  0  0  0
   -3.1614    3.0588   -2.7001 C   0  0  0  0  0  0  0  0  0  0  0  0
   -0.7476    3.4523   -1.9132 C   0  0  0  0  0  0  0  0  0  0  0  0
   -3.1391   -0.8482   -0.1398 C   0  0  0  0  0  0  0  0  0  0  0  0
   -0.9715   -0.4667    0.6960 C   0  0  0  0  0  0  0  0  0  0  0  0
   -3.8563    4.8039   -1.2978 C   0  0  0  0  0  0  0  0  0  0  0  0
   -0.5579   -3.9573   -4.0665 C   0  0  0  0  0  0  0  0  0  0  0  0
    0.3325   -1.6807   -4.7035 C   0  0  0  0  0  0  0  0  0  0  0  0
   -2.2421    1.9244   -0.6771 C   0  0  0  0  0  0  0  0  0  0  0  0
   -0.6071   -2.8427   -4.9148 C   0  0  0  0  0  0  0  0  0  0  0  0
   -2.3604   -4.9996   -5.3022 C   0  0  0  0  0  0  0  0  0  0  0  0
   -1.4307   -5.0331   -4.2577 C   0  0  0  0  0  0  0  0  0  0  0  0
   -0.2538    0.9741   -1.9480 C   0  0  1  0  0  0  0  0  0  0  0  0
   -1.6803    0.6755   -1.3822 C   0  0  1  0  0  0  0  0  0  0  0  0
   -0.3049   -0.5510   -3.9077 C   0  0  0  0  0  0  0  0  0  0  0  0
   -2.1937    3.1826   -1.5191 C   0  0  2  0  0  0  0  0  0  0  0  0
   -3.4416   -6.3086   -5.6213 Cl  0  0  0  0  0  0  0  0  0  0  0  0
   -1.3059   -6.3681   -3.1673 Cl  0  0  0  0  0  0  0  0  0  0  0  0
    0.3139   -0.1394   -2.7309 N   0  0  0  0  0  0  0  0  0  0  0  0
   -1.7507   -0.5523   -0.5443 N   0  0  0  0  0  0  0  0  0  0  0  0
   -1.3264   -0.0026   -4.3485 O   0  0  0  0  0  0  0  0  0  0  0  0
   -2.6724    4.2658   -0.6969 O   0  0  0  0  0  0  0  0  0  0  0  0
  3  2  1  0
  6  5  2  0
  8  4  1  0
  9  7  1  0
 10  2  1  0
 11  3  1  0
 12  4  1  0
 16  5  1  0
 16 13  2  0
 16 14  1  0
 17  6  1  0
 18 13  1  0
 18 17  2  0
 19  7  1  0
 19 25  1  6
 20 15  1  0
 20 19  1  0
 20 26  1  1
 21 14  1  0
 22  8  1  6
 22  9  1  0
 22 15  1  0
 22 28  1  0
 23 17  1  0
 24 18  1  0
 25  1  1  0
 25 21  1  0
 26 10  1  0
 26 11  1  0
 27 21  2  0
 28 12  1  0
M  END
>  <DRUGBANK_ID>  (1) 
DB12704

>  <COMMON_NAME>  (1) 
Spiradoline

>  <CAS_NUMBER>  (1) 
87151-85-7

>  <UNII>  (1) 
N18ZH0M4NP

>  <SYNONYMS>  (1) 
Spiradoline

$$$$
