
     RDKit          3D

 11 11  0  0  1  0  0  0  0  0999 V2000
    1.4073   -0.0143    0.4007 C   0  0  0  0  0  0  0  0  0  0  0  0
    0.4905    1.2191    0.3452 C   0  0  2  0  0  0  0  0  0  0  0  0
   -0.7670    0.8454   -0.4667 C   0  0  2  0  0  0  0  0  0  0  0  0
   -0.4730    0.9449   -1.9891 C   0  0  1  0  0  0  0  0  0  0  0  0
    0.0473    2.3391   -2.3511 C   0  0  2  0  0  0  0  0  0  0  0  0
    1.2645    2.6870   -1.4694 C   0  0  2  0  0  0  0  0  0  0  0  0
   -1.9288    1.6596   -0.0607 N   0  0  0  0  0  0  0  0  0  0  0  0
    0.4283   -0.0727   -2.4491 O   0  0  0  0  0  0  0  0  0  0  0  0
   -1.0143    3.2932   -2.2103 O   0  0  0  0  0  0  0  0  0  0  0  0
    2.3966    1.9802   -1.9414 O   0  0  0  0  0  0  0  0  0  0  0  0
    1.1350    2.4257   -0.0827 O   0  0  0  0  0  0  0  0  0  0  0  0
  2  1  1  6
  3  2  1  0
  3  7  1  1
  4  3  1  0
  4  8  1  1
  5  4  1  0
  5  9  1  1
  6  5  1  0
  6 10  1  6
 11  2  1  0
 11  6  1  0
M  END
>  <DRUGBANK_ID>  (1) 
DB02469

>  <SECONDARY_ACCESSION_NUMBERS>  (1) 
EXPT01106

>  <COMMON_NAME>  (1) 
4,6-dideoxy-4-amino-beta-D-glucopyranoside

$$$$
