XMK
     RDKit          3D

 31 34  0  0  0  0  0  0  0  0999 V2000
    1.1566    0.0399    0.2280 C   0  0  0  0  0  0  0  0  0  0  0  0
   -3.1066   -5.3307   -2.5018 C   0  0  0  0  0  0  0  0  0  0  0  0
   -0.7858   -3.0551   -0.8282 N   0  0  0  0  0  0  0  0  0  0  0  0
   -1.5417   -4.1516   -1.1314 C   0  0  0  0  0  0  0  0  0  0  0  0
   -2.3509   -4.1952   -2.2713 C   0  0  0  0  0  0  0  0  0  0  0  0
    0.6638   -3.0314   -0.6614 C   0  0  0  0  0  0  0  0  0  0  0  0
   -1.5808   -5.2144   -0.2464 C   0  0  0  0  0  0  0  0  0  0  0  0
   -1.5004   -1.8666   -0.5099 C   0  0  0  0  0  0  0  0  0  0  0  0
    0.4280   -1.1631    1.0892 C   0  0  0  0  0  0  0  0  0  0  0  0
    1.0632   -2.5174    0.7355 C   0  0  0  0  0  0  0  0  0  0  0  0
   -3.1436   -6.3838   -1.6596 N   0  0  0  0  0  0  0  0  0  0  0  0
   -2.3893   -6.2906   -0.5440 C   0  0  0  0  0  0  0  0  0  0  0  0
   -1.1570   -1.4692    0.9630 C   0  0  0  0  0  0  0  0  0  0  0  0
   -1.8024    4.7233    0.5656 C   0  0  0  0  0  0  0  0  0  0  0  0
   -2.2031    3.6152   -0.0649 C   0  0  0  0  0  0  0  0  0  0  0  0
   -1.1753    3.9046    2.8839 C   0  0  0  0  0  0  0  0  0  0  0  0
   -2.0074    3.4103   -1.7916 S   0  0  0  0  0  0  0  0  0  0  0  0
   -1.8451    4.8073    2.0331 C   0  0  0  0  0  0  0  0  0  0  0  0
   -2.1309    5.2488    6.5305 Cl  0  0  0  0  0  0  0  0  0  0  0  0
   -1.6781    4.6642   -2.4009 O   0  0  0  0  0  0  0  0  0  0  0  0
   -0.8345    1.0955   -0.2123 C   0  0  0  0  0  0  0  0  0  0  0  0
   -0.9571    1.0300   -1.7238 C   0  0  0  0  0  0  0  0  0  0  0  0
   -0.6881    2.3661   -2.1611 N   0  0  0  0  0  0  0  0  0  0  0  0
   -2.5762    5.8497    2.6019 C   0  0  0  0  0  0  0  0  0  0  0  0
    0.9411    2.5889   -0.2209 C   0  0  0  0  0  0  0  0  0  0  0  0
    0.7341    2.6824   -1.7562 C   0  0  0  0  0  0  0  0  0  0  0  0
   -1.2551    4.0433    4.2772 C   0  0  0  0  0  0  0  0  0  0  0  0
    0.4507    1.3358    0.4116 N   0  0  0  0  0  0  0  0  0  0  0  0
   -2.6582    5.9868    3.9899 C   0  0  0  0  0  0  0  0  0  0  0  0
   -2.0040    5.0819    4.8228 C   0  0  0  0  0  0  0  0  0  0  0  0
   -3.1921    2.6617   -2.2176 O   0  0  0  0  0  0  0  0  0  0  0  0
  1  9  1  0
  1 28  1  0
  2  5  2  0
  2 11  1  0
  3  4  1  0
  3  6  1  0
  3  8  1  0
  4  5  1  0
  4  7  2  0
  6 10  1  0
  7 12  1  0
  8 13  1  0
  9 10  1  0
  9 13  1  0
 11 12  2  0
 14 15  2  0
 14 18  1  0
 15 17  1  0
 16 18  2  0
 16 27  1  0
 17 20  2  0
 17 23  1  0
 17 31  2  0
 18 24  1  0
 19 30  1  0
 21 22  1  0
 21 28  1  0
 22 23  1  0
 23 26  1  0
 24 29  2  0
 25 26  1  0
 25 28  1  0
 27 30  2  0
 29 30  1  0
M  END
>  <DRUGBANK_ID>  (1) 
DB08746

>  <COMMON_NAME>  (1) 
1-[[(1E)-2-(4-CHLOROPHENYL)ETHENYL]SULFONYL]-4-[[1-(4-PYRIDINYL)-4-PIPERIDINYL]METHYL]PIPERAZINE

$$$$
