
     RDKit          3D

 33 37  0  0  1  0  0  0  0  0999 V2000
    1.4049    0.1068   -0.3500 C   0  0  0  0  0  0  0  0  0  0  0  0
    0.3119    0.7381    1.1265 C   0  0  2  0  0  0  0  0  0  0  0  0
    0.0851    2.2022    1.2532 C   0  0  0  0  0  0  0  0  0  0  0  0
    1.1762    3.2085    0.6478 C   0  0  1  0  0  0  0  0  0  0  0  0
    2.4958    3.2829    1.4607 C   0  0  0  0  0  0  0  0  0  0  0  0
    3.4565    4.4500    1.8143 C   0  0  0  0  0  0  0  0  0  0  0  0
    4.1508    6.2781    1.8417 C   0  0  0  0  0  0  0  0  0  0  0  0
    4.2456    7.1126    3.3544 C   0  0  0  0  0  0  0  0  0  0  0  0
    3.3338    6.0960    3.7846 C   0  0  0  0  0  0  0  0  0  0  0  0
    2.1527    6.1835    3.4428 O   0  0  0  0  0  0  0  0  0  0  0  0
    4.1141    4.8574    4.0406 C   0  0  0  0  0  0  0  0  0  0  0  0
    4.0852    3.9708    3.0336 C   0  0  0  0  0  0  0  0  0  0  0  0
    4.4839    2.5609    3.3333 C   0  0  0  0  0  0  0  0  0  0  0  0
    3.7372    1.2755    2.8443 C   0  0  0  0  0  0  0  0  0  0  0  0
    2.5452    1.4350    1.8191 C   0  0  1  0  0  0  0  0  0  0  0  0
    1.3712   -0.1084    1.4038 C   0  0  2  0  0  0  0  0  0  0  0  0
   -0.3876   -0.6115    0.3449 C   0  0  0  0  0  0  0  0  0  0  0  0
   -1.7068   -0.4420    1.1152 C   0  0  0  0  0  0  0  0  0  0  0  0
   -0.6813   -0.4401    2.1181 C   0  0  2  0  0  0  0  0  0  0  0  0
   -1.1284   -0.0692    3.4899 C   0  0  0  0  0  0  0  0  0  0  0  0
   -0.6391   -1.1048    4.5072 C   0  0  0  0  0  0  0  0  0  0  0  0
    0.8883   -1.2837    4.5224 C   0  0  0  0  0  0  0  0  0  0  0  0
    1.5096   -0.0302    4.7259 O   0  0  0  0  0  0  0  0  0  0  0  0
   -0.3273   -1.9295    2.0239 O   0  0  0  0  0  0  0  0  0  0  0  0
    1.4993    2.8095   -0.7844 C   0  0  0  0  0  0  0  0  0  0  0  0
    0.4975    2.6708   -1.7476 C   0  0  0  0  0  0  0  0  0  0  0  0
    0.8162    2.1622   -3.0211 C   0  0  0  0  0  0  0  0  0  0  0  0
    2.1197    1.7399   -3.3703 C   0  0  0  0  0  0  0  0  0  0  0  0
    3.0878    1.8618   -2.3840 C   0  0  0  0  0  0  0  0  0  0  0  0
    2.7896    2.3690   -1.1367 C   0  0  0  0  0  0  0  0  0  0  0  0
    2.4391    1.2060   -4.6031 N   0  0  0  0  0  0  0  0  0  0  0  0
    3.7853    0.7617   -4.9438 C   0  0  0  0  0  0  0  0  0  0  0  0
    1.4243    1.1142   -5.6355 C   0  0  0  0  0  0  0  0  0  0  0  0
  2  1  1  6
  2  3  1  0
  2 16  1  0
  2 19  1  0
  3  4  1  0
  4  5  1  0
  4 25  1  6
  5  6  2  0
  5 15  1  0
  6  7  1  0
  6 12  1  0
  7  8  1  0
  8  9  1  0
  9 10  2  0
  9 11  1  0
 11 12  2  0
 12 13  1  0
 13 14  1  0
 15 14  1  1
 15 16  1  0
 16 17  1  6
 17 18  1  0
 18 19  1  0
 19 24  1  1
 19 20  1  0
 20 21  1  0
 21 22  1  0
 22 23  1  0
 25 26  2  0
 25 30  1  0
 26 27  1  0
 27 28  2  0
 28 29  1  0
 28 31  1  0
 29 30  2  0
 31 32  1  0
 31 33  1  0
M  END
>  <DRUGBANK_ID>  (1) 
DB12637

>  <COMMON_NAME>  (1) 
Onapristone

>  <CAS_NUMBER>  (1) 
96346-61-1

>  <UNII>  (1) 
H6H7G23O3N

>  <SYNONYMS>  (1) 
Onapristone

$$$$
