
     RDKit          3D

 33 38  0  0  0  0  0  0  0  0999 V2000
    2.4421    0.0012    0.0548 C   0  0  0  0  0  0  0  0  0  0  0  0
    1.0299   -0.0028   -0.3010 N   0  0  0  0  0  0  0  0  0  0  0  0
    0.3488   -1.1981    0.2472 C   0  0  0  0  0  0  0  0  0  0  0  0
   -1.1266   -1.2545   -0.1988 C   0  0  0  0  0  0  0  0  0  0  0  0
   -1.8111   -0.0146    0.1614 N   0  0  0  0  0  0  0  0  0  0  0  0
   -1.1495    1.2403   -0.1991 C   0  0  0  0  0  0  0  0  0  0  0  0
    0.3389    1.1945    0.2317 C   0  0  0  0  0  0  0  0  0  0  0  0
   -3.0509   -0.0223    0.7460 C   0  0  0  0  0  0  0  0  0  0  0  0
   -3.2248   -0.6479    1.9846 C   0  0  0  0  0  0  0  0  0  0  0  0
   -4.4442   -0.5958    2.6353 C   0  0  0  0  0  0  0  0  0  0  0  0
   -5.5143    0.0631    2.0259 C   0  0  0  0  0  0  0  0  0  0  0  0
   -5.3509    0.7495    0.8342 C   0  0  0  0  0  0  0  0  0  0  0  0
   -4.1384    0.6478    0.1690 C   0  0  0  0  0  0  0  0  0  0  0  0
   -6.8020    0.0553    2.6921 C   0  0  0  0  0  0  0  0  0  0  0  0
   -6.8063    0.5324    4.0497 C   0  0  0  0  0  0  0  0  0  0  0  0
   -7.9443    0.3687    4.7496 C   0  0  0  0  0  0  0  0  0  0  0  0
   -9.0720   -0.0077    4.0709 N   0  0  0  0  0  0  0  0  0  0  0  0
  -10.3266    0.3349    4.4934 C   0  0  0  0  0  0  0  0  0  0  0  0
  -11.1288   -0.4211    3.6397 C   0  0  0  0  0  0  0  0  0  0  0  0
  -10.3730   -0.8958    2.5476 N   0  0  0  0  0  0  0  0  0  0  0  0
   -9.1428   -0.4938    2.7890 C   0  0  0  0  0  0  0  0  0  0  0  0
   -7.9008   -0.4695    2.0807 C   0  0  0  0  0  0  0  0  0  0  0  0
  -10.3235    1.4556    5.4685 C   0  0  0  0  0  0  0  0  0  0  0  0
   -9.5350    2.6361    4.9166 C   0  0  0  0  0  0  0  0  0  0  0  0
  -10.2328    3.7485    5.0525 C   0  0  0  0  0  0  0  0  0  0  0  0
  -10.7149    3.7786    6.2901 N   0  0  0  0  0  0  0  0  0  0  0  0
  -10.3476    2.7249    7.2041 C   0  0  0  0  0  0  0  0  0  0  0  0
   -9.2089    2.7522    8.0466 C   0  0  0  0  0  0  0  0  0  0  0  0
   -8.1340    3.4564    7.6386 F   0  0  0  0  0  0  0  0  0  0  0  0
   -8.8891    1.8453    9.0577 C   0  0  0  0  0  0  0  0  0  0  0  0
   -9.6234    0.6945    9.1535 C   0  0  0  0  0  0  0  0  0  0  0  0
  -10.4567    0.4203    8.0488 C   0  0  0  0  0  0  0  0  0  0  0  0
  -10.5464    1.4199    6.8934 C   0  0  0  0  0  0  0  0  0  0  0  0
  1  2  1  0
  2  3  1  0
  2  7  1  0
  3  4  1  0
  4  5  1  0
  5  6  1  0
  5  8  1  0
  6  7  1  0
  8  9  2  0
  8 13  1  0
  9 10  1  0
 10 11  2  0
 11 12  1  0
 11 14  1  0
 12 13  2  0
 14 15  1  0
 14 22  2  0
 15 16  2  0
 16 17  1  0
 17 18  1  0
 17 21  1  0
 18 19  2  0
 18 23  1  0
 19 20  1  0
 20 21  2  0
 21 22  1  0
 23 24  2  0
 23 33  1  0
 24 25  1  0
 25 26  2  0
 26 27  1  0
 27 28  1  0
 27 33  2  0
 28 29  1  0
 28 30  2  0
 30 31  1  0
 31 32  2  0
 32 33  1  0
M  END
>  <DRUGBANK_ID>  (1) 
DB18034

>  <COMMON_NAME>  (1) 
3-(4-(8-Fluoroquinoline) imidazole(1,2-a)pyridine-7-(1-phenyl-4-(1-(4-methyl piperazine)

>  <CAS_NUMBER>  (1) 
1589086-32-7

>  <UNII>  (1) 
0PD95Q5DD1

>  <SYNONYMS>  (1) 
3-(4-(8-fluoroquinoline)imidazole(1,2-a)pyridine-7-(1-phenyl-4-(1-(4-methyl piperazine); Quinoline, 8-fluoro-4-(7-(4-(4-methyl-1-piperazinyl)phenyl)imidazo(1,2-a)pyridin-3-yl)-

$$$$
