NE8
     RDKit          3D

 23 26  0  0  0  0  0  0  0  0999 V2000
    1.0495   -0.0986    0.0666 C   0  0  0  0  0  0  0  0  0  0  0  0
    0.8601   -1.5220   -0.4934 C   0  0  0  0  0  0  0  0  0  0  0  0
    1.4265   -2.7296    0.3055 C   0  0  0  0  0  0  0  0  0  0  0  0
    1.9559   -2.6834    1.6752 C   0  0  0  0  0  0  0  0  0  0  0  0
    2.4563   -1.4916    2.2987 N   0  0  0  0  0  0  0  0  0  0  0  0
    2.6433   -1.4439    3.5888 C   0  0  0  0  0  0  0  0  0  0  0  0
    3.0121   -0.3117    4.2490 N   0  0  0  0  0  0  0  0  0  0  0  0
    2.4868   -2.5283    4.3921 N   0  0  0  0  0  0  0  0  0  0  0  0
    2.1432   -3.7607    3.9212 C   0  0  0  0  0  0  0  0  0  0  0  0
    2.0977   -4.7383    4.6435 O   0  0  0  0  0  0  0  0  0  0  0  0
    1.8233   -3.8262    2.4854 C   0  0  0  0  0  0  0  0  0  0  0  0
    1.3329   -5.0399    2.0276 C   0  0  0  0  0  0  0  0  0  0  0  0
    1.1666   -5.1290    0.6645 C   0  0  0  0  0  0  0  0  0  0  0  0
    0.9662   -6.2359   -0.1089 N   0  0  0  0  0  0  0  0  0  0  0  0
    0.8590   -5.8190   -1.3994 C   0  0  0  0  0  0  0  0  0  0  0  0
    0.8872   -4.5030   -1.4825 N   0  0  0  0  0  0  0  0  0  0  0  0
    1.1816   -4.0459   -0.2052 C   0  0  0  0  0  0  0  0  0  0  0  0
    0.3072    0.1448    1.3784 C   0  0  0  0  0  0  0  0  0  0  0  0
   -0.3236   -0.9115    2.0681 C   0  0  0  0  0  0  0  0  0  0  0  0
   -0.7201   -0.8218    3.3900 C   0  0  0  0  0  0  0  0  0  0  0  0
   -0.6640    0.4065    4.0097 C   0  0  0  0  0  0  0  0  0  0  0  0
   -0.1416    1.5077    3.3212 C   0  0  0  0  0  0  0  0  0  0  0  0
    0.3507    1.3840    2.0131 C   0  0  0  0  0  0  0  0  0  0  0  0
  1  2  1  0
  1 18  1  0
  2  3  1  0
  3  4  2  0
  3 17  1  0
  4  5  1  0
  4 11  1  0
  5  6  2  0
  6  7  1  0
  6  8  1  0
  8  9  1  0
  9 10  2  0
  9 11  1  0
 11 12  2  0
 12 13  1  0
 13 14  1  0
 13 17  2  0
 14 15  1  0
 15 16  2  0
 16 17  1  0
 18 19  2  0
 18 23  1  0
 19 20  1  0
 20 21  2  0
 21 22  1  0
 22 23  2  0
M  END
>  <DRUGBANK_ID>  (1) 
DB08267

>  <COMMON_NAME>  (1) 
6-amino-4-(2-phenylethyl)-1,7-dihydro-8H-imidazo[4,5-g]quinazolin-8-one

$$$$
