
     RDKit          3D

 19 21  0  0  0  0  0  0  0  0999 V2000
   -0.2372   -1.6636   -0.6186 O   0  0  0  0  0  0  0  0  0  0  0  0
   -2.0380    0.2270   -0.0488 O   0  0  0  0  0  0  0  0  0  0  0  0
   -0.3793    3.6288   -1.1601 O   0  0  0  0  0  0  0  0  0  0  0  0
    1.5559    0.9007   -0.2479 N   0  0  0  0  0  0  0  0  0  0  0  0
    3.4873   -0.4292    3.6443 N   0  0  0  0  0  0  0  0  0  0  0  0
    0.6770    1.5455    2.9717 N   0  0  0  0  0  0  0  0  0  0  0  0
    1.3046    2.0496    5.2393 N   0  0  0  0  0  0  0  0  0  0  0  0
    3.1439    1.0917    6.2987 N   0  0  0  0  0  0  0  0  0  0  0  0
    1.5266   -0.3760    0.5032 C   0  0  2  0  0  0  0  0  0  0  0  0
    0.0666   -0.8541    0.5314 C   0  0  1  0  0  0  0  0  0  0  0  0
    0.1528    1.3664   -0.3879 C   0  0  1  0  0  0  0  0  0  0  0  0
   -0.7280    0.4429    0.4744 C   0  0  1  0  0  0  0  0  0  0  0  0
    2.1352   -0.1832    1.8727 C   0  0  0  0  0  0  0  0  0  0  0  0
   -0.0288    2.8527   -0.0142 C   0  0  0  0  0  0  0  0  0  0  0  0
    1.7059    0.6769    2.9332 C   0  0  0  0  0  0  0  0  0  0  0  0
    3.2520   -0.8472    2.3604 C   0  0  0  0  0  0  0  0  0  0  0  0
    2.5514    0.4967    4.0178 C   0  0  0  0  0  0  0  0  0  0  0  0
    2.3469    1.2068    5.1897 C   0  0  0  0  0  0  0  0  0  0  0  0
    0.5322    2.1696    4.1469 C   0  0  0  0  0  0  0  0  0  0  0  0
  3 14  1  0
  4  9  1  0
  4 11  1  0
  5 16  1  0
  5 17  1  0
  6 15  1  0
  6 19  2  0
  7 18  2  0
  7 19  1  0
  8 18  1  0
  9 10  1  0
  9 13  1  1
 10  1  1  6
 10 12  1  0
 11 12  1  0
 11 14  1  1
 12  2  1  6
 13 15  1  0
 13 16  2  0
 15 17  2  0
 17 18  1  0
M  END
>  <DRUGBANK_ID>  (1) 
DB11676

>  <COMMON_NAME>  (1) 
Galidesivir

>  <CAS_NUMBER>  (1) 
249503-25-1

>  <UNII>  (1) 
OLF97F86A7

>  <SYNONYMS>  (1) 
Galidesivir; Galid√©sivir; Galidesivirum; Immucillin A; Immucillin-A

$$$$
