
     RDKit          3D

 25 28  0  0  1  0  0  0  0  0999 V2000
   -0.7249   -0.9712    0.9614 C   0  0  0  0  0  0  0  0  0  0  0  0
    0.5658   -1.4684    0.2686 C   0  0  1  0  0  0  0  0  0  0  0  0
    1.3025   -2.3419    1.2496 N   0  0  0  0  0  0  0  0  0  0  0  0
    0.6882   -3.6527    1.4264 C   0  0  0  0  0  0  0  0  0  0  0  0
    0.8697   -4.4447    0.1559 C   0  0  0  0  0  0  0  0  0  0  0  0
    0.4127   -3.6869   -0.9802 N   0  0  0  0  0  0  0  0  0  0  0  0
    0.2934   -2.3161   -0.9957 C   0  0  0  0  0  0  0  0  0  0  0  0
   -0.0150   -1.9793   -2.2384 N   0  0  0  0  0  0  0  0  0  0  0  0
   -0.0687   -3.1523   -3.0190 N   0  0  0  0  0  0  0  0  0  0  0  0
    0.1771   -4.1833   -2.2317 C   0  0  0  0  0  0  0  0  0  0  0  0
    0.1868   -5.5971   -2.5254 C   0  0  0  0  0  0  0  0  0  0  0  0
   -0.4692   -6.4886   -1.7956 N   0  0  0  0  0  0  0  0  0  0  0  0
   -0.1617   -7.7761   -2.2410 C   0  0  0  0  0  0  0  0  0  0  0  0
   -0.8356   -8.9641   -1.6375 C   0  0  0  0  0  0  0  0  0  0  0  0
    0.7516   -7.9200   -3.2051 N   0  0  0  0  0  0  0  0  0  0  0  0
    1.2103   -6.3667   -3.6683 S   0  0  0  0  0  0  0  0  0  0  0  0
    2.3373   -1.8552    2.0510 C   0  0  0  0  0  0  0  0  0  0  0  0
    2.7222   -0.6821    1.9956 O   0  0  0  0  0  0  0  0  0  0  0  0
    3.0303   -2.7552    3.0409 C   0  0  0  0  0  0  0  0  0  0  0  0
    3.6137   -3.9774    2.6625 C   0  0  0  0  0  0  0  0  0  0  0  0
    4.3011   -4.7626    3.6017 C   0  0  0  0  0  0  0  0  0  0  0  0
    4.4367   -4.3150    4.9105 C   0  0  0  0  0  0  0  0  0  0  0  0
    5.1193   -5.0536    5.7963 F   0  0  0  0  0  0  0  0  0  0  0  0
    3.8849   -3.1019    5.3027 C   0  0  0  0  0  0  0  0  0  0  0  0
    3.1826   -2.3224    4.3700 C   0  0  0  0  0  0  0  0  0  0  0  0
  2  3  1  0
  2  7  1  0
  2  1  1  1
  3  4  1  0
  3 17  1  0
  4  5  1  0
  5  6  1  0
  6  7  1  0
  6 10  1  0
  7  8  2  0
  8  9  1  0
  9 10  2  0
 10 11  1  0
 11 12  2  0
 11 16  1  0
 12 13  1  0
 13 14  1  0
 13 15  2  0
 15 16  1  0
 17 18  2  0
 17 19  1  0
 19 20  2  0
 19 25  1  0
 20 21  1  0
 21 22  2  0
 22 23  1  0
 22 24  1  0
 24 25  2  0
M  END
>  <DRUGBANK_ID>  (1) 
DB15669

>  <COMMON_NAME>  (1) 
Fezolinetant

>  <CAS_NUMBER>  (1) 
1629229-37-3

>  <UNII>  (1) 
83VNE45KXX

>  <SYNONYMS>  (1) 
Fezolinetant

$$$$
