2RD
     RDKit          3D

 21 21  0  0  0  0  0  0  0  0999 V2000
    1.0953    0.0473   -0.0979 C   0  0  0  0  0  0  0  0  0  0  0  0
    0.6477   -1.0778   -1.0164 C   0  0  0  0  0  0  0  0  0  0  0  0
    1.1479   -2.4227   -0.4883 C   0  0  0  0  0  0  0  0  0  0  0  0
    0.5966   -2.7053    0.9139 C   0  0  0  0  0  0  0  0  0  0  0  0
   -0.9357   -2.7227    0.8953 C   0  0  0  0  0  0  0  0  0  0  0  0
   -1.4283   -3.8240   -0.0484 C   0  0  0  0  0  0  0  0  0  0  0  0
   -0.8869   -5.1821    0.4170 C   0  0  0  0  0  0  0  0  0  0  0  0
   -1.3737   -5.4711    1.8312 C   0  0  0  0  0  0  0  0  0  0  0  0
   -2.8899   -5.4838    1.8255 C   0  0  0  0  0  0  0  0  0  0  0  0
   -3.4089   -6.5636    0.8656 C   0  0  0  0  0  0  0  0  0  0  0  0
   -3.0741   -7.9477    1.3962 C   0  0  0  0  0  0  0  0  0  0  0  0
   -3.6112   -8.1742    2.8151 C   0  0  0  0  0  0  0  0  0  0  0  0
   -5.4360   -8.1346    3.0393 S   0  0  0  0  0  0  0  0  0  0  0  0
   -6.0542   -6.6519    2.3684 C   0  0  0  0  0  0  0  0  0  0  0  0
   -5.6779   -5.4202    2.8235 N   0  0  0  0  0  0  0  0  0  0  0  0
   -6.1495   -4.4337    2.0356 N   0  0  0  0  0  0  0  0  0  0  0  0
   -6.9445   -4.9934    1.1315 N   0  0  0  0  0  0  0  0  0  0  0  0
   -6.9316   -6.3613    1.3332 C   0  0  0  0  0  0  0  0  0  0  0  0
   -7.6781   -7.2902    0.5044 C   0  0  0  0  0  0  0  0  0  0  0  0
   -7.6163   -8.5121    0.6268 O   0  0  0  0  0  0  0  0  0  0  0  0
   -8.4771   -6.7266   -0.4422 O   0  0  0  0  0  0  0  0  0  0  0  0
  1  2  1  0
  2  3  1  0
  3  4  1  0
  4  5  1  0
  6  5  1  0
  6  7  1  0
  7  8  1  0
  9  8  1  0
  9 10  1  0
 11 10  1  0
 11 12  1  0
 12 13  1  0
 13 14  1  0
 14 18  2  0
 14 15  1  0
 15 16  1  0
 17 16  2  0
 18 17  1  0
 19 18  1  0
 19 21  1  0
 20 19  2  0
M  END
>  <DRUGBANK_ID>  (1) 
DB06979

>  <COMMON_NAME>  (1) 
5-(dodecylthio)-1H-1,2,3-triazole-4-carboxylic acid

$$$$
