
     RDKit          3D

 29 32  0  0  0  0  0  0  0  0999 V2000
    1.0598    1.4960   -1.2134 C   0  0  0  0  0  0  0  0  0  0  0  0
    0.4499    2.3221   -2.8187 C   0  0  0  0  0  0  0  0  0  0  0  0
   -0.1973    1.2456   -1.3557 C   0  0  0  0  0  0  0  0  0  0  0  0
    1.0474    0.3763   -2.4835 C   0  0  2  0  0  0  0  0  0  0  0  0
   -0.0364    0.1855   -3.4596 C   0  0  0  0  0  0  0  0  0  0  0  0
   -1.0924   -0.8527   -3.2189 C   0  0  0  0  0  0  0  0  0  0  0  0
   -0.3351   -2.1359   -3.0720 C   0  0  0  0  0  0  0  0  0  0  0  0
    1.7835   -0.9121   -2.2570 C   0  0  2  0  0  0  0  0  0  0  0  0
    0.7541   -1.9888   -1.9854 C   0  0  2  0  0  0  0  0  0  0  0  0
    3.7320   -2.1656   -1.1297 C   0  0  0  0  0  0  0  0  0  0  0  0
    3.0085   -0.8913   -1.2656 C   0  0  0  0  0  0  0  0  0  0  0  0
    2.6443   -3.2136   -0.8621 C   0  0  1  0  0  0  0  0  0  0  0  0
    1.5144   -3.2483   -1.8992 C   0  0  2  0  0  0  0  0  0  0  0  0
    2.2122   -3.5639   -3.2188 C   0  0  0  0  0  0  0  0  0  0  0  0
    3.0360   -4.7332   -2.8216 C   0  0  0  0  0  0  0  0  0  0  0  0
    3.2185   -4.5878   -1.2442 C   0  0  2  0  0  0  0  0  0  0  0  0
    0.7858    3.4515   -3.3228 O   0  0  0  0  0  0  0  0  0  0  0  0
   -0.2795    1.4007   -3.9394 C   0  0  0  0  0  0  0  0  0  0  0  0
    2.5784    1.4176   -2.8880 C   0  0  0  0  0  0  0  0  0  0  0  0
    3.4523    0.0620   -0.6277 O   0  0  0  0  0  0  0  0  0  0  0  0
    2.0757   -2.8799    0.5638 C   0  0  0  0  0  0  0  0  0  0  0  0
    2.4286   -5.6808   -0.4667 C   0  0  0  0  0  0  0  0  0  0  0  0
    2.2377   -6.9813   -1.1913 C   0  0  0  0  0  0  0  0  0  0  0  0
    2.0510   -5.5746    0.6995 O   0  0  0  0  0  0  0  0  0  0  0  0
    2.5932   -8.1166   -0.4072 O   0  0  0  0  0  0  0  0  0  0  0  0
    3.8406   -8.3335    0.0894 C   0  0  0  0  0  0  0  0  0  0  0  0
    4.9100   -7.3027   -0.0856 C   0  0  0  0  0  0  0  0  0  0  0  0
    4.0999   -9.3865    0.6611 O   0  0  0  0  0  0  0  0  0  0  0  0
    4.6216   -4.5486   -1.0344 O   0  0  0  0  0  0  0  0  0  0  0  0
  1  2  1  0
  1  3  1  0
  2 17  2  0
  2 18  1  0
  4  3  1  0
  4 19  1  6
  4  5  1  0
  4  8  1  0
  5 18  2  0
  5  6  1  0
  6  7  1  0
  9  7  1  6
  8  9  1  0
  8 11  1  1
  9 13  1  0
 10 11  1  0
 11 20  2  0
 12 21  1  1
 12 10  1  0
 12 13  1  0
 13 14  1  6
 14 15  1  0
 15 16  1  0
 16 12  1  0
 16 22  1  0
 16 29  1  6
 22 23  1  0
 22 24  2  0
 23 25  1  0
 25 26  1  0
 26 27  1  0
 26 28  2  0
M  END
>  <DRUGBANK_ID>  (1) 
DB01380

>  <COMMON_NAME>  (1) 
Cortisone acetate

>  <CAS_NUMBER>  (1) 
50-04-4

>  <UNII>  (1) 
883WKN7W8X

>  <SYNONYMS>  (1) 
Cortisone 21-acetate; Cortisone acetate; Cortone acetate

$$$$
