317
     RDKit          3D

 31 34  0  0  0  0  0  0  0  0999 V2000
    2.0060    0.5167   -0.0057 Cl  0  0  0  0  0  0  0  0  0  0  0  0
    0.4397   -2.0212   -0.0205 F   0  0  0  0  0  0  0  0  0  0  0  0
    3.6493    5.8784   -6.9351 O   0  0  0  0  0  0  0  0  0  0  0  0
   -0.6872    2.7565   -4.2723 O   0  0  0  0  0  0  0  0  0  0  0  0
    1.4241    4.8284   -3.0996 O   0  0  0  0  0  0  0  0  0  0  0  0
    1.8286    6.6600   -4.6319 N   0  0  0  0  0  0  0  0  0  0  0  0
   -2.7396    2.5323    0.2227 N   0  0  0  0  0  0  0  0  0  0  0  0
   -1.1377    6.3508    0.1154 N   0  0  0  0  0  0  0  0  0  0  0  0
   -2.5638    4.7297    1.1193 N   0  0  0  0  0  0  0  0  0  0  0  0
    0.2099    6.2725   -5.3149 C   0  0  0  0  0  0  0  0  0  0  0  0
    2.4386    7.6225   -5.5163 C   0  0  0  0  0  0  0  0  0  0  0  0
    3.2143    5.5617   -4.5888 C   0  0  0  0  0  0  0  0  0  0  0  0
   -0.2618    4.7577   -6.3085 C   0  0  0  0  0  0  0  0  0  0  0  0
    2.6456    6.9343   -6.8738 C   0  0  0  0  0  0  0  0  0  0  0  0
    3.3906    4.8443   -6.0104 C   0  0  0  0  0  0  0  0  0  0  0  0
   -0.0915    3.0425   -5.6792 C   0  0  0  0  0  0  0  0  0  0  0  0
   -0.6633    3.6030   -3.1128 C   0  0  0  0  0  0  0  0  0  0  0  0
   -1.6105    4.2161   -0.9867 C   0  0  0  0  0  0  0  0  0  0  0  0
   -1.4752    3.3288   -2.1200 C   0  0  0  0  0  0  0  0  0  0  0  0
    0.1493    4.7261   -2.7209 C   0  0  0  0  0  0  0  0  0  0  0  0
   -0.9753    5.4934   -0.8974 C   0  0  0  0  0  0  0  0  0  0  0  0
   -0.0999    5.7588   -1.8134 C   0  0  0  0  0  0  0  0  0  0  0  0
   -2.3108    3.8769    0.1057 C   0  0  0  0  0  0  0  0  0  0  0  0
   -1.9210    1.3871    0.1327 C   0  0  0  0  0  0  0  0  0  0  0  0
   -1.9443    5.9303    1.0651 C   0  0  0  0  0  0  0  0  0  0  0  0
    1.3747    4.2747   -4.3376 C   0  0  0  0  0  0  0  0  0  0  0  0
   -0.5081    1.4736    0.1122 C   0  0  0  0  0  0  0  0  0  0  0  0
   -2.5013    0.1203    0.0520 C   0  0  0  0  0  0  0  0  0  0  0  0
    0.2942    0.3403    0.0339 C   0  0  0  0  0  0  0  0  0  0  0  0
   -1.6943   -1.0229    0.0087 C   0  0  0  0  0  0  0  0  0  0  0  0
   -0.3053   -0.9074    0.0035 C   0  0  0  0  0  0  0  0  0  0  0  0
  1 29  1  0
  2 31  1  0
  3 14  1  0
  3 15  1  0
  4 16  1  0
  4 17  1  0
  5 20  1  0
  5 26  1  0
  6 10  1  0
  6 11  1  0
  6 12  1  0
  7 23  1  0
  7 24  1  0
  8 21  2  0
  8 25  1  0
  9 23  1  0
  9 25  2  0
 10 13  1  0
 11 14  1  0
 12 15  1  0
 13 16  1  0
 17 19  2  0
 17 20  1  0
 18 19  1  0
 18 21  1  0
 18 23  2  0
 20 22  2  0
 21 22  1  0
 24 27  2  0
 24 28  1  0
 27 29  1  0
 28 30  2  0
 29 31  2  0
 30 31  1  0
M  END
>  <DRUGBANK_ID>  (1) 
DB00317

>  <SECONDARY_ACCESSION_NUMBERS>  (1) 
APRD00997; DB07998

>  <COMMON_NAME>  (1) 
Gefitinib

>  <CAS_NUMBER>  (1) 
184475-35-2

>  <UNII>  (1) 
S65743JHBS

>  <SYNONYMS>  (1) 
4-(3'-chloro-4'-fluoroanilino)-7-methoxy-6-(3-morpholinopropoxy)quinazoline; Gefitinib; N-(3-chloro-4-fluorophenyl)-7-methoxy-6-(3-(4-morpholinyl)propoxy)-4-quinazolinamine

$$$$
