474
     RDKit          3D

 32 35  0  0  0  0  0  0  0  0999 V2000
    3.2256   -0.1308    1.6183 C   0  0  1  0  0  0  0  0  0  0  0  0
    2.6413   -1.3946    2.3267 C   0  0  1  0  0  0  0  0  0  0  0  0
    3.6251   -2.2670    3.1576 C   0  0  0  0  0  0  0  0  0  0  0  0
    3.0101   -3.1036    4.0867 N   0  0  0  0  0  0  0  0  0  0  0  0
    4.7662    0.0309    1.8012 C   0  0  0  0  0  0  0  0  0  0  0  0
    1.3986   -1.0349    3.0664 N   0  0  0  0  0  0  0  0  0  0  0  0
    4.8280   -2.3994    2.9252 O   0  0  0  0  0  0  0  0  0  0  0  0
    5.5789   -0.0744    0.8860 O   0  0  0  0  0  0  0  0  0  0  0  0
    5.3618    0.2989    3.0039 N   0  0  0  0  0  0  0  0  0  0  0  0
    4.6973    0.2806    4.2738 C   0  0  0  0  0  0  0  0  0  0  0  0
    6.8146    0.0956    2.9707 C   0  0  0  0  0  0  0  0  0  0  0  0
    3.7002   -3.3252    5.3614 C   0  0  0  0  0  0  0  0  0  0  0  0
    4.1940   -4.7580    5.3634 C   0  0  0  0  0  0  0  0  0  0  0  0
    3.2602   -5.4803    4.4220 C   0  0  0  0  0  0  0  0  0  0  0  0
    2.7041   -4.4005    3.5043 C   0  0  0  0  0  0  0  0  0  0  0  0
    5.4745   -4.8493    4.9506 F   0  0  0  0  0  0  0  0  0  0  0  0
    5.0521   -0.0793   -1.6155 C   0  0  1  0  0  0  0  0  0  0  0  0
    4.5044    1.2649   -0.9887 C   0  0  0  0  0  0  0  0  0  0  0  0
    3.0253    1.1771   -0.6578 C   0  0  0  0  0  0  0  0  0  0  0  0
    2.6690   -0.0948    0.1407 C   0  0  1  0  0  0  0  0  0  0  0  0
    3.0339   -1.3454   -0.6731 C   0  0  0  0  0  0  0  0  0  0  0  0
    4.5305   -1.4152   -0.9549 C   0  0  0  0  0  0  0  0  0  0  0  0
    3.6489    0.0937   -5.7002 C   0  0  0  0  0  0  0  0  0  0  0  0
    4.4799    1.1289   -5.1841 C   0  0  0  0  0  0  0  0  0  0  0  0
    4.9769    1.0305   -3.9363 C   0  0  0  0  0  0  0  0  0  0  0  0
    4.6507   -0.1058   -3.0782 C   0  0  0  0  0  0  0  0  0  0  0  0
    3.9205   -1.0989   -3.6184 C   0  0  0  0  0  0  0  0  0  0  0  0
    3.4039   -0.9953   -4.8800 N   0  0  0  0  0  0  0  0  0  0  0  0
    2.5806   -1.8688   -5.4919 N   0  0  0  0  0  0  0  0  0  0  0  0
    2.4152   -1.2895   -6.6761 C   0  0  0  0  0  0  0  0  0  0  0  0
    3.0433   -0.0893   -6.8520 N   0  0  0  0  0  0  0  0  0  0  0  0
    4.1288   -5.2951    6.6024 F   0  0  0  0  0  0  0  0  0  0  0  0
  1  5  1  6
  1  2  1  0
  2  6  1  1
  2  3  1  0
  3  7  2  0
  3  4  1  0
  4 15  1  0
  4 12  1  0
  5  8  2  0
  5  9  1  0
  9 10  1  0
  9 11  1  0
 12 13  1  0
 13 14  1  0
 13 32  1  0
 13 16  1  0
 14 15  1  0
 17 18  1  0
 17 22  1  0
 17 26  1  6
 18 19  1  0
 20 19  1  6
 20 21  1  0
 20  1  1  0
 21 22  1  0
 23 28  1  0
 23 31  2  0
 23 24  1  0
 24 25  2  0
 25 26  1  0
 26 27  2  0
 27 28  1  0
 28 29  1  0
 29 30  2  0
 30 31  1  0
M  END
>  <DRUGBANK_ID>  (1) 
DB07092

>  <COMMON_NAME>  (1) 
(2S,3S)-3-AMINO-4-(3,3-DIFLUOROPYRROLIDIN-1-YL)-N,N-DIMETHYL-4-OXO-2-(TRANS-4-[1,2,4]TRIAZOLO[1,5-A]PYRIDIN-6-YLCYCLOHEXYL)BUTANAMIDE

$$$$
