
     RDKit          3D

 27 29  0  0  0  0  0  0  0  0999 V2000
    9.1120   -4.4432   -1.2386 C   0  0  0  0  0  0  0  0  0  0  0  0
   10.4384   -4.3988   -0.5175 C   0  0  0  0  0  0  0  0  0  0  0  0
   11.5405   -4.8743   -1.1504 N   0  0  0  0  0  0  0  0  0  0  0  0
   12.7308   -4.7731   -0.4754 C   0  0  0  0  0  0  0  0  0  0  0  0
   13.9421   -5.3185   -1.1688 C   0  0  0  0  0  0  0  0  0  0  0  0
   12.8105   -4.1937    0.7959 C   0  0  0  0  0  0  0  0  0  0  0  0
   11.7080   -3.7267    1.4434 N   0  0  0  0  0  0  0  0  0  0  0  0
   10.5275   -3.8720    0.7774 C   0  0  0  0  0  0  0  0  0  0  0  0
    9.3551   -3.3418    1.4541 C   0  0  0  0  0  0  0  0  0  0  0  0
    8.2377   -4.1402    1.7585 C   0  0  0  0  0  0  0  0  0  0  0  0
    7.0859   -3.5805    2.3063 C   0  0  0  0  0  0  0  0  0  0  0  0
    7.0356   -2.2071    2.5608 C   0  0  0  0  0  0  0  0  0  0  0  0
    8.1282   -1.4202    2.1675 C   0  0  0  0  0  0  0  0  0  0  0  0
    9.2906   -1.9745    1.6777 C   0  0  0  0  0  0  0  0  0  0  0  0
    5.8651   -1.6036    3.3264 C   0  0  1  0  0  0  0  0  0  0  0  0
    5.6633   -2.3334    4.6725 C   0  0  0  0  0  0  0  0  0  0  0  0
    6.8353   -2.0623    5.6197 C   0  0  0  0  0  0  0  0  0  0  0  0
    6.9801   -0.5591    5.9240 C   0  0  2  0  0  0  0  0  0  0  0  0
    5.7816    0.0294    6.6785 C   0  0  0  0  0  0  0  0  0  0  0  0
    5.5242   -0.6634    7.9919 C   0  0  0  0  0  0  0  0  0  0  0  0
    5.6139    0.1363    9.0700 O   0  0  0  0  0  0  0  0  0  0  0  0
    5.2265   -1.8486    8.0961 O   0  0  0  0  0  0  0  0  0  0  0  0
    7.1709    0.2103    4.6121 C   0  0  0  0  0  0  0  0  0  0  0  0
    6.0498   -0.0890    3.5886 C   0  0  0  0  0  0  0  0  0  0  0  0
   14.1174   -4.0563    1.5338 C   0  0  0  0  0  0  0  0  0  0  0  0
   14.0825   -3.4518    2.7623 N   0  0  0  0  0  0  0  0  0  0  0  0
   15.1935   -4.4507    1.0989 O   0  0  0  0  0  0  0  0  0  0  0  0
  1  2  1  0
  2  3  2  0
  2  8  1  0
  3  4  1  0
  4  5  1  0
  4  6  2  0
  6  7  1  0
  6 25  1  0
  7  8  2  0
  8  9  1  0
  9 10  2  0
  9 14  1  0
 10 11  1  0
 11 12  2  0
 12 13  1  0
 13 14  2  0
 15 16  1  0
 15 24  1  0
 15 12  1  1
 16 17  1  0
 18 17  1  0
 18 19  1  6
 18 23  1  0
 19 20  1  0
 20 21  1  0
 20 22  2  0
 23 24  1  0
 25 26  1  0
 25 27  2  0
M  END
>  <DRUGBANK_ID>  (1) 
DB14949

>  <COMMON_NAME>  (1) 
AZD-7687

>  <CAS_NUMBER>  (1) 
1166827-44-6

>  <UNII>  (1) 
6QTJ9P2NYT

$$$$
