0AG
     RDKit          3D

 14 13  0  0  0  0  0  0  0  0999 V2000
    3.5126   -3.1444   -5.9773 C   0  0  0  0  0  0  0  0  0  0  0  0
    2.2042   -2.8456   -5.2585 C   0  0  0  0  0  0  0  0  0  0  0  0
    2.0563   -3.5516   -4.0106 O   0  0  0  0  0  0  0  0  0  0  0  0
    2.0132   -4.9106   -4.0455 C   0  0  0  0  0  0  0  0  0  0  0  0
    2.0474   -5.5919   -5.0655 O   0  0  0  0  0  0  0  0  0  0  0  0
    1.9794   -5.4961   -2.8072 N   0  0  0  0  0  0  0  0  0  0  0  0
    1.8733   -4.7562   -1.5512 C   0  0  2  0  0  0  0  0  0  0  0  0
    3.0228   -3.7417   -1.4737 C   0  0  0  0  0  0  0  0  0  0  0  0
    3.0484   -2.7193   -0.8063 O   0  0  0  0  0  0  0  0  0  0  0  0
    2.0180   -5.6844   -0.3238 C   0  0  0  0  0  0  0  0  0  0  0  0
    1.7868   -4.9517    1.0170 C   0  0  0  0  0  0  0  0  0  0  0  0
    0.3740   -4.3769    1.0890 C   0  0  0  0  0  0  0  0  0  0  0  0
    2.0335   -5.8787    2.2051 C   0  0  0  0  0  0  0  0  0  0  0  0
    4.1274   -4.1732   -2.1307 O   0  0  0  0  0  0  0  0  0  0  0  0
  1  2  1  0
  2  3  1  0
  3  4  1  0
  4  5  2  0
  4  6  1  0
  7 10  1  1
  7  8  1  0
  7  6  1  0
  8  9  2  0
  8 14  1  0
 10 11  1  0
 11 12  1  0
 11 13  1  0
M  END
>  <DRUGBANK_ID>  (1) 
DB06839

>  <COMMON_NAME>  (1) 
N-(ethoxycarbonyl)-L-leucine

$$$$
