K88
     RDKit          3D

 26 29  0  0  0  0  0  0  0  0999 V2000
    0.9752   -0.0801    0.0461 C   0  0  0  0  0  0  0  0  0  0  0  0
    0.4587   -1.4178   -0.3683 N   0  0  0  0  0  0  0  0  0  0  0  0
   -1.0200   -1.4268   -0.2850 C   0  0  0  0  0  0  0  0  0  0  0  0
    1.0898   -1.8788   -1.8984 S   0  0  0  0  0  0  0  0  0  0  0  0
    0.4767   -1.0086   -2.8825 O   0  0  0  0  0  0  0  0  0  0  0  0
    2.5299   -1.9627   -1.7836 O   0  0  0  0  0  0  0  0  0  0  0  0
    0.4824   -3.5423   -2.1765 C   0  0  0  0  0  0  0  0  0  0  0  0
    1.1553   -4.6472   -1.5992 C   0  0  0  0  0  0  0  0  0  0  0  0
    0.7432   -5.9288   -1.9552 C   0  0  0  0  0  0  0  0  0  0  0  0
   -0.5801   -3.7211   -3.0912 C   0  0  0  0  0  0  0  0  0  0  0  0
   -0.9805   -5.0050   -3.4525 C   0  0  0  0  0  0  0  0  0  0  0  0
   -0.3022   -6.0677   -2.8846 C   0  0  0  0  0  0  0  0  0  0  0  0
   -0.5411   -7.4013   -3.1718 N   0  0  0  0  0  0  0  0  0  0  0  0
    0.3011   -8.2341   -2.4739 C   0  0  0  0  0  0  0  0  0  0  0  0
    0.3118   -9.4468   -2.5779 O   0  0  0  0  0  0  0  0  0  0  0  0
    1.1675   -7.3198   -1.6325 C   0  0  0  0  0  0  0  0  0  0  0  0
    2.0857   -7.7600   -0.7498 C   0  0  0  0  0  0  0  0  0  0  0  0
    2.3794   -9.1426   -0.5333 C   0  0  0  0  0  0  0  0  0  0  0  0
    2.3168   -9.9667    0.5806 C   0  0  0  0  0  0  0  0  0  0  0  0
    2.7167  -11.2733    0.1894 C   0  0  0  0  0  0  0  0  0  0  0  0
    2.7670  -12.5494    0.9655 C   0  0  0  0  0  0  0  0  0  0  0  0
    3.5376  -13.6465    0.2011 C   0  0  0  0  0  0  0  0  0  0  0  0
    3.1793  -13.6716   -1.2965 C   0  0  0  0  0  0  0  0  0  0  0  0
    3.5369  -12.3398   -1.9843 C   0  0  0  0  0  0  0  0  0  0  0  0
    3.0465  -11.2075   -1.1473 C   0  0  0  0  0  0  0  0  0  0  0  0
    2.8339   -9.9258   -1.5809 N   0  0  0  0  0  0  0  0  0  0  0  0
  1  2  1  0
  2  3  1  0
  2  4  1  0
  4  5  2  0
  4  6  2  0
  4  7  1  0
  7  8  2  0
  7 10  1  0
  8  9  1  0
  9 12  2  0
  9 16  1  0
 10 11  2  0
 11 12  1  0
 12 13  1  0
 13 14  1  0
 14 15  2  0
 14 16  1  0
 16 17  2  0
 17 18  1  0
 18 19  2  0
 18 26  1  0
 19 20  1  0
 20 21  1  0
 20 25  2  0
 21 22  1  0
 22 23  1  0
 23 24  1  0
 24 25  1  0
 25 26  1  0
M  END
>  <DRUGBANK_ID>  (1) 
DB08039

>  <COMMON_NAME>  (1) 
(3Z)-N,N-DIMETHYL-2-OXO-3-(4,5,6,7-TETRAHYDRO-1H-INDOL-2-YLMETHYLIDENE)-2,3-DIHYDRO-1H-INDOLE-5-SULFONAMIDE

$$$$
