
     RDKit          3D

 10 10  0  0  0  0  0  0  0  0999 V2000
   -0.7299    2.5505   -0.0006 C   0  0  0  0  0  0  0  0  0  0  0  0
   -0.0182    1.2255    0.0046 C   0  0  0  0  0  0  0  0  0  0  0  0
    1.3851    1.1953    0.0090 C   0  0  0  0  0  0  0  0  0  0  0  0
    2.0490   -0.0271   -0.0079 C   0  0  0  0  0  0  0  0  0  0  0  0
    1.3405   -1.2236   -0.0207 C   0  0  0  0  0  0  0  0  0  0  0  0
   -0.0664   -1.2236   -0.0025 C   0  0  0  0  0  0  0  0  0  0  0  0
   -0.7386    0.0134    0.0009 C   0  0  0  0  0  0  0  0  0  0  0  0
   -2.4756    0.0710   -0.0004 Cl  0  0  0  0  0  0  0  0  0  0  0  0
   -0.7825   -2.5463    0.0295 C   0  0  0  0  0  0  0  0  0  0  0  0
    3.4119   -0.0880   -0.0077 O   0  0  0  0  0  0  0  0  0  0  0  0
  1  2  1  0
  2  3  2  0
  2  7  1  0
  3  4  1  0
  4  5  2  0
  4 10  1  0
  5  6  1  0
  6  7  2  0
  6  9  1  0
  7  8  1  0
M  END
>  <DRUGBANK_ID>  (1) 
DB11121

>  <COMMON_NAME>  (1) 
Chloroxylenol

>  <CAS_NUMBER>  (1) 
88-04-0

>  <UNII>  (1) 
0F32U78V2Q

>  <SYNONYMS>  (1) 
2-chloro-5-hydroxy-1,3-dimethylbenzene; 2-chloro-5-hydroxy-m-xylene; 2-Chloro-m-xylenol; 3,5-dimethyl-4-chlorophenol; 4-chloro-1-hydroxy-3,5-dimethylbenzene; 4-chloro-3,5-dimethylphenol; 4-chloro-m-xylenol; chloro-xylenol; Chloroxylenol; cloroxilenol; p-chloro-3,5-xylenol; p-chloro-m-xylenol; parachlorometaxylenol; PCMX

$$$$
