TBL
     RDKit          3D

 17 17  0  0  0  0  0  0  0  0999 V2000
    0.8762    0.3382   -0.1186 O   0  0  0  0  0  0  0  0  0  0  0  0
    2.2901    0.0388   -0.1806 S   0  0  0  0  0  0  0  0  0  0  0  0
    2.7988   -1.2582    0.1836 O   0  0  0  0  0  0  0  0  0  0  0  0
    3.0557    1.1291    0.8625 N   0  0  0  0  0  0  0  0  0  0  0  0
    4.5321    1.1373    1.0622 C   0  0  2  0  0  0  0  0  0  0  0  0
    5.2255    1.6234   -0.2007 C   0  0  0  0  0  0  0  0  0  0  0  0
    5.1827   -0.1379    1.5910 C   0  0  0  0  0  0  0  0  0  0  0  0
    6.3947   -0.3161    1.5874 O   0  0  0  0  0  0  0  0  0  0  0  0
    4.3530   -1.0333    2.1652 O   0  0  0  0  0  0  0  0  0  0  0  0
    2.8662    0.4556   -1.7981 C   0  0  0  0  0  0  0  0  0  0  0  0
    2.8274    1.7958   -2.1900 C   0  0  0  0  0  0  0  0  0  0  0  0
    3.4303    2.1839   -3.3845 C   0  0  0  0  0  0  0  0  0  0  0  0
    4.0464    1.2382   -4.2061 C   0  0  0  0  0  0  0  0  0  0  0  0
    4.1349   -0.0919   -3.7771 C   0  0  0  0  0  0  0  0  0  0  0  0
    3.5157   -0.4989   -2.5890 C   0  0  0  0  0  0  0  0  0  0  0  0
    4.5798    1.5070   -5.4382 O   0  0  0  0  0  0  0  0  0  0  0  0
    4.3347    2.8151   -5.9533 C   0  0  0  0  0  0  0  0  0  0  0  0
  2  1  2  0
  2  4  1  0
  3  2  2  0
  5  4  1  0
  5  6  1  6
  7  5  1  0
  7  9  1  0
  8  7  2  0
 10  2  1  0
 10 11  2  0
 12 11  1  0
 13 12  2  0
 14 13  1  0
 14 15  2  0
 15 10  1  0
 16 13  1  0
 17 16  1  0
M  END
>  <DRUGBANK_ID>  (1) 
DB08599

>  <COMMON_NAME>  (1) 
N-[(4-methoxyphenyl)sulfonyl]-D-alanine

$$$$
