1553
     RDKit          3D

 23 26  0  0  1  0  0  0  0  0999 V2000
   -2.1664    0.0711   -0.0598 Cl  0  0  0  0  0  0  0  0  0  0  0  0
    4.2963    3.8827    1.9559 Cl  0  0  0  0  0  0  0  0  0  0  0  0
   -1.0634    3.0291    0.8781 O   0  0  0  0  0  0  0  0  0  0  0  0
   -0.9704    4.8610   -4.4358 O   0  0  0  0  0  0  0  0  0  0  0  0
   -1.0181    4.0333   -1.3681 N   0  0  0  0  0  0  0  0  0  0  0  0
    0.6173    3.5603   -2.9758 N   0  0  0  0  0  0  0  0  0  0  0  0
   -0.2923    2.9690   -0.3369 C   0  0  0  0  0  0  0  0  0  0  0  0
   -2.3574    4.0855   -0.8302 C   0  0  0  0  0  0  0  0  0  0  0  0
    1.0392    3.6030   -0.2938 C   0  0  0  0  0  0  0  0  0  0  0  0
   -2.1269    3.9807    0.6726 C   0  0  0  0  0  0  0  0  0  0  0  0
   -0.3137    5.3678   -2.1973 C   0  0  0  0  0  0  0  0  0  0  0  0
    0.2463    1.3394   -0.4314 C   0  0  0  0  0  0  0  0  0  0  0  0
    1.5448    3.8727   -1.6083 C   0  0  0  0  0  0  0  0  0  0  0  0
   -0.1688    4.6651   -3.4456 C   0  0  0  0  0  0  0  0  0  0  0  0
    1.8290    3.6391    0.8917 C   0  0  0  0  0  0  0  0  0  0  0  0
   -0.4548    0.1408   -0.2153 C   0  0  0  0  0  0  0  0  0  0  0  0
    1.6907    1.0727   -0.3472 C   0  0  0  0  0  0  0  0  0  0  0  0
    2.6033    4.7673   -1.5393 C   0  0  0  0  0  0  0  0  0  0  0  0
    3.0840    4.1818    0.7824 C   0  0  0  0  0  0  0  0  0  0  0  0
    3.3890    4.8830   -0.3750 C   0  0  0  0  0  0  0  0  0  0  0  0
    0.2349   -1.1375   -0.0710 C   0  0  0  0  0  0  0  0  0  0  0  0
    2.3665   -0.1306   -0.0973 C   0  0  0  0  0  0  0  0  0  0  0  0
    1.6298   -1.2713   -0.0174 C   0  0  0  0  0  0  0  0  0  0  0  0
  1 16  1  0
  2 19  1  0
  3  7  1  0
  3 10  1  0
  4 14  2  0
  5  7  1  0
  5  8  1  0
  5 11  1  0
  6 13  1  0
  6 14  1  0
  7  9  1  0
  7 12  1  0
  8 10  1  0
  9 13  2  0
  9 15  1  0
 11 14  1  0
 12 16  2  0
 12 17  1  0
 13 18  1  0
 15 19  2  0
 16 21  1  0
 17 22  2  0
 18 20  2  0
 19 20  1  0
 21 23  2  0
 22 23  1  0
M  END
>  <DRUGBANK_ID>  (1) 
DB01553

>  <COMMON_NAME>  (1) 
Cloxazolam

>  <CAS_NUMBER>  (1) 
24166-13-0

>  <UNII>  (1) 
GYL649Z0HY

>  <SYNONYMS>  (1) 
Cloxazolam; Cloxazolamum; Cloxazolazepam

$$$$
