
     RDKit          3D

 33 36  0  0  1  0  0  0  0  0999 V2000
    1.0068   -0.0792   -0.0928 C   0  0  0  0  0  0  0  0  0  0  0  0
    0.7179    1.2990    0.1007 O   0  0  0  0  0  0  0  0  0  0  0  0
    1.0260    1.7735    1.3476 C   0  0  0  0  0  0  0  0  0  0  0  0
   -0.0124    2.4233    1.9907 C   0  0  0  0  0  0  0  0  0  0  0  0
    0.2257    3.1905    3.1429 C   0  0  0  0  0  0  0  0  0  0  0  0
   -1.0272    4.3591    3.3752 Cl  0  0  0  0  0  0  0  0  0  0  0  0
    1.4718    3.1643    3.8097 C   0  0  0  0  0  0  0  0  0  0  0  0
    2.5037    2.4716    3.1473 C   0  0  0  0  0  0  0  0  0  0  0  0
    2.3119    1.8442    1.8901 C   0  0  0  0  0  0  0  0  0  0  0  0
    3.5055    1.3387    1.1383 C   0  0  0  0  0  0  0  0  0  0  0  0
    1.7912    3.7952    5.1165 C   0  0  0  0  0  0  0  0  0  0  0  0
    1.3873    3.2258    6.3134 N   0  0  0  0  0  0  0  0  0  0  0  0
    1.7068    3.8793    7.4194 C   0  0  0  0  0  0  0  0  0  0  0  0
    2.7625    5.1978    7.0273 S   0  0  0  0  0  0  0  0  0  0  0  0
    2.6472    4.8516    5.3320 C   0  0  0  0  0  0  0  0  0  0  0  0
    3.4235    5.6630    4.3668 C   0  0  0  0  0  0  0  0  0  0  0  0
    1.3177    3.4866    8.7008 N   0  0  0  0  0  0  0  0  0  0  0  0
    1.8084    4.1156    9.9372 C   0  0  0  0  0  0  0  0  0  0  0  0
    0.6687    4.7517   10.7163 C   0  0  0  0  0  0  0  0  0  0  0  0
   -0.3089    5.2973   11.3845 C   0  0  0  0  0  0  0  0  0  0  0  0
    0.4042    2.3209    8.9265 C   0  0  1  0  0  0  0  0  0  0  0  0
   -1.0463    2.5776    8.4059 C   0  0  0  0  0  0  0  0  0  0  0  0
   -1.0920    2.6579    6.9275 C   0  0  0  0  0  0  0  0  0  0  0  0
   -1.4565    4.0001    6.3531 C   0  0  0  0  0  0  0  0  0  0  0  0
   -2.2651    2.7718    6.0219 C   0  0  0  0  0  0  0  0  0  0  0  0
    0.9664    0.9620    8.4913 C   0  0  0  0  0  0  0  0  0  0  0  0
    2.0861    0.8268    7.6619 C   0  0  0  0  0  0  0  0  0  0  0  0
    2.4583   -0.3797    7.0930 C   0  0  0  0  0  0  0  0  0  0  0  0
    1.7744   -1.5421    7.4421 C   0  0  0  0  0  0  0  0  0  0  0  0
    2.2223   -2.8512    6.8893 C   0  0  0  0  0  0  0  0  0  0  0  0
    0.7098   -1.4430    8.3315 C   0  0  0  0  0  0  0  0  0  0  0  0
    0.0485   -2.5584    8.6985 F   0  0  0  0  0  0  0  0  0  0  0  0
    0.2900   -0.2212    8.8483 C   0  0  0  0  0  0  0  0  0  0  0  0
  1  2  1  0
  2  3  1  0
  3  4  2  0
  3  9  1  0
  4  5  1  0
  5  6  1  0
  5  7  2  0
  7  8  1  0
  7 11  1  0
  8  9  2  0
  9 10  1  0
 11 12  1  0
 11 15  2  0
 12 13  2  0
 13 14  1  0
 13 17  1  0
 14 15  1  0
 15 16  1  0
 17 18  1  0
 18 19  1  0
 19 20  3  0
 21 17  1  0
 21 22  1  6
 21 26  1  0
 22 23  1  0
 23 24  1  0
 23 25  1  0
 24 25  1  0
 26 27  2  0
 26 33  1  0
 27 28  1  0
 28 29  2  0
 29 30  1  0
 29 31  1  0
 31 32  1  0
 31 33  2  0
M  END
>  <DRUGBANK_ID>  (1) 
DB18518

>  <COMMON_NAME>  (1) 
Crinecerfont

>  <CAS_NUMBER>  (1) 
752253-39-7

>  <UNII>  (1) 
MFT24BX55I

$$$$
