269
     RDKit          3D

 11 11  0  0  0  0  0  0  0  0999 V2000
    1.4045    2.2616   -2.8355 C   0  0  0  0  0  0  0  0  0  0  0  0
    1.3846    2.9234   -4.0628 C   0  0  0  0  0  0  0  0  0  0  0  0
    1.3786    4.3157   -4.1099 C   0  0  0  0  0  0  0  0  0  0  0  0
    1.3204    5.0473   -2.9272 C   0  0  0  0  0  0  0  0  0  0  0  0
    1.3039    4.3853   -1.7050 C   0  0  0  0  0  0  0  0  0  0  0  0
    1.4203    2.9880   -1.6322 C   0  0  0  0  0  0  0  0  0  0  0  0
    1.6977    2.2595   -0.3280 C   0  0  2  0  0  0  0  0  0  0  0  0
    0.7348    1.2213   -0.1664 O   0  0  0  0  0  0  0  0  0  0  0  0
    1.6932    3.1780    0.9027 C   0  0  0  0  0  0  0  0  0  0  0  0
    2.1052    2.5154    2.2050 C   0  0  0  0  0  0  0  0  0  0  0  0
    3.7900    1.9504    2.1540 Cl  0  0  0  0  0  0  0  0  0  0  0  0
  1  2  2  0
  1  6  1  0
  2  3  1  0
  3  4  2  0
  4  5  1  0
  5  6  2  0
  7  9  1  0
  7  8  1  1
  7  6  1  0
  9 10  1  0
 10 11  1  0
M  END
>  <DRUGBANK_ID>  (1) 
DB06934

>  <COMMON_NAME>  (1) 
(1R)-3-chloro-1-phenylpropan-1-ol

>  <UNII>  (1) 
4GCY8M2PYD

$$$$
