HMDB01062.mol
     RDKit          3D

 19 19  0  0  0  0  0  0  0  0999 V2000
    0.7257    1.3337   -0.2314 C   0  0  1  0  0  0  0  0  0  0  0  0
    1.4499    0.0581    0.2296 C   0  0  1  0  0  0  0  0  0  0  0  0
    0.6959   -1.2322   -0.1317 C   0  0  2  0  0  0  0  0  0  0  0  0
   -0.6677   -1.1985    0.2941 O   0  0  0  0  0  0  0  0  0  0  0  0
   -1.3562   -0.0580   -0.2335 C   0  0  1  0  0  0  0  0  0  0  0  0
   -0.7473    1.2952    0.2334 C   0  0  2  0  0  0  0  0  0  0  0  0
   -1.5925    2.3958   -0.2648 N   0  0  0  0  0  0  0  0  0  0  0  0
    2.7776   -0.0083   -0.3049 O   0  0  0  0  0  0  0  0  0  0  0  0
    1.5222   -2.4127    0.4217 C   0  0  0  0  0  0  0  0  0  0  0  0
    1.4593    2.4552    0.2552 O   0  0  0  0  0  0  0  0  0  0  0  0
   -1.4630   -0.1427   -1.6542 O   0  0  0  0  0  0  0  0  0  0  0  0
   -1.5685    3.6891    0.1905 C   0  0  0  0  0  0  0  0  0  0  0  0
   -2.7736    4.5059   -0.2121 C   0  0  0  0  0  0  0  0  0  0  0  0
   -0.6827    4.1487    0.9184 O   0  0  0  0  0  0  0  0  0  0  0  0
    0.9015   -3.4105    1.1820 O   0  0  0  0  0  0  0  0  0  0  0  0
    0.0050   -3.1778    2.4768 P   0  0  0  0  0  0  0  0  0  0  0  0
   -1.4403   -3.3111    1.8227 O   0  0  0  0  0  0  0  0  0  0  0  0
    0.2698   -4.5998    3.1516 O   0  0  0  0  0  0  0  0  0  0  0  0
    0.2506   -1.9717    3.3100 O   0  0  0  0  0  0  0  0  0  0  0  0
  1  2  1  0
  1 10  1  1
  2  3  1  0
  2  8  1  6
  3  4  1  0
  3  9  1  1
  4  5  1  0
  5  6  1  0
  5 11  1  6
  6  1  1  0
  6  7  1  6
  7 12  1  0
  9 15  1  0
 12 13  1  0
 12 14  2  0
 15 16  1  0
 16 17  1  0
 16 18  1  0
 16 19  2  0
M  END
>  <DRUGBANK_ID>  (1) 
DB03951

>  <SECONDARY_ACCESSION_NUMBERS>  (1) 
EXPT00050

>  <COMMON_NAME>  (1) 
N-acetyl-D-glucosamine-6-phosphate

>  <SYNONYMS>  (1) 
2-acetamido-2-deoxy-6-O-phosphono-D-glucopyranose

$$$$
