
     RDKit          3D

 15 15  0  0  1  0  0  0  0  0999 V2000
    1.1795    0.0418    0.1714 C   0  0  0  0  0  0  0  0  0  0  0  0
    0.6206    1.3485   -0.3852 C   0  0  0  0  0  0  0  0  0  0  0  0
    1.0347    1.6228   -1.8303 C   0  0  0  0  0  0  0  0  0  0  0  0
    0.5718    0.5480   -2.8108 C   0  0  0  0  0  0  0  0  0  0  0  0
   -0.8967    0.3687   -2.8467 N   0  0  0  0  0  0  0  0  0  0  0  0
   -1.3340   -0.9009   -2.2058 C   0  0  0  0  0  0  0  0  0  0  0  0
   -0.9725   -2.2004   -2.9657 C   0  0  2  0  0  0  0  0  0  0  0  0
    0.4203   -2.5181   -2.8633 O   0  0  0  0  0  0  0  0  0  0  0  0
   -1.4132   -2.1229   -4.4361 C   0  0  1  0  0  0  0  0  0  0  0  0
   -2.8318   -2.2785   -4.5258 O   0  0  0  0  0  0  0  0  0  0  0  0
   -0.9890   -0.7886   -5.0793 C   0  0  1  0  0  0  0  0  0  0  0  0
   -1.4234   -0.7422   -6.4405 O   0  0  0  0  0  0  0  0  0  0  0  0
   -1.4343    0.4410   -4.2381 C   0  0  1  0  0  0  0  0  0  0  0  0
   -2.9763    0.6559   -4.2252 C   0  0  0  0  0  0  0  0  0  0  0  0
   -3.3185    1.8404   -3.5095 O   0  0  0  0  0  0  0  0  0  0  0  0
  1  2  1  0
  2  3  1  0
  3  4  1  0
  4  5  1  0
  5  6  1  0
  7  6  1  0
  7  8  1  6
  9  7  1  0
  9 11  1  0
  9 10  1  1
 11 13  1  0
 11 12  1  6
 13  5  1  0
 13 14  1  1
 14 15  1  0
M  END
>  <DRUGBANK_ID>  (1) 
DB14872

>  <COMMON_NAME>  (1) 
Lucerastat

>  <CAS_NUMBER>  (1) 
141206-42-0

>  <UNII>  (1) 
GVS3YDM418

>  <SYNONYMS>  (1) 
Lucerastat

$$$$
