4FC
     RDKit          3D

 16 17  0  0  0  0  0  0  0  0999 V2000
    0.1639    1.2101   -0.0019 C   0  0  0  0  0  0  0  0  0  0  0  0
    0.8406   -0.0037    0.0003 C   0  0  0  0  0  0  0  0  0  0  0  0
    0.1514   -1.2093    0.0064 C   0  0  0  0  0  0  0  0  0  0  0  0
   -1.2419   -1.2006    0.0115 C   0  0  0  0  0  0  0  0  0  0  0  0
   -1.9513    0.0122    0.0173 C   0  0  0  0  0  0  0  0  0  0  0  0
   -1.2313    1.2189    0.0090 C   0  0  0  0  0  0  0  0  0  0  0  0
   -4.1227    0.5809   -1.0528 C   0  0  0  0  0  0  0  0  0  0  0  0
   -3.4146    0.0031    0.0092 C   0  0  0  0  0  0  0  0  0  0  0  0
   -4.1365   -0.6221    1.0340 C   0  0  0  0  0  0  0  0  0  0  0  0
   -5.5324   -0.6278    1.0166 C   0  0  0  0  0  0  0  0  0  0  0  0
   -6.2359    0.0076   -0.0179 C   0  0  0  0  0  0  0  0  0  0  0  0
   -5.5191    0.5473   -1.0912 C   0  0  0  0  0  0  0  0  0  0  0  0
    2.1793   -0.0119   -0.0051 F   0  0  0  0  0  0  0  0  0  0  0  0
   -7.7106    0.1506    0.1500 C   0  0  0  0  0  0  0  0  0  0  0  0
   -8.3635    0.8425   -0.8033 O   0  0  0  0  0  0  0  0  0  0  0  0
   -8.2926   -0.2838    1.1362 O   0  0  0  0  0  0  0  0  0  0  0  0
  1  2  2  0
  1  6  1  0
  2  3  1  0
  2 13  1  0
  3  4  2  0
  4  5  1  0
  5  6  2  0
  5  8  1  0
  7  8  2  0
  7 12  1  0
  8  9  1  0
  9 10  2  0
 10 11  1  0
 11 12  2  0
 11 14  1  0
 14 15  1  0
 14 16  2  0
M  END
>  <DRUGBANK_ID>  (1) 
DB07108

>  <COMMON_NAME>  (1) 
4'-FLUORO-1,1'-BIPHENYL-4-CARBOXYLIC ACID

>  <UNII>  (1) 
1UPF6UD3CR

$$$$
