RRP
     RDKit          3D

 30 33  0  0  0  0  0  0  0  0999 V2000
    1.0599   -0.0302    0.1268 N   0  0  0  0  0  0  0  0  0  0  0  0
    0.4492    1.0782    0.3781 C   0  0  0  0  0  0  0  0  0  0  0  0
    1.1271    2.2340    0.6288 N   0  0  0  0  0  0  0  0  0  0  0  0
   -1.0326    1.0896    0.4091 C   0  0  0  0  0  0  0  0  0  0  0  0
   -1.7207    0.0112    0.9854 C   0  0  0  0  0  0  0  0  0  0  0  0
   -3.1146    0.0495    1.0782 C   0  0  0  0  0  0  0  0  0  0  0  0
   -3.7736    1.1558    0.5192 C   0  0  0  0  0  0  0  0  0  0  0  0
   -3.0943    2.2577    0.0203 C   0  0  0  0  0  0  0  0  0  0  0  0
   -1.7170    2.2081   -0.0791 C   0  0  0  0  0  0  0  0  0  0  0  0
   -3.8982   -1.0215    1.8132 C   0  0  0  0  0  0  0  0  0  0  0  0
   -4.5406   -0.4767    3.0231 N   0  0  0  0  0  0  0  0  0  0  0  0
   -5.6883    0.3187    2.9099 C   0  0  0  0  0  0  0  0  0  0  0  0
   -6.2525    0.5848    1.8491 O   0  0  0  0  0  0  0  0  0  0  0  0
   -6.2309    0.9928    4.1552 C   0  0  0  0  0  0  0  0  0  0  0  0
   -6.0975    0.2336    5.3934 N   0  0  0  0  0  0  0  0  0  0  0  0
   -4.6197   -0.2136    5.4890 C   0  0  0  0  0  0  0  0  0  0  0  0
   -4.2290   -1.1160    4.3072 C   0  0  0  0  0  0  0  0  0  0  0  0
   -7.2711   -1.0260    5.5372 S   0  0  0  0  0  0  0  0  0  0  0  0
   -7.0886   -1.9021    4.3785 O   0  0  0  0  0  0  0  0  0  0  0  0
   -7.0537   -1.5314    6.8625 O   0  0  0  0  0  0  0  0  0  0  0  0
   -9.1285   -0.6664    5.4247 C   0  0  0  0  0  0  0  0  0  0  0  0
  -10.1604   -0.0386    4.6678 C   0  0  0  0  0  0  0  0  0  0  0  0
  -11.5614   -0.2752    5.2194 C   0  0  0  0  0  0  0  0  0  0  0  0
  -11.4461   -1.2117    6.2382 C   0  0  0  0  0  0  0  0  0  0  0  0
   -9.8915   -1.8540    6.4044 S   0  0  0  0  0  0  0  0  0  0  0  0
  -12.5115   -1.6561    7.0360 C   0  0  0  0  0  0  0  0  0  0  0  0
  -13.7806   -1.1531    6.8482 C   0  0  0  0  0  0  0  0  0  0  0  0
  -15.0376   -1.7294    7.8737 Cl  0  0  0  0  0  0  0  0  0  0  0  0
  -14.0058   -0.2426    5.8312 C   0  0  0  0  0  0  0  0  0  0  0  0
  -12.9302    0.1637    4.9695 C   0  0  0  0  0  0  0  0  0  0  0  0
  1  2  2  0
  2  3  1  0
  2  4  1  0
  4  5  2  0
  4  9  1  0
  5  6  1  0
  6  7  2  0
  6 10  1  0
  7  8  1  0
  8  9  2  0
 10 11  1  0
 11 12  1  0
 11 17  1  0
 12 13  2  0
 12 14  1  0
 14 15  1  0
 15 16  1  0
 15 18  1  0
 16 17  1  0
 18 19  2  0
 18 20  2  0
 18 21  1  0
 21 22  2  0
 21 25  1  0
 22 23  1  0
 23 24  2  0
 23 30  1  0
 24 25  1  0
 24 26  1  0
 26 27  2  0
 27 28  1  0
 27 29  1  0
 29 30  2  0
M  END
>  <DRUGBANK_ID>  (1) 
DB08487

>  <COMMON_NAME>  (1) 
3-({4-[(6-CHLORO-1-BENZOTHIEN-2-YL)SULFONYL]-2-OXOPIPERAZIN-1-YL}METHYL)BENZENECARBOXIMIDAMIDE

$$$$
