
     RDKit          3D

 11 10  0  0  1  0  0  0  0  0999 V2000
    0.8161   -0.0591   -0.0630 O   0  0  0  0  0  0  0  0  0  0  0  0
    0.4636   -0.8777   -1.1817 C   0  0  0  0  0  0  0  0  0  0  0  0
    1.0069   -0.2592   -2.4788 C   0  0  1  0  0  0  0  0  0  0  0  0
    2.4404   -0.2406   -2.4519 O   0  0  0  0  0  0  0  0  0  0  0  0
    3.0171    0.6931   -1.1145 P   0  0  0  0  0  0  0  0  0  0  0  0
    4.3771   -0.1949   -1.2809 O   0  0  0  0  0  0  0  0  0  0  0  0
    3.3725    1.8271   -2.2391 O   0  0  0  0  0  0  0  0  0  0  0  0
    3.5332    1.5287    0.0825 O   0  0  0  0  0  0  0  0  0  0  0  0
    0.5194   -1.1075   -3.6420 C   0  0  0  0  0  0  0  0  0  0  0  0
   -0.2672   -0.4681   -4.5362 O   0  0  0  0  0  0  0  0  0  0  0  0
    0.7834   -2.3000   -3.7631 O   0  0  0  0  0  0  0  0  0  0  0  0
  1  2  1  0
  3  2  1  1
  3  4  1  0
  3  9  1  0
  4  5  1  0
  5  6  1  0
  5  7  1  0
  5  8  2  0
  9 10  1  0
  9 11  2  0
M  END
>  <DRUGBANK_ID>  (1) 
DB01709

>  <SECONDARY_ACCESSION_NUMBERS>  (1) 
EXPT00143; EXPT02490; DB03465

>  <COMMON_NAME>  (1) 
2-phospho-D-glyceric acid

>  <UNII>  (1) 
DZ2LFC6KEU

>  <SYNONYMS>  (1) 
2-phospho-D-glycerate; D-glycerate 2-phosphate

$$$$
