
     RDKit          3D

 23 24  0  0  0  0  0  0  0  0999 V2000
    0.9632   -0.7721    0.0125 C   0  0  0  0  0  0  0  0  0  0  0  0
    1.1234    0.6335    0.0105 C   0  0  0  0  0  0  0  0  0  0  0  0
   -0.1517    1.1353    0.0020 C   0  0  0  0  0  0  0  0  0  0  0  0
   -1.0824    0.1466    0.0022 O   0  0  0  0  0  0  0  0  0  0  0  0
   -0.4040   -1.0594   -0.0010 C   0  0  0  0  0  0  0  0  0  0  0  0
   -1.0269   -2.3390   -0.0633 C   0  0  0  0  0  0  0  0  0  0  0  0
   -2.3624   -2.4891   -0.0660 C   0  0  0  0  0  0  0  0  0  0  0  0
   -2.9163   -3.8453   -0.2982 C   0  0  0  0  0  0  0  0  0  0  0  0
   -4.0710   -4.2682    0.1018 N   0  0  0  0  0  0  0  0  0  0  0  0
   -4.3976   -5.6098   -0.0708 N   0  0  0  0  0  0  0  0  0  0  0  0
   -3.6113   -6.7728   -0.0543 C   0  0  0  0  0  0  0  0  0  0  0  0
   -4.1821   -7.8596   -0.1782 O   0  0  0  0  0  0  0  0  0  0  0  0
   -2.1690   -6.6614    0.1256 C   0  0  0  0  0  0  0  0  0  0  0  0
   -1.4798   -5.9070    1.0606 C   0  0  0  0  0  0  0  0  0  0  0  0
   -0.0999   -5.7791    0.7385 C   0  0  0  0  0  0  0  0  0  0  0  0
    0.2561   -6.5990   -0.3090 C   0  0  0  0  0  0  0  0  0  0  0  0
   -1.0765   -7.4334   -0.9651 S   0  0  0  0  0  0  0  0  0  0  0  0
    1.5924   -6.7327   -0.8341 N   0  0  0  0  0  0  0  0  0  0  0  0
    1.7939   -7.5445   -1.7464 O   0  0  0  0  0  0  0  0  0  0  0  0
    2.4498   -6.0006   -0.3217 O   0  0  0  0  0  0  0  0  0  0  0  0
   -0.6130    2.4865   -0.0168 N   0  0  0  0  0  0  0  0  0  0  0  0
   -1.8376    2.6849   -0.0237 O   0  0  0  0  0  0  0  0  0  0  0  0
    0.2622    3.3588   -0.0259 O   0  0  0  0  0  0  0  0  0  0  0  0
  1  2  1  0
  1  5  2  0
  2  3  2  0
  3  4  1  0
  3 21  1  0
  4  5  1  0
  5  6  1  0
  6  7  2  0
  7  8  1  0
  8  9  2  0
  9 10  1  0
 10 11  1  0
 11 12  2  0
 11 13  1  0
 13 14  2  0
 13 17  1  0
 14 15  1  0
 15 16  2  0
 16 17  1  0
 16 18  1  0
 18 19  2  0
 18 20  1  0
 21 22  2  0
 21 23  1  0
M  CHG  4  18   1  20  -1  21   1  23  -1
M  END
>  <DRUGBANK_ID>  (1) 
DB13325

>  <COMMON_NAME>  (1) 
Nifurzide

>  <CAS_NUMBER>  (1) 
39978-42-2

>  <UNII>  (1) 
Z35R6K4C26

>  <SYNONYMS>  (1) 
Nifurzide

$$$$
