
     RDKit          3D

 30 32  0  0  0  0  0  0  0  0999 V2000
    1.4346   -0.4801    0.0086 C   0  0  0  0  0  0  0  0  0  0  0  0
    0.5410   -1.5073    0.1432 C   0  0  0  0  0  0  0  0  0  0  0  0
   -0.8483   -1.2593    0.2424 C   0  0  0  0  0  0  0  0  0  0  0  0
   -1.3841    0.0334    0.1386 C   0  0  0  0  0  0  0  0  0  0  0  0
   -0.4411    0.9777    0.3608 C   0  0  0  0  0  0  0  0  0  0  0  0
    0.9322    0.7962    0.1304 C   0  0  0  0  0  0  0  0  0  0  0  0
   -2.8278    0.4248   -0.1651 C   0  0  0  0  0  0  0  0  0  0  0  0
   -3.3523    1.7163   -0.2871 C   0  0  0  0  0  0  0  0  0  0  0  0
   -4.8444    1.9468   -0.4186 C   0  0  0  0  0  0  0  0  0  0  0  0
   -5.7712    1.3253    0.4278 C   0  0  0  0  0  0  0  0  0  0  0  0
   -7.1341    1.6002    0.3240 C   0  0  0  0  0  0  0  0  0  0  0  0
   -7.5784    2.6061   -0.5291 C   0  0  0  0  0  0  0  0  0  0  0  0
   -6.6654    3.3136   -1.3027 C   0  0  0  0  0  0  0  0  0  0  0  0
   -5.3196    2.9492   -1.2890 C   0  0  0  0  0  0  0  0  0  0  0  0
   -2.5542    3.0189   -0.3796 C   0  0  0  0  0  0  0  0  0  0  0  0
   -1.6241    3.2034   -1.4148 C   0  0  0  0  0  0  0  0  0  0  0  0
   -0.8827    4.3984   -1.5485 C   0  0  0  0  0  0  0  0  0  0  0  0
   -1.0722    5.4602   -0.6596 C   0  0  0  0  0  0  0  0  0  0  0  0
   -2.0922    5.3402    0.3122 C   0  0  0  0  0  0  0  0  0  0  0  0
   -2.8018    4.1217    0.4675 C   0  0  0  0  0  0  0  0  0  0  0  0
   -0.0871    6.4172   -0.3935 O   0  0  0  0  0  0  0  0  0  0  0  0
    1.2920    6.2470   -0.8669 C   0  0  0  0  0  0  0  0  0  0  0  0
    2.3653    5.2309   -0.2781 C   0  0  0  0  0  0  0  0  0  0  0  0
    2.0205    3.8899    0.0120 O   0  0  0  0  0  0  0  0  0  0  0  0
    0.8421    3.8390    0.7661 C   0  0  0  0  0  0  0  0  0  0  0  0
    0.7696    3.7820    2.2575 C   0  0  0  0  0  0  0  0  0  0  0  0
    1.2251    5.0309    2.7762 O   0  0  0  0  0  0  0  0  0  0  0  0
   -3.6829   -0.8375   -0.4154 C   0  0  0  0  0  0  0  0  0  0  0  0
   -3.5404   -1.5875   -1.7600 C   0  0  0  0  0  0  0  0  0  0  0  0
   -2.0987   -2.5509   -2.1287 Cl  0  0  0  0  0  0  0  0  0  0  0  0
  1  2  2  0
  1  6  1  0
  2  3  1  0
  3  4  2  0
  4  5  1  0
  4  7  1  0
  5  6  2  0
  7  8  2  0
  7 28  1  0
  8  9  1  0
  8 15  1  0
  9 10  2  0
  9 14  1  0
 10 11  1  0
 11 12  2  0
 12 13  1  0
 13 14  2  0
 15 16  2  0
 15 20  1  0
 16 17  1  0
 17 18  2  0
 18 19  1  0
 18 21  1  0
 19 20  2  0
 21 22  1  0
 22 23  1  0
 23 24  1  0
 24 25  1  0
 25 26  1  0
 26 27  1  0
 28 29  1  0
 29 30  1  0
M  END
>  <DRUGBANK_ID>  (1) 
DB06640

>  <COMMON_NAME>  (1) 
Fispemifene

>  <CAS_NUMBER>  (1) 
341524-89-8

>  <UNII>  (1) 
3VZ2833V08

>  <SYNONYMS>  (1) 
Fispemifene

$$$$
