
     RDKit          3D

 34 33  0  0  0  0  0  0  0  0999 V2000
   -1.8817   -1.6192    2.2282 C   0  0  2  0  0  0  0  0  0  0  0  0
   -0.5098   -1.9955    1.7163 C   0  0  0  0  0  0  0  0  0  0  0  0
   -4.1685   -1.6443    1.9080 C   0  0  0  0  0  0  0  0  0  0  0  0
   -2.2179   -3.0511    2.4120 C   0  0  2  0  0  0  0  0  0  0  0  0
   -2.9581   -0.8735    1.4549 C   0  0  1  0  0  0  0  0  0  0  0  0
   -3.6708   -3.0915    1.9889 C   0  0  1  0  0  0  0  0  0  0  0  0
    0.0301   -2.2895    0.4854 C   0  0  0  0  0  0  0  0  0  0  0  0
   -4.2006   -7.6644    6.3011 C   0  0  0  0  0  0  0  0  0  0  0  0
    1.5529   -1.7085   -0.2098 C   0  0  1  0  0  0  0  0  0  0  0  0
   -4.5070   -8.8450    6.6873 O   0  0  0  0  0  0  0  0  0  0  0  0
   -2.4417   -3.3686    4.7840 C   0  0  0  0  0  0  0  0  0  0  0  0
   -2.9677   -4.5187    5.1738 C   0  0  0  0  0  0  0  0  0  0  0  0
   -3.0998    0.5180    1.7621 O   0  0  0  0  0  0  0  0  0  0  0  0
   -4.4941   -3.9010    2.7726 O   0  0  0  0  0  0  0  0  0  0  0  0
   -4.8574   -7.1201    5.2816 O   0  0  0  0  0  0  0  0  0  0  0  0
   -1.4731   -3.4285    3.7022 C   0  0  0  0  0  0  0  0  0  0  0  0
    2.1186   -2.9297   -0.7063 O   0  0  0  0  0  0  0  0  0  0  0  0
   -3.1303   -6.8304    6.9190 C   0  0  0  0  0  0  0  0  0  0  0  0
    1.4928   -0.5936   -1.8716 C   0  0  0  0  0  0  0  0  0  0  0  0
   -2.4330   -5.8541    4.7298 C   0  0  0  0  0  0  0  0  0  0  0  0
    2.6998   -1.2635    1.2964 C   0  0  0  0  0  0  0  0  0  0  0  0
   -1.9709   -6.5921    5.9630 C   0  0  0  0  0  0  0  0  0  0  0  0
    0.9916    1.2765   -1.9481 C   0  0  0  0  0  0  0  0  0  0  0  0
    3.0793    2.9206   -1.2909 C   0  0  0  0  0  0  0  0  0  0  0  0
    1.7422    2.4690   -0.8467 C   0  0  0  0  0  0  0  0  0  0  0  0
    2.6678    3.6430   -2.5084 C   0  0  0  0  0  0  0  0  0  0  0  0
    0.7330    0.4925    0.1591 C   0  0  0  0  0  0  0  0  0  0  0  0
   -0.4884   -0.3497   -0.7873 N   0  0  0  0  0  0  0  0  0  0  0  0
    0.5341    0.1521    1.6220 C   0  0  0  0  0  0  0  0  0  0  0  0
   -0.2745    1.8645    0.4820 C   0  0  0  0  0  0  0  0  0  0  0  0
    2.7053    0.3564   -0.2921 C   0  0  0  0  0  0  0  0  0  0  0  0
    3.7117   -0.8779   -0.7183 O   0  0  0  0  0  0  0  0  0  0  0  0
    1.0387    0.7842    2.7797 O   0  0  0  0  0  0  0  0  0  0  0  0
    0.0785    2.6371    1.6306 O   0  0  0  0  0  0  0  0  0  0  0  0
  1  2  1  6
  3  5  1  0
  4  1  1  0
  4 16  1  1
  5 13  1  1
  5  1  1  0
  6  4  1  0
  6  3  1  0
  6 14  1  1
  7  2  2  0
  8 18  1  0
  9  7  1  0
  9 17  1  0
  9 21  1  1
 10  8  2  0
 11 16  1  0
 12 11  2  0
 15  8  1  0
 18 22  1  0
 19  9  1  0
 20 12  1  0
 22 20  1  0
 23 19  1  0
 24 25  1  0
 25 23  1  0
 26 24  1  0
 28 27  1  0
 29 27  1  0
 30 27  1  0
 31 27  1  0
 32 31  1  0
 33 29  1  0
 34 30  1  0
M  END
>  <DRUGBANK_ID>  (1) 
DB00429

>  <SECONDARY_ACCESSION_NUMBERS>  (1) 
APRD00847

>  <COMMON_NAME>  (1) 
Carboprost tromethamine

>  <CAS_NUMBER>  (1) 
58551-69-2

>  <UNII>  (1) 
U4526F86FJ

>  <SYNONYMS>  (1) 
(15S)-15-methyl-PGF2α tromethamine salt; (15S)-15-methylprostaglandin F2α tromethamine; 1,3-dihydroxy-2-(hydroxymethyl)propan-2-aminium (5Z,9α,11β,13E,15S)-9,11,15-trihydroxy-15-methylprosta-5,13-dien-1-oate; 15(S)-15-methyl-PGF2α tromethamine salt; 15(S)-15-methylprostaglandin F2α tromethamine; Carboprost trometamol; Carboprost tromethamine

$$$$
