
     RDKit          3D

 23 25  0  0  0  0  0  0  0  0999 V2000
   -1.9512   -0.9964   -0.0921 C   0  0  0  0  0  0  0  0  0  0  0  0
   -3.0379   -0.1367   -0.0441 C   0  0  0  0  0  0  0  0  0  0  0  0
   -2.8219    1.2387    0.0348 C   0  0  0  0  0  0  0  0  0  0  0  0
   -1.5238    1.7545    0.0675 C   0  0  0  0  0  0  0  0  0  0  0  0
   -0.6498   -0.4809   -0.0780 C   0  0  0  0  0  0  0  0  0  0  0  0
   -0.4472    0.8820    0.0186 C   0  0  0  0  0  0  0  0  0  0  0  0
    1.7452   -0.8854    0.0622 C   0  0  0  0  0  0  0  0  0  0  0  0
    3.0210   -2.6005    1.4335 C   0  0  0  0  0  0  0  0  0  0  0  0
    2.9920   -1.7501    0.1551 C   0  0  1  0  0  0  0  0  0  0  0  0
    3.2118   -2.6135   -1.1172 C   0  0  0  0  0  0  0  0  0  0  0  0
    0.4999   -1.3505   -0.1434 C   0  0  0  0  0  0  0  0  0  0  0  0
    0.1483   -2.6476   -0.4248 O   0  0  0  0  0  0  0  0  0  0  0  0
    0.8472    1.4168    0.0566 O   0  0  0  0  0  0  0  0  0  0  0  0
    1.9714    0.5949    0.0578 C   0  0  0  0  0  0  0  0  0  0  0  0
    3.0946    1.0685   -0.0214 O   0  0  0  0  0  0  0  0  0  0  0  0
    2.0018   -3.5036    1.7833 C   0  0  0  0  0  0  0  0  0  0  0  0
    4.1184   -2.5275    2.2991 C   0  0  0  0  0  0  0  0  0  0  0  0
    4.2201   -3.4063    3.3860 C   0  0  0  0  0  0  0  0  0  0  0  0
    3.2081   -4.3250    3.6648 C   0  0  0  0  0  0  0  0  0  0  0  0
    2.0929   -4.3720    2.8585 C   0  0  0  0  0  0  0  0  0  0  0  0
    3.2222   -1.7848   -2.4059 C   0  0  1  0  0  0  0  0  0  0  0  0
    4.3823   -0.9664   -2.4369 O   0  0  0  0  0  0  0  0  0  0  0  0
    3.2295   -2.7081   -3.6148 C   0  0  0  0  0  0  0  0  0  0  0  0
  1  2  2  0
  1  5  1  0
  2  3  1  0
  3  4  2  0
  4  6  1  0
  6  5  2  0
  6 13  1  0
  7  9  1  0
  8 16  2  0
  8 17  1  0
  9  8  1  0
  9 10  1  6
 10 21  1  0
 11  5  1  0
 11  7  2  0
 11 12  1  0
 13 14  1  0
 14  7  1  0
 14 15  2  0
 17 18  2  0
 18 19  1  0
 19 20  2  0
 20 16  1  0
 21 22  1  0
 21 23  1  6
M  END
>  <DRUGBANK_ID>  (1) 
DB08735

>  <COMMON_NAME>  (1) 
R,S-Warfarin alcohol

>  <CAS_NUMBER>  (1) 
37571-78-1

>  <UNII>  (1) 
7FF8Z7G342

$$$$
