KHP
     RDKit          3D

 19 20  0  0  0  0  0  0  0  0999 V2000
    0.9124   -0.0059    0.0646 O   0  0  0  0  0  0  0  0  0  0  0  0
    0.4736   -1.2671    0.5611 C   0  0  0  0  0  0  0  0  0  0  0  0
    0.9869   -2.4100   -0.3147 C   0  0  2  0  0  0  0  0  0  0  0  0
    0.1437   -2.5920   -1.4748 O   0  0  0  0  0  0  0  0  0  0  0  0
   -0.2748   -3.9675   -1.5063 C   0  0  2  0  0  0  0  0  0  0  0  0
    0.7094   -4.7325   -0.6125 C   0  0  2  0  0  0  0  0  0  0  0  0
    0.2483   -5.9935   -0.1466 O   0  0  0  0  0  0  0  0  0  0  0  0
    0.9984   -3.7207    0.4718 C   0  0  1  0  0  0  0  0  0  0  0  0
    2.2649   -3.9376    1.0948 O   0  0  0  0  0  0  0  0  0  0  0  0
   -0.5148   -4.4770   -2.8262 O   0  0  0  0  0  0  0  0  0  0  0  0
    0.5454   -4.5945   -3.6770 C   0  0  0  0  0  0  0  0  0  0  0  0
    1.6045   -5.4689   -3.4335 C   0  0  0  0  0  0  0  0  0  0  0  0
    2.6576   -5.5971   -4.3341 C   0  0  0  0  0  0  0  0  0  0  0  0
    2.5740   -4.9523   -5.5674 C   0  0  0  0  0  0  0  0  0  0  0  0
    3.6876   -5.0754   -6.5121 N   0  0  0  0  0  0  0  0  0  0  0  0
    3.5720   -4.5140   -7.6135 O   0  0  0  0  0  0  0  0  0  0  0  0
    4.6851   -5.7097   -6.1480 O   0  0  0  0  0  0  0  0  0  0  0  0
    1.4454   -4.1890   -5.8914 C   0  0  0  0  0  0  0  0  0  0  0  0
    0.4569   -3.9696   -4.9221 C   0  0  0  0  0  0  0  0  0  0  0  0
  1  2  1  0
  3  2  1  1
  3  4  1  0
  3  8  1  0
  4  5  1  0
  5  6  1  0
  5 10  1  6
  6  7  1  1
  6  8  1  0
  8  9  1  6
 10 11  1  0
 11 12  2  0
 11 19  1  0
 12 13  1  0
 13 14  2  0
 14 15  1  0
 14 18  1  0
 15 16  1  0
 15 17  2  0
 18 19  2  0
M  CHG  2  15   1  16  -1
M  END
>  <DRUGBANK_ID>  (1) 
DB03196

>  <SECONDARY_ACCESSION_NUMBERS>  (1) 
EXPT01972

>  <COMMON_NAME>  (1) 
4-Nitrophenyl-Ara

$$$$
