
     RDKit          3D

 15 16  0  0  0  0  0  0  0  0999 V2000
    0.1962    1.6452    1.9712 C   0  0  0  0  0  0  0  0  0  0  0  0
   -0.2665    0.9995    2.9098 O   0  0  0  0  0  0  0  0  0  0  0  0
    0.1706    1.1683    0.4946 C   0  0  2  0  0  0  0  0  0  0  0  0
    1.1142   -0.0095    0.1366 C   0  0  0  0  0  0  0  0  0  0  0  0
    0.5127    2.3001   -0.4209 N   0  0  0  0  0  0  0  0  0  0  0  0
    1.1510   -1.2056    1.0429 C   0  0  0  0  0  0  0  0  0  0  0  0
    0.7111   -2.4930    0.7899 C   0  0  0  0  0  0  0  0  0  0  0  0
    0.9728   -3.2645    1.8979 N   0  0  0  0  0  0  0  0  0  0  0  0
    1.5228   -2.4934    2.8956 C   0  0  0  0  0  0  0  0  0  0  0  0
    1.7275   -1.2280    2.3532 C   0  0  0  0  0  0  0  0  0  0  0  0
    2.3473   -0.2449    3.1487 C   0  0  0  0  0  0  0  0  0  0  0  0
    1.8477   -2.7962    4.2250 C   0  0  0  0  0  0  0  0  0  0  0  0
    2.3115   -1.7485    5.0323 C   0  0  0  0  0  0  0  0  0  0  0  0
    2.5511   -0.4860    4.5042 C   0  0  0  0  0  0  0  0  0  0  0  0
    0.7513    2.8662    2.2531 N   0  0  0  0  0  0  0  0  0  0  0  0
  1  2  2  0
  3  5  1  6
  3  4  1  0
  3  1  1  0
  4  6  1  0
  6  7  2  0
  6 10  1  0
  7  8  1  0
  8  9  1  0
  9 10  2  0
  9 12  1  0
 10 11  1  0
 11 14  2  0
 12 13  2  0
 13 14  1  0
 15  1  1  0
M  END
>  <DRUGBANK_ID>  (1) 
DB04537

>  <SECONDARY_ACCESSION_NUMBERS>  (1) 
EXPT02063

>  <COMMON_NAME>  (1) 
Tryptophanamide

>  <CAS_NUMBER>  (1) 
20696-57-5

>  <UNII>  (1) 
0K2B9SB26H

>  <SYNONYMS>  (1) 
(S)-alpha-Amino-1H-indole-3-propionamide; L-tryptophan amide; L-tryptophanamide

$$$$
