Lupeol
     RDKit          3D

 31 35  0  0  1  0  0  0  0  0999 V2000
    1.9512    0.9405    0.6946 C   0  0  2  0  0  0  0  0  0  0  0  0
    1.4279   -0.3269   -0.0177 C   0  0  2  0  0  0  0  0  0  0  0  0
   -1.4787   -1.1060   -0.5910 C   0  0  1  0  0  0  0  0  0  0  0  0
    0.4149    2.3278    0.7347 C   0  0  1  0  0  0  0  0  0  0  0  0
   -0.7125    0.1011   -0.1125 C   0  0  2  0  0  0  0  0  0  0  0  0
   -0.0958   -2.5201   -0.2961 C   0  0  1  0  0  0  0  0  0  0  0  0
    0.4558    3.5225   -0.5132 C   0  0  2  0  0  0  0  0  0  0  0  0
   -0.7979   -3.6877   -0.6022 C   0  0  0  0  0  0  0  0  0  0  0  0
   -0.2523    3.1459   -2.3156 C   0  0  2  0  0  0  0  0  0  0  0  0
    1.7150    2.9514   -0.8387 C   0  0  1  0  0  0  0  0  0  0  0  0
    1.9427   -1.7234    0.6004 C   0  0  0  0  0  0  0  0  0  0  0  0
    3.1788    1.6670   -0.2090 C   0  0  0  0  0  0  0  0  0  0  0  0
   -1.2262    2.3416    1.0783 C   0  0  0  0  0  0  0  0  0  0  0  0
   -3.0535   -1.5005    0.2960 C   0  0  0  0  0  0  0  0  0  0  0  0
   -1.9421    1.6144   -0.0522 C   0  0  0  0  0  0  0  0  0  0  0  0
    1.3388   -2.4539   -0.5544 C   0  0  0  0  0  0  0  0  0  0  0  0
   -1.3727    3.0702   -3.4972 C   0  0  0  0  0  0  0  0  0  0  0  0
   -0.1964    1.7178   -2.2401 C   0  0  0  0  0  0  0  0  0  0  0  0
   -1.5730   -3.0266    0.6399 C   0  0  2  0  0  0  0  0  0  0  0  0
    2.6302    2.8501    0.3971 C   0  0  0  0  0  0  0  0  0  0  0  0
    1.0736    1.6056   -1.5836 C   0  0  0  0  0  0  0  0  0  0  0  0
   -2.8446   -2.8581   -0.1004 C   0  0  0  0  0  0  0  0  0  0  0  0
   -1.5686    4.2307   -4.1133 C   0  0  0  0  0  0  0  0  0  0  0  0
    3.6357    0.3348    1.4437 C   0  0  0  0  0  0  0  0  0  0  0  0
    3.0246   -0.7709   -1.0549 C   0  0  0  0  0  0  0  0  0  0  0  0
   -2.6638   -0.3592   -1.6771 C   0  0  0  0  0  0  0  0  0  0  0  0
   -0.7806   -1.8231    1.5185 O   0  0  0  0  0  0  0  0  0  0  0  0
   -1.9822    1.8119   -4.2906 C   0  0  0  0  0  0  0  0  0  0  0  0
   -0.5148   -3.4228   -2.1074 C   0  0  0  0  0  0  0  0  0  0  0  0
   -0.9948   -5.1186   -0.2492 C   0  0  0  0  0  0  0  0  0  0  0  0
    2.3299    3.8354   -1.8047 C   0  0  0  0  0  0  0  0  0  0  0  0
  1 24  1  1
  2  1  1  0
  2 25  1  6
  3 26  1  6
  4  1  1  0
  5  2  1  0
  5  3  1  0
  6  3  1  0
  7  4  1  0
  8  6  1  0
  7  9  1  6
  9 17  1  1
 10  7  1  0
 10 31  1  6
 11  2  1  0
 12  1  1  0
  4 13  1  1
 14  3  1  0
  5 15  1  6
 15 13  1  0
  6 16  1  6
 16 11  1  0
 18  9  1  0
 19  8  1  0
 19 27  1  6
 20 10  1  0
 20 12  1  0
 21 10  1  0
 21 18  1  0
 22 14  1  0
 22 19  1  0
 23 17  2  0
 28 17  1  0
 29  8  1  0
 30  8  1  0
M  END
>  <DRUGBANK_ID>  (1) 
DB12622

>  <COMMON_NAME>  (1) 
Lupeol

>  <CAS_NUMBER>  (1) 
545-47-1

>  <UNII>  (1) 
O268W13H3O

$$$$
