
     RDKit          3D

 30 33  0  0  0  0  0  0  0  0999 V2000
    2.2055    0.0552   -0.0505 C   0  0  0  0  0  0  0  0  0  0  0  0
    0.7450   -0.1586   -0.1262 C   0  0  0  0  0  0  0  0  0  0  0  0
   -0.0333    0.9541   -0.0793 O   0  0  0  0  0  0  0  0  0  0  0  0
   -1.3666    0.5896   -0.0695 N   0  0  0  0  0  0  0  0  0  0  0  0
   -1.3939   -0.7517   -0.1025 C   0  0  0  0  0  0  0  0  0  0  0  0
   -0.0628   -1.2815   -0.1311 C   0  0  0  0  0  0  0  0  0  0  0  0
    0.3691   -2.7104   -0.0201 C   0  0  0  0  0  0  0  0  0  0  0  0
   -0.1033   -3.4547    1.1270 O   0  0  0  0  0  0  0  0  0  0  0  0
    0.3183   -2.9913    2.3435 C   0  0  0  0  0  0  0  0  0  0  0  0
    0.1310   -1.6961    2.7207 C   0  0  0  0  0  0  0  0  0  0  0  0
    0.4878   -1.2891    3.9747 C   0  0  0  0  0  0  0  0  0  0  0  0
    1.1005   -2.1326    4.8664 C   0  0  0  0  0  0  0  0  0  0  0  0
    1.2102   -3.4304    4.5191 N   0  0  0  0  0  0  0  0  0  0  0  0
    0.7815   -3.8710    3.2456 N   0  0  0  0  0  0  0  0  0  0  0  0
    1.7200   -1.6623    6.1582 C   0  0  0  0  0  0  0  0  0  0  0  0
    2.1744   -2.4821    6.9651 O   0  0  0  0  0  0  0  0  0  0  0  0
    1.8373   -0.3103    6.4844 N   0  0  0  0  0  0  0  0  0  0  0  0
    1.5842    0.8490    5.6398 C   0  0  0  0  0  0  0  0  0  0  0  0
    2.5335    0.8615    4.4228 C   0  0  0  0  0  0  0  0  0  0  0  0
    2.1797    1.9982    3.4865 C   0  0  0  0  0  0  0  0  0  0  0  0
    2.2520    3.2271    4.1942 O   0  0  0  0  0  0  0  0  0  0  0  0
    1.3277    3.2868    5.2806 C   0  0  0  0  0  0  0  0  0  0  0  0
    1.6122    2.2035    6.3278 C   0  0  0  0  0  0  0  0  0  0  0  0
   -2.6401   -1.4942   -0.0104 C   0  0  0  0  0  0  0  0  0  0  0  0
   -2.9192   -2.3629    1.0473 C   0  0  0  0  0  0  0  0  0  0  0  0
   -4.0651   -3.1482    1.0333 C   0  0  0  0  0  0  0  0  0  0  0  0
   -4.9453   -3.0072   -0.0270 C   0  0  0  0  0  0  0  0  0  0  0  0
   -6.2135   -3.8010   -0.0658 C   0  0  0  0  0  0  0  0  0  0  0  0
   -4.7221   -2.1466   -1.0512 N   0  0  0  0  0  0  0  0  0  0  0  0
   -3.5816   -1.4131   -1.0204 C   0  0  0  0  0  0  0  0  0  0  0  0
  1  2  1  0
  2  3  1  0
  2  6  2  0
  3  4  1  0
  4  5  2  0
  5  6  1  0
  5 24  1  0
  6  7  1  0
  7  8  1  0
  8  9  1  0
  9 10  2  0
  9 14  1  0
 10 11  1  0
 11 12  2  0
 12 13  1  0
 12 15  1  0
 13 14  2  0
 15 16  2  0
 15 17  1  0
 17 18  1  0
 18 19  1  0
 18 23  1  0
 19 20  1  0
 20 21  1  0
 21 22  1  0
 22 23  1  0
 24 25  2  0
 24 30  1  0
 25 26  1  0
 26 27  2  0
 27 28  1  0
 27 29  1  0
 29 30  2  0
M  END
>  <DRUGBANK_ID>  (1) 
DB18708

>  <COMMON_NAME>  (1) 
Alogabat

>  <CAS_NUMBER>  (1) 
2230009-48-8

>  <UNII>  (1) 
0HPA4GK3UH

>  <SYNONYMS>  (1) 
3-pyridazinecarboxamide, 6-((5-methyl-3-(6-methyl-3-pyridinyl)-4-isoxazolyl)methoxy)-n-(tetrahydro-2h-pyran-4-yl)-; Alogabat

$$$$
