
     RDKit          3D

 25 27  0  0  0  0  0  0  0  0999 V2000
    1.0426   -0.6633   -9.4401 C   0  0  0  0  0  0  0  0  0  0  0  0
    0.5374    0.1116   -8.2334 C   0  0  0  0  0  0  0  0  0  0  0  0
   -0.5942   -0.6383   -7.5494 C   0  0  0  0  0  0  0  0  0  0  0  0
   -0.2900   -1.9101   -7.0118 N   0  0  0  0  0  0  0  0  0  0  0  0
   -0.3415   -2.2745   -5.6796 C   0  0  0  0  0  0  0  0  0  0  0  0
   -0.0195   -3.4345   -5.4543 O   0  0  0  0  0  0  0  0  0  0  0  0
   -0.7803   -1.2671   -4.5450 C   0  0  1  0  0  0  0  0  0  0  0  0
   -0.2712    0.1801   -4.4095 C   0  0  0  0  0  0  0  0  0  0  0  0
   -1.7037    0.7671   -4.6642 C   0  0  1  0  0  0  0  0  0  0  0  0
   -2.2170   -0.7084   -4.4657 C   0  0  0  0  0  0  0  0  0  0  0  0
   -2.0785    1.6282   -3.6834 F   0  0  0  0  0  0  0  0  0  0  0  0
   -2.1358    1.5241   -6.0378 C   0  0  0  0  0  0  0  0  0  0  0  0
   -1.4355    2.6157   -6.5949 C   0  0  0  0  0  0  0  0  0  0  0  0
   -1.7751    3.1506   -7.8513 C   0  0  0  0  0  0  0  0  0  0  0  0
   -2.8527    2.6600   -8.5900 C   0  0  0  0  0  0  0  0  0  0  0  0
   -3.6337    1.6760   -7.9885 C   0  0  0  0  0  0  0  0  0  0  0  0
   -3.2268    1.0658   -6.8038 C   0  0  0  0  0  0  0  0  0  0  0  0
   -3.1489    3.1235  -10.0034 C   0  0  0  0  0  0  0  0  0  0  0  0
   -2.9323    2.1824  -11.1301 N   0  0  0  0  0  0  0  0  0  0  0  0
   -3.7176    0.9347  -11.0890 C   0  0  0  0  0  0  0  0  0  0  0  0
   -2.8515   -0.0714  -10.3872 C   0  0  0  0  0  0  0  0  0  0  0  0
   -1.4885    0.3727  -10.8171 C   0  0  0  0  0  0  0  0  0  0  0  0
   -1.5312    1.8034  -11.2772 C   0  0  0  0  0  0  0  0  0  0  0  0
   -1.0054    4.1236   -8.3603 F   0  0  0  0  0  0  0  0  0  0  0  0
    1.7068    0.4065   -7.3215 C   0  0  0  0  0  0  0  0  0  0  0  0
  1  2  1  0
  2  3  1  0
  2 25  1  0
  3  4  1  0
  4  5  1  0
  5  6  2  0
  7  8  1  0
  7 10  1  0
  7  5  1  6
  8  9  1  0
  9 10  1  0
  9 11  1  1
  9 12  1  0
 12 13  2  0
 12 17  1  0
 13 14  1  0
 14 15  2  0
 14 24  1  0
 15 16  1  0
 15 18  1  0
 16 17  2  0
 18 19  1  0
 19 20  1  0
 19 23  1  0
 20 21  1  0
 21 22  1  0
 22 23  1  0
M  END
>  <DRUGBANK_ID>  (1) 
DB12360

>  <COMMON_NAME>  (1) 
PF-03654764

>  <CAS_NUMBER>  (1) 
935840-35-0

>  <UNII>  (1) 
FPI2G03BJ1

$$$$
