
     RDKit          3D

 22 24  0  0  0  0  0  0  0  0999 V2000
    2.2323    1.1793   -0.2256 C   0  0  0  0  0  0  0  0  0  0  0  0
    1.7197    0.5967    1.0763 C   0  0  0  0  0  0  0  0  0  0  0  0
    0.3066    1.1037    1.3523 C   0  0  0  0  0  0  0  0  0  0  0  0
   -1.1964    0.6657    0.4263 S   0  0  0  0  0  0  0  0  0  0  0  0
   -1.8168   -0.3964    1.1852 O   0  0  0  0  0  0  0  0  0  0  0  0
   -2.0219    1.8655    0.2930 O   0  0  0  0  0  0  0  0  0  0  0  0
   -0.8702    0.1645   -1.2121 N   0  0  0  0  0  0  0  0  0  0  0  0
    0.3974   -0.3304   -2.0156 C   0  0  1  0  0  0  0  0  0  0  0  0
    1.3911   -1.2600   -1.2291 C   0  0  0  0  0  0  0  0  0  0  0  0
    0.7730   -2.4540   -1.8862 C   0  0  2  0  0  0  0  0  0  0  0  0
    0.4373   -1.4954   -3.0507 C   0  0  0  0  0  0  0  0  0  0  0  0
   -0.4093   -2.9249   -1.2622 N   0  0  0  0  0  0  0  0  0  0  0  0
   -1.0323   -2.4056   -0.0885 C   0  0  0  0  0  0  0  0  0  0  0  0
   -0.8787   -4.1960   -1.4292 C   0  0  0  0  0  0  0  0  0  0  0  0
   -2.1873   -4.3754   -1.8471 C   0  0  0  0  0  0  0  0  0  0  0  0
   -3.3168   -3.5433   -2.1080 C   0  0  0  0  0  0  0  0  0  0  0  0
   -4.2848   -4.3593   -2.6393 C   0  0  0  0  0  0  0  0  0  0  0  0
   -3.7711   -5.6333   -2.6916 N   0  0  0  0  0  0  0  0  0  0  0  0
   -2.5156   -5.6700   -2.1538 C   0  0  0  0  0  0  0  0  0  0  0  0
   -1.7349   -6.7526   -1.9952 N   0  0  0  0  0  0  0  0  0  0  0  0
   -0.5361   -6.4356   -1.4669 C   0  0  0  0  0  0  0  0  0  0  0  0
   -0.0590   -5.2239   -1.1972 N   0  0  0  0  0  0  0  0  0  0  0  0
  1  2  1  0
  2  3  1  0
  3  4  1  0
  4  5  2  0
  4  6  2  0
  4  7  1  0
  8  9  1  0
  8 11  1  0
  8  7  1  1
 10  9  1  0
 10 11  1  0
 10 12  1  1
 12 13  1  0
 12 14  1  0
 14 15  2  0
 14 22  1  0
 15 16  1  0
 15 19  1  0
 16 17  2  0
 17 18  1  0
 18 19  1  0
 19 20  2  0
 20 21  1  0
 21 22  2  0
M  END
>  <DRUGBANK_ID>  (1) 
DB14973

>  <COMMON_NAME>  (1) 
Abrocitinib

>  <CAS_NUMBER>  (1) 
1622902-68-4

>  <UNII>  (1) 
73SM5SF3OR

>  <SYNONYMS>  (1) 
Abrocitinib; PF-04965842

$$$$
