NTH
     RDKit          3D

 27 30  0  0  0  0  0  0  0  0999 V2000
   -1.8176    1.3211   -1.1048 C   0  0  0  0  0  0  0  0  0  0  0  0
   -2.4000    2.7224   -1.8912 C   0  0  0  0  0  0  0  0  0  0  0  0
   -1.1667    3.5684   -2.1030 C   0  0  0  0  0  0  0  0  0  0  0  0
   -0.4914    3.5628   -3.1096 O   0  0  0  0  0  0  0  0  0  0  0  0
   -0.6429    3.9375   -0.7781 C   0  0  0  0  0  0  0  0  0  0  0  0
   -0.1691    2.7922   -0.2566 C   0  0  0  0  0  0  0  0  0  0  0  0
    0.1925    2.5638    1.1886 C   0  0  0  0  0  0  0  0  0  0  0  0
    1.6591    2.0157    1.2150 C   0  0  0  0  0  0  0  0  0  0  0  0
    1.6011    0.4834    0.7683 C   0  0  1  0  0  0  0  0  0  0  0  0
    1.0059    0.7109   -0.7994 C   0  0  2  0  0  0  0  0  0  0  0  0
   -0.2767    1.5004   -1.0976 C   0  0  1  0  0  0  0  0  0  0  0  0
    0.9329   -0.5443   -1.5824 C   0  0  0  0  0  0  0  0  0  0  0  0
    2.3535   -0.9215   -1.6432 C   0  0  0  0  0  0  0  0  0  0  0  0
    2.8534   -1.1965   -0.2443 C   0  0  2  0  0  0  0  0  0  0  0  0
    3.0135   -0.6630    1.1276 C   0  0  2  0  0  0  0  0  0  0  0  0
    3.7539   -2.4875    1.1519 C   0  0  0  0  0  0  0  0  0  0  0  0
    4.1971   -2.8087   -0.2594 C   0  0  0  0  0  0  0  0  0  0  0  0
    4.4608   -1.3727   -0.5945 C   0  0  2  0  0  0  0  0  0  0  0  0
    5.9139   -1.0496   -0.1812 O   0  0  0  0  0  0  0  0  0  0  0  0
    1.5749   -2.1375    0.6563 C   0  0  0  0  0  0  0  0  0  0  0  0
    6.8353   -0.3664   -0.9762 C   0  0  0  0  0  0  0  0  0  0  0  0
    7.9641   -0.1054   -0.5912 O   0  0  0  0  0  0  0  0  0  0  0  0
    6.2751   -1.4093   -3.2332 C   0  0  0  0  0  0  0  0  0  0  0  0
    6.3870   -0.1455   -2.4019 C   0  0  0  0  0  0  0  0  0  0  0  0
    5.5877   -2.4920   -2.5150 C   0  0  0  0  0  0  0  0  0  0  0  0
    4.4886   -2.8198   -2.7806 O   0  0  0  0  0  0  0  0  0  0  0  0
    6.4519   -2.9316   -1.5122 O   0  0  0  0  0  0  0  0  0  0  0  0
  1  2  1  0
 11  1  1  1
  2  3  1  0
  3  5  1  0
  3  4  2  0
  5  6  2  0
  6  7  1  0
  6 11  1  0
  7  8  1  0
  9  8  1  6
  9 10  1  0
  9 15  1  0
 10 11  1  0
 10 12  1  1
 12 13  1  0
 13 14  1  0
 14 15  1  0
 14 18  1  0
 14 20  1  1
 15 16  1  1
 16 17  1  0
 17 18  1  0
 18 19  1  1
 19 21  1  0
 21 22  2  0
 21 24  1  0
 23 24  1  0
 23 25  1  0
 25 26  2  0
 25 27  1  0
M  END
>  <DRUGBANK_ID>  (1) 
DB08308

>  <COMMON_NAME>  (1) 
SUCCINIC ACID MONO-(13-METHYL-3-OXO-2,3,6,7,8,9,10,11,12,13,14,15,16,17-TETRADECAHYDRO-1H-CYCLOPENTA[A]PHENANTHREN-17-YL) ESTER

$$$$
