4575
     RDKit          3D

 27 31  0  0  1  0  0  0  0  0999 V2000
    1.1161   -0.0941   -0.2033 O   0  0  0  0  0  0  0  0  0  0  0  0
   -3.9710   -7.9750    5.0592 O   0  0  0  0  0  0  0  0  0  0  0  0
   -0.4537   -0.5072    2.0212 C   0  0  1  0  0  0  0  0  0  0  0  0
   -0.4206   -1.8299    2.6051 C   0  0  0  0  0  0  0  0  0  0  0  0
   -1.2776   -2.9390    3.0066 C   0  0  1  0  0  0  0  0  0  0  0  0
    0.5708   -1.3547    0.2179 C   0  0  2  0  0  0  0  0  0  0  0  0
   -2.8222   -2.7684    3.2246 C   0  0  2  0  0  0  0  0  0  0  0  0
   -2.2308   -0.2884    2.8826 C   0  0  0  0  0  0  0  0  0  0  0  0
    1.0590   -1.6467    2.6179 C   0  0  0  0  0  0  0  0  0  0  0  0
   -2.9679   -1.5134    4.0045 C   0  0  0  0  0  0  0  0  0  0  0  0
    1.4888   -2.0952    1.2853 C   0  0  0  0  0  0  0  0  0  0  0  0
   -1.2029   -3.8391    1.7998 C   0  0  0  0  0  0  0  0  0  0  0  0
   -0.2052   -0.2061    3.9252 C   0  0  0  0  0  0  0  0  0  0  0  0
   -3.2340   -4.1154    3.7339 C   0  0  0  0  0  0  0  0  0  0  0  0
   -1.2247   -5.1461    2.4163 C   0  0  0  0  0  0  0  0  0  0  0  0
   -2.4254   -5.1892    3.3184 C   0  0  0  0  0  0  0  0  0  0  0  0
   -0.9492   -1.3547    0.2179 C   0  0  0  0  0  0  0  0  0  0  0  0
   -4.3228   -4.3636    4.5660 C   0  0  0  0  0  0  0  0  0  0  0  0
   -2.6282   -6.4134    3.8433 C   0  0  0  0  0  0  0  0  0  0  0  0
   -4.5679   -5.6722    5.0011 C   0  0  0  0  0  0  0  0  0  0  0  0
   -3.7108   -6.7053    4.6360 C   0  0  0  0  0  0  0  0  0  0  0  0
   -2.2531   -1.3547    0.2179 C   0  0  0  0  0  0  0  0  0  0  0  0
   -3.1420   -9.0213    4.5293 C   0  0  0  0  0  0  0  0  0  0  0  0
   -1.6671   -8.9762    4.9871 C   0  0  0  0  0  0  0  0  0  0  0  0
   -3.1299   -9.1253    2.9904 C   0  0  0  0  0  0  0  0  0  0  0  0
   -0.8434   -9.4465    3.7845 C   0  0  0  0  0  0  0  0  0  0  0  0
   -1.8319   -9.8485    2.6860 C   0  0  0  0  0  0  0  0  0  0  0  0
  2 21  1  0
  2 23  1  0
  3  4  1  0
  3  6  1  0
  3  8  1  0
  3 13  1  1
  4  5  1  0
  4  9  1  0
  5  7  1  0
  5 12  1  6
  6  1  1  6
  6 11  1  0
  6 17  1  0
  7 10  1  1
  7 14  1  0
  8 10  1  0
  9 11  1  0
 12 15  1  0
 14 16  2  0
 14 18  1  0
 15 16  1  0
 16 19  1  0
 17 22  3  0
 18 20  2  0
 19 21  2  0
 20 21  1  0
 23 24  1  0
 23 25  1  0
 24 26  1  0
 25 27  1  0
 26 27  1  0
M  END
>  <DRUGBANK_ID>  (1) 
DB04575

>  <COMMON_NAME>  (1) 
Quinestrol

>  <CAS_NUMBER>  (1) 
152-43-2

>  <UNII>  (1) 
JR0N7XD5GZ

>  <SYNONYMS>  (1) 
17-alpha-Ethinylestradiol 3-cyclopentyl ether; 17alpha-Ethynylestradiol 3-cyclopentyl ether; Estradiol-17-beta 3-cyclopentyl ether; Quinestrol; Quinestrolo; Quinestrolum

$$$$
