
     RDKit          3D

 31 31  0  0  0  0  0  0  0  0999 V2000
    0.5446   -4.8370   -3.4763 Br  0  0  0  0  0  0  0  0  0  0  0  0
    6.3255   -0.5791   -1.1877 S   0  0  0  0  0  0  0  0  0  0  0  0
    6.0356    0.9123   -5.5957 O   0  0  0  0  0  0  0  0  0  0  0  0
    8.9693   -3.0989   -3.4174 O   0  0  0  0  0  0  0  0  0  0  0  0
    6.1500   -3.0449    0.0662 O   0  0  0  0  0  0  0  0  0  0  0  0
    8.7826   -4.2135   -5.3875 O   0  0  0  0  0  0  0  0  0  0  0  0
    3.8920   -0.5333    0.9902 O   0  0  0  0  0  0  0  0  0  0  0  0
    9.7569   -3.6812   -7.2529 O   0  0  0  0  0  0  0  0  0  0  0  0
    3.4212   -3.2310   -4.9722 O   0  0  0  0  0  0  0  0  0  0  0  0
    4.6464   -1.5432   -5.7280 O   0  0  0  0  0  0  0  0  0  0  0  0
    7.0818   -0.1690   -3.9795 N   0  0  0  0  0  0  0  0  0  0  0  0
    6.9281   -2.8947   -4.3816 N   0  0  0  0  0  0  0  0  0  0  0  0
   11.0697   -1.4136   -5.3149 N   0  0  0  0  0  0  0  0  0  0  0  0
    4.2852   -1.5739    0.1450 N   0  0  0  0  0  0  0  0  0  0  0  0
    8.0235   -0.9778   -3.1863 C   0  0  1  0  0  0  0  0  0  0  0  0
    9.0087   -0.7193   -6.7284 C   0  0  0  0  0  0  0  0  0  0  0  0
    7.4851   -0.8032   -6.5007 C   0  0  0  0  0  0  0  0  0  0  0  0
    7.8441   -1.3318   -1.7063 C   0  0  0  0  0  0  0  0  0  0  0  0
    9.6851   -1.6905   -5.7431 C   0  0  1  0  0  0  0  0  0  0  0  0
    6.8709    0.0390   -5.3275 C   0  0  0  0  0  0  0  0  0  0  0  0
    7.9921   -2.3862   -3.6858 C   0  0  0  0  0  0  0  0  0  0  0  0
    5.7508   -1.6836    0.0982 C   0  0  2  0  0  0  0  0  0  0  0  0
    9.4302   -3.2742   -6.1417 C   0  0  0  0  0  0  0  0  0  0  0  0
    5.5803   -2.8336   -3.9024 C   0  0  0  0  0  0  0  0  0  0  0  0
    3.3984   -2.2846   -0.6816 C   0  0  0  0  0  0  0  0  0  0  0  0
    3.8398   -3.3393   -1.4800 C   0  0  0  0  0  0  0  0  0  0  0  0
    2.0114   -2.0736   -0.7081 C   0  0  0  0  0  0  0  0  0  0  0  0
    4.5248   -2.4870   -4.9272 C   0  0  0  0  0  0  0  0  0  0  0  0
    2.9942   -4.1676   -2.2173 C   0  0  0  0  0  0  0  0  0  0  0  0
    1.1476   -2.8411   -1.5166 C   0  0  0  0  0  0  0  0  0  0  0  0
    1.6502   -3.8708   -2.2932 C   0  0  0  0  0  0  0  0  0  0  0  0
  1 31  1  0
  2 18  1  0
  3 20  2  0
  4 21  2  0
  6 23  1  0
  7 14  1  0
  8 23  2  0
  9 28  1  0
 10 28  2  0
 11 20  1  0
 12 21  1  0
 12 24  1  0
 14 22  1  0
 14 25  1  0
 15 21  1  0
 15 18  1  1
 15 11  1  0
 16 17  1  0
 17 20  1  0
 19 23  1  0
 19 16  1  0
 19 13  1  6
 22  5  1  6
 22  2  1  0
 24 28  1  0
 25 26  2  0
 25 27  1  0
 26 29  1  0
 27 30  2  0
 29 31  2  0
 30 31  1  0
M  END
>  <DRUGBANK_ID>  (1) 
DB03889

>  <SECONDARY_ACCESSION_NUMBERS>  (1) 
EXPT01552

>  <COMMON_NAME>  (1) 
S-(N-hydroxy-N-bromophenylcarbamoyl)glutathione

>  <SYNONYMS>  (1) 
(2S)-2-Amino-5-[[(2R)-3-[(S)-(4-bromo-N-hydroxyanilino)-hydroxymethyl]sulfanyl-1-(carboxymethylamino)-1-oxopropan-2-yl]amino]-5-oxopentanoic acid; L-Î³-Glutamyl-S-[(S)-[(4-bromophenyl)(hydroxy)amino](hydroxy)methyl]-L-cysteinylglycine

$$$$
