
     RDKit          3D

 11 10  0  0  1  0  0  0  0  0999 V2000
    0.8334    0.0079   -0.1978 N   0  0  0  0  0  0  0  0  0  0  0  0
    0.5676   -1.1106   -1.1474 C   0  0  1  0  0  0  0  0  0  0  0  0
    0.9702   -2.4223   -0.4729 C   0  0  0  0  0  0  0  0  0  0  0  0
    0.3446   -2.6676    0.9365 C   0  0  0  0  0  0  0  0  0  0  0  0
   -1.4861   -2.6840    1.3795 S   0  0  0  0  0  0  0  0  0  0  0  0
   -2.2713   -1.0348    1.0622 C   0  0  0  0  0  0  0  0  0  0  0  0
   -1.7544   -0.1270    1.9237 F   0  0  0  0  0  0  0  0  0  0  0  0
   -2.1784   -0.4399   -0.1480 F   0  0  0  0  0  0  0  0  0  0  0  0
   -0.8496   -1.4059   -1.6882 C   0  0  0  0  0  0  0  0  0  0  0  0
   -1.3900   -0.6807   -2.6655 O   0  0  0  0  0  0  0  0  0  0  0  0
   -1.5079   -2.4025   -1.3300 O   0  0  0  0  0  0  0  0  0  0  0  0
  2  1  1  1
  2  3  1  0
  2  9  1  0
  3  4  1  0
  4  5  1  0
  5  6  1  0
  6  7  1  0
  6  8  1  0
  9 10  1  0
  9 11  2  0
M  END
>  <DRUGBANK_ID>  (1) 
DB03816

>  <SECONDARY_ACCESSION_NUMBERS>  (1) 
EXPT00119

>  <COMMON_NAME>  (1) 
Difluoromethionine

$$$$
