
     RDKit          3D

 21 20  0  0  1  0  0  0  0  0999 V2000
    5.1620    4.1334    1.4141 O   0  0  0  0  0  0  0  0  0  0  0  0
   -5.1106   12.4394   -2.1554 O   0  0  0  0  0  0  0  0  0  0  0  0
   -4.2203   11.2734   -0.4670 O   0  0  0  0  0  0  0  0  0  0  0  0
    4.5606    4.3749    0.1513 C   0  0  1  0  0  0  0  0  0  0  0  0
    5.1753    3.4294   -0.8968 C   0  0  0  0  0  0  0  0  0  0  0  0
    4.9810    1.9288   -0.6067 C   0  0  0  0  0  0  0  0  0  0  0  0
   -2.2676    8.5929   -1.0033 C   0  0  0  0  0  0  0  0  0  0  0  0
   -1.7476    9.9964   -1.3378 C   0  0  0  0  0  0  0  0  0  0  0  0
   -1.7674    7.5687   -2.0286 C   0  0  0  0  0  0  0  0  0  0  0  0
    3.5244    1.4484   -0.6401 C   0  0  0  0  0  0  0  0  0  0  0  0
   -2.2875   10.4759   -2.6892 C   0  0  0  0  0  0  0  0  0  0  0  0
   -0.2427    7.5283   -2.0401 C   0  0  0  0  0  0  0  0  0  0  0  0
    2.7986    1.8646   -1.9220 C   0  0  0  0  0  0  0  0  0  0  0  0
   -3.8161   10.4931   -2.7263 C   0  0  0  0  0  0  0  0  0  0  0  0
    0.2863    7.2312   -0.6477 C   0  0  0  0  0  0  0  0  0  0  0  0
    3.3834    1.0647   -3.0686 C   0  0  0  0  0  0  0  0  0  0  0  0
   -4.3822   11.4158   -1.6614 C   0  0  0  0  0  0  0  0  0  0  0  0
    3.0859    4.2482    0.3435 C   0  0  0  0  0  0  0  0  0  0  0  0
   -0.1058    5.8426   -0.2440 C   0  0  0  0  0  0  0  0  0  0  0  0
    2.1955    5.1241   -0.1025 C   0  0  0  0  0  0  0  0  0  0  0  0
    0.7825    4.8798   -0.0035 C   0  0  0  0  0  0  0  0  0  0  0  0
  2 17  1  0
  3 17  2  0
  4  1  1  1
  4  5  1  0
  4 18  1  0
  5  6  1  0
  6 10  1  0
  7  8  1  0
  7  9  1  0
  8 11  1  0
  9 12  1  0
 10 13  1  0
 11 14  1  0
 12 15  1  0
 13 16  1  0
 14 17  1  0
 15 19  1  0
 18 20  2  0
 19 21  2  0
 20 21  1  0
M  END
>  <DRUGBANK_ID>  (1) 
DB06926

>  <COMMON_NAME>  (1) 
(9Z,11E,13S)-13-hydroxyoctadeca-9,11-dienoic acid

>  <UNII>  (1) 
53CYY2A5PM

$$$$
