
     RDKit          3D

 17 16  0  0  0  0  0  0  0  0999 V2000
    0.9868   -0.0151    0.0980 S   0  0  0  0  0  0  0  0  0  0  0  0
    2.8842    1.5999   -0.5222 O   0  0  0  0  0  0  0  0  0  0  0  0
    4.8253    2.0180   -2.3058 S   0  0  0  0  0  0  0  0  0  0  0  0
    2.8842    1.5535   -2.2516 P   0  0  0  0  0  0  0  0  0  0  0  0
    2.8842   -0.0151    0.0980 P   0  0  0  0  0  0  0  0  0  0  0  0
    2.9224    0.3650    1.7729 O   0  0  0  0  0  0  0  0  0  0  0  0
    1.8065    0.0716    2.6872 C   0  0  0  0  0  0  0  0  0  0  0  0
    0.8494    1.2829    2.7455 C   0  0  0  0  0  0  0  0  0  0  0  0
    2.1729    0.0864   -2.4304 O   0  0  0  0  0  0  0  0  0  0  0  0
    2.2371   -1.3169   -2.3714 C   0  0  0  0  0  0  0  0  0  0  0  0
    3.4461   -1.8770   -1.7104 C   0  0  0  0  0  0  0  0  0  0  0  0
    2.8842    1.5071   -3.9810 O   0  0  0  0  0  0  0  0  0  0  0  0
    3.0371    0.2962   -4.7491 C   0  0  0  0  0  0  0  0  0  0  0  0
    4.2819   -0.5196   -4.4175 C   0  0  0  0  0  0  0  0  0  0  0  0
    4.6142   -0.0151    0.0980 O   0  0  0  0  0  0  0  0  0  0  0  0
    5.2753   -1.1594    0.6825 C   0  0  0  0  0  0  0  0  0  0  0  0
    4.8069   -1.5972    2.0637 C   0  0  0  0  0  0  0  0  0  0  0  0
  2  4  1  0
  4  3  2  0
  4  9  1  0
  4 12  1  0
  5  1  2  0
  5  2  1  0
  5  6  1  0
  5 15  1  0
  6  7  1  0
  7  8  1  0
  9 10  1  0
 10 11  1  0
 12 13  1  0
 13 14  1  0
 15 16  1  0
 16 17  1  0
M  END
>  <DRUGBANK_ID>  (1) 
DB11497

>  <COMMON_NAME>  (1) 
Sulfotep

>  <CAS_NUMBER>  (1) 
3689-24-5

>  <UNII>  (1) 
V41BK2EE8X

>  <SYNONYMS>  (1) 
Bis(O,O-diethylphosphorothionic) anhydride; Dithion; Dithiophos; O,O,O,O-Tetraethyl dithiopyrophosphate; Sulfotepp; Sulphotepp; TEDP; TEDTP; Tetraethyl dithiopyrophosphate; Thiodiphosphate, tetraethyl ester

$$$$
