
     RDKit          3D

 28 31  0  0  0  0  0  0  0  0999 V2000
   -1.3663   -0.0241   -0.0022 N   0  0  0  0  0  0  0  0  0  0  0  0
   -0.7628    1.1970   -0.0084 C   0  0  0  0  0  0  0  0  0  0  0  0
   -1.5699    2.3303    0.0693 N   0  0  0  0  0  0  0  0  0  0  0  0
   -3.0182    2.2229    0.0155 C   0  0  0  0  0  0  0  0  0  0  0  0
   -3.5238    2.9892    1.2092 C   0  0  0  0  0  0  0  0  0  0  0  0
   -3.3187    4.3711    1.3233 C   0  0  0  0  0  0  0  0  0  0  0  0
   -3.6831    4.9980    2.5026 C   0  0  0  0  0  0  0  0  0  0  0  0
   -4.2312    4.3541    3.5540 N   0  0  0  0  0  0  0  0  0  0  0  0
   -4.4222    3.0235    3.4196 C   0  0  0  0  0  0  0  0  0  0  0  0
   -4.0932    2.3062    2.2832 C   0  0  0  0  0  0  0  0  0  0  0  0
    0.6399    1.3240    0.0003 C   0  0  0  0  0  0  0  0  0  0  0  0
    1.3981    0.1321   -0.0067 C   0  0  0  0  0  0  0  0  0  0  0  0
    0.7787   -1.1152   -0.0064 C   0  0  0  0  0  0  0  0  0  0  0  0
   -0.5983   -1.1402   -0.0011 C   0  0  0  0  0  0  0  0  0  0  0  0
    1.4081    2.6294   -0.0140 C   0  0  0  0  0  0  0  0  0  0  0  0
    0.7215    3.8382    0.0889 N   0  0  0  0  0  0  0  0  0  0  0  0
    1.3288    5.1243    0.0603 C   0  0  0  0  0  0  0  0  0  0  0  0
    2.4133    5.4437   -0.7718 C   0  0  0  0  0  0  0  0  0  0  0  0
    2.9838    6.7347   -0.7596 C   0  0  0  0  0  0  0  0  0  0  0  0
    2.4734    7.6965    0.1074 C   0  0  0  0  0  0  0  0  0  0  0  0
    1.3836    7.3784    0.9209 C   0  0  0  0  0  0  0  0  0  0  0  0
    0.7874    6.1216    0.8797 C   0  0  0  0  0  0  0  0  0  0  0  0
    0.8961    8.4742    1.6271 N   0  0  0  0  0  0  0  0  0  0  0  0
    1.8716    9.5568    1.4759 C   0  0  0  0  0  0  0  0  0  0  0  0
    2.9188    9.1245    0.3806 C   0  0  0  0  0  0  0  0  0  0  0  0
    2.8944   10.0472   -0.8489 C   0  0  0  0  0  0  0  0  0  0  0  0
    4.3573    9.1979    0.9235 C   0  0  0  0  0  0  0  0  0  0  0  0
    2.6438    2.5641   -0.0703 O   0  0  0  0  0  0  0  0  0  0  0  0
  2  1  2  0
  3  2  1  0
  4  3  1  0
  5  4  1  0
  6  5  2  0
  7  6  1  0
  8  7  2  0
  9  8  1  0
 10  5  1  0
 10  9  2  0
 11  2  1  0
 12 11  2  0
 13 12  1  0
 14  1  1  0
 14 13  2  0
 15 11  1  0
 16 15  1  0
 17 16  1  0
 18 17  2  0
 19 18  1  0
 20 19  2  0
 21 20  1  0
 22 17  1  0
 22 21  2  0
 23 21  1  0
 24 23  1  0
 25 20  1  0
 25 24  1  0
 26 25  1  0
 27 25  1  0
 28 15  2  0
M  END
>  <DRUGBANK_ID>  (1) 
DB05575

>  <COMMON_NAME>  (1) 
Motesanib

>  <CAS_NUMBER>  (1) 
453562-69-1

>  <UNII>  (1) 
U1JK633AYI

>  <SYNONYMS>  (1) 
Motesanib

$$$$
