
     RDKit          3D

 34 37  0  0  0  0  0  0  0  0999 V2000
    2.0492    0.4925   -0.0514 Cl  0  0  0  0  0  0  0  0  0  0  0  0
    0.4456   -2.0279   -0.0726 F   0  0  0  0  0  0  0  0  0  0  0  0
    1.0065    0.5996   -7.1141 O   0  0  0  0  0  0  0  0  0  0  0  0
    1.2186    5.8146   -3.9543 O   0  0  0  0  0  0  0  0  0  0  0  0
   -2.3450    2.0037   -5.4999 O   0  0  0  0  0  0  0  0  0  0  0  0
    0.5120    2.1456   -4.8493 N   0  0  0  0  0  0  0  0  0  0  0  0
   -1.2606    3.6342   -4.2078 N   0  0  0  0  0  0  0  0  0  0  0  0
   -2.5090    2.6705    0.3262 N   0  0  0  0  0  0  0  0  0  0  0  0
   -1.0232    6.5805    0.1409 N   0  0  0  0  0  0  0  0  0  0  0  0
   -2.4339    4.8601    1.1109 N   0  0  0  0  0  0  0  0  0  0  0  0
    1.6315    2.6205   -4.0030 C   0  0  0  0  0  0  0  0  0  0  0  0
    0.3243    0.6918   -4.7386 C   0  0  0  0  0  0  0  0  0  0  0  0
    0.2243    2.6328   -6.2670 C   0  0  0  0  0  0  0  0  0  0  0  0
    2.4638    3.7036   -4.6454 C   0  0  0  0  0  0  0  0  0  0  0  0
    1.2164    0.0731   -5.7771 C   0  0  0  0  0  0  0  0  0  0  0  0
    1.1632    2.0169   -7.2100 C   0  0  0  0  0  0  0  0  0  0  0  0
    1.7238    5.0099   -5.0278 C   0  0  0  0  0  0  0  0  0  0  0  0
    0.1893    5.4321   -3.1249 C   0  0  0  0  0  0  0  0  0  0  0  0
   -0.7051    4.3637   -3.1356 C   0  0  0  0  0  0  0  0  0  0  0  0
   -1.1882    4.4757   -0.8669 C   0  0  0  0  0  0  0  0  0  0  0  0
    0.1005    6.2010   -1.9570 C   0  0  0  0  0  0  0  0  0  0  0  0
   -0.7275    5.7902   -0.8833 C   0  0  0  0  0  0  0  0  0  0  0  0
   -0.7885    3.7386   -1.9397 C   0  0  0  0  0  0  0  0  0  0  0  0
   -2.0214    4.0003    0.1889 C   0  0  0  0  0  0  0  0  0  0  0  0
   -1.7983    1.4434    0.3418 C   0  0  0  0  0  0  0  0  0  0  0  0
   -1.8675    6.0783    1.0657 C   0  0  0  0  0  0  0  0  0  0  0  0
   -1.9977    2.4312   -4.3956 C   0  0  0  0  0  0  0  0  0  0  0  0
   -0.4071    1.4792    0.2626 C   0  0  0  0  0  0  0  0  0  0  0  0
   -2.4255    0.1700    0.3061 C   0  0  0  0  0  0  0  0  0  0  0  0
    0.3471    0.3273    0.1069 C   0  0  0  0  0  0  0  0  0  0  0  0
   -1.6645   -0.9993    0.1300 C   0  0  0  0  0  0  0  0  0  0  0  0
   -2.2334    1.3996   -3.3595 C   0  0  0  0  0  0  0  0  0  0  0  0
   -0.2789   -0.9082    0.0534 C   0  0  0  0  0  0  0  0  0  0  0  0
   -2.8745    1.7720   -2.3374 C   0  0  0  0  0  0  0  0  0  0  0  0
  1 30  1  0
  2 33  1  0
  3 15  1  0
  3 16  1  0
  4 17  1  0
  4 18  1  0
  5 27  2  0
  6 11  1  0
  6 12  1  0
  6 13  1  0
  7 19  1  0
  7 27  1  0
  8 24  1  0
  8 25  1  0
  9 22  2  0
  9 26  1  0
 10 24  1  0
 10 26  2  0
 11 14  1  0
 12 15  1  0
 13 16  1  0
 14 17  1  0
 18 19  1  0
 18 21  2  0
 19 23  2  0
 20 22  1  0
 20 23  1  0
 20 24  2  0
 21 22  1  0
 25 28  2  0
 25 29  1  0
 27 32  1  0
 28 30  1  0
 29 31  2  0
 30 33  2  0
 31 33  1  0
 32 34  2  0
M  END
>  <DRUGBANK_ID>  (1) 
DB05424

>  <COMMON_NAME>  (1) 
Canertinib

>  <CAS_NUMBER>  (1) 
267243-28-7

>  <UNII>  (1) 
C78W1K5ASF

>  <SYNONYMS>  (1) 
Canertinib

$$$$
