
     RDKit          3D

 23 26  0  0  0  0  0  0  0  0999 V2000
    0.8751   -0.1395   -0.1251 C   0  0  0  0  0  0  0  0  0  0  0  0
    0.3525   -1.5723    0.0350 C   0  0  0  0  0  0  0  0  0  0  0  0
    1.1704   -2.6060   -0.8118 C   0  0  0  0  0  0  0  0  0  0  0  0
    0.3743    0.7067    1.2515 C   0  0  0  0  0  0  0  0  0  0  0  0
    0.1593   -3.4808   -1.4545 C   0  0  0  0  0  0  0  0  0  0  0  0
    0.5907    3.2344    0.6957 N   0  0  0  0  0  0  0  0  0  0  0  0
   -0.2353   -4.2702   -0.4447 C   0  0  0  0  0  0  0  0  0  0  0  0
    0.3485   -2.2909    1.3683 C   0  0  0  0  0  0  0  0  0  0  0  0
    0.3744   -3.7685    0.8968 C   0  0  0  0  0  0  0  0  0  0  0  0
    1.7399   -3.6451    0.2558 C   0  0  0  0  0  0  0  0  0  0  0  0
    0.4055    0.2755   -1.6742 C   0  0  0  0  0  0  0  0  0  0  0  0
    0.8965    2.1789    1.6788 C   0  0  0  0  0  0  0  0  0  0  0  0
    2.3192   -0.1767   -0.0403 O   0  0  0  0  0  0  0  0  0  0  0  0
    1.4687    2.9052   -0.3823 C   0  0  0  0  0  0  0  0  0  0  0  0
    0.9097    4.6522    0.8880 C   0  0  0  0  0  0  0  0  0  0  0  0
   -0.6863   -0.2581   -2.3880 C   0  0  0  0  0  0  0  0  0  0  0  0
    1.0436    1.1884   -2.4966 C   0  0  0  0  0  0  0  0  0  0  0  0
    0.5384    5.5417   -0.3796 C   0  0  0  0  0  0  0  0  0  0  0  0
    1.0960    3.6885   -1.5874 C   0  0  0  0  0  0  0  0  0  0  0  0
    0.3016    1.9989   -3.4273 C   0  0  0  0  0  0  0  0  0  0  0  0
   -1.2252    0.3392   -3.5751 C   0  0  0  0  0  0  0  0  0  0  0  0
   -0.8686    1.5661   -4.0030 C   0  0  0  0  0  0  0  0  0  0  0  0
    1.2928    5.1318   -1.6171 C   0  0  0  0  0  0  0  0  0  0  0  0
  2  1  1  0
  3  2  1  0
  4  1  1  0
  5  3  1  0
  5  7  2  0
  6 12  1  0
  7  9  1  0
  8  2  1  0
  9  8  1  0
  9 10  1  0
 10  3  1  0
 11  1  1  0
 12  4  1  0
 13  1  1  0
 14  6  1  0
 15  6  1  0
 16 11  2  0
 17 11  1  0
 18 15  1  0
 19 14  1  0
 19 23  1  0
 20 17  2  0
 21 16  1  0
 21 22  2  0
 22 20  1  0
 23 18  1  0
M  END
>  <DRUGBANK_ID>  (1) 
DB00810

>  <SECONDARY_ACCESSION_NUMBERS>  (1) 
APRD00725

>  <COMMON_NAME>  (1) 
Biperiden

>  <CAS_NUMBER>  (1) 
514-65-8

>  <UNII>  (1) 
0FRP6G56LD

>  <SYNONYMS>  (1) 
1-Bicyclo[2.2.1]hept-5-en-2-yl-1-phenyl-3-piperidin-1-yl-propan-1-ol; alpha-5-norbornen-2-yl-alpha-phenyl-1-piperidinepropanol; alpha-bicyclo[2.2.1]hept-5-en-2-yl-alpha-phenyl-1-piperidinepropanol; Biperiden; Biperidene; Biperideno; Biperidenum

$$$$
