YRG
     RDKit          3D

 19 20  0  0  0  0  0  0  0  0999 V2000
    1.6654    1.2296    0.0490 C   0  0  0  0  0  0  0  0  0  0  0  0
    0.2723    1.1950    0.0123 C   0  0  0  0  0  0  0  0  0  0  0  0
   -0.3869   -0.0262   -0.0108 C   0  0  0  0  0  0  0  0  0  0  0  0
   -2.1054   -0.0555   -0.0193 Cl  0  0  0  0  0  0  0  0  0  0  0  0
    0.3407   -1.2142   -0.0126 C   0  0  0  0  0  0  0  0  0  0  0  0
    1.7415   -1.1739   -0.0030 C   0  0  0  0  0  0  0  0  0  0  0  0
    2.4150    0.0522    0.0122 C   0  0  0  0  0  0  0  0  0  0  0  0
    3.7826   -0.0131   -0.0474 O   0  0  0  0  0  0  0  0  0  0  0  0
    4.5130    1.2237   -0.0182 C   0  0  2  0  0  0  0  0  0  0  0  0
    4.2774    2.0793   -1.2590 C   0  0  0  0  0  0  0  0  0  0  0  0
    4.5293    1.4480   -2.4207 O   0  0  0  0  0  0  0  0  0  0  0  0
    3.8486    3.2290   -1.2615 O   0  0  0  0  0  0  0  0  0  0  0  0
    6.0286    0.9471    0.0709 C   0  0  0  0  0  0  0  0  0  0  0  0
    6.3510    0.1857    1.3346 C   0  0  0  0  0  0  0  0  0  0  0  0
    6.3966    0.8519    2.5656 C   0  0  0  0  0  0  0  0  0  0  0  0
    6.4363    0.1241    3.7533 C   0  0  0  0  0  0  0  0  0  0  0  0
    6.4267   -1.2694    3.7175 C   0  0  0  0  0  0  0  0  0  0  0  0
    6.4083   -1.9369    2.4943 C   0  0  0  0  0  0  0  0  0  0  0  0
    6.4218   -1.2128    1.3046 C   0  0  0  0  0  0  0  0  0  0  0  0
  2  1  2  0
  3  2  1  0
  4  3  1  0
  5  3  2  0
  5  6  1  0
  6  7  2  0
  7  1  1  0
  8  7  1  0
  9  8  1  0
  9 10  1  0
 10 12  2  0
 10 11  1  0
  9 13  1  6
 14 13  1  0
 15 14  2  0
 16 15  1  0
 17 16  2  0
 17 18  1  0
 18 19  2  0
 19 14  1  0
M  END
>  <DRUGBANK_ID>  (1) 
DB08760

>  <COMMON_NAME>  (1) 
(2S)-2-(4-chlorophenoxy)-3-phenylpropanoic acid

$$$$
