
     RDKit          3D

 26 28  0  0  0  0  0  0  0  0999 V2000
    2.7501   -0.2417   -0.0142 C   0  0  0  0  0  0  0  0  0  0  0  0
    2.3607    1.1309   -0.0572 C   0  0  0  0  0  0  0  0  0  0  0  0
    0.9830    1.4738   -0.0573 C   0  0  0  0  0  0  0  0  0  0  0  0
    1.7225   -1.1813    0.0129 C   0  0  0  0  0  0  0  0  0  0  0  0
    4.1323   -0.6644   -0.1907 N   0  0  0  0  0  0  0  0  0  0  0  0
    0.3812   -0.8274    0.0152 C   0  0  0  0  0  0  0  0  0  0  0  0
   -0.0027    0.4933   -0.0028 C   0  0  0  0  0  0  0  0  0  0  0  0
   -1.4480    0.8091    0.0090 C   0  0  0  0  0  0  0  0  0  0  0  0
   -2.3802   -0.3669   -0.0051 C   0  0  0  0  0  0  0  0  0  0  0  0
   -1.8229   -1.5826   -0.0337 C   0  0  0  0  0  0  0  0  0  0  0  0
   -0.4922   -1.8744   -0.0064 O   0  0  0  0  0  0  0  0  0  0  0  0
   -1.8552    1.9645    0.0251 O   0  0  0  0  0  0  0  0  0  0  0  0
    3.3499    2.1070   -0.1559 O   0  0  0  0  0  0  0  0  0  0  0  0
    3.0007    3.4466   -0.0494 C   0  0  0  0  0  0  0  0  0  0  0  0
    4.6965   -2.2627    0.0578 S   0  0  0  0  0  0  0  0  0  0  0  0
    5.6320   -2.5386   -1.4264 C   0  0  0  0  0  0  0  0  0  0  0  0
    5.6180   -2.2353    1.1660 O   0  0  0  0  0  0  0  0  0  0  0  0
    3.6403   -3.2551    0.0043 O   0  0  0  0  0  0  0  0  0  0  0  0
   -3.7388   -0.1473    0.0106 N   0  0  0  0  0  0  0  0  0  0  0  0
   -4.7221   -1.1018    0.0133 C   0  0  0  0  0  0  0  0  0  0  0  0
   -5.9201   -0.8560    0.0416 O   0  0  0  0  0  0  0  0  0  0  0  0
    2.3109    3.9649    1.0558 C   0  0  0  0  0  0  0  0  0  0  0  0
    1.9771    5.3223    1.1122 C   0  0  0  0  0  0  0  0  0  0  0  0
    2.4066    6.1874    0.1089 C   0  0  0  0  0  0  0  0  0  0  0  0
    3.1576    5.6914   -0.9568 C   0  0  0  0  0  0  0  0  0  0  0  0
    3.4178    4.3180   -1.0596 C   0  0  0  0  0  0  0  0  0  0  0  0
  1  2  2  0
  1  5  1  0
  2  3  1  0
  2 13  1  0
  3  7  2  0
  4  1  1  0
  5 15  1  0
  6  7  1  0
  6  4  2  0
  7  8  1  0
  8  9  1  0
  8 12  2  0
  9 19  1  0
  9 10  2  0
 10 11  1  0
 11  6  1  0
 13 14  1  0
 14 22  2  0
 15 16  1  0
 15 17  2  0
 15 18  2  0
 19 20  1  0
 20 21  2  0
 22 23  1  0
 23 24  2  0
 24 25  1  0
 25 26  2  0
 26 14  1  0
M  END
>  <DRUGBANK_ID>  (1) 
DB12233

>  <COMMON_NAME>  (1) 
Iguratimod

>  <CAS_NUMBER>  (1) 
123663-49-0

>  <UNII>  (1) 
4IHY34Y2NV

>  <SYNONYMS>  (1) 
Iguratimod

$$$$
