KSM
     RDKit          3D

 29 33  0  0  0  0  0  0  0  0999 V2000
    2.4011   -0.0851    0.2838 Cl  0  0  0  0  0  0  0  0  0  0  0  0
    0.6860   -0.1940    0.0505 C   0  0  0  0  0  0  0  0  0  0  0  0
    0.2520   -1.5228   -0.0009 C   0  0  0  0  0  0  0  0  0  0  0  0
   -1.0970   -1.8264   -0.0180 C   0  0  0  0  0  0  0  0  0  0  0  0
   -2.0289   -0.7965   -0.0014 C   0  0  0  0  0  0  0  0  0  0  0  0
   -1.6238    0.5540   -0.0061 C   0  0  0  0  0  0  0  0  0  0  0  0
   -2.7041    1.6075   -0.0432 C   0  0  0  0  0  0  0  0  0  0  0  0
   -0.2387    0.8883    0.0229 C   0  0  0  0  0  0  0  0  0  0  0  0
    0.1105    2.2683   -0.0877 N   0  0  0  0  0  0  0  0  0  0  0  0
    1.4054    2.7308   -0.0481 C   0  0  0  0  0  0  0  0  0  0  0  0
    1.9367    3.4424    1.0876 C   0  0  0  0  0  0  0  0  0  0  0  0
    1.3967    3.8749    2.2747 C   0  0  0  0  0  0  0  0  0  0  0  0
    2.3482    4.4984    3.0427 N   0  0  0  0  0  0  0  0  0  0  0  0
    2.1860    2.5001   -1.0646 N   0  0  0  0  0  0  0  0  0  0  0  0
    3.5599    2.7943   -0.9838 C   0  0  0  0  0  0  0  0  0  0  0  0
    4.3711    2.3515   -2.0175 C   0  0  0  0  0  0  0  0  0  0  0  0
    5.7337    2.6469   -2.0145 C   0  0  0  0  0  0  0  0  0  0  0  0
    6.3326    3.3515   -0.9599 C   0  0  0  0  0  0  0  0  0  0  0  0
    5.5244    3.7200    0.1293 C   0  0  0  0  0  0  0  0  0  0  0  0
    4.1505    3.4476    0.1060 C   0  0  0  0  0  0  0  0  0  0  0  0
    3.2687    3.7806    1.1461 N   0  0  0  0  0  0  0  0  0  0  0  0
    3.4624    4.4225    2.3402 C   0  0  0  0  0  0  0  0  0  0  0  0
    7.6684    3.6813   -0.9919 N   0  0  0  0  0  0  0  0  0  0  0  0
    8.5965    3.2415    0.0467 C   0  0  0  0  0  0  0  0  0  0  0  0
    9.7624    2.4443   -0.5912 C   0  0  0  0  0  0  0  0  0  0  0  0
   10.4427    3.1310   -1.7160 N   0  0  0  0  0  0  0  0  0  0  0  0
    9.4580    3.5909   -2.7303 C   0  0  1  0  0  0  0  0  0  0  0  0
    8.9644    2.4305   -3.5962 C   0  0  0  0  0  0  0  0  0  0  0  0
    8.2761    4.3929   -2.1200 C   0  0  0  0  0  0  0  0  0  0  0  0
  1  2  1  0
  2  3  2  0
  2  8  1  0
  3  4  1  0
  4  5  2  0
  5  6  1  0
  6  7  1  0
  6  8  2  0
  8  9  1  0
  9 10  1  0
 10 11  1  0
 10 14  2  0
 11 12  2  0
 11 21  1  0
 12 13  1  0
 13 22  2  0
 14 15  1  0
 15 16  1  0
 15 20  2  0
 16 17  2  0
 17 18  1  0
 18 19  2  0
 18 23  1  0
 19 20  1  0
 20 21  1  0
 21 22  1  0
 23 24  1  0
 23 29  1  0
 24 25  1  0
 25 26  1  0
 26 27  1  0
 27 28  1  1
 27 29  1  0
M  END
>  <DRUGBANK_ID>  (1) 
DB08057

>  <COMMON_NAME>  (1) 
N-(2-chloro-6-methylphenyl)-8-[(3S)-3-methylpiperazin-1-yl]imidazo[1,5-a]quinoxalin-4-amine

$$$$
