
     RDKit          3D

 16 15  0  0  1  0  0  0  0  0999 V2000
    1.1425    1.6151   -1.9573 C   0  0  0  0  0  0  0  0  0  0  0  0
    2.5965    1.2152   -2.2680 C   0  0  0  0  0  0  0  0  0  0  0  0
   -1.6380    2.5777   -1.0919 C   0  0  0  0  0  0  0  0  0  0  0  0
   -3.0519    2.1175   -1.5367 C   0  0  0  0  0  0  0  0  0  0  0  0
   -1.3740    1.3589    1.1329 C   0  0  0  0  0  0  0  0  0  0  0  0
    1.0920    0.0420    0.1159 C   0  0  0  0  0  0  0  0  0  0  0  0
   -0.9390    1.4272   -0.3776 C   0  0  2  0  0  0  0  0  0  0  0  0
    0.6113    1.3873   -0.4972 C   0  0  2  0  0  0  0  0  0  0  0  0
    3.6385    1.9589   -1.4751 C   0  0  0  0  0  0  0  0  0  0  0  0
   -2.7258    1.9088    1.5742 C   0  0  0  0  0  0  0  0  0  0  0  0
   -3.7912    1.0809   -0.8112 N   0  0  0  0  0  0  0  0  0  0  0  0
    2.3909    0.2430    0.7152 N   0  0  0  0  0  0  0  0  0  0  0  0
    4.4796    1.4102   -0.7601 O   0  0  0  0  0  0  0  0  0  0  0  0
    3.5246    3.2879   -1.4564 O   0  0  0  0  0  0  0  0  0  0  0  0
   -3.6396    1.2377    2.0081 O   0  0  0  0  0  0  0  0  0  0  0  0
   -2.9197    3.2123    1.2932 O   0  0  0  0  0  0  0  0  0  0  0  0
  2  1  1  0
  4  3  1  0
  7  5  1  1
  7  3  1  0
  8  7  1  0
  8  6  1  6
  8  1  1  0
  9  2  1  0
 10  5  1  0
 11  4  1  0
 12  6  1  0
 13  9  2  0
 14  9  1  0
 15 10  2  0
 16 10  1  0
M  END
>  <DRUGBANK_ID>  (1) 
DB02878

>  <SECONDARY_ACCESSION_NUMBERS>  (1) 
EXPT02503

>  <COMMON_NAME>  (1) 
3-(2-Aminoethyl)-4-(Aminomethyl)Heptanedioic Acid

$$$$
