
     RDKit          3D

 41 44  0  0  0  0  0  0  0  0999 V2000
   -4.3956   -8.9777   -1.7364 O   0  0  0  0  0  0  0  0  0  0  0  0
   -2.1867   -7.1744    2.3033 O   0  0  0  0  0  0  0  0  0  0  0  0
   -2.5218   -9.1252   -2.9437 O   0  0  0  0  0  0  0  0  0  0  0  0
   -2.5411   -2.5402   -1.8018 O   0  0  0  0  0  0  0  0  0  0  0  0
    0.7972   -8.4791    3.2255 O   0  0  0  0  0  0  0  0  0  0  0  0
   -0.3939  -12.2497    3.1627 O   0  0  0  0  0  0  0  0  0  0  0  0
   -1.4197   -9.5199    7.8598 O   0  0  0  0  0  0  0  0  0  0  0  0
   -7.5349   -7.2848    0.9415 N   0  0  0  0  0  0  0  0  0  0  0  0
   -3.9755   -8.0160    1.2139 N   0  0  0  0  0  0  0  0  0  0  0  0
   -5.1981   -7.9603    0.4112 C   0  0  1  0  0  0  0  0  0  0  0  0
   -5.3348   -9.0970   -0.6223 C   0  0  1  0  0  0  0  0  0  0  0  0
   -6.6882   -9.0523   -1.3506 C   0  0  0  0  0  0  0  0  0  0  0  0
   -6.3398   -7.9259    1.4508 C   0  0  0  0  0  0  0  0  0  0  0  0
   -7.8697   -9.3909   -0.4590 C   0  0  0  0  0  0  0  0  0  0  0  0
   -8.4606   -8.1797    0.2607 C   0  0  0  0  0  0  0  0  0  0  0  0
   -2.9864   -7.0740    1.3981 C   0  0  0  0  0  0  0  0  0  0  0  0
   -2.9023   -5.9271    0.4912 C   0  0  0  0  0  0  0  0  0  0  0  0
   -3.0754   -9.2166   -1.8533 C   0  0  0  0  0  0  0  0  0  0  0  0
   -5.2208   -3.0169   -0.0947 C   0  0  2  0  0  0  0  0  0  0  0  0
   -3.9769   -3.8837   -0.2656 C   0  0  0  0  0  0  0  0  0  0  0  0
   -3.9931   -5.0813    0.4559 C   0  0  0  0  0  0  0  0  0  0  0  0
   -5.0223   -1.5693   -0.5645 C   0  0  0  0  0  0  0  0  0  0  0  0
   -1.7390   -5.5976   -0.1884 C   0  0  0  0  0  0  0  0  0  0  0  0
   -2.2406   -9.4667   -0.6623 C   0  0  0  0  0  0  0  0  0  0  0  0
   -2.8132   -3.6241   -1.0193 C   0  0  0  0  0  0  0  0  0  0  0  0
   -5.7481   -3.0219    1.3650 C   0  0  0  0  0  0  0  0  0  0  0  0
   -1.7142   -4.4702   -0.9808 C   0  0  0  0  0  0  0  0  0  0  0  0
   -5.0042   -0.5015    0.5029 C   0  0  0  0  0  0  0  0  0  0  0  0
   -2.5998  -10.3304    0.3655 C   0  0  0  0  0  0  0  0  0  0  0  0
   -1.0708   -8.7062   -0.5390 C   0  0  0  0  0  0  0  0  0  0  0  0
   -1.9027  -10.2850    1.5770 C   0  0  0  0  0  0  0  0  0  0  0  0
   -0.3143   -8.7320    0.6446 C   0  0  0  0  0  0  0  0  0  0  0  0
   -0.7590   -9.4855    1.7380 C   0  0  0  0  0  0  0  0  0  0  0  0
   -0.1150   -9.2892    3.0827 C   0  0  0  0  0  0  0  0  0  0  0  0
   -0.5473  -10.0674    4.2739 C   0  0  0  0  0  0  0  0  0  0  0  0
   -0.6427  -11.4632    4.2539 C   0  0  0  0  0  0  0  0  0  0  0  0
   -0.8132   -9.3726    5.4710 C   0  0  0  0  0  0  0  0  0  0  0  0
   -1.1636  -10.0721    6.6325 C   0  0  0  0  0  0  0  0  0  0  0  0
   -1.0197  -12.1555    5.3987 C   0  0  0  0  0  0  0  0  0  0  0  0
   -1.2657  -11.4658    6.5858 C   0  0  0  0  0  0  0  0  0  0  0  0
   -1.3163   -8.1028    7.9576 C   0  0  0  0  0  0  0  0  0  0  0  0
  1 18  1  0
  2 16  2  0
  3 18  2  0
  4 25  1  0
  5 34  2  0
  6 36  1  0
  7 38  1  0
  7 41  1  0
  8 13  1  0
  8 15  1  0
  9 16  1  0
 10  9  1  1
 10 11  1  0
 10 13  1  0
 11 12  1  0
 11  1  1  6
 12 14  1  0
 14 15  1  0
 16 17  1  0
 17 21  1  0
 17 23  2  0
 18 24  1  0
 19 26  1  1
 19 22  1  0
 19 20  1  0
 20 21  2  0
 20 25  1  0
 22 28  1  0
 23 27  1  0
 24 29  2  0
 24 30  1  0
 25 27  2  0
 29 31  1  0
 30 32  2  0
 31 33  2  0
 32 33  1  0
 33 34  1  0
 34 35  1  0
 35 36  2  0
 35 37  1  0
 36 39  1  0
 37 38  2  0
 38 40  1  0
 39 40  2  0
M  END
>  <DRUGBANK_ID>  (1) 
DB02155

>  <SECONDARY_ACCESSION_NUMBERS>  (1) 
EXPT00615

>  <COMMON_NAME>  (1) 
3-[(3-sec-butyl-4-hydroxybenzoyl)amino]azepan-4-yl 4-(2-hydroxy-5-methoxybenzoyl)benzoate

>  <SYNONYMS>  (1) 
Balanol analog 8

$$$$
