
     RDKit          3D

 10  9  0  0  1  0  0  0  0  0999 V2000
    0.9161   -0.0474    0.0218 N   0  0  0  0  0  0  0  0  0  0  0  0
    0.3882    1.0476    0.8800 C   0  0  1  0  0  0  0  0  0  0  0  0
    0.9243    2.4351    0.4455 C   0  0  1  0  0  0  0  0  0  0  0  0
    0.6589    2.7668   -0.9124 O   0  0  0  0  0  0  0  0  0  0  0  0
    0.3921    3.4958    1.4167 C   0  0  0  0  0  0  0  0  0  0  0  0
    1.3468    4.1808    2.0865 O   0  0  0  0  0  0  0  0  0  0  0  0
   -0.7961    3.6922    1.6436 O   0  0  0  0  0  0  0  0  0  0  0  0
   -1.1534    0.9967    0.8352 C   0  0  0  0  0  0  0  0  0  0  0  0
   -1.7577    0.7290    2.0163 O   0  0  0  0  0  0  0  0  0  0  0  0
   -1.7913    1.1108   -0.2051 O   0  0  0  0  0  0  0  0  0  0  0  0
  2  1  1  6
  2  3  1  0
  2  8  1  0
  3  4  1  6
  3  5  1  0
  5  6  1  0
  5  7  2  0
  8  9  1  0
  8 10  2  0
M  END
>  <DRUGBANK_ID>  (1) 
DB03640

>  <SECONDARY_ACCESSION_NUMBERS>  (1) 
EXPT00696; DB02157

>  <COMMON_NAME>  (1) 
Beta-Hydroxyaspartic Acid

>  <UNII>  (1) 
GDV0MSK2SG

$$$$
