
     RDKit          3D

 18 19  0  0  0  0  0  0  0  0999 V2000
    2.5350    1.0888   -0.0012 C   0  0  0  0  0  0  0  0  0  0  0  0
    1.1987    0.3890   -0.0025 C   0  0  0  0  0  0  0  0  0  0  0  0
    1.2175   -1.0168    0.0075 C   0  0  0  0  0  0  0  0  0  0  0  0
    0.0456   -1.7772    0.0107 C   0  0  0  0  0  0  0  0  0  0  0  0
   -1.1615   -1.0906    0.0407 C   0  0  0  0  0  0  0  0  0  0  0  0
   -1.2274    0.3029    0.0730 C   0  0  0  0  0  0  0  0  0  0  0  0
   -2.6286    0.8335    0.1032 C   0  0  0  0  0  0  0  0  0  0  0  0
   -0.0405    1.0764   -0.0038 C   0  0  0  0  0  0  0  0  0  0  0  0
   -0.0677    2.6011   -0.0660 C   0  0  0  0  0  0  0  0  0  0  0  0
   -0.7340    3.1711   -1.3041 C   0  0  0  0  0  0  0  0  0  0  0  0
   -0.0903    3.9034   -2.1943 N   0  0  0  0  0  0  0  0  0  0  0  0
   -1.1798    4.3317   -3.1361 C   0  0  0  0  0  0  0  0  0  0  0  0
   -2.3366    3.3651   -2.9227 C   0  0  0  0  0  0  0  0  0  0  0  0
   -2.0514    2.9662   -1.5832 N   0  0  0  0  0  0  0  0  0  0  0  0
    0.0189   -3.3017   -0.0063 C   0  0  0  0  0  0  0  0  0  0  0  0
   -0.7235   -3.8088    1.2488 C   0  0  0  0  0  0  0  0  0  0  0  0
   -0.7200   -3.7897   -1.2710 C   0  0  0  0  0  0  0  0  0  0  0  0
    1.4350   -3.8990   -0.0089 C   0  0  0  0  0  0  0  0  0  0  0  0
  1  2  1  0
  2  3  2  0
  2  8  1  0
  3  4  1  0
  4  5  2  0
  4 15  1  0
  5  6  1  0
  6  7  1  0
  6  8  2  0
  8  9  1  0
  9 10  1  0
 10 11  2  0
 10 14  1  0
 11 12  1  0
 12 13  1  0
 13 14  1  0
 15 16  1  0
 15 17  1  0
 15 18  1  0
M  END
>  <DRUGBANK_ID>  (1) 
DB06694

>  <COMMON_NAME>  (1) 
Xylometazoline

>  <CAS_NUMBER>  (1) 
526-36-3

>  <UNII>  (1) 
WPY40FTH8K

>  <SYNONYMS>  (1) 
Xylometazoline; Xylometazolinum; Xylomethazoline

$$$$
