
     RDKit          3D

 32 35  0  0  0  0  0  0  0  0999 V2000
   -3.7748   -0.4174   -0.2488 C   0  0  2  0  0  0  0  0  0  0  0  0
   -3.8986    1.0735   -0.3524 C   0  0  1  0  0  0  0  0  0  0  0  0
   -2.1515   -1.1473   -0.7751 C   0  0  2  0  0  0  0  0  0  0  0  0
   -5.0073   -1.3865   -0.1735 C   0  0  2  0  0  0  0  0  0  0  0  0
   -2.4155    1.5850   -0.5009 C   0  0  0  0  0  0  0  0  0  0  0  0
   -5.4251    1.0943   -0.8691 C   0  0  0  0  0  0  0  0  0  0  0  0
   -4.2480    1.6990    0.9598 O   0  0  0  0  0  0  0  0  0  0  0  0
   -0.9807   -0.5175   -0.0896 C   0  0  2  0  0  0  0  0  0  0  0  0
   -1.7675   -1.7504   -2.0430 O   0  0  0  0  0  0  0  0  0  0  0  0
   -6.1393   -0.7689    0.5588 C   0  0  0  0  0  0  0  0  0  0  0  0
   -4.1587   -2.5468   -0.0707 N   0  0  0  0  0  0  0  0  0  0  0  0
   -1.2145    0.9351   -0.2478 C   0  0  0  0  0  0  0  0  0  0  0  0
   -2.3798    2.9289   -0.7995 O   0  0  0  0  0  0  0  0  0  0  0  0
   -6.4512    0.4891    0.1723 C   0  0  0  0  0  0  0  0  0  0  0  0
   -5.7588    1.2833   -2.0266 O   0  0  0  0  0  0  0  0  0  0  0  0
    0.2809   -1.0855   -0.7134 C   0  0  0  0  0  0  0  0  0  0  0  0
   -6.9039   -1.5910    1.3543 O   0  0  0  0  0  0  0  0  0  0  0  0
   -3.0099   -2.1763    1.2422 C   0  0  0  0  0  0  0  0  0  0  0  0
   -3.9972   -2.3394   -1.8486 C   0  0  0  0  0  0  0  0  0  0  0  0
    0.0955    1.6249    0.1470 C   0  0  0  0  0  0  0  0  0  0  0  0
   -7.6282    1.1727    0.8016 C   0  0  0  0  0  0  0  0  0  0  0  0
    1.4361   -0.5475   -0.0647 C   0  0  0  0  0  0  0  0  0  0  0  0
    1.4096    0.8455    0.0849 C   0  0  0  0  0  0  0  0  0  0  0  0
    0.0396    2.7094    0.6854 O   0  0  0  0  0  0  0  0  0  0  0  0
   -8.3754    1.9714   -0.0326 N   0  0  0  0  0  0  0  0  0  0  0  0
   -7.9421    1.0473    1.9467 O   0  0  0  0  0  0  0  0  0  0  0  0
    2.5717   -1.3574    0.0318 C   0  0  0  0  0  0  0  0  0  0  0  0
    2.6431    1.4469    0.1563 C   0  0  0  0  0  0  0  0  0  0  0  0
    3.7848   -0.7241    0.1525 C   0  0  0  0  0  0  0  0  0  0  0  0
    3.8181    0.6750    0.1798 C   0  0  0  0  0  0  0  0  0  0  0  0
    2.7436    2.8005    0.1532 O   0  0  0  0  0  0  0  0  0  0  0  0
    0.5361   -1.0490   -2.0422 C   0  0  0  0  0  0  0  0  0  0  0  0
  1  2  1  0
  1  3  1  0
  1  4  1  6
  2  5  1  0
  2  6  1  0
  2  7  1  1
  3  8  1  0
  3  9  1  6
  4 10  1  0
  4 11  1  1
  5 12  2  0
  5 13  1  0
  6 14  1  0
  6 15  2  0
  8 16  1  6
  8 12  1  0
 10 14  2  0
 10 17  1  0
 11 18  1  0
 11 19  1  0
 12 20  1  0
 14 21  1  0
 16 22  1  0
 16 32  2  0
 20 23  1  0
 20 24  2  0
 21 25  1  0
 21 26  2  0
 22 27  2  0
 22 23  1  0
 23 28  2  0
 27 29  1  0
 28 30  1  0
 28 31  1  0
 29 30  2  0
M  END
>  <DRUGBANK_ID>  (1) 
DB00931

>  <SECONDARY_ACCESSION_NUMBERS>  (1) 
APRD00137

>  <COMMON_NAME>  (1) 
Metacycline

>  <CAS_NUMBER>  (1) 
914-00-1

>  <UNII>  (1) 
IR235I7C5P

>  <SYNONYMS>  (1) 
6-Demethyl-6-deoxy-5-hydroxy-6-methylenetetracycline; 6-Deoxy-6-demethyl-6-methylene-5-oxytetracycline; 6-Methylene-5-hydroxytetracycline; 6-Methylene-5-oxytetracycline; 6-Methyleneoxytetracycline; Metaciclina; Metacycline; Methacycline; Methacyclinum; Methylenecycline; Tri-methacycline

$$$$
