
     RDKit          3D

 16 17  0  0  0  0  0  0  0  0999 V2000
    1.3993   -0.1796    0.0245 C   0  0  0  0  0  0  0  0  0  0  0  0
    2.8046   -0.3719    0.1371 N   0  0  0  0  0  0  0  0  0  0  0  0
    3.7294    0.6590    0.2202 C   0  0  0  0  0  0  0  0  0  0  0  0
    5.1527    0.3207    0.4485 C   0  0  0  0  0  0  0  0  0  0  0  0
    5.7652   -0.6509   -0.3518 C   0  0  0  0  0  0  0  0  0  0  0  0
    7.1525   -0.8077   -0.3128 C   0  0  0  0  0  0  0  0  0  0  0  0
    7.9324    0.0302    0.4842 C   0  0  0  0  0  0  0  0  0  0  0  0
    7.3284    1.0122    1.2676 C   0  0  0  0  0  0  0  0  0  0  0  0
    5.9308    1.1254    1.3116 C   0  0  0  0  0  0  0  0  0  0  0  0
    5.3269    2.0613    2.3272 C   0  0  0  0  0  0  0  0  0  0  0  0
    3.4943    1.8642    0.1016 O   0  0  0  0  0  0  0  0  0  0  0  0
    0.5432   -1.2873    0.0141 C   0  0  0  0  0  0  0  0  0  0  0  0
   -0.8501   -1.1057   -0.0153 C   0  0  0  0  0  0  0  0  0  0  0  0
   -1.3983    0.1767   -0.0058 C   0  0  0  0  0  0  0  0  0  0  0  0
   -0.5577    1.2773    0.0137 C   0  0  0  0  0  0  0  0  0  0  0  0
    0.8220    1.0941   -0.0259 C   0  0  0  0  0  0  0  0  0  0  0  0
  1  2  1  0
  1 12  2  0
  1 16  1  0
  2  3  1  0
  3  4  1  0
  3 11  2  0
  4  5  2  0
  4  9  1  0
  5  6  1  0
  6  7  2  0
  8  7  1  0
  9  8  2  0
  9 10  1  0
 12 13  1  0
 13 14  2  0
 15 14  1  0
 16 15  2  0
M  END
>  <DRUGBANK_ID>  (1) 
DB14728

>  <COMMON_NAME>  (1) 
Mebenil

>  <CAS_NUMBER>  (1) 
7055-03-0

>  <UNII>  (1) 
B8MA40FMWG

>  <SYNONYMS>  (1) 
2-Methyl-N-phenylbenzamide; 2-Methylbenzanilide; 2-Methylbenzoanilide; 2-Methylbenzoic acid anilide; o-Methylbenzanilide; o-Toluanilide

$$$$
