
     RDKit          3D

 25 27  0  0  0  0  0  0  0  0999 V2000
   -0.9566   -1.4780   -0.0360 C   0  0  2  0  0  0  0  0  0  0  0  0
   -2.2509   -0.6407    0.2264 C   0  0  0  0  0  0  0  0  0  0  0  0
   -2.2689    0.7783   -0.1343 N   0  0  0  0  0  0  0  0  0  0  0  0
   -0.9448    1.7922   -0.0526 S   0  0  0  0  0  0  0  0  0  0  0  0
   -0.7972    2.4771   -1.3105 O   0  0  0  0  0  0  0  0  0  0  0  0
   -0.9224    2.4704    1.2332 O   0  0  0  0  0  0  0  0  0  0  0  0
    0.3436   -0.6931   -0.0119 C   0  0  0  0  0  0  0  0  0  0  0  0
    0.3677    0.6815   -0.0008 C   0  0  0  0  0  0  0  0  0  0  0  0
    1.6979   -1.1650    0.0082 C   0  0  0  0  0  0  0  0  0  0  0  0
    2.6103   -0.1188    0.0199 C   0  0  0  0  0  0  0  0  0  0  0  0
    1.8774    1.4014    0.0309 S   0  0  0  0  0  0  0  0  0  0  0  0
    4.7124    0.5730   -1.2604 O   0  0  0  0  0  0  0  0  0  0  0  0
    4.7286    0.5859    1.2828 O   0  0  0  0  0  0  0  0  0  0  0  0
    4.3538    0.0048    0.0149 S   0  0  0  0  0  0  0  0  0  0  0  0
    4.8858   -1.5823   -0.0083 N   0  0  0  0  0  0  0  0  0  0  0  0
   -3.5038    1.4536   -0.0510 C   0  0  0  0  0  0  0  0  0  0  0  0
   -3.7912    2.3866   -1.0391 C   0  0  0  0  0  0  0  0  0  0  0  0
   -4.8644    3.2299   -0.8639 C   0  0  0  0  0  0  0  0  0  0  0  0
   -5.7334    3.0075    0.2070 C   0  0  0  0  0  0  0  0  0  0  0  0
   -5.4636    2.0403    1.1727 C   0  0  0  0  0  0  0  0  0  0  0  0
   -4.3206    1.2785    1.0635 C   0  0  0  0  0  0  0  0  0  0  0  0
   -4.9414    4.2587   -1.7574 O   0  0  0  0  0  0  0  0  0  0  0  0
   -5.9387    5.2221   -1.4553 C   0  0  0  0  0  0  0  0  0  0  0  0
   -0.9600   -2.3164   -1.2532 N   0  0  0  0  0  0  0  0  0  0  0  0
   -2.2309   -2.3542   -1.9739 C   0  0  0  0  0  0  0  0  0  0  0  0
  1  2  1  0
  1  7  1  0
  1 24  1  6
  2  3  1  0
  3 16  1  0
  3  4  1  0
  4  8  1  0
  4  5  2  0
  4  6  2  0
  7  9  1  0
  7  8  2  0
  8 11  1  0
  9 10  2  0
 10 11  1  0
 10 14  1  0
 12 14  2  0
 13 14  2  0
 14 15  1  0
 16 21  1  0
 16 17  2  0
 17 18  1  0
 18 19  2  0
 18 22  1  0
 19 20  1  0
 20 21  2  0
 22 23  1  0
 24 25  1  0
M  END
>  <DRUGBANK_ID>  (1) 
DB03221

>  <SECONDARY_ACCESSION_NUMBERS>  (1) 
EXPT00491

>  <COMMON_NAME>  (1) 
AL7099A

$$$$
