3162
     RDKit          3D

 20 21  0  0  1  0  0  0  0  0999 V2000
    1.1775    0.0938    0.1284 O   0  0  0  0  0  0  0  0  0  0  0  0
    2.5047   -1.2193   -2.1977 N   0  0  0  0  0  0  0  0  0  0  0  0
    1.7433    2.5096   -1.1968 N   0  0  0  0  0  0  0  0  0  0  0  0
    0.6506    1.2930    0.7269 C   0  0  0  0  0  0  0  0  0  0  0  0
    1.0884    1.2658    2.2044 C   0  0  0  0  0  0  0  0  0  0  0  0
    0.9659    2.5842   -0.0894 C   0  0  0  0  0  0  0  0  0  0  0  0
   -0.8934    1.1419    0.6842 C   0  0  0  0  0  0  0  0  0  0  0  0
    2.6026    0.0223    0.0031 C   0  0  0  0  0  0  0  0  0  0  0  0
    2.9819   -1.2249   -0.7971 C   0  0  0  0  0  0  0  0  0  0  0  0
    1.3833    2.4245    2.9285 C   0  0  0  0  0  0  0  0  0  0  0  0
    1.1989    0.0306    2.8857 C   0  0  0  0  0  0  0  0  0  0  0  0
    0.4441    3.8148    0.3158 C   0  0  0  0  0  0  0  0  0  0  0  0
    1.7051    2.3785    4.2790 C   0  0  0  0  0  0  0  0  0  0  0  0
    1.5567   -0.0219    4.2320 C   0  0  0  0  0  0  0  0  0  0  0  0
    0.8501    4.9837   -0.3211 C   0  0  0  0  0  0  0  0  0  0  0  0
    1.7970    1.1556    4.9289 C   0  0  0  0  0  0  0  0  0  0  0  0
    3.0228   -2.3936   -2.8891 C   0  0  0  0  0  0  0  0  0  0  0  0
    1.0398   -1.2105   -2.2853 C   0  0  0  0  0  0  0  0  0  0  0  0
    2.1015    3.6505   -1.8266 C   0  0  0  0  0  0  0  0  0  0  0  0
    1.6950    4.9004   -1.4112 C   0  0  0  0  0  0  0  0  0  0  0  0
  1  4  1  0
  1  8  1  0
  2  9  1  0
  2 17  1  0
  2 18  1  0
  3  6  2  0
  3 19  1  0
  4  5  1  0
  4  6  1  0
  4  7  1  0
  5 10  2  0
  5 11  1  0
  6 12  1  0
  8  9  1  0
 10 13  1  0
 11 14  2  0
 12 15  2  0
 13 16  2  0
 14 16  1  0
 15 20  1  0
 19 20  2  0
M  END
>  <DRUGBANK_ID>  (1) 
DB00366

>  <SECONDARY_ACCESSION_NUMBERS>  (1) 
APRD00937

>  <COMMON_NAME>  (1) 
Doxylamine

>  <CAS_NUMBER>  (1) 
469-21-6

>  <UNII>  (1) 
95QB77JKPL

>  <SYNONYMS>  (1) 
2-(alpha-(2-(Dimethylamino)ethoxy)-alpha-methylbenzyl)pyridine; 2-Dimethylaminoethoxyphenylmethyl-2-picoline; Dossilamina; Doxilamina; Doxilminio; Doxylamine; Doxylaminum; N,N-Dimethyl-2-(1-phenyl-1-(2-pyridinyl)ethoxy)ethanamine; Phenyl-2-pyridylmethyl-beta-N,N-dimethylaminoethyl ether

$$$$
