
     RDKit          3D

 32 35  0  0  0  0  0  0  0  0999 V2000
    0.9261   -0.0637   -0.0978 C   0  0  0  0  0  0  0  0  0  0  0  0
    0.4808    1.1313    0.7406 C   0  0  0  0  0  0  0  0  0  0  0  0
    1.0254    2.4081    0.0921 C   0  0  0  0  0  0  0  0  0  0  0  0
   -0.9778    1.2315    0.8698 N   0  0  0  0  0  0  0  0  0  0  0  0
   -1.6535    1.0076    2.0559 C   0  0  0  0  0  0  0  0  0  0  0  0
   -2.6755    0.1961    2.0472 N   0  0  0  0  0  0  0  0  0  0  0  0
   -3.3243   -0.0474    3.2372 C   0  0  0  0  0  0  0  0  0  0  0  0
   -2.9765    0.4352    4.4401 C   0  0  0  0  0  0  0  0  0  0  0  0
   -3.6980    0.1256    5.6799 C   0  0  0  0  0  0  0  0  0  0  0  0
   -3.7876   -1.1537    6.2016 C   0  0  0  0  0  0  0  0  0  0  0  0
   -4.5104   -1.3498    7.3902 C   0  0  0  0  0  0  0  0  0  0  0  0
   -5.1121   -0.2680    8.0617 C   0  0  0  0  0  0  0  0  0  0  0  0
   -5.8046   -0.6114    9.2199 O   0  0  0  0  0  0  0  0  0  0  0  0
   -6.5764    0.3332    9.8697 C   0  0  0  0  0  0  0  0  0  0  0  0
   -7.6469    0.9592    9.2286 C   0  0  0  0  0  0  0  0  0  0  0  0
   -8.1502    2.1126    9.8129 C   0  0  0  0  0  0  0  0  0  0  0  0
   -7.7435    2.5944   11.0109 N   0  0  0  0  0  0  0  0  0  0  0  0
   -6.7723    1.9104   11.6657 C   0  0  0  0  0  0  0  0  0  0  0  0
   -6.1722    0.7671   11.1399 C   0  0  0  0  0  0  0  0  0  0  0  0
   -6.3777    2.4687   12.9466 C   0  0  0  0  0  0  0  0  0  0  0  0
   -7.1813    2.7947   14.0607 C   0  0  0  0  0  0  0  0  0  0  0  0
   -6.4743    3.2703   15.0910 N   0  0  0  0  0  0  0  0  0  0  0  0
   -5.2113    3.2845   14.6270 N   0  0  0  0  0  0  0  0  0  0  0  0
   -4.1431    3.6915   15.5108 C   0  0  0  0  0  0  0  0  0  0  0  0
   -5.1017    2.8293   13.3391 C   0  0  0  0  0  0  0  0  0  0  0  0
   -4.8986    0.9984    7.4996 C   0  0  0  0  0  0  0  0  0  0  0  0
   -5.3276    2.3113    8.0645 C   0  0  0  0  0  0  0  0  0  0  0  0
   -4.2529    1.1777    6.3106 N   0  0  0  0  0  0  0  0  0  0  0  0
   -1.8327    1.3632    4.4519 C   0  0  0  0  0  0  0  0  0  0  0  0
   -1.3861    1.8266    5.5110 O   0  0  0  0  0  0  0  0  0  0  0  0
   -1.2659    1.6527    3.2231 N   0  0  0  0  0  0  0  0  0  0  0  0
   -0.2849    2.7105    3.2698 C   0  0  0  0  0  0  0  0  0  0  0  0
  1  2  1  0
  2  3  1  0
  2  4  1  0
  4  5  1  0
  5  6  2  0
  5 31  1  0
  6  7  1  0
  7  8  2  0
  8  9  1  0
  8 29  1  0
  9 10  2  0
  9 28  1  0
 10 11  1  0
 11 12  2  0
 12 13  1  0
 12 26  1  0
 13 14  1  0
 14 15  2  0
 14 19  1  0
 15 16  1  0
 16 17  2  0
 17 18  1  0
 18 19  2  0
 18 20  1  0
 20 21  1  0
 20 25  2  0
 21 22  2  0
 22 23  1  0
 23 24  1  0
 23 25  1  0
 26 27  1  0
 26 28  2  0
 29 30  2  0
 29 31  1  0
 31 32  1  0
M  END
>  <DRUGBANK_ID>  (1) 
DB17520

>  <COMMON_NAME>  (1) 
Vimseltinib

>  <CAS_NUMBER>  (1) 
1628606-05-2

>  <UNII>  (1) 
PX9FTM69BF

>  <SYNONYMS>  (1) 
2-(isopropylamino)-3-methyl-5-(6-methyl-5-((2-(1-methyl-1h-pyrazol-4-yl)pyridin-4-yl)oxy)pyridin-2-yl)pyrimidin-4(3h)-one; 3-methyl-2-((1-methylethyl)amino)-5-(6-methyl-5-((2-(1-methyl-1h-pyrazol-4-yl)-4-pyridinyl)oxy)-2-pyridinyl)-4(3h)-pyrimidinone; 4(3h)-pyrimidinone, 3-methyl-2-((1-methylethyl)amino)-5-(6-methyl-5-((2-(1-methyl-1h-pyrazol-4-yl)-4-pyridinyl)oxy)-2-pyridinyl)-

$$$$
