
     RDKit          3D

 16 17  0  0  1  0  0  0  0  0999 V2000
   -0.6148    1.1821   -0.0092 C   0  0  0  0  0  0  0  0  0  0  0  0
   -1.4356   -0.0371   -0.0271 C   0  0  0  0  0  0  0  0  0  0  0  0
   -0.7135   -1.1566   -0.0415 C   0  0  0  0  0  0  0  0  0  0  0  0
    0.6704   -1.1503   -0.0200 N   0  0  0  0  0  0  0  0  0  0  0  0
    1.3851    0.0518   -0.0085 C   0  0  0  0  0  0  0  0  0  0  0  0
    2.6161    0.0663    0.0210 O   0  0  0  0  0  0  0  0  0  0  0  0
    0.6760    1.2306   -0.0028 N   0  0  0  0  0  0  0  0  0  0  0  0
    1.4236   -2.3984    0.0360 C   0  0  1  0  0  0  0  0  0  0  0  0
    1.1407   -3.2387    1.2770 C   0  0  0  0  0  0  0  0  0  0  0  0
    1.3862   -4.6446    0.7818 C   0  0  1  0  0  0  0  0  0  0  0  0
    0.9996   -4.5913   -0.6955 C   0  0  2  0  0  0  0  0  0  0  0  0
    1.1259   -3.2133   -1.1109 O   0  0  0  0  0  0  0  0  0  0  0  0
   -0.4402   -5.0570   -0.9576 C   0  0  0  0  0  0  0  0  0  0  0  0
   -1.4097   -4.3360   -0.2024 O   0  0  0  0  0  0  0  0  0  0  0  0
    2.7640   -4.9748    0.9497 O   0  0  0  0  0  0  0  0  0  0  0  0
   -3.4491    0.0490   -0.0106 I   0  0  0  0  0  0  0  0  0  0  0  0
  1  2  1  0
  1  7  2  0
  2  3  2  0
  2 16  1  0
  3  4  1  0
  4  5  1  0
  5  6  2  0
  5  7  1  0
  8  4  1  1
  8  9  1  0
  8 12  1  0
  9 10  1  0
 10 11  1  0
 10 15  1  6
 11 12  1  0
 11 13  1  1
 13 14  1  0
M  END
>  <DRUGBANK_ID>  (1) 
DB06485

>  <COMMON_NAME>  (1) 
Ropidoxuridine

>  <CAS_NUMBER>  (1) 
93265-81-7

>  <UNII>  (1) 
3HX21A3SQF

>  <SYNONYMS>  (1) 
1-(2-DEOXY-.BETA.-D-ERYTHRO-PENTOFURANOSYL)-5-IODOPYRIMIDIN-2(1H)-ONE; 2(1H)-PYRIMIDINONE, 1-(2-DEOXY-.BETA.-D-ERYTHRO-PENTOFURANOSYL)-5-IODO-; 5-iodo-2-pyrimidinone-2'-deoxyribose; Ropidoxuridine

$$$$
