I48
     RDKit          3D

 27 29  0  0  0  0  0  0  0  0999 V2000
    1.5037    0.0133    0.0935 N   0  0  0  0  0  0  0  0  0  0  0  0
    0.7432    1.0853    0.3333 C   0  0  0  0  0  0  0  0  0  0  0  0
   -0.5942    0.8996    0.6588 C   0  0  0  0  0  0  0  0  0  0  0  0
   -1.1460   -0.3915    0.6700 C   0  0  0  0  0  0  0  0  0  0  0  0
   -0.3372   -1.4445    0.3234 C   0  0  0  0  0  0  0  0  0  0  0  0
    0.9998   -1.2264    0.0856 C   0  0  0  0  0  0  0  0  0  0  0  0
   -2.4775   -0.5751    0.8795 N   0  0  0  0  0  0  0  0  0  0  0  0
   -3.3060   -1.7671    0.9691 C   0  0  0  0  0  0  0  0  0  0  0  0
   -4.4808   -1.4688    1.8801 C   0  0  0  0  0  0  0  0  0  0  0  0
   -5.3826   -0.4270    1.3845 O   0  0  0  0  0  0  0  0  0  0  0  0
   -5.0392    0.8983    1.3428 C   0  0  0  0  0  0  0  0  0  0  0  0
   -4.1587    1.4489    0.4033 C   0  0  0  0  0  0  0  0  0  0  0  0
   -3.7475    2.7498    0.2190 C   0  0  0  0  0  0  0  0  0  0  0  0
   -4.2941    3.6282    1.1483 C   0  0  0  0  0  0  0  0  0  0  0  0
   -5.2992    3.1569    2.0640 C   0  0  0  0  0  0  0  0  0  0  0  0
   -5.6917    1.7999    2.1265 C   0  0  0  0  0  0  0  0  0  0  0  0
   -6.0083    4.0939    2.9937 C   0  0  0  0  0  0  0  0  0  0  0  0
   -2.7134    3.0473   -0.7747 N   0  0  0  0  0  0  0  0  0  0  0  0
   -2.0756    2.0942   -2.1254 S   0  0  0  0  0  0  0  0  0  0  0  0
   -2.4847    2.7639   -3.3631 O   0  0  0  0  0  0  0  0  0  0  0  0
   -0.6579    2.0113   -1.8698 O   0  0  0  0  0  0  0  0  0  0  0  0
   -2.6634    0.3688   -2.3010 C   0  0  0  0  0  0  0  0  0  0  0  0
   -1.7515   -0.7059   -2.4619 C   0  0  0  0  0  0  0  0  0  0  0  0
   -2.1702   -2.0443   -2.2926 C   0  0  0  0  0  0  0  0  0  0  0  0
   -3.4926   -2.3110   -1.9663 C   0  0  0  0  0  0  0  0  0  0  0  0
   -4.4053   -1.2462   -1.8710 C   0  0  0  0  0  0  0  0  0  0  0  0
   -4.0179    0.0680   -2.1514 C   0  0  0  0  0  0  0  0  0  0  0  0
  1  2  2  0
  1  6  1  0
  2  3  1  0
  3  4  2  0
  4  5  1  0
  4  7  1  0
  5  6  2  0
  7  8  1  0
  8  9  1  0
  9 10  1  0
 10 11  1  0
 11 12  2  0
 11 16  1  0
 12 13  1  0
 13 14  2  0
 13 18  1  0
 14 15  1  0
 15 16  2  0
 15 17  1  0
 18 19  1  0
 19 20  2  0
 19 21  2  0
 19 22  1  0
 22 23  2  0
 22 27  1  0
 23 24  1  0
 24 25  2  0
 25 26  1  0
 26 27  2  0
M  CHG  1   1   1
M  END
>  <DRUGBANK_ID>  (1) 
DB07944

>  <COMMON_NAME>  (1) 
N-{3-METHYL-5-[2-(PYRIDIN-4-YLAMINO)-ETHOXY]-PHENYL}-BENZENESULFONAMIDE

$$$$
