
     RDKit          3D

 34 35  0  0  1  0  0  0  0  0999 V2000
  -11.0102   11.7598   -9.0269 C   0  0  0  0  0  0  0  0  0  0  0  0
  -11.1622   10.5662   -8.0980 C   0  0  0  0  0  0  0  0  0  0  0  0
  -10.4488    9.3422   -8.6734 C   0  0  0  0  0  0  0  0  0  0  0  0
   -8.9495    9.6004   -8.8588 C   0  0  0  0  0  0  0  0  0  0  0  0
   -8.2856    9.9645   -7.5252 C   0  0  0  0  0  0  0  0  0  0  0  0
   -8.4225    8.8089   -6.5311 C   0  0  0  0  0  0  0  0  0  0  0  0
   -7.7637    7.5531   -7.1082 C   0  0  0  0  0  0  0  0  0  0  0  0
   -6.2722    7.8143   -7.3673 C   0  0  0  0  0  0  0  0  0  0  0  0
   -5.5497    8.1119   -6.0515 C   0  0  0  0  0  0  0  0  0  0  0  0
   -5.7342    6.9180   -5.1153 C   0  0  0  0  0  0  0  0  0  0  0  0
   -5.1023    5.6610   -5.7277 C   0  0  0  0  0  0  0  0  0  0  0  0
   -2.2853   10.5921   -2.4686 C   0  0  0  0  0  0  0  0  0  0  0  0
    0.3399    7.5154   -3.8321 C   0  0  0  0  0  0  0  0  0  0  0  0
   -2.2334    9.1360   -1.9865 C   0  0  2  0  0  0  0  0  0  0  0  0
   -0.9839    6.7220   -3.7632 C   0  0  2  0  0  0  0  0  0  0  0  0
   -3.6671    8.5883   -2.0133 C   0  0  2  0  0  0  0  0  0  0  0  0
   -3.7244    7.1279   -1.5573 C   0  0  1  0  0  0  0  0  0  0  0  0
   -2.1022    4.7149   -2.5981 C   0  0  2  0  0  0  0  0  0  0  0  0
   -2.9083    6.8232   -0.2816 C   0  0  2  0  0  0  0  0  0  0  0  0
   -2.9298    4.5486   -3.8916 C   0  0  2  0  0  0  0  0  0  0  0  0
   -0.9412    5.7353   -2.6013 C   0  0  2  0  0  0  0  0  0  0  0  0
   -2.9060    5.8277   -4.7649 C   0  0  2  0  0  0  0  0  0  0  0  0
   -1.4801    7.3172   -0.5522 C   0  0  2  0  0  0  0  0  0  0  0  0
   -1.0101   11.2023   -2.4478 O   0  0  0  0  0  0  0  0  0  0  0  0
    0.1810    8.7256   -4.5650 O   0  0  0  0  0  0  0  0  0  0  0  0
   -4.2029    8.7620   -3.3298 O   0  0  0  0  0  0  0  0  0  0  0  0
   -5.0101    6.5163   -1.6317 O   0  0  0  0  0  0  0  0  0  0  0  0
   -1.6876    3.4983   -1.9492 O   0  0  0  0  0  0  0  0  0  0  0  0
   -2.9234    5.4592    0.1661 O   0  0  0  0  0  0  0  0  0  0  0  0
   -4.2663    4.2158   -3.4505 O   0  0  0  0  0  0  0  0  0  0  0  0
   -3.6793    5.7383   -5.9607 O   0  0  0  0  0  0  0  0  0  0  0  0
   -1.4833    8.7538   -0.8390 O   0  0  0  0  0  0  0  0  0  0  0  0
   -1.5124    6.1957   -4.9928 O   0  0  0  0  0  0  0  0  0  0  0  0
   -0.6484    6.4122   -1.3388 O   0  0  0  0  0  0  0  0  0  0  0  0
  2  1  1  0
  3  2  1  0
  4  3  1  0
  5  4  1  0
  6  5  1  0
  7  6  1  0
  8  7  1  0
  9  8  1  0
 10  9  1  0
 11 10  1  0
 14 12  1  1
 15 13  1  6
 16 14  1  0
 16 26  1  6
 17 16  1  0
 17 27  1  1
 18 28  1  6
 19 17  1  0
 19 29  1  6
 20 18  1  0
 20 30  1  1
 21 15  1  0
 21 18  1  0
 21 34  1  1
 22 20  1  0
 22 31  1  6
 23 19  1  0
 23 34  1  6
 24 12  1  0
 25 13  1  0
 31 11  1  0
 32 14  1  0
 32 23  1  0
 33 15  1  0
 33 22  1  0
M  END
>  <DRUGBANK_ID>  (1) 
DB02686

>  <SECONDARY_ACCESSION_NUMBERS>  (1) 
EXPT03188

>  <COMMON_NAME>  (1) 
Undecyl-Beta-D-Maltopyranoside

$$$$
