LPF
     RDKit          3D

 26 26  0  0  0  0  0  0  0  0999 V2000
    3.0378    3.5704   -1.0716 C   0  0  0  0  0  0  0  0  0  0  0  0
    4.0284    3.8644   -1.9571 F   0  0  0  0  0  0  0  0  0  0  0  0
    1.9919    4.3772   -1.3877 F   0  0  0  0  0  0  0  0  0  0  0  0
    3.4561    4.0012    0.1353 F   0  0  0  0  0  0  0  0  0  0  0  0
    2.6933    2.1002   -1.1172 C   0  0  0  0  0  0  0  0  0  0  0  0
    2.3372    1.5864   -2.1875 O   0  0  0  0  0  0  0  0  0  0  0  0
    3.0020    1.2078    0.1040 C   0  0  2  0  0  0  0  0  0  0  0  0
    2.1470   -0.0749    0.0598 C   0  0  0  0  0  0  0  0  0  0  0  0
    2.7902   -1.3980   -0.3231 C   0  0  0  0  0  0  0  0  0  0  0  0
    3.5815   -1.5913   -1.4654 C   0  0  0  0  0  0  0  0  0  0  0  0
    4.0543   -2.8725   -1.7968 C   0  0  0  0  0  0  0  0  0  0  0  0
    3.7515   -3.9704   -0.9923 C   0  0  0  0  0  0  0  0  0  0  0  0
    2.9768   -3.7920    0.1466 C   0  0  0  0  0  0  0  0  0  0  0  0
    2.4742   -2.5267    0.4547 C   0  0  0  0  0  0  0  0  0  0  0  0
    2.8850    1.8574    1.4217 N   0  0  0  0  0  0  0  0  0  0  0  0
    3.8450    2.1127    2.3673 C   0  0  0  0  0  0  0  0  0  0  0  0
    3.4971    2.7057    3.3922 O   0  0  0  0  0  0  0  0  0  0  0  0
    5.3356    1.8006    2.1002 C   0  0  1  0  0  0  0  0  0  0  0  0
    5.5456    0.3729    1.7768 N   0  0  0  0  0  0  0  0  0  0  0  0
    6.0499   -0.2796    0.6887 C   0  0  0  0  0  0  0  0  0  0  0  0
    6.0993   -1.5156    0.7336 O   0  0  0  0  0  0  0  0  0  0  0  0
    6.5275    0.4475   -0.5526 C   0  0  0  0  0  0  0  0  0  0  0  0
    5.8899    2.7326    1.0386 C   0  0  0  0  0  0  0  0  0  0  0  0
    5.8571    4.2334    1.2432 C   0  0  0  0  0  0  0  0  0  0  0  0
    6.7469    4.6108    2.3997 C   0  0  0  0  0  0  0  0  0  0  0  0
    6.3308    4.8710   -0.0718 C   0  0  0  0  0  0  0  0  0  0  0  0
  1  2  1  0
  1  3  1  0
  1  4  1  0
  1  5  1  0
  5  6  2  0
  7 15  1  0
  7  8  1  1
  7  5  1  0
  8  9  1  0
  9 10  2  0
  9 14  1  0
 10 11  1  0
 11 12  2  0
 12 13  1  0
 13 14  2  0
 15 16  1  0
 16 17  2  0
 16 18  1  0
 18 19  1  0
 18 23  1  6
 19 20  1  0
 20 21  2  0
 20 22  1  0
 23 24  1  0
 24 25  1  0
 24 26  1  0
M  END
>  <DRUGBANK_ID>  (1) 
DB08119

>  <COMMON_NAME>  (1) 
1,1,1-TRIFLUORO-3-((N-ACETYL)-L-LEUCYLAMIDO)-4-PHENYL-BUTAN-2-ONE(N-ACETYL-L-LEUCYL-L-PHENYLALANYL TRIFLUOROMETHYL KETONE)

$$$$
