
     RDKit          3D

 16 17  0  0  0  0  0  0  0  0999 V2000
    0.7101    0.0212    0.0669 C   0  0  0  0  0  0  0  0  0  0  0  0
   -0.1629    1.2312    0.2190 C   0  0  0  0  0  0  0  0  0  0  0  0
   -1.5098    0.7195   -0.2824 C   0  0  0  0  0  0  0  0  0  0  0  0
   -1.4981   -0.7840    0.0302 C   0  0  2  0  0  0  0  0  0  0  0  0
   -0.0955   -1.0923    0.0876 N   0  0  0  0  0  0  0  0  0  0  0  0
    1.9278    0.0017   -0.0177 O   0  0  0  0  0  0  0  0  0  0  0  0
   -2.3256   -1.5799   -1.0229 C   0  0  0  0  0  0  0  0  0  0  0  0
   -1.8991   -1.5383   -2.3358 N   0  0  0  0  0  0  0  0  0  0  0  0
   -3.4485   -2.0002   -0.7377 O   0  0  0  0  0  0  0  0  0  0  0  0
   -0.6006   -1.9859   -2.7702 C   0  0  0  0  0  0  0  0  0  0  0  0
   -0.2550   -0.9536   -4.1930 S   0  0  0  0  0  0  0  0  0  0  0  0
   -1.9823   -1.0306   -4.7317 C   0  0  0  0  0  0  0  0  0  0  0  0
   -2.8271   -1.2830   -3.4582 C   0  0  1  0  0  0  0  0  0  0  0  0
   -3.7737   -2.4511   -3.7625 C   0  0  0  0  0  0  0  0  0  0  0  0
   -5.0903   -2.1312   -3.7916 O   0  0  0  0  0  0  0  0  0  0  0  0
   -3.3858   -3.5829   -4.0230 O   0  0  0  0  0  0  0  0  0  0  0  0
  1  2  1  0
  1  5  1  0
  1  6  2  0
  2  3  1  0
  3  4  1  0
  4  5  1  0
  4  7  1  6
  7  8  1  0
  7  9  2  0
  8 10  1  0
  8 13  1  0
 10 11  1  0
 11 12  1  0
 12 13  1  0
 13 14  1  6
 14 15  1  0
 14 16  2  0
M  END
>  <DRUGBANK_ID>  (1) 
DB11364

>  <COMMON_NAME>  (1) 
Pidotimod

>  <CAS_NUMBER>  (1) 
121808-62-6

>  <UNII>  (1) 
785363R681

>  <SYNONYMS>  (1) 
Pidotimod

$$$$
