
     RDKit          3D

  9  8  0  0  0  0  0  0  0  0999 V2000
    0.4267   -0.1617   -0.5164 N   0  0  0  0  0  0  0  0  0  0  0  0
    0.0674    1.0888   -0.8991 C   0  0  0  0  0  0  0  0  0  0  0  0
   -1.2727    1.2469   -0.6625 N   0  0  0  0  0  0  0  0  0  0  0  0
   -1.8975    2.0914   -1.5791 O   0  0  0  0  0  0  0  0  0  0  0  0
    0.8392    2.0117   -1.3096 N   0  0  0  0  0  0  0  0  0  0  0  0
    2.3032    1.9541   -1.4259 C   0  0  0  0  0  0  0  0  0  0  0  0
    2.9778    2.2070   -0.0641 C   0  0  0  0  0  0  0  0  0  0  0  0
    2.7166    1.1325    0.9787 C   0  0  0  0  0  0  0  0  0  0  0  0
    3.2491   -0.1979    0.5127 N   0  0  0  0  0  0  0  0  0  0  0  0
  1  2  1  0
  2  3  1  0
  2  5  2  0
  3  4  1  0
  5  6  1  0
  6  7  1  0
  7  8  1  0
  8  9  1  0
M  CHG  1   9   1
M  END
>  <DRUGBANK_ID>  (1) 
DB04197

>  <SECONDARY_ACCESSION_NUMBERS>  (1) 
EXPT00467

>  <COMMON_NAME>  (1) 
Descarboxy-nor-N(Omega)-Hydroxy-L-Arginine

$$$$
