
     RDKit          3D

 18 19  0  0  0  0  0  0  0  0999 V2000
    0.9282   -0.1228    0.1238 O   0  0  0  0  0  0  0  0  0  0  0  0
    1.0572    1.3641    1.8284 O   0  0  0  0  0  0  0  0  0  0  0  0
   -4.0013   -1.6977    0.6402 N   0  0  0  0  0  0  0  0  0  0  0  0
   -5.4073   -1.6170    0.4984 N   0  0  0  0  0  0  0  0  0  0  0  0
   -8.0440    0.7105    0.1144 N   0  0  0  0  0  0  0  0  0  0  0  0
   -7.2201    1.5054    0.6733 N   0  0  0  0  0  0  0  0  0  0  0  0
   -8.5304   -1.5461    0.4758 N   0  0  0  0  0  0  0  0  0  0  0  0
   -5.4975    1.3317    2.2181 N   0  0  0  0  0  0  0  0  0  0  0  0
   -3.0895   -0.6195    0.5144 C   0  0  0  0  0  0  0  0  0  0  0  0
   -1.7293   -0.6467    0.7785 C   0  0  0  0  0  0  0  0  0  0  0  0
   -1.0485    0.5927    0.9780 C   0  0  0  0  0  0  0  0  0  0  0  0
   -3.5975    0.6431    0.3137 C   0  0  0  0  0  0  0  0  0  0  0  0
   -1.7030    1.8300    1.0258 C   0  0  0  0  0  0  0  0  0  0  0  0
   -3.0089    1.8501    0.6510 C   0  0  0  0  0  0  0  0  0  0  0  0
   -6.2338   -0.6499    0.8223 C   0  0  0  0  0  0  0  0  0  0  0  0
   -7.6707   -0.5906    0.3996 C   0  0  0  0  0  0  0  0  0  0  0  0
   -6.2386    0.7703    1.3251 C   0  0  0  0  0  0  0  0  0  0  0  0
    0.3990    0.6358    1.0891 C   0  0  0  0  0  0  0  0  0  0  0  0
  1 18  1  0
  2 18  2  0
  3  4  1  0
  3  9  1  0
  4 15  2  3
  5  6  2  0
  5 16  1  0
  6 17  1  0
  7 16  2  0
  8 17  2  0
  9 10  2  0
  9 12  1  0
 10 11  1  0
 11 13  2  0
 11 18  1  0
 12 14  2  0
 13 14  1  0
 15 16  1  0
 15 17  1  0
M  END
>  <DRUGBANK_ID>  (1) 
DB08668

>  <COMMON_NAME>  (1) 
3-(5-Amino-3-imino-3H-pyrazol-4-ylazo)-benzoic acid

$$$$
