
     RDKit          3D

 41 41  0  0  1  0  0  0  0  0999 V2000
   -9.5480   -5.4513   -0.5341 C   0  0  0  0  0  0  0  0  0  0  0  0
   -8.6828   -6.5153    0.0478 C   0  0  0  0  0  0  0  0  0  0  0  0
   -8.4464   -7.6792   -0.5636 C   0  0  0  0  0  0  0  0  0  0  0  0
   -9.0208   -8.0467   -1.9012 C   0  0  0  0  0  0  0  0  0  0  0  0
   -8.0373   -8.4889   -2.9730 C   0  0  1  0  0  0  0  0  0  0  0  0
   -6.9999   -9.5421   -2.4734 C   0  0  0  0  0  0  0  0  0  0  0  0
   -7.7450  -10.7970   -2.4086 C   0  0  0  0  0  0  0  0  0  0  0  0
   -7.7499  -11.7536   -3.3389 C   0  0  0  0  0  0  0  0  0  0  0  0
   -6.7081  -12.2340   -4.0628 N   0  0  0  0  0  0  0  0  0  0  0  0
   -6.4879  -13.3978   -4.7974 C   0  0  0  0  0  0  0  0  0  0  0  0
   -5.5462  -13.3501   -5.5940 O   0  0  0  0  0  0  0  0  0  0  0  0
   -7.2870  -14.7787   -4.6222 C   0  0  2  0  0  0  0  0  0  0  0  0
   -6.9074  -15.6999   -3.2714 C   0  0  0  0  0  0  0  0  0  0  0  0
   -7.3444  -15.4369   -1.7809 C   0  0  0  0  0  0  0  0  0  0  0  0
   -7.4179  -17.1356   -3.4553 C   0  0  0  0  0  0  0  0  0  0  0  0
   -5.3944  -15.5799   -3.1434 C   0  0  0  0  0  0  0  0  0  0  0  0
   -7.8516  -15.5697   -5.7303 N   0  0  0  0  0  0  0  0  0  0  0  0
   -9.2002  -15.6344   -6.0661 C   0  0  0  0  0  0  0  0  0  0  0  0
   -9.5524  -16.2310   -7.0856 O   0  0  0  0  0  0  0  0  0  0  0  0
  -10.3052  -14.9695   -5.2618 C   0  0  0  0  0  0  0  0  0  0  0  0
  -10.4599  -14.3727   -4.0689 C   0  0  0  0  0  0  0  0  0  0  0  0
   -9.5321  -14.1022   -3.0202 C   0  0  0  0  0  0  0  0  0  0  0  0
   -9.4058  -13.4718   -1.8709 C   0  0  0  0  0  0  0  0  0  0  0  0
  -10.3456  -12.6546   -1.3010 C   0  0  0  0  0  0  0  0  0  0  0  0
   -9.8756  -11.8546   -0.3647 C   0  0  0  0  0  0  0  0  0  0  0  0
  -10.8133  -11.1897    0.5247 C   0  0  2  0  0  0  0  0  0  0  0  0
  -10.8530   -9.7495    0.1631 C   0  0  0  0  0  0  0  0  0  0  0  0
  -10.4276  -11.5286    1.9565 C   0  0  2  0  0  0  0  0  0  0  0  0
   -9.1128  -12.3162    2.1591 C   0  0  0  0  0  0  0  0  0  0  0  0
   -9.2689  -13.7216    1.6117 C   0  0  0  0  0  0  0  0  0  0  0  0
  -10.4780  -14.3010    1.4699 C   0  0  0  0  0  0  0  0  0  0  0  0
  -11.6751  -13.6086    2.0721 C   0  0  0  0  0  0  0  0  0  0  0  0
  -12.7519  -14.1649    2.2476 O   0  0  0  0  0  0  0  0  0  0  0  0
  -11.5094  -12.3187    2.4881 O   0  0  0  0  0  0  0  0  0  0  0  0
  -10.5559  -15.4900    0.7430 O   0  0  0  0  0  0  0  0  0  0  0  0
  -11.8363  -16.1117    0.6496 C   0  0  0  0  0  0  0  0  0  0  0  0
  -11.6599  -12.7028   -1.9241 C   0  0  0  0  0  0  0  0  0  0  0  0
   -8.7776   -8.9173   -4.2103 O   0  0  0  0  0  0  0  0  0  0  0  0
   -9.8625   -9.7717   -4.1640 C   0  0  0  0  0  0  0  0  0  0  0  0
  -10.4334  -10.2015   -3.2067 O   0  0  0  0  0  0  0  0  0  0  0  0
  -10.2576  -10.2192   -5.3911 N   0  0  0  0  0  0  0  0  0  0  0  0
  1  2  1  0
  2  3  2  0
  3  4  1  0
  5  4  1  1
  5  6  1  0
  5 38  1  0
  6  7  1  0
  7  8  2  0
  8  9  1  0
  9 10  1  0
 10 11  2  0
 12 17  1  6
 12 13  1  0
 12 10  1  0
 13 14  1  0
 13 15  1  0
 13 16  1  0
 17 18  1  0
 18 19  2  0
 18 20  1  0
 20 21  2  0
 21 22  1  0
 22 23  2  0
 23 24  1  0
 24 25  2  0
 24 37  1  0
 26 27  1  1
 26 25  1  0
 28 29  1  6
 28 34  1  0
 28 26  1  0
 29 30  1  0
 30 31  2  0
 31 32  1  0
 31 35  1  0
 32 33  2  0
 32 34  1  0
 35 36  1  0
 38 39  1  0
 39 40  2  0
 39 41  1  0
M  END
>  <DRUGBANK_ID>  (1) 
DB13137

>  <COMMON_NAME>  (1) 
PM-060184

>  <CAS_NUMBER>  (1) 
960210-99-5

>  <UNII>  (1) 
52Y8L60CR7

$$$$
