QMS
     RDKit          3D

 15 16  0  0  0  0  0  0  0  0999 V2000
    0.9732   -0.0305    0.1574 O   0  0  0  0  0  0  0  0  0  0  0  0
    2.4184    0.0012    0.0375 S   0  0  0  0  0  0  0  0  0  0  0  0
    3.0973    1.1688   -0.4767 O   0  0  0  0  0  0  0  0  0  0  0  0
    3.0619   -0.3171    1.6663 C   0  0  0  0  0  0  0  0  0  0  0  0
    2.9517   -1.3141   -0.8486 N   0  0  0  0  0  0  0  0  0  0  0  0
    2.0344   -2.1478   -1.5844 C   0  0  0  0  0  0  0  0  0  0  0  0
    0.9918   -1.5538   -2.3091 C   0  0  0  0  0  0  0  0  0  0  0  0
    2.2180   -3.5450   -1.6066 C   0  0  0  0  0  0  0  0  0  0  0  0
    3.2850   -4.1364   -1.0114 N   0  0  0  0  0  0  0  0  0  0  0  0
    3.3668   -5.4891   -1.0340 C   0  0  0  0  0  0  0  0  0  0  0  0
    2.4261   -6.3166   -1.6159 C   0  0  0  0  0  0  0  0  0  0  0  0
    1.3397   -5.7213   -2.2377 C   0  0  0  0  0  0  0  0  0  0  0  0
    1.2265   -4.3248   -2.2575 C   0  0  0  0  0  0  0  0  0  0  0  0
    0.1382   -3.7170   -2.9017 C   0  0  0  0  0  0  0  0  0  0  0  0
    0.0331   -2.3335   -2.9437 C   0  0  0  0  0  0  0  0  0  0  0  0
  1  2  2  0
  2  3  2  0
  2  4  1  0
  2  5  1  0
  5  6  1  0
  6  7  2  0
  6  8  1  0
  7 15  1  0
  8  9  2  0
  8 13  1  0
  9 10  1  0
 10 11  2  0
 11 12  1  0
 12 13  2  0
 13 14  1  0
 14 15  2  0
M  END
>  <DRUGBANK_ID>  (1) 
DB08451

>  <COMMON_NAME>  (1) 
N-(QUINOLIN-8-YL)METHANESULFONAMIDE

$$$$
