FTB
     RDKit          3D

 34 37  0  0  0  0  0  0  0  0999 V2000
    0.9265    0.1772   -0.0025 O   0  0  0  0  0  0  0  0  0  0  0  0
    2.1518    0.0850    0.0370 C   0  0  0  0  0  0  0  0  0  0  0  0
    3.0047    1.2319   -0.4208 C   0  0  0  0  0  0  0  0  0  0  0  0
    2.8433   -1.0140    0.5093 N   0  0  0  0  0  0  0  0  0  0  0  0
    2.1775   -2.2007    0.8717 C   0  0  0  0  0  0  0  0  0  0  0  0
    1.0903   -2.6814    0.1278 C   0  0  0  0  0  0  0  0  0  0  0  0
    0.4599   -3.9058    0.4158 C   0  0  0  0  0  0  0  0  0  0  0  0
    2.6299   -2.9533    1.9282 C   0  0  0  0  0  0  0  0  0  0  0  0
    1.9936   -4.1714    2.1676 C   0  0  0  0  0  0  0  0  0  0  0  0
    0.9073   -4.6890    1.4656 C   0  0  0  0  0  0  0  0  0  0  0  0
    0.2108   -5.9695    1.9193 C   0  0  0  0  0  0  0  0  0  0  0  0
    1.0464   -7.2293    1.9504 C   0  0  0  0  0  0  0  0  0  0  0  0
    1.9911   -7.5595    2.8217 N   0  0  0  0  0  0  0  0  0  0  0  0
    2.6096   -8.6833    2.3475 C   0  0  0  0  0  0  0  0  0  0  0  0
    3.8254   -9.2649    2.7060 N   0  0  0  0  0  0  0  0  0  0  0  0
    4.7979   -8.6666    3.6285 C   0  0  0  0  0  0  0  0  0  0  0  0
    5.4098   -7.3390    3.1436 C   0  0  0  0  0  0  0  0  0  0  0  0
    4.3722   -6.2384    3.0085 C   0  0  0  0  0  0  0  0  0  0  0  0
    3.6247   -6.1026    4.3598 C   0  0  0  0  0  0  0  0  0  0  0  0
    1.8962   -9.1540    1.2991 C   0  0  0  0  0  0  0  0  0  0  0  0
    0.8685   -8.2793    1.0812 N   0  0  0  0  0  0  0  0  0  0  0  0
    2.2790  -10.2853    0.5676 C   0  0  0  0  0  0  0  0  0  0  0  0
    1.7465  -10.5136   -0.5210 O   0  0  0  0  0  0  0  0  0  0  0  0
    3.2883  -11.0297    1.1748 N   0  0  0  0  0  0  0  0  0  0  0  0
    4.1683  -10.4994    2.1325 C   0  0  0  0  0  0  0  0  0  0  0  0
    5.2131  -11.0817    2.4389 O   0  0  0  0  0  0  0  0  0  0  0  0
    3.6133  -12.3462    0.6305 C   0  0  0  0  0  0  0  0  0  0  0  0
    2.5376  -13.3763    0.9056 C   0  0  0  0  0  0  0  0  0  0  0  0
    1.2421  -13.2115    0.3932 C   0  0  0  0  0  0  0  0  0  0  0  0
    0.2241  -14.1249    0.6093 C   0  0  0  0  0  0  0  0  0  0  0  0
    0.5093  -15.3036    1.2687 C   0  0  0  0  0  0  0  0  0  0  0  0
    1.8063  -15.5370    1.7299 C   0  0  0  0  0  0  0  0  0  0  0  0
    2.7921  -14.5535    1.6051 C   0  0  0  0  0  0  0  0  0  0  0  0
    3.9925  -14.7713    2.1608 F   0  0  0  0  0  0  0  0  0  0  0  0
  1  2  2  0
  2  3  1  0
  2  4  1  0
  4  5  1  0
  5  6  2  0
  5  8  1  0
  6  7  1  0
  7 10  2  0
  8  9  2  0
  9 10  1  0
 10 11  1  0
 11 12  1  0
 12 13  2  0
 12 21  1  0
 13 14  1  0
 14 15  1  0
 14 20  2  0
 15 16  1  0
 15 25  1  0
 16 17  1  0
 17 18  1  0
 18 19  1  0
 20 21  1  0
 20 22  1  0
 22 23  2  0
 22 24  1  0
 24 25  1  0
 24 27  1  0
 25 26  2  0
 27 28  1  0
 28 29  2  0
 28 33  1  0
 29 30  1  0
 30 31  2  0
 31 32  1  0
 32 33  2  0
 33 34  1  0
M  END
>  <DRUGBANK_ID>  (1) 
DB02008

>  <SECONDARY_ACCESSION_NUMBERS>  (1) 
EXPT01503

>  <COMMON_NAME>  (1) 
1-(2-Fluorobenzyl)-3-Butyl-8-(N-Acetyl-4-Aminobenzyl)-Xanthine

$$$$
