
     RDKit          3D

 30 33  0  0  0  0  0  0  0  0999 V2000
   -0.9601   -0.2712    1.4001 N   0  0  0  0  0  0  0  0  0  0  0  0
   -1.7074   -0.5475    0.1620 C   0  0  0  0  0  0  0  0  0  0  0  0
   -1.1075   -0.0023   -1.1511 C   0  0  0  0  0  0  0  0  0  0  0  0
    0.2297   -0.3981   -1.4384 O   0  0  0  0  0  0  0  0  0  0  0  0
    0.4062   -0.8041    1.3603 C   0  0  2  0  0  0  0  0  0  0  0  0
    0.5675   -2.3014    1.1902 C   0  0  0  0  0  0  0  0  0  0  0  0
    1.6847   -2.7415    1.9021 C   0  0  0  0  0  0  0  0  0  0  0  0
    2.3831   -1.5839    2.5634 C   0  0  0  0  0  0  0  0  0  0  0  0
    1.2741   -0.5145    2.6021 C   0  0  0  0  0  0  0  0  0  0  0  0
    2.0468   -4.0919    1.8789 C   0  0  0  0  0  0  0  0  0  0  0  0
    1.2432   -5.0143    1.1895 C   0  0  0  0  0  0  0  0  0  0  0  0
    0.1470   -4.5831    0.4654 C   0  0  0  0  0  0  0  0  0  0  0  0
   -0.1390   -3.2284    0.4150 C   0  0  0  0  0  0  0  0  0  0  0  0
    3.2015   -4.5719    2.5925 C   0  0  0  0  0  0  0  0  0  0  0  0
    3.3350   -4.3613    3.9357 N   0  0  0  0  0  0  0  0  0  0  0  0
    4.4970   -4.9105    4.1814 C   0  0  0  0  0  0  0  0  0  0  0  0
    5.0737   -5.4984    3.0997 O   0  0  0  0  0  0  0  0  0  0  0  0
    4.1984   -5.2755    2.0310 N   0  0  0  0  0  0  0  0  0  0  0  0
    5.1250   -5.0989    5.4610 C   0  0  0  0  0  0  0  0  0  0  0  0
    4.3695   -5.7425    6.4315 C   0  0  0  0  0  0  0  0  0  0  0  0
    4.8479   -5.9356    7.7180 C   0  0  0  0  0  0  0  0  0  0  0  0
    3.9228   -6.6891    8.5168 C   0  0  0  0  0  0  0  0  0  0  0  0
    3.1865   -7.3139    9.1815 N   0  0  0  0  0  0  0  0  0  0  0  0
    6.1138   -5.4138    8.0747 C   0  0  0  0  0  0  0  0  0  0  0  0
    6.8731   -4.7458    7.0896 C   0  0  0  0  0  0  0  0  0  0  0  0
    6.3888   -4.6082    5.7824 C   0  0  0  0  0  0  0  0  0  0  0  0
    6.7523   -5.4555    9.2909 O   0  0  0  0  0  0  0  0  0  0  0  0
    6.1194   -6.1024   10.4021 C   0  0  0  0  0  0  0  0  0  0  0  0
    4.8652   -5.3172   10.8413 C   0  0  0  0  0  0  0  0  0  0  0  0
    6.0482   -7.6239   10.1604 C   0  0  0  0  0  0  0  0  0  0  0  0
  1  2  1  0
  2  3  1  0
  3  4  1  0
  5  6  1  0
  5  9  1  0
  5  1  1  1
  6  7  2  0
  6 13  1  0
  7  8  1  0
  7 10  1  0
  9  8  1  0
 10 11  2  0
 10 14  1  0
 12 11  1  0
 13 12  2  0
 14 15  1  0
 14 18  2  0
 15 16  2  0
 16 17  1  0
 16 19  1  0
 18 17  1  0
 19 20  2  0
 19 26  1  0
 20 21  1  0
 21 22  1  0
 21 24  2  0
 22 23  3  0
 24 27  1  0
 25 24  1  0
 26 25  2  0
 27 28  1  0
 28 29  1  0
 28 30  1  0
M  END
>  <DRUGBANK_ID>  (1) 
DB12612

>  <COMMON_NAME>  (1) 
Ozanimod

>  <CAS_NUMBER>  (1) 
1306760-87-1

>  <UNII>  (1) 
Z80293URPV

>  <SYNONYMS>  (1) 
Ozanimod; Ozanimodum

$$$$
