BIF
     RDKit          3D

 18 19  0  0  0  0  0  0  0  0999 V2000
    0.9761    0.0299   -2.4653 N   0  0  0  0  0  0  0  0  0  0  0  0
    0.5097    0.6880   -1.2209 C   0  0  2  0  0  0  0  0  0  0  0  0
    1.0768   -0.0467    0.0362 C   0  0  0  0  0  0  0  0  0  0  0  0
    2.3403   -0.5121   -0.0888 O   0  0  0  0  0  0  0  0  0  0  0  0
   -1.0436    0.7382   -1.2617 C   0  0  0  0  0  0  0  0  0  0  0  0
   -1.5910    1.5063   -0.0843 C   0  0  0  0  0  0  0  0  0  0  0  0
   -1.9748    0.8047    1.0627 C   0  0  0  0  0  0  0  0  0  0  0  0
   -2.1114    1.4748    2.2692 C   0  0  0  0  0  0  0  0  0  0  0  0
   -1.9488    2.8671    2.3345 C   0  0  0  0  0  0  0  0  0  0  0  0
   -1.6248    3.5704    1.1713 C   0  0  0  0  0  0  0  0  0  0  0  0
   -1.4911    2.9009   -0.0427 C   0  0  0  0  0  0  0  0  0  0  0  0
   -4.0148    4.6708    4.8473 C   0  0  0  0  0  0  0  0  0  0  0  0
   -3.3739    4.3085    6.0297 C   0  0  0  0  0  0  0  0  0  0  0  0
   -2.1487    3.6418    5.9901 C   0  0  0  0  0  0  0  0  0  0  0  0
   -1.5945    3.2752    4.7659 C   0  0  0  0  0  0  0  0  0  0  0  0
   -2.2814    3.5516    3.5786 C   0  0  0  0  0  0  0  0  0  0  0  0
   -3.4487    4.3286    3.6248 C   0  0  0  0  0  0  0  0  0  0  0  0
    0.5039   -0.2158    1.1069 O   0  0  0  0  0  0  0  0  0  0  0  0
  2  5  1  0
  2  3  1  0
  2  1  1  6
  3  4  1  0
  3 18  2  0
  5  6  1  0
  6  7  2  0
  6 11  1  0
  7  8  1  0
  8  9  2  0
  9 10  1  0
  9 16  1  0
 10 11  2  0
 12 13  2  0
 12 17  1  0
 13 14  1  0
 14 15  2  0
 15 16  1  0
 16 17  2  0
M  END
>  <DRUGBANK_ID>  (1) 
DB04639

>  <COMMON_NAME>  (1) 
Biphenylalanine

$$$$
