ABI
     RDKit          3D

 12 13  0  0  0  0  0  0  0  0999 V2000
    2.2151   -0.7052    0.0002 C   0  0  0  0  0  0  0  0  0  0  0  0
    2.1421    0.7071   -0.0115 C   0  0  0  0  0  0  0  0  0  0  0  0
    0.9208    1.4017   -0.0040 C   0  0  0  0  0  0  0  0  0  0  0  0
   -0.2670    0.6687    0.0020 C   0  0  0  0  0  0  0  0  0  0  0  0
   -0.2024   -0.7172    0.0012 C   0  0  0  0  0  0  0  0  0  0  0  0
    1.0018   -1.4330    0.0067 C   0  0  0  0  0  0  0  0  0  0  0  0
    3.5316   -1.4083    0.0057 C   0  0  0  0  0  0  0  0  0  0  0  0
   -2.2941    0.0105   -0.0010 C   0  0  0  0  0  0  0  0  0  0  0  0
    3.6014   -2.7265    0.0240 N   0  0  0  0  0  0  0  0  0  0  0  0
    4.6616   -0.7310   -0.0055 N   0  0  0  0  0  0  0  0  0  0  0  0
   -1.5640    1.1012    0.0061 N   0  0  0  0  0  0  0  0  0  0  0  0
   -1.5177   -1.1137   -0.0096 N   0  0  0  0  0  0  0  0  0  0  0  0
  1  2  2  0
  1  6  1  0
  1  7  1  0
  2  3  1  0
  3  4  2  0
  4  5  1  0
  4 11  1  0
  5  6  2  0
  5 12  1  0
  7  9  1  0
  7 10  2  0
  8 11  2  0
  8 12  1  0
M  CHG  1  10   1
M  END
>  <DRUGBANK_ID>  (1) 
DB01939

>  <SECONDARY_ACCESSION_NUMBERS>  (1) 
EXPT00397

>  <COMMON_NAME>  (1) 
5-Amidino-Benzimidazole

$$$$
