B76
     RDKit          3D

 30 32  0  0  0  0  0  0  0  0999 V2000
    1.3589   -0.2475    0.0624 C   0  0  0  0  0  0  0  0  0  0  0  0
    0.4839   -1.3303    0.0388 C   0  0  0  0  0  0  0  0  0  0  0  0
   -0.8908   -1.1080    0.0108 C   0  0  0  0  0  0  0  0  0  0  0  0
   -1.3926    0.1923    0.0350 C   0  0  0  0  0  0  0  0  0  0  0  0
   -0.5177    1.2751    0.0841 C   0  0  0  0  0  0  0  0  0  0  0  0
    0.8671    1.0675    0.0636 C   0  0  0  0  0  0  0  0  0  0  0  0
    1.7718    2.1947   -0.1426 C   0  0  0  0  0  0  0  0  0  0  0  0
    2.5621    2.1847   -1.2843 C   0  0  0  0  0  0  0  0  0  0  0  0
    1.7987    3.3263    0.6859 C   0  0  0  0  0  0  0  0  0  0  0  0
    2.5434    4.4562    0.3369 C   0  0  0  0  0  0  0  0  0  0  0  0
    3.3278    4.4281   -0.7996 C   0  0  0  0  0  0  0  0  0  0  0  0
    3.3629    3.2763   -1.5975 C   0  0  0  0  0  0  0  0  0  0  0  0
    4.0524    3.3177   -2.8527 C   0  0  0  0  0  0  0  0  0  0  0  0
    5.4324    3.6080   -2.9200 C   0  0  0  0  0  0  0  0  0  0  0  0
    3.2562    3.2927   -4.0041 C   0  0  0  0  0  0  0  0  0  0  0  0
    3.7531    3.8746   -5.1192 C   0  0  0  0  0  0  0  0  0  0  0  0
    5.0154    4.4694   -5.0609 C   0  0  0  0  0  0  0  0  0  0  0  0
    5.9437    4.1404   -4.0774 C   0  0  0  0  0  0  0  0  0  0  0  0
    7.2976    4.3149   -4.1984 O   0  0  0  0  0  0  0  0  0  0  0  0
    7.8577    4.6568   -5.4860 C   0  0  0  0  0  0  0  0  0  0  0  0
    7.9463    3.5096   -6.5057 C   0  0  0  0  0  0  0  0  0  0  0  0
    6.2713    2.8269   -6.7835 P   0  0  0  0  0  0  0  0  0  0  0  0
    4.6878    2.1816   -7.0461 O   0  0  0  0  0  0  0  0  0  0  0  0
    5.9213    4.0646   -7.6496 O   0  0  0  0  0  0  0  0  0  0  0  0
    6.8230    1.8882   -8.0255 O   0  0  0  0  0  0  0  0  0  0  0  0
    8.8257    1.9550   -5.9640 P   0  0  0  0  0  0  0  0  0  0  0  0
    9.6008    2.0841   -4.5742 O   0  0  0  0  0  0  0  0  0  0  0  0
    8.0242    0.6955   -5.9529 O   0  0  0  0  0  0  0  0  0  0  0  0
   10.0530    1.9234   -7.0083 O   0  0  0  0  0  0  0  0  0  0  0  0
    8.5382    3.9385   -7.7734 O   0  0  0  0  0  0  0  0  0  0  0  0
  1  2  2  0
  1  6  1  0
  2  3  1  0
  3  4  2  0
  4  5  1  0
  5  6  2  0
  6  7  1  0
  7  8  2  0
  7  9  1  0
  8 12  1  0
  9 10  2  0
 10 11  1  0
 11 12  2  0
 12 13  1  0
 13 15  1  0
 13 14  2  0
 14 18  1  0
 15 16  2  0
 16 17  1  0
 17 18  2  0
 18 19  1  0
 19 20  1  0
 20 21  1  0
 21 22  1  0
 21 30  1  0
 21 26  1  0
 22 24  2  0
 22 25  1  0
 22 23  1  0
 26 28  2  0
 26 29  1  0
 26 27  1  0
M  END
>  <DRUGBANK_ID>  (1) 
DB07426

>  <COMMON_NAME>  (1) 
[1-HYDROXY-2-(1,1':3',1''-TERPHENYL-3-YLOXY)ETHANE-1,1-DIYL]BIS(PHOSPHONIC ACID)

$$$$
