
     RDKit          3D

 33 36  0  0  0  0  0  0  0  0999 V2000
   -8.1885    5.6216   -6.4602 C   0  0  0  0  0  0  0  0  0  0  0  0
   -7.3354    4.9642   -7.3311 C   0  0  0  0  0  0  0  0  0  0  0  0
   -6.5411    3.9070   -6.8593 C   0  0  0  0  0  0  0  0  0  0  0  0
   -6.5779    3.4934   -5.5034 C   0  0  0  0  0  0  0  0  0  0  0  0
   -7.4067    4.1917   -4.6049 C   0  0  0  0  0  0  0  0  0  0  0  0
   -8.2260    5.2440   -5.1141 C   0  0  0  0  0  0  0  0  0  0  0  0
   -5.7015    2.3895   -4.9371 C   0  0  0  0  0  0  0  0  0  0  0  0
   -6.2536    1.4627   -3.7804 C   0  0  0  0  0  0  0  0  0  0  0  0
   -7.3577    2.1663   -3.0240 C   0  0  2  0  0  0  0  0  0  0  0  0
   -7.3190    3.7557   -3.1561 C   0  0  1  0  0  0  0  0  0  0  0  0
   -5.6750    0.2957   -3.3091 C   0  0  0  0  0  0  0  0  0  0  0  0
   -5.8996   -0.4060   -1.7553 C   0  0  1  0  0  0  0  0  0  0  0  0
   -6.7896    0.5613   -1.0136 C   0  0  2  0  0  0  0  0  0  0  0  0
   -7.1974    1.8976   -1.5271 C   0  0  0  0  0  0  0  0  0  0  0  0
   -6.6712   -1.8067   -0.6593 C   0  0  0  0  0  0  0  0  0  0  0  0
   -7.0408   -1.5263    0.9080 C   0  0  0  0  0  0  0  0  0  0  0  0
   -5.9344   -0.8198    0.9362 C   0  0  0  0  0  0  0  0  0  0  0  0
   -6.1767    0.6590    0.5002 C   0  0  1  0  0  0  0  0  0  0  0  0
   -9.3774    6.1433   -4.1791 Cl  0  0  0  0  0  0  0  0  0  0  0  0
   -5.7688    3.3150   -7.8205 O   0  0  0  0  0  0  0  0  0  0  0  0
   -4.5316    2.3344   -5.3124 O   0  0  0  0  0  0  0  0  0  0  0  0
   -4.4124   -0.0497   -3.9012 O   0  0  0  0  0  0  0  0  0  0  0  0
   -6.3134   -3.0049   -0.7329 O   0  0  0  0  0  0  0  0  0  0  0  0
   -8.2659   -0.9023    1.6452 C   0  0  0  0  0  0  0  0  0  0  0  0
   -4.6779   -1.4971    0.4737 O   0  0  0  0  0  0  0  0  0  0  0  0
   -8.4025   -1.1285    3.0368 N   0  0  0  0  0  0  0  0  0  0  0  0
   -9.0678   -0.2304    1.0977 O   0  0  0  0  0  0  0  0  0  0  0  0
   -4.9954    1.4067    1.0196 N   0  0  0  0  0  0  0  0  0  0  0  0
   -4.5395   -0.0343   -1.4172 O   0  0  0  0  0  0  0  0  0  0  0  0
   -4.5933    2.5343    0.2197 C   0  0  0  0  0  0  0  0  0  0  0  0
   -3.7886    0.5847    1.2225 C   0  0  0  0  0  0  0  0  0  0  0  0
   -6.0419    4.2109   -2.4052 C   0  0  0  0  0  0  0  0  0  0  0  0
   -8.3976    4.2807   -2.3835 O   0  0  0  0  0  0  0  0  0  0  0  0
  1  2  2  0
  1  6  1  0
  2  3  1  0
  3  4  2  0
  3 20  1  0
  4  5  1  0
  4  7  1  0
  5  6  2  0
  5 10  1  0
  6 19  1  0
  7  8  1  0
  7 21  2  0
  8  9  1  0
  8 11  2  0
  9 10  1  0
  9 14  1  1
 10 33  1  0
 10 32  1  1
 11 12  1  0
 11 22  1  0
 12 13  1  0
 12 15  1  0
 12 29  1  1
 13 14  1  6
 13 18  1  0
 15 16  1  0
 15 23  2  0
 16 17  2  0
 16 24  1  0
 17 18  1  0
 17 25  1  0
 18 28  1  6
 24 26  1  0
 24 27  2  0
 28 30  1  0
 28 31  1  0
M  END
>  <DRUGBANK_ID>  (1) 
DB09093

>  <COMMON_NAME>  (1) 
Chlortetracycline

>  <CAS_NUMBER>  (1) 
57-62-5

>  <UNII>  (1) 
WCK1KIQ23Q

>  <SYNONYMS>  (1) 
Chlortetracycline; Chlort√©tracycline; Chlortetracyclinum; Clortetraciclina

$$$$
