
     RDKit          3D

 16 16  0  0  0  0  0  0  0  0999 V2000
    0.9410   -0.2861   -0.0993 C   0  0  0  0  0  0  0  0  0  0  0  0
    0.3257   -1.0999   -1.1444 N   0  0  0  0  0  0  0  0  0  0  0  0
    0.2443    0.5966    0.7681 O   0  0  0  0  0  0  0  0  0  0  0  0
    2.1274   -0.3814    0.0872 O   0  0  0  0  0  0  0  0  0  0  0  0
   -0.6954   -0.7982   -2.1738 C   0  0  0  0  0  0  0  0  0  0  0  0
    0.7080   -2.4870   -1.2251 C   0  0  0  0  0  0  0  0  0  0  0  0
   -0.4713   -0.8469   -3.6945 C   0  0  0  0  0  0  0  0  0  0  0  0
   -1.1542    0.7927    1.3232 C   0  0  0  0  0  0  0  0  0  0  0  0
   -1.7938    1.2259   -4.1355 O   0  0  0  0  0  0  0  0  0  0  0  0
   -1.6897   -0.1738   -4.4034 C   0  0  0  0  0  0  0  0  0  0  0  0
   -2.0380   -1.5286   -1.7813 C   0  0  0  0  0  0  0  0  0  0  0  0
   -1.9871    1.7398    0.4075 C   0  0  0  0  0  0  0  0  0  0  0  0
   -1.7257   -0.6040    1.5999 C   0  0  0  0  0  0  0  0  0  0  0  0
   -0.5337   -3.3664   -0.9594 C   0  0  0  0  0  0  0  0  0  0  0  0
   -1.6721    1.2437   -0.9043 C   0  0  0  0  0  0  0  0  0  0  0  0
   -1.7867   -3.0170   -1.7905 C   0  0  0  0  0  0  0  0  0  0  0  0
  2  1  1  0
  3  1  1  0
  4  1  2  0
  5  2  1  0
  6  2  1  0
  7  5  1  0
  8  3  1  0
  9 10  1  0
 10  7  1  0
 11  5  1  0
 12  8  1  0
 13  8  1  0
 14  6  1  0
 15 12  1  0
 16 14  1  0
 16 11  1  0
M  END
>  <DRUGBANK_ID>  (1) 
DB14074

>  <COMMON_NAME>  (1) 
Icaridin

>  <CAS_NUMBER>  (1) 
119515-38-7

>  <UNII>  (1) 
N51GQX0837

>  <SYNONYMS>  (1) 
Icaridin; Icaridina; Icaridinum; Picaridin; Pikaridin; Propidine

$$$$
