
     RDKit          3D

 29 32  0  0  0  0  0  0  0  0999 V2000
    1.0107   -0.2011   -0.1315 C   0  0  0  0  0  0  0  0  0  0  0  0
    0.3502    1.0784    0.0051 N   0  0  0  0  0  0  0  0  0  0  0  0
   -1.0874    1.1986    0.0669 C   0  0  0  0  0  0  0  0  0  0  0  0
   -1.8678    0.4133    0.9249 C   0  0  0  0  0  0  0  0  0  0  0  0
   -1.1921   -0.5237    2.2122 Cl  0  0  0  0  0  0  0  0  0  0  0  0
   -3.2609    0.4749    0.8820 C   0  0  0  0  0  0  0  0  0  0  0  0
   -3.9207    1.3361    0.0345 N   0  0  0  0  0  0  0  0  0  0  0  0
   -5.1863    1.3745    0.0101 O   0  0  0  0  0  0  0  0  0  0  0  0
   -3.1751    2.1782   -0.7606 C   0  0  0  0  0  0  0  0  0  0  0  0
   -1.7744    2.1375   -0.7353 C   0  0  0  0  0  0  0  0  0  0  0  0
   -0.9436    3.2324   -1.7845 Cl  0  0  0  0  0  0  0  0  0  0  0  0
    0.4024   -1.2422   -0.2109 O   0  0  0  0  0  0  0  0  0  0  0  0
    2.5313   -0.2637   -0.2363 C   0  0  0  0  0  0  0  0  0  0  0  0
    3.3683   -1.5012   -0.2578 C   0  0  0  0  0  0  0  0  0  0  0  0
    4.7230   -1.1869   -0.0564 C   0  0  0  0  0  0  0  0  0  0  0  0
    5.4118   -2.2595    0.3117 O   0  0  0  0  0  0  0  0  0  0  0  0
    4.6070   -3.2930    0.4175 C   0  0  0  0  0  0  0  0  0  0  0  0
    3.4429   -3.0637   -0.2958 C   0  0  0  0  0  0  0  0  0  0  0  0
    2.8872   -4.3210   -0.6773 C   0  0  0  0  0  0  0  0  0  0  0  0
    3.2811   -5.4936   -0.0034 N   0  0  0  0  0  0  0  0  0  0  0  0
    4.2061   -5.4659    0.9795 C   0  0  0  0  0  0  0  0  0  0  0  0
    4.9976   -4.3820    1.1677 C   0  0  0  0  0  0  0  0  0  0  0  0
    5.3738    0.0515   -0.0338 C   0  0  0  0  0  0  0  0  0  0  0  0
    6.7338    0.2647    0.1124 O   0  0  0  0  0  0  0  0  0  0  0  0
    7.5849   -0.8852    0.0795 C   0  0  0  0  0  0  0  0  0  0  0  0
    7.4102   -1.6281    1.2006 F   0  0  0  0  0  0  0  0  0  0  0  0
    7.3410   -1.6322   -1.0256 F   0  0  0  0  0  0  0  0  0  0  0  0
    4.5756    1.1702   -0.0305 C   0  0  0  0  0  0  0  0  0  0  0  0
    3.1958    1.0153   -0.0857 C   0  0  0  0  0  0  0  0  0  0  0  0
  1  2  1  0
  1 12  2  0
  1 13  1  0
  2  3  1  0
  3  4  2  0
  3 10  1  0
  4  5  1  0
  4  6  1  0
  6  7  2  0
  7  8  1  0
  9  7  1  0
 10  9  2  0
 10 11  1  0
 13 14  1  0
 13 29  2  0
 14 15  2  0
 14 18  1  0
 15 16  1  0
 15 23  1  0
 16 17  1  0
 17 22  2  0
 18 17  1  0
 18 19  2  0
 19 20  1  0
 20 21  2  0
 22 21  1  0
 23 24  1  0
 24 25  1  0
 25 26  1  0
 25 27  1  0
 28 23  2  0
 29 28  1  0
M  CHG  2   7   1   8  -1
M  END
>  <DRUGBANK_ID>  (1) 
DB11838

>  <COMMON_NAME>  (1) 
Revamilast

>  <CAS_NUMBER>  (1) 
893555-90-3

>  <UNII>  (1) 
30LE65637T

>  <SYNONYMS>  (1) 
Revamilast; RÃ©vamilast; Revamilastum

$$$$
