
     RDKit          3D

 28 30  0  0  0  0  0  0  0  0999 V2000
   -1.5377    0.6155    0.4286 Br  0  0  0  0  0  0  0  0  0  0  0  0
    0.3073   -2.3321   -0.0524 O   0  0  0  0  0  0  0  0  0  0  0  0
   -5.5388   -5.0896    3.7424 O   0  0  0  0  0  0  0  0  0  0  0  0
   -8.1934   -2.5634   -0.4933 O   0  0  0  0  0  0  0  0  0  0  0  0
   -8.3273   -2.4951    1.7343 O   0  0  0  0  0  0  0  0  0  0  0  0
   -5.7525   -3.8594    1.8894 N   0  0  0  0  0  0  0  0  0  0  0  0
   -3.8470   -2.7257   -0.2016 C   0  0  0  0  0  0  0  0  0  0  0  0
   -1.0436   -2.4439   -0.1664 C   0  0  0  0  0  0  0  0  0  0  0  0
   -3.1820   -2.0511   -1.2371 C   0  0  0  0  0  0  0  0  0  0  0  0
   -3.0334   -3.3443    0.7557 C   0  0  0  0  0  0  0  0  0  0  0  0
   -5.3357   -2.6596   -0.1298 C   0  0  0  0  0  0  0  0  0  0  0  0
   -1.7782   -1.9902   -1.2635 C   0  0  0  0  0  0  0  0  0  0  0  0
   -1.6773   -3.0965    0.8633 C   0  0  0  0  0  0  0  0  0  0  0  0
   -6.2020   -3.1311    0.8017 C   0  0  0  0  0  0  0  0  0  0  0  0
   -7.7031   -4.9562    2.9092 C   0  0  0  0  0  0  0  0  0  0  0  0
    0.8915   -1.0902   -0.0015 C   0  0  0  0  0  0  0  0  0  0  0  0
   -6.2865   -4.6372    2.8748 C   0  0  0  0  0  0  0  0  0  0  0  0
   -8.3661   -5.3427    1.7435 C   0  0  0  0  0  0  0  0  0  0  0  0
   -8.3808   -4.7482    4.1102 C   0  0  0  0  0  0  0  0  0  0  0  0
    0.2875    0.1753    0.0820 C   0  0  0  0  0  0  0  0  0  0  0  0
    2.3007   -1.1697   -0.0161 C   0  0  0  0  0  0  0  0  0  0  0  0
   -9.7509   -5.3787    1.7485 C   0  0  0  0  0  0  0  0  0  0  0  0
   -9.7518   -4.9528    4.1406 C   0  0  0  0  0  0  0  0  0  0  0  0
   -7.6442   -2.6937    0.7282 C   0  0  0  0  0  0  0  0  0  0  0  0
  -10.4391   -5.2096    2.9504 C   0  0  0  0  0  0  0  0  0  0  0  0
    1.0828    1.3179    0.0099 C   0  0  0  0  0  0  0  0  0  0  0  0
    3.0826   -0.0146   -0.0026 C   0  0  0  0  0  0  0  0  0  0  0  0
    2.4675    1.2294   -0.0200 C   0  0  0  0  0  0  0  0  0  0  0  0
  1 20  1  0
  2  8  1  0
  2 16  1  0
  3 17  2  0
  4 24  1  0
  5 24  2  0
  6 14  1  0
  6 17  1  0
  7  9  2  0
  7 10  1  0
  7 11  1  0
  8 12  2  0
  8 13  1  0
  9 12  1  0
 10 13  2  0
 11 14  2  0
 14 24  1  0
 15 17  1  0
 15 18  2  0
 15 19  1  0
 16 20  2  0
 16 21  1  0
 18 22  1  0
 19 23  2  0
 20 26  1  0
 21 27  2  0
 22 25  2  0
 23 25  1  0
 26 28  2  0
 27 28  1  0
M  END
>  <DRUGBANK_ID>  (1) 
DB01720

>  <SECONDARY_ACCESSION_NUMBERS>  (1) 
EXPT02579

>  <COMMON_NAME>  (1) 
(2Z)-2-(Benzoylamino)-3-[4-(2-bromophenoxy)phenyl]acrylic acid

>  <CAS_NUMBER>  (1) 
639517-90-1

>  <SYNONYMS>  (1) 
(2Z)-2-(benzoylamino)-3-[4-(2-bromophenoxy)phenyl]-2-propenoic acid

$$$$
