
     RDKit          3D

 29 32  0  0  1  0  0  0  0  0999 V2000
    3.0016    1.1771    0.0603 C   0  0  0  0  0  0  0  0  0  0  0  0
    3.4167   -0.1492    0.0104 C   0  0  0  0  0  0  0  0  0  0  0  0
    1.6459    1.4777    0.0711 C   0  0  0  0  0  0  0  0  0  0  0  0
    2.4919   -1.2100   -0.0307 C   0  0  0  0  0  0  0  0  0  0  0  0
   -8.7369    4.1737   -0.9791 C   0  0  0  0  0  0  0  0  0  0  0  0
   -6.9214    5.7431   -0.6434 C   0  0  0  0  0  0  0  0  0  0  0  0
   -3.4218   -0.0886    0.2294 C   0  0  0  0  0  0  0  0  0  0  0  0
   -7.8145    3.1428   -1.1325 C   0  0  0  0  0  0  0  0  0  0  0  0
   -5.9980    4.6985   -0.6816 C   0  0  0  0  0  0  0  0  0  0  0  0
   -2.5809   -1.1893   -0.4463 C   0  0  0  0  0  0  0  0  0  0  0  0
   -0.6660   -3.7506    1.2278 C   0  0  0  0  0  0  0  0  0  0  0  0
   -0.0886   -3.1395   -0.0523 C   0  0  0  0  0  0  0  0  0  0  0  0
   -1.6162    1.6286    0.0187 C   0  0  0  0  0  0  0  0  0  0  0  0
   -8.2785    5.4731   -0.7990 C   0  0  0  0  0  0  0  0  0  0  0  0
   -3.0199    1.2150   -0.4589 C   0  0  2  0  0  0  0  0  0  0  0  0
   -6.4466    3.4147   -0.9981 C   0  0  0  0  0  0  0  0  0  0  0  0
    0.7035    0.4370    0.0051 C   0  0  0  0  0  0  0  0  0  0  0  0
   -0.6996    0.4489   -0.0478 C   0  0  0  0  0  0  0  0  0  0  0  0
    1.1165   -0.9002   -0.0418 C   0  0  0  0  0  0  0  0  0  0  0  0
   -1.1366   -0.8523   -0.2169 C   0  0  0  0  0  0  0  0  0  0  0  0
   -2.0987   -3.4343    1.5301 C   0  0  0  0  0  0  0  0  0  0  0  0
   -9.1559    6.4840   -0.7856 F   0  0  0  0  0  0  0  0  0  0  0  0
   -4.0405    2.2783   -0.2335 N   0  0  0  0  0  0  0  0  0  0  0  0
   -0.0417   -1.6827   -0.0893 N   0  0  0  0  0  0  0  0  0  0  0  0
   -3.0685   -4.0725    1.1546 O   0  0  0  0  0  0  0  0  0  0  0  0
   -2.2454   -2.2679    2.1902 O   0  0  0  0  0  0  0  0  0  0  0  0
   -4.7265    2.4289   -2.6667 O   0  0  0  0  0  0  0  0  0  0  0  0
   -5.9770    0.8680   -1.1260 O   0  0  0  0  0  0  0  0  0  0  0  0
   -5.3108    2.1183   -1.3726 S   0  0  0  0  0  0  0  0  0  0  0  0
  2  1  2  0
  3  1  1  0
  4  2  1  0
  8  5  2  0
  9  6  1  0
 10  7  1  0
 12 11  1  0
 14  5  1  0
 14  6  2  0
 15  7  1  0
 15 13  1  0
 15 23  1  1
 16  8  1  0
 16  9  2  0
 17  3  2  0
 18 13  1  0
 18 17  1  0
 19  4  2  0
 19 17  1  0
 20 10  1  0
 20 18  2  0
 21 11  1  0
 22 14  1  0
 24 12  1  0
 24 19  1  0
 24 20  1  0
 25 21  2  0
 26 21  1  0
 29 16  1  0
 29 23  1  0
 29 27  2  0
 29 28  2  0
M  END
>  <DRUGBANK_ID>  (1) 
DB13036

>  <COMMON_NAME>  (1) 
Ramatroban

>  <CAS_NUMBER>  (1) 
116649-85-5

>  <UNII>  (1) 
P1ALI72U6C

>  <SYNONYMS>  (1) 
Ramatroban

$$$$
