FRT
     RDKit          3D

 30 32  0  0  0  0  0  0  0  0999 V2000
    1.0865   -0.8157    0.0005 C   0  0  0  0  0  0  0  0  0  0  0  0
    1.2373    0.5139    0.0178 N   0  0  0  0  0  0  0  0  0  0  0  0
    0.1266    1.2663    0.0172 C   0  0  0  0  0  0  0  0  0  0  0  0
   -1.1152    0.7548   -0.0045 N   0  0  0  0  0  0  0  0  0  0  0  0
   -1.2168   -0.5909   -0.0210 C   0  0  0  0  0  0  0  0  0  0  0  0
   -0.1363   -1.4351   -0.0154 C   0  0  0  0  0  0  0  0  0  0  0  0
    0.2613    2.6470    0.1280 N   0  0  0  0  0  0  0  0  0  0  0  0
    1.4431    3.3869    0.0240 C   0  0  0  0  0  0  0  0  0  0  0  0
    2.3296    3.1969   -1.0432 C   0  0  0  0  0  0  0  0  0  0  0  0
    3.5372    3.8942   -1.0990 C   0  0  0  0  0  0  0  0  0  0  0  0
    3.8652    4.7895   -0.0728 C   0  0  0  0  0  0  0  0  0  0  0  0
    2.9657    5.0460    0.9575 C   0  0  0  0  0  0  0  0  0  0  0  0
    1.7735    4.3185    1.0174 C   0  0  0  0  0  0  0  0  0  0  0  0
    5.5276    5.3934    0.0730 S   0  0  0  0  0  0  0  0  0  0  0  0
    5.3836    7.0714   -0.0059 N   0  0  0  0  0  0  0  0  0  0  0  0
    6.6210    7.8735   -0.1745 C   0  0  0  0  0  0  0  0  0  0  0  0
    7.3942    7.5340   -1.4580 C   0  0  0  0  0  0  0  0  0  0  0  0
    6.7204    7.9177   -2.6661 O   0  0  0  0  0  0  0  0  0  0  0  0
    5.4738    7.2823   -2.9129 C   0  0  0  0  0  0  0  0  0  0  0  0
    2.3204   -1.5776   -0.0030 C   0  0  0  0  0  0  0  0  0  0  0  0
    3.3146   -1.5458    0.9594 N   0  0  0  0  0  0  0  0  0  0  0  0
    4.2802   -2.4682    0.5937 C   0  0  0  0  0  0  0  0  0  0  0  0
    3.9476   -3.0666   -0.5328 N   0  0  0  0  0  0  0  0  0  0  0  0
    2.7563   -2.5192   -0.9115 C   0  0  0  0  0  0  0  0  0  0  0  0
    3.3221   -0.7260    2.1703 C   0  0  0  0  0  0  0  0  0  0  0  0
    3.2615   -1.5874    3.4369 C   0  0  0  0  0  0  0  0  0  0  0  0
    4.4883    0.2642    2.1612 C   0  0  0  0  0  0  0  0  0  0  0  0
    5.5249   -2.7657    1.3548 C   0  0  0  0  0  0  0  0  0  0  0  0
    6.0231    5.0776    1.3869 O   0  0  0  0  0  0  0  0  0  0  0  0
    6.2177    4.9113   -1.1069 O   0  0  0  0  0  0  0  0  0  0  0  0
  1  2  2  0
  1  6  1  0
  1 20  1  0
  2  3  1  0
  3  4  2  0
  3  7  1  0
  4  5  1  0
  5  6  2  0
  7  8  1  0
  8  9  2  0
  8 13  1  0
  9 10  1  0
 10 11  2  0
 11 12  1  0
 11 14  1  0
 12 13  2  0
 14 15  1  0
 14 29  2  0
 14 30  2  0
 15 16  1  0
 16 17  1  0
 17 18  1  0
 18 19  1  0
 20 21  1  0
 20 24  2  0
 21 22  1  0
 21 25  1  0
 22 23  2  0
 22 28  1  0
 23 24  1  0
 25 26  1  0
 25 27  1  0
M  END
>  <DRUGBANK_ID>  (1) 
DB07790

>  <COMMON_NAME>  (1) 
N-(2-METHOXYETHYL)-4-({4-[2-METHYL-1-(1-METHYLETHYL)-1H-IMIDAZOL-5-YL]PYRIMIDIN-2-YL}AMINO)BENZENESULFONAMIDE

$$$$
