
     RDKit          3D

 35 39  0  0  0  0  0  0  0  0999 V2000
   -0.6394   -0.8890   -0.7711 C   0  0  0  0  0  0  0  0  0  0  0  0
   -1.3860    0.2651   -0.9176 C   0  0  0  0  0  0  0  0  0  0  0  0
   -0.9952    1.3967   -0.2741 C   0  0  0  0  0  0  0  0  0  0  0  0
    0.3730    1.4671    0.0206 C   0  0  0  0  0  0  0  0  0  0  0  0
    1.1563    0.2845    0.0375 C   0  0  0  0  0  0  0  0  0  0  0  0
    0.5958   -0.9385   -0.1980 C   0  0  0  0  0  0  0  0  0  0  0  0
    2.4724    0.3224    0.2674 F   0  0  0  0  0  0  0  0  0  0  0  0
   -1.9699    2.3795    0.0324 N   0  0  0  0  0  0  0  0  0  0  0  0
   -3.3453    2.3317    0.0808 C   0  0  0  0  0  0  0  0  0  0  0  0
   -3.9546    3.4278    0.0659 O   0  0  0  0  0  0  0  0  0  0  0  0
   -4.1174    1.1977    0.0885 N   0  0  0  0  0  0  0  0  0  0  0  0
   -3.8503   -0.1561    0.4327 C   0  0  0  0  0  0  0  0  0  0  0  0
   -2.9466   -0.4711    1.4401 C   0  0  0  0  0  0  0  0  0  0  0  0
   -2.3469   -1.7457    1.4708 C   0  0  0  0  0  0  0  0  0  0  0  0
   -2.6578   -2.7456    0.5112 C   0  0  0  0  0  0  0  0  0  0  0  0
   -3.6737   -2.4724   -0.4064 C   0  0  0  0  0  0  0  0  0  0  0  0
   -4.2584   -1.1818   -0.4560 C   0  0  0  0  0  0  0  0  0  0  0  0
   -1.7417   -3.9047    0.3292 C   0  0  0  0  0  0  0  0  0  0  0  0
   -1.3786   -4.5637    1.4850 C   0  0  0  0  0  0  0  0  0  0  0  0
   -0.3366   -5.8524    1.2344 S   0  0  0  0  0  0  0  0  0  0  0  0
   -0.2613   -5.5840   -0.4735 C   0  0  0  0  0  0  0  0  0  0  0  0
   -0.9949   -4.4438   -0.8650 C   0  0  0  0  0  0  0  0  0  0  0  0
   -0.8692   -4.0652   -2.2557 C   0  0  0  0  0  0  0  0  0  0  0  0
   -0.0968   -4.8006   -3.1011 N   0  0  0  0  0  0  0  0  0  0  0  0
    0.5051   -5.9294   -2.6914 C   0  0  0  0  0  0  0  0  0  0  0  0
    0.4554   -6.3795   -1.3946 C   0  0  0  0  0  0  0  0  0  0  0  0
    1.0563   -7.6178   -0.9678 C   0  0  0  0  0  0  0  0  0  0  0  0
    2.3878   -8.0784   -0.9653 C   0  0  0  0  0  0  0  0  0  0  0  0
    2.5066   -9.2776   -0.3817 N   0  0  0  0  0  0  0  0  0  0  0  0
    1.2478   -9.5625    0.0199 N   0  0  0  0  0  0  0  0  0  0  0  0
    0.3404   -8.6236   -0.3545 C   0  0  0  0  0  0  0  0  0  0  0  0
    0.9540  -10.8054    0.7115 C   0  0  0  0  0  0  0  0  0  0  0  0
    1.2841  -12.0099   -0.1583 C   0  0  0  0  0  0  0  0  0  0  0  0
    2.6764  -12.0980   -0.4475 O   0  0  0  0  0  0  0  0  0  0  0  0
   -1.4729   -3.0005   -2.8918 N   0  0  0  0  0  0  0  0  0  0  0  0
  1  2  2  0
  1  6  1  0
  2  3  1  0
  3  4  2  0
  3  8  1  0
  4  5  1  0
  5  6  2  0
  5  7  1  0
  8  9  1  0
  9 10  2  0
  9 11  1  0
 11 12  1  0
 12 13  2  0
 12 17  1  0
 13 14  1  0
 14 15  2  0
 15 16  1  0
 15 18  1  0
 16 17  2  0
 18 19  2  0
 18 22  1  0
 19 20  1  0
 20 21  1  0
 21 22  2  0
 21 26  1  0
 22 23  1  0
 23 24  2  0
 23 35  1  0
 24 25  1  0
 25 26  2  0
 26 27  1  0
 27 28  1  0
 27 31  2  0
 28 29  2  0
 29 30  1  0
 30 31  1  0
 30 32  1  0
 32 33  1  0
 33 34  1  0
M  END
>  <DRUGBANK_ID>  (1) 
DB11694

>  <COMMON_NAME>  (1) 
Ilorasertib

>  <CAS_NUMBER>  (1) 
1227939-82-3

>  <UNII>  (1) 
6L5D03D975

>  <SYNONYMS>  (1) 
1-(4-(4-amino-7-(1-(2-hydroxyethyl)-1H-pyrazol-4-yl)thieno[3,2-c]pyridin-3-yl)phenyl)-3-(3-fluorophenyl)urea; 1-(4-{4-amino-7-[1-(2-hydroxyethyl)-1H-pyrazol-4-yl]thieno[3,2-c]pyridine-3-yl}phenyl)-3-(3-fluorophenyl)urea); Ilorasertib; Urea, N-(4-(4-amino-7-(1-(2-hydroxyethyl)-1H-pyrazol-4-yl)thieno(3,2-c)pyridin-3-yl)phenyl)-N'-(3-fluorophenyl)-

$$$$
