
     RDKit          3D

 25 25  0  0  1  0  0  0  0  0999 V2000
    1.0888    0.0837   -0.0555 C   0  0  0  0  0  0  0  0  0  0  0  0
    0.6307   -1.3643    0.0184 C   0  0  0  0  0  0  0  0  0  0  0  0
    1.1193   -2.0224    1.3096 C   0  0  0  0  0  0  0  0  0  0  0  0
    3.3181   -4.2534    7.0252 C   0  0  0  0  0  0  0  0  0  0  0  0
    3.0637   -2.8468    7.4668 C   0  0  0  0  0  0  0  0  0  0  0  0
    0.5706   -1.3132    2.5542 C   0  0  0  0  0  0  0  0  0  0  0  0
    2.3703   -5.1855    6.9379 C   0  0  0  0  0  0  0  0  0  0  0  0
    3.8248   -2.5537    8.7486 C   0  0  0  0  0  0  0  0  0  0  0  0
   -0.9684   -1.3155    2.5895 C   0  0  0  0  0  0  0  0  0  0  0  0
    0.9129   -4.9285    7.1780 C   0  0  0  0  0  0  0  0  0  0  0  0
    5.3347   -2.6731    8.5772 C   0  0  0  0  0  0  0  0  0  0  0  0
   -1.1185   -3.4621    3.7825 C   0  0  0  0  0  0  0  0  0  0  0  0
   -1.8617   -3.9799    4.7679 C   0  0  0  0  0  0  0  0  0  0  0  0
   -1.3570   -6.9822    5.3067 C   0  0  0  0  0  0  0  0  0  0  0  0
   -1.5721   -2.7254    2.5698 C   0  0  1  0  0  0  0  0  0  0  0  0
    0.1604   -5.1350    5.8767 C   0  0  2  0  0  0  0  0  0  0  0  0
   -1.3137   -4.6757    5.9907 C   0  0  2  0  0  0  0  0  0  0  0  0
    0.1121   -6.5828    5.3569 C   0  0  1  0  0  0  0  0  0  0  0  0
   -2.0547   -5.9952    6.2331 C   0  0  2  0  0  0  0  0  0  0  0  0
    5.8765   -1.7045    7.5586 C   0  0  0  0  0  0  0  0  0  0  0  0
   -2.9854   -2.6471    2.5269 O   0  0  0  0  0  0  0  0  0  0  0  0
    0.7966   -7.5119    6.1868 O   0  0  0  0  0  0  0  0  0  0  0  0
   -1.8823   -6.3909    7.5929 O   0  0  0  0  0  0  0  0  0  0  0  0
    6.6200   -0.7605    7.7980 O   0  0  0  0  0  0  0  0  0  0  0  0
    5.4657   -1.9424    6.3002 O   0  0  0  0  0  0  0  0  0  0  0  0
  2  1  1  0
  3  2  1  0
  5  4  1  0
  6  3  1  0
  7  4  2  0
  8  5  1  0
  9  6  1  0
 10  7  1  0
 11  8  1  0
 13 12  2  0
 15  9  1  0
 15 12  1  0
 15 21  1  1
 16 10  1  1
 17 13  1  6
 17 16  1  0
 18 14  1  0
 18 16  1  0
 18 22  1  1
 19 14  1  0
 19 17  1  0
 19 23  1  1
 20 11  1  0
 24 20  2  0
 25 20  1  0
M  END
>  <DRUGBANK_ID>  (1) 
DB12789

>  <COMMON_NAME>  (1) 
Dinoprost

>  <CAS_NUMBER>  (1) 
551-11-1

>  <UNII>  (1) 
B7IN85G1HY

>  <SYNONYMS>  (1) 
Dinoprost; dinoprosta

$$$$
