
     RDKit          3D

  6  5  0  0  0  0  0  0  0  0999 V2000
    0.9612    0.1831    0.0525 N   0  0  0  0  0  0  0  0  0  0  0  0
    0.5219   -0.1213   -1.3043 C   0  0  0  0  0  0  0  0  0  0  0  0
    0.9889   -1.5057   -1.7605 C   0  0  0  0  0  0  0  0  0  0  0  0
    0.4199   -2.6637   -0.9276 C   0  0  0  0  0  0  0  0  0  0  0  0
   -1.1099   -2.7225   -0.9036 C   0  0  0  0  0  0  0  0  0  0  0  0
   -1.6519   -2.9367   -2.2400 N   0  0  0  0  0  0  0  0  0  0  0  0
  1  2  1  0
  2  3  1  0
  3  4  1  0
  4  5  1  0
  5  6  1  0
M  END
>  <DRUGBANK_ID>  (1) 
DB01917

>  <SECONDARY_ACCESSION_NUMBERS>  (1) 
EXPT02702

>  <COMMON_NAME>  (1) 
Putrescine

>  <CAS_NUMBER>  (1) 
110-60-1

>  <UNII>  (1) 
V10TVZ52E4

>  <SYNONYMS>  (1) 
putrescina

$$$$
