
     RDKit          3D

 16 17  0  0  0  0  0  0  0  0999 V2000
    1.0140   -0.0633    0.0189 C   0  0  0  0  0  0  0  0  0  0  0  0
    0.2030   -1.3633   -0.0810 C   0  0  0  0  0  0  0  0  0  0  0  0
    0.4810    1.0360    0.2303 O   0  0  0  0  0  0  0  0  0  0  0  0
   -0.6379   -1.5244    1.0610 O   0  0  0  0  0  0  0  0  0  0  0  0
    2.4983   -0.1037   -0.0374 C   0  0  0  0  0  0  0  0  0  0  0  0
    3.1763    1.1233    0.0049 C   0  0  0  0  0  0  0  0  0  0  0  0
    3.2324   -1.2943   -0.0134 C   0  0  0  0  0  0  0  0  0  0  0  0
    4.5627    1.1575    0.1213 C   0  0  0  0  0  0  0  0  0  0  0  0
    4.6143   -1.2556    0.1595 C   0  0  0  0  0  0  0  0  0  0  0  0
    5.2785   -0.0333    0.2132 C   0  0  0  0  0  0  0  0  0  0  0  0
   -0.6702   -1.4306   -1.3154 C   0  0  0  0  0  0  0  0  0  0  0  0
   -1.0498   -2.6833   -1.8220 C   0  0  0  0  0  0  0  0  0  0  0  0
   -1.1876   -0.2779   -1.9260 C   0  0  0  0  0  0  0  0  0  0  0  0
   -1.9363   -2.7725   -2.8954 C   0  0  0  0  0  0  0  0  0  0  0  0
   -2.1074   -0.3688   -2.9649 C   0  0  0  0  0  0  0  0  0  0  0  0
   -2.4706   -1.6153   -3.4595 C   0  0  0  0  0  0  0  0  0  0  0  0
  2  1  1  0
  2  4  1  0
  3  1  2  0
  5  1  1  0
  6  5  2  0
  7  5  1  0
  8  6  1  0
  9  7  2  0
 10  8  2  0
 10  9  1  0
 11  2  1  0
 12 11  2  0
 13 11  1  0
 14 12  1  0
 15 13  2  0
 16 14  2  0
 16 15  1  0
M  END
>  <DRUGBANK_ID>  (1) 
DB14020

>  <COMMON_NAME>  (1) 
Benzoin

>  <CAS_NUMBER>  (1) 
119-53-9

>  <UNII>  (1) 
L7J6A1NE81

>  <SYNONYMS>  (1) 
(+-)-Benzoin; 2-Hydroxy-1,2-diphenylethanone; Aerozoin; alpha-Hydroxy-alpha-phenylacetophenone; alpha-Hydroxybenzyl phenyl ketone; Benzoin extract (resinoid); Benzoylphenylcarbinol; Hydroxy-2-phenyl acetophenone; Phenyl-alpha-hydroxybenzyl ketone; phenyl-α-hydroxybenzyl ketone; Phenylbenzoyl carbinol; α-hydroxy-α-phenylacetophenone

$$$$
