
     RDKit          3D

 25 28  0  0  1  0  0  0  0  0999 V2000
   -1.9395    0.8649   -0.6401 C   0  0  1  0  0  0  0  0  0  0  0  0
   -1.8401    2.8167   -1.3711 C   0  0  0  0  0  0  0  0  0  0  0  0
   -2.1848    4.0194   -0.3976 C   0  0  1  0  0  0  0  0  0  0  0  0
   -3.2466    4.6936   -1.1790 O   0  0  0  0  0  0  0  0  0  0  0  0
   -2.0999    2.7245    0.3190 C   0  0  2  0  0  0  0  0  0  0  0  0
   -2.5449    2.8830    1.6734 O   0  0  0  0  0  0  0  0  0  0  0  0
   -0.3974    2.2575    0.4822 C   0  0  0  0  0  0  0  0  0  0  0  0
   -0.0264    1.5562    1.7451 C   0  0  0  0  0  0  0  0  0  0  0  0
    0.4277    2.1992   -0.4549 O   0  0  0  0  0  0  0  0  0  0  0  0
   -3.0804    1.7181   -0.8912 C   0  0  1  0  0  0  0  0  0  0  0  0
   -2.5260    1.2367   -2.6765 C   0  0  0  0  0  0  0  0  0  0  0  0
   -4.4662    1.4998   -0.4265 C   0  0  0  0  0  0  0  0  0  0  0  0
   -4.9559    0.3580   -1.2103 C   0  0  0  0  0  0  0  0  0  0  0  0
   -4.2502   -0.8970   -0.7824 C   0  0  2  0  0  0  0  0  0  0  0  0
   -2.7294   -0.7661   -0.8568 C   0  0  2  0  0  0  0  0  0  0  0  0
   -2.4012   -2.2718   -0.3305 C   0  0  0  0  0  0  0  0  0  0  0  0
   -3.1781   -3.5796   -1.3569 C   0  0  0  0  0  0  0  0  0  0  0  0
   -4.7135   -3.3388   -2.1059 C   0  0  0  0  0  0  0  0  0  0  0  0
   -5.6254   -3.2366   -3.2725 C   0  0  0  0  0  0  0  0  0  0  0  0
   -5.8609   -1.5631   -3.7144 C   0  0  0  0  0  0  0  0  0  0  0  0
   -6.9492   -0.9138   -3.5949 O   0  0  0  0  0  0  0  0  0  0  0  0
   -4.5582   -0.9543   -4.0708 C   0  0  0  0  0  0  0  0  0  0  0  0
   -3.8156   -1.8870   -3.2303 C   0  0  0  0  0  0  0  0  0  0  0  0
   -4.8064   -1.9768   -1.6896 C   0  0  2  0  0  0  0  0  0  0  0  0
   -6.3317   -2.2839   -1.0974 C   0  0  0  0  0  0  0  0  0  0  0  0
  1  2  1  6
  1 10  1  0
  1 15  1  0
  3  2  1  0
  3  4  1  1
  5  3  1  0
  5  6  1  1
  5  7  1  0
  7  8  1  0
  7  9  2  0
 10  5  1  0
 10 12  1  0
 10 11  1  6
 12 13  1  0
 14 13  1  6
 14 24  1  0
 15 14  1  0
 15 16  1  1
 16 17  1  0
 17 18  1  0
 18 19  2  0
 19 20  1  0
 20 22  1  0
 20 21  2  0
 22 23  1  0
 24 23  1  0
 24 18  1  0
 24 25  1  6
M  END
>  <DRUGBANK_ID>  (1) 
DB18000

>  <COMMON_NAME>  (1) 
Algestone

>  <CAS_NUMBER>  (1) 
595-77-7

>  <UNII>  (1) 
3JEB53B3WT

>  <SYNONYMS>  (1) 
(16.alpha.)-16,17-dihydroxypregn-4-ene-3,20-dione; 16.alpha.,17-dihydroxypregn-4-ene-3,20-dione; 16.alpha.,17-dihydroxyprogesterone; 4-pregnene-16.alpha.,17.alpha.-diol-3,20-dione; Alphasone

$$$$
