
     RDKit          3D

 15 14  0  0  0  0  0  0  0  0999 V2000
    0.9737    0.0152   -0.0444 C   0  0  0  0  0  0  0  0  0  0  0  0
    0.5410   -0.8307    1.1420 C   0  0  0  0  0  0  0  0  0  0  0  0
    1.0738   -0.2285    2.4448 C   0  0  0  0  0  0  0  0  0  0  0  0
    0.5364    1.1792    2.6601 C   0  0  0  0  0  0  0  0  0  0  0  0
   -0.9802    1.1458    2.6936 C   0  0  0  0  0  0  0  0  0  0  0  0
   -1.4932    0.2714    3.8582 C   0  0  0  0  0  0  0  0  0  0  0  0
   -1.1432    0.9167    5.1944 C   0  0  0  0  0  0  0  0  0  0  0  0
   -1.7455    2.3221    5.3029 C   0  0  0  0  0  0  0  0  0  0  0  0
   -3.2008    2.2719    5.2733 O   0  0  0  0  0  0  0  0  0  0  0  0
   -3.8680    2.1257    4.0909 C   0  0  0  0  0  0  0  0  0  0  0  0
   -3.3908    2.1218    2.9678 O   0  0  0  0  0  0  0  0  0  0  0  0
   -5.3175    1.9238    4.2290 C   0  0  0  0  0  0  0  0  0  0  0  0
   -5.9741    2.3333    5.3216 C   0  0  0  0  0  0  0  0  0  0  0  0
   -5.9986    1.3982    3.0931 C   0  0  0  0  0  0  0  0  0  0  0  0
   -6.5681    0.9707    2.1707 N   0  0  0  0  0  0  0  0  0  0  0  0
  1  2  1  0
  2  3  1  0
  3  4  1  0
  4  5  1  0
  5  6  1  0
  6  7  1  0
  7  8  1  0
  8  9  1  0
  9 10  1  0
 10 11  2  0
 10 12  1  0
 12 13  2  0
 12 14  1  0
 14 15  3  0
M  END
>  <DRUGBANK_ID>  (1) 
DB15086

>  <COMMON_NAME>  (1) 
Ocrylate

>  <CAS_NUMBER>  (1) 
6701-17-3

>  <UNII>  (1) 
6C655P1XVG

>  <SYNONYMS>  (1) 
Ocrylate; OCTYL-2-CYANOACRYLATE

$$$$
