1434
     RDKit          3D

 20 23  0  0  1  0  0  0  0  0999 V2000
    2.6180   -0.9732    0.0722 C   0  0  1  0  0  0  0  0  0  0  0  0
    3.1864   -2.0926    0.9679 C   0  0  0  0  0  0  0  0  0  0  0  0
    1.1535   -1.6045    0.3107 C   0  0  2  0  0  0  0  0  0  0  0  0
    2.6254    0.4780    0.7026 C   0  0  0  0  0  0  0  0  0  0  0  0
    3.2646   -0.7632   -1.3251 C   0  0  0  0  0  0  0  0  0  0  0  0
    2.6164   -1.8911    2.3343 C   0  0  0  0  0  0  0  0  0  0  0  0
    0.0188   -0.7510   -0.2495 C   0  0  2  0  0  0  0  0  0  0  0  0
    1.1594   -1.6751    1.8947 C   0  0  0  0  0  0  0  0  0  0  0  0
    1.5303    1.2697    0.0504 C   0  0  0  0  0  0  0  0  0  0  0  0
    0.1476    0.6567    0.2567 C   0  0  1  0  0  0  0  0  0  0  0  0
   -1.4615   -1.0743    0.0821 C   0  0  0  0  0  0  0  0  0  0  0  0
   -0.8077    1.4759   -0.5099 C   0  0  2  0  0  0  0  0  0  0  0  0
   -2.5844    0.0978   -0.5762 C   0  0  0  0  0  0  0  0  0  0  0  0
   -2.2018    1.7525   -0.6118 C   0  0  0  0  0  0  0  0  0  0  0  0
   -0.7424    1.2513   -2.1683 C   0  0  0  0  0  0  0  0  0  0  0  0
   -2.0390    3.0446   -1.2769 C   0  0  0  0  0  0  0  0  0  0  0  0
    0.2096    2.2920   -2.5942 C   0  0  0  0  0  0  0  0  0  0  0  0
   -0.3630    3.3743   -1.6528 C   0  0  0  0  0  0  0  0  0  0  0  0
    0.3141    4.1823   -0.9712 O   0  0  0  0  0  0  0  0  0  0  0  0
    3.5792   -3.1965    0.5948 O   0  0  0  0  0  0  0  0  0  0  0  0
  1  2  1  0
  1  3  1  0
  1  4  1  0
  1  5  1  6
  2  6  1  0
  2 20  2  0
  3  7  1  0
  3  8  1  1
  4  9  1  0
  6  8  1  0
  7 10  1  0
  7 11  1  1
 10  9  1  6
 10 12  1  0
 11 13  1  0
 12 14  1  0
 12 15  1  6
 13 14  1  0
 14 16  2  0
 15 17  1  0
 16 18  1  0
 17 18  1  0
 18 19  2  0
M  END
>  <DRUGBANK_ID>  (1) 
DB01434

>  <COMMON_NAME>  (1) 
19-norandrostenedione

>  <CAS_NUMBER>  (1) 
734-32-7

>  <UNII>  (1) 
U90987PVU5

>  <SYNONYMS>  (1) 
delta,4-Estrene-3,17-dione; delta4-Estrene-3,17-dione

$$$$
