BH7
     RDKit          3D

 24 25  0  0  0  0  0  0  0  0999 V2000
   -1.1663   -1.2453    0.2295 N   0  0  0  0  0  0  0  0  0  0  0  0
    0.0519   -1.0211    0.9778 C   0  0  2  0  0  0  0  0  0  0  0  0
    0.0705    0.4921    1.1385 C   0  0  2  0  0  0  0  0  0  0  0  0
   -1.1035    0.9588    0.4100 N   0  0  0  0  0  0  0  0  0  0  0  0
   -1.7811   -0.0798   -0.1468 C   0  0  0  0  0  0  0  0  0  0  0  0
    1.3176   -1.4922    0.2369 C   0  0  0  0  0  0  0  0  0  0  0  0
    1.8205   -0.1203   -0.7907 S   0  0  0  0  0  0  0  0  0  0  0  0
    1.3881    0.9627    0.5678 C   0  0  1  0  0  0  0  0  0  0  0  0
   -2.7834    0.0242   -0.8574 O   0  0  0  0  0  0  0  0  0  0  0  0
    1.2424    2.3502    0.1271 C   0  0  0  0  0  0  0  0  0  0  0  0
    0.9025    3.2096    1.3890 C   0  0  0  0  0  0  0  0  0  0  0  0
    2.0584    3.4445    2.3167 C   0  0  0  0  0  0  0  0  0  0  0  0
    3.2428    4.0776    1.5638 C   0  0  0  0  0  0  0  0  0  0  0  0
    3.0841    5.5323    1.0119 C   0  0  0  0  0  0  0  0  0  0  0  0
    3.7908    6.4298    1.4789 O   0  0  0  0  0  0  0  0  0  0  0  0
    2.2288    5.8898   -0.0094 N   0  0  0  0  0  0  0  0  0  0  0  0
    1.3699    5.0396   -0.7758 C   0  0  0  0  0  0  0  0  0  0  0  0
   -0.1490    5.1661   -0.4831 C   0  0  0  0  0  0  0  0  0  0  0  0
   -0.6236    6.3883   -1.1945 C   0  0  0  0  0  0  0  0  0  0  0  0
   -0.4753    6.1637   -2.6921 C   0  0  0  0  0  0  0  0  0  0  0  0
   -1.2867    4.9671   -3.2007 C   0  0  0  0  0  0  0  0  0  0  0  0
   -2.7578    5.1576   -2.9072 C   0  0  0  0  0  0  0  0  0  0  0  0
   -3.5209    5.2944   -4.0071 O   0  0  0  0  0  0  0  0  0  0  0  0
   -3.2325    5.2073   -1.7832 O   0  0  0  0  0  0  0  0  0  0  0  0
  1  2  1  0
  1  5  1  0
  2  3  1  0
  2  6  1  6
  3  4  1  6
  3  8  1  0
  4  5  1  0
  5  9  2  0
  6  7  1  0
  7  8  1  0
  8 10  1  6
 10 11  1  0
 11 12  1  0
 12 13  1  0
 13 14  1  0
 14 15  2  0
 14 16  1  0
 16 17  1  0
 17 18  1  0
 18 19  1  0
 19 20  1  0
 20 21  1  0
 21 22  1  0
 22 23  1  0
 22 24  2  0
M  END
>  <DRUGBANK_ID>  (1) 
DB03139

>  <SECONDARY_ACCESSION_NUMBERS>  (1) 
EXPT00692

>  <COMMON_NAME>  (1) 
6-[5-(2-Oxo-Hexahydro-Thieno[3,4-D]Imidazol-4-Yl)-Pentanoylamino]-Hexanoic Acid

$$$$
