
     RDKit          3D

 11 11  0  0  1  0  0  0  0  0999 V2000
   -1.6094   -1.5129   -0.1992 O   0  0  0  0  0  0  0  0  0  0  0  0
   -0.5363   -0.7049    0.2853 C   0  0  1  0  0  0  0  0  0  0  0  0
    0.8007   -1.3401   -0.0894 C   0  0  0  0  0  0  0  0  0  0  0  0
    1.8997   -0.5184    0.2857 O   0  0  0  0  0  0  0  0  0  0  0  0
    1.8930    0.7480   -0.3783 C   0  0  1  0  0  0  0  0  0  0  0  0
    0.6263    1.5265   -0.0264 C   0  0  0  0  0  0  0  0  0  0  0  0
   -0.6303    0.7102   -0.3100 C   0  0  2  0  0  0  0  0  0  0  0  0
   -1.7587    1.4188    0.2128 O   0  0  0  0  0  0  0  0  0  0  0  0
    3.1162    1.5538    0.0780 C   0  0  0  0  0  0  0  0  0  0  0  0
    3.9776    1.8904   -0.9115 O   0  0  0  0  0  0  0  0  0  0  0  0
    3.3168    1.8955    1.2376 O   0  0  0  0  0  0  0  0  0  0  0  0
  2  1  1  6
  2  3  1  0
  2  7  1  0
  3  4  1  0
  4  5  1  0
  5  6  1  0
  5  9  1  1
  6  7  1  0
  7  8  1  1
  9 10  1  0
  9 11  2  0
M  END
>  <DRUGBANK_ID>  (1) 
DB02227

>  <SECONDARY_ACCESSION_NUMBERS>  (1) 
EXPT01564

>  <COMMON_NAME>  (1) 
4,5-Dihydroxy-Tetrahydro-Pyran-2-Carboxylic Acid

$$$$
