MBT
     RDKit          3D

 20 22  0  0  0  0  0  0  0  0999 V2000
    1.1849   -0.8437   -0.0087 C   0  0  0  0  0  0  0  0  0  0  0  0
    1.3695    0.5473    0.0035 C   0  0  0  0  0  0  0  0  0  0  0  0
   -0.0008    1.6843   -0.0055 S   0  0  0  0  0  0  0  0  0  0  0  0
   -1.3709    0.5470   -0.0026 C   0  0  0  0  0  0  0  0  0  0  0  0
   -1.1858   -0.8439   -0.0021 C   0  0  0  0  0  0  0  0  0  0  0  0
   -0.0004   -1.4920   -0.0116 N   0  0  0  0  0  0  0  0  0  0  0  0
   -2.6470    1.1308   -0.0007 C   0  0  0  0  0  0  0  0  0  0  0  0
   -3.8191    0.3774    0.0006 C   0  0  0  0  0  0  0  0  0  0  0  0
   -3.6253   -1.0121    0.0178 C   0  0  0  0  0  0  0  0  0  0  0  0
   -2.3422   -1.5975    0.0134 C   0  0  0  0  0  0  0  0  0  0  0  0
    2.6453    1.1315    0.0216 C   0  0  0  0  0  0  0  0  0  0  0  0
    3.8175    0.3784    0.0205 C   0  0  0  0  0  0  0  0  0  0  0  0
    3.6244   -1.0112    0.0011 C   0  0  0  0  0  0  0  0  0  0  0  0
    2.3416   -1.5970   -0.0133 C   0  0  0  0  0  0  0  0  0  0  0  0
   -5.0737    0.9617   -0.0110 N   0  0  0  0  0  0  0  0  0  0  0  0
   -5.2972    2.4052   -0.0533 C   0  0  0  0  0  0  0  0  0  0  0  0
   -6.2775    0.1376   -0.0260 C   0  0  0  0  0  0  0  0  0  0  0  0
    5.0720    0.9628    0.0368 N   0  0  0  0  0  0  0  0  0  0  0  0
    5.2955    2.4068    0.0537 C   0  0  0  0  0  0  0  0  0  0  0  0
    6.2759    0.1389    0.0284 C   0  0  0  0  0  0  0  0  0  0  0  0
  1 14  1  0
  1  6  2  0
  1  2  1  0
  2  3  2  0
  2 11  1  0
  3  4  1  0
  4  7  2  0
  4  5  1  0
  5  6  1  0
  5 10  2  0
  7  8  1  0
  8  9  2  0
  8 15  1  0
  9 10  1  0
 11 12  2  0
 12 18  1  0
 12 13  1  0
 13 14  2  0
 15 16  1  0
 15 17  1  0
 18 19  1  0
 18 20  1  0
M  CHG  1   3   1
M  END
>  <DRUGBANK_ID>  (1) 
DB08167

>  <COMMON_NAME>  (1) 
Methylthioninium

>  <CAS_NUMBER>  (1) 
7060-82-4

>  <UNII>  (1) 
ZMZ79891ZH

>  <SYNONYMS>  (1) 
Methylene blue cation

$$$$
