
     RDKit          3D

 30 30  0  0  0  0  0  0  0  0999 V2000
    1.3929   -0.2107    0.1210 C   0  0  0  0  0  0  0  0  0  0  0  0
    0.5363   -1.2775   -0.0916 C   0  0  0  0  0  0  0  0  0  0  0  0
   -0.8470   -1.0589   -0.1251 C   0  0  0  0  0  0  0  0  0  0  0  0
   -1.3635    0.2429   -0.0581 C   0  0  0  0  0  0  0  0  0  0  0  0
   -0.5062    1.3113    0.0999 C   0  0  0  0  0  0  0  0  0  0  0  0
    0.8780    1.0907    0.0980 C   0  0  0  0  0  0  0  0  0  0  0  0
    1.7731    2.2347   -0.3001 C   0  0  0  0  0  0  0  0  0  0  0  0
    1.2875    2.7644   -1.5880 N   0  0  0  0  0  0  0  0  0  0  0  0
    0.9621    4.2301   -1.6471 C   0  0  0  0  0  0  0  0  0  0  0  0
    1.9432    5.1887   -2.4126 C   0  0  0  0  0  0  0  0  0  0  0  0
    2.1940    4.9533   -3.8027 O   0  0  0  0  0  0  0  0  0  0  0  0
    2.8183    3.7109   -4.0505 C   0  0  0  0  0  0  0  0  0  0  0  0
    4.1517    3.4419   -3.3925 C   0  0  0  0  0  0  0  0  0  0  0  0
    0.9058    1.8878   -2.6694 C   0  0  0  0  0  0  0  0  0  0  0  0
    1.6042    0.5001   -2.8482 C   0  0  0  0  0  0  0  0  0  0  0  0
    0.1359    2.3163   -3.5578 O   0  0  0  0  0  0  0  0  0  0  0  0
    0.4005   -0.7109   -3.3575 Cl  0  0  0  0  0  0  0  0  0  0  0  0
    2.8877    0.4291   -4.0936 Cl  0  0  0  0  0  0  0  0  0  0  0  0
   -1.7902   -2.2112    0.0780 C   0  0  0  0  0  0  0  0  0  0  0  0
   -2.5218   -1.9708    1.3287 N   0  0  0  0  0  0  0  0  0  0  0  0
   -4.0203   -1.9962    1.2582 C   0  0  0  0  0  0  0  0  0  0  0  0
   -1.8467   -1.5026    2.5143 C   0  0  0  0  0  0  0  0  0  0  0  0
   -0.3496   -1.8743    2.7725 C   0  0  0  0  0  0  0  0  0  0  0  0
    0.5060   -0.4680    3.4473 Cl  0  0  0  0  0  0  0  0  0  0  0  0
   -0.0691   -3.2134    3.9249 Cl  0  0  0  0  0  0  0  0  0  0  0  0
   -2.5144   -0.9389    3.4123 O   0  0  0  0  0  0  0  0  0  0  0  0
   -4.7726   -3.2436    1.8405 C   0  0  0  0  0  0  0  0  0  0  0  0
   -4.5920   -3.5725    3.2226 O   0  0  0  0  0  0  0  0  0  0  0  0
   -3.2594   -3.9145    3.5431 C   0  0  0  0  0  0  0  0  0  0  0  0
   -2.6257   -5.0739    2.8098 C   0  0  0  0  0  0  0  0  0  0  0  0
  1  2  2  0
  1  6  1  0
  2  3  1  0
  3  4  2  0
  3 19  1  0
  4  5  1  0
  5  6  2  0
  6  7  1  0
  7  8  1  0
  8  9  1  0
  8 14  1  0
  9 10  1  0
 10 11  1  0
 11 12  1  0
 12 13  1  0
 14 15  1  0
 14 16  2  0
 15 17  1  0
 15 18  1  0
 19 20  1  0
 20 21  1  0
 20 22  1  0
 21 27  1  0
 22 23  1  0
 22 26  2  0
 23 24  1  0
 23 25  1  0
 27 28  1  0
 28 29  1  0
 29 30  1  0
M  END
>  <DRUGBANK_ID>  (1) 
DB13205

>  <COMMON_NAME>  (1) 
Teclozan

>  <CAS_NUMBER>  (1) 
5560-78-1

>  <UNII>  (1) 
K9RIF0COUB

>  <SYNONYMS>  (1) 
Teclozan; Teclozanum

$$$$
