
     RDKit          3D

 22 24  0  0  0  0  0  0  0  0999 V2000
    1.0116   -0.1513   -0.3175 C   0  0  0  0  0  0  0  0  0  0  0  0
    0.5056    1.1693   -0.6818 N   0  0  0  0  0  0  0  0  0  0  0  0
   -0.9563    1.1696   -0.6958 C   0  0  0  0  0  0  0  0  0  0  0  0
    1.0237    2.2234    0.2020 C   0  0  0  0  0  0  0  0  0  0  0  0
    0.5726    2.1701    1.6671 C   0  0  0  0  0  0  0  0  0  0  0  0
    1.0357    1.0086    2.4198 N   0  0  0  0  0  0  0  0  0  0  0  0
    1.8790    0.9139    3.4900 C   0  0  0  0  0  0  0  0  0  0  0  0
    2.2272   -0.1919    3.8737 O   0  0  0  0  0  0  0  0  0  0  0  0
    2.2128    2.1569    4.2041 C   0  0  0  0  0  0  0  0  0  0  0  0
    1.1652    3.0629    4.4479 C   0  0  0  0  0  0  0  0  0  0  0  0
    1.4128    4.2731    5.0575 C   0  0  0  0  0  0  0  0  0  0  0  0
    2.6909    4.5226    5.5334 C   0  0  0  0  0  0  0  0  0  0  0  0
    3.7220    3.5716    5.3744 C   0  0  0  0  0  0  0  0  0  0  0  0
    3.5030    2.3731    4.6686 C   0  0  0  0  0  0  0  0  0  0  0  0
    4.4875    1.4725    4.4764 N   0  0  0  0  0  0  0  0  0  0  0  0
    5.6646    1.6332    5.0823 C   0  0  0  0  0  0  0  0  0  0  0  0
    6.6082    0.6247    4.9760 C   0  0  0  0  0  0  0  0  0  0  0  0
    7.8278    0.7012    5.6473 C   0  0  0  0  0  0  0  0  0  0  0  0
    8.1160    1.8162    6.4276 C   0  0  0  0  0  0  0  0  0  0  0  0
    7.1925    2.8573    6.5199 C   0  0  0  0  0  0  0  0  0  0  0  0
    5.9608    2.7699    5.8514 C   0  0  0  0  0  0  0  0  0  0  0  0
    4.9829    3.7686    5.9434 C   0  0  0  0  0  0  0  0  0  0  0  0
  1  2  1  0
  2  3  1  0
  2  4  1  0
  4  5  1  0
  5  6  1  0
  6  7  1  0
  7  8  2  0
  7  9  1  0
  9 10  2  0
  9 14  1  0
 10 11  1  0
 11 12  2  0
 12 13  1  0
 13 14  2  0
 13 22  1  0
 14 15  1  0
 15 16  2  0
 16 17  1  0
 16 21  1  0
 17 18  2  0
 18 19  1  0
 19 20  2  0
 20 21  1  0
 21 22  2  0
M  END
>  <DRUGBANK_ID>  (1) 
DB11880

>  <COMMON_NAME>  (1) 
Acridine Carboxamide

>  <CAS_NUMBER>  (1) 
89459-25-6

>  <UNII>  (1) 
0N3V8R4E13

>  <SYNONYMS>  (1) 
DACA

$$$$
