
     RDKit          3D

 26 28  0  0  1  0  0  0  0  0999 V2000
    8.5406    0.0632   -4.1844 C   0  0  0  0  0  0  0  0  0  0  0  0
    8.3703   -0.5281   -2.8899 O   0  0  0  0  0  0  0  0  0  0  0  0
    7.0542   -0.6831   -2.5089 C   0  0  0  0  0  0  0  0  0  0  0  0
    6.1532   -1.2884   -3.3730 C   0  0  0  0  0  0  0  0  0  0  0  0
    4.8120   -1.4358   -3.0014 C   0  0  0  0  0  0  0  0  0  0  0  0
    4.3828   -1.0059   -1.7568 C   0  0  0  0  0  0  0  0  0  0  0  0
    5.2830   -0.4580   -0.8474 C   0  0  0  0  0  0  0  0  0  0  0  0
    6.6427   -0.2997   -1.2056 C   0  0  0  0  0  0  0  0  0  0  0  0
    7.6724    0.1947   -0.4477 O   0  0  0  0  0  0  0  0  0  0  0  0
    7.3949    0.6289    0.8666 C   0  0  0  0  0  0  0  0  0  0  0  0
    4.4021   -0.0154    0.7879 Br  0  0  0  0  0  0  0  0  0  0  0  0
    3.8078   -2.0399   -3.9497 C   0  0  2  0  0  0  0  0  0  0  0  0
    4.1920   -3.4656   -4.2492 C   0  0  0  0  0  0  0  0  0  0  0  0
    4.2613   -4.4042   -3.2099 C   0  0  0  0  0  0  0  0  0  0  0  0
    4.7390   -5.6860   -3.4493 C   0  0  0  0  0  0  0  0  0  0  0  0
    5.1497   -6.0653   -4.7328 C   0  0  0  0  0  0  0  0  0  0  0  0
    5.0524   -5.1375   -5.8021 C   0  0  0  0  0  0  0  0  0  0  0  0
    4.5911   -3.8285   -5.5383 C   0  0  0  0  0  0  0  0  0  0  0  0
    4.5656   -2.9161   -6.5784 O   0  0  0  0  0  0  0  0  0  0  0  0
    4.1112   -1.6119   -6.3706 C   0  0  0  0  0  0  0  0  0  0  0  0
    3.7389   -1.1649   -5.1481 C   0  0  0  0  0  0  0  0  0  0  0  0
    3.2665    0.2724   -5.0018 C   0  0  0  0  0  0  0  0  0  0  0  0
    2.8745    1.4647   -4.8804 N   0  0  0  0  0  0  0  0  0  0  0  0
    4.0971   -0.8438   -7.4961 N   0  0  0  0  0  0  0  0  0  0  0  0
    5.6031   -5.4501   -7.0572 N   0  0  0  0  0  0  0  0  0  0  0  0
    5.5742   -7.3764   -4.9246 N   0  0  0  0  0  0  0  0  0  0  0  0
  1  2  1  0
  2  3  1  0
  3  4  2  0
  3  8  1  0
  4  5  1  0
  5  6  2  0
  6  7  1  0
  7  8  2  0
  7 11  1  0
  8  9  1  0
  9 10  1  0
 12 13  1  0
 12 21  1  0
 12  5  1  1
 13 14  2  0
 13 18  1  0
 14 15  1  0
 15 16  2  0
 16 17  1  0
 16 26  1  0
 17 18  2  0
 17 25  1  0
 18 19  1  0
 19 20  1  0
 20 21  2  0
 20 24  1  0
 21 22  1  0
 22 23  3  0
M  END
>  <DRUGBANK_ID>  (1) 
DB12925

>  <COMMON_NAME>  (1) 
Crolibulin

>  <CAS_NUMBER>  (1) 
1000852-17-4

>  <UNII>  (1) 
9ENT43KY91

>  <SYNONYMS>  (1) 
Crolibulin

$$$$
