
     RDKit          3D

 11 11  0  0  0  0  0  0  0  0999 V2000
    1.0308    0.0031    0.1330 C   0  0  0  0  0  0  0  0  0  0  0  0
    0.4366    1.2918    0.2248 O   0  0  0  0  0  0  0  0  0  0  0  0
    0.9257    2.1410    1.1762 C   0  0  0  0  0  0  0  0  0  0  0  0
    2.2390    2.1769    1.6344 C   0  0  0  0  0  0  0  0  0  0  0  0
    2.6476    3.1901    2.5150 C   0  0  0  0  0  0  0  0  0  0  0  0
    1.7523    4.1844    2.9464 C   0  0  0  0  0  0  0  0  0  0  0  0
    0.4437    4.1561    2.4561 C   0  0  0  0  0  0  0  0  0  0  0  0
    0.0273    3.1146    1.6172 C   0  0  0  0  0  0  0  0  0  0  0  0
    2.2477    5.1890    3.9365 C   0  0  0  0  0  0  0  0  0  0  0  0
    1.3647    6.1104    4.3702 O   0  0  0  0  0  0  0  0  0  0  0  0
    3.3958    5.1613    4.3635 O   0  0  0  0  0  0  0  0  0  0  0  0
  1  2  1  0
  2  3  1  0
  3  4  2  0
  3  8  1  0
  4  5  1  0
  5  6  2  0
  6  7  1  0
  6  9  1  0
  7  8  2  0
  9 10  1  0
  9 11  2  0
M  END
>  <DRUGBANK_ID>  (1) 
DB02795

>  <SECONDARY_ACCESSION_NUMBERS>  (1) 
EXPT00523

>  <COMMON_NAME>  (1) 
P-Anisic Acid

>  <CAS_NUMBER>  (1) 
100-09-4

>  <UNII>  (1) 
4SB6Y7DMM3

$$$$
