
     RDKit          3D

 21 23  0  0  0  0  0  0  0  0999 V2000
    0.8233    0.2209   -0.0351 C   0  0  0  0  0  0  0  0  0  0  0  0
    0.4583    0.0872   -1.4339 N   0  0  0  0  0  0  0  0  0  0  0  0
    0.1626   -1.0513   -2.1906 C   0  0  0  0  0  0  0  0  0  0  0  0
    0.1939   -2.5106   -1.7526 C   0  0  0  0  0  0  0  0  0  0  0  0
    1.5872   -3.0763   -1.4475 C   0  0  0  0  0  0  0  0  0  0  0  0
    2.2399   -2.4282   -0.2508 C   0  0  0  0  0  0  0  0  0  0  0  0
    1.4556   -2.5571    0.9276 O   0  0  0  0  0  0  0  0  0  0  0  0
   -0.2348   -0.6056   -3.4582 C   0  0  0  0  0  0  0  0  0  0  0  0
   -0.7037   -1.4703   -4.5954 C   0  0  0  0  0  0  0  0  0  0  0  0
    0.2969   -2.4069   -4.9864 O   0  0  0  0  0  0  0  0  0  0  0  0
   -0.1399    0.8198   -3.4567 C   0  0  0  0  0  0  0  0  0  0  0  0
    0.3229    1.2067   -2.2232 C   0  0  0  0  0  0  0  0  0  0  0  0
    0.5699    2.5802   -1.8798 C   0  0  0  0  0  0  0  0  0  0  0  0
    1.1836    2.9475   -0.8728 O   0  0  0  0  0  0  0  0  0  0  0  0
    0.0264    3.6005   -2.8331 C   0  0  0  0  0  0  0  0  0  0  0  0
   -0.4562    3.2766   -4.0542 C   0  0  0  0  0  0  0  0  0  0  0  0
   -0.9286    4.0314   -5.1123 N   0  0  0  0  0  0  0  0  0  0  0  0
   -0.7144    5.4035   -5.4777 C   0  0  0  0  0  0  0  0  0  0  0  0
   -2.0895    4.8938   -5.0954 C   0  0  0  0  0  0  0  0  0  0  0  0
   -0.4230    1.7924   -4.4918 C   0  0  0  0  0  0  0  0  0  0  0  0
   -0.6344    1.4548   -5.6570 O   0  0  0  0  0  0  0  0  0  0  0  0
  1  2  1  0
  2  3  1  0
  2 12  1  0
  3  4  1  0
  3  8  2  0
  4  5  1  0
  5  6  1  0
  6  7  1  0
  8  9  1  0
  8 11  1  0
  9 10  1  0
 11 12  2  0
 11 20  1  0
 12 13  1  0
 13 14  2  0
 13 15  1  0
 15 16  2  0
 16 17  1  0
 16 20  1  0
 17 18  1  0
 17 19  1  0
 18 19  1  0
 20 21  2  0
M  END
>  <DRUGBANK_ID>  (1) 
DB02395

>  <SECONDARY_ACCESSION_NUMBERS>  (1) 
EXPT01312

>  <COMMON_NAME>  (1) 
3-Hydroxymethyl-5-Aziridinyl-1methyl-2-[1h-Indole-4,7-Dione]-Propanol

$$$$
