
     RDKit          3D

 34 36  0  0  1  0  0  0  0  0999 V2000
   -6.3158   -3.3809  -16.4937 C   0  0  0  0  0  0  0  0  0  0  0  0
   -6.9333   -4.2219  -15.3848 C   0  0  0  0  0  0  0  0  0  0  0  0
   -6.0652   -5.3842  -14.9356 C   0  0  0  0  0  0  0  0  0  0  0  0
   -7.2569   -3.4007  -14.2561 O   0  0  0  0  0  0  0  0  0  0  0  0
   -6.2406   -2.6966  -13.6708 C   0  0  0  0  0  0  0  0  0  0  0  0
   -5.0615   -2.7625  -13.9083 O   0  0  0  0  0  0  0  0  0  0  0  0
   -6.7806   -1.8687  -12.5676 C   0  0  0  0  0  0  0  0  0  0  0  0
   -7.7490   -0.7877  -13.0467 C   0  0  0  0  0  0  0  0  0  0  0  0
   -9.1215   -1.3024  -13.5072 C   0  0  0  0  0  0  0  0  0  0  0  0
   -9.8556   -2.1442  -12.4594 C   0  0  1  0  0  0  0  0  0  0  0  0
   -9.3406   -1.9325  -11.0453 C   0  0  0  0  0  0  0  0  0  0  0  0
   -9.6068   -0.5384  -10.5440 C   0  0  0  0  0  0  0  0  0  0  0  0
  -10.8895   -0.5410   -9.7745 C   0  0  1  0  0  0  0  0  0  0  0  0
  -12.1189   -0.5312  -10.6666 C   0  0  2  0  0  0  0  0  0  0  0  0
  -13.0658   -1.5869  -10.1282 C   0  0  0  0  0  0  0  0  0  0  0  0
  -12.2896   -2.4177   -9.1116 C   0  0  2  0  0  0  0  0  0  0  0  0
  -11.0119   -1.6750   -8.7441 C   0  0  2  0  0  0  0  0  0  0  0  0
  -11.0529   -1.3610   -7.2901 C   0  0  0  0  0  0  0  0  0  0  0  0
  -10.1098   -1.7902   -6.4326 C   0  0  0  0  0  0  0  0  0  0  0  0
  -10.0304   -1.3961   -4.9836 C   0  0  2  0  0  0  0  0  0  0  0  0
   -8.6523   -0.7322   -4.6988 C   0  0  0  0  0  0  0  0  0  0  0  0
   -8.4604    0.6981   -4.8708 O   0  0  0  0  0  0  0  0  0  0  0  0
   -8.7242    1.2616   -6.0861 C   0  0  0  0  0  0  0  0  0  0  0  0
   -7.7708    2.0347   -6.7498 C   0  0  0  0  0  0  0  0  0  0  0  0
   -8.0632    2.5898   -8.0087 C   0  0  0  0  0  0  0  0  0  0  0  0
   -9.3009    2.4187   -8.6031 C   0  0  0  0  0  0  0  0  0  0  0  0
  -10.3032    1.8742   -7.8232 C   0  0  0  0  0  0  0  0  0  0  0  0
  -10.0105    1.3261   -6.5855 C   0  0  0  0  0  0  0  0  0  0  0  0
  -11.0485    0.9125   -5.8570 F   0  0  0  0  0  0  0  0  0  0  0  0
   -7.1607    3.3571   -8.6324 F   0  0  0  0  0  0  0  0  0  0  0  0
  -10.2090   -2.5901   -4.2152 O   0  0  0  0  0  0  0  0  0  0  0  0
  -12.0018   -3.7077   -9.6376 O   0  0  0  0  0  0  0  0  0  0  0  0
  -11.8309   -0.6453  -12.0600 O   0  0  0  0  0  0  0  0  0  0  0  0
  -11.3850   -1.9254  -12.5132 C   0  0  0  0  0  0  0  0  0  0  0  0
  1  2  1  0
  2  3  1  0
  2  4  1  0
  4  5  1  0
  5  6  2  0
  5  7  1  0
  7  8  1  0
  8  9  1  0
 10  9  1  6
 10 11  1  0
 10 34  1  0
 11 12  1  0
 13 12  1  6
 13 14  1  0
 13 17  1  0
 14 15  1  1
 14 33  1  0
 15 16  1  0
 16 17  1  0
 16 32  1  6
 17 18  1  1
 18 19  2  0
 20 31  1  1
 20 21  1  0
 20 19  1  0
 21 22  1  0
 22 23  1  0
 23 24  2  0
 23 28  1  0
 24 25  1  0
 25 26  2  0
 25 30  1  0
 26 27  1  0
 27 28  2  0
 28 29  1  0
 33 34  1  0
M  END
>  <DRUGBANK_ID>  (1) 
DB12043

>  <COMMON_NAME>  (1) 
Sepetaprost

>  <CAS_NUMBER>  (1) 
1262873-06-2

>  <UNII>  (1) 
79O7855J4G

>  <SYNONYMS>  (1) 
Sepetaprost

$$$$
