
     RDKit          3D

 35 41  0  0  1  0  0  0  0  0999 V2000
   -4.6193    9.5864    1.6139 F   0  0  0  0  0  0  0  0  0  0  0  0
   -4.5678    9.2906    0.2852 C   0  0  0  0  0  0  0  0  0  0  0  0
   -5.5475    8.3664    0.0742 F   0  0  0  0  0  0  0  0  0  0  0  0
   -4.9693   10.4158   -0.3667 F   0  0  0  0  0  0  0  0  0  0  0  0
   -3.2048    8.8088   -0.1636 C   0  0  0  0  0  0  0  0  0  0  0  0
   -2.0874    8.8802    0.7072 C   0  0  0  0  0  0  0  0  0  0  0  0
   -0.8679    8.3352    0.2693 C   0  0  0  0  0  0  0  0  0  0  0  0
   -0.7586    7.6820   -0.9475 C   0  0  0  0  0  0  0  0  0  0  0  0
   -1.8447    7.7083   -1.8499 C   0  0  0  0  0  0  0  0  0  0  0  0
   -3.0608    8.2783   -1.4527 C   0  0  0  0  0  0  0  0  0  0  0  0
    0.4873    7.0997   -1.0497 N   0  0  0  0  0  0  0  0  0  0  0  0
    1.2366    7.5901   -0.0783 C   0  0  0  0  0  0  0  0  0  0  0  0
    0.4115    8.2662    0.8094 N   0  0  0  0  0  0  0  0  0  0  0  0
    2.8673    7.4144    0.0111 C   0  0  1  0  0  0  0  0  0  0  0  0
    4.3001    7.4964   -0.7078 C   0  0  1  0  0  0  0  0  0  0  0  0
    4.7639    6.6733   -1.8982 O   0  0  0  0  0  0  0  0  0  0  0  0
    3.8754    6.9297   -2.9312 C   0  0  0  0  0  0  0  0  0  0  0  0
    2.9428    7.8664   -2.5290 C   0  0  0  0  0  0  0  0  0  0  0  0
    1.7448    7.9702   -3.1938 C   0  0  0  0  0  0  0  0  0  0  0  0
    1.4434    7.0689   -4.1947 C   0  0  0  0  0  0  0  0  0  0  0  0
    0.0974    7.0122   -4.4738 O   0  0  0  0  0  0  0  0  0  0  0  0
   -0.2832    6.3684   -5.6090 C   0  0  0  0  0  0  0  0  0  0  0  0
   -0.7117    7.1480   -6.6730 C   0  0  0  0  0  0  0  0  0  0  0  0
   -0.9625    8.6208   -6.5115 C   0  0  0  0  0  0  0  0  0  0  0  0
   -0.9998    9.3147   -7.8534 C   0  0  0  0  0  0  0  0  0  0  0  0
   -1.8544    8.5158   -8.8076 C   0  0  0  0  0  0  0  0  0  0  0  0
   -2.8032    8.9754   -9.4064 O   0  0  0  0  0  0  0  0  0  0  0  0
   -1.4012    7.2243   -8.9672 N   0  0  0  0  0  0  0  0  0  0  0  0
   -0.9300    6.4938   -7.8754 C   0  0  0  0  0  0  0  0  0  0  0  0
   -0.7719    5.1630   -8.0365 N   0  0  0  0  0  0  0  0  0  0  0  0
   -0.4357    4.4397   -6.9391 C   0  0  0  0  0  0  0  0  0  0  0  0
   -0.2173    4.9883   -5.6960 C   0  0  0  0  0  0  0  0  0  0  0  0
    2.4724    6.2932   -4.7436 C   0  0  0  0  0  0  0  0  0  0  0  0
    3.7320    6.2411   -4.1226 C   0  0  0  0  0  0  0  0  0  0  0  0
    3.2453    8.3726   -1.1753 C   0  0  1  0  0  0  0  0  0  0  0  0
  1  2  1  0
  2  3  1  0
  2  4  1  0
  2  5  1  0
  5  6  2  0
  5 10  1  0
  6  7  1  0
  7  8  2  0
  7 13  1  0
  8  9  1  0
  8 11  1  0
  9 10  2  0
 11 12  2  0
 12 13  1  0
 14 15  1  0
 14 35  1  0
 14 12  1  1
 15 16  1  6
 15 35  1  0
 16 17  1  0
 17 18  2  0
 17 34  1  0
 18 19  1  0
 19 20  2  0
 20 21  1  0
 20 33  1  0
 21 22  1  0
 22 23  1  0
 22 32  2  0
 23 24  1  0
 23 29  2  0
 24 25  1  0
 25 26  1  0
 26 27  2  0
 26 28  1  0
 28 29  1  0
 29 30  1  0
 30 31  2  0
 31 32  1  0
 33 34  2  0
 35 18  1  6
M  END
>  <DRUGBANK_ID>  (1) 
DB14773

>  <COMMON_NAME>  (1) 
Lifirafenib

>  <CAS_NUMBER>  (1) 
1446090-79-4

>  <UNII>  (1) 
8762XZS5ZF

>  <SYNONYMS>  (1) 
Lifirafenib

$$$$
