
     RDKit          3D

 32 35  0  0  0  0  0  0  0  0999 V2000
   -3.2574    0.3015   -1.6144 C   0  0  0  0  0  0  0  0  0  0  0  0
   -2.0667   -0.8775   -1.2307 C   0  0  0  0  0  0  0  0  0  0  0  0
   -2.2472   -1.9901   -0.0432 C   0  0  0  0  0  0  0  0  0  0  0  0
   -1.5895   -3.1979    0.5200 C   0  0  0  0  0  0  0  0  0  0  0  0
   -2.6837   -2.3779    2.4321 C   0  0  0  0  0  0  0  0  0  0  0  0
   -3.7567   -1.5279    1.8744 C   0  0  0  0  0  0  0  0  0  0  0  0
   -7.3469    0.0191   -0.2125 C   0  0  0  0  0  0  0  0  0  0  0  0
   -6.7467    3.0462   -1.2917 C   0  0  0  0  0  0  0  0  0  0  0  0
   -5.6250    2.1161   -0.9994 C   0  0  0  0  0  0  0  0  0  0  0  0
   -4.8744   -0.6748   -0.1330 C   0  0  1  0  0  0  0  0  0  0  0  0
   -5.7697    0.8459   -1.9115 C   0  0  1  0  0  0  0  0  0  0  0  0
   -4.7243   -0.1623   -1.5142 C   0  0  1  0  0  0  0  0  0  0  0  0
   -7.2811    0.6601   -1.9469 C   0  0  2  0  0  0  0  0  0  0  0  0
   -7.1570    2.4429   -2.6926 C   0  0  1  0  0  0  0  0  0  0  0  0
   -2.7883   -3.5395    1.4186 C   0  0  0  0  0  0  0  0  0  0  0  0
   -3.5634   -4.3375    1.1634 O   0  0  0  0  0  0  0  0  0  0  0  0
   -6.3466   -1.2384    0.0132 C   0  0  1  0  0  0  0  0  0  0  0  0
   -7.0410   -2.4202    0.4628 O   0  0  0  0  0  0  0  0  0  0  0  0
   -7.6910    3.6032   -3.4051 C   0  0  0  0  0  0  0  0  0  0  0  0
   -7.2794    4.6561   -2.6919 O   0  0  0  0  0  0  0  0  0  0  0  0
   -8.5451    3.6608   -5.2753 C   0  0  0  0  0  0  0  0  0  0  0  0
   -6.5280    3.4272   -4.1416 O   0  0  0  0  0  0  0  0  0  0  0  0
   -8.0732   -0.7224   -2.4108 C   0  0  0  0  0  0  0  0  0  0  0  0
   -3.7625   -1.6941    0.2665 C   0  0  1  0  0  0  0  0  0  0  0  0
   -4.1084   -2.8114   -0.8051 C   0  0  0  0  0  0  0  0  0  0  0  0
   -7.0668    5.0918   -4.6637 C   0  0  0  0  0  0  0  0  0  0  0  0
   -6.5887    5.6503   -5.5924 O   0  0  0  0  0  0  0  0  0  0  0  0
   -8.9064    5.2977   -3.8807 C   0  0  0  0  0  0  0  0  0  0  0  0
  -10.1889    3.7715   -3.8883 C   0  0  0  0  0  0  0  0  0  0  0  0
   -9.7118    2.3798   -3.3516 C   0  0  0  0  0  0  0  0  0  0  0  0
   -9.7702    4.8056   -5.8181 O   0  0  0  0  0  0  0  0  0  0  0  0
   -9.7498    2.8072   -1.9341 C   0  0  0  0  0  0  0  0  0  0  0  0
  1  2  1  0
  2  3  1  0
  3  4  2  0
  3 24  1  0
  4 15  1  0
  5  6  1  0
  6 24  1  0
  7 13  1  0
  8  9  1  0
 11  9  1  1
 10 17  1  6
 12  1  1  1
 12 10  1  0
 12 11  1  0
 13 14  1  0
 13 11  1  0
 13 23  1  6
 14  8  1  0
 14 19  1  0
 14 22  1  6
 15  5  1  0
 15 16  2  0
 17  7  1  0
 17 18  1  1
 19 21  1  0
 19 20  2  0
 21 31  1  0
 22 26  1  0
 24 10  1  0
 24 25  1  1
 26 27  2  0
 26 28  1  0
 28 29  1  0
 29 30  1  0
 30 32  1  0
M  END
>  <DRUGBANK_ID>  (1) 
DB14544

>  <SECONDARY_ACCESSION_NUMBERS>  (1) 
DBSALT000782

>  <COMMON_NAME>  (1) 
Hydrocortisone valerate

>  <CAS_NUMBER>  (1) 
57524-89-7

>  <UNII>  (1) 
68717P8FUZ

>  <SYNONYMS>  (1) 
Cortisol 17-valerate; Hydrocortisone 17-valerate; Hydrocortisone valerate

$$$$
