
     RDKit          3D

 11 11  0  0  0  0  0  0  0  0999 V2000
    1.0885    0.0387    0.0035 C   0  0  0  0  0  0  0  0  0  0  0  0
    0.5873    0.0267    1.3362 O   0  0  0  0  0  0  0  0  0  0  0  0
    0.9271   -1.1413    1.9814 C   0  0  0  0  0  0  0  0  0  0  0  0
    2.2222   -1.5338    1.9407 N   0  0  0  0  0  0  0  0  0  0  0  0
    2.5037   -2.6657    2.6265 C   0  0  0  0  0  0  0  0  0  0  0  0
    1.5371   -3.3843    3.3072 C   0  0  0  0  0  0  0  0  0  0  0  0
    0.2491   -2.9863    3.3649 N   0  0  0  0  0  0  0  0  0  0  0  0
   -0.0511   -1.8301    2.7055 C   0  0  0  0  0  0  0  0  0  0  0  0
   -1.4858   -1.3542    2.7608 C   0  0  0  0  0  0  0  0  0  0  0  0
   -2.4055   -2.3667    2.0785 C   0  0  0  0  0  0  0  0  0  0  0  0
   -1.9216   -1.1157    4.2068 C   0  0  0  0  0  0  0  0  0  0  0  0
  1  2  1  0
  2  3  1  0
  3  4  2  0
  3  8  1  0
  4  5  1  0
  5  6  2  0
  6  7  1  0
  7  8  2  0
  8  9  1  0
  9 10  1  0
  9 11  1  0
M  END
>  <DRUGBANK_ID>  (1) 
DB01760

>  <SECONDARY_ACCESSION_NUMBERS>  (1) 
EXPT01926

>  <COMMON_NAME>  (1) 
2-Methoxy-3-Isopropylpyrazine

>  <CAS_NUMBER>  (1) 
25773-40-4

>  <UNII>  (1) 
1FL7L111A6

$$$$
