
     RDKit          3D

 27 29  0  0  0  0  0  0  0  0999 V2000
    0.4198   -0.9093   -0.8537 O   0  0  0  0  0  0  0  0  0  0  0  0
   -0.2246    0.7038   -1.6238 C   0  0  0  0  0  0  0  0  0  0  0  0
    0.7811    2.4071   -0.8373 C   0  0  0  0  0  0  0  0  0  0  0  0
    2.4390    2.3753   -0.4096 O   0  0  0  0  0  0  0  0  0  0  0  0
    2.8885    1.4469    0.6049 N   0  0  0  0  0  0  0  0  0  0  0  0
    2.1472    0.6935    1.4797 C   0  0  0  0  0  0  0  0  0  0  0  0
    2.5605   -0.2164    2.1828 O   0  0  0  0  0  0  0  0  0  0  0  0
    0.7432    0.8094    1.4131 C   0  0  0  0  0  0  0  0  0  0  0  0
    0.2753    0.7613    0.1965 C   0  0  0  0  0  0  0  0  0  0  0  0
    1.5571    0.6552   -1.3300 N   0  0  0  0  0  0  0  0  0  0  0  0
    1.1509    1.0715   -3.1225 C   0  0  0  0  0  0  0  0  0  0  0  0
    0.0392    2.1473   -3.5435 C   0  0  0  0  0  0  0  0  0  0  0  0
   -0.8477    3.4591   -2.6410 Cl  0  0  0  0  0  0  0  0  0  0  0  0
   -0.7923    2.0080   -4.7011 C   0  0  0  0  0  0  0  0  0  0  0  0
   -0.9238    0.8072   -5.3761 C   0  0  0  0  0  0  0  0  0  0  0  0
   -1.6847    0.8452   -7.1143 Br  0  0  0  0  0  0  0  0  0  0  0  0
   -0.3051   -0.3356   -4.8814 C   0  0  0  0  0  0  0  0  0  0  0  0
    0.8130   -0.2037   -3.9255 C   0  0  0  0  0  0  0  0  0  0  0  0
   -1.4964    0.8787   -0.0864 C   0  0  0  0  0  0  0  0  0  0  0  0
   -2.2969    0.9725   -1.2264 F   0  0  0  0  0  0  0  0  0  0  0  0
   -2.3702    1.0598    0.8896 C   0  0  0  0  0  0  0  0  0  0  0  0
   -1.7316    1.0356    2.0789 C   0  0  0  0  0  0  0  0  0  0  0  0
   -2.8221    1.1785    2.8710 N   0  0  0  0  0  0  0  0  0  0  0  0
   -2.6855    1.1681    4.2827 C   0  0  0  0  0  0  0  0  0  0  0  0
   -3.9700    1.3286    2.1443 C   0  0  0  0  0  0  0  0  0  0  0  0
   -3.7154    1.2877    0.8696 N   0  0  0  0  0  0  0  0  0  0  0  0
   -0.2959    0.8737    2.3412 C   0  0  0  0  0  0  0  0  0  0  0  0
  1  2  1  0
  2  3  1  0
  3  4  1  0
  4  5  1  0
  5  6  1  0
  6  7  2  0
  6  8  1  0
  8  9  2  0
  8 27  1  0
  9 10  1  0
  9 19  1  0
 10 11  1  0
 11 12  2  0
 11 18  1  0
 12 13  1  0
 12 14  1  0
 14 15  2  0
 15 16  1  0
 15 17  1  0
 17 18  2  0
 19 20  1  0
 19 21  2  0
 21 22  1  0
 21 26  1  0
 22 23  1  0
 22 27  2  0
 23 24  1  0
 23 25  1  0
 25 26  2  0
M  END
>  <DRUGBANK_ID>  (1) 
DB11689

>  <COMMON_NAME>  (1) 
Selumetinib

>  <CAS_NUMBER>  (1) 
606143-52-6

>  <UNII>  (1) 
6UH91I579U

>  <SYNONYMS>  (1) 
Selumetinib; Sélumétinib; Selumetinibum

$$$$
