
     RDKit          3D

 34 38  0  0  1  0  0  0  0  0999 V2000
    1.0107    0.0681    0.1500 N   0  0  0  0  0  0  0  0  0  0  0  0
    0.2511    1.1876   -0.1748 C   0  0  0  0  0  0  0  0  0  0  0  0
    0.6391    1.9625   -1.2094 N   0  0  0  0  0  0  0  0  0  0  0  0
   -0.0701    3.1077   -1.4575 C   0  0  0  0  0  0  0  0  0  0  0  0
   -1.1583    3.5538   -0.7159 C   0  0  0  0  0  0  0  0  0  0  0  0
   -1.5422    2.7479    0.3234 C   0  0  0  0  0  0  0  0  0  0  0  0
   -2.5862    2.8600    1.2650 N   0  0  0  0  0  0  0  0  0  0  0  0
   -3.6419    3.8330    1.4598 C   0  0  2  0  0  0  0  0  0  0  0  0
   -4.4876    4.2017    0.2300 C   0  0  0  0  0  0  0  0  0  0  0  0
   -4.2036    5.5809   -0.3461 C   0  0  0  0  0  0  0  0  0  0  0  0
   -4.1481    6.6032    0.7709 C   0  0  0  0  0  0  0  0  0  0  0  0
   -3.0550    6.2754    1.6682 N   0  0  0  0  0  0  0  0  0  0  0  0
   -3.3204    5.0281    2.3973 C   0  0  0  0  0  0  0  0  0  0  0  0
   -1.9019    6.9900    1.9328 C   0  0  0  0  0  0  0  0  0  0  0  0
   -1.0865    6.6104    2.7796 O   0  0  0  0  0  0  0  0  0  0  0  0
   -1.5437    8.2657    1.2191 C   0  0  0  0  0  0  0  0  0  0  0  0
   -2.1096    8.9745    0.2340 C   0  0  0  0  0  0  0  0  0  0  0  0
   -2.5257    1.7318    2.1327 C   0  0  0  0  0  0  0  0  0  0  0  0
   -3.2722    1.5064    3.0615 O   0  0  0  0  0  0  0  0  0  0  0  0
   -1.4429    0.9491    1.6950 N   0  0  0  0  0  0  0  0  0  0  0  0
   -1.0995   -0.2663    2.2867 C   0  0  0  0  0  0  0  0  0  0  0  0
   -2.0525   -1.2815    2.3092 C   0  0  0  0  0  0  0  0  0  0  0  0
   -1.8222   -2.4424    3.0382 C   0  0  0  0  0  0  0  0  0  0  0  0
   -0.7009   -2.5552    3.8647 C   0  0  0  0  0  0  0  0  0  0  0  0
   -0.4186   -3.6678    4.6431 O   0  0  0  0  0  0  0  0  0  0  0  0
   -1.1800   -4.8020    4.4376 C   0  0  0  0  0  0  0  0  0  0  0  0
   -1.2390   -5.4485    3.1971 C   0  0  0  0  0  0  0  0  0  0  0  0
   -2.1072   -6.5266    3.0133 C   0  0  0  0  0  0  0  0  0  0  0  0
   -2.9867   -6.8878    4.0324 C   0  0  0  0  0  0  0  0  0  0  0  0
   -2.9366   -6.2270    5.2594 C   0  0  0  0  0  0  0  0  0  0  0  0
   -1.9476   -5.2721    5.5002 C   0  0  0  0  0  0  0  0  0  0  0  0
    0.1973   -1.4837    3.9250 C   0  0  0  0  0  0  0  0  0  0  0  0
    0.0658   -0.3996    3.0446 C   0  0  0  0  0  0  0  0  0  0  0  0
   -0.8380    1.5594    0.5921 C   0  0  0  0  0  0  0  0  0  0  0  0
  1  2  1  0
  2  3  2  0
  2 34  1  0
  3  4  1  0
  4  5  2  0
  5  6  1  0
  6  7  1  0
  6 34  2  0
  7 18  1  0
  8  7  1  6
  8  9  1  0
  8 13  1  0
  9 10  1  0
 10 11  1  0
 11 12  1  0
 12 13  1  0
 12 14  1  0
 14 15  2  0
 14 16  1  0
 16 17  2  0
 18 19  2  0
 18 20  1  0
 20 21  1  0
 20 34  1  0
 21 22  2  0
 21 33  1  0
 22 23  1  0
 23 24  2  0
 24 25  1  0
 24 32  1  0
 25 26  1  0
 26 27  2  0
 26 31  1  0
 27 28  1  0
 28 29  2  0
 29 30  1  0
 30 31  2  0
 32 33  2  0
M  END
>  <DRUGBANK_ID>  (1) 
DB18715

>  <COMMON_NAME>  (1) 
Tolebrutinib

>  <CAS_NUMBER>  (1) 
1971920-73-6

>  <UNII>  (1) 
8CZ82ZYY9X

>  <SYNONYMS>  (1) 
2h-imidazo(4,5-c)pyridin-2-one, 4-amino-1,3-dihydro-1-((3r)-1-(1-oxo-2-propen-1-yl)-3-piperidinyl)-3-(4-phenoxyphenyl)-; 4-amino-1,3-dihydro-1-((3r)-1-(1-oxo-2-propen-1-yl)-3-piperidinyl)-3-(4-phenoxyphenyl)-2h-imidazo(4,5-c)pyridin-2-one

$$$$
