
     RDKit          3D

  9  6  0  0  0  0  0  0  0  0999 V2000
    0.2709    0.2739   -1.3336 C   0  0  0  0  0  0  0  0  0  0  0  0
   -0.3588    1.5959   -1.0420 C   0  0  0  0  0  0  0  0  0  0  0  0
   -0.4875   -0.6475   -0.7836 O   0  0  0  0  0  0  0  0  0  0  0  0
    1.3872    0.2329   -1.8039 O   0  0  0  0  0  0  0  0  0  0  0  0
    2.0948   -0.0931    1.0243 C   0  0  0  0  0  0  0  0  0  0  0  0
    1.1060    0.9733    1.5832 C   0  0  0  0  0  0  0  0  0  0  0  0
    1.3916   -1.1774    0.8214 O   0  0  0  0  0  0  0  0  0  0  0  0
    3.2954    0.1537    1.1547 O   0  0  0  0  0  0  0  0  0  0  0  0
   -0.5748   -0.9742    0.8422 Mg  0  0  0  0  0 15  0  0  0  0  0  0
  1  2  1  0
  1  3  2  0
  1  4  1  0
  5  6  1  0
  5  7  2  0
  5  8  1  0
M  CHG  3   4  -1   8  -1   9   2
M  END
>  <DRUGBANK_ID>  (1) 
DB13996

>  <SECONDARY_ACCESSION_NUMBERS>  (1) 
DBSALT001426

>  <COMMON_NAME>  (1) 
Magnesium acetate

>  <CAS_NUMBER>  (1) 
142-72-3

>  <UNII>  (1) 
0E95JZY48K

>  <SYNONYMS>  (1) 
acetato de magnesio; acetic acid magnesium salt; Acetic acid, magnesium salt (2:1); Magnesium di(acetate); magnesium diacetate; Mg(II) acetate

$$$$
