EPJ
     RDKit          3D

 14 16  0  0  0  0  0  0  0  0999 V2000
   -1.2244    0.8368    0.5185 C   0  0  1  0  0  0  0  0  0  0  0  0
   -1.2873   -0.7118    0.4989 C   0  0  0  0  0  0  0  0  0  0  0  0
   -0.0273   -1.0990   -0.2841 C   0  0  2  0  0  0  0  0  0  0  0  0
    1.2309   -0.8267    0.5444 C   0  0  0  0  0  0  0  0  0  0  0  0
    1.3011    0.7002    0.5554 C   0  0  0  0  0  0  0  0  0  0  0  0
    0.0795    1.0967   -0.2756 C   0  0  1  0  0  0  0  0  0  0  0  0
    0.0235    0.0005   -1.2629 N   0  0  0  0  0  0  0  0  0  0  0  0
   -2.4824    1.4815   -0.0322 C   0  0  0  0  0  0  0  0  0  0  0  0
   -3.7185    1.2541    0.5846 C   0  0  0  0  0  0  0  0  0  0  0  0
   -4.8693    1.8623    0.0869 C   0  0  0  0  0  0  0  0  0  0  0  0
   -4.7389    2.6942   -1.0112 C   0  0  0  0  0  0  0  0  0  0  0  0
   -6.0997    3.4889   -1.6856 Cl  0  0  0  0  0  0  0  0  0  0  0  0
   -3.5784    2.9525   -1.6339 N   0  0  0  0  0  0  0  0  0  0  0  0
   -2.4830    2.3339   -1.1381 C   0  0  0  0  0  0  0  0  0  0  0  0
  1  2  1  0
  1  6  1  0
  1  8  1  6
  3  2  1  1
  3  4  1  0
  3  7  1  0
  4  5  1  0
  6  5  1  1
  6  7  1  0
  8  9  2  0
  8 14  1  0
  9 10  1  0
 10 11  2  0
 11 12  1  0
 11 13  1  0
 13 14  2  0
M  END
>  <DRUGBANK_ID>  (1) 
DB07720

>  <COMMON_NAME>  (1) 
Epibatidine

>  <CAS_NUMBER>  (1) 
140111-52-0

>  <UNII>  (1) 
M6K314F1XX

>  <SYNONYMS>  (1) 
(+)-epibatidine; (1R,2R,4S)-epibatidine

$$$$
