791
     RDKit          3D

 15 15  0  0  0  0  0  0  0  0999 V2000
    1.2234    0.9804   -0.2649 Cl  0  0  0  0  0  0  0  0  0  0  0  0
    2.4287   -3.0901    5.2489 Cl  0  0  0  0  0  0  0  0  0  0  0  0
    0.7071   -1.9483    0.2615 O   0  0  0  0  0  0  0  0  0  0  0  0
   -2.6937   -1.9743    3.0181 O   0  0  0  0  0  0  0  0  0  0  0  0
    2.6410   -1.0002    2.3151 N   0  0  0  0  0  0  0  0  0  0  0  0
   -1.0141   -1.3514    1.6097 N   0  0  0  0  0  0  0  0  0  0  0  0
   -0.6437   -1.5204    3.8707 N   0  0  0  0  0  0  0  0  0  0  0  0
    3.1834    0.1183    1.4934 C   0  0  0  0  0  0  0  0  0  0  0  0
    3.6285   -1.9038    2.9885 C   0  0  0  0  0  0  0  0  0  0  0  0
    1.2590   -1.1771    2.4929 C   0  0  0  0  0  0  0  0  0  0  0  0
    2.7819    0.1393    0.0117 C   0  0  0  0  0  0  0  0  0  0  0  0
    3.6106   -1.9444    4.5330 C   0  0  0  0  0  0  0  0  0  0  0  0
    0.3212   -1.5237    1.3456 C   0  0  0  0  0  0  0  0  0  0  0  0
    0.6534   -1.1509    3.6862 C   0  0  0  0  0  0  0  0  0  0  0  0
   -1.5244   -1.6332    2.8396 C   0  0  0  0  0  0  0  0  0  0  0  0
  1 11  1  0
  2 12  1  0
  3 13  2  0
  4 15  2  0
  5  8  1  0
  5  9  1  0
  5 10  1  0
  6 13  1  0
  6 15  1  0
  7 14  1  0
  7 15  1  0
  8 11  1  0
  9 12  1  0
 10 13  1  0
 10 14  2  0
M  END
>  <DRUGBANK_ID>  (1) 
DB00791

>  <SECONDARY_ACCESSION_NUMBERS>  (1) 
APRD00130

>  <COMMON_NAME>  (1) 
Uracil mustard

>  <CAS_NUMBER>  (1) 
66-75-1

>  <UNII>  (1) 
W7KQ46GJ8U

>  <SYNONYMS>  (1) 
5-(di-2-chloroethyl)aminouracil; 5-[bis(2-chloroethyl)amino]-2,4(1H,3H)-pyrimidinedione; 5-[bis(2-chloroethyl)amino]uracil; 5-[di(Î²-chloroethyl)amino]uracil; 5-aminouracil mustard; 5-N,N-bis(2-chloroethyl)aminouracil; Aminouracil mustard; Uracil mustard; Uracil nitrogen mustard; Uramustina; Uramustine; Uramustinum

$$$$
