
     RDKit          3D

 10 11  0  0  0  0  0  0  0  0999 V2000
    0.0184    0.8703   -0.1492 C   0  0  1  0  0  0  0  0  0  0  0  0
   -0.0339    2.0111    0.8435 C   0  0  0  0  0  0  0  0  0  0  0  0
    0.7940   -0.3864    0.1897 C   0  0  1  0  0  0  0  0  0  0  0  0
   -0.6841   -0.4554   -0.0358 C   0  0  0  0  0  0  0  0  0  0  0  0
    1.1101    2.8144    1.0060 C   0  0  0  0  0  0  0  0  0  0  0  0
   -1.2153    2.4558    1.4671 C   0  0  0  0  0  0  0  0  0  0  0  0
    1.7034   -0.9161   -0.8371 N   0  0  0  0  0  0  0  0  0  0  0  0
    1.0775    4.0315    1.6915 C   0  0  0  0  0  0  0  0  0  0  0  0
   -1.2582    3.6915    2.1338 C   0  0  0  0  0  0  0  0  0  0  0  0
   -0.1184    4.4788    2.2438 C   0  0  0  0  0  0  0  0  0  0  0  0
  1  2  1  1
  1  3  1  0
  1  4  1  0
  2  5  2  0
  2  6  1  0
  3  7  1  6
  3  4  1  0
  5  8  1  0
  6  9  2  0
  8 10  2  0
  9 10  1  0
M  CHG  1   7   1
M  END
>  <DRUGBANK_ID>  (1) 
DB02665

>  <SECONDARY_ACCESSION_NUMBERS>  (1) 
EXPT03088

>  <COMMON_NAME>  (1) 
(1R,2S)-2-Phenylcyclopropanaminium

>  <CAS_NUMBER>  (1) 
1986-47-6

>  <UNII>  (1) 
7H4CZX4FYH

>  <SYNONYMS>  (1) 
(1R,2S)-tranylcypromine(1+)

$$$$
