AT2
     RDKit          3D

 19 20  0  0  0  0  0  0  0  0999 V2000
   -2.5003   -0.0571   -0.0848 C   0  0  0  0  0  0  0  0  0  0  0  0
   -1.0065   -0.1094   -0.1824 C   0  0  0  0  0  0  0  0  0  0  0  0
   -0.2682   -1.2555    0.0339 C   0  0  0  0  0  0  0  0  0  0  0  0
    1.1170   -1.1357    0.0205 C   0  0  0  0  0  0  0  0  0  0  0  0
    1.0615    1.1512   -0.3680 C   0  0  0  0  0  0  0  0  0  0  0  0
   -0.3042    1.0478   -0.5066 C   0  0  0  0  0  0  0  0  0  0  0  0
    1.1064    3.6284    0.1936 C   0  0  0  0  0  0  0  0  0  0  0  0
    0.5077    3.2591    1.5544 C   0  0  0  0  0  0  0  0  0  0  0  0
   -1.0201    3.1405    1.5611 C   0  0  0  0  0  0  0  0  0  0  0  0
    1.7960    0.0493   -0.1068 N   0  0  0  0  0  0  0  0  0  0  0  0
    1.6542    2.4263   -0.5307 N   0  0  0  0  0  0  0  0  0  0  0  0
   -1.6448    4.3209    1.0163 N   0  0  0  0  0  0  0  0  0  0  0  0
   -1.2587    4.6652   -0.3544 C   0  0  0  0  0  0  0  0  0  0  0  0
    0.2681    4.7652   -0.4628 C   0  0  0  0  0  0  0  0  0  0  0  0
   -2.6131    4.9173    1.8105 C   0  0  0  0  0  0  0  0  0  0  0  0
   -2.8953    4.4999    2.9165 O   0  0  0  0  0  0  0  0  0  0  0  0
   -3.1930    6.0176    1.2494 O   0  0  0  0  0  0  0  0  0  0  0  0
   -4.1364    6.6910    2.1093 C   0  0  0  0  0  0  0  0  0  0  0  0
   -5.3906    5.8629    2.3563 C   0  0  0  0  0  0  0  0  0  0  0  0
  1  2  1  0
  2  3  2  0
  2  6  1  0
  3  4  1  0
  4 10  2  0
  5  6  2  0
  5 10  1  0
  5 11  1  0
  7  8  1  0
  7 11  1  0
  7 14  1  0
  8  9  1  0
  9 12  1  0
 12 13  1  0
 12 15  1  0
 13 14  1  0
 15 16  2  0
 15 17  1  0
 17 18  1  0
 18 19  1  0
M  END
>  <DRUGBANK_ID>  (1) 
DB07388

>  <COMMON_NAME>  (1) 
ETHYL 4-[(4-METHYLPYRIDIN-2-YL)AMINO]PIPERIDINE-1-CARBOXYLATE

$$$$
