
     RDKit          3D

 27 31  0  0  1  0  0  0  0  0999 V2000
    1.0009   -0.0630   -0.0038 C   0  0  0  0  0  0  0  0  0  0  0  0
    0.6586    1.2526   -0.6719 C   0  0  0  0  0  0  0  0  0  0  0  0
    1.6285    1.6127   -1.8182 C   0  0  2  0  0  0  0  0  0  0  0  0
    2.8782    2.2783   -1.2232 C   0  0  0  0  0  0  0  0  0  0  0  0
    3.4326    2.0205    0.1181 C   0  0  0  0  0  0  0  0  0  0  0  0
    3.8173    3.0718    0.8515 C   0  0  0  0  0  0  0  0  0  0  0  0
    3.8120    4.3227    0.2599 N   0  0  0  0  0  0  0  0  0  0  0  0
    3.5964    4.5675   -1.0796 C   0  0  0  0  0  0  0  0  0  0  0  0
    3.5705    5.6784   -1.5780 O   0  0  0  0  0  0  0  0  0  0  0  0
    3.2690    3.3686   -1.8969 C   0  0  0  0  0  0  0  0  0  0  0  0
    2.9090    3.5009   -3.3301 C   0  0  0  0  0  0  0  0  0  0  0  0
    1.4959    3.5228   -3.4733 O   0  0  0  0  0  0  0  0  0  0  0  0
    0.7867    2.5952   -2.7729 C   0  0  0  0  0  0  0  0  0  0  0  0
   -0.4317    2.5393   -2.9246 O   0  0  0  0  0  0  0  0  0  0  0  0
    4.0946    5.3712    1.2264 C   0  0  0  0  0  0  0  0  0  0  0  0
    4.3769    4.5990    2.4721 C   0  0  0  0  0  0  0  0  0  0  0  0
    4.2520    3.2319    2.2539 C   0  0  0  0  0  0  0  0  0  0  0  0
    4.4253    2.2919    3.2006 N   0  0  0  0  0  0  0  0  0  0  0  0
    4.7522    2.7478    4.4451 C   0  0  0  0  0  0  0  0  0  0  0  0
    4.9648    1.8618    5.5007 C   0  0  0  0  0  0  0  0  0  0  0  0
    5.2992    2.2991    6.7939 C   0  0  0  0  0  0  0  0  0  0  0  0
    5.4250    3.6538    7.0566 C   0  0  0  0  0  0  0  0  0  0  0  0
    5.2209    4.5784    6.0441 C   0  0  0  0  0  0  0  0  0  0  0  0
    4.8908    4.1360    4.7484 C   0  0  0  0  0  0  0  0  0  0  0  0
    4.6919    5.0686    3.7283 C   0  0  0  0  0  0  0  0  0  0  0  0
    5.7528    4.0344    8.3234 O   0  0  0  0  0  0  0  0  0  0  0  0
    2.0723    0.4724   -2.5438 O   0  0  0  0  0  0  0  0  0  0  0  0
  1  2  1  0
  3  2  1  0
  3  4  1  0
  3 13  1  0
  3 27  1  6
  4  5  1  0
  4 10  2  0
  5  6  2  0
  6  7  1  0
  6 17  1  0
  7  8  1  0
  7 15  1  0
  8  9  2  0
  8 10  1  0
 10 11  1  0
 11 12  1  0
 12 13  1  0
 13 14  2  0
 15 16  1  0
 16 17  2  0
 16 25  1  0
 17 18  1  0
 18 19  2  0
 19 20  1  0
 19 24  1  0
 20 21  2  0
 21 22  1  0
 22 23  2  0
 22 26  1  0
 23 24  1  0
 24 25  2  0
M  END
>  <DRUGBANK_ID>  (1) 
DB12385

>  <COMMON_NAME>  (1) 
10-hydroxycamptothecin

>  <CAS_NUMBER>  (1) 
19685-09-7

>  <UNII>  (1) 
9Z01632KRV

$$$$
