
     RDKit          3D

 30 35  0  0  0  0  0  0  0  0999 V2000
    0.9819    0.0699    0.0975 C   0  0  0  0  0  0  0  0  0  0  0  0
    0.5126   -0.5535    1.3761 C   0  0  0  0  0  0  0  0  0  0  0  0
    0.6109   -1.8930    1.7098 C   0  0  0  0  0  0  0  0  0  0  0  0
    0.1838   -2.0537    3.0332 N   0  0  0  0  0  0  0  0  0  0  0  0
    0.0938   -3.2505    3.9183 N   0  0  0  0  0  0  0  0  0  0  0  0
   -0.3601   -3.0271    5.1536 C   0  0  0  0  0  0  0  0  0  0  0  0
   -0.7392   -1.6927    5.5277 C   0  0  0  0  0  0  0  0  0  0  0  0
   -0.6556   -0.6325    4.7531 C   0  0  0  0  0  0  0  0  0  0  0  0
   -1.0788    0.6699    5.3225 C   0  0  0  0  0  0  0  0  0  0  0  0
   -0.1736   -0.7745    3.4254 C   0  0  0  0  0  0  0  0  0  0  0  0
    0.0052    0.1281    2.4603 N   0  0  0  0  0  0  0  0  0  0  0  0
   -0.7935   -3.5704    6.7250 C   0  0  0  0  0  0  0  0  0  0  0  0
   -1.2953   -3.1398    8.0772 C   0  0  0  0  0  0  0  0  0  0  0  0
   -1.7386   -3.8330    9.6880 C   0  0  0  0  0  0  0  0  0  0  0  0
   -2.1647   -3.5314   10.8154 O   0  0  0  0  0  0  0  0  0  0  0  0
   -1.4389   -5.1495    9.4053 N   0  0  0  0  0  0  0  0  0  0  0  0
   -1.5601   -6.1786   10.2324 C   0  0  0  0  0  0  0  0  0  0  0  0
   -0.9837   -7.3478    9.9405 C   0  0  0  0  0  0  0  0  0  0  0  0
   -0.2687   -7.4235    8.6707 C   0  0  0  0  0  0  0  0  0  0  0  0
   -0.6116   -6.6457    7.6655 C   0  0  0  0  0  0  0  0  0  0  0  0
   -1.0025   -5.4667    8.2097 C   0  0  0  0  0  0  0  0  0  0  0  0
   -0.8974   -4.4825    7.4648 N   0  0  0  0  0  0  0  0  0  0  0  0
   -1.0843   -8.4656   10.7638 N   0  0  0  0  0  0  0  0  0  0  0  0
   -2.3654   -9.0669   11.1746 C   0  0  0  0  0  0  0  0  0  0  0  0
   -2.5719   -8.9432   12.6745 C   0  0  0  0  0  0  0  0  0  0  0  0
   -1.5097   -9.6796   13.4067 N   0  0  0  0  0  0  0  0  0  0  0  0
   -0.1491   -9.1908   12.9533 C   0  0  0  0  0  0  0  0  0  0  0  0
    1.0873   -9.4946   13.8059 C   0  0  0  0  0  0  0  0  0  0  0  0
    0.5051   -8.0957   13.7977 C   0  0  0  0  0  0  0  0  0  0  0  0
    0.0481   -9.1617   11.4173 C   0  0  0  0  0  0  0  0  0  0  0  0
  1  2  1  0
  2  3  2  0
  2 11  1  0
  3  4  1  0
  4  5  1  0
  4 10  1  0
  5  6  2  0
  6  7  1  0
  6 12  1  0
  7  8  2  0
  8  9  1  0
  8 10  1  0
 10 11  2  0
 12 13  2  0
 12 22  1  0
 13 14  1  0
 14 15  2  0
 14 16  1  0
 16 17  1  0
 16 21  1  0
 17 18  2  0
 18 19  1  0
 18 23  1  0
 19 20  2  0
 20 21  1  0
 21 22  2  0
 23 24  1  0
 23 30  1  0
 24 25  1  0
 25 26  1  0
 26 27  1  0
 27 28  1  0
 27 29  1  0
 27 30  1  0
 28 29  1  0
M  END
>  <DRUGBANK_ID>  (1) 
DB15305

>  <COMMON_NAME>  (1) 
Risdiplam

>  <CAS_NUMBER>  (1) 
1825352-65-5

>  <UNII>  (1) 
76RS4S2ET1

>  <SYNONYMS>  (1) 
Risdiplam; Risdiplamum

$$$$
