1181
     RDKit          3D

 14 14  0  0  1  0  0  0  0  0999 V2000
    0.8620    0.1697    0.0013 Cl  0  0  0  0  0  0  0  0  0  0  0  0
    6.5114   -4.3784    2.4231 Cl  0  0  0  0  0  0  0  0  0  0  0  0
    3.3877   -3.9516   -0.1300 P   0  0  0  0  0  0  0  0  0  0  0  0
    2.9237   -4.8882   -1.3659 O   0  0  0  0  0  0  0  0  0  0  0  0
    2.8656   -4.4418    1.1702 O   0  0  0  0  0  0  0  0  0  0  0  0
    2.9434   -2.4276   -0.6048 N   0  0  0  0  0  0  0  0  0  0  0  0
    5.0261   -3.9578   -0.2936 N   0  0  0  0  0  0  0  0  0  0  0  0
    3.4940   -2.0796   -1.9192 C   0  0  0  0  0  0  0  0  0  0  0  0
    3.1861   -3.1315   -2.9968 C   0  0  0  0  0  0  0  0  0  0  0  0
    3.5287   -4.5640   -2.6035 C   0  0  0  0  0  0  0  0  0  0  0  0
    3.0721   -1.3665    0.4189 C   0  0  0  0  0  0  0  0  0  0  0  0
    5.8669   -2.9158    0.2627 C   0  0  0  0  0  0  0  0  0  0  0  0
    2.6212    0.0484    0.0753 C   0  0  0  0  0  0  0  0  0  0  0  0
    5.7541   -2.9093    1.7780 C   0  0  0  0  0  0  0  0  0  0  0  0
  1 13  1  0
  2 14  1  0
  3  4  1  0
  3  5  2  0
  3  6  1  0
  3  7  1  0
  4 10  1  0
  6  8  1  0
  6 11  1  0
  7 12  1  0
  8  9  1  0
  9 10  1  0
 11 13  1  0
 12 14  1  0
M  END
>  <DRUGBANK_ID>  (1) 
DB01181

>  <SECONDARY_ACCESSION_NUMBERS>  (1) 
APRD00007

>  <COMMON_NAME>  (1) 
Ifosfamide

>  <CAS_NUMBER>  (1) 
3778-73-2

>  <UNII>  (1) 
UM20QQM95Y

>  <SYNONYMS>  (1) 
3-(2-chloroethyl)-2-((2-chloroethyl)amino)tetrahydro-2H-1,3,2-oxazaphosphorine 2-oxide; Ifosfamida; Ifosfamide; Ifosfamidum; Iphosphamide; Isofosfamide; Isophosphamide; Isosfamide

$$$$
