
     RDKit          3D

 23 24  0  0  0  0  0  0  0  0999 V2000
   -1.2227    1.2870   -0.0017 C   0  0  0  0  0  0  0  0  0  0  0  0
   -2.2252    2.4684    0.0003 C   0  0  0  0  0  0  0  0  0  0  0  0
   -1.9073    0.0275    0.0026 C   0  0  0  0  0  0  0  0  0  0  0  0
   -1.2395   -1.2111    0.0036 C   0  0  0  0  0  0  0  0  0  0  0  0
   -1.7191    7.3088    0.8729 N   0  0  0  0  0  0  0  0  0  0  0  0
   -1.7615    3.7362    0.0422 N   0  0  0  0  0  0  0  0  0  0  0  0
    0.2194    1.2230    0.0008 C   0  0  0  0  0  0  0  0  0  0  0  0
   -1.8607    5.8648    1.1431 C   0  0  2  0  0  0  0  0  0  0  0  0
   -3.4273    2.2983   -0.0237 O   0  0  0  0  0  0  0  0  0  0  0  0
   -2.3654    5.0042   -0.0464 C   0  0  0  0  0  0  0  0  0  0  0  0
    0.1498   -1.2275    0.0180 C   0  0  0  0  0  0  0  0  0  0  0  0
    0.8598   -0.0433    0.0088 C   0  0  0  0  0  0  0  0  0  0  0  0
   -1.9440    8.0034    2.1529 C   0  0  0  0  0  0  0  0  0  0  0  0
    1.2381    2.1548    0.0013 O   0  0  0  0  0  0  0  0  0  0  0  0
   -2.6266    7.7799   -0.1837 C   0  0  0  0  0  0  0  0  0  0  0  0
   -2.5552    6.9975    3.1248 C   0  0  0  0  0  0  0  0  0  0  0  0
   -2.8022    5.7385    2.3256 C   0  0  0  0  0  0  0  0  0  0  0  0
    0.9211    3.4927   -0.0055 C   0  0  0  0  0  0  0  0  0  0  0  0
   -4.1025    7.4835    0.0809 C   0  0  0  0  0  0  0  0  0  0  0  0
   -3.2833   -0.0880    0.0062 O   0  0  0  0  0  0  0  0  0  0  0  0
   -1.9701   -2.5328   -0.0159 C   0  0  0  0  0  0  0  0  0  0  0  0
   -1.6180   -3.3412   -1.2580 C   0  0  0  0  0  0  0  0  0  0  0  0
    2.6007   -0.1948    0.0040 Cl  0  0  0  0  0  0  0  0  0  0  0  0
  1  7  1  0
  1  3  2  0
  2  1  1  0
  3 20  1  0
  3  4  1  0
  4 21  1  0
  6  2  1  0
  7 12  2  0
  8  5  1  0
  8 10  1  6
  8 17  1  0
  9  2  2  0
 10  6  1  0
 11  4  2  0
 12 11  1  0
 12 23  1  0
 13  5  1  0
 13 16  1  0
 14  7  1  0
 15  5  1  0
 16 17  1  0
 18 14  1  0
 19 15  1  0
 21 22  1  0
M  END
>  <DRUGBANK_ID>  (1) 
DB15492

>  <COMMON_NAME>  (1) 
Eticlopride

>  <CAS_NUMBER>  (1) 
84226-12-0

>  <UNII>  (1) 
J8M468HBH4

>  <SYNONYMS>  (1) 
Eticloprida; Eticlopride; Eticlopridum

$$$$
