
     RDKit          3D

 40 42  0  0  1  0  0  0  0  0999 V2000
   -0.5720    1.4474   -4.3752 C   0  0  1  0  0  0  0  0  0  0  0  0
   -0.8481    2.1949   -3.1141 C   0  0  1  0  0  0  0  0  0  0  0  0
    1.9419    0.9830   -4.2362 O   0  0  0  0  0  0  0  0  0  0  0  0
    0.6390    0.4400   -4.2930 C   0  0  1  0  0  0  0  0  0  0  0  0
    0.5009    2.6578   -2.6220 C   0  0  2  0  0  0  0  0  0  0  0  0
    2.1706    1.6891   -3.0291 C   0  0  2  0  0  0  0  0  0  0  0  0
   -0.1334   -1.7858   -0.0219 C   0  0  2  0  0  0  0  0  0  0  0  0
   -0.8053   -2.7723    0.8656 C   0  0  0  0  0  0  0  0  0  0  0  0
   -1.1205   -0.7899   -0.2183 O   0  0  0  0  0  0  0  0  0  0  0  0
   -0.7484   -0.0309   -1.3346 C   0  0  2  0  0  0  0  0  0  0  0  0
    0.4202   -0.6938   -2.0644 C   0  0  2  0  0  0  0  0  0  0  0  0
   -0.5174    1.3529   -0.8882 O   0  0  0  0  0  0  0  0  0  0  0  0
    1.9236    1.0476    1.8425 C   0  0  1  0  0  0  0  0  0  0  0  0
    1.8565   -0.1019    2.6920 O   0  0  0  0  0  0  0  0  0  0  0  0
    0.5615    1.9718   -0.0943 C   0  0  2  0  0  0  0  0  0  0  0  0
    3.3728    2.2053    0.1381 C   0  0  1  0  0  0  0  0  0  0  0  0
    4.6130    1.7568   -0.4537 O   0  0  0  0  0  0  0  0  0  0  0  0
    2.1234    2.4719   -0.8162 C   0  0  2  0  0  0  0  0  0  0  0  0
    3.1718    0.9753    1.0183 C   0  0  1  0  0  0  0  0  0  0  0  0
    0.7493    0.9732    0.9653 C   0  0  2  0  0  0  0  0  0  0  0  0
   -0.4334    0.8211    1.7346 O   0  0  0  0  0  0  0  0  0  0  0  0
    2.2768    3.8067   -2.1939 N   0  0  0  0  0  0  0  0  0  0  0  0
    1.6574    4.6791   -4.6080 N   0  0  0  0  0  0  0  0  0  0  0  0
    2.3633    3.7848   -3.9006 C   0  0  0  0  0  0  0  0  0  0  0  0
    2.8932    3.0633   -4.8674 N   0  0  0  0  0  0  0  0  0  0  0  0
    0.4378   -0.7384   -3.4936 O   0  0  0  0  0  0  0  0  0  0  0  0
    0.1714    3.8179   -1.5007 O   0  0  0  0  0  0  0  0  0  0  0  0
   -1.7796    3.3097   -3.1834 O   0  0  0  0  0  0  0  0  0  0  0  0
    3.9614    2.3917   -2.8062 C   0  0  0  0  0  0  0  0  0  0  0  0
    4.3826    3.4588   -1.7771 O   0  0  0  0  0  0  0  0  0  0  0  0
   -1.7193    0.0546   -5.8952 C   0  0  0  0  0  0  0  0  0  0  0  0
   -1.7919    0.6768   -4.6040 N   0  0  0  0  0  0  0  0  0  0  0  0
    4.2824    0.9093    1.9510 N   0  0  0  0  0  0  0  0  0  0  0  0
    6.3558    0.3485    2.4731 N   0  0  0  0  0  0  0  0  0  0  0  0
    5.2711    0.0197    1.7636 C   0  0  0  0  0  0  0  0  0  0  0  0
    5.1656   -1.0230    1.0158 N   0  0  0  0  0  0  0  0  0  0  0  0
    1.9170   -2.4876   -1.2362 C   0  0  0  0  0  0  0  0  0  0  0  0
    2.3222   -3.6673   -1.5156 O   0  0  0  0  0  0  0  0  0  0  0  0
    0.4606   -2.0776   -1.4011 C   0  0  1  0  0  0  0  0  0  0  0  0
   -0.3590   -2.9837   -2.1008 O   0  0  0  0  0  0  0  0  0  0  0  0
  1  4  1  0
  1 32  1  1
  2  1  1  0
  2 28  1  6
  3  4  1  0
  3  6  1  0
  4 26  1  1
  5  2  1  0
  5 27  1  1
  6  5  1  0
  6 29  1  6
  7 39  1  0
  7  8  1  6
  9  7  1  0
  9 10  1  0
 10 12  1  1
 11 10  1  0
 11 26  1  6
 13 14  1  1
 15 12  1  6
 15 20  1  0
 16 18  1  0
 16 17  1  6
 18 15  1  0
 18 22  1  1
 19 13  1  0
 19 16  1  0
 19 33  1  1
 20 13  1  0
 20 21  1  1
 22 24  1  0
 24 23  1  0
 24 25  2  0
 29 30  1  0
 32 31  1  0
 34 35  1  0
 35 33  1  0
 35 36  2  0
 37 38  2  0
 39 11  1  0
 39 37  1  0
 39 40  1  6
M  END
>  <DRUGBANK_ID>  (1) 
DB01082

>  <SECONDARY_ACCESSION_NUMBERS>  (1) 
APRD00412

>  <COMMON_NAME>  (1) 
Streptomycin

>  <CAS_NUMBER>  (1) 
57-92-1

>  <UNII>  (1) 
Y45QSO73OB

>  <SYNONYMS>  (1) 
2,4-diguanidino-3,5,6-trihydroxycyclohexyl 5-deoxy-2-O-(2-deoxy-2-methylamino-alpha-L-glucopyranosyl)-3-C-formyl-beta-L-lyxopentanofuranoside; Estreptomicina; Streptomicina; Streptomycin; Streptomyzin

$$$$
