
     RDKit          3D

 37 41  0  0  0  0  0  0  0  0999 V2000
   -3.9934   -3.8917    1.2178 N   0  0  0  0  0  0  0  0  0  0  0  0
   -3.2878   -3.2805    2.4359 C   0  0  0  0  0  0  0  0  0  0  0  0
   -2.1876   -2.2469    2.2642 C   0  0  0  0  0  0  0  0  0  0  0  0
   -2.9049   -0.6165    1.6538 C   0  0  2  0  0  0  0  0  0  0  0  0
   -2.6500    0.4840    2.5629 N   0  0  0  0  0  0  0  0  0  0  0  0
   -1.3199    0.6701    2.8259 C   0  0  0  0  0  0  0  0  0  0  0  0
   -0.6054    2.1816    2.9940 C   0  0  0  0  0  0  0  0  0  0  0  0
   -4.1495   -0.0808    0.6586 C   0  0  0  0  0  0  0  0  0  0  0  0
   -4.8353   -0.7866   -0.2677 C   0  0  0  0  0  0  0  0  0  0  0  0
   -6.1651   -0.9547   -0.0207 C   0  0  0  0  0  0  0  0  0  0  0  0
   -6.7183    0.0466   -0.4769 C   0  0  0  0  0  0  0  0  0  0  0  0
   -5.9401    1.2396   -0.3554 C   0  0  0  0  0  0  0  0  0  0  0  0
   -4.5549    1.1322    0.2170 C   0  0  0  0  0  0  0  0  0  0  0  0
   -1.4053    3.2978    2.3014 C   0  0  0  0  0  0  0  0  0  0  0  0
   -0.8576    3.9814    1.0168 C   0  0  0  0  0  0  0  0  0  0  0  0
    0.6872    4.1365    0.9802 C   0  0  0  0  0  0  0  0  0  0  0  0
    1.5629    3.0447    1.6005 C   0  0  0  0  0  0  0  0  0  0  0  0
    0.9836    2.6515    2.9670 C   0  0  0  0  0  0  0  0  0  0  0  0
   -0.7867   -0.3784    2.9107 O   0  0  0  0  0  0  0  0  0  0  0  0
   -2.9111   -2.2393   -0.4185 C   0  0  0  0  0  0  0  0  0  0  0  0
   -1.7341   -2.9173   -0.8935 C   0  0  2  0  0  0  0  0  0  0  0  0
   -4.2681   -2.8874    0.2289 C   0  0  1  0  0  0  0  0  0  0  0  0
   -1.9948   -4.3657   -0.2746 C   0  0  0  0  0  0  0  0  0  0  0  0
   -3.4497   -4.7783    0.2083 C   0  0  2  0  0  0  0  0  0  0  0  0
   -0.3688   -2.1897   -0.7662 N   0  0  0  0  0  0  0  0  0  0  0  0
    0.6434   -2.8076   -1.4741 C   0  0  0  0  0  0  0  0  0  0  0  0
    0.3551   -1.0315   -0.3110 C   0  0  0  0  0  0  0  0  0  0  0  0
    1.7995   -2.2164   -1.3698 N   0  0  0  0  0  0  0  0  0  0  0  0
    1.6044   -1.0797   -0.7269 N   0  0  0  0  0  0  0  0  0  0  0  0
    0.1900    0.1781    0.5277 C   0  0  0  0  0  0  0  0  0  0  0  0
    0.4278   -4.0129   -2.2507 C   0  0  0  0  0  0  0  0  0  0  0  0
    1.2000    0.0466    1.9847 C   0  0  0  0  0  0  0  0  0  0  0  0
    0.0703    1.4663   -0.3108 C   0  0  0  0  0  0  0  0  0  0  0  0
   -5.0448   -3.3525   -1.0286 C   0  0  0  0  0  0  0  0  0  0  0  0
   -4.4903   -4.7154   -1.0211 C   0  0  0  0  0  0  0  0  0  0  0  0
    1.0930    4.3762   -0.2939 F   0  0  0  0  0  0  0  0  0  0  0  0
    0.9723    5.2695    1.6846 F   0  0  0  0  0  0  0  0  0  0  0  0
  1  2  1  0
  1 22  1  0
  2  3  1  0
  4  8  1  0
  4  5  1  0
  4  3  1  1
  5  6  1  0
  6  7  1  0
  6 19  2  0
  7 14  1  0
  7 18  1  0
  8  9  2  0
  8 13  1  0
  9 10  1  0
 10 11  2  0
 11 12  1  0
 12 13  2  0
 14 15  1  0
 15 16  1  0
 16 17  1  0
 17 18  1  0
 21 20  1  0
 21 25  1  1
 22 20  1  6
 22 34  1  0
 23 21  1  0
 24 23  1  6
 24  1  1  0
 24 35  1  0
 26 25  1  0
 26 31  1  0
 27 25  1  0
 27 30  1  0
 28 26  2  0
 29 27  2  0
 29 28  1  0
 30 32  1  0
 30 33  1  0
 34 35  1  0
 36 16  1  0
 37 16  1  0
M  END
>  <DRUGBANK_ID>  (1) 
DB04835

>  <COMMON_NAME>  (1) 
Maraviroc

>  <CAS_NUMBER>  (1) 
376348-65-1

>  <UNII>  (1) 
MD6P741W8A

>  <SYNONYMS>  (1) 
Maraviroc; Maravirocum

$$$$
