
     RDKit          3D

 29 31  0  0  0  0  0  0  0  0999 V2000
    2.5361    1.0953    0.2416 C   0  0  0  0  0  0  0  0  0  0  0  0
    1.1803    0.4159    0.3033 C   0  0  0  0  0  0  0  0  0  0  0  0
    1.1563   -0.9674    0.5322 C   0  0  0  0  0  0  0  0  0  0  0  0
    0.0459   -1.7450    0.2362 C   0  0  0  0  0  0  0  0  0  0  0  0
    0.0256   -3.1143    0.1429 O   0  0  0  0  0  0  0  0  0  0  0  0
    1.2357   -3.8929   -0.0725 C   0  0  0  0  0  0  0  0  0  0  0  0
    1.9975   -3.5607   -1.6745 P   0  0  0  0  0  0  0  0  0  0  0  0
    0.7451   -3.4113   -2.6699 O   0  0  0  0  0  0  0  0  0  0  0  0
    2.5766   -2.0743   -1.5098 O   0  0  0  0  0  0  0  0  0  0  0  0
    3.0464   -4.4538   -2.2024 O   0  0  0  0  0  0  0  0  0  0  0  0
   -1.1671   -1.0768    0.0424 C   0  0  0  0  0  0  0  0  0  0  0  0
   -1.2387    0.3367    0.0374 C   0  0  0  0  0  0  0  0  0  0  0  0
   -2.5846    1.0141   -0.0228 C   0  0  0  0  0  0  0  0  0  0  0  0
   -0.0408    1.0888    0.0909 C   0  0  0  0  0  0  0  0  0  0  0  0
   -0.0179    2.5869   -0.1332 C   0  0  0  0  0  0  0  0  0  0  0  0
    0.6542    3.0097   -1.4275 C   0  0  0  0  0  0  0  0  0  0  0  0
    1.0578    2.1138   -2.4282 C   0  0  0  0  0  0  0  0  0  0  0  0
    1.8039    2.5430   -3.5208 C   0  0  0  0  0  0  0  0  0  0  0  0
    2.0226    3.9004   -3.7077 C   0  0  0  0  0  0  0  0  0  0  0  0
    2.7060    4.3277   -4.8095 O   0  0  0  0  0  0  0  0  0  0  0  0
    1.5613    4.8341   -2.7784 C   0  0  0  0  0  0  0  0  0  0  0  0
    1.6972    6.3183   -3.0234 C   0  0  0  0  0  0  0  0  0  0  0  0
    0.3764    7.0627   -3.0890 C   0  0  0  0  0  0  0  0  0  0  0  0
   -0.4489    7.1705   -1.9588 C   0  0  0  0  0  0  0  0  0  0  0  0
   -1.6564    7.8544   -1.9980 C   0  0  0  0  0  0  0  0  0  0  0  0
   -2.0190    8.5273   -3.1543 C   0  0  0  0  0  0  0  0  0  0  0  0
   -1.1935    8.4745   -4.2779 C   0  0  0  0  0  0  0  0  0  0  0  0
   -0.0271    7.7047   -4.2650 C   0  0  0  0  0  0  0  0  0  0  0  0
    0.9589    4.3566   -1.6014 C   0  0  0  0  0  0  0  0  0  0  0  0
  1  2  1  0
  2  3  2  0
  2 14  1  0
  3  4  1  0
  4  5  1  0
  4 11  2  0
  5  6  1  0
  6  7  1  0
  7  8  1  0
  7  9  1  0
  7 10  2  0
 11 12  1  0
 12 13  1  0
 12 14  2  0
 14 15  1  0
 15 16  1  0
 16 17  2  0
 16 29  1  0
 17 18  1  0
 18 19  2  0
 19 20  1  0
 19 21  1  0
 21 22  1  0
 21 29  2  0
 22 23  1  0
 23 24  2  0
 23 28  1  0
 24 25  1  0
 25 26  2  0
 26 27  1  0
 27 28  2  0
M  END
>  <DRUGBANK_ID>  (1) 
DB17670

>  <COMMON_NAME>  (1) 
VK-0214

>  <CAS_NUMBER>  (1) 
852949-30-5

>  <UNII>  (1) 
6FGG71NJ3Y

>  <SYNONYMS>  (1) 
(((4-(3-benzyl-4-hydroxybenzyl)-3,5-dimethylphenyl)oxy)methyl)phosphonic acid; ((4-(3-benzyl-4-hydroxybenzyl)-3,5-dimethylphenoxy)methyl)phosphonic acid; Phosphonic acid, p-((4-((4-hydroxy-3-(phenylmethyl)phenyl)methyl)-3,5-dimethylphenoxy)methyl)-; VK-0214; VK0214

$$$$
