
     RDKit          3D

 37 40  0  0  1  0  0  0  0  0999 V2000
    0.7670    3.6469   -4.5194 C   0  0  0  0  0  0  0  0  0  0  0  0
    0.2515    3.6316   -3.2100 N   0  0  0  0  0  0  0  0  0  0  0  0
   -0.8669    2.6741   -3.0804 C   0  0  0  0  0  0  0  0  0  0  0  0
   -0.3328    1.4621   -2.3848 C   0  0  0  0  0  0  0  0  0  0  0  0
    0.4694    2.0966   -1.1453 C   0  0  0  0  0  0  0  0  0  0  0  0
   -0.3222    2.6214    0.5329 C   0  0  0  0  0  0  0  0  0  0  0  0
   -0.1173    2.6474    2.1230 C   0  0  0  0  0  0  0  0  0  0  0  0
    1.1223    2.0727    2.1126 C   0  0  0  0  0  0  0  0  0  0  0  0
    2.5812    1.5736    0.8215 C   0  0  0  0  0  0  0  0  0  0  0  0
    2.1696    1.6254   -0.9742 C   0  0  0  0  0  0  0  0  0  0  0  0
    3.9851    1.1059    1.1202 C   0  0  0  0  0  0  0  0  0  0  0  0
    4.0869   -0.1598    0.6678 F   0  0  0  0  0  0  0  0  0  0  0  0
    4.8117    1.9582    0.5007 F   0  0  0  0  0  0  0  0  0  0  0  0
    4.4873    1.0091    2.4014 F   0  0  0  0  0  0  0  0  0  0  0  0
   -0.9871    3.2231    3.5973 C   0  0  0  0  0  0  0  0  0  0  0  0
   -1.2885    2.1898    4.4227 F   0  0  0  0  0  0  0  0  0  0  0  0
   -0.2348    4.1599    4.2631 F   0  0  0  0  0  0  0  0  0  0  0  0
   -2.2151    3.9506    3.6876 F   0  0  0  0  0  0  0  0  0  0  0  0
    1.0614    4.2767   -2.1872 C   0  0  0  0  0  0  0  0  0  0  0  0
    2.1495    4.8063   -2.4392 O   0  0  0  0  0  0  0  0  0  0  0  0
    0.5888    4.2417   -0.6912 C   0  0  2  0  0  0  0  0  0  0  0  0
    1.4877    2.9825    0.3870 C   0  0  0  0  0  0  0  0  0  0  0  0
    0.8528    1.0593    0.4462 C   0  0  0  0  0  0  0  0  0  0  0  0
    1.2456   -0.1071    1.4131 C   0  0  0  0  0  0  0  0  0  0  0  0
    2.2394    0.4645    2.7041 C   0  0  0  0  0  0  0  0  0  0  0  0
    2.9058    2.2245    2.8958 C   0  0  0  0  0  0  0  0  0  0  0  0
    2.4826    3.5667    1.7117 C   0  0  0  0  0  0  0  0  0  0  0  0
   -1.1510    4.1236   -0.8578 N   0  0  0  0  0  0  0  0  0  0  0  0
   -1.5191    5.2058    0.3431 C   0  0  0  0  0  0  0  0  0  0  0  0
   -1.5911    4.5650    1.7074 C   0  0  0  0  0  0  0  0  0  0  0  0
   -2.3835    2.8847    1.8870 N   0  0  0  0  0  0  0  0  0  0  0  0
   -2.0439    1.5510    1.0420 C   0  0  0  0  0  0  0  0  0  0  0  0
   -1.8800    2.3321   -0.6398 C   0  0  0  0  0  0  0  0  0  0  0  0
   -3.7649    2.7662    2.0582 C   0  0  0  0  0  0  0  0  0  0  0  0
   -4.4635    3.3069    0.8529 C   0  0  0  0  0  0  0  0  0  0  0  0
   -4.6139    2.5337   -0.5689 C   0  0  0  0  0  0  0  0  0  0  0  0
   -3.9957    3.9401   -0.3790 C   0  0  0  0  0  0  0  0  0  0  0  0
  1  2  1  0
  2  3  1  0
  2 19  1  0
  3  4  1  0
  4  5  1  0
  5  6  2  0
  5 10  1  0
  6  7  1  0
  7  8  2  0
  7 15  1  0
  8  9  1  0
  9 10  2  0
  9 11  1  0
 11 12  1  0
 11 13  1  0
 11 14  1  0
 15 16  1  0
 15 17  1  0
 15 18  1  0
 19 20  2  0
 21 28  1  0
 21 22  1  0
 21 19  1  6
 22 23  2  0
 22 27  1  0
 23 24  1  0
 24 25  2  0
 25 26  1  0
 26 27  2  0
 28 29  1  0
 28 33  1  0
 29 30  1  0
 30 31  1  0
 31 32  1  0
 31 34  1  0
 32 33  1  0
 34 35  1  0
 35 36  1  0
 35 37  1  0
 36 37  1  0
M  END
>  <DRUGBANK_ID>  (1) 
DB12122

>  <COMMON_NAME>  (1) 
Figopitant

>  <CAS_NUMBER>  (1) 
502422-74-4

>  <UNII>  (1) 
23X73B9O6Q

>  <SYNONYMS>  (1) 
Figopitant

$$$$
