
     RDKit          3D

 37 39  0  0  1  0  0  0  0  0999 V2000
   -4.3720   -2.4280    8.3695 C   0  0  0  0  0  0  0  0  0  0  0  0
   -4.2572   -2.7141    6.4480 C   0  0  0  0  0  0  0  0  0  0  0  0
   -4.7698   -4.5037    5.3325 C   0  0  0  0  0  0  0  0  0  0  0  0
   -4.6385   -1.4046    5.9085 C   0  0  0  0  0  0  0  0  0  0  0  0
   -3.8313   -0.2789    6.3810 C   0  0  1  0  0  0  0  0  0  0  0  0
   -2.4237   -0.3821    6.6663 N   0  0  0  0  0  0  0  0  0  0  0  0
   -1.3943    0.2242    5.9908 C   0  0  0  0  0  0  0  0  0  0  0  0
   -0.3134   -0.3671    6.0197 O   0  0  0  0  0  0  0  0  0  0  0  0
   -1.6738    1.3649    5.2114 N   0  0  0  0  0  0  0  0  0  0  0  0
   -2.6836    2.4317    5.5240 C   0  0  0  0  0  0  0  0  0  0  0  0
   -3.6726    2.8736    4.2757 C   0  0  0  0  0  0  0  0  0  0  0  0
   -2.9477    2.9979    3.0282 O   0  0  0  0  0  0  0  0  0  0  0  0
   -1.9077    2.0257    2.7322 C   0  0  0  0  0  0  0  0  0  0  0  0
   -0.9702    1.6311    3.9405 C   0  0  0  0  0  0  0  0  0  0  0  0
   -4.2585    0.5538    5.2599 C   0  0  0  0  0  0  0  0  0  0  0  0
   -5.1704    1.3386    5.5774 O   0  0  0  0  0  0  0  0  0  0  0  0
   -3.6326    0.3679    3.9863 N   0  0  0  0  0  0  0  0  0  0  0  0
   -2.7846   -0.6974    3.2249 C   0  0  2  0  0  0  0  0  0  0  0  0
   -3.7317   -0.8686    1.9037 C   0  0  0  0  0  0  0  0  0  0  0  0
   -4.1064   -2.3089    1.5063 C   0  0  0  0  0  0  0  0  0  0  0  0
   -5.2948   -2.8045    2.2472 C   0  0  0  0  0  0  0  0  0  0  0  0
   -4.9611   -3.2126    3.4100 C   0  0  0  0  0  0  0  0  0  0  0  0
   -5.9578   -2.9144    4.3384 C   0  0  0  0  0  0  0  0  0  0  0  0
   -7.2569   -2.7949    4.4246 C   0  0  0  0  0  0  0  0  0  0  0  0
   -7.6669   -2.7554    3.2035 C   0  0  0  0  0  0  0  0  0  0  0  0
   -6.6938   -2.7437    2.1313 C   0  0  0  0  0  0  0  0  0  0  0  0
   -2.7169   -1.8497    4.1238 C   0  0  0  0  0  0  0  0  0  0  0  0
   -2.0858   -2.7962    4.9090 C   0  0  0  0  0  0  0  0  0  0  0  0
   -2.6449   -4.3586    6.3649 S   0  0  0  0  0  0  0  0  0  0  0  0
   -2.4485   -5.5439    5.5897 O   0  0  0  0  0  0  0  0  0  0  0  0
   -1.8207   -4.0002    7.5036 O   0  0  0  0  0  0  0  0  0  0  0  0
   -4.8375   -4.4412    7.4287 C   0  0  0  0  0  0  0  0  0  0  0  0
   -5.4415   -5.5896    7.5469 C   0  0  0  0  0  0  0  0  0  0  0  0
   -6.9039   -5.3408    7.5317 C   0  0  0  0  0  0  0  0  0  0  0  0
   -7.8230   -4.0346    7.6058 C   0  0  0  0  0  0  0  0  0  0  0  0
   -7.3846   -2.7926    7.5744 C   0  0  0  0  0  0  0  0  0  0  0  0
   -6.0994   -3.1405    7.3478 C   0  0  0  0  0  0  0  0  0  0  0  0
  1  2  1  0
  2  3  1  0
  2  4  1  0
  5  4  1  6
  5  6  1  0
  5 15  1  0
  6  7  1  0
  7  8  2  0
  7  9  1  0
  9 10  1  0
  9 14  1  0
 10 11  1  0
 11 12  1  0
 12 13  1  0
 13 14  1  0
 15 16  2  0
 15 17  1  0
 18 27  1  1
 18 19  1  0
 18 17  1  0
 19 20  1  0
 20 21  1  0
 21 22  2  0
 21 26  1  0
 22 23  1  0
 23 24  2  0
 24 25  1  0
 25 26  2  0
 27 28  2  0
 28 29  1  0
 29 30  2  0
 29 31  2  0
 29 32  1  0
 32 33  2  0
 32 37  1  0
 33 34  1  0
 34 35  2  0
 35 36  1  0
 36 37  2  0
M  END
>  <DRUGBANK_ID>  (1) 
DB03837

>  <SECONDARY_ACCESSION_NUMBERS>  (1) 
EXPT00801

>  <COMMON_NAME>  (1) 
Morpholine-4-Carboxylic Acid (1-(3-Benzenesulfonyl-1-Phenethylallylcarbamoyl)-3-Methylbutyl)-Amide

$$$$
