
     RDKit          3D

 11 11  0  0  0  0  0  0  0  0999 V2000
    1.1397    0.0737    0.0265 C   0  0  0  0  0  0  0  0  0  0  0  0
    0.5710   -1.1523    0.7368 C   0  0  1  0  0  0  0  0  0  0  0  0
   -0.7994   -1.2290    0.3163 N   0  0  0  0  0  0  0  0  0  0  0  0
   -1.2088   -2.2687   -0.3330 C   0  0  0  0  0  0  0  0  0  0  0  0
   -2.4944   -2.2364   -0.8426 N   0  0  0  0  0  0  0  0  0  0  0  0
   -3.3382   -1.0553   -0.7227 C   0  0  0  0  0  0  0  0  0  0  0  0
   -3.0662   -3.3687   -1.5409 C   0  0  0  0  0  0  0  0  0  0  0  0
   -0.4310   -3.3887   -0.5180 N   0  0  0  0  0  0  0  0  0  0  0  0
    0.7887   -3.3571   -0.1064 C   0  0  0  0  0  0  0  0  0  0  0  0
    1.6226   -4.4134   -0.2035 N   0  0  0  0  0  0  0  0  0  0  0  0
    1.3833   -2.2840    0.4350 N   0  0  0  0  0  0  0  0  0  0  0  0
  2  1  1  6
  2 11  1  0
  3  2  1  0
  4  3  2  0
  4  5  1  0
  5  6  1  0
  5  7  1  0
  8  4  1  0
  9  8  2  0
  9 10  1  0
 11  9  1  0
M  END
>  <DRUGBANK_ID>  (1) 
DB12509

>  <COMMON_NAME>  (1) 
Imeglimin

>  <CAS_NUMBER>  (1) 
775351-65-0

>  <UNII>  (1) 
UU226QGU97

>  <SYNONYMS>  (1) 
Imeglimin; Imeglimina; ImÃ©glimine; Imegliminum

$$$$
