MUF
     RDKit          3D

 31 35  0  0  0  0  0  0  0  0999 V2000
    3.2876   -1.8909    2.1572 C   0  0  0  0  0  0  0  0  0  0  0  0
    1.5268   -2.0201    2.0210 C   0  0  0  0  0  0  0  0  0  0  0  0
    1.4910   -1.9042    0.5512 C   0  0  0  0  0  0  0  0  0  0  0  0
    1.8274   -0.5483    0.4192 C   0  0  0  0  0  0  0  0  0  0  0  0
    3.2036   -0.0479    0.7312 C   0  0  0  0  0  0  0  0  0  0  0  0
    3.5859    1.1668    1.1955 C   0  0  0  0  0  0  0  0  0  0  0  0
    5.0390    1.5432    1.2427 C   0  0  0  0  0  0  0  0  0  0  0  0
    6.0129    0.3632    1.5136 C   0  0  1  0  0  0  0  0  0  0  0  0
    5.6638   -0.8243    0.6873 C   0  0  2  0  0  0  0  0  0  0  0  0
    4.1246   -1.2361    0.7577 C   0  0  1  0  0  0  0  0  0  0  0  0
    6.8099   -1.8654    0.5827 C   0  0  0  0  0  0  0  0  0  0  0  0
    8.1694   -1.0945    0.1324 C   0  0  0  0  0  0  0  0  0  0  0  0
    8.7257    0.0435    1.3601 C   0  0  2  0  0  0  0  0  0  0  0  0
    7.4336    0.8590    1.3058 C   0  0  1  0  0  0  0  0  0  0  0  0
    7.7283    1.6969   -0.0998 C   0  0  0  0  0  0  0  0  0  0  0  0
    9.2598    1.8591   -0.1660 C   0  0  0  0  0  0  0  0  0  0  0  0
    9.6563    1.6400    1.2610 C   0  0  1  0  0  0  0  0  0  0  0  0
    9.1670   -1.0642    2.3528 C   0  0  0  0  0  0  0  0  0  0  0  0
    3.9876   -1.9889   -0.6525 C   0  0  0  0  0  0  0  0  0  0  0  0
   10.5209    3.1065    1.7928 C   0  0  0  0  0  0  0  0  0  0  0  0
   11.2063    3.7512    0.9856 O   0  0  0  0  0  0  0  0  0  0  0  0
    1.9514   -3.4349    0.3327 C   0  0  0  0  0  0  0  0  0  0  0  0
    2.6483   -4.1611    1.1696 O   0  0  0  0  0  0  0  0  0  0  0  0
    1.4802   -4.0312   -0.7127 O   0  0  0  0  0  0  0  0  0  0  0  0
   10.2953    3.8722    3.1501 C   0  0  0  0  0  0  0  0  0  0  0  0
   10.2384    3.0832    4.2854 C   0  0  0  0  0  0  0  0  0  0  0  0
   10.0455    3.6314    5.5710 C   0  0  0  0  0  0  0  0  0  0  0  0
    9.9232    5.0043    5.7616 C   0  0  0  0  0  0  0  0  0  0  0  0
   10.0273    5.8538    4.6705 C   0  0  0  0  0  0  0  0  0  0  0  0
   10.2381    5.2989    3.3685 C   0  0  0  0  0  0  0  0  0  0  0  0
    9.7066    5.5411    6.9987 O   0  0  0  0  0  0  0  0  0  0  0  0
  1  2  1  0
  2  3  1  0
  3  4  2  0
  3 22  1  0
  5  4  1  0
  5  6  2  0
  7  6  1  0
  8  7  1  6
  9  8  1  0
  9 10  1  0
 10  1  1  0
 10  5  1  0
 10 19  1  6
  9 11  1  1
 12 11  1  0
 12 13  1  0
 13 14  1  0
 13 18  1  1
 14  8  1  0
 14 15  1  6
 16 15  1  0
 17 13  1  0
 17 16  1  0
 17 20  1  1
 21 20  2  0
 22 24  1  0
 23 22  2  0
 25 20  1  0
 25 26  2  0
 27 26  1  0
 28 27  2  0
 29 28  1  0
 29 30  2  0
 30 25  1  0
 31 28  1  0
M  END
>  <DRUGBANK_ID>  (1) 
DB08220

>  <COMMON_NAME>  (1) 
(8alpha,10alpha,13alpha,17beta)-17-[(4-hydroxyphenyl)carbonyl]androsta-3,5-diene-3-carboxylic acid

$$$$
