3AS
     RDKit          3D

 26 29  0  0  0  0  0  0  0  0999 V2000
   -2.6339    1.2999    0.0483 C   0  0  0  0  0  0  0  0  0  0  0  0
   -3.0475    0.0890   -0.4851 C   0  0  0  0  0  0  0  0  0  0  0  0
   -2.1516   -0.9951   -0.5357 C   0  0  0  0  0  0  0  0  0  0  0  0
   -0.8486   -0.8445   -0.0384 C   0  0  0  0  0  0  0  0  0  0  0  0
   -0.0404   -1.9485   -0.0745 O   0  0  0  0  0  0  0  0  0  0  0  0
    1.1509   -1.9060    0.7282 C   0  0  1  0  0  0  0  0  0  0  0  0
    2.0471   -3.0980    0.3855 C   0  0  0  0  0  0  0  0  0  0  0  0
    3.2708   -3.2780    1.0590 C   0  0  0  0  0  0  0  0  0  0  0  0
    4.1927   -4.2285    0.6119 C   0  0  0  0  0  0  0  0  0  0  0  0
    3.8644   -5.0701   -0.4374 C   0  0  0  0  0  0  0  0  0  0  0  0
    4.8081   -5.9540   -0.8703 O   0  0  0  0  0  0  0  0  0  0  0  0
    2.6106   -5.0019   -1.0355 C   0  0  0  0  0  0  0  0  0  0  0  0
    1.7217   -3.9969   -0.6424 C   0  0  0  0  0  0  0  0  0  0  0  0
    1.8982   -0.5842    0.5062 C   0  0  2  0  0  0  0  0  0  0  0  0
    1.0061    0.6105    0.8601 C   0  0  2  0  0  0  0  0  0  0  0  0
   -0.4215    0.3935    0.4416 C   0  0  0  0  0  0  0  0  0  0  0  0
   -1.3382    1.4546    0.5136 C   0  0  0  0  0  0  0  0  0  0  0  0
    1.6458    1.7842    0.1090 C   0  0  0  0  0  0  0  0  0  0  0  0
    2.3613    1.1695   -1.0803 C   0  0  0  0  0  0  0  0  0  0  0  0
    3.6526    1.5734   -1.0850 F   0  0  0  0  0  0  0  0  0  0  0  0
    1.8099    1.5791   -2.2434 F   0  0  0  0  0  0  0  0  0  0  0  0
    2.2813   -0.3367   -0.9612 C   0  0  0  0  0  0  0  0  0  0  0  0
   -2.6437   -2.3377   -1.0128 C   0  0  0  0  0  0  0  0  0  0  0  0
   -3.6985   -2.8093   -0.1687 O   0  0  0  0  0  0  0  0  0  0  0  0
   -3.2550   -3.0329    1.1683 C   0  0  0  0  0  0  0  0  0  0  0  0
   -3.4656    2.3744    0.1392 O   0  0  0  0  0  0  0  0  0  0  0  0
  1  2  2  0
  2  3  1  0
  3 23  1  0
  4  3  2  0
  4  5  1  0
  6  5  1  0
  6  7  1  6
  7  8  2  0
  8  9  1  0
 10  9  2  0
 10 11  1  0
 12 10  1  0
 13  7  1  0
 13 12  2  0
 14 22  1  6
 14  6  1  0
 15 16  1  0
 15 14  1  0
 16  4  1  0
 17  1  1  0
 17 16  2  0
 18 19  1  0
 15 18  1  6
 19 20  1  0
 19 22  1  0
 21 19  1  0
 23 24  1  0
 24 25  1  0
 26  1  1  0
M  END
>  <DRUGBANK_ID>  (1) 
DB07036

>  <COMMON_NAME>  (1) 
(3aS,4R,9bR)-2,2-difluoro-4-(4-hydroxyphenyl)-6-(methoxymethyl)-1,2,3,3a,4,9b-hexahydrocyclopenta[c]chromen-8-ol

$$$$
