
     RDKit          3D

 27 29  0  0  0  0  0  0  0  0999 V2000
    0.8882    0.0087    0.0661 C   0  0  0  0  0  0  0  0  0  0  0  0
    0.2910    1.0678    0.9096 C   0  0  0  0  0  0  0  0  0  0  0  0
    0.7133    2.3857    0.8263 C   0  0  0  0  0  0  0  0  0  0  0  0
    0.1378    3.3391    1.6529 C   0  0  0  0  0  0  0  0  0  0  0  0
   -0.8752    2.9896    2.5580 C   0  0  0  0  0  0  0  0  0  0  0  0
   -1.3570    1.6813    2.6700 C   0  0  0  0  0  0  0  0  0  0  0  0
   -0.7336    0.7327    1.8103 C   0  0  0  0  0  0  0  0  0  0  0  0
    0.2439   -0.8324   -0.5415 O   0  0  0  0  0  0  0  0  0  0  0  0
    2.2373    0.0848    0.0200 O   0  0  0  0  0  0  0  0  0  0  0  0
    1.6903    2.8140   -0.0255 O   0  0  0  0  0  0  0  0  0  0  0  0
   -2.4495    1.3525    3.4957 N   0  0  0  0  0  0  0  0  0  0  0  0
   -3.1038    2.2713    4.4822 C   0  0  0  0  0  0  0  0  0  0  0  0
   -4.6012    2.5113    4.2405 C   0  0  0  0  0  0  0  0  0  0  0  0
   -5.1729    3.7814    4.0702 C   0  0  0  0  0  0  0  0  0  0  0  0
   -6.5419    3.9272    3.7921 C   0  0  0  0  0  0  0  0  0  0  0  0
   -7.3717    2.8197    3.6351 C   0  0  0  0  0  0  0  0  0  0  0  0
   -6.8409    1.5581    3.7865 C   0  0  0  0  0  0  0  0  0  0  0  0
   -5.4993    1.4222    4.1333 C   0  0  0  0  0  0  0  0  0  0  0  0
   -4.4971    4.9677    4.1390 O   0  0  0  0  0  0  0  0  0  0  0  0
   -2.8774   -0.0601    3.5014 C   0  0  0  0  0  0  0  0  0  0  0  0
   -3.5469   -0.4441    2.1800 C   0  0  0  0  0  0  0  0  0  0  0  0
   -4.0952    0.4667    1.2470 C   0  0  0  0  0  0  0  0  0  0  0  0
   -4.5567    0.0709    0.0023 C   0  0  0  0  0  0  0  0  0  0  0  0
   -4.4672   -1.2582   -0.3640 C   0  0  0  0  0  0  0  0  0  0  0  0
   -3.9522   -2.1905    0.5350 C   0  0  0  0  0  0  0  0  0  0  0  0
   -3.5164   -1.7955    1.8043 C   0  0  0  0  0  0  0  0  0  0  0  0
   -4.1559    1.8193    1.4131 O   0  0  0  0  0  0  0  0  0  0  0  0
  1  2  1  0
  1  8  2  0
  1  9  1  0
  2  3  2  0
  2  7  1  0
  3  4  1  0
  3 10  1  0
  4  5  2  0
  5  6  1  0
  6  7  2  0
  6 11  1  0
 11 12  1  0
 11 20  1  0
 12 13  1  0
 13 14  2  0
 13 18  1  0
 14 15  1  0
 14 19  1  0
 15 16  2  0
 16 17  1  0
 17 18  2  0
 20 21  1  0
 21 22  2  0
 21 26  1  0
 22 23  1  0
 22 27  1  0
 23 24  2  0
 24 25  1  0
 25 26  2  0
M  END
>  <DRUGBANK_ID>  (1) 
DB16760

>  <COMMON_NAME>  (1) 
Lavendustin b

>  <CAS_NUMBER>  (1) 
125697-91-8

>  <UNII>  (1) 
7T53EGQ52Z

$$$$
