939
     RDKit          3D

 19 20  0  0  0  0  0  0  0  0999 V2000
    2.5422   -1.0051   -0.6192 Cl  0  0  0  0  0  0  0  0  0  0  0  0
   -2.9523   -0.5380   -0.0258 Cl  0  0  0  0  0  0  0  0  0  0  0  0
    2.2935   -2.0633    3.1242 O   0  0  0  0  0  0  0  0  0  0  0  0
    0.3080   -1.4086    2.3948 O   0  0  0  0  0  0  0  0  0  0  0  0
   -0.4096   -2.1523   -0.2954 N   0  0  0  0  0  0  0  0  0  0  0  0
   -0.2186   -0.7449   -0.2146 C   0  0  0  0  0  0  0  0  0  0  0  0
    0.5538   -3.1486   -0.0139 C   0  0  0  0  0  0  0  0  0  0  0  0
    1.2163    1.2554   -0.0984 C   0  0  0  0  0  0  0  0  0  0  0  0
    1.0622   -0.1293   -0.2743 C   0  0  0  0  0  0  0  0  0  0  0  0
    1.3983   -3.1808    1.1352 C   0  0  0  0  0  0  0  0  0  0  0  0
   -1.3413    0.1041   -0.0982 C   0  0  0  0  0  0  0  0  0  0  0  0
    0.0798    2.0613   -0.0078 C   0  0  0  0  0  0  0  0  0  0  0  0
    0.7316   -4.0952   -1.0453 C   0  0  0  0  0  0  0  0  0  0  0  0
   -1.1938    1.4924   -0.0271 C   0  0  0  0  0  0  0  0  0  0  0  0
    2.4650   -4.1018    1.1282 C   0  0  0  0  0  0  0  0  0  0  0  0
    2.5940    1.8478    0.0154 C   0  0  0  0  0  0  0  0  0  0  0  0
    1.7513   -5.0365   -0.9878 C   0  0  0  0  0  0  0  0  0  0  0  0
    2.6417   -5.0089    0.0756 C   0  0  0  0  0  0  0  0  0  0  0  0
    1.2670   -2.1585    2.2504 C   0  0  0  0  0  0  0  0  0  0  0  0
  1  9  1  0
  2 11  1  0
  3 19  1  0
  4 19  2  0
  5  6  1  0
  5  7  1  0
  6  9  1  0
  6 11  2  0
  7 10  2  0
  7 13  1  0
  8  9  2  0
  8 12  1  0
  8 16  1  0
 10 15  1  0
 10 19  1  0
 11 14  1  0
 12 14  2  0
 13 17  2  0
 15 18  2  0
 17 18  1  0
M  END
>  <DRUGBANK_ID>  (1) 
DB00939

>  <SECONDARY_ACCESSION_NUMBERS>  (1) 
APRD01090

>  <COMMON_NAME>  (1) 
Meclofenamic acid

>  <CAS_NUMBER>  (1) 
644-62-2

>  <UNII>  (1) 
48I5LU4ZWD

>  <SYNONYMS>  (1) 
Acide méclofénamique; ácido meclofenámico; Acidum meclofenamicum; Meclofenamate; Meclofenamic acid; N-(2,6-dichloro-3-methylphenyl)anthranilic acid; N-(2,6-dichloro-m-tolyl)anthranilic acid; N-(3-methyl-2,6-dichlorophenyl)anthranilic acid

$$$$
