164
     RDKit          3D

 17 17  0  0  0  0  0  0  0  0999 V2000
    6.1121    0.2232   -1.8848 O   0  0  0  0  0  0  0  0  0  0  0  0
    5.2746    1.0206   -1.4556 C   0  0  0  0  0  0  0  0  0  0  0  0
    5.8945    2.1440   -1.0607 O   0  0  0  0  0  0  0  0  0  0  0  0
    3.4830    0.9042   -1.1366 C   0  0  1  0  0  0  0  0  0  0  0  0
    3.1189    2.2482   -0.5044 C   0  0  1  0  0  0  0  0  0  0  0  0
    2.6345    3.2016   -1.5355 C   0  0  0  0  0  0  0  0  0  0  0  0
    2.0993    2.8044   -2.7027 C   0  0  0  0  0  0  0  0  0  0  0  0
    1.8959    1.4017   -3.0317 C   0  0  0  0  0  0  0  0  0  0  0  0
    2.1889    2.1820    0.5701 O   0  0  0  0  0  0  0  0  0  0  0  0
    2.4388    0.4226   -2.2714 C   0  0  0  0  0  0  0  0  0  0  0  0
    2.1580   -1.1120   -2.7235 C   0  0  0  0  0  0  0  0  0  0  0  0
    1.5647   -1.3047   -3.7992 O   0  0  0  0  0  0  0  0  0  0  0  0
    2.5875   -2.4588   -1.8520 C   0  0  0  0  0  0  0  0  0  0  0  0
    4.0881   -2.8546   -1.6343 C   0  0  0  0  0  0  0  0  0  0  0  0
    4.5625   -1.5763   -1.2763 C   0  0  0  0  0  0  0  0  0  0  0  0
    4.7715   -1.2159    0.0110 O   0  0  0  0  0  0  0  0  0  0  0  0
    4.4152   -0.8958   -2.2512 O   0  0  0  0  0  0  0  0  0  0  0  0
  1  2  2  0
  2  3  1  0
  4  5  1  0
  4 10  1  0
  4  2  1  6
  5  6  1  0
  5  9  1  1
  6  7  2  0
  7  8  1  0
  8 10  2  0
 10 11  1  0
 11 12  2  0
 11 13  1  0
 13 14  1  0
 14 15  1  0
 15 16  1  0
 15 17  2  0
M  END
>  <DRUGBANK_ID>  (1) 
DB06864

>  <COMMON_NAME>  (1) 
2-(3-CARBOXYPROPIONYL)-6-HYDROXY-CYCLOHEXA-2,4-DIENE CARBOXYLIC ACID

$$$$
