
     RDKit          3D

 29 32  0  0  0  0  0  0  0  0999 V2000
    0.7349    0.0638   -0.6046 C   0  0  0  0  0  0  0  0  0  0  0  0
    5.6692    3.6050    1.0224 C   0  0  0  0  0  0  0  0  0  0  0  0
    0.6664   -0.3644    0.8242 C   0  0  0  0  0  0  0  0  0  0  0  0
   -2.0587   -0.4515    2.0202 C   0  0  0  0  0  0  0  0  0  0  0  0
   -1.9518    0.9487    2.0765 C   0  0  0  0  0  0  0  0  0  0  0  0
   -1.2996   -1.2230    2.9083 C   0  0  0  0  0  0  0  0  0  0  0  0
   -1.1802    1.5713    3.0807 C   0  0  0  0  0  0  0  0  0  0  0  0
   -0.5982   -0.6104    3.9458 C   0  0  0  0  0  0  0  0  0  0  0  0
    2.7001   -0.6332    3.9114 C   0  0  0  0  0  0  0  0  0  0  0  0
    3.6548   -1.6883    3.3281 C   0  0  0  0  0  0  0  0  0  0  0  0
    3.7746    0.9991    3.2027 C   0  0  0  0  0  0  0  0  0  0  0  0
    3.8505   -1.6249    0.0222 C   0  0  0  0  0  0  0  0  0  0  0  0
    0.6409    1.3428    4.9168 C   0  0  0  0  0  0  0  0  0  0  0  0
    5.8052    1.8449    2.2198 C   0  0  0  0  0  0  0  0  0  0  0  0
   -0.4624    0.7880    4.0098 C   0  0  0  0  0  0  0  0  0  0  0  0
    2.8002    0.7271    4.0418 C   0  0  0  0  0  0  0  0  0  0  0  0
    4.7269   -0.0962    2.4946 C   0  0  0  0  0  0  0  0  0  0  0  0
    4.8122    1.1860    0.8051 C   0  0  0  0  0  0  0  0  0  0  0  0
    4.9162   -1.4007    2.8295 C   0  0  0  0  0  0  0  0  0  0  0  0
    5.0963   -1.3226    0.5446 C   0  0  0  0  0  0  0  0  0  0  0  0
    5.2699   -0.0605    1.0775 C   0  0  0  0  0  0  0  0  0  0  0  0
    3.3713    0.7552    0.6180 C   0  0  0  0  0  0  0  0  0  0  0  0
    2.0456    1.5061    1.2348 C   0  0  0  0  0  0  0  0  0  0  0  0
    2.9871   -0.6107    0.2649 N   0  0  0  0  0  0  0  0  0  0  0  0
    5.8063   -1.7645    1.7139 N   0  0  0  0  0  0  0  0  0  0  0  0
    1.9482    2.7679    1.5404 O   0  0  0  0  0  0  0  0  0  0  0  0
    5.6933    3.2019    2.3471 O   0  0  0  0  0  0  0  0  0  0  0  0
    1.0367    0.7261    1.6468 O   0  0  0  0  0  0  0  0  0  0  0  0
    1.8792    1.7152    4.2863 O   0  0  0  0  0  0  0  0  0  0  0  0
  3  1  1  0
  5  4  2  0
  6  4  1  0
  7  5  1  0
  8  6  2  0
 10  9  2  0
 15  7  2  0
 15  8  1  0
 15 13  1  0
 16  9  1  0
 16 11  2  0
 17 11  1  0
 18 14  1  0
 19 10  1  0
 19 17  2  0
 20 12  2  0
 21 17  1  0
 21 18  2  0
 21 20  1  0
 22 18  1  0
 23 22  1  0
 24 12  1  0
 24 22  2  0
 25 19  1  0
 25 20  1  0
 26 23  2  0
 27  2  1  0
 27 14  1  0
 28  3  1  0
 28 23  1  0
 29 13  1  0
 29 16  1  0
M  END
>  <DRUGBANK_ID>  (1) 
DB17063

>  <COMMON_NAME>  (1) 
ZK-93423

>  <CAS_NUMBER>  (1) 
83910-44-5

>  <UNII>  (1) 
B6PWX5B47Q

>  <SYNONYMS>  (1) 
9H-Pyrido[3,4-b]indole-3-carboxylicacid, 4-(methoxymethyl)-6-(phenylmethoxy)-, ethyl ester

$$$$
