
     RDKit          3D

 22 24  0  0  0  0  0  0  0  0999 V2000
   -1.8620    1.2021    0.0056 C   0  0  0  0  0  0  0  0  0  0  0  0
   -1.0513   -1.4854   -0.1863 C   0  0  0  0  0  0  0  0  0  0  0  0
   -2.4195   -1.1192   -0.1439 C   0  0  0  0  0  0  0  0  0  0  0  0
   -2.8209    0.2052   -0.0100 C   0  0  0  0  0  0  0  0  0  0  0  0
   -0.0408   -0.4677   -0.1158 C   0  0  0  0  0  0  0  0  0  0  0  0
   -0.4969    0.8826   -0.0521 C   0  0  0  0  0  0  0  0  0  0  0  0
    0.4362    1.9244   -0.0180 C   0  0  0  0  0  0  0  0  0  0  0  0
    1.7741    1.7664   -0.0163 N   0  0  0  0  0  0  0  0  0  0  0  0
    2.2041    0.4954   -0.0226 C   0  0  0  0  0  0  0  0  0  0  0  0
    1.3692   -0.6094   -0.0528 C   0  0  0  0  0  0  0  0  0  0  0  0
    1.9854   -1.7830    0.0638 F   0  0  0  0  0  0  0  0  0  0  0  0
   -0.7220   -3.2696   -0.3016 S   0  0  0  0  0  0  0  0  0  0  0  0
   -1.4101   -3.9515    1.1267 N   0  0  0  0  0  0  0  0  0  0  0  0
   -2.8882   -3.9694    1.1699 C   0  0  0  0  0  0  0  0  0  0  0  0
   -3.4283   -5.1675    1.9223 C   0  0  0  0  0  0  0  0  0  0  0  0
   -0.7239   -3.6503    2.4383 C   0  0  2  0  0  0  0  0  0  0  0  0
   -3.6280   -4.8752    3.4095 C   0  0  0  0  0  0  0  0  0  0  0  0
   -1.2002   -4.5777    3.5946 C   0  0  0  0  0  0  0  0  0  0  0  0
   -2.5310   -4.1964    4.0833 N   0  0  0  0  0  0  0  0  0  0  0  0
   -0.9432   -2.1954    2.8529 C   0  0  0  0  0  0  0  0  0  0  0  0
   -1.4809   -3.7324   -1.4400 O   0  0  0  0  0  0  0  0  0  0  0  0
    0.6929   -3.5677   -0.2288 O   0  0  0  0  0  0  0  0  0  0  0  0
  1  6  2  0
  2  3  1  0
  2 12  1  0
  3  4  2  0
  4  1  1  0
  5  2  2  0
  5  6  1  0
  6  7  1  0
  7  8  2  0
  8  9  1  0
  9 10  2  0
 10  5  1  0
 10 11  1  0
 12 13  1  0
 12 21  2  0
 12 22  2  0
 13 14  1  0
 13 16  1  0
 14 15  1  0
 15 17  1  0
 16 18  1  0
 16 20  1  1
 17 19  1  0
 18 19  1  0
M  END
>  <DRUGBANK_ID>  (1) 
DB13165

>  <COMMON_NAME>  (1) 
Ripasudil

>  <CAS_NUMBER>  (1) 
223645-67-8

>  <UNII>  (1) 
11978226XX

>  <SYNONYMS>  (1) 
Ripasudil

$$$$
