CK9
     RDKit          3D

 27 29  0  0  0  0  0  0  0  0999 V2000
   -2.3409   11.0747   10.0274 O   0  0  0  0  0  0  0  0  0  0  0  0
   -2.2302   12.2930    9.4169 C   0  0  0  0  0  0  0  0  0  0  0  0
   -2.3000   13.4602   10.1837 C   0  0  0  0  0  0  0  0  0  0  0  0
   -2.1754   14.7038    9.5656 C   0  0  0  0  0  0  0  0  0  0  0  0
   -1.9805   14.7762    8.1880 C   0  0  0  0  0  0  0  0  0  0  0  0
   -1.9071   13.6044    7.4263 C   0  0  0  0  0  0  0  0  0  0  0  0
   -2.0347   12.3398    8.0292 C   0  0  0  0  0  0  0  0  0  0  0  0
   -1.8922   11.0732    7.2023 C   0  0  0  0  0  0  0  0  0  0  0  0
   -2.9489   10.9456    6.2088 N   0  0  0  0  0  0  0  0  0  0  0  0
   -2.5657   11.0093    4.8706 C   0  0  0  0  0  0  0  0  0  0  0  0
   -3.2157   11.8385    3.9383 C   0  0  0  0  0  0  0  0  0  0  0  0
   -4.2136   12.7889    4.0682 N   0  0  0  0  0  0  0  0  0  0  0  0
   -4.3940   13.2530    2.8502 C   0  0  0  0  0  0  0  0  0  0  0  0
   -2.8105   11.7365    2.6259 C   0  0  0  0  0  0  0  0  0  0  0  0
   -3.5721   12.6416    1.9372 N   0  0  0  0  0  0  0  0  0  0  0  0
   -3.5428   12.9160    0.5068 C   0  0  0  0  0  0  0  0  0  0  0  0
   -2.1879   13.4615    0.0564 C   0  0  0  0  0  0  0  0  0  0  0  0
   -3.9464   11.6926   -0.3159 C   0  0  0  0  0  0  0  0  0  0  0  0
   -1.8746   10.9041    2.1317 N   0  0  0  0  0  0  0  0  0  0  0  0
   -1.3140   10.1431    3.0768 C   0  0  0  0  0  0  0  0  0  0  0  0
   -1.5795   10.1903    4.3970 N   0  0  0  0  0  0  0  0  0  0  0  0
   -0.3972    9.1808    2.7048 N   0  0  0  0  0  0  0  0  0  0  0  0
    0.1703    9.1063    1.3660 C   0  0  2  0  0  0  0  0  0  0  0  0
    0.8230    7.6876    1.2196 C   0  0  0  0  0  0  0  0  0  0  0  0
    2.0842    7.7854    0.4002 C   0  0  0  0  0  0  0  0  0  0  0  0
    1.1279   10.3347    1.1002 C   0  0  0  0  0  0  0  0  0  0  0  0
    1.5865   10.4830   -0.2527 O   0  0  0  0  0  0  0  0  0  0  0  0
  1  2  1  0
  2  3  2  0
  2  7  1  0
  3  4  1  0
  4  5  2  0
  5  6  1  0
  6  7  2  0
  7  8  1  0
  8  9  1  0
  9 10  1  0
 10 11  2  0
 10 21  1  0
 11 12  1  0
 11 14  1  0
 12 13  2  0
 13 15  1  0
 14 15  1  0
 14 19  2  0
 15 16  1  0
 16 17  1  0
 16 18  1  0
 19 20  1  0
 20 21  2  0
 20 22  1  0
 23 26  1  1
 23 24  1  0
 23 22  1  0
 24 25  1  0
 26 27  1  0
M  END
>  <DRUGBANK_ID>  (1) 
DB04662

>  <COMMON_NAME>  (1) 
OLOMOUCINE II

$$$$
