
     RDKit          3D

 12 12  0  0  0  0  0  0  0  0999 V2000
    0.9189   -0.0507   -0.0015 C   0  0  0  0  0  0  0  0  0  0  0  0
    2.2819   -0.0260    0.0126 O   0  0  0  0  0  0  0  0  0  0  0  0
    0.2040   -1.2446   -0.0018 C   0  0  0  0  0  0  0  0  0  0  0  0
   -1.1923   -1.2073   -0.0189 C   0  0  0  0  0  0  0  0  0  0  0  0
   -1.8649    0.0160   -0.0429 C   0  0  0  0  0  0  0  0  0  0  0  0
   -1.1438    1.2207   -0.0392 C   0  0  0  0  0  0  0  0  0  0  0  0
   -1.8687    2.5637   -0.0110 C   0  0  1  0  0  0  0  0  0  0  0  0
   -1.5565    3.3251    1.2266 N   0  0  0  0  0  0  0  0  0  0  0  0
   -2.2384    4.6207    1.2621 C   0  0  0  0  0  0  0  0  0  0  0  0
   -1.9284    2.5656    2.4297 C   0  0  0  0  0  0  0  0  0  0  0  0
   -1.4913    3.3307   -1.2937 C   0  0  0  0  0  0  0  0  0  0  0  0
    0.2592    1.1684   -0.0095 C   0  0  0  0  0  0  0  0  0  0  0  0
  1  2  1  0
  1  3  2  0
  1 12  1  0
  4  3  1  0
  5  4  2  0
  6  5  1  0
  6  7  1  0
  7  8  1  0
  7 11  1  6
  8  9  1  0
  8 10  1  0
 12  6  2  0
M  END
>  <DRUGBANK_ID>  (1) 
DB04556

>  <SECONDARY_ACCESSION_NUMBERS>  (1) 
EXPT02841

>  <COMMON_NAME>  (1) 
NAP-226-90

>  <CAS_NUMBER>  (1) 
139306-10-8

>  <UNII>  (1) 
1608PLR9ZO

>  <SYNONYMS>  (1) 
(-)-3-((1S)-1-(Dimethylamino)ethyl)phenol; 3-((1S)-1-(Dimethylamino)ethyl)phenol

$$$$
