
     RDKit          3D

 14 13  0  0  0  0  0  0  0  0999 V2000
    0.8985   -0.1965   -0.0929 O   0  0  0  0  0  0  0  0  0  0  0  0
    0.3157   -1.3436    0.3015 C   0  0  0  0  0  0  0  0  0  0  0  0
   -5.4208    4.4786   -0.9123 C   0  0  0  0  0  0  0  0  0  0  0  0
   -3.9171    4.4431   -0.8370 C   0  0  0  0  0  0  0  0  0  0  0  0
   -3.4234    3.9789    0.5335 C   0  0  0  0  0  0  0  0  0  0  0  0
   -3.8420    2.5366    0.8361 C   0  0  0  0  0  0  0  0  0  0  0  0
   -3.3175    1.5796   -0.2412 C   0  0  0  0  0  0  0  0  0  0  0  0
   -1.7876    1.5820   -0.2417 C   0  0  0  0  0  0  0  0  0  0  0  0
   -1.2631    1.1352    1.1282 C   0  0  0  0  0  0  0  0  0  0  0  0
   -1.6817   -0.3078    1.4271 C   0  0  0  0  0  0  0  0  0  0  0  0
   -1.1880   -1.2810    0.3563 C   0  0  0  0  0  0  0  0  0  0  0  0
   -6.0035    3.2694   -0.8155 O   0  0  0  0  0  0  0  0  0  0  0  0
   -6.1025    5.4868   -1.0365 O   0  0  0  0  0  0  0  0  0  0  0  0
    0.9974   -2.3175    0.5905 O   0  0  0  0  0  0  0  0  0  0  0  0
  1  2  1  0
  3 13  2  0
  3  4  1  0
  3 12  1  0
  4  5  1  0
  5  6  1  0
  6  7  1  0
  7  8  1  0
  8  9  1  0
  9 10  1  0
 10 11  1  0
 11  2  1  0
 14  2  2  0
M  END
>  <DRUGBANK_ID>  (1) 
DB07645

>  <COMMON_NAME>  (1) 
Sebacic acid

>  <CAS_NUMBER>  (1) 
111-20-6

>  <UNII>  (1) 
97AN39ICTC

>  <SYNONYMS>  (1) 
1,10-decanedioic acid; 1,8-dicarboxyoctane; Decanedioic acid; Sebacins√§ure

$$$$
