
     RDKit          3D

 34 37  0  0  1  0  0  0  0  0999 V2000
    0.8553   -0.8446   -0.3067 C   0  0  0  0  0  0  0  0  0  0  0  0
    0.9246    0.4395   -0.7042 N   0  0  0  0  0  0  0  0  0  0  0  0
   -0.0798    1.2622   -0.4452 C   0  0  0  0  0  0  0  0  0  0  0  0
    0.1292    2.6430   -0.4160 N   0  0  0  0  0  0  0  0  0  0  0  0
    1.4102    3.2806    0.0391 C   0  0  2  0  0  0  0  0  0  0  0  0
    2.5978    3.2510   -0.9583 C   0  0  0  0  0  0  0  0  0  0  0  0
    3.1873    1.9321   -1.1256 N   0  0  0  0  0  0  0  0  0  0  0  0
    3.5427    1.2741    0.1427 C   0  0  0  0  0  0  0  0  0  0  0  0
    3.9312   -0.1731   -0.2124 C   0  0  0  0  0  0  0  0  0  0  0  0
    4.7785    1.9282    0.7504 C   0  0  0  0  0  0  0  0  0  0  0  0
    2.4727    1.3702    1.2844 C   0  0  0  0  0  0  0  0  0  0  0  0
    1.8780    2.7685    1.4180 C   0  0  0  0  0  0  0  0  0  0  0  0
   -1.2577    0.7498   -0.0875 N   0  0  0  0  0  0  0  0  0  0  0  0
   -1.3288   -0.6240    0.0155 C   0  0  0  0  0  0  0  0  0  0  0  0
   -0.2745   -1.4923   -0.0212 C   0  0  0  0  0  0  0  0  0  0  0  0
   -0.2129   -2.9740   -0.0136 C   0  0  0  0  0  0  0  0  0  0  0  0
   -0.7022   -3.5887    1.0887 F   0  0  0  0  0  0  0  0  0  0  0  0
   -0.8404   -3.5207   -1.0859 F   0  0  0  0  0  0  0  0  0  0  0  0
    1.0732   -3.4502   -0.0778 F   0  0  0  0  0  0  0  0  0  0  0  0
   -2.6412   -1.1861    0.0831 C   0  0  0  0  0  0  0  0  0  0  0  0
   -3.1611   -2.0961    1.0379 C   0  0  0  0  0  0  0  0  0  0  0  0
   -2.6969   -2.6333    2.2577 C   0  0  0  0  0  0  0  0  0  0  0  0
   -3.4372   -3.5989    2.9375 C   0  0  0  0  0  0  0  0  0  0  0  0
   -4.6747   -3.9907    2.4482 C   0  0  0  0  0  0  0  0  0  0  0  0
   -5.4588   -4.9145    3.1978 C   0  0  0  0  0  0  0  0  0  0  0  0
   -6.1520   -5.6493    3.7948 N   0  0  0  0  0  0  0  0  0  0  0  0
   -5.1636   -3.4467    1.2428 C   0  0  0  0  0  0  0  0  0  0  0  0
   -6.8351   -3.9218    0.6690 P   0  0  0  0  0  0  0  0  0  0  0  0
   -7.5826   -2.4394    1.5696 C   0  0  0  0  0  0  0  0  0  0  0  0
   -6.5324   -3.5508   -0.7989 O   0  0  0  0  0  0  0  0  0  0  0  0
   -8.5067   -4.3969    0.0953 C   0  0  0  0  0  0  0  0  0  0  0  0
   -4.3811   -2.5189    0.5444 C   0  0  0  0  0  0  0  0  0  0  0  0
   -4.5945   -1.8708   -0.6583 N   0  0  0  0  0  0  0  0  0  0  0  0
   -3.5261   -1.0835   -0.9664 C   0  0  0  0  0  0  0  0  0  0  0  0
  1  2  2  0
  1 15  1  0
  3  2  1  0
  4  3  1  0
  5  4  1  6
  5  6  1  0
  7  6  1  0
  7  8  1  0
  8  9  1  0
  8 10  1  0
 11  8  1  0
 11 12  1  0
 12  5  1  0
 13  3  2  0
 13 14  1  0
 15 14  2  0
 15 16  1  0
 16 17  1  0
 16 18  1  0
 16 19  1  0
 20 14  1  0
 20 21  1  0
 21 22  2  0
 22 23  1  0
 24 23  2  0
 24 25  1  0
 25 26  3  0
 27 24  1  0
 27 32  2  0
 28 27  1  0
 28 29  1  0
 28 30  2  0
 28 31  1  0
 32 21  1  0
 33 32  1  0
 34 33  1  0
 34 20  2  0
M  END
>  <DRUGBANK_ID>  (1) 
DB17099

>  <COMMON_NAME>  (1) 
SY-5609

>  <CAS_NUMBER>  (1) 
2417302-07-7

>  <UNII>  (1) 
TW6044C3O6

>  <SYNONYMS>  (1) 
(S)-7-(dimethylphosphoryl)-3-(2-((6,6-dimethylpiperidin-3-yl)amino)-5-(trifluoromethyl)pyrimidin-4-yl)-1H-indole-6-carbonitrile; 1H-Indole-6-carbonitrile, 7-(dimethylphosphinyl)-3-[2-[[(3S)-6,6-dimethyl-3-piperidinyl]amino]-5-(trifluoromethyl)-4-pyrimidinyl]-; SY 5609; SY5609

$$$$
