TH1
     RDKit          3D

 21 23  0  0  0  0  0  0  0  0999 V2000
    1.0796    1.4288   -0.1801 C   0  0  1  0  0  0  0  0  0  0  0  0
    1.2024   -0.0535    0.2487 C   0  0  2  0  0  0  0  0  0  0  0  0
    2.3478   -0.7241   -0.3011 O   0  0  0  0  0  0  0  0  0  0  0  0
   -0.0420   -0.8242   -0.1958 C   0  0  1  0  0  0  0  0  0  0  0  0
   -0.0089   -2.1606    0.3201 O   0  0  0  0  0  0  0  0  0  0  0  0
   -1.3234   -0.1117    0.2448 C   0  0  2  0  0  0  0  0  0  0  0  0
   -2.4746   -0.7700   -0.2815 O   0  0  0  0  0  0  0  0  0  0  0  0
   -1.2951    1.3557   -0.1943 C   0  0  2  0  0  0  0  0  0  0  0  0
   -0.1298    2.0096    0.3216 O   0  0  0  0  0  0  0  0  0  0  0  0
   -2.5237    2.0954    0.3380 C   0  0  0  0  0  0  0  0  0  0  0  0
   -2.4766    3.4627   -0.0662 O   0  0  0  0  0  0  0  0  0  0  0  0
    2.2352    2.2327    0.3503 C   0  0  0  0  0  0  0  0  0  0  0  0
    2.2094    3.2008    1.2440 N   0  0  0  0  0  0  0  0  0  0  0  0
    3.5125    3.6125    1.5148 C   0  0  0  0  0  0  0  0  0  0  0  0
    3.9238    4.6297    2.4018 C   0  0  0  0  0  0  0  0  0  0  0  0
    5.3032    4.8804    2.5653 C   0  0  0  0  0  0  0  0  0  0  0  0
    6.2472    4.1130    1.8807 C   0  0  0  0  0  0  0  0  0  0  0  0
    5.8621    3.1114    1.0063 C   0  0  0  0  0  0  0  0  0  0  0  0
    4.4929    2.9162    0.8191 C   0  0  0  0  0  0  0  0  0  0  0  0
    3.7815    1.8611   -0.2991 S   0  0  0  0  0  0  0  0  0  0  0  0
    5.7756    5.9715    3.4756 C   0  0  0  0  0  0  0  0  0  0  0  0
  1  2  1  0
  1  9  1  0
  1 12  1  1
  2  3  1  6
  2  4  1  0
  4  5  1  1
  4  6  1  0
  6  7  1  6
  6  8  1  0
  8  9  1  0
  8 10  1  1
 10 11  1  0
 12 13  2  0
 12 20  1  0
 13 14  1  0
 14 15  2  0
 14 19  1  0
 15 16  1  0
 16 17  2  0
 16 21  1  0
 17 18  1  0
 18 19  2  0
 19 20  1  0
M  END
>  <DRUGBANK_ID>  (1) 
DB03250

>  <SECONDARY_ACCESSION_NUMBERS>  (1) 
EXPT03046

>  <COMMON_NAME>  (1) 
2-(Beta-D-Glucopyranosyl)-5-Methyl-1,3,4-Benzothiazole

$$$$
