
     RDKit          3D

 27 28  0  0  0  0  0  0  0  0999 V2000
   -0.0141   -1.1917   -0.0573 C   0  0  0  0  0  0  0  0  0  0  0  0
    1.3439    0.7541    0.0054 C   0  0  0  0  0  0  0  0  0  0  0  0
   -1.6558   -3.1357    0.0017 C   0  0  0  0  0  0  0  0  0  0  0  0
   -3.5063   -0.4767   -1.3247 C   0  0  0  0  0  0  0  0  0  0  0  0
   -5.4370   -2.0029   -1.8808 C   0  0  0  0  0  0  0  0  0  0  0  0
   -4.9415   -0.6955   -1.7343 C   0  0  0  0  0  0  0  0  0  0  0  0
   -5.8576    0.3599   -1.6408 C   0  0  0  0  0  0  0  0  0  0  0  0
   -7.2273    0.1051   -1.5911 C   0  0  0  0  0  0  0  0  0  0  0  0
   -7.6913   -1.2072   -1.6002 C   0  0  0  0  0  0  0  0  0  0  0  0
   -6.7978   -2.2598   -1.7392 C   0  0  0  0  0  0  0  0  0  0  0  0
   -5.7939   -1.3743    1.1632 C   0  0  0  0  0  0  0  0  0  0  0  0
    1.6714   -0.9394    0.0478 S   0  0  0  0  0  0  0  0  0  0  0  0
   -0.6474   -0.0516   -0.2262 N   0  0  0  0  0  0  0  0  0  0  0  0
    0.0852    1.0730   -0.0865 N   0  0  0  0  0  0  0  0  0  0  0  0
   -0.4481   -2.5104   -0.0142 N   0  0  0  0  0  0  0  0  0  0  0  0
    2.5688    1.9729    0.0120 S   0  0  0  0  0  0  0  0  0  0  0  0
   -1.6676   -4.3732   -0.0123 O   0  0  0  0  0  0  0  0  0  0  0  0
   -2.8602   -2.5323    0.0439 N   0  0  0  0  0  0  0  0  0  0  0  0
   -3.1571   -1.1158    0.0445 C   0  0  2  0  0  0  0  0  0  0  0  0
   -3.5626   -0.4268    1.3641 C   0  0  0  0  0  0  0  0  0  0  0  0
   -2.7567    0.2196    2.0592 O   0  0  0  0  0  0  0  0  0  0  0  0
   -4.8271   -0.5754    1.8177 N   0  0  0  0  0  0  0  0  0  0  0  0
   -5.4162    1.5980   -1.3738 F   0  0  0  0  0  0  0  0  0  0  0  0
   -8.0756    1.1059   -1.3192 F   0  0  0  0  0  0  0  0  0  0  0  0
   -8.9711   -1.4646   -1.2976 F   0  0  0  0  0  0  0  0  0  0  0  0
   -7.1943   -3.5124   -1.4660 F   0  0  0  0  0  0  0  0  0  0  0  0
   -4.5949   -3.0428   -1.7917 F   0  0  0  0  0  0  0  0  0  0  0  0
  1 12  1  0
  1 13  2  0
  1 15  1  0
  2 12  1  0
  2 14  2  0
  2 16  1  0
  3 15  1  0
  3 17  2  0
  3 18  1  0
  4  6  1  0
  5  6  2  0
  5 27  1  0
  7  6  1  0
  7  8  2  0
  7 23  1  0
  8  9  1  0
  8 24  1  0
  9 10  2  0
  9 25  1  0
 10  5  1  0
 10 26  1  0
 11 22  1  0
 13 14  1  0
 19  4  1  6
 19 18  1  0
 19 20  1  0
 20 21  2  0
 20 22  1  0
M  END
>  <DRUGBANK_ID>  (1) 
DB07988

>  <COMMON_NAME>  (1) 
2-[3-(5-Mercapto-[1,3,4]thiadiazol-2yl)-ureido]-N-methyl-3-pentafluorophenyl-propionamide

$$$$
