
     RDKit          3D

 40 41  0  0  0  0  0  0  0  0999 V2000
   -4.9890  -18.5257    4.9512 C   0  0  0  0  0  0  0  0  0  0  0  0
   -7.2619  -15.7344    6.0464 C   0  0  0  0  0  0  0  0  0  0  0  0
   -4.4041  -18.4800    6.1538 C   0  0  0  0  0  0  0  0  0  0  0  0
   -6.5224  -17.5091    5.2011 C   0  0  0  0  0  0  0  0  0  0  0  0
   -7.8306  -13.8817    6.1593 N   0  0  0  0  0  0  0  0  0  0  0  0
   -6.7579  -17.0975    6.9966 C   0  0  0  0  0  0  0  0  0  0  0  0
   -5.3046  -18.2618    7.2934 C   0  0  0  0  0  0  0  0  0  0  0  0
   -8.3673  -11.9714    5.8446 C   0  0  0  0  0  0  0  0  0  0  0  0
   -2.6218  -11.5013    3.8256 C   0  0  0  0  0  0  0  0  0  0  0  0
   -3.3483  -12.5622    3.7863 C   0  0  0  0  0  0  0  0  0  0  0  0
   -2.4515  -10.7593    5.1738 C   0  0  2  0  0  0  0  0  0  0  0  0
   -2.2214  -12.5080    6.8149 C   0  0  0  0  0  0  0  0  0  0  0  0
   -7.8828  -10.0979    6.3527 C   0  0  0  0  0  0  0  0  0  0  0  0
   -3.4417  -13.7055    2.8101 C   0  0  1  0  0  0  0  0  0  0  0  0
   -2.8649  -11.3724    6.3978 O   0  0  0  0  0  0  0  0  0  0  0  0
   -4.3145  -18.4757    3.4354 C   0  0  0  0  0  0  0  0  0  0  0  0
   -2.5493  -14.9120    3.0490 C   0  0  2  0  0  0  0  0  0  0  0  0
   -2.9591  -15.3291    4.3654 C   0  0  2  0  0  0  0  0  0  0  0  0
   -5.7720   -9.2750    5.5222 C   0  0  0  0  0  0  0  0  0  0  0  0
   -6.8203  -18.7952    4.9797 O   0  0  0  0  0  0  0  0  0  0  0  0
   -7.1438   -9.7043    5.3118 C   0  0  0  0  0  0  0  0  0  0  0  0
   -9.5020  -11.4080    5.4129 O   0  0  0  0  0  0  0  0  0  0  0  0
   -4.8635  -18.5517    8.4088 O   0  0  0  0  0  0  0  0  0  0  0  0
   -3.2343   -9.5254    5.0180 C   0  0  2  0  0  0  0  0  0  0  0  0
   -4.8587  -15.8464    4.2846 C   0  0  0  0  0  0  0  0  0  0  0  0
   -3.6514  -17.4308    6.4076 O   0  0  0  0  0  0  0  0  0  0  0  0
   -2.6462  -13.0854    7.8183 O   0  0  0  0  0  0  0  0  0  0  0  0
   -4.7721   -9.8439    4.8279 C   0  0  0  0  0  0  0  0  0  0  0  0
   -5.0290  -17.1210    3.0426 C   0  0  2  0  0  0  0  0  0  0  0  0
   -1.3414  -13.1034    5.8939 N   0  0  0  0  0  0  0  0  0  0  0  0
   -1.1656  -14.7320    3.2895 O   0  0  0  0  0  0  0  0  0  0  0  0
   -2.8430  -14.7082    5.7073 O   0  0  0  0  0  0  0  0  0  0  0  0
   -2.2502  -11.2939    2.4477 C   0  0  0  0  0  0  0  0  0  0  0  0
   -2.7099   -8.7994    3.7260 O   0  0  0  0  0  0  0  0  0  0  0  0
   -7.7692   -8.4208    7.2808 C   0  0  0  0  0  0  0  0  0  0  0  0
   -4.9109  -14.0021    2.6582 C   0  0  0  0  0  0  0  0  0  0  0  0
   -6.4769  -17.3805    2.8752 C   0  0  0  0  0  0  0  0  0  0  0  0
   -4.0684  -14.0900    5.8973 C   0  0  0  0  0  0  0  0  0  0  0  0
   -1.3192   -8.9748    3.5791 C   0  0  0  0  0  0  0  0  0  0  0  0
   -3.2777  -17.1869    5.1965 C   0  0  0  0  0  0  0  0  0  0  0  0
  2  4  1  0
  3  1  2  0
  4  1  1  0
  5  2  1  0
  6  2  2  0
  7  3  1  0
  7  6  1  0
  8  5  1  0
  9 10  2  0
 10 14  1  0
 11  9  1  0
 11 24  1  0
 11 15  1  1
 12 15  1  0
 13  8  1  0
 14 17  1  0
 14 36  1  1
 16  1  1  0
 17 18  1  0
 17 31  1  1
 18 25  1  0
 18 32  1  1
 19 21  1  0
 20  4  2  0
 21 13  2  0
 22  8  2  0
 23  7  2  0
 24 28  1  0
 24 34  1  6
 25 29  1  0
 26  3  1  0
 26 40  1  0
 27 12  2  0
 28 19  2  0
 29 16  1  0
 29 37  1  1
 30 12  1  0
 33  9  1  0
 35 13  1  0
 38 32  1  0
 39 34  1  0
M  END
>  <DRUGBANK_ID>  (1) 
DB02424

>  <SECONDARY_ACCESSION_NUMBERS>  (1) 
EXPT01571

>  <COMMON_NAME>  (1) 
Geldanamycin

>  <CAS_NUMBER>  (1) 
30562-34-6

>  <UNII>  (1) 
Z3K3VJ16KU

$$$$
