
     RDKit          3D

 35 38  0  0  0  0  0  0  0  0999 V2000
    1.1147    0.1047    0.0584 C   0  0  0  0  0  0  0  0  0  0  0  0
    0.6704   -0.0372   -1.3876 C   0  0  0  0  0  0  0  0  0  0  0  0
    1.1752   -1.3553   -1.9716 C   0  0  0  0  0  0  0  0  0  0  0  0
    0.6147   -2.5472   -1.1964 C   0  0  0  0  0  0  0  0  0  0  0  0
   -0.9156   -2.5684   -1.2985 C   0  0  0  0  0  0  0  0  0  0  0  0
   -1.4213   -2.6163   -2.7616 C   0  0  0  0  0  0  0  0  0  0  0  0
   -0.9156   -3.7066   -3.7116 C   0  0  0  0  0  0  0  0  0  0  0  0
   -1.7081   -4.3358   -4.4566 O   0  0  0  0  0  0  0  0  0  0  0  0
    0.4300   -3.9116   -3.6390 O   0  0  0  0  0  0  0  0  0  0  0  0
    1.0393   -5.1565   -4.0980 C   0  0  0  0  0  0  0  0  0  0  0  0
    0.8777   -6.3038   -3.1096 C   0  0  0  0  0  0  0  0  0  0  0  0
   -0.5080   -6.2903   -2.8310 N   0  0  0  0  0  0  0  0  0  0  0  0
   -1.0731   -5.6497   -1.6742 C   0  0  0  0  0  0  0  0  0  0  0  0
   -1.0164   -6.4445   -0.3915 C   0  0  0  0  0  0  0  0  0  0  0  0
   -1.5340   -7.8047   -0.4790 N   0  0  0  0  0  0  0  0  0  0  0  0
   -0.8889   -8.4527   -1.6210 C   0  0  0  0  0  0  0  0  0  0  0  0
   -1.0043   -7.5856   -2.9053 C   0  0  0  0  0  0  0  0  0  0  0  0
   -2.9968   -7.9027   -0.5847 C   0  0  0  0  0  0  0  0  0  0  0  0
   -3.7379   -7.4591   -1.8625 C   0  0  0  0  0  0  0  0  0  0  0  0
   -3.5747   -8.3001   -3.2500 C   0  0  0  0  0  0  0  0  0  0  0  0
   -3.8161   -9.7098   -3.1246 N   0  0  0  0  0  0  0  0  0  0  0  0
   -2.8097  -10.7127   -3.3144 C   0  0  0  0  0  0  0  0  0  0  0  0
   -1.4365  -10.5165   -3.6476 C   0  0  0  0  0  0  0  0  0  0  0  0
   -0.4055  -11.4643   -3.7060 C   0  0  0  0  0  0  0  0  0  0  0  0
   -0.7518  -12.7682   -3.5504 C   0  0  0  0  0  0  0  0  0  0  0  0
   -2.0950  -13.0538   -3.2943 C   0  0  0  0  0  0  0  0  0  0  0  0
   -3.1055  -12.0581   -3.1516 C   0  0  0  0  0  0  0  0  0  0  0  0
   -4.7386  -12.6296   -2.7373 S   0  0  0  0  0  0  0  0  0  0  0  0
   -5.6991  -11.1399   -2.6372 C   0  0  0  0  0  0  0  0  0  0  0  0
   -5.1970   -9.8777   -2.8732 C   0  0  0  0  0  0  0  0  0  0  0  0
   -6.0999   -8.7623   -2.8375 C   0  0  0  0  0  0  0  0  0  0  0  0
   -7.3939   -8.8653   -2.4035 C   0  0  0  0  0  0  0  0  0  0  0  0
   -7.8839  -10.1262   -2.1842 C   0  0  0  0  0  0  0  0  0  0  0  0
   -7.0523  -11.2475   -2.3335 C   0  0  0  0  0  0  0  0  0  0  0  0
   -8.3255   -7.4425   -2.1623 Cl  0  0  0  0  0  0  0  0  0  0  0  0
  1  2  1  0
  2  3  1  0
  3  4  1  0
  4  5  1  0
  5  6  1  0
  6  7  1  0
  7  8  2  0
  7  9  1  0
  9 10  1  0
 10 11  1  0
 11 12  1  0
 12 13  1  0
 12 17  1  0
 13 14  1  0
 14 15  1  0
 15 16  1  0
 15 18  1  0
 16 17  1  0
 18 19  1  0
 19 20  1  0
 20 21  1  0
 21 22  1  0
 21 30  1  0
 22 23  2  0
 22 27  1  0
 23 24  1  0
 24 25  2  0
 25 26  1  0
 26 27  2  0
 27 28  1  0
 28 29  1  0
 29 30  2  0
 29 34  1  0
 30 31  1  0
 31 32  2  0
 32 33  1  0
 32 35  1  0
 33 34  2  0
M  END
>  <DRUGBANK_ID>  (1) 
DB14651

>  <SECONDARY_ACCESSION_NUMBERS>  (1) 
DBSALT000936

>  <COMMON_NAME>  (1) 
Perphenazine enanthate

>  <CAS_NUMBER>  (1) 
17528-28-8

>  <UNII>  (1) 
Z6RS3DKN8J

>  <SYNONYMS>  (1) 
Perphenazine enantate

$$$$
