1CM
     RDKit          3D

 18 19  0  0  0  0  0  0  0  0999 V2000
    3.9250   -0.4595    2.1062 O   0  0  0  0  0  0  0  0  0  0  0  0
    3.8985    0.7222    1.7392 C   0  0  0  0  0  0  0  0  0  0  0  0
    3.0362    1.1535    0.5447 C   0  0  2  0  0  0  0  0  0  0  0  0
    2.0852    0.0098    0.0563 C   0  0  0  0  0  0  0  0  0  0  0  0
    2.6686   -1.1807   -0.7131 C   0  0  0  0  0  0  0  0  0  0  0  0
    4.6803    0.9585   -1.3716 C   0  0  0  0  0  0  0  0  0  0  0  0
    3.8541    1.7643   -0.5774 C   0  0  0  0  0  0  0  0  0  0  0  0
    4.4711    3.6471   -1.9712 C   0  0  0  0  0  0  0  0  0  0  0  0
    5.2154    2.8038   -2.7968 C   0  0  0  0  0  0  0  0  0  0  0  0
    4.5601    1.7443    2.4176 N   0  0  0  0  0  0  0  0  0  0  0  0
    5.3637    1.4940    3.5583 C   0  0  0  0  0  0  0  0  0  0  0  0
    6.1982    0.3792    3.6125 C   0  0  0  0  0  0  0  0  0  0  0  0
    5.2786    1.4465   -2.5237 C   0  0  0  0  0  0  0  0  0  0  0  0
    6.9606    0.1719    4.7483 C   0  0  0  0  0  0  0  0  0  0  0  0
    6.9256    0.9764    5.8297 N   0  0  0  0  0  0  0  0  0  0  0  0
    6.1014    2.0437    5.7594 C   0  0  0  0  0  0  0  0  0  0  0  0
    3.7746    3.1300   -0.8756 C   0  0  0  0  0  0  0  0  0  0  0  0
    5.3317    2.3628    4.6465 C   0  0  0  0  0  0  0  0  0  0  0  0
  1  2  2  0
  2 10  1  0
  3  7  1  0
  3  4  1  6
  3  2  1  0
  4  5  1  0
  6  7  2  0
  6 13  1  0
  7 17  1  0
  8  9  1  0
  8 17  2  0
  9 13  2  0
 10 11  1  0
 11 12  2  0
 11 18  1  0
 12 14  1  0
 14 15  2  0
 15 16  1  0
 16 18  2  0
M  END
>  <DRUGBANK_ID>  (1) 
DB06890

>  <COMMON_NAME>  (1) 
(2R)-2-PHENYL-N-PYRIDIN-4-YLBUTANAMIDE

$$$$
