GFA
     RDKit          3D

 26 28  0  0  0  0  0  0  0  0999 V2000
    0.9905    0.1251    0.0977 O   0  0  0  0  0  0  0  0  0  0  0  0
   -1.8922    0.6242    5.2122 Cl  0  0  0  0  0  0  0  0  0  0  0  0
    3.5804    0.4006   -1.9772 O   0  0  0  0  0  0  0  0  0  0  0  0
    1.9813    2.4847    0.6486 O   0  0  0  0  0  0  0  0  0  0  0  0
    2.4987   -1.5656   -2.0515 N   0  0  0  0  0  0  0  0  0  0  0  0
   -0.7050   -0.5860    1.6119 C   0  0  0  0  0  0  0  0  0  0  0  0
    0.7224    1.2356    2.2290 C   0  0  0  0  0  0  0  0  0  0  0  0
    0.0003    1.3423    3.4327 C   0  0  0  0  0  0  0  0  0  0  0  0
    2.2869    3.1972    2.7857 C   0  0  0  0  0  0  0  0  0  0  0  0
    1.6777    2.2882    1.8295 C   0  0  0  0  0  0  0  0  0  0  0  0
    0.4060    0.2261    1.3304 C   0  0  0  0  0  0  0  0  0  0  0  0
    2.7475    2.7688    4.0310 C   0  0  0  0  0  0  0  0  0  0  0  0
   -1.0357    0.4621    3.7322 C   0  0  0  0  0  0  0  0  0  0  0  0
    0.4989   -2.3950   -0.9537 C   0  0  0  0  0  0  0  0  0  0  0  0
    2.3890   -0.1950    0.0572 C   0  0  0  0  0  0  0  0  0  0  0  0
    1.7476   -2.6191   -1.5191 C   0  0  0  0  0  0  0  0  0  0  0  0
    3.2130    5.3801    3.1140 C   0  0  0  0  0  0  0  0  0  0  0  0
    2.8342   -0.3973   -1.4010 C   0  0  0  0  0  0  0  0  0  0  0  0
   -1.4082   -0.5003    2.8149 C   0  0  0  0  0  0  0  0  0  0  0  0
   -0.1868   -3.4041   -0.2839 C   0  0  0  0  0  0  0  0  0  0  0  0
    2.2244   -3.9199   -1.5841 C   0  0  0  0  0  0  0  0  0  0  0  0
    2.4895    4.5016    2.3331 C   0  0  0  0  0  0  0  0  0  0  0  0
    1.5226   -4.9444   -0.9367 C   0  0  0  0  0  0  0  0  0  0  0  0
    3.6427    4.9783    4.3788 C   0  0  0  0  0  0  0  0  0  0  0  0
    0.3533   -4.6731   -0.2292 C   0  0  0  0  0  0  0  0  0  0  0  0
    3.4039    3.6811    4.8429 C   0  0  0  0  0  0  0  0  0  0  0  0
  1 11  1  0
  1 15  1  0
  2 13  1  0
  3 18  2  0
  4 10  2  0
  5 16  1  0
  5 18  1  0
  6 11  2  0
  6 19  1  0
  7  8  2  0
  7 10  1  0
  7 11  1  0
  8 13  1  0
  9 10  1  0
  9 12  2  0
  9 22  1  0
 12 26  1  0
 13 19  2  0
 14 16  2  0
 14 20  1  0
 15 18  1  0
 16 21  1  0
 17 22  2  0
 17 24  1  0
 20 25  2  0
 21 23  2  0
 23 25  1  0
 24 26  2  0
M  END
>  <DRUGBANK_ID>  (1) 
DB07826

>  <COMMON_NAME>  (1) 
2-[4-chloro-2-(phenylcarbonyl)phenoxy]-N-phenylacetamide

$$$$
