
     RDKit          3D

 25 26  0  0  0  0  0  0  0  0999 V2000
    0.9440   -0.1316    0.0377 N   0  0  0  0  0  0  0  0  0  0  0  0
    0.2985    1.0366   -0.2511 C   0  0  0  0  0  0  0  0  0  0  0  0
   -0.9231    1.1882   -0.3094 O   0  0  0  0  0  0  0  0  0  0  0  0
    1.0733    2.1268   -0.4899 N   0  0  0  0  0  0  0  0  0  0  0  0
    2.5034    2.3107   -0.6968 C   0  0  0  0  0  0  0  0  0  0  0  0
    2.9332    2.6923   -2.1261 C   0  0  0  0  0  0  0  0  0  0  0  0
    2.4124    4.3641   -2.7153 S   0  0  0  0  0  0  0  0  0  0  0  0
    0.5795    4.2469   -2.9023 C   0  0  0  0  0  0  0  0  0  0  0  0
   -0.4272    3.2691   -4.9324 O   0  0  0  0  0  0  0  0  0  0  0  0
    0.1689    3.0698   -3.7108 C   0  0  0  0  0  0  0  0  0  0  0  0
    0.2977    1.7154   -3.4966 C   0  0  0  0  0  0  0  0  0  0  0  0
   -0.0978    1.0519   -4.6499 C   0  0  0  0  0  0  0  0  0  0  0  0
   -0.5832    2.0237   -5.4854 C   0  0  0  0  0  0  0  0  0  0  0  0
   -1.2307    1.8518   -6.8084 C   0  0  0  0  0  0  0  0  0  0  0  0
   -2.6646    2.1806   -6.8137 N   0  0  0  0  0  0  0  0  0  0  0  0
   -3.2129    1.8810   -8.1371 C   0  0  0  0  0  0  0  0  0  0  0  0
   -3.4005    1.4206   -5.7964 C   0  0  0  0  0  0  0  0  0  0  0  0
    0.2459   -1.2817    0.4709 C   0  0  0  0  0  0  0  0  0  0  0  0
   -0.8922   -1.7452   -0.1900 C   0  0  0  0  0  0  0  0  0  0  0  0
   -1.5608   -2.8839    0.2721 C   0  0  0  0  0  0  0  0  0  0  0  0
   -1.1240   -3.5579    1.4235 C   0  0  0  0  0  0  0  0  0  0  0  0
    0.0215   -3.0818    2.0796 C   0  0  0  0  0  0  0  0  0  0  0  0
    0.7158   -1.9679    1.5923 C   0  0  0  0  0  0  0  0  0  0  0  0
   -1.8510   -4.7601    1.9611 C   0  0  0  0  0  0  0  0  0  0  0  0
   -2.9271   -3.4393   -0.6301 Cl  0  0  0  0  0  0  0  0  0  0  0  0
  1  2  1  0
  1 18  1  0
  2  3  2  0
  2  4  1  0
  4  5  1  0
  5  6  1  0
  6  7  1  0
  7  8  1  0
  8 10  1  0
  9 10  1  0
  9 13  1  0
 10 11  2  0
 11 12  1  0
 12 13  2  0
 13 14  1  0
 14 15  1  0
 15 16  1  0
 15 17  1  0
 18 19  2  0
 18 23  1  0
 19 20  1  0
 20 21  2  0
 20 25  1  0
 21 22  1  0
 21 24  1  0
 22 23  2  0
M  END
>  <DRUGBANK_ID>  (1) 
DB08027

>  <COMMON_NAME>  (1) 
CAP-1

>  <CAS_NUMBER>  (1) 
564475-13-4

>  <UNII>  (1) 
X5U1W7S3VQ

$$$$
