
     RDKit          3D

 15 16  0  0  0  0  0  0  0  0999 V2000
    1.8494    0.0105   -0.8403 S   0  0  0  0  0  0  0  0  0  0  0  0
   -2.7864    0.0387   -0.8318 O   0  0  0  0  0  0  0  0  0  0  0  0
    3.8447    6.3865    1.4879 O   0  0  0  0  0  0  0  0  0  0  0  0
   -1.1044    1.0368    0.3787 N   0  0  0  0  0  0  0  0  0  0  0  0
   -1.1258   -1.1767    0.2324 N   0  0  0  0  0  0  0  0  0  0  0  0
    0.1044    0.6345    1.0728 C   0  0  1  0  0  0  0  0  0  0  0  0
    0.0988   -0.9020    0.9570 C   0  0  2  0  0  0  0  0  0  0  0  0
    1.3886    1.1906    0.4403 C   0  0  2  0  0  0  0  0  0  0  0  0
    1.3544   -1.3693    0.2149 C   0  0  0  0  0  0  0  0  0  0  0  0
    1.2303    2.6139   -0.0775 C   0  0  0  0  0  0  0  0  0  0  0  0
    0.8553    3.5533    1.0780 C   0  0  0  0  0  0  0  0  0  0  0  0
   -1.7769   -0.0301   -0.1506 C   0  0  0  0  0  0  0  0  0  0  0  0
    1.9397    3.6021    2.1621 C   0  0  0  0  0  0  0  0  0  0  0  0
    3.2885    4.0479    1.6081 C   0  0  0  0  0  0  0  0  0  0  0  0
    3.1858    5.4466    1.0586 C   0  0  0  0  0  0  0  0  0  0  0  0
  1  8  1  0
  1  9  1  0
  2 12  2  0
  3 15  2  0
  6  4  1  6
  4 12  1  0
  5  7  1  0
  5 12  1  0
  6  7  1  0
  6  8  1  0
  7  9  1  6
  8 10  1  6
 10 11  1  0
 11 13  1  0
 13 14  1  0
 14 15  1  0
M  END
>  <DRUGBANK_ID>  (1) 
DB07497

>  <COMMON_NAME>  (1) 
5-(hexahydro-2-oxo-1H-thieno[3,4-D]imidazol-6-yl)pentanal

>  <SYNONYMS>  (1) 
Biotin aldehyde

$$$$
