7X1
     RDKit          3D

 33 37  0  0  0  0  0  0  0  0999 V2000
    1.1343   -0.8684    0.2250 C   0  0  0  0  0  0  0  0  0  0  0  0
    1.3530   -0.3705   -1.5650 O   0  0  0  0  0  0  0  0  0  0  0  0
    1.3808    0.9257   -2.3556 C   0  0  0  0  0  0  0  0  0  0  0  0
    0.2028    1.5563   -3.1014 C   0  0  0  0  0  0  0  0  0  0  0  0
    0.3917    2.3586   -4.2112 C   0  0  0  0  0  0  0  0  0  0  0  0
   -0.6029    2.8489   -5.1191 C   0  0  0  0  0  0  0  0  0  0  0  0
   -1.9956    2.5823   -5.0300 N   0  0  0  0  0  0  0  0  0  0  0  0
   -2.9718    3.0041   -5.9798 C   0  0  0  0  0  0  0  0  0  0  0  0
   -4.1272    3.6728   -5.5632 C   0  0  0  0  0  0  0  0  0  0  0  0
   -4.4893    3.9497   -4.2718 O   0  0  0  0  0  0  0  0  0  0  0  0
   -5.7890    4.5494   -4.4652 C   0  0  0  0  0  0  0  0  0  0  0  0
   -6.0705    4.8478   -5.8460 O   0  0  0  0  0  0  0  0  0  0  0  0
   -5.0449    4.1932   -6.4595 C   0  0  0  0  0  0  0  0  0  0  0  0
   -4.9009    4.0512   -7.8234 C   0  0  0  0  0  0  0  0  0  0  0  0
   -3.8000    3.3282   -8.2824 C   0  0  0  0  0  0  0  0  0  0  0  0
   -2.8550    2.7999   -7.3769 C   0  0  0  0  0  0  0  0  0  0  0  0
   -1.5931    1.8339   -8.0761 Cl  0  0  0  0  0  0  0  0  0  0  0  0
   -0.2181    3.7121   -6.0656 N   0  0  0  0  0  0  0  0  0  0  0  0
    1.0865    3.9927   -6.1435 C   0  0  0  0  0  0  0  0  0  0  0  0
    2.0792    3.5088   -5.3859 N   0  0  0  0  0  0  0  0  0  0  0  0
    1.7454    2.6797   -4.4155 C   0  0  0  0  0  0  0  0  0  0  0  0
    2.8074    2.1712   -3.5929 C   0  0  0  0  0  0  0  0  0  0  0  0
    2.6638    1.2758   -2.5525 C   0  0  0  0  0  0  0  0  0  0  0  0
    3.7107    0.8004   -1.8012 O   0  0  0  0  0  0  0  0  0  0  0  0
    3.3721    0.0727   -0.6009 C   0  0  0  0  0  0  0  0  0  0  0  0
    2.0992    1.0545    0.4600 C   0  0  0  0  0  0  0  0  0  0  0  0
    0.2623    1.0177   -0.3233 C   0  0  0  0  0  0  0  0  0  0  0  0
   -0.6493   -0.5661   -1.2755 N   0  0  0  0  0  0  0  0  0  0  0  0
   -0.1645   -0.9628   -2.8929 C   0  0  0  0  0  0  0  0  0  0  0  0
   -0.5336   -2.1966   -3.6158 C   0  0  0  0  0  0  0  0  0  0  0  0
    0.1205   -3.3681   -2.9539 C   0  0  0  0  0  0  0  0  0  0  0  0
   -0.3367   -3.4513   -1.5301 C   0  0  0  0  0  0  0  0  0  0  0  0
   -0.0565   -2.2113   -0.7990 C   0  0  0  0  0  0  0  0  0  0  0  0
  1  2  1  0
  2  3  1  0
  3  4  2  0
  3 23  1  0
  4  5  1  0
  5  6  2  0
  5 21  1  0
  6  7  1  0
  6 18  1  0
  7  8  1  0
  8  9  2  0
  8 16  1  0
  9 10  1  0
  9 13  1  0
 10 11  1  0
 11 12  1  0
 12 13  1  0
 13 14  2  0
 14 15  1  0
 15 16  2  0
 16 17  1  0
 18 19  2  0
 19 20  1  0
 20 21  2  0
 21 22  1  0
 22 23  2  0
 23 24  1  0
 24 25  1  0
 25 26  1  0
 26 27  1  0
 27 28  1  0
 28 29  1  0
 28 33  1  0
 29 30  1  0
 30 31  1  0
 31 32  1  0
 32 33  1  0
M  END
>  <DRUGBANK_ID>  (1) 
DB07249

>  <COMMON_NAME>  (1) 
N-(5-chloro-1,3-benzodioxol-4-yl)-6-methoxy-7-(3-piperidin-1-ylpropoxy)quinazolin-4-amine

$$$$
