
     RDKit          3D

 30 32  0  0  0  0  0  0  0  0999 V2000
    1.4967   -0.1588    0.2215 C   0  0  0  0  0  0  0  0  0  0  0  0
    1.1211   -1.1947    1.1507 O   0  0  0  0  0  0  0  0  0  0  0  0
    1.0153   -2.4181    0.5329 C   0  0  0  0  0  0  0  0  0  0  0  0
    2.2660   -2.8694    0.0982 C   0  0  0  0  0  0  0  0  0  0  0  0
    2.4596   -4.1822   -0.2411 C   0  0  0  0  0  0  0  0  0  0  0  0
    1.3876   -5.0647   -0.1729 C   0  0  0  0  0  0  0  0  0  0  0  0
    0.1041   -4.5913    0.1997 C   0  0  0  0  0  0  0  0  0  0  0  0
   -0.1441   -3.2360    0.5119 C   0  0  0  0  0  0  0  0  0  0  0  0
   -1.6496   -2.8787    0.6662 C   0  0  0  0  0  0  0  0  0  0  0  0
   -2.4890   -3.7812    0.5782 O   0  0  0  0  0  0  0  0  0  0  0  0
   -2.1725   -1.5928    0.7950 N   0  0  0  0  0  0  0  0  0  0  0  0
   -1.4175   -0.3881    0.7358 C   0  0  0  0  0  0  0  0  0  0  0  0
   -1.5968    0.6325   -0.3441 C   0  0  0  0  0  0  0  0  0  0  0  0
   -2.1935    0.2395   -1.5383 C   0  0  0  0  0  0  0  0  0  0  0  0
   -2.2266    1.1102   -2.6140 C   0  0  0  0  0  0  0  0  0  0  0  0
   -1.5801    2.3520   -2.5450 C   0  0  0  0  0  0  0  0  0  0  0  0
   -0.8910    2.7171   -1.3876 C   0  0  0  0  0  0  0  0  0  0  0  0
   -0.8927    1.8594   -0.2991 C   0  0  0  0  0  0  0  0  0  0  0  0
   -1.6015    3.3006   -3.7031 C   0  0  0  0  0  0  0  0  0  0  0  0
   -2.1270    4.5072   -3.3595 F   0  0  0  0  0  0  0  0  0  0  0  0
   -0.3532    3.5531   -4.1829 F   0  0  0  0  0  0  0  0  0  0  0  0
   -2.3317    2.8498   -4.7570 F   0  0  0  0  0  0  0  0  0  0  0  0
    1.6481   -6.5086   -0.5285 C   0  0  0  0  0  0  0  0  0  0  0  0
    1.4410   -7.4914    0.6163 C   0  0  0  0  0  0  0  0  0  0  0  0
    2.2054   -7.0967    1.8496 C   0  0  0  0  0  0  0  0  0  0  0  0
    3.4107   -6.9516    1.9477 O   0  0  0  0  0  0  0  0  0  0  0  0
    1.2934   -6.9040    2.8262 N   0  0  0  0  0  0  0  0  0  0  0  0
    0.0555   -7.0977    2.3628 C   0  0  0  0  0  0  0  0  0  0  0  0
   -0.9788   -6.9201    3.0062 O   0  0  0  0  0  0  0  0  0  0  0  0
    0.0804   -7.5181    1.0696 O   0  0  0  0  0  0  0  0  0  0  0  0
  1  2  1  0
  2  3  1  0
  3  4  2  0
  3  8  1  0
  4  5  1  0
  5  6  2  0
  6  7  1  0
  6 23  1  0
  7  8  2  0
  8  9  1  0
  9 10  2  0
  9 11  1  0
 11 12  1  0
 12 13  1  0
 13 14  2  0
 13 18  1  0
 14 15  1  0
 15 16  2  0
 16 17  1  0
 16 19  1  0
 17 18  2  0
 19 20  1  0
 19 21  1  0
 19 22  1  0
 23 24  1  0
 24 25  1  0
 24 30  1  0
 25 26  2  0
 25 27  1  0
 27 28  1  0
 28 29  2  0
 28 30  1  0
M  END
>  <DRUGBANK_ID>  (1) 
DB12055

>  <COMMON_NAME>  (1) 
MK-0767

>  <CAS_NUMBER>  (1) 
934017-32-0

>  <UNII>  (1) 
Y180U02GSB

$$$$
