
     RDKit          3D

 37 42  0  0  0  0  0  0  0  0999 V2000
   -0.0407    0.2488   -0.0133 N   0  0  0  0  0  0  0  0  0  0  0  0
   -0.0778    1.6859   -0.0146 C   0  0  0  0  0  0  0  0  0  0  0  0
    0.9960    2.5257    0.0012 C   0  0  0  0  0  0  0  0  0  0  0  0
    2.2763    1.7467    0.1050 C   0  0  0  0  0  0  0  0  0  0  0  0
    2.3461    0.3188   -0.0668 C   0  0  0  0  0  0  0  0  0  0  0  0
    3.6372   -0.2295   -0.0832 C   0  0  0  0  0  0  0  0  0  0  0  0
    3.7843   -1.5792   -0.0793 C   0  0  0  0  0  0  0  0  0  0  0  0
    2.6292   -2.3389   -0.0566 C   0  0  0  0  0  0  0  0  0  0  0  0
    1.3654   -1.7994   -0.0666 N   0  0  0  0  0  0  0  0  0  0  0  0
    1.2102   -0.4512   -0.0584 C   0  0  0  0  0  0  0  0  0  0  0  0
   -1.7475    2.3300   -0.0110 S   0  0  0  0  0  0  0  0  0  0  0  0
   -1.3626   -0.2948   -0.0033 C   0  0  0  0  0  0  0  0  0  0  0  0
   -2.3761    0.6856   -0.0007 C   0  0  0  0  0  0  0  0  0  0  0  0
   -3.7289    0.3918    0.0010 C   0  0  0  0  0  0  0  0  0  0  0  0
   -4.1047   -0.9412    0.0007 C   0  0  0  0  0  0  0  0  0  0  0  0
   -3.1240   -1.9435    0.0004 C   0  0  0  0  0  0  0  0  0  0  0  0
   -1.7523   -1.6272   -0.0008 C   0  0  0  0  0  0  0  0  0  0  0  0
    0.8622    4.0663    0.0031 C   0  0  0  0  0  0  0  0  0  0  0  0
   -0.2379    4.6333   -0.0017 O   0  0  0  0  0  0  0  0  0  0  0  0
    1.8800    4.9767    0.0088 N   0  0  0  0  0  0  0  0  0  0  0  0
    3.3542    2.1352    0.4774 O   0  0  0  0  0  0  0  0  0  0  0  0
    3.3038    4.7907   -0.0202 C   0  0  0  0  0  0  0  0  0  0  0  0
    4.0149    5.1027   -1.2904 C   0  0  0  0  0  0  0  0  0  0  0  0
    4.1376    6.4193   -1.6437 C   0  0  0  0  0  0  0  0  0  0  0  0
    4.4899    4.0883   -2.0792 N   0  0  0  0  0  0  0  0  0  0  0  0
    4.5813    6.7925   -2.8522 N   0  0  0  0  0  0  0  0  0  0  0  0
    4.9803    5.7911   -3.6773 C   0  0  0  0  0  0  0  0  0  0  0  0
    5.0066    4.4664   -3.2663 C   0  0  0  0  0  0  0  0  0  0  0  0
    5.3201    6.1944   -5.0700 C   0  0  0  0  0  0  0  0  0  0  0  0
    2.7471   -3.7082    0.1014 N   0  0  0  0  0  0  0  0  0  0  0  0
    3.5671   -4.1191    1.2507 C   0  0  0  0  0  0  0  0  0  0  0  0
    2.8132   -5.2617    1.9414 C   0  0  0  0  0  0  0  0  0  0  0  0
    3.1531   -6.6146    1.4520 N   0  0  0  0  0  0  0  0  0  0  0  0
    3.3761   -6.7009   -0.0017 C   0  0  0  0  0  0  0  0  0  0  0  0
    2.4010   -5.9017   -0.8779 C   0  0  0  0  0  0  0  0  0  0  0  0
    2.9106   -4.4800   -1.1242 C   0  0  0  0  0  0  0  0  0  0  0  0
    2.0956   -7.5427    1.8566 C   0  0  0  0  0  0  0  0  0  0  0  0
  1  2  1  0
  1 10  1  0
  1 12  1  0
  2  3  2  0
  2 11  1  0
  3  4  1  0
  3 18  1  0
  4  5  1  0
  4 21  2  0
  5  6  2  0
  5 10  1  0
  6  7  1  0
  7  8  2  0
  8  9  1  0
  8 30  1  0
  9 10  2  0
 11 13  1  0
 12 13  2  0
 12 17  1  0
 13 14  1  0
 14 15  2  0
 15 16  1  0
 16 17  2  0
 18 19  2  0
 18 20  1  0
 20 22  1  0
 22 23  1  0
 23 24  2  0
 23 25  1  0
 24 26  1  0
 25 28  2  0
 26 27  2  0
 27 28  1  0
 27 29  1  0
 30 31  1  0
 30 36  1  0
 31 32  1  0
 32 33  1  0
 33 34  1  0
 33 37  1  0
 34 35  1  0
 35 36  1  0
M  END
>  <DRUGBANK_ID>  (1) 
DB16846

>  <COMMON_NAME>  (1) 
Pidnarulex

>  <CAS_NUMBER>  (1) 
1138549-36-6

>  <UNII>  (1) 
3R4C5YLB9I

$$$$
