HMDB03818.mol
     RDKit          3D

 21 24  0  0  0  0  0  0  0  0999 V2000
    1.8087    1.0859   -0.2173 C   0  0  0  0  0  0  0  0  0  0  0  0
    2.8823    2.0446   -1.0433 C   0  0  1  0  0  0  0  0  0  0  0  0
    2.4834    2.2251   -2.5147 C   0  0  0  0  0  0  0  0  0  0  0  0
    2.2418    0.8525   -3.0228 C   0  0  0  0  0  0  0  0  0  0  0  0
    0.9090    0.3333   -2.5726 C   0  0  2  0  0  0  0  0  0  0  0  0
    0.5750    1.0377   -1.1885 C   0  0  0  0  0  0  0  0  0  0  0  0
    3.1997    0.1002   -3.5928 C   0  0  0  0  0  0  0  0  0  0  0  0
    3.0521   -1.4049   -3.9571 C   0  0  0  0  0  0  0  0  0  0  0  0
    1.5161   -1.9233   -3.9583 C   0  0  2  0  0  0  0  0  0  0  0  0
    1.0049   -1.2454   -2.5232 C   0  0  2  0  0  0  0  0  0  0  0  0
    0.9256   -3.5905   -4.5929 C   0  0  1  0  0  0  0  0  0  0  0  0
    0.1656   -3.7139   -3.3499 C   0  0  2  0  0  0  0  0  0  0  0  0
   -0.1049   -3.2819   -1.9832 C   0  0  0  0  0  0  0  0  0  0  0  0
   -0.2615   -1.8109   -1.9357 C   0  0  0  0  0  0  0  0  0  0  0  0
   -0.6327   -4.8771   -4.6754 C   0  0  0  0  0  0  0  0  0  0  0  0
   -0.5851   -5.9130   -3.5182 C   0  0  0  0  0  0  0  0  0  0  0  0
    0.7189   -5.3345   -3.3489 C   0  0  2  0  0  0  0  0  0  0  0  0
   -0.1350    0.8255   -3.5810 C   0  0  0  0  0  0  0  0  0  0  0  0
    3.0715    3.4141   -0.6357 O   0  0  0  0  0  0  0  0  0  0  0  0
   -0.9101   -2.6511   -4.4878 C   0  0  0  0  0  0  0  0  0  0  0  0
    1.5137   -5.7661   -2.2891 O   0  0  0  0  0  0  0  0  0  0  0  0
  1  2  1  0
  2  3  1  0
  2 19  1  1
  3  4  1  0
  4  5  1  0
  4  7  2  0
  5  6  1  0
  5 18  1  6
  6  1  1  0
  7  8  1  0
  9  8  1  1
  9 10  1  0
  9 11  1  0
 10  5  1  0
 11 12  1  0
 11 15  1  6
 12 13  1  0
 12 20  1  6
 13 14  1  0
 10 14  1  6
 15 16  1  0
 16 17  1  0
 17 12  1  0
 17 21  1  1
M  END
>  <DRUGBANK_ID>  (1) 
DB01524

>  <COMMON_NAME>  (1) 
Androstenediol

>  <CAS_NUMBER>  (1) 
521-17-5

>  <UNII>  (1) 
95PS51EMXY

>  <SYNONYMS>  (1) 
5-andendiol; 5-androstenediol; androst-5-ene-3beta,17beta-diol; androst-5-enediol; Androstenediol; hermaphrodiol

$$$$
