Structure #1
     RDKit          3D

 16 18  0  0  0  0  0  0  0  0999 V2000
    2.4551   -0.7329   -0.0227 C   0  0  0  0  0  0  0  0  0  0  0  0
    2.4750    0.6540   -0.0117 C   0  0  0  0  0  0  0  0  0  0  0  0
   -2.4099   -0.7338    0.0274 C   0  0  0  0  0  0  0  0  0  0  0  0
    1.2350   -1.4055    0.0010 C   0  0  0  0  0  0  0  0  0  0  0  0
   -1.1975   -1.4077    0.0122 C   0  0  0  0  0  0  0  0  0  0  0  0
   -2.4191    0.6556    0.0494 C   0  0  0  0  0  0  0  0  0  0  0  0
    1.2755    1.3624    0.0137 C   0  0  0  0  0  0  0  0  0  0  0  0
   -2.4451    4.5982   -3.1367 C   0  0  0  0  0  0  0  0  0  0  0  0
   -3.5811    3.5934   -2.9422 C   0  0  0  0  0  0  0  0  0  0  0  0
   -1.3302    2.9200   -0.0539 C   0  0  0  0  0  0  0  0  0  0  0  0
    0.0171   -0.7069    0.0095 C   0  0  0  0  0  0  0  0  0  0  0  0
   -1.2275    1.4035   -0.0034 C   0  0  0  0  0  0  0  0  0  0  0  0
    0.0183    0.7181    0.0054 C   0  0  0  0  0  0  0  0  0  0  0  0
   -2.0176    3.4591   -1.2896 C   0  0  0  0  0  0  0  0  0  0  0  0
   -1.3796    4.2115   -2.1577 N   0  0  0  0  0  0  0  0  0  0  0  0
   -3.3399    3.2380   -1.5743 N   0  0  0  0  0  0  0  0  0  0  0  0
  1  2  2  0
  1  4  1  0
  2  7  1  0
  3  5  2  0
  3  6  1  0
  4 11  2  0
  5 11  1  0
  6 12  2  0
  7 13  2  0
  8  9  1  0
  8 15  1  0
  9 16  1  0
 10 12  1  0
 10 14  1  0
 11 13  1  0
 12 13  1  0
 14 15  2  0
 14 16  1  0
M  END
>  <DRUGBANK_ID>  (1) 
DB06711

>  <COMMON_NAME>  (1) 
Naphazoline

>  <CAS_NUMBER>  (1) 
835-31-4

>  <UNII>  (1) 
H231GF11BV

>  <SYNONYMS>  (1) 
Nafazolin; Nafazolina; Naphazoline

$$$$
