RED
     RDKit          3D

 12 11  0  0  0  0  0  0  0  0999 V2000
    8.1933    1.9851   -5.2543 C   0  0  0  0  0  0  0  0  0  0  0  0
    7.6513    2.2092   -6.3312 O   0  0  0  0  0  0  0  0  0  0  0  0
    9.2333    1.1451   -5.1956 O   0  0  0  0  0  0  0  0  0  0  0  0
    7.8291    2.5538   -3.9199 C   0  0  0  0  0  0  0  0  0  0  0  0
    6.6000    3.4441   -4.0585 C   0  0  0  0  0  0  0  0  0  0  0  0
    5.3448    2.6624   -4.4253 C   0  0  0  0  0  0  0  0  0  0  0  0
    5.0839    1.5269   -3.4630 C   0  0  0  0  0  0  0  0  0  0  0  0
    4.4004    1.8795   -2.1237 C   0  0  2  0  0  0  0  0  0  0  0  0
    2.8699    1.7789   -2.1721 C   0  0  0  0  0  0  0  0  0  0  0  0
    2.2849    0.9526   -3.3139 C   0  0  0  0  0  0  0  0  0  0  0  0
    2.6857   -0.8351   -3.2004 S   0  0  0  0  0  0  0  0  0  0  0  0
    4.7463    3.5276   -1.3733 S   0  0  0  0  0  0  0  0  0  0  0  0
  1  2  2  0
  1  3  1  0
  1  4  1  0
  4  5  1  0
  5  6  1  0
  6  7  1  0
  8 12  1  6
  8  9  1  0
  8  7  1  0
  9 10  1  0
 10 11  1  0
M  END
>  <DRUGBANK_ID>  (1) 
DB03760

>  <SECONDARY_ACCESSION_NUMBERS>  (1) 
EXPT02769

>  <COMMON_NAME>  (1) 
Dihydrolipoic Acid

>  <CAS_NUMBER>  (1) 
462-20-4

>  <UNII>  (1) 
00K1YL9Q69

$$$$
