
     RDKit          3D

 30 31  0  0  1  0  0  0  0  0999 V2000
    0.4994    3.1232   -5.8693 C   0  0  0  0  0  0  0  0  0  0  0  0
   -0.4097    2.9180   -4.6876 C   0  0  0  0  0  0  0  0  0  0  0  0
   -1.3634    4.1071   -4.5617 C   0  0  0  0  0  0  0  0  0  0  0  0
   -0.9504    1.4673   -4.7644 C   0  0  0  0  0  0  0  0  0  0  0  0
   -0.4299    0.5474   -4.0539 O   0  0  0  0  0  0  0  0  0  0  0  0
   -1.9899    1.2262   -5.6710 O   0  0  0  0  0  0  0  0  0  0  0  0
   -2.7617   -0.0083   -5.7473 C   0  0  0  0  0  0  0  0  0  0  0  0
   -3.6700   -0.4385   -4.7303 C   0  0  0  0  0  0  0  0  0  0  0  0
   -4.2814   -1.6646   -4.7788 C   0  0  0  0  0  0  0  0  0  0  0  0
   -4.2934   -2.3669   -5.9453 C   0  0  0  0  0  0  0  0  0  0  0  0
   -3.6540   -1.8137   -7.0659 C   0  0  0  0  0  0  0  0  0  0  0  0
   -2.8159   -0.6798   -6.9592 C   0  0  0  0  0  0  0  0  0  0  0  0
   -5.0541   -3.6481   -5.8897 C   0  0  0  0  0  0  0  0  0  0  0  0
   -6.2237   -3.5370   -6.6716 O   0  0  0  0  0  0  0  0  0  0  0  0
   -3.9919    0.2928   -3.4669 C   0  0  2  0  0  0  0  0  0  0  0  0
   -4.1881   -0.4489   -2.0182 C   0  0  0  0  0  0  0  0  0  0  0  0
   -3.4269    0.0285   -0.6076 C   0  0  0  0  0  0  0  0  0  0  0  0
   -3.1855    1.4877   -0.2497 N   0  0  0  0  0  0  0  0  0  0  0  0
   -3.1787    1.9055    1.1307 C   0  0  0  0  0  0  0  0  0  0  0  0
   -1.7717    1.6030    1.6080 C   0  0  0  0  0  0  0  0  0  0  0  0
   -3.5136    3.4212    1.1671 C   0  0  0  0  0  0  0  0  0  0  0  0
   -2.1124    2.2620   -0.9973 C   0  0  0  0  0  0  0  0  0  0  0  0
   -0.6374    1.9144   -1.1160 C   0  0  0  0  0  0  0  0  0  0  0  0
   -2.4045    1.8083   -2.3029 C   0  0  0  0  0  0  0  0  0  0  0  0
   -4.7265    1.8343   -3.6725 C   0  0  0  0  0  0  0  0  0  0  0  0
   -4.9571    2.7670   -2.5523 C   0  0  0  0  0  0  0  0  0  0  0  0
   -4.6307    4.1393   -2.6256 C   0  0  0  0  0  0  0  0  0  0  0  0
   -4.5708    4.7125   -3.8676 C   0  0  0  0  0  0  0  0  0  0  0  0
   -4.6430    3.8782   -4.9942 C   0  0  0  0  0  0  0  0  0  0  0  0
   -4.6519    2.4624   -4.9138 C   0  0  0  0  0  0  0  0  0  0  0  0
  1  2  1  0
  2  3  1  0
  2  4  1  0
  4  5  2  0
  4  6  1  0
  6  7  1  0
  7  8  2  0
  7 12  1  0
  8  9  1  0
  9 10  2  0
 10 11  1  0
 10 13  1  0
 11 12  2  0
 13 14  1  0
 15 25  1  0
 15 16  1  1
 15  8  1  0
 16 17  1  0
 17 18  1  0
 18 19  1  0
 18 22  1  0
 19 20  1  0
 19 21  1  0
 22 23  1  0
 22 24  1  0
 25 26  2  0
 25 30  1  0
 26 27  1  0
 27 28  2  0
 28 29  1  0
 29 30  2  0
M  END
>  <DRUGBANK_ID>  (1) 
DB06702

>  <COMMON_NAME>  (1) 
Fesoterodine

>  <CAS_NUMBER>  (1) 
286930-02-7

>  <UNII>  (1) 
621G617227

>  <SYNONYMS>  (1) 
FESO; Fesoterodina; Fesoterodine

$$$$
