DRF
     RDKit          3D

 31 34  0  0  0  0  0  0  0  0999 V2000
    0.9162   -0.0713   -0.2083 O   0  0  0  0  0  0  0  0  0  0  0  0
    0.2969    0.9121   -0.9050 C   0  0  0  0  0  0  0  0  0  0  0  0
    0.9189    1.6406   -1.6802 O   0  0  0  0  0  0  0  0  0  0  0  0
   -1.2045    0.9943   -0.6619 C   0  0  1  0  0  0  0  0  0  0  0  0
   -1.7404   -0.0955   -1.4462 O   0  0  0  0  0  0  0  0  0  0  0  0
   -1.2525   -0.0717   -2.7887 C   0  0  0  0  0  0  0  0  0  0  0  0
   -1.7243    1.1820   -3.4952 C   0  0  0  0  0  0  0  0  0  0  0  0
   -1.7774    0.8205    0.7866 C   0  0  0  0  0  0  0  0  0  0  0  0
   -1.8865    1.8754    1.8892 C   0  0  0  0  0  0  0  0  0  0  0  0
   -2.3404    3.0730    1.3146 C   0  0  0  0  0  0  0  0  0  0  0  0
   -2.3766    4.1526    2.2639 C   0  0  0  0  0  0  0  0  0  0  0  0
   -1.5005    4.3941    3.7943 C   0  0  0  0  0  0  0  0  0  0  0  0
   -0.1092    5.7299    3.8174 O   0  0  0  0  0  0  0  0  0  0  0  0
    0.1397    7.2621    2.7410 C   0  0  0  0  0  0  0  0  0  0  0  0
    0.5395    7.2973    1.2500 C   0  0  0  0  0  0  0  0  0  0  0  0
   -0.5290    6.5596    0.4950 N   0  0  0  0  0  0  0  0  0  0  0  0
   -2.0003    7.1730    1.4928 C   0  0  0  0  0  0  0  0  0  0  0  0
   -1.7675    6.8859    3.4231 C   0  0  0  0  0  0  0  0  0  0  0  0
   -1.1375    5.7192    2.2356 O   0  0  0  0  0  0  0  0  0  0  0  0
    0.0980    4.8983    1.9262 C   0  0  0  0  0  0  0  0  0  0  0  0
    0.2010    5.2376    0.6722 C   0  0  0  0  0  0  0  0  0  0  0  0
    0.8250    4.1931    0.0160 C   0  0  0  0  0  0  0  0  0  0  0  0
    1.2448    2.9031    0.6817 C   0  0  0  0  0  0  0  0  0  0  0  0
    1.0362    2.5041    1.9299 C   0  0  0  0  0  0  0  0  0  0  0  0
    0.3895    3.5753    2.3770 C   0  0  0  0  0  0  0  0  0  0  0  0
   -0.7527    7.8956    4.4296 C   0  0  0  0  0  0  0  0  0  0  0  0
   -0.1656    9.4614    3.6542 C   0  0  0  0  0  0  0  0  0  0  0  0
   -0.8248    9.8008    2.0156 C   0  0  0  0  0  0  0  0  0  0  0  0
   -1.7636    8.7368    1.0734 C   0  0  0  0  0  0  0  0  0  0  0  0
   -1.0668    3.1137    4.4304 C   0  0  0  0  0  0  0  0  0  0  0  0
   -1.3268    1.7835    3.4651 C   0  0  0  0  0  0  0  0  0  0  0  0
  1  2  1  0
  2  3  2  0
  2  4  1  0
  4  5  1  0
  4  8  1  1
  5  6  1  0
  6  7  1  0
  8  9  1  0
  9 10  2  0
  9 31  1  0
 10 11  1  0
 11 12  2  0
 12 13  1  0
 12 30  1  0
 13 14  1  0
 14 15  1  0
 15 16  1  0
 16 17  1  0
 16 21  1  0
 17 18  2  0
 17 29  1  0
 18 19  1  0
 18 26  1  0
 19 20  1  0
 20 21  2  0
 20 25  1  0
 21 22  1  0
 22 23  2  0
 23 24  1  0
 24 25  2  0
 26 27  2  0
 27 28  1  0
 28 29  2  0
 30 31  2  0
M  END
>  <DRUGBANK_ID>  (1) 
DB07675

>  <COMMON_NAME>  (1) 
(2S)-2-ETHOXY-3-{4-[2-(10H-PHENOXAZIN-10-YL)ETHOXY]PHENYL}PROPANOIC ACID

$$$$
