
     RDKit          3D

  6  6  0  0  0  0  0  0  0  0999 V2000
    0.7004   -1.1812    0.2596 C   0  0  0  0  0  0  0  0  0  0  0  0
   -0.7371   -1.1659   -0.2585 C   0  0  0  0  0  0  0  0  0  0  0  0
   -1.4198    0.0165    0.1845 O   0  0  0  0  0  0  0  0  0  0  0  0
   -0.7123    1.1856   -0.2550 C   0  0  0  0  0  0  0  0  0  0  0  0
    0.7264    1.1690    0.2605 C   0  0  0  0  0  0  0  0  0  0  0  0
    1.4077   -0.0136   -0.1841 O   0  0  0  0  0  0  0  0  0  0  0  0
  1  2  1  0
  1  6  1  0
  2  3  1  0
  3  4  1  0
  4  5  1  0
  5  6  1  0
M  END
>  <DRUGBANK_ID>  (1) 
DB03316

>  <SECONDARY_ACCESSION_NUMBERS>  (1) 
EXPT01208

>  <COMMON_NAME>  (1) 
1,4-Dioxane

>  <CAS_NUMBER>  (1) 
123-91-1

>  <UNII>  (1) 
J8A3S10O7S

>  <SYNONYMS>  (1) 
1,4-dioxacyclohexane; 1,4-Dioxan; 1,4-Dioxane; di(ethylene oxide); Dioxan-1,4; Dioxane-1,4; glycol ethylene ether; p-Dioxane; tetrahydro-1,4-dioxin; tetrahydro-p-dioxin; tetrahydro-para-dioxin

$$$$
