GVK
     RDKit          3D

 28 32  0  0  0  0  0  0  0  0999 V2000
   -2.2330   -0.0797   -0.0008 Cl  0  0  0  0  0  0  0  0  0  0  0  0
   -0.5186   -0.0601   -0.0213 C   0  0  0  0  0  0  0  0  0  0  0  0
    0.1492    1.1471   -0.0159 C   0  0  0  0  0  0  0  0  0  0  0  0
    1.5422    1.1594   -0.0065 C   0  0  0  0  0  0  0  0  0  0  0  0
    2.3271   -0.0085   -0.0168 C   0  0  0  0  0  0  0  0  0  0  0  0
    1.6019   -1.2137   -0.0811 C   0  0  0  0  0  0  0  0  0  0  0  0
    0.2025   -1.2433   -0.0537 C   0  0  0  0  0  0  0  0  0  0  0  0
    3.8986    0.0325    0.0447 C   0  0  0  0  0  0  0  0  0  0  0  0
    4.4057    0.7762    1.3171 C   0  0  0  0  0  0  0  0  0  0  0  0
    4.2005    2.2887    1.2838 C   0  0  0  0  0  0  0  0  0  0  0  0
    4.7114    2.9072    0.0632 N   0  0  0  0  0  0  0  0  0  0  0  0
    4.2454    2.2992   -1.1794 C   0  0  0  0  0  0  0  0  0  0  0  0
    4.4597    0.7934   -1.1942 C   0  0  0  0  0  0  0  0  0  0  0  0
    4.4931   -1.4137    0.0981 C   0  0  0  0  0  0  0  0  0  0  0  0
    4.1729   -2.2640    1.1780 C   0  0  0  0  0  0  0  0  0  0  0  0
    4.5031   -3.6206    1.1543 C   0  0  0  0  0  0  0  0  0  0  0  0
    5.2410   -4.1543    0.0931 C   0  0  0  0  0  0  0  0  0  0  0  0
    5.5884   -3.3118   -0.9676 C   0  0  0  0  0  0  0  0  0  0  0  0
    5.2463   -1.9608   -0.9537 C   0  0  0  0  0  0  0  0  0  0  0  0
    5.7264   -5.5218    0.1342 C   0  0  0  0  0  0  0  0  0  0  0  0
    4.8437   -6.5524    0.2208 N   0  0  0  0  0  0  0  0  0  0  0  0
    5.3499   -7.8015    0.3060 C   0  0  0  0  0  0  0  0  0  0  0  0
    6.6460   -8.1792    0.3505 N   0  0  0  0  0  0  0  0  0  0  0  0
    7.4583   -7.1164    0.2797 C   0  0  0  0  0  0  0  0  0  0  0  0
    8.8197   -7.1098    0.3335 N   0  0  0  0  0  0  0  0  0  0  0  0
    9.2394   -5.8133    0.2353 C   0  0  0  0  0  0  0  0  0  0  0  0
    8.2236   -4.9833    0.1178 N   0  0  0  0  0  0  0  0  0  0  0  0
    7.0998   -5.7835    0.1595 C   0  0  0  0  0  0  0  0  0  0  0  0
  1  2  1  0
  2  3  2  0
  2  7  1  0
  3  4  1  0
  4  5  2  0
  5  6  1  0
  5  8  1  0
  6  7  2  0
  8  9  1  0
  8 13  1  0
  8 14  1  0
  9 10  1  0
 10 11  1  0
 11 12  1  0
 12 13  1  0
 14 15  2  0
 14 19  1  0
 15 16  1  0
 16 17  2  0
 17 18  1  0
 17 20  1  0
 18 19  2  0
 20 21  2  0
 20 28  1  0
 21 22  1  0
 22 23  2  0
 23 24  1  0
 24 25  1  0
 24 28  2  0
 25 26  1  0
 26 27  2  0
 27 28  1  0
M  END
>  <DRUGBANK_ID>  (1) 
DB07856

>  <COMMON_NAME>  (1) 
6-{4-[4-(4-CHLOROPHENYL)PIPERIDIN-4-YL]PHENYL}-9H-PURINE

$$$$
