ML2
     RDKit          3D

 18 19  0  0  0  0  0  0  0  0999 V2000
   -2.3893    0.1093   -0.1511 C   0  0  0  0  0  0  0  0  0  0  0  0
   -0.2428    0.7017    0.0062 C   0  0  0  0  0  0  0  0  0  0  0  0
    0.9375    1.4410    0.0112 C   0  0  0  0  0  0  0  0  0  0  0  0
    2.1413    0.7406    0.0090 C   0  0  0  0  0  0  0  0  0  0  0  0
    4.5482   -0.6787   -0.0097 C   0  0  0  0  0  0  0  0  0  0  0  0
   -1.6882   -1.0806   -0.0213 C   0  0  0  0  0  0  0  0  0  0  0  0
   -2.2105   -2.4958    0.0103 C   0  0  0  0  0  0  0  0  0  0  0  0
   -4.2224   -2.0767    1.4456 N   0  0  0  0  0  0  0  0  0  0  0  0
   -5.5180   -2.4805    1.3371 C   0  0  0  0  0  0  0  0  0  0  0  0
   -5.7771   -3.9484    1.2608 C   0  0  0  0  0  0  0  0  0  0  0  0
   -4.3575    0.5115   -0.5420 I   0  0  0  0  0  0  0  0  0  0  0  0
   -1.5310    1.1510   -0.0136 N   0  0  0  0  0  0  0  0  0  0  0  0
    2.1670   -0.6525    0.0094 C   0  0  0  0  0  0  0  0  0  0  0  0
    3.3174   -1.4038   -0.0022 O   0  0  0  0  0  0  0  0  0  0  0  0
    0.9572   -1.3782    0.0167 C   0  0  0  0  0  0  0  0  0  0  0  0
   -0.2862   -0.6929    0.0087 C   0  0  0  0  0  0  0  0  0  0  0  0
   -2.9978   -2.8453    1.2863 C   0  0  0  0  0  0  0  0  0  0  0  0
   -6.4336   -1.6556    1.3223 O   0  0  0  0  0  0  0  0  0  0  0  0
  1 12  1  0
  2  3  2  0
  4  3  1  0
  6  1  2  0
  6 16  1  0
  7 17  1  0
  7  6  1  0
  8 17  1  0
  9  8  1  0
  9 18  2  0
 10  9  1  0
 11  1  1  0
 12  2  1  0
 13  4  2  0
 14 13  1  0
 14  5  1  0
 15 16  2  0
 15 13  1  0
 16  2  1  0
M  END
>  <DRUGBANK_ID>  (1) 
DB08190

>  <COMMON_NAME>  (1) 
N-[2-(2-iodo-5-methoxy-1H-indol-3-yl)ethyl]acetamide

>  <UNII>  (1) 
2Q5TZ5754A

$$$$
