
     RDKit          3D

 42 47  0  0  1  0  0  0  0  0999 V2000
    0.9479   -0.0017    0.0986 O   0  0  0  0  0  0  0  0  0  0  0  0
   -1.2300    1.5567   -1.1425 O   0  0  0  0  0  0  0  0  0  0  0  0
    7.4905   -0.5166    0.9229 O   0  0  0  0  0  0  0  0  0  0  0  0
    6.7486   -6.3592   -0.6235 O   0  0  0  0  0  0  0  0  0  0  0  0
    6.3196   -0.3958   -3.2470 O   0  0  0  0  0  0  0  0  0  0  0  0
   -0.7554   -4.2382   -3.9682 N   0  0  0  0  0  0  0  0  0  0  0  0
    4.2973   -0.7413   -4.1970 N   0  0  0  0  0  0  0  0  0  0  0  0
    6.3643   -2.4137   -1.1884 N   0  0  0  0  0  0  0  0  0  0  0  0
   -1.9862   -3.4926   -4.2575 C   0  0  0  0  0  0  0  0  0  0  0  0
    0.2552   -3.4625   -3.2480 C   0  0  0  0  0  0  0  0  0  0  0  0
   -1.8367   -1.9760   -4.4337 C   0  0  0  0  0  0  0  0  0  0  0  0
   -0.1481   -2.1657   -2.6216 C   0  0  0  0  0  0  0  0  0  0  0  0
   -1.1465   -1.3964   -3.2297 C   0  0  0  0  0  0  0  0  0  0  0  0
   -0.2144   -4.9054   -5.1754 C   0  0  0  0  0  0  0  0  0  0  0  0
    0.2092   -4.0112   -6.4009 C   0  0  0  0  0  0  0  0  0  0  0  0
    0.6169   -1.6431   -1.5803 C   0  0  0  0  0  0  0  0  0  0  0  0
   -1.4432   -0.1381   -2.7130 C   0  0  0  0  0  0  0  0  0  0  0  0
    0.3087   -0.3987   -1.0449 C   0  0  0  0  0  0  0  0  0  0  0  0
   -0.7518    0.3499   -1.5896 C   0  0  0  0  0  0  0  0  0  0  0  0
    1.3875   -3.0909   -6.1263 C   0  0  0  0  0  0  0  0  0  0  0  0
    1.2674   -1.6819   -6.1409 C   0  0  0  0  0  0  0  0  0  0  0  0
    2.4618   -3.6527   -5.4571 C   0  0  0  0  0  0  0  0  0  0  0  0
    3.2153   -1.4602   -4.7363 C   0  0  0  0  0  0  0  0  0  0  0  0
    2.1976   -0.8620   -5.4665 C   0  0  0  0  0  0  0  0  0  0  0  0
    3.1496   -2.8282   -4.5873 C   0  0  0  0  0  0  0  0  0  0  0  0
    6.1802   -3.2286   -2.3061 C   0  0  0  0  0  0  0  0  0  0  0  0
    6.2889   -4.6164   -2.1416 C   0  0  0  0  0  0  0  0  0  0  0  0
    5.8545   -2.6823   -3.5646 C   0  0  0  0  0  0  0  0  0  0  0  0
    7.0245   -2.7982   -0.0161 C   0  0  0  0  0  0  0  0  0  0  0  0
    7.1927   -4.1854    0.2122 C   0  0  0  0  0  0  0  0  0  0  0  0
    6.7279   -5.1410   -0.8273 C   0  0  0  0  0  0  0  0  0  0  0  0
    5.5095   -1.2146   -3.6866 C   0  0  0  0  0  0  0  0  0  0  0  0
    2.3682    0.0338    0.0119 C   0  0  0  0  0  0  0  0  0  0  0  0
   -0.6187    2.0889    0.0247 C   0  0  0  0  0  0  0  0  0  0  0  0
    5.9679   -5.4769   -3.1855 C   0  0  0  0  0  0  0  0  0  0  0  0
    5.7342   -3.5558   -4.6531 C   0  0  0  0  0  0  0  0  0  0  0  0
    7.5123   -1.8922    0.9449 C   0  0  0  0  0  0  0  0  0  0  0  0
    7.8046   -4.6725    1.3706 C   0  0  0  0  0  0  0  0  0  0  0  0
    5.6758   -4.9423   -4.4368 C   0  0  0  0  0  0  0  0  0  0  0  0
    8.1338   -2.3990    2.1016 C   0  0  0  0  0  0  0  0  0  0  0  0
    8.2760   -3.7733    2.3180 C   0  0  0  0  0  0  0  0  0  0  0  0
    6.9676    0.1534   -0.2131 C   0  0  0  0  0  0  0  0  0  0  0  0
  1 18  1  0
  1 33  1  0
  2 19  1  0
  2 34  1  0
  3 37  1  0
  3 42  1  0
  4 31  2  0
  5 32  2  0
  6  9  1  0
  6 10  1  0
  6 14  1  0
  7 23  1  0
  7 32  1  0
  8 26  1  0
  8 29  1  0
  9 11  1  0
 10 12  1  0
 11 13  1  0
 12 13  2  0
 12 16  1  0
 13 17  1  0
 14 15  1  0
 15 20  1  0
 16 18  2  0
 17 19  2  0
 18 19  1  0
 20 21  2  0
 20 22  1  0
 21 24  1  0
 22 25  2  0
 23 24  2  0
 23 25  1  0
 26 27  2  0
 26 28  1  0
 27 31  1  0
 27 35  1  0
 28 32  1  0
 28 36  2  0
 29 30  2  0
 29 37  1  0
 30 31  1  0
 30 38  1  0
 35 39  2  0
 36 39  1  0
 37 40  2  0
 38 41  2  0
 40 41  1  0
M  END
>  <DRUGBANK_ID>  (1) 
DB04881

>  <COMMON_NAME>  (1) 
Elacridar

>  <CAS_NUMBER>  (1) 
143664-11-3

>  <UNII>  (1) 
N488540F94

>  <SYNONYMS>  (1) 
Elacridar

$$$$
