
     RDKit          3D

 35 37  0  0  1  0  0  0  0  0999 V2000
   -5.0053    3.0966    1.6240 C   0  0  0  0  0  0  0  0  0  0  0  0
   -3.5183    3.1789    1.4745 C   0  0  0  0  0  0  0  0  0  0  0  0
   -9.4785    4.2835   -0.5346 C   0  0  0  0  0  0  0  0  0  0  0  0
   -5.5613    1.6727    1.4212 C   0  0  0  0  0  0  0  0  0  0  0  0
   -8.0392    4.2356   -0.9822 C   0  0  0  0  0  0  0  0  0  0  0  0
  -10.0348    2.8746   -0.3241 C   0  0  0  0  0  0  0  0  0  0  0  0
   -2.8934    2.5377    2.6767 C   0  0  0  0  0  0  0  0  0  0  0  0
   -7.0473    1.4845    1.5503 C   0  0  0  0  0  0  0  0  0  0  0  0
   -7.2596    3.4215   -0.0069 C   0  0  0  0  0  0  0  0  0  0  0  0
   -9.2624    2.0987    0.7263 C   0  0  0  0  0  0  0  0  0  0  0  0
   -3.0136    0.9920    2.7404 C   0  0  0  0  0  0  0  0  0  0  0  0
    0.5996    4.1531    1.4508 C   0  0  0  0  0  0  0  0  0  0  0  0
   -0.0081    2.4286   -1.8199 C   0  0  0  0  0  0  0  0  0  0  0  0
   -7.7942    2.0485    0.3609 C   0  0  0  0  0  0  0  0  0  0  0  0
    1.4551    2.8670    1.5216 C   0  0  2  0  0  0  0  0  0  0  0  0
   -0.3352    1.4052   -0.7219 C   0  0  2  0  0  0  0  0  0  0  0  0
    1.2472    2.0524    2.8173 C   0  0  2  0  0  0  0  0  0  0  0  0
    1.7721    0.6184    2.7481 C   0  0  1  0  0  0  0  0  0  0  0  0
    0.4977   -0.8678    0.2357 C   0  0  2  0  0  0  0  0  0  0  0  0
    3.0753    0.5106    1.9585 C   0  0  2  0  0  0  0  0  0  0  0  0
   -0.9564   -0.9780    0.8360 C   0  0  2  0  0  0  0  0  0  0  0  0
    0.8203    0.3421   -0.6541 C   0  0  2  0  0  0  0  0  0  0  0  0
   -1.7940    0.3328    0.7341 C   0  0  2  0  0  0  0  0  0  0  0  0
    2.9894    1.3553    0.6419 C   0  0  2  0  0  0  0  0  0  0  0  0
    0.8541    5.0120    0.3542 O   0  0  0  0  0  0  0  0  0  0  0  0
   -0.7462    3.6405   -1.7255 O   0  0  0  0  0  0  0  0  0  0  0  0
   -0.1391    1.8997    3.0742 O   0  0  0  0  0  0  0  0  0  0  0  0
    1.6362   -0.2007    3.8974 O   0  0  0  0  0  0  0  0  0  0  0  0
    1.1387   -2.0717   -0.1933 O   0  0  0  0  0  0  0  0  0  0  0  0
    3.5244   -0.8250    1.7369 O   0  0  0  0  0  0  0  0  0  0  0  0
   -0.9566   -1.5400    2.1614 O   0  0  0  0  0  0  0  0  0  0  0  0
   -3.0564    0.3094    1.4268 O   0  0  0  0  0  0  0  0  0  0  0  0
    2.7673    2.7688    1.0066 O   0  0  0  0  0  0  0  0  0  0  0  0
   -1.6767    0.8306   -0.6376 O   0  0  0  0  0  0  0  0  0  0  0  0
    2.2074    0.8518   -0.5077 O   0  0  0  0  0  0  0  0  0  0  0  0
  2  1  1  0
  4  1  1  0
  5  3  1  0
  6  3  1  0
  7  2  1  0
  8  4  1  0
  9  5  1  0
 10  6  1  0
 11  7  1  0
 14  8  1  0
 14  9  1  0
 14 10  1  0
 15 12  1  1
 16 13  1  6
 17 15  1  0
 17 27  1  6
 18 17  1  0
 18 28  1  1
 19 29  1  6
 20 18  1  0
 20 30  1  6
 21 19  1  0
 21 31  1  1
 22 16  1  0
 22 19  1  0
 22 35  1  1
 23 21  1  0
 23 32  1  6
 24 20  1  0
 24 35  1  6
 25 12  1  0
 26 13  1  0
 32 11  1  0
 33 15  1  0
 33 24  1  0
 34 16  1  0
 34 23  1  0
M  END
>  <DRUGBANK_ID>  (1) 
DB03472

>  <SECONDARY_ACCESSION_NUMBERS>  (1) 
EXPT02102

>  <COMMON_NAME>  (1) 
Cyclohexyl-Hexyl-Beta-D-Maltoside

$$$$
