
     RDKit          3D

 34 38  0  0  1  0  0  0  0  0999 V2000
    0.7185    0.1191    0.0135 C   0  0  0  0  0  0  0  0  0  0  0  0
    0.0271    0.8342   -1.0790 C   0  0  0  0  0  0  0  0  0  0  0  0
   -1.0572    1.6102   -0.8691 N   0  0  0  0  0  0  0  0  0  0  0  0
   -1.4321    2.0066   -2.1097 N   0  0  0  0  0  0  0  0  0  0  0  0
   -2.6281    2.8033   -2.3040 C   0  0  0  0  0  0  0  0  0  0  0  0
   -2.2519    4.1558   -2.9058 C   0  0  0  0  0  0  0  0  0  0  0  0
   -3.5893    2.0182   -3.1951 C   0  0  0  0  0  0  0  0  0  0  0  0
   -0.6438    1.5687   -3.1343 C   0  0  0  0  0  0  0  0  0  0  0  0
   -0.5818    1.7714   -4.5450 C   0  0  0  0  0  0  0  0  0  0  0  0
    0.4349    1.1787   -5.3164 C   0  0  0  0  0  0  0  0  0  0  0  0
    1.3856    0.4252   -4.7081 C   0  0  0  0  0  0  0  0  0  0  0  0
    1.2767    0.3802   -3.3406 C   0  0  0  0  0  0  0  0  0  0  0  0
    0.2753    0.7959   -2.4839 C   0  0  0  0  0  0  0  0  0  0  0  0
    0.1053   -0.4451    0.9554 O   0  0  0  0  0  0  0  0  0  0  0  0
    2.0696   -0.0012    0.0885 N   0  0  0  0  0  0  0  0  0  0  0  0
    3.1465    0.4366   -0.7735 C   0  0  2  0  0  0  0  0  0  0  0  0
    3.4029   -0.5869   -1.9433 C   0  0  0  0  0  0  0  0  0  0  0  0
    4.5549   -1.4925   -1.7773 C   0  0  2  0  0  0  0  0  0  0  0  0
    4.1701   -2.3143   -0.5582 C   0  0  0  0  0  0  0  0  0  0  0  0
    4.8614   -1.6214    0.5978 C   0  0  0  0  0  0  0  0  0  0  0  0
    5.4494   -0.3770   -0.0242 C   0  0  1  0  0  0  0  0  0  0  0  0
    5.7140   -0.6696   -1.4576 N   0  0  0  0  0  0  0  0  0  0  0  0
    5.9995    0.4611   -2.4510 C   0  0  0  0  0  0  0  0  0  0  0  0
    5.1156    1.7830   -2.7252 C   0  0  0  0  0  0  0  0  0  0  0  0
    4.8941    2.5801   -1.5370 N   0  0  0  0  0  0  0  0  0  0  0  0
    3.8564    3.5852   -1.4813 C   0  0  0  0  0  0  0  0  0  0  0  0
    4.4334    4.7385   -2.2567 C   0  0  0  0  0  0  0  0  0  0  0  0
    5.7822    5.1103   -1.7475 N   0  0  0  0  0  0  0  0  0  0  0  0
    6.0605    6.3033   -1.1376 C   0  0  0  0  0  0  0  0  0  0  0  0
    7.1178    6.5279   -0.5548 O   0  0  0  0  0  0  0  0  0  0  0  0
    4.9854    7.3322   -1.2541 C   0  0  0  0  0  0  0  0  0  0  0  0
    6.7576    4.0316   -1.5605 C   0  0  0  0  0  0  0  0  0  0  0  0
    6.1019    2.9552   -0.7715 C   0  0  0  0  0  0  0  0  0  0  0  0
    4.3544    0.6348    0.1392 C   0  0  0  0  0  0  0  0  0  0  0  0
  1  2  1  0
  1 14  2  0
  1 15  1  0
  2  3  2  0
  2 13  1  0
  3  4  1  0
  4  5  1  0
  5  6  1  0
  5  7  1  0
  8  4  1  0
  8  9  2  0
  9 10  1  0
 11 10  2  0
 12 11  1  0
 13 12  2  0
 13  8  1  0
 16 15  1  1
 16 17  1  0
 16 34  1  0
 18 17  1  1
 18 19  1  0
 18 22  1  0
 20 19  1  0
 21 20  1  1
 21 22  1  0
 22 23  1  0
 23 24  1  0
 24 25  1  0
 25 26  1  0
 25 33  1  0
 26 27  1  0
 27 28  1  0
 28 29  1  0
 29 30  2  0
 29 31  1  0
 32 28  1  0
 33 32  1  0
 34 21  1  0
M  END
>  <DRUGBANK_ID>  (1) 
DB05905

>  <COMMON_NAME>  (1) 
TD-2749

>  <CAS_NUMBER>  (1) 
863248-59-3

>  <UNII>  (1) 
0ZN0AQ6SBV

$$$$
