
     RDKit          3D

  9  9  0  0  0  0  0  0  0  0999 V2000
    0.7999   -0.0406    0.1540 O   0  0  0  0  0  0  0  0  0  0  0  0
    0.4760   -1.4241    0.0416 C   0  0  0  0  0  0  0  0  0  0  0  0
    1.0273   -2.0598   -1.2448 C   0  0  0  0  0  0  0  0  0  0  0  0
    2.5400   -2.0852   -1.2668 C   0  0  0  0  0  0  0  0  0  0  0  0
    3.2628   -0.8864   -1.3088 C   0  0  0  0  0  0  0  0  0  0  0  0
    4.6417   -0.8730   -1.1213 C   0  0  0  0  0  0  0  0  0  0  0  0
    5.3262   -2.0766   -0.9681 C   0  0  0  0  0  0  0  0  0  0  0  0
    4.6315   -3.2824   -1.0137 C   0  0  0  0  0  0  0  0  0  0  0  0
    3.2439   -3.2941   -1.1757 C   0  0  0  0  0  0  0  0  0  0  0  0
  1  2  1  0
  2  3  1  0
  3  4  1  0
  4  5  2  0
  4  9  1  0
  5  6  1  0
  6  7  2  0
  7  8  1  0
  8  9  2  0
M  END
>  <DRUGBANK_ID>  (1) 
DB02192

>  <SECONDARY_ACCESSION_NUMBERS>  (1) 
EXPT02549

>  <COMMON_NAME>  (1) 
Phenylethyl alcohol

>  <CAS_NUMBER>  (1) 
60-12-8

>  <UNII>  (1) 
ML9LGA7468

>  <SYNONYMS>  (1) 
2-phenylethanol; Benzeneethanol; Phenethyl alcohol; Phenylethanol; Phenylethyl alcohol

$$$$
