R88
     RDKit          3D

 25 27  0  0  0  0  0  0  0  0999 V2000
    3.1791    0.1055    0.2243 C   0  0  0  0  0  0  0  0  0  0  0  0
    4.7002    0.1326    0.2196 C   0  0  0  0  0  0  0  0  0  0  0  0
    5.2718    1.2020    0.1914 O   0  0  0  0  0  0  0  0  0  0  0  0
    5.5667   -1.0958    0.1606 C   0  0  0  0  0  0  0  0  0  0  0  0
    5.7713   -1.7211   -1.0629 C   0  0  0  0  0  0  0  0  0  0  0  0
    6.4643   -2.9642   -1.1520 C   0  0  0  0  0  0  0  0  0  0  0  0
    7.0427   -3.5425   -0.0380 C   0  0  0  0  0  0  0  0  0  0  0  0
    7.2618   -5.7648   -1.0296 C   0  0  0  0  0  0  0  0  0  0  0  0
    5.8212   -6.2348   -1.1027 C   0  0  0  0  0  0  0  0  0  0  0  0
    5.0335   -6.1364   -2.1963 C   0  0  0  0  0  0  0  0  0  0  0  0
    3.5658   -6.5469   -2.2755 C   0  0  0  0  0  0  0  0  0  0  0  0
    2.6659   -5.4264   -2.6098 N   0  0  0  0  0  0  0  0  0  0  0  0
    1.2507   -5.7845   -2.6101 C   0  0  0  0  0  0  0  0  0  0  0  0
    2.7552   -4.4326   -1.5883 C   0  0  0  0  0  0  0  0  0  0  0  0
    2.2699   -3.0447   -1.8280 C   0  0  0  0  0  0  0  0  0  0  0  0
    7.0883   -2.7566    1.1172 C   0  0  0  0  0  0  0  0  0  0  0  0
    6.3137   -1.5700    1.2388 C   0  0  0  0  0  0  0  0  0  0  0  0
    2.4370   -1.0517    0.4194 C   0  0  0  0  0  0  0  0  0  0  0  0
    1.0218   -1.0500    0.3194 C   0  0  0  0  0  0  0  0  0  0  0  0
    0.3257    0.1240    0.0979 C   0  0  0  0  0  0  0  0  0  0  0  0
    7.5128   -4.8280    0.0441 O   0  0  0  0  0  0  0  0  0  0  0  0
    3.7100   -3.3589   -1.7319 C   0  0  0  0  0  0  0  0  0  0  0  0
   -1.5595    0.0812   -0.0363 Br  0  0  0  0  0  0  0  0  0  0  0  0
    1.0347    1.3102    0.0017 C   0  0  0  0  0  0  0  0  0  0  0  0
    2.4488    1.2973    0.0444 C   0  0  0  0  0  0  0  0  0  0  0  0
  1  2  1  0
  1 18  2  0
  1 25  1  0
  2  3  2  0
  2  4  1  0
  4  5  2  0
  4 17  1  0
  5  6  1  0
  6  7  2  0
  7 16  1  0
  7 21  1  0
  8  9  1  0
  8 21  1  0
  9 10  2  0
 10 11  1  0
 11 12  1  0
 12 13  1  0
 12 14  1  0
 14 15  1  0
 14 22  1  0
 15 22  1  0
 16 17  2  0
 18 19  1  0
 19 20  2  0
 20 23  1  0
 20 24  1  0
 24 25  2  0
M  END
>  <DRUGBANK_ID>  (1) 
DB08458

>  <COMMON_NAME>  (1) 
(4-BROMOPHENYL)[4-({(2E)-4-[CYCLOPROPYL(METHYL)AMINO]BUT-2-ENYL}OXY)PHENYL]METHANONE

$$$$
