
     RDKit          3D

 13 13  0  0  0  0  0  0  0  0999 V2000
    1.3781   -0.2116    0.0072 C   0  0  0  0  0  0  0  0  0  0  0  0
    0.5009   -1.2966    0.0292 C   0  0  0  0  0  0  0  0  0  0  0  0
   -0.8845   -1.0872    0.0424 C   0  0  0  0  0  0  0  0  0  0  0  0
   -1.3748    0.2268    0.0108 C   0  0  0  0  0  0  0  0  0  0  0  0
   -0.4968    1.3093    0.0247 C   0  0  0  0  0  0  0  0  0  0  0  0
    0.8787    1.0897   -0.0070 C   0  0  0  0  0  0  0  0  0  0  0  0
   -1.8387   -2.2508    0.0836 C   0  0  0  0  0  0  0  0  0  0  0  0
   -2.7143   -2.1692    1.2415 N   0  0  0  0  0  0  0  0  0  0  0  0
   -4.0757   -2.1060    1.0770 C   0  0  0  0  0  0  0  0  0  0  0  0
   -4.9095   -1.9707    2.3347 C   0  0  0  0  0  0  0  0  0  0  0  0
   -5.7433   -0.6946    2.3388 C   0  0  0  0  0  0  0  0  0  0  0  0
   -6.9450   -0.6081    1.0265 Cl  0  0  0  0  0  0  0  0  0  0  0  0
   -4.5930   -2.1747   -0.0377 O   0  0  0  0  0  0  0  0  0  0  0  0
  1  2  2  0
  1  6  1  0
  2  3  1  0
  3  4  2  0
  3  7  1  0
  4  5  1  0
  5  6  2  0
  7  8  1  0
  8  9  1  0
  9 10  1  0
  9 13  2  0
 10 11  1  0
 11 12  1  0
M  END
>  <DRUGBANK_ID>  (1) 
DB09011

>  <COMMON_NAME>  (1) 
Beclamide

>  <CAS_NUMBER>  (1) 
501-68-8

>  <UNII>  (1) 
F5N0ALI65V

>  <SYNONYMS>  (1) 
Beclamida; Beclamide; Beclamidum; Benzchlorpropamide; Benzylamide

$$$$
