
     RDKit          3D

 29 32  0  0  1  0  0  0  0  0999 V2000
    1.8582    1.8766    0.0440 C   0  0  0  0  0  0  0  0  0  0  0  0
    0.4151    2.0107    0.0539 C   0  0  0  0  0  0  0  0  0  0  0  0
   -0.3803    0.9374    0.2202 C   0  0  0  0  0  0  0  0  0  0  0  0
    0.2993   -0.2348    0.2016 C   0  0  0  0  0  0  0  0  0  0  0  0
    1.5587   -0.2682   -0.4231 C   0  0  0  0  0  0  0  0  0  0  0  0
    2.4601    0.6241   -0.0838 C   0  0  0  0  0  0  0  0  0  0  0  0
    3.8830    0.1064    0.0727 C   0  0  0  0  0  0  0  0  0  0  0  0
    4.1341   -0.8143    1.3521 C   0  0  0  0  0  0  0  0  0  0  0  0
    3.7538   -2.2309    1.4861 O   0  0  0  0  0  0  0  0  0  0  0  0
    2.4385   -2.6866    1.3584 C   0  0  0  0  0  0  0  0  0  0  0  0
    1.9109   -2.6864    0.1142 N   0  0  0  0  0  0  0  0  0  0  0  0
    0.5673   -2.9467   -0.1494 C   0  0  0  0  0  0  0  0  0  0  0  0
   -0.1516   -3.3887    0.9441 C   0  0  0  0  0  0  0  0  0  0  0  0
    0.5902   -3.6895    2.0682 C   0  0  0  0  0  0  0  0  0  0  0  0
    1.8862   -3.3951    2.3591 N   0  0  0  0  0  0  0  0  0  0  0  0
   -0.3199   -4.4171    2.7646 N   0  0  0  0  0  0  0  0  0  0  0  0
   -1.5695   -4.2083    2.2477 C   0  0  0  0  0  0  0  0  0  0  0  0
   -1.5036   -3.5083    1.1439 N   0  0  0  0  0  0  0  0  0  0  0  0
    0.0436   -5.2810    3.8350 C   0  0  1  0  0  0  0  0  0  0  0  0
   -0.6768   -4.8994    5.1027 C   0  0  1  0  0  0  0  0  0  0  0  0
   -0.6905   -6.2363    5.8065 C   0  0  1  0  0  0  0  0  0  0  0  0
   -0.8497   -7.2504    4.6563 C   0  0  2  0  0  0  0  0  0  0  0  0
   -0.3030   -6.6215    3.4795 O   0  0  0  0  0  0  0  0  0  0  0  0
   -2.2859   -7.6702    4.3169 C   0  0  0  0  0  0  0  0  0  0  0  0
   -3.2464   -6.9847    5.1080 O   0  0  0  0  0  0  0  0  0  0  0  0
    0.5486   -6.4325    6.5027 O   0  0  0  0  0  0  0  0  0  0  0  0
   -0.0100   -3.8638    5.8127 O   0  0  0  0  0  0  0  0  0  0  0  0
   -0.1398   -2.4495   -1.3004 N   0  0  0  0  0  0  0  0  0  0  0  0
   -2.0928    0.8343    0.3000 Cl  0  0  0  0  0  0  0  0  0  0  0  0
  1  2  2  0
  1  6  1  0
  2  3  1  0
  3  4  2  0
  3 29  1  0
  4  5  1  0
  5  6  2  0
  6  7  1  0
  7  8  1  0
  8  9  1  0
  9 10  1  0
 10 11  2  0
 10 15  1  0
 11 12  1  0
 12 13  2  0
 12 28  1  0
 13 14  1  0
 13 18  1  0
 14 15  2  0
 14 16  1  0
 16 17  1  0
 17 18  2  0
 19 16  1  6
 19 20  1  0
 19 23  1  0
 20 21  1  0
 20 27  1  1
 21 22  1  0
 21 26  1  6
 22 23  1  0
 22 24  1  6
 24 25  1  0
M  END
>  <DRUGBANK_ID>  (1) 
DB12443

>  <COMMON_NAME>  (1) 
Sonedenoson

>  <CAS_NUMBER>  (1) 
131865-88-8

>  <UNII>  (1) 
2OT4KAG5JL

>  <SYNONYMS>  (1) 
Sonedenoson

$$$$
