
     RDKit          3D

 22 23  0  0  0  0  0  0  0  0999 V2000
    1.0350    0.0626    0.1084 C   0  0  0  0  0  0  0  0  0  0  0  0
   -0.9175    4.1289   -0.5387 C   0  0  0  0  0  0  0  0  0  0  0  0
   -3.8080    1.5145   -2.8744 C   0  0  0  0  0  0  0  0  0  0  0  0
   -3.1204    2.7014   -3.0968 C   0  0  0  0  0  0  0  0  0  0  0  0
   -3.0906    0.3320   -2.7263 C   0  0  0  0  0  0  0  0  0  0  0  0
   -1.7228    2.6916   -3.2126 C   0  0  0  0  0  0  0  0  0  0  0  0
   -1.6897    0.3575   -2.6723 C   0  0  0  0  0  0  0  0  0  0  0  0
    1.1871    2.1080   -1.2996 C   0  0  0  0  0  0  0  0  0  0  0  0
    0.5403    1.5884   -2.6298 C   0  0  0  0  0  0  0  0  0  0  0  0
   -3.1667    0.7439    1.6098 C   0  0  0  0  0  0  0  0  0  0  0  0
   -4.3509    2.6631    2.4723 C   0  0  0  0  0  0  0  0  0  0  0  0
   -3.6356   -0.0351    2.6607 C   0  0  0  0  0  0  0  0  0  0  0  0
   -4.8760    1.8679    3.4903 C   0  0  0  0  0  0  0  0  0  0  0  0
    0.6681    1.5580    0.0421 C   0  0  0  0  0  0  0  0  0  0  0  0
   -1.3531    3.0601    0.4584 C   0  0  0  0  0  0  0  0  0  0  0  0
   -0.9738    1.5496   -2.8699 C   0  0  0  0  0  0  0  0  0  0  0  0
   -3.4949    2.1130    1.5268 C   0  0  0  0  0  0  0  0  0  0  0  0
   -4.4888    0.5320    3.5783 C   0  0  0  0  0  0  0  0  0  0  0  0
   -2.9203    2.9492    0.4054 C   0  0  0  0  0  0  0  0  0  0  0  0
   -0.7577    1.7192    0.2423 N   0  0  0  0  0  0  0  0  0  0  0  0
   -4.9848   -0.2042    4.6148 O   0  0  0  0  0  0  0  0  0  0  0  0
   -3.5416    4.2413    0.3739 O   0  0  0  0  0  0  0  0  0  0  0  0
  4  3  2  0
  5  3  1  0
  6  4  1  0
  7  5  2  0
  9  8  1  0
 12 10  2  0
 13 11  1  0
 14  1  1  0
 14  8  1  0
 15  2  1  0
 16  6  2  0
 16  7  1  0
 16  9  1  0
 17 10  1  0
 17 11  2  0
 18 12  1  0
 18 13  2  0
 19 15  1  0
 19 17  1  0
 20 14  1  0
 20 15  1  0
 21 18  1  0
 22 19  1  0
M  END
>  <DRUGBANK_ID>  (1) 
DB06152

>  <COMMON_NAME>  (1) 
Nylidrin

>  <CAS_NUMBER>  (1) 
447-41-6

>  <UNII>  (1) 
695DKH33EI

>  <SYNONYMS>  (1) 
Bufenina; Buphenin; Buphenine; Bupheninum

$$$$
