
     RDKit          3D

 28 29  0  0  0  0  0  0  0  0999 V2000
    2.7417    4.6895   -4.2211 C   0  0  0  0  0  0  0  0  0  0  0  0
    3.6747    5.7542   -3.6456 C   0  0  0  0  0  0  0  0  0  0  0  0
    3.6006    5.7846   -2.1399 C   0  0  0  0  0  0  0  0  0  0  0  0
    3.9283    4.4255   -1.6058 C   0  0  0  0  0  0  0  0  0  0  0  0
    3.0645    3.3028   -2.1691 C   0  0  0  0  0  0  0  0  0  0  0  0
    3.0665    3.2935   -3.6906 C   0  0  0  0  0  0  0  0  0  0  0  0
    3.5068    1.9446   -1.5914 C   0  0  0  0  0  0  0  0  0  0  0  0
    3.5702    1.9358   -0.0215 C   0  0  2  0  0  0  0  0  0  0  0  0
    2.3061    2.6035    0.5189 C   0  0  0  0  0  0  0  0  0  0  0  0
    4.6035    2.6185    0.7136 N   0  0  0  0  0  0  0  0  0  0  0  0
    5.9044    2.4217    0.1411 C   0  0  0  0  0  0  0  0  0  0  0  0
   -0.2781    1.1611    0.0075 C   0  0  0  0  0  0  0  0  0  0  0  0
    0.8673    0.4270   -0.0443 N   0  0  0  0  0  0  0  0  0  0  0  0
    1.0733   -0.8902   -0.0997 C   0  0  0  0  0  0  0  0  0  0  0  0
   -0.1658   -1.6854   -0.0767 C   0  0  0  0  0  0  0  0  0  0  0  0
   -1.4821   -0.8734   -0.0097 C   0  0  0  0  0  0  0  0  0  0  0  0
   -1.4120    0.4766    0.0352 N   0  0  0  0  0  0  0  0  0  0  0  0
   -0.3699    2.3968    0.0135 O   0  0  0  0  0  0  0  0  0  0  0  0
   -2.6027   -1.3723   -0.0424 O   0  0  0  0  0  0  0  0  0  0  0  0
    2.2196   -1.3084   -0.2122 O   0  0  0  0  0  0  0  0  0  0  0  0
   -0.0731   -2.6121    1.1184 C   0  0  0  0  0  0  0  0  0  0  0  0
   -0.0917   -2.3528   -1.4745 C   0  0  0  0  0  0  0  0  0  0  0  0
    0.0058   -1.3281   -2.6252 C   0  0  0  0  0  0  0  0  0  0  0  0
   -1.0822   -3.5542    1.2700 C   0  0  0  0  0  0  0  0  0  0  0  0
   -1.0284   -4.4645    2.3054 C   0  0  0  0  0  0  0  0  0  0  0  0
    0.0609   -4.4751    3.1740 C   0  0  0  0  0  0  0  0  0  0  0  0
    1.0827   -3.5452    3.0416 C   0  0  0  0  0  0  0  0  0  0  0  0
    0.9770   -2.5671    2.0683 C   0  0  0  0  0  0  0  0  0  0  0  0
  1  2  1  0
  1  6  1  0
  2  3  1  0
  3  4  1  0
  4  5  1  0
  5  6  1  0
  5  7  1  0
  8 10  1  0
  8  9  1  1
  8  7  1  0
 10 11  1  0
 12 17  1  0
 12 18  2  0
 12 13  1  0
 13 14  1  0
 14 15  1  0
 14 20  2  0
 15 16  1  0
 15 21  1  0
 15 22  1  0
 16 17  1  0
 16 19  2  0
 21 24  2  0
 22 23  1  0
 24 25  1  0
 25 26  2  0
 26 27  1  0
 27 28  2  0
 28 21  1  0
M  END
>  <DRUGBANK_ID>  (1) 
DB09001

>  <COMMON_NAME>  (1) 
Barbexaclone

>  <CAS_NUMBER>  (1) 
4388-82-3

>  <UNII>  (1) 
291GX1YB65

>  <SYNONYMS>  (1) 
Barbexaclon; Barbexaclona; Barbexaclone; Barbexaclonum

$$$$
