
     RDKit          3D

 24 27  0  0  0  0  0  0  0  0999 V2000
    1.3997   -0.2290    0.0132 C   0  0  0  0  0  0  0  0  0  0  0  0
    0.5230   -1.3124    0.0100 C   0  0  0  0  0  0  0  0  0  0  0  0
   -0.8567   -1.0968   -0.0331 C   0  0  0  0  0  0  0  0  0  0  0  0
   -1.3708    0.2066   -0.0626 C   0  0  0  0  0  0  0  0  0  0  0  0
   -0.4740    1.2850   -0.0099 C   0  0  0  0  0  0  0  0  0  0  0  0
    0.9032    1.0713    0.0026 C   0  0  0  0  0  0  0  0  0  0  0  0
   -2.8096    0.4619   -0.1769 C   0  0  0  0  0  0  0  0  0  0  0  0
   -3.7151   -0.0307    0.7692 C   0  0  0  0  0  0  0  0  0  0  0  0
   -5.0782    0.2655    0.6720 C   0  0  0  0  0  0  0  0  0  0  0  0
   -5.5598    1.0603   -0.3759 C   0  0  0  0  0  0  0  0  0  0  0  0
   -4.6509    1.5671   -1.3117 C   0  0  0  0  0  0  0  0  0  0  0  0
   -3.2971    1.2485   -1.2308 C   0  0  0  0  0  0  0  0  0  0  0  0
   -6.9879    1.3476   -0.5225 C   0  0  0  0  0  0  0  0  0  0  0  0
   -7.7093    1.9842    0.4926 C   0  0  0  0  0  0  0  0  0  0  0  0
   -9.0630    2.2890    0.3197 C   0  0  0  0  0  0  0  0  0  0  0  0
   -9.7199    1.9610   -0.8735 C   0  0  0  0  0  0  0  0  0  0  0  0
   -8.9879    1.3462   -1.8973 C   0  0  0  0  0  0  0  0  0  0  0  0
   -7.6464    1.0169   -1.7147 C   0  0  0  0  0  0  0  0  0  0  0  0
  -11.1484    2.2303   -1.0626 C   0  0  0  0  0  0  0  0  0  0  0  0
  -11.6635    3.5281   -0.9583 C   0  0  0  0  0  0  0  0  0  0  0  0
  -13.0135    3.7785   -1.2132 C   0  0  0  0  0  0  0  0  0  0  0  0
  -13.8590    2.7342   -1.5850 C   0  0  0  0  0  0  0  0  0  0  0  0
  -13.3649    1.4373   -1.6837 C   0  0  0  0  0  0  0  0  0  0  0  0
  -12.0231    1.1838   -1.4006 C   0  0  0  0  0  0  0  0  0  0  0  0
  1  2  2  0
  1  6  1  0
  2  3  1  0
  3  4  2  0
  4  5  1  0
  4  7  1  0
  5  6  2  0
  7  8  2  0
  7 12  1  0
  8  9  1  0
  9 10  2  0
 10 11  1  0
 10 13  1  0
 11 12  2  0
 13 14  2  0
 13 18  1  0
 14 15  1  0
 15 16  2  0
 16 17  1  0
 16 19  1  0
 17 18  2  0
 19 20  2  0
 19 24  1  0
 20 21  1  0
 21 22  2  0
 22 23  1  0
 23 24  2  0
M  END
>  <DRUGBANK_ID>  (1) 
DB12794

>  <COMMON_NAME>  (1) 
p-Quaterphenyl

>  <CAS_NUMBER>  (1) 
135-70-6

>  <UNII>  (1) 
G8AQM6D0RK

>  <SYNONYMS>  (1) 
PQP

$$$$
