1153
     RDKit          3D

 27 30  0  0  1  0  0  0  0  0999 V2000
   -2.4165    1.1693    0.0153 Cl  0  0  0  0  0  0  0  0  0  0  0  0
   -8.1498    1.0741   -2.3521 Cl  0  0  0  0  0  0  0  0  0  0  0  0
    2.8245    0.7821    0.0073 Cl  0  0  0  0  0  0  0  0  0  0  0  0
   -4.7903    1.0440   -2.5757 S   0  0  0  0  0  0  0  0  0  0  0  0
   -2.5581   -3.0004   -1.1412 O   0  0  0  0  0  0  0  0  0  0  0  0
   -2.5825   -2.2365    2.5542 N   0  0  0  0  0  0  0  0  0  0  0  0
   -2.4432   -1.7489    4.7182 N   0  0  0  0  0  0  0  0  0  0  0  0
   -2.4670   -2.1405    0.0204 C   0  0  0  0  0  0  0  0  0  0  0  0
   -2.5932   -3.0013    1.3140 C   0  0  0  0  0  0  0  0  0  0  0  0
   -1.1597   -1.3515   -0.0170 C   0  0  0  0  0  0  0  0  0  0  0  0
   -2.5379   -2.2755   -2.3900 C   0  0  0  0  0  0  0  0  0  0  0  0
   -3.6288   -1.2526   -2.5081 C   0  0  0  0  0  0  0  0  0  0  0  0
   -5.0458   -1.5228   -2.4372 C   0  0  0  0  0  0  0  0  0  0  0  0
   -1.0810    0.0628   -0.0320 C   0  0  0  0  0  0  0  0  0  0  0  0
    0.0452   -2.0839   -0.0209 C   0  0  0  0  0  0  0  0  0  0  0  0
   -5.8019   -0.3411   -2.4448 C   0  0  0  0  0  0  0  0  0  0  0  0
   -3.3873    0.0953   -2.6654 C   0  0  0  0  0  0  0  0  0  0  0  0
   -2.6677   -0.8862    2.6773 C   0  0  0  0  0  0  0  0  0  0  0  0
   -2.4973   -2.7225    3.8269 C   0  0  0  0  0  0  0  0  0  0  0  0
   -5.7381   -2.7569   -2.3537 C   0  0  0  0  0  0  0  0  0  0  0  0
    0.1511    0.7041   -0.0315 C   0  0  0  0  0  0  0  0  0  0  0  0
    1.2747   -1.4288   -0.0107 C   0  0  0  0  0  0  0  0  0  0  0  0
   -7.2073   -0.3709   -2.3706 C   0  0  0  0  0  0  0  0  0  0  0  0
    1.3185   -0.0393   -0.0149 C   0  0  0  0  0  0  0  0  0  0  0  0
   -2.5211   -0.5911    4.0080 C   0  0  0  0  0  0  0  0  0  0  0  0
   -7.1340   -2.7864   -2.3366 C   0  0  0  0  0  0  0  0  0  0  0  0
   -7.8593   -1.6033   -2.3444 C   0  0  0  0  0  0  0  0  0  0  0  0
  1 14  1  0
  2 23  1  0
  3 24  1  0
  4 16  1  0
  4 17  1  0
  5  8  1  0
  5 11  1  0
  6  9  1  0
  6 18  1  0
  6 19  1  0
  7 19  2  0
  7 25  1  0
  8  9  1  0
  8 10  1  0
 10 14  2  0
 10 15  1  0
 11 12  1  0
 12 13  1  0
 12 17  2  0
 13 16  2  0
 13 20  1  0
 14 21  1  0
 15 22  2  0
 16 23  1  0
 18 25  2  0
 20 26  2  0
 21 24  2  0
 22 24  1  0
 23 27  2  0
 26 27  1  0
M  END
>  <DRUGBANK_ID>  (1) 
DB01153

>  <SECONDARY_ACCESSION_NUMBERS>  (1) 
APRD00305

>  <COMMON_NAME>  (1) 
Sertaconazole

>  <CAS_NUMBER>  (1) 
99592-32-2

>  <UNII>  (1) 
72W71I16EG

>  <SYNONYMS>  (1) 
Sertaconazol; Sertaconazole; Sertaconazolum

$$$$
