
     RDKit          3D

 32 34  0  0  0  0  0  0  0  0999 V2000
    0.9575    0.0029   -0.1032 C   0  0  0  0  0  0  0  0  0  0  0  0
    0.4993   -0.6013    1.1868 C   0  0  0  0  0  0  0  0  0  0  0  0
    0.5510   -1.9726    1.4677 C   0  0  0  0  0  0  0  0  0  0  0  0
    0.1306   -2.1327    2.7880 N   0  0  0  0  0  0  0  0  0  0  0  0
    0.2012   -3.2438    3.7726 C   0  0  0  0  0  0  0  0  0  0  0  0
   -0.6663   -4.4425    3.4199 C   0  0  0  0  0  0  0  0  0  0  0  0
    0.0634   -5.1004    2.4143 O   0  0  0  0  0  0  0  0  0  0  0  0
   -0.4969   -0.9617    3.1331 C   0  0  0  0  0  0  0  0  0  0  0  0
   -0.1028    0.0703    2.2973 C   0  0  0  0  0  0  0  0  0  0  0  0
   -0.3450    1.5168    2.4529 C   0  0  0  0  0  0  0  0  0  0  0  0
   -0.1434    2.3139    1.5244 O   0  0  0  0  0  0  0  0  0  0  0  0
   -0.8685    2.0418    3.6173 N   0  0  0  0  0  0  0  0  0  0  0  0
   -0.9647    1.4743    4.8939 C   0  0  0  0  0  0  0  0  0  0  0  0
    0.0414    0.6414    5.3929 C   0  0  0  0  0  0  0  0  0  0  0  0
   -0.1545   -0.0846    6.5629 C   0  0  0  0  0  0  0  0  0  0  0  0
   -1.2863    0.1615    7.3328 C   0  0  0  0  0  0  0  0  0  0  0  0
   -2.2398    1.0994    6.9153 C   0  0  0  0  0  0  0  0  0  0  0  0
   -2.1005    1.7210    5.6667 C   0  0  0  0  0  0  0  0  0  0  0  0
   -1.5609   -0.7965    8.8056 S   0  0  0  0  0  0  0  0  0  0  0  0
   -1.4804    0.3825   10.1245 C   0  0  0  0  0  0  0  0  0  0  0  0
   -2.8967   -1.3227    8.7281 O   0  0  0  0  0  0  0  0  0  0  0  0
   -0.4124   -1.6924    8.9548 O   0  0  0  0  0  0  0  0  0  0  0  0
    1.0074   -2.9797    0.4886 C   0  0  0  0  0  0  0  0  0  0  0  0
    0.1598   -3.9710   -0.1033 C   0  0  0  0  0  0  0  0  0  0  0  0
    0.7937   -5.0040   -0.8178 C   0  0  0  0  0  0  0  0  0  0  0  0
    2.1550   -4.9376   -1.1322 C   0  0  0  0  0  0  0  0  0  0  0  0
    2.9253   -3.8566   -0.7196 C   0  0  0  0  0  0  0  0  0  0  0  0
    2.3764   -2.9285    0.1530 C   0  0  0  0  0  0  0  0  0  0  0  0
   -1.3391   -4.1471    0.2052 C   0  0  0  0  0  0  0  0  0  0  0  0
   -2.1496   -4.1326   -0.8873 F   0  0  0  0  0  0  0  0  0  0  0  0
   -1.6265   -5.3467    0.8011 F   0  0  0  0  0  0  0  0  0  0  0  0
   -1.8469   -3.2059    1.0471 F   0  0  0  0  0  0  0  0  0  0  0  0
  1  2  1  0
  2  3  2  0
  2  9  1  0
  3  4  1  0
  3 23  1  0
  4  5  1  0
  4  8  1  0
  5  6  1  0
  6  7  1  0
  8  9  2  0
  9 10  1  0
 10 11  2  0
 10 12  1  0
 12 13  1  0
 13 14  2  0
 13 18  1  0
 14 15  1  0
 15 16  2  0
 16 17  1  0
 16 19  1  0
 17 18  2  0
 19 20  1  0
 19 21  2  0
 19 22  2  0
 23 24  2  0
 23 28  1  0
 24 25  1  0
 24 29  1  0
 25 26  2  0
 26 27  1  0
 27 28  2  0
 29 30  1  0
 29 31  1  0
 29 32  1  0
M  END
>  <DRUGBANK_ID>  (1) 
DB15207

>  <COMMON_NAME>  (1) 
Esaxerenone

>  <CAS_NUMBER>  (1) 
1632006-28-0

>  <UNII>  (1) 
N62TGJ04A1

>  <SYNONYMS>  (1) 
Esaxerenone

$$$$
