FTS
     RDKit          3D

 22 23  0  0  0  0  0  0  0  0999 V2000
   -1.1887    1.3809    0.1695 C   0  0  0  0  0  0  0  0  0  0  0  0
   -0.0431    0.6618   -0.1592 C   0  0  0  0  0  0  0  0  0  0  0  0
    1.2835    1.3291   -0.4207 C   0  0  0  0  0  0  0  0  0  0  0  0
    2.4046    0.6910    0.2675 N   0  0  0  0  0  0  0  0  0  0  0  0
    2.2460   -0.7627    0.5097 C   0  0  1  0  0  0  0  0  0  0  0  0
    1.9019   -1.0003    1.9977 C   0  0  0  0  0  0  0  0  0  0  0  0
    2.6584   -2.0348    2.4620 F   0  0  0  0  0  0  0  0  0  0  0  0
    1.1997   -1.4603   -0.3958 C   0  0  0  0  0  0  0  0  0  0  0  0
   -0.1153   -0.7355   -0.2525 C   0  0  0  0  0  0  0  0  0  0  0  0
   -1.3361   -1.3972   -0.0959 C   0  0  0  0  0  0  0  0  0  0  0  0
   -2.4946   -0.6633    0.1585 C   0  0  0  0  0  0  0  0  0  0  0  0
   -2.4155    0.7238    0.3082 C   0  0  0  0  0  0  0  0  0  0  0  0
   -3.9211    1.5976    0.6384 S   0  0  0  0  0  0  0  0  0  0  0  0
   -4.8551    1.2881   -0.4143 O   0  0  0  0  0  0  0  0  0  0  0  0
   -4.2689    1.3664    2.0265 O   0  0  0  0  0  0  0  0  0  0  0  0
   -3.5233    3.2449    0.5135 N   0  0  0  0  0  0  0  0  0  0  0  0
   -3.0612    3.8208   -0.7678 C   0  0  0  0  0  0  0  0  0  0  0  0
   -4.0341    3.6383   -1.9033 C   0  0  0  0  0  0  0  0  0  0  0  0
   -5.3035    4.3865   -1.6112 C   0  0  0  0  0  0  0  0  0  0  0  0
   -5.0491    5.7144   -1.5601 F   0  0  0  0  0  0  0  0  0  0  0  0
   -6.2236    4.1748   -2.5699 F   0  0  0  0  0  0  0  0  0  0  0  0
   -5.8458    4.0433   -0.4223 F   0  0  0  0  0  0  0  0  0  0  0  0
  1  2  2  0
  1 12  1  0
  2  3  1  0
  2  9  1  0
  3  4  1  0
  4  5  1  0
  5  8  1  0
  5  6  1  1
  6  7  1  0
  8  9  1  0
  9 10  2  0
 10 11  1  0
 11 12  2  0
 12 13  1  0
 13 14  2  0
 13 15  2  0
 13 16  1  0
 16 17  1  0
 17 18  1  0
 18 19  1  0
 19 20  1  0
 19 21  1  0
 19 22  1  0
M  END
>  <DRUGBANK_ID>  (1) 
DB07798

>  <COMMON_NAME>  (1) 
(3R)-3-(FLUOROMETHYL)-N-(3,3,3-TRIFLUOROPROPYL)-1,2,3,4-TETRAHYDROISOQUINOLINE-7-SULFONAMIDE

$$$$
