
     RDKit          3D

 12 12  0  0  1  0  0  0  0  0999 V2000
   -0.9400   -0.8656    1.1615 N   0  0  0  0  0  0  0  0  0  0  0  0
    0.4285   -1.1714    0.7708 C   0  0  1  0  0  0  0  0  0  0  0  0
    1.2894   -1.4167    2.0185 C   0  0  0  0  0  0  0  0  0  0  0  0
    1.3715   -2.9379    2.2331 C   0  0  2  0  0  0  0  0  0  0  0  0
    0.5685   -3.5738    1.0865 C   0  0  0  0  0  0  0  0  0  0  0  0
    0.4958   -2.4831    0.0628 C   0  0  0  0  0  0  0  0  0  0  0  0
    0.5745   -2.6475   -1.2616 C   0  0  0  0  0  0  0  0  0  0  0  0
    0.6707   -3.8856   -1.7892 F   0  0  0  0  0  0  0  0  0  0  0  0
    0.5337   -1.5764   -2.0816 F   0  0  0  0  0  0  0  0  0  0  0  0
    0.8364   -3.3493    3.5915 C   0  0  0  0  0  0  0  0  0  0  0  0
    1.6058   -2.9565    4.6318 O   0  0  0  0  0  0  0  0  0  0  0  0
   -0.1860   -3.9973    3.7668 O   0  0  0  0  0  0  0  0  0  0  0  0
  2  3  1  0
  2  6  1  0
  2  1  1  1
  4  3  1  0
  4  5  1  0
  4 10  1  1
  5  6  1  0
  6  7  2  3
  7  8  1  0
  7  9  1  0
 10 11  1  0
 10 12  2  0
M  END
>  <DRUGBANK_ID>  (1) 
DB17919

>  <COMMON_NAME>  (1) 
CPP-115 free base

>  <CAS_NUMBER>  (1) 
640897-20-7

>  <UNII>  (1) 
5TD9324Z2U

>  <SYNONYMS>  (1) 
(+)-(1s,4s)-4-amino-3-(difluoromethylene)-1-cyclopentanecarboxylic acid; (1s,3s)-3-amino-4-(difluoromethylene) cyclopentanecarboxylic acid; (1s,3s)-3-amino-4-difluoromethylenyl-1-cyclopentanoic acid

$$$$
