
     RDKit          3D

  5  5  0  0  0  0  0  0  0  0999 V2000
    0.5827   -1.1343    0.2277 C   0  0  0  0  0  0  0  0  0  0  0  0
    1.2874    0.1573   -0.1321 C   0  0  0  0  0  0  0  0  0  0  0  0
   -0.8319   -0.8780   -0.2441 C   0  0  0  0  0  0  0  0  0  0  0  0
    0.2046    1.2216   -0.0226 C   0  0  0  0  0  0  0  0  0  0  0  0
   -1.0799    0.5199    0.1234 N   0  0  0  0  0  0  0  0  0  0  0  0
  1  2  1  0
  1  3  1  0
  2  4  1  0
  3  5  1  0
  4  5  1  0
M  END
>  <DRUGBANK_ID>  (1) 
DB16858

>  <COMMON_NAME>  (1) 
Pyrrolidine

>  <CAS_NUMBER>  (1) 
123-75-1

>  <UNII>  (1) 
LJU5627FYV

>  <SYNONYMS>  (1) 
1-Azacyclopentane; Azacyclopentane; Azolidine; Butylenimine

$$$$
