
     RDKit          3D

 14 13  0  0  1  0  0  0  0  0999 V2000
    4.7713   -5.4732   -1.5681 N   0  0  0  0  0  0  0  0  0  0  0  0
    4.2733   -4.0441    0.9189 N   0  0  0  0  0  0  0  0  0  0  0  0
    1.8812   -6.2558   -2.7205 O   0  0  0  0  0  0  0  0  0  0  0  0
    2.6196   -2.5251    2.5252 O   0  0  0  0  0  0  0  0  0  0  0  0
    4.7641   -3.5394    2.2094 C   0  0  2  0  0  0  0  0  0  0  0  0
    4.3496   -5.9276   -2.9091 C   0  0  2  0  0  0  0  0  0  0  0  0
    4.3217   -5.5036    0.8749 C   0  0  0  0  0  0  0  0  0  0  0  0
    3.8894   -5.9868   -0.5045 C   0  0  0  0  0  0  0  0  0  0  0  0
    4.0151   -2.2138    2.4197 C   0  0  0  0  0  0  0  0  0  0  0  0
    2.9168   -5.4473   -3.2701 C   0  0  0  0  0  0  0  0  0  0  0  0
    6.2921   -3.4458    2.2060 C   0  0  0  0  0  0  0  0  0  0  0  0
    4.5601   -7.4477   -3.0431 C   0  0  0  0  0  0  0  0  0  0  0  0
    6.8200   -3.0073    3.5580 C   0  0  0  0  0  0  0  0  0  0  0  0
    4.1973   -7.9683   -4.4225 C   0  0  0  0  0  0  0  0  0  0  0  0
  5  9  1  6
  5  2  1  0
  6 10  1  1
  6  1  1  0
  7  2  1  0
  8  1  1  0
  8  7  1  0
  9  4  1  0
 10  3  1  0
 11  5  1  0
 12  6  1  0
 12 14  1  0
 13 11  1  0
M  END
>  <DRUGBANK_ID>  (1) 
DB00330

>  <SECONDARY_ACCESSION_NUMBERS>  (1) 
APRD00957

>  <COMMON_NAME>  (1) 
Ethambutol

>  <CAS_NUMBER>  (1) 
74-55-5

>  <UNII>  (1) 
8G167061QZ

>  <SYNONYMS>  (1) 
(+)-2,2'-(ethylenediimino)di-1-butanol; (+)-ethambutol; (+)-N,N'-bis(1-(hydroxymethyl)propyl)ethylenediamine; (+)-S,S-ethambutol; (2S,7S)-2,7-diethyl-3,6-diazaoctane-1,8-diol; (S,S)-ethambutol; EMB; Etambutol; Etambutolo; Ethambutol; Ethambutolum; S,S-Ethambutol

$$$$
