
     RDKit          3D

 13  8  0  0  0  0  0  0  0  0999 V2000
   -0.2325    0.2773   -3.0815 Mg  0  0  0  0  0 15  0  0  0  0  0  0
    0.3006    1.3367   -0.9327 O   0  0  0  0  0  0  0  0  0  0  0  0
    1.5506    0.4838   -0.8077 P   0  0  0  0  0  0  0  0  0  0  0  0
    1.1089   -0.3958    0.4256 O   0  0  0  0  0  0  0  0  0  0  0  0
    1.2767   -0.3936   -2.0589 O   0  0  0  0  0  0  0  0  0  0  0  0
    2.8684    1.1995   -0.9102 O   0  0  0  0  0  0  0  0  0  0  0  0
    2.5598   -3.0622   -0.0320 Mg  0  0  0  0  0 15  0  0  0  0  0  0
   -0.2346    0.4408    2.0610 Mg  0  0  0  0  0 15  0  0  0  0  0  0
    3.0491    0.6263    1.4449 O   0  0  0  0  0  0  0  0  0  0  0  0
    4.0427   -0.5090    1.0743 P   0  0  0  0  0  0  0  0  0  0  0  0
    3.9213   -1.5350    2.2122 O   0  0  0  0  0  0  0  0  0  0  0  0
    3.2693   -1.4410   -0.0056 O   0  0  0  0  0  0  0  0  0  0  0  0
    5.3522   -0.1851    0.4921 O   0  0  0  0  0  0  0  0  0  0  0  0
  2  3  2  0
  3  4  1  0
  3  5  1  0
  3  6  1  0
  9 10  2  0
 10 11  1  0
 10 12  1  0
 10 13  1  0
M  CHG  8   1   2   4  -1   5  -1   6  -1   7   2   8   2  11  -1  12  -1
M  CHG  1  13  -1
M  END
>  <DRUGBANK_ID>  (1) 
DB13862

>  <COMMON_NAME>  (1) 
Magnesium phosphate

>  <CAS_NUMBER>  (1) 
7757-87-1

>  <UNII>  (1) 
XMK14ETW2D

>  <SYNONYMS>  (1) 
Magnesium phosphate (3:2); Magnesium phosphate anhydrous; Magnesium phosphate, tribasic; Magnesium phosphate, tribasic, anhydrous; Phosphoric acid, magnesium salt (2:3); Tertiary magnesium phosphate; Trimagnesium phosphate

$$$$
