
     RDKit          3D

 43 46  0  0  0  0  0  0  0  0999 V2000
    0.8838   -0.3027   -0.1206 O   0  0  0  0  0  0  0  0  0  0  0  0
    0.3029    0.0943   -1.2587 C   0  0  0  0  0  0  0  0  0  0  0  0
    0.9215    0.3277   -2.2819 O   0  0  0  0  0  0  0  0  0  0  0  0
   -1.1629    0.1673   -1.1379 C   0  0  0  0  0  0  0  0  0  0  0  0
   -1.8188    0.9452   -0.1639 C   0  0  0  0  0  0  0  0  0  0  0  0
   -3.2178    0.9863   -0.2137 C   0  0  0  0  0  0  0  0  0  0  0  0
   -3.9446    0.3663   -1.2296 C   0  0  0  0  0  0  0  0  0  0  0  0
   -5.3082    0.4156   -1.3417 O   0  0  0  0  0  0  0  0  0  0  0  0
   -6.0768    1.1425   -0.4634 C   0  0  0  0  0  0  0  0  0  0  0  0
   -6.0924    2.5414   -0.3626 C   0  0  0  0  0  0  0  0  0  0  0  0
   -5.0537    3.3144   -0.9186 N   0  0  0  0  0  0  0  0  0  0  0  0
   -4.6960    4.6332   -0.7304 C   0  0  0  0  0  0  0  0  0  0  0  0
   -3.7487    5.0966   -1.3602 O   0  0  0  0  0  0  0  0  0  0  0  0
   -5.4093    5.5257    0.2172 C   0  0  0  0  0  0  0  0  0  0  0  0
   -5.6493    5.1684    1.5573 C   0  0  0  0  0  0  0  0  0  0  0  0
   -6.5305    5.9425    2.3290 C   0  0  0  0  0  0  0  0  0  0  0  0
   -7.0470    7.1395    1.8232 C   0  0  0  0  0  0  0  0  0  0  0  0
   -6.6897    7.5514    0.5358 C   0  0  0  0  0  0  0  0  0  0  0  0
   -5.9368    6.7156   -0.2920 C   0  0  0  0  0  0  0  0  0  0  0  0
   -6.9877    5.4389    3.6344 N   0  0  0  0  0  0  0  0  0  0  0  0
   -7.7069    6.1773    4.3172 O   0  0  0  0  0  0  0  0  0  0  0  0
   -6.6753    4.2777    3.9352 O   0  0  0  0  0  0  0  0  0  0  0  0
   -7.1533    3.1454    0.3316 C   0  0  0  0  0  0  0  0  0  0  0  0
   -8.0765    2.4346    1.0590 C   0  0  0  0  0  0  0  0  0  0  0  0
   -8.8800    3.0758    2.0300 N   0  0  0  0  0  0  0  0  0  0  0  0
   -9.7763    2.5565    2.9510 C   0  0  0  0  0  0  0  0  0  0  0  0
  -10.4250    3.3009    3.6816 O   0  0  0  0  0  0  0  0  0  0  0  0
   -9.9956    1.0979    3.0558 C   0  0  0  0  0  0  0  0  0  0  0  0
   -8.9089    0.2289    3.2452 C   0  0  0  0  0  0  0  0  0  0  0  0
   -9.0813   -1.1392    2.9969 C   0  0  0  0  0  0  0  0  0  0  0  0
  -10.3579   -1.6559    2.7462 C   0  0  0  0  0  0  0  0  0  0  0  0
  -11.4595   -0.7927    2.7298 C   0  0  0  0  0  0  0  0  0  0  0  0
  -11.2748    0.5900    2.8107 C   0  0  0  0  0  0  0  0  0  0  0  0
   -7.8988   -2.0051    2.8749 N   0  0  0  0  0  0  0  0  0  0  0  0
   -8.0868   -3.2191    2.7229 O   0  0  0  0  0  0  0  0  0  0  0  0
   -6.7839   -1.4625    2.8847 O   0  0  0  0  0  0  0  0  0  0  0  0
   -8.1404    1.1040    0.7391 C   0  0  0  0  0  0  0  0  0  0  0  0
   -7.0944    0.4225    0.1341 C   0  0  0  0  0  0  0  0  0  0  0  0
   -3.2837   -0.3597   -2.2135 C   0  0  0  0  0  0  0  0  0  0  0  0
   -1.8995   -0.5026   -2.1390 C   0  0  0  0  0  0  0  0  0  0  0  0
   -1.0927    1.7530    0.8728 C   0  0  0  0  0  0  0  0  0  0  0  0
   -1.8394    2.4512    1.7536 O   0  0  0  0  0  0  0  0  0  0  0  0
    0.1321    1.8345    0.9444 O   0  0  0  0  0  0  0  0  0  0  0  0
  1  2  1  0
  2  3  2  0
  2  4  1  0
  4  5  2  0
  4 40  1  0
  5  6  1  0
  5 41  1  0
  6  7  2  0
  7  8  1  0
  7 39  1  0
  8  9  1  0
  9 10  1  0
  9 38  2  0
 10 11  1  0
 10 23  2  0
 11 12  1  0
 12 13  2  0
 12 14  1  0
 14 15  2  0
 14 19  1  0
 15 16  1  0
 16 17  2  0
 16 20  1  0
 17 18  1  0
 18 19  2  0
 20 21  1  0
 20 22  2  0
 23 24  1  0
 24 25  1  0
 24 37  2  0
 25 26  1  0
 26 27  2  0
 26 28  1  0
 28 29  2  0
 28 33  1  0
 29 30  1  0
 30 31  2  0
 30 34  1  0
 31 32  1  0
 32 33  2  0
 34 35  1  0
 34 36  2  0
 37 38  1  0
 39 40  2  0
 41 42  1  0
 41 43  2  0
M  CHG  4  20   1  21  -1  34   1  35  -1
M  END
>  <DRUGBANK_ID>  (1) 
DB03067

>  <SECONDARY_ACCESSION_NUMBERS>  (1) 
EXPT00062

>  <COMMON_NAME>  (1) 
4-{2,4-Bis[(3-Nitrobenzoyl)Amino]Phenoxy}Phthalic Acid

$$$$
