A3M
     RDKit          3D

 12 12  0  0  0  0  0  0  0  0999 V2000
   -6.6232    2.1331   -1.5864 C   0  0  0  0  0  0  0  0  0  0  0  0
   -5.4435    3.0913   -1.6136 C   0  0  0  0  0  0  0  0  0  0  0  0
   -4.4686    2.4084   -0.7851 N   0  0  0  0  0  0  0  0  0  0  0  0
   -4.5972    0.9829   -1.0703 C   0  0  0  0  0  0  0  0  0  0  0  0
   -5.9711    0.7658   -1.6719 C   0  0  0  0  0  0  0  0  0  0  0  0
   -3.5858    3.1451    0.0008 C   0  0  0  0  0  0  0  0  0  0  0  0
   -2.5418    2.4793    0.9710 C   0  0  2  0  0  0  0  0  0  0  0  0
   -2.2853    0.9855    0.7798 C   0  0  0  0  0  0  0  0  0  0  0  0
   -0.9185    0.5344    1.2685 C   0  0  0  0  0  0  0  0  0  0  0  0
   -3.6401    4.3755   -0.0032 O   0  0  0  0  0  0  0  0  0  0  0  0
   -2.8744    2.7648    2.3902 N   0  0  0  0  0  0  0  0  0  0  0  0
   -3.3328    0.1315    1.5194 C   0  0  0  0  0  0  0  0  0  0  0  0
  1  2  1  0
  1  5  1  0
  2  3  1  0
  3  4  1  0
  3  6  1  0
  4  5  1  0
  6 10  2  0
  7 11  1  1
  7  8  1  0
  7  6  1  0
  8  9  1  0
  8 12  1  0
M  END
>  <DRUGBANK_ID>  (1) 
DB01884

>  <SECONDARY_ACCESSION_NUMBERS>  (1) 
EXPT00369

>  <COMMON_NAME>  (1) 
2-Amino-3-Methyl-1-Pyrrolidin-1-Yl-Butan-1-One

$$$$
