CBT
     RDKit          3D

 22 24  0  0  0  0  0  0  0  0999 V2000
   -2.0901   -0.0132   -0.0021 Cl  0  0  0  0  0  0  0  0  0  0  0  0
   -0.3698   -0.0172   -0.0294 C   0  0  0  0  0  0  0  0  0  0  0  0
    0.3242    1.1886   -0.0574 C   0  0  0  0  0  0  0  0  0  0  0  0
    1.7223    1.1827   -0.0834 C   0  0  0  0  0  0  0  0  0  0  0  0
    0.3222   -1.2257   -0.0253 C   0  0  0  0  0  0  0  0  0  0  0  0
    1.7203   -1.2290   -0.0174 C   0  0  0  0  0  0  0  0  0  0  0  0
    2.4400   -0.0242   -0.0248 C   0  0  0  0  0  0  0  0  0  0  0  0
    3.9619   -0.0343    0.0532 C   0  0  0  0  0  0  0  0  0  0  0  0
    4.4365   -0.6914    1.2687 N   0  0  0  0  0  0  0  0  0  0  0  0
    5.1818   -1.8184    1.1840 C   0  0  0  0  0  0  0  0  0  0  0  0
    5.0847   -2.9013    1.9610 N   0  0  0  0  0  0  0  0  0  0  0  0
    6.0491   -3.6672    1.4299 N   0  0  0  0  0  0  0  0  0  0  0  0
    6.7511   -3.1187    0.4350 N   0  0  0  0  0  0  0  0  0  0  0  0
    6.1829   -1.9353    0.2467 N   0  0  0  0  0  0  0  0  0  0  0  0
    4.0208   -0.1986    2.5755 C   0  0  0  0  0  0  0  0  0  0  0  0
    4.4988    1.2260    2.8020 C   0  0  0  0  0  0  0  0  0  0  0  0
    5.7890    1.4846    3.2844 C   0  0  0  0  0  0  0  0  0  0  0  0
    6.2285    2.8013    3.4605 C   0  0  0  0  0  0  0  0  0  0  0  0
    5.3953    3.8663    3.1222 C   0  0  0  0  0  0  0  0  0  0  0  0
    5.9327    5.4855    3.3412 Cl  0  0  0  0  0  0  0  0  0  0  0  0
    4.1205    3.6282    2.6226 C   0  0  0  0  0  0  0  0  0  0  0  0
    3.6689    2.3149    2.4946 C   0  0  0  0  0  0  0  0  0  0  0  0
  1  2  1  0
  2  3  2  0
  2  5  1  0
  3  4  1  0
  4  7  2  0
  5  6  2  0
  6  7  1  0
  7  8  1  0
  8  9  1  0
  9 10  1  0
  9 15  1  0
 10 11  2  0
 10 14  1  0
 11 12  1  0
 12 13  1  0
 13 14  2  0
 15 16  1  0
 16 17  2  0
 16 22  1  0
 17 18  1  0
 18 19  2  0
 19 20  1  0
 19 21  1  0
 21 22  2  0
M  END
>  <DRUGBANK_ID>  (1) 
DB04037

>  <SECONDARY_ACCESSION_NUMBERS>  (1) 
EXPT00852

>  <COMMON_NAME>  (1) 
N,N-Bis(4-Chlorobenzyl)-1h-1,2,3,4-Tetraazol-5-Amine

$$$$
