
     RDKit          3D

 36 38  0  0  1  0  0  0  0  0999 V2000
    0.9126   -0.0648    0.0883 C   0  0  0  0  0  0  0  0  0  0  0  0
    0.4115    1.2590    0.6664 C   0  0  1  0  0  0  0  0  0  0  0  0
    0.9108    2.4562   -0.1848 C   0  0  0  0  0  0  0  0  0  0  0  0
    0.4713    2.3924   -1.5722 N   0  0  0  0  0  0  0  0  0  0  0  0
   -0.3290    3.3913   -2.0613 C   0  0  0  0  0  0  0  0  0  0  0  0
   -1.3682    3.0487   -2.8347 N   0  0  0  0  0  0  0  0  0  0  0  0
   -2.1199    4.0560   -3.3296 C   0  0  0  0  0  0  0  0  0  0  0  0
   -1.8395    5.3805   -3.1273 C   0  0  0  0  0  0  0  0  0  0  0  0
   -0.7398    5.6195   -2.3451 C   0  0  0  0  0  0  0  0  0  0  0  0
    0.0155    4.6525   -1.7967 N   0  0  0  0  0  0  0  0  0  0  0  0
   -0.2589    6.9621   -2.1514 C   0  0  0  0  0  0  0  0  0  0  0  0
   -0.9594    7.9905   -1.5678 C   0  0  0  0  0  0  0  0  0  0  0  0
   -0.1220    9.0690   -1.5866 N   0  0  0  0  0  0  0  0  0  0  0  0
    1.0719    8.8091   -2.1566 N   0  0  0  0  0  0  0  0  0  0  0  0
    0.9794    7.5255   -2.5340 C   0  0  0  0  0  0  0  0  0  0  0  0
    2.0505    6.8611   -3.2423 C   0  0  0  0  0  0  0  0  0  0  0  0
    3.3049    6.7866   -2.6277 C   0  0  0  0  0  0  0  0  0  0  0  0
    4.3174    6.1589   -3.3012 C   0  0  0  0  0  0  0  0  0  0  0  0
    4.0763    5.6088   -4.5507 C   0  0  0  0  0  0  0  0  0  0  0  0
    2.8501    5.6205   -5.1943 C   0  0  0  0  0  0  0  0  0  0  0  0
    1.8202    6.2735   -4.5100 C   0  0  0  0  0  0  0  0  0  0  0  0
    0.5992    6.3512   -5.0722 F   0  0  0  0  0  0  0  0  0  0  0  0
    2.6246    5.0410   -6.4923 N   0  0  0  0  0  0  0  0  0  0  0  0
    3.6660    4.2180   -7.5074 S   0  0  0  0  0  0  0  0  0  0  0  0
    3.1757    2.8580   -7.5909 O   0  0  0  0  0  0  0  0  0  0  0  0
    3.7795    5.0198   -8.7079 O   0  0  0  0  0  0  0  0  0  0  0  0
    5.2984    4.1316   -6.7929 C   0  0  0  0  0  0  0  0  0  0  0  0
    5.9087    6.0317   -2.6612 Cl  0  0  0  0  0  0  0  0  0  0  0  0
   -0.4114   10.4005   -1.0651 C   0  0  0  0  0  0  0  0  0  0  0  0
    0.5516   10.7790    0.0575 C   0  0  0  0  0  0  0  0  0  0  0  0
   -0.3864   11.4558   -2.1694 C   0  0  0  0  0  0  0  0  0  0  0  0
   -1.0474    1.2441    0.7921 N   0  0  0  0  0  0  0  0  0  0  0  0
   -1.7820    1.3568    1.9374 C   0  0  0  0  0  0  0  0  0  0  0  0
   -3.0145    1.3662    1.9150 O   0  0  0  0  0  0  0  0  0  0  0  0
   -1.0349    1.4518    3.0647 O   0  0  0  0  0  0  0  0  0  0  0  0
   -1.7771    1.5582    4.2863 C   0  0  0  0  0  0  0  0  0  0  0  0
  2  1  1  6
  2  3  1  0
  2 32  1  0
  3  4  1  0
  4  5  1  0
  5  6  2  0
  5 10  1  0
  6  7  1  0
  7  8  2  0
  8  9  1  0
  9 10  2  0
  9 11  1  0
 11 12  2  0
 11 15  1  0
 12 13  1  0
 13 14  1  0
 13 29  1  0
 14 15  2  0
 15 16  1  0
 16 17  2  0
 16 21  1  0
 17 18  1  0
 18 19  2  0
 18 28  1  0
 19 20  1  0
 20 21  2  0
 20 23  1  0
 21 22  1  0
 23 24  1  0
 24 25  2  0
 24 26  2  0
 24 27  1  0
 29 30  1  0
 29 31  1  0
 32 33  1  0
 33 34  2  0
 33 35  1  0
 35 36  1  0
M  END
>  <DRUGBANK_ID>  (1) 
DB11718

>  <COMMON_NAME>  (1) 
Encorafenib

>  <CAS_NUMBER>  (1) 
1269440-17-6

>  <UNII>  (1) 
8L7891MRB6

>  <SYNONYMS>  (1) 
Encorafenib

$$$$
