
     RDKit          3D

  9  8  0  0  0  0  0  0  0  0999 V2000
    0.8706   -0.0111   -0.0527 O   0  0  0  0  0  0  0  0  0  0  0  0
    0.5614   -1.0743    0.8044 N   0  0  0  0  0  0  0  0  0  0  0  0
    1.4611   -1.9595    1.3109 C   0  0  0  0  0  0  0  0  0  0  0  0
    1.0732   -2.9430    1.9493 O   0  0  0  0  0  0  0  0  0  0  0  0
    2.9047   -1.7390    0.9987 C   0  0  0  0  0  0  0  0  0  0  0  0
    3.2192   -2.0764   -0.7159 P   0  0  0  0  0  0  0  0  0  0  0  0
    3.9842   -3.4800   -0.6433 O   0  0  0  0  0  0  0  0  0  0  0  0
    1.8031   -2.4378   -1.3718 O   0  0  0  0  0  0  0  0  0  0  0  0
    3.9722   -1.0464   -1.4887 O   0  0  0  0  0  0  0  0  0  0  0  0
  1  2  1  0
  2  3  1  0
  3  4  2  0
  3  5  1  0
  5  6  1  0
  6  7  1  0
  6  8  1  0
  6  9  2  0
M  END
>  <DRUGBANK_ID>  (1) 
DB03645

>  <SECONDARY_ACCESSION_NUMBERS>  (1) 
EXPT02491

>  <COMMON_NAME>  (1) 
Phosphonoacetohydroxamic Acid

>  <UNII>  (1) 
QMJ2VH9SGQ

$$$$
