
     RDKit          3D

 28 31  0  0  0  0  0  0  0  0999 V2000
    9.0251   -8.4583    3.3720 C   0  0  0  0  0  0  0  0  0  0  0  0
    8.2169   -9.5078    3.0143 C   0  0  0  0  0  0  0  0  0  0  0  0
    7.0496   -8.9382    2.4833 C   0  0  0  0  0  0  0  0  0  0  0  0
    7.1658   -7.5552    2.5688 C   0  0  0  0  0  0  0  0  0  0  0  0
    8.4105   -7.2710    3.0946 O   0  0  0  0  0  0  0  0  0  0  0  0
   10.3829   -8.4504    3.9705 C   0  0  0  0  0  0  0  0  0  0  0  0
   11.4064   -7.7964    3.0637 C   0  0  0  0  0  0  0  0  0  0  0  0
    6.1982   -6.5856    2.1964 C   0  0  0  0  0  0  0  0  0  0  0  0
    4.9699   -6.5861    2.7319 C   0  0  0  0  0  0  0  0  0  0  0  0
    4.3316   -7.5705    4.0086 S   0  0  0  0  0  0  0  0  0  0  0  0
    2.7708   -6.8442    3.7760 C   0  0  0  0  0  0  0  0  0  0  0  0
    2.6962   -6.0004    2.8006 N   0  0  0  0  0  0  0  0  0  0  0  0
    3.8972   -5.6976    2.2220 C   0  0  0  0  0  0  0  0  0  0  0  0
    1.7329   -7.2001    4.5926 N   0  0  0  0  0  0  0  0  0  0  0  0
    0.4802   -6.4322    4.6039 C   0  0  1  0  0  0  0  0  0  0  0  0
   -0.2270   -6.4939    5.9694 C   0  0  0  0  0  0  0  0  0  0  0  0
    0.6684   -5.0049    4.1701 C   0  0  0  0  0  0  0  0  0  0  0  0
    0.2239   -4.4961    2.9866 N   0  0  0  0  0  0  0  0  0  0  0  0
    0.6493   -3.2340    2.8507 N   0  0  0  0  0  0  0  0  0  0  0  0
    1.3874   -2.9945    3.9253 N   0  0  0  0  0  0  0  0  0  0  0  0
    1.4146   -4.0821    4.7532 N   0  0  0  0  0  0  0  0  0  0  0  0
   -0.5648   -7.7137    6.5790 C   0  0  0  0  0  0  0  0  0  0  0  0
   -1.2168   -7.7239    7.8210 C   0  0  0  0  0  0  0  0  0  0  0  0
   -1.5381   -6.5275    8.4574 C   0  0  0  0  0  0  0  0  0  0  0  0
   -1.2431   -5.3142    7.8720 C   0  0  0  0  0  0  0  0  0  0  0  0
   -0.6118   -5.3040    6.6360 C   0  0  0  0  0  0  0  0  0  0  0  0
   -2.1469   -6.5449    9.6487 F   0  0  0  0  0  0  0  0  0  0  0  0
    4.0572   -4.8412    1.3591 O   0  0  0  0  0  0  0  0  0  0  0  0
  1  2  2  0
  1  5  1  0
  1  6  1  0
  2  3  1  0
  3  4  2  0
  4  8  1  0
  4  5  1  0
  6  7  1  0
  8  9  2  0
  9 10  1  0
 11 10  1  0
 11 14  1  0
 11 12  2  0
 13  9  1  0
 13 12  1  0
 13 28  2  0
 15 16  1  0
 15 17  1  0
 15 14  1  1
 16 26  1  0
 16 22  2  0
 17 21  2  0
 17 18  1  0
 18 19  1  0
 19 20  2  0
 20 21  1  0
 22 23  1  0
 23 24  2  0
 24 25  1  0
 24 27  1  0
 25 26  2  0
M  END
>  <DRUGBANK_ID>  (1) 
DB08710

>  <COMMON_NAME>  (1) 
(5Z)-5-[(5-ethylfuran-2-yl)methylidene]-2-[[(S)-(4-fluorophenyl)-(2H-tetrazol-5-yl)methyl]amino]-1,3-thiazol-4-one

$$$$
