
     RDKit          3D

 18 19  0  0  0  0  0  0  0  0999 V2000
    0.9790    0.0403   -0.0188 C   0  0  0  0  0  0  0  0  0  0  0  0
    0.4378   -0.6264   -1.2806 C   0  0  0  0  0  0  0  0  0  0  0  0
    0.8993   -2.0804   -1.4412 C   0  0  0  0  0  0  0  0  0  0  0  0
    0.4472   -3.0138   -0.3689 C   0  0  0  0  0  0  0  0  0  0  0  0
   -0.2389   -2.6276    0.7091 N   0  0  0  0  0  0  0  0  0  0  0  0
   -0.3053   -3.7664    1.4879 O   0  0  0  0  0  0  0  0  0  0  0  0
    0.2915   -4.7871    0.7803 C   0  0  0  0  0  0  0  0  0  0  0  0
    0.3774   -6.1238    1.2546 C   0  0  0  0  0  0  0  0  0  0  0  0
   -0.0432   -6.4919    2.4720 C   0  0  0  0  0  0  0  0  0  0  0  0
    0.0563   -7.8865    2.9337 C   0  0  0  0  0  0  0  0  0  0  0  0
    1.2389   -8.6257    2.7595 C   0  0  0  0  0  0  0  0  0  0  0  0
    1.2977   -9.9512    3.1836 C   0  0  0  0  0  0  0  0  0  0  0  0
    2.4217  -10.7121    3.0140 O   0  0  0  0  0  0  0  0  0  0  0  0
    0.1960  -10.5423    3.7937 C   0  0  0  0  0  0  0  0  0  0  0  0
    0.2464  -11.8412    4.2118 O   0  0  0  0  0  0  0  0  0  0  0  0
   -0.9722   -9.8216    3.9908 C   0  0  0  0  0  0  0  0  0  0  0  0
   -1.0398   -8.4891    3.5697 C   0  0  0  0  0  0  0  0  0  0  0  0
    0.7640   -4.3475   -0.3751 N   0  0  0  0  0  0  0  0  0  0  0  0
  1  2  1  0
  2  3  1  0
  3  4  1  0
  4  5  2  0
  4 18  1  0
  5  6  1  0
  6  7  1  0
  7  8  1  0
  7 18  2  0
  8  9  2  0
  9 10  1  0
 10 11  2  0
 10 17  1  0
 11 12  1  0
 12 13  1  0
 12 14  2  0
 14 15  1  0
 14 16  1  0
 16 17  2  0
M  END
>  <DRUGBANK_ID>  (1) 
DB17138

>  <COMMON_NAME>  (1) 
4-(2-(3-Propyl-(1,2,4)oxadiazol-5-yl)-vinyl)-benzene-1,2-diol

>  <CAS_NUMBER>  (1) 
1332498-21-1

>  <UNII>  (1) 
ZGL5E40F57

$$$$
