
     RDKit          3D

 13 15  0  0  0  0  0  0  0  0999 V2000
    2.2316   -0.0005   -0.0093 C   0  0  0  0  0  0  0  0  0  0  0  0
    1.3323   -1.2939    0.0235 C   0  0  0  0  0  0  0  0  0  0  0  0
    1.2969    1.2612    0.0027 C   0  0  0  0  0  0  0  0  0  0  0  0
   -0.0273   -0.7366    0.0145 C   0  0  0  0  0  0  0  0  0  0  0  0
   -0.0209    0.6229   -0.0024 C   0  0  0  0  0  0  0  0  0  0  0  0
   -1.3783   -1.1007    0.0082 C   0  0  0  0  0  0  0  0  0  0  0  0
   -1.8665   -2.4813    0.0484 C   0  0  0  0  0  0  0  0  0  0  0  0
   -1.3034    1.0416   -0.0143 N   0  0  0  0  0  0  0  0  0  0  0  0
   -2.1685   -0.0036   -0.0291 N   0  0  0  0  0  0  0  0  0  0  0  0
   -1.5322   -3.3989    0.9745 N   0  0  0  0  0  0  0  0  0  0  0  0
   -2.6986   -2.9764   -0.9247 N   0  0  0  0  0  0  0  0  0  0  0  0
   -2.2474   -4.4409    0.5241 N   0  0  0  0  0  0  0  0  0  0  0  0
   -2.9231   -4.2480   -0.6151 N   0  0  0  0  0  0  0  0  0  0  0  0
  2  1  1  0
  3  1  1  0
  4  2  1  0
  5  3  1  0
  5  4  2  0
  6  4  1  0
  7  6  1  0
  8  5  1  0
  9  6  2  0
  9  8  1  0
 10  7  2  0
 11  7  1  0
 12 10  1  0
 13 11  2  0
 13 12  1  0
M  END
>  <DRUGBANK_ID>  (1) 
DB05939

>  <COMMON_NAME>  (1) 
MK-0354

>  <CAS_NUMBER>  (1) 
851776-28-8

>  <UNII>  (1) 
4U62D8JYIQ

$$$$
