
     RDKit          3D

 13 13  0  0  0  0  0  0  0  0999 V2000
    1.0344   -0.0324    0.1974 C   0  0  0  0  0  0  0  0  0  0  0  0
    0.5881    1.4136    0.2769 C   0  0  0  0  0  0  0  0  0  0  0  0
    1.0933    2.1998   -0.9279 C   0  0  0  0  0  0  0  0  0  0  0  0
    0.5339    1.6860   -2.2720 C   0  0  0  0  0  0  0  0  0  0  0  0
   -1.0003    1.7596   -2.3533 C   0  0  0  0  0  0  0  0  0  0  0  0
   -1.5644    3.1601   -2.2364 C   0  0  0  0  0  0  0  0  0  0  0  0
   -0.7245    4.2790   -2.4093 C   0  0  0  0  0  0  0  0  0  0  0  0
   -1.1801    5.5801   -2.2326 C   0  0  0  0  0  0  0  0  0  0  0  0
   -2.5223    5.8035   -1.9776 C   0  0  0  0  0  0  0  0  0  0  0  0
   -3.3895    4.7111   -1.8503 C   0  0  0  0  0  0  0  0  0  0  0  0
   -2.9102    3.4026   -1.9613 C   0  0  0  0  0  0  0  0  0  0  0  0
   -3.8413    2.4191   -1.7840 O   0  0  0  0  0  0  0  0  0  0  0  0
   -3.0486    7.1989   -1.8771 C   0  0  0  0  0  0  0  0  0  0  0  0
  1  2  1  0
  2  3  1  0
  3  4  1  0
  4  5  1  0
  5  6  1  0
  6  7  2  0
  6 11  1  0
  7  8  1  0
  8  9  2  0
  9 10  1  0
  9 13  1  0
 10 11  2  0
 11 12  1  0
M  END
>  <DRUGBANK_ID>  (1) 
DB13908

>  <COMMON_NAME>  (1) 
Amylmetacresol

>  <CAS_NUMBER>  (1) 
1300-94-3

>  <UNII>  (1) 
05W904P57F

>  <SYNONYMS>  (1) 
5-methyl-2-pentylphenol; 6-amyl-m-cresol; 6-n-amyl-m-cresol; 6-n-pentyl-m-cresol; 6-pentyl-m-cresol; amilmetacresol; Amyl metacresol; Amylmetacresol; amylmetacresolum

$$$$
