
     RDKit          3D

 34 39  0  0  0  0  0  0  0  0999 V2000
    3.6256    0.4761   -0.0159 C   0  0  0  0  0  0  0  0  0  0  0  0
    2.8032    1.5966    0.0028 C   0  0  0  0  0  0  0  0  0  0  0  0
    1.4024    1.4437    0.0515 C   0  0  0  0  0  0  0  0  0  0  0  0
    0.8060    0.1714   -0.0239 C   0  0  0  0  0  0  0  0  0  0  0  0
    1.6621   -0.9135    0.0058 C   0  0  0  0  0  0  0  0  0  0  0  0
    3.0497   -0.7889    0.0113 C   0  0  0  0  0  0  0  0  0  0  0  0
    0.8982   -2.1755    0.0718 C   0  0  0  0  0  0  0  0  0  0  0  0
   -0.4707   -1.8064    0.1924 O   0  0  0  0  0  0  0  0  0  0  0  0
   -0.6361   -0.3668   -0.0393 C   0  0  0  0  0  0  0  0  0  0  0  0
   -1.4166    0.0286    1.2511 C   0  0  0  0  0  0  0  0  0  0  0  0
   -2.9186   -0.2252    1.1584 C   0  0  0  0  0  0  0  0  0  0  0  0
   -3.5158    0.2656   -0.0700 N   0  0  0  0  0  0  0  0  0  0  0  0
   -2.9523   -0.3966   -1.2578 C   0  0  0  0  0  0  0  0  0  0  0  0
   -1.3920   -0.4514   -1.4320 C   0  0  0  0  0  0  0  0  0  0  0  0
   -3.6577    1.7072   -0.0746 C   0  0  0  0  0  0  0  0  0  0  0  0
   -2.4099    2.5570   -0.0814 C   0  0  0  0  0  0  0  0  0  0  0  0
   -1.4596    2.4591   -1.2406 C   0  0  0  0  0  0  0  0  0  0  0  0
   -1.7328    3.2437   -2.4745 C   0  0  0  0  0  0  0  0  0  0  0  0
   -1.3583    4.7413   -2.2395 C   0  0  0  0  0  0  0  0  0  0  0  0
   -1.5363    5.9853   -2.9196 C   0  0  0  0  0  0  0  0  0  0  0  0
   -2.8934    5.7638   -3.1801 N   0  0  0  0  0  0  0  0  0  0  0  0
   -3.1783    5.7500   -1.6676 C   0  0  0  0  0  0  0  0  0  0  0  0
   -1.8906    5.2685   -1.1366 C   0  0  0  0  0  0  0  0  0  0  0  0
   -1.6417    5.1135    0.2792 C   0  0  0  0  0  0  0  0  0  0  0  0
   -2.6116    5.4716    1.1129 C   0  0  0  0  0  0  0  0  0  0  0  0
   -3.4685    6.4726    0.6786 C   0  0  0  0  0  0  0  0  0  0  0  0
   -3.6260    6.7128   -0.7396 C   0  0  0  0  0  0  0  0  0  0  0  0
   -2.9421    4.9874   -4.4838 C   0  0  0  0  0  0  0  0  0  0  0  0
   -3.5609    3.7447   -4.6400 C   0  0  0  0  0  0  0  0  0  0  0  0
   -2.8428    2.7299   -5.3370 C   0  0  0  0  0  0  0  0  0  0  0  0
   -1.6212    2.9676   -5.9939 C   0  0  0  0  0  0  0  0  0  0  0  0
   -1.1092    4.2536   -6.0492 C   0  0  0  0  0  0  0  0  0  0  0  0
   -1.7806    5.2437   -5.3336 C   0  0  0  0  0  0  0  0  0  0  0  0
   -0.8857    1.9558   -6.4537 F   0  0  0  0  0  0  0  0  0  0  0  0
  1  2  2  0
  1  6  1  0
  2  3  1  0
  3  4  2  0
  4  5  1  0
  4  9  1  0
  5  6  2  0
  5  7  1  0
  7  8  1  0
  8  9  1  0
  9 10  1  0
  9 14  1  0
 10 11  1  0
 11 12  1  0
 12 13  1  0
 12 15  1  0
 13 14  1  0
 15 16  1  0
 16 17  1  0
 17 18  1  0
 18 19  1  0
 19 20  2  0
 19 23  1  0
 20 21  1  0
 21 22  1  0
 21 28  1  0
 22 23  2  0
 22 27  1  0
 23 24  1  0
 24 25  2  0
 25 26  1  0
 26 27  2  0
 28 29  2  0
 28 33  1  0
 29 30  1  0
 30 31  2  0
 31 32  1  0
 31 34  1  0
 32 33  2  0
M  END
>  <DRUGBANK_ID>  (1) 
DB06555

>  <COMMON_NAME>  (1) 
Siramesine

>  <CAS_NUMBER>  (1) 
147817-50-3

>  <UNII>  (1) 
3IX8CWR24V

>  <SYNONYMS>  (1) 
Siramesine

$$$$
