
     RDKit          3D

 12 11  0  0  1  0  0  0  0  0999 V2000
    1.2155    0.1515   -0.1839 N   0  0  0  0  0  0  0  0  0  0  0  0
    0.7530   -0.0783   -1.5632 C   0  0  0  0  0  0  0  0  0  0  0  0
    1.0614   -1.4967   -2.0016 C   0  0  0  0  0  0  0  0  0  0  0  0
    0.4108   -2.5665   -1.1013 C   0  0  0  0  0  0  0  0  0  0  0  0
   -1.1410   -2.6061   -1.0671 C   0  0  1  0  0  0  0  0  0  0  0  0
   -1.6058   -2.8177   -2.4803 N   0  0  0  0  0  0  0  0  0  0  0  0
   -1.5803   -3.7871   -0.1690 C   0  0  0  0  0  0  0  0  0  0  0  0
   -1.1325   -3.6040    1.1004 F   0  0  0  0  0  0  0  0  0  0  0  0
   -2.9318   -3.8826   -0.1034 F   0  0  0  0  0  0  0  0  0  0  0  0
   -1.9541   -1.4282   -0.4502 C   0  0  0  0  0  0  0  0  0  0  0  0
   -1.3405   -0.6268    0.4382 O   0  0  0  0  0  0  0  0  0  0  0  0
   -3.1266   -1.2315   -0.7152 O   0  0  0  0  0  0  0  0  0  0  0  0
  1  2  1  0
  2  3  1  0
  3  4  1  0
  4  5  1  0
  5  6  1  6
  5  7  1  0
  5 10  1  0
  7  8  1  0
  7  9  1  0
 10 11  1  0
 10 12  2  0
M  END
>  <DRUGBANK_ID>  (1) 
DB03856

>  <SECONDARY_ACCESSION_NUMBERS>  (1) 
EXPT01229

>  <COMMON_NAME>  (1) 
L-Eflornithine

>  <CAS_NUMBER>  (1) 
66640-93-5

>  <UNII>  (1) 
C780YUS9YI

>  <SYNONYMS>  (1) 
(-)-2-difluoromethylornithine

$$$$
