
     RDKit          3D

 25 26  0  0  0  0  0  0  0  0999 V2000
    0.9537   -0.2402   -0.0245 C   0  0  0  0  0  0  0  0  0  0  0  0
    0.6921    1.0055    0.6915 C   0  0  0  0  0  0  0  0  0  0  0  0
    1.4160    2.1676    0.4407 C   0  0  0  0  0  0  0  0  0  0  0  0
    1.9843    2.8656   -0.7655 C   0  0  0  0  0  0  0  0  0  0  0  0
    1.1304    3.9110   -1.5631 C   0  0  0  0  0  0  0  0  0  0  0  0
    0.6936    5.0769   -0.8266 O   0  0  0  0  0  0  0  0  0  0  0  0
   -0.2624    4.6269    0.5432 P   0  0  0  0  0  0  0  0  0  0  0  0
   -0.8050    3.4174   -0.2395 O   0  0  0  0  0  0  0  0  0  0  0  0
    1.0121    4.9194    1.3229 O   0  0  0  0  0  0  0  0  0  0  0  0
   -1.1181    4.2241    1.7692 O   0  0  0  0  0  0  0  0  0  0  0  0
    1.9438    2.5392    2.0754 S   0  0  0  0  0  0  0  0  0  0  0  0
    0.2934    2.2731    2.4561 C   0  0  0  0  0  0  0  0  0  0  0  0
    0.0063    1.0977    1.9063 N   0  0  0  0  0  0  0  0  0  0  0  0
   -0.8118    0.1477    2.6394 C   0  0  0  0  0  0  0  0  0  0  0  0
   -0.3293    0.0126    4.0764 C   0  0  0  0  0  0  0  0  0  0  0  0
    0.4132   -1.0867    4.4599 C   0  0  0  0  0  0  0  0  0  0  0  0
    0.8985   -1.2861    5.7003 N   0  0  0  0  0  0  0  0  0  0  0  0
    0.6800   -0.2945    6.5973 C   0  0  0  0  0  0  0  0  0  0  0  0
    0.0360    0.8402    6.2903 N   0  0  0  0  0  0  0  0  0  0  0  0
   -0.5039    0.9730    5.0734 C   0  0  0  0  0  0  0  0  0  0  0  0
   -1.1870    2.1335    4.9412 N   0  0  0  0  0  0  0  0  0  0  0  0
    1.0533   -0.4891    8.0648 C   0  0  0  0  0  0  0  0  0  0  0  0
    1.9390    0.4397    8.5332 F   0  0  0  0  0  0  0  0  0  0  0  0
   -0.0341   -0.4098    8.8946 F   0  0  0  0  0  0  0  0  0  0  0  0
    1.6179   -1.7038    8.3368 F   0  0  0  0  0  0  0  0  0  0  0  0
  1  2  1  0
  2  3  2  0
  2 13  1  0
  3  4  1  0
  3 11  1  0
  4  5  1  0
  5  6  1  0
  6  7  1  0
  7  8  1  0
  7  9  1  0
  7 10  2  0
 11 12  1  0
 12 13  2  0
 13 14  1  0
 14 15  1  0
 15 16  2  0
 15 20  1  0
 16 17  1  0
 17 18  2  0
 18 19  1  0
 18 22  1  0
 19 20  2  0
 20 21  1  0
 22 23  1  0
 22 24  1  0
 22 25  1  0
M  CHG  3   8  -1   9  -1  13   1
M  END
>  <DRUGBANK_ID>  (1) 
DB02254

>  <SECONDARY_ACCESSION_NUMBERS>  (1) 
EXPT01504

>  <COMMON_NAME>  (1) 
Trifluoro-thiamin phosphate

$$$$
