
     RDKit          3D

 28 31  0  0  1  0  0  0  0  0999 V2000
    1.4353   -0.2332    0.0080 C   0  0  0  0  0  0  0  0  0  0  0  0
    0.5357   -1.3025    0.0071 C   0  0  0  0  0  0  0  0  0  0  0  0
   -0.8323   -1.0583   -0.0430 C   0  0  0  0  0  0  0  0  0  0  0  0
   -1.2836    0.2648   -0.0879 C   0  0  0  0  0  0  0  0  0  0  0  0
   -0.3788    1.3270   -0.0274 C   0  0  0  0  0  0  0  0  0  0  0  0
    0.9778    1.0814   -0.0076 C   0  0  0  0  0  0  0  0  0  0  0  0
   -2.7276    0.6166   -0.1962 C   0  0  0  0  0  0  0  0  0  0  0  0
   -3.0462    1.5482    0.9088 N   0  0  0  0  0  0  0  0  0  0  0  0
   -4.4396    1.9096    0.9537 C   0  0  0  0  0  0  0  0  0  0  0  0
   -5.1612    0.6107    1.1165 C   0  0  0  0  0  0  0  0  0  0  0  0
   -4.6680   -0.5437    2.2167 C   0  0  0  0  0  0  0  0  0  0  0  0
   -4.3624   -0.2382    3.4866 C   0  0  0  0  0  0  0  0  0  0  0  0
   -4.5079   -1.3416    4.2994 N   0  0  0  0  0  0  0  0  0  0  0  0
   -4.8857   -2.4642    3.5498 C   0  0  0  0  0  0  0  0  0  0  0  0
   -5.2438   -3.9233    4.2444 S   0  0  0  0  0  0  0  0  0  0  0  0
   -5.0025   -2.0085    2.2070 N   0  0  0  0  0  0  0  0  0  0  0  0
   -5.9186   -2.6329    1.1626 C   0  0  2  0  0  0  0  0  0  0  0  0
   -6.7052   -1.4335    0.7765 C   0  0  0  0  0  0  0  0  0  0  0  0
   -7.5065   -1.0464    2.0536 C   0  0  0  0  0  0  0  0  0  0  0  0
   -7.3757   -0.1539    3.1728 C   0  0  0  0  0  0  0  0  0  0  0  0
   -8.3107   -0.1328    4.2146 C   0  0  0  0  0  0  0  0  0  0  0  0
   -9.4769   -0.8300    4.0711 C   0  0  0  0  0  0  0  0  0  0  0  0
   -9.6029   -1.6967    2.9888 C   0  0  0  0  0  0  0  0  0  0  0  0
   -8.5350   -1.9420    2.1367 C   0  0  0  0  0  0  0  0  0  0  0  0
   -8.4692   -3.0547    1.3385 O   0  0  0  0  0  0  0  0  0  0  0  0
   -7.1049   -3.6367    1.3318 C   0  0  0  0  0  0  0  0  0  0  0  0
  -10.7786   -2.2594    2.7290 F   0  0  0  0  0  0  0  0  0  0  0  0
   -8.0996    0.6247    5.3072 F   0  0  0  0  0  0  0  0  0  0  0  0
  1  2  2  0
  1  6  1  0
  2  3  1  0
  3  4  2  0
  4  5  1  0
  4  7  1  0
  5  6  2  0
  7  8  1  0
  8  9  1  0
  9 10  1  0
 10 11  1  0
 11 12  2  0
 11 16  1  0
 12 13  1  0
 13 14  1  0
 14 15  2  0
 14 16  1  0
 17 16  1  1
 17 18  1  0
 17 26  1  0
 18 19  1  0
 19 20  2  0
 19 24  1  0
 20 21  1  0
 21 22  2  0
 21 28  1  0
 22 23  1  0
 23 24  2  0
 23 27  1  0
 24 25  1  0
 25 26  1  0
M  END
>  <DRUGBANK_ID>  (1) 
DB12389

>  <COMMON_NAME>  (1) 
Zamicastat

>  <CAS_NUMBER>  (1) 
1080028-80-3

>  <UNII>  (1) 
YLU32D0DNV

>  <SYNONYMS>  (1) 
Zamicastat

$$$$
