
     RDKit          3D

 37 42  0  0  0  0  0  0  0  0999 V2000
    0.9540   -0.2546    0.0121 F   0  0  0  0  0  0  0  0  0  0  0  0
    2.2933   -0.2225    0.0109 C   0  0  0  0  0  0  0  0  0  0  0  0
    2.9896   -1.3931    0.1660 C   0  0  0  0  0  0  0  0  0  0  0  0
    4.3846   -1.3564    0.1759 C   0  0  0  0  0  0  0  0  0  0  0  0
    5.0936   -0.1450    0.0768 C   0  0  0  0  0  0  0  0  0  0  0  0
    4.4155    1.0541   -0.0921 C   0  0  0  0  0  0  0  0  0  0  0  0
    5.0724    2.3879   -0.1053 C   0  0  0  0  0  0  0  0  0  0  0  0
    4.3872    3.5432    0.1534 C   0  0  0  0  0  0  0  0  0  0  0  0
    2.9809    3.5455    0.4072 C   0  0  0  0  0  0  0  0  0  0  0  0
    2.0204    2.3650   -0.4040 S   0  0  0  0  0  0  0  0  0  0  0  0
    2.0013    2.6785   -1.8056 O   0  0  0  0  0  0  0  0  0  0  0  0
    0.7922    2.2767    0.3904 O   0  0  0  0  0  0  0  0  0  0  0  0
    2.9949    0.9557   -0.1521 C   0  0  0  0  0  0  0  0  0  0  0  0
    5.2275    4.6706    0.1204 C   0  0  0  0  0  0  0  0  0  0  0  0
    6.4783    4.2127   -0.1096 N   0  0  0  0  0  0  0  0  0  0  0  0
    6.3716    2.8416   -0.2458 N   0  0  0  0  0  0  0  0  0  0  0  0
    7.5029    2.0825   -0.5839 C   0  0  0  0  0  0  0  0  0  0  0  0
    8.5708    1.9537    0.3015 C   0  0  0  0  0  0  0  0  0  0  0  0
    9.5926    1.0324    0.0173 C   0  0  0  0  0  0  0  0  0  0  0  0
    9.6832    0.4447   -1.2441 C   0  0  0  0  0  0  0  0  0  0  0  0
   10.6735   -0.7211   -1.4913 C   0  0  0  0  0  0  0  0  0  0  0  0
   10.1961   -2.0074   -2.0873 N   0  0  0  0  0  0  0  0  0  0  0  0
    9.3206   -1.7420   -3.2299 C   0  0  0  0  0  0  0  0  0  0  0  0
    7.8554   -1.5855   -2.7385 C   0  0  0  0  0  0  0  0  0  0  0  0
    7.3352   -2.7881   -2.1916 O   0  0  0  0  0  0  0  0  0  0  0  0
    8.0941   -3.0481   -0.9907 C   0  0  0  0  0  0  0  0  0  0  0  0
    9.5976   -3.1436   -1.3365 C   0  0  0  0  0  0  0  0  0  0  0  0
    8.7924    0.9537   -2.2161 C   0  0  0  0  0  0  0  0  0  0  0  0
    7.5617    1.4734   -1.8155 C   0  0  0  0  0  0  0  0  0  0  0  0
    4.7894    6.1377    0.2185 C   0  0  0  0  0  0  0  0  0  0  0  0
    5.5418    7.0582   -0.1001 O   0  0  0  0  0  0  0  0  0  0  0  0
    3.4164    6.4074    0.5125 N   0  0  0  0  0  0  0  0  0  0  0  0
    2.7116    6.0657    1.7705 C   0  0  0  0  0  0  0  0  0  0  0  0
    1.2534    5.5478    1.5221 C   0  0  0  0  0  0  0  0  0  0  0  0
    0.5348    6.3688    0.5971 O   0  0  0  0  0  0  0  0  0  0  0  0
    1.2586    6.5746   -0.6375 C   0  0  0  0  0  0  0  0  0  0  0  0
    2.6010    7.2821   -0.3490 C   0  0  0  0  0  0  0  0  0  0  0  0
  1  2  1  0
  2  3  2  0
  2 13  1  0
  3  4  1  0
  4  5  2  0
  5  6  1  0
  6  7  1  0
  6 13  2  0
  7  8  2  0
  7 16  1  0
  8  9  1  0
  8 14  1  0
  9 10  1  0
 10 11  2  0
 10 12  2  0
 10 13  1  0
 14 15  2  0
 14 30  1  0
 15 16  1  0
 16 17  1  0
 17 18  2  0
 17 29  1  0
 18 19  1  0
 19 20  2  0
 20 21  1  0
 20 28  1  0
 21 22  1  0
 22 23  1  0
 22 27  1  0
 23 24  1  0
 24 25  1  0
 25 26  1  0
 26 27  1  0
 28 29  2  0
 30 31  2  0
 30 32  1  0
 32 33  1  0
 32 37  1  0
 33 34  1  0
 34 35  1  0
 35 36  1  0
 36 37  1  0
M  END
>  <DRUGBANK_ID>  (1) 
DB18088

>  <COMMON_NAME>  (1) 
Roginolisib

>  <CAS_NUMBER>  (1) 
1305267-37-1

>  <UNII>  (1) 
6K8FC2TF54

>  <SYNONYMS>  (1) 
MSC-2360844

$$$$
