
     RDKit          3D

  9  9  0  0  0  0  0  0  0  0999 V2000
    0.9603   -0.0894    0.0541 C   0  0  0  0  0  0  0  0  0  0  0  0
    0.4631   -0.5031    1.4329 C   0  0  0  0  0  0  0  0  0  0  0  0
    0.8918    0.4258    2.4649 N   0  0  0  0  0  0  0  0  0  0  0  0
    1.6112    0.0783    3.5723 C   0  0  0  0  0  0  0  0  0  0  0  0
    2.0299   -1.0317    3.8611 O   0  0  0  0  0  0  0  0  0  0  0  0
    1.7995    1.2964    4.4325 C   0  0  0  0  0  0  0  0  0  0  0  0
    1.1217    2.4134    3.6645 C   0  0  0  0  0  0  0  0  0  0  0  0
    0.5086    1.7356    2.4808 C   0  0  0  0  0  0  0  0  0  0  0  0
   -0.2115    2.3001    1.6726 O   0  0  0  0  0  0  0  0  0  0  0  0
  1  2  1  0
  2  3  1  0
  3  4  1  0
  3  8  1  0
  4  5  2  0
  4  6  1  0
  6  7  1  0
  7  8  1  0
  8  9  2  0
M  END
>  <DRUGBANK_ID>  (1) 
DB01902

>  <SECONDARY_ACCESSION_NUMBERS>  (1) 
EXPT02325

>  <COMMON_NAME>  (1) 
1-Ethyl-Pyrrolidine-2,5-Dione

>  <UNII>  (1) 
MC084H847A

$$$$
