CXA
     RDKit          3D

 16 16  0  0  0  0  0  0  0  0999 V2000
    1.3491   -0.2269    0.1273 C   0  0  0  0  0  0  0  0  0  0  0  0
    0.4814   -1.3193    0.0199 C   0  0  0  0  0  0  0  0  0  0  0  0
   -0.9047   -1.1194   -0.0262 C   0  0  0  0  0  0  0  0  0  0  0  0
   -1.4387    0.1692   -0.0057 C   0  0  0  0  0  0  0  0  0  0  0  0
   -0.5931    1.2588    0.1272 C   0  0  0  0  0  0  0  0  0  0  0  0
    0.7800    1.0549    0.2223 C   0  0  0  0  0  0  0  0  0  0  0  0
    2.8594   -0.4093    0.1652 C   0  0  0  0  0  0  0  0  0  0  0  0
    3.5937    0.1932   -1.0540 C   0  0  1  0  0  0  0  0  0  0  0  0
    3.3024    1.6870   -1.1823 C   0  0  0  0  0  0  0  0  0  0  0  0
    4.1758    2.4913   -0.5216 O   0  0  0  0  0  0  0  0  0  0  0  0
    2.4122    2.1717   -1.8633 O   0  0  0  0  0  0  0  0  0  0  0  0
    5.0765    0.0258   -0.9742 N   0  0  0  0  0  0  0  0  0  0  0  0
    5.9797    0.3654   -2.3397 S   0  0  0  0  0  0  0  0  0  0  0  0
    5.7512    2.0218   -2.4215 N   0  0  0  0  0  0  0  0  0  0  0  0
    7.3611    0.1770   -2.0111 O   0  0  0  0  0  0  0  0  0  0  0  0
    5.3312   -0.1930   -3.4959 O   0  0  0  0  0  0  0  0  0  0  0  0
  1  2  2  0
  1  6  1  0
  1  7  1  0
  2  3  1  0
  3  4  2  0
  4  5  1  0
  5  6  2  0
  8  7  1  1
  8  9  1  0
  8 12  1  0
  9 10  1  0
  9 11  2  0
 12 13  1  0
 13 14  1  0
 13 15  2  0
 13 16  2  0
M  END
>  <DRUGBANK_ID>  (1) 
DB03012

>  <SECONDARY_ACCESSION_NUMBERS>  (1) 
EXPT01063

>  <COMMON_NAME>  (1) 
Phenylalanine-N-Sulfonamide

$$$$
