
     RDKit          3D

 15 14  0  0  0  0  0  0  0  0999 V2000
   -2.9046    1.0594   -0.6090 C   0  0  0  0  0  0  0  0  0  0  0  0
    2.9811   -1.0650   -0.5133 C   0  0  0  0  0  0  0  0  0  0  0  0
   -2.7048   -0.4561   -0.4253 C   0  0  0  0  0  0  0  0  0  0  0  0
   -1.6319    1.8580   -0.9446 C   0  0  0  0  0  0  0  0  0  0  0  0
    1.7591   -1.9343   -0.8662 C   0  0  0  0  0  0  0  0  0  0  0  0
    2.7096    0.4507   -0.4435 C   0  0  0  0  0  0  0  0  0  0  0  0
   -1.6331   -2.2987    0.7779 C   0  0  0  0  0  0  0  0  0  0  0  0
    0.5041    2.7246   -0.1099 C   0  0  0  0  0  0  0  0  0  0  0  0
   -0.4689   -2.6891   -0.1710 C   0  0  0  0  0  0  0  0  0  0  0  0
    1.6747    2.2994    0.8135 C   0  0  0  0  0  0  0  0  0  0  0  0
   -1.8589   -0.7997    0.7731 N   0  0  0  0  0  0  0  0  0  0  0  0
   -0.6922    1.8669    0.2207 N   0  0  0  0  0  0  0  0  0  0  0  0
    0.7394   -1.8812    0.2290 N   0  0  0  0  0  0  0  0  0  0  0  0
    1.9019    0.8040    0.7766 N   0  0  0  0  0  0  0  0  0  0  0  0
    0.0270   -0.0030    0.6357 Cu  0  0  0  0  0 15  0  0  0  0  0  0
  3  1  1  0
  4  1  1  0
  5  2  1  0
  6  2  1  0
  9  7  1  0
 10  8  1  0
 11  3  1  0
 11  7  1  0
 12  4  1  0
 12  8  1  0
 13  5  1  0
 13  9  1  0
 14  6  1  0
 14 10  1  0
M  END
>  <DRUGBANK_ID>  (1) 
DB03189

>  <SECONDARY_ACCESSION_NUMBERS>  (1) 
EXPT02191

>  <COMMON_NAME>  (1) 
Cu-Cyclam

$$$$
