
     RDKit          3D

 21 23  0  0  0  0  0  0  0  0999 V2000
    0.0516    0.8362   -0.0404 C   0  0  0  0  0  0  0  0  0  0  0  0
   -0.6528   -0.4842   -0.0445 C   0  0  0  0  0  0  0  0  0  0  0  0
    0.8692   -0.4431    0.1238 C   0  0  0  0  0  0  0  0  0  0  0  0
    4.0081   -0.8445   -1.9575 C   0  0  0  0  0  0  0  0  0  0  0  0
    3.8062   -2.0666   -2.5960 C   0  0  0  0  0  0  0  0  0  0  0  0
    2.5623   -2.7015   -2.4477 C   0  0  0  0  0  0  0  0  0  0  0  0
    1.5616   -2.1351   -1.6557 C   0  0  0  0  0  0  0  0  0  0  0  0
    1.7671   -0.9059   -1.0145 C   0  0  0  0  0  0  0  0  0  0  0  0
    2.9978   -0.2521   -1.2208 C   0  0  0  0  0  0  0  0  0  0  0  0
    7.0801   -3.5226   -3.7854 C   0  0  0  0  0  0  0  0  0  0  0  0
    6.8187   -3.6671   -5.1513 C   0  0  0  0  0  0  0  0  0  0  0  0
    5.5804   -3.2784   -5.6698 C   0  0  0  0  0  0  0  0  0  0  0  0
    4.6010   -2.7740   -4.8169 C   0  0  0  0  0  0  0  0  0  0  0  0
    4.8459   -2.6380   -3.4438 C   0  0  0  0  0  0  0  0  0  0  0  0
    6.0997   -3.0065   -2.9359 C   0  0  0  0  0  0  0  0  0  0  0  0
    8.0588   -4.3420   -6.1440 Cl  0  0  0  0  0  0  0  0  0  0  0  0
    5.1925   -3.3808   -7.3489 Cl  0  0  0  0  0  0  0  0  0  0  0  0
    5.2030   -0.2357   -2.0100 F   0  0  0  0  0  0  0  0  0  0  0  0
    1.4793   -0.7817    1.4685 C   0  0  0  0  0  0  0  0  0  0  0  0
    0.8593   -1.2112    2.4325 O   0  0  0  0  0  0  0  0  0  0  0  0
    2.8298   -0.6619    1.4812 O   0  0  0  0  0  0  0  0  0  0  0  0
  1  3  1  0
  2  1  1  0
  3  2  1  0
  3 19  1  0
  4 18  1  0
  4  5  2  0
  5  6  1  0
  6  7  2  0
  7  8  1  0
  8  9  2  0
  8  3  1  0
  9  4  1  0
 10 11  2  0
 11 12  1  0
 11 16  1  0
 12 13  2  0
 12 17  1  0
 13 14  1  0
 14 15  2  0
 14  5  1  0
 15 10  1  0
 19 20  2  0
 19 21  1  0
M  END
>  <DRUGBANK_ID>  (1) 
DB16825

>  <COMMON_NAME>  (1) 
Itanapraced

>  <CAS_NUMBER>  (1) 
749269-83-8

>  <UNII>  (1) 
C35RF1MWQZ

>  <SYNONYMS>  (1) 
Itanapraced

$$$$
