
     RDKit          3D

 21 21  0  0  0  0  0  0  0  0999 V2000
    0.2803   -1.1901    0.1656 C   0  0  0  0  0  0  0  0  0  0  0  0
    1.0107    0.0015    0.0372 C   0  0  0  0  0  0  0  0  0  0  0  0
    2.3769    0.0678   -0.0640 O   0  0  0  0  0  0  0  0  0  0  0  0
    3.0417   -1.1908   -0.0407 C   0  0  0  0  0  0  0  0  0  0  0  0
   -2.9741   -2.5098    1.4485 N   0  0  0  0  0  0  0  0  0  0  0  0
   -1.8148   -2.5154    0.5904 C   0  0  0  0  0  0  0  0  0  0  0  0
   -1.0857   -1.1663    0.4462 C   0  0  0  0  0  0  0  0  0  0  0  0
   -1.7133    0.1150    0.4374 C   0  0  0  0  0  0  0  0  0  0  0  0
   -1.0235    1.2936    0.1545 C   0  0  0  0  0  0  0  0  0  0  0  0
    0.3456    1.2329    0.0333 C   0  0  0  0  0  0  0  0  0  0  0  0
    1.0220    2.4171   -0.0450 O   0  0  0  0  0  0  0  0  0  0  0  0
   -5.0665   -2.5742    2.1506 O   0  0  0  0  0  0  0  0  0  0  0  0
   -4.3284   -2.5485    1.1796 C   0  0  0  0  0  0  0  0  0  0  0  0
   -4.9725   -2.6133   -0.2461 C   0  0  0  0  0  0  0  0  0  0  0  0
   -4.8368   -1.4012   -1.1817 C   0  0  0  0  0  0  0  0  0  0  0  0
   -3.4147   -1.2834   -1.6276 C   0  0  0  0  0  0  0  0  0  0  0  0
   -2.7914   -2.4981   -2.3212 C   0  0  0  0  0  0  0  0  0  0  0  0
   -3.2954   -2.5347   -3.7203 C   0  0  0  0  0  0  0  0  0  0  0  0
   -2.8122   -1.2737   -4.4252 C   0  0  0  0  0  0  0  0  0  0  0  0
   -1.2805   -1.1639   -4.4294 C   0  0  0  0  0  0  0  0  0  0  0  0
   -0.6778   -2.3913   -5.0901 C   0  0  0  0  0  0  0  0  0  0  0  0
  1  2  2  0
  1  7  1  0
  2  3  1  0
  2 10  1  0
  3  4  1  0
  5  6  1  0
  5 13  1  0
  6  7  1  0
  7  8  2  0
  8  9  1  0
  9 10  2  0
 10 11  1  0
 12 13  2  0
 13 14  1  0
 14 15  1  0
 15 16  1  0
 16 17  1  0
 17 18  1  0
 18 19  1  0
 19 20  1  0
 20 21  1  0
M  END
>  <DRUGBANK_ID>  (1) 
DB11324

>  <COMMON_NAME>  (1) 
Nonivamide

>  <CAS_NUMBER>  (1) 
2444-46-4

>  <UNII>  (1) 
S846B891OR

>  <SYNONYMS>  (1) 
Hydroxymethoxybenzyl pelargonamide; N-Nonanoyl vanillylamide; N-Vanillylnonamide; N-Vanillylpelargonamide; Nonivamide; Pelargonyl vanillylamide; Pseudocapsaicin; Vanillyl-N-nonylamide

$$$$
