1494
     RDKit          3D

 15 13  0  0  0  0  0  0  0  0999 V2000
    1.3304    1.1670   -0.9405 Cl  0  0  0  0  0  0  0  0  0  0  0  0
    4.2443   -1.6845   -0.8696 Cl  0  0  0  0  0  0  0  0  0  0  0  0
    4.1408    1.1747   -2.1885 Cl  0  0  0  0  0  0  0  0  0  0  0  0
    0.7360   -1.2736    0.6290 O   0  0  0  0  0  0  0  0  0  0  0  0
    1.9650   -1.0998   -1.3043 O   0  0  0  0  0  0  0  0  0  0  0  0
    3.1498    2.0392    0.1457 O   0  0  0  0  0  0  0  0  0  0  0  0
    2.8481   -0.2098    2.4738 O   0  0  0  0  0  0  0  0  0  0  0  0
    2.7559    1.2916    2.1748 N   0  0  0  0  0  0  0  0  0  0  0  0
    3.1306   -0.6826    1.0736 C   0  0  0  0  0  0  0  0  0  0  0  0
    1.1195    1.2673    2.6260 C   0  0  0  0  0  0  0  0  0  0  0  0
    3.7923    1.0354    3.7260 C   0  0  0  0  0  0  0  0  0  0  0  0
    3.1345    2.9063    1.9285 C   0  0  0  0  0  0  0  0  0  0  0  0
    1.7889   -1.1817   -0.0401 C   0  0  0  0  0  0  0  0  0  0  0  0
    3.7380    0.8644    0.8550 C   0  0  0  0  0  0  0  0  0  0  0  0
    3.4454    0.3568   -0.7576 C   0  0  0  0  0  0  0  0  0  0  0  0
  1 15  1  0
  2 15  1  0
  3 15  1  0
  4 13  1  0
  5 13  2  0
  6 14  1  0
  7 14  1  0
  8  9  1  0
  8 10  1  0
  8 11  1  0
  8 12  1  0
  9 13  1  0
 14 15  1  0
M  CHG  2   4  -1   8   1
M  END
>  <DRUGBANK_ID>  (1) 
DB01494

>  <COMMON_NAME>  (1) 
Chloral betaine

>  <CAS_NUMBER>  (1) 
2218-68-0

>  <UNII>  (1) 
8680278NRH

>  <SYNONYMS>  (1) 
Chloral betaine; Cloral betaine

$$$$
