
     RDKit          3D

 32 32  0  0  1  0  0  0  0  0999 V2000
    0.8558    0.0503   -0.0411 C   0  0  0  0  0  0  0  0  0  0  0  0
    0.3515    1.1068   -1.0295 C   0  0  0  0  0  0  0  0  0  0  0  0
   -0.4966    0.5755   -2.1370 C   0  0  0  0  0  0  0  0  0  0  0  0
   -1.7726    1.1904   -2.0707 O   0  0  0  0  0  0  0  0  0  0  0  0
    0.6055    2.4456   -1.0082 C   0  0  0  0  0  0  0  0  0  0  0  0
    1.4075    3.0376    0.0039 C   0  0  0  0  0  0  0  0  0  0  0  0
    1.8703    4.2313    0.3789 C   0  0  0  0  0  0  0  0  0  0  0  0
    2.7226    4.4659    1.5621 C   0  0  0  0  0  0  0  0  0  0  0  0
    3.1369    5.9098    1.8046 C   0  0  0  0  0  0  0  0  0  0  0  0
    3.1570    3.5316    2.4317 C   0  0  0  0  0  0  0  0  0  0  0  0
    2.8983    2.0992    2.4164 C   0  0  0  0  0  0  0  0  0  0  0  0
    3.3303    1.2205    3.2636 C   0  0  0  0  0  0  0  0  0  0  0  0
    3.0763   -0.2101    3.2555 C   0  0  0  0  0  0  0  0  0  0  0  0
    3.5050   -1.1484    4.1231 C   0  0  0  0  0  0  0  0  0  0  0  0
    3.1133   -2.5930    3.9092 C   0  0  0  0  0  0  0  0  0  0  0  0
    4.3476   -0.9303    5.3050 C   0  0  0  0  0  0  0  0  0  0  0  0
    4.7945    0.2635    5.6665 C   0  0  0  0  0  0  0  0  0  0  0  0
    5.6012    0.8297    6.6618 C   0  0  0  0  0  0  0  0  0  0  0  0
    5.8984    2.1528    6.7070 C   0  0  0  0  0  0  0  0  0  0  0  0
    5.4411    3.3105    5.8029 C   0  0  0  0  0  0  0  0  0  0  0  0
    6.8025    2.6132    7.7257 C   0  0  0  0  0  0  0  0  0  0  0  0
    7.2769    1.8607    8.7225 C   0  0  0  0  0  0  0  0  0  0  0  0
    8.0628    2.2959    9.8546 C   0  0  0  0  0  0  0  0  0  0  0  0
    9.0634    1.5068   10.2876 C   0  0  0  0  0  0  0  0  0  0  0  0
    9.5575    0.2528    9.5959 C   0  0  0  0  0  0  0  0  0  0  0  0
    9.8227    1.7908   11.5421 C   0  0  0  0  0  0  0  0  0  0  0  0
    9.4891    3.0565   12.3138 C   0  0  1  0  0  0  0  0  0  0  0  0
   10.6119    3.9392   12.2026 O   0  0  0  0  0  0  0  0  0  0  0  0
    8.2721    3.8636   11.9308 C   0  0  0  0  0  0  0  0  0  0  0  0
    7.5523    3.5240   10.6092 C   0  0  0  0  0  0  0  0  0  0  0  0
    6.0901    3.2282   11.0270 C   0  0  0  0  0  0  0  0  0  0  0  0
    7.7101    4.7996    9.7494 C   0  0  0  0  0  0  0  0  0  0  0  0
  1  2  1  0
  2  3  1  0
  2  5  2  0
  3  4  1  0
  5  6  1  0
  6  7  2  0
  7  8  1  0
  8  9  1  0
  8 10  2  0
 10 11  1  0
 11 12  2  0
 12 13  1  0
 13 14  2  0
 14 15  1  0
 14 16  1  0
 16 17  2  0
 17 18  1  0
 18 19  2  0
 19 20  1  0
 19 21  1  0
 21 22  2  0
 22 23  1  0
 23 24  2  0
 23 30  1  0
 24 25  1  0
 24 26  1  0
 26 27  1  0
 27 28  1  6
 27 29  1  0
 29 30  1  0
 30 31  1  0
 30 32  1  0
M  END
>  <DRUGBANK_ID>  (1) 
DB02253

>  <SECONDARY_ACCESSION_NUMBERS>  (1) 
EXPT00185

>  <COMMON_NAME>  (1) 
(1r)-4-[(1e,3e,5e,7z,9e,11z,13e,15e)-17-Hydroxy-3,7,12,16-Tetramethylheptadeca-1,3,5,7,9,11,13,15-Octaen-1-Yl]-3,5,5-Trimethylcyclohex-3-En-1-Ol

$$$$
