
     RDKit          3D

 15 15  0  0  0  0  0  0  0  0999 V2000
   -0.0405   -1.5001   -0.0863 C   0  0  0  0  0  0  0  0  0  0  0  0
   -1.2952   -0.6412   -0.0246 C   0  0  0  0  0  0  0  0  0  0  0  0
    1.2543   -0.7059    0.0142 C   0  0  0  0  0  0  0  0  0  0  0  0
   -0.0441   -2.5020    1.0978 C   0  0  0  0  0  0  0  0  0  0  0  0
   -0.0249   -2.2387   -1.4466 C   0  0  0  0  0  0  0  0  0  0  0  0
   -1.1427    0.7082    0.0190 N   0  0  0  0  0  0  0  0  0  0  0  0
   -2.4408   -1.0902   -0.0701 O   0  0  0  0  0  0  0  0  0  0  0  0
    1.1644    0.6553   -0.0313 N   0  0  0  0  0  0  0  0  0  0  0  0
    2.3625   -1.2373    0.0978 O   0  0  0  0  0  0  0  0  0  0  0  0
   -1.2142   -3.4500    1.1187 C   0  0  0  0  0  0  0  0  0  0  0  0
    0.0585   -1.2965   -2.6227 C   0  0  0  0  0  0  0  0  0  0  0  0
    0.0257    1.3945   -0.0106 C   0  0  0  0  0  0  0  0  0  0  0  0
   -1.1125   -4.7769    0.9976 C   0  0  0  0  0  0  0  0  0  0  0  0
    1.0829   -1.2871   -3.4822 C   0  0  0  0  0  0  0  0  0  0  0  0
    0.0470    2.6167   -0.0033 O   0  0  0  0  0  0  0  0  0  0  0  0
  1  2  1  0
  1  3  1  0
  1  4  1  0
  1  5  1  0
  2  6  1  0
  2  7  2  0
  3  8  1  0
  3  9  2  0
  4 10  1  0
  5 11  1  0
  6 12  1  0
  8 12  1  0
 10 13  2  0
 11 14  2  0
 12 15  2  0
M  END
>  <DRUGBANK_ID>  (1) 
DB13577

>  <COMMON_NAME>  (1) 
Allobarbital

>  <CAS_NUMBER>  (1) 
52-43-7

>  <UNII>  (1) 
8NT43GG2HA

>  <SYNONYMS>  (1) 
Allobarbital; Allobarbitalum

$$$$
