
     RDKit          3D

 18 18  0  0  0  0  0  0  0  0999 V2000
    0.9668    0.0043   -0.1306 C   0  0  0  0  0  0  0  0  0  0  0  0
    0.3967   -0.2288    1.2690 C   0  0  0  0  0  0  0  0  0  0  0  0
    1.0285    0.5607    2.3324 N   0  0  0  0  0  0  0  0  0  0  0  0
    0.4905    0.2606    3.6689 C   0  0  0  0  0  0  0  0  0  0  0  0
    0.7773   -1.1241    4.2521 C   0  0  0  0  0  0  0  0  0  0  0  0
    2.4919    0.6105    2.2942 C   0  0  0  0  0  0  0  0  0  0  0  0
    3.2749   -0.6854    2.5238 C   0  0  0  0  0  0  0  0  0  0  0  0
    2.8812   -1.8430    1.7225 N   0  0  0  0  0  0  0  0  0  0  0  0
    3.6705   -2.6221    0.9418 C   0  0  0  0  0  0  0  0  0  0  0  0
    3.1932   -3.4242    0.1360 O   0  0  0  0  0  0  0  0  0  0  0  0
    5.1151   -2.4823    1.1152 C   0  0  0  0  0  0  0  0  0  0  0  0
    5.6478   -2.4198    2.4116 C   0  0  0  0  0  0  0  0  0  0  0  0
    6.9876   -2.1243    2.5931 C   0  0  0  0  0  0  0  0  0  0  0  0
    7.8296   -2.0148    1.4861 C   0  0  0  0  0  0  0  0  0  0  0  0
    7.2751   -2.1174    0.1885 C   0  0  0  0  0  0  0  0  0  0  0  0
    5.9171   -2.3402   -0.0055 C   0  0  0  0  0  0  0  0  0  0  0  0
    8.2813   -1.9910   -1.2103 Cl  0  0  0  0  0  0  0  0  0  0  0  0
    9.1564   -1.6475    1.6952 N   0  0  0  0  0  0  0  0  0  0  0  0
  1  2  1  0
  2  3  1  0
  3  4  1  0
  3  6  1  0
  4  5  1  0
  6  7  1  0
  7  8  1  0
  8  9  1  0
  9 10  2  0
  9 11  1  0
 11 12  2  0
 11 16  1  0
 12 13  1  0
 13 14  2  0
 14 15  1  0
 14 18  1  0
 15 16  2  0
 15 17  1  0
M  END
>  <DRUGBANK_ID>  (1) 
DB06421

>  <COMMON_NAME>  (1) 
Declopramide

>  <CAS_NUMBER>  (1) 
891-60-1

>  <UNII>  (1) 
916GJF577D

>  <SYNONYMS>  (1) 
Declopramide

$$$$
