
     RDKit          3D

 28 29  0  0  1  0  0  0  0  0999 V2000
   -1.1302    0.3324    3.2096 C   0  0  0  0  0  0  0  0  0  0  0  0
    0.2754    0.6918    2.7887 C   0  0  0  0  0  0  0  0  0  0  0  0
    0.9709   -0.6107    2.3989 C   0  0  2  0  0  0  0  0  0  0  0  0
    0.6254   -0.9852    0.9493 C   0  0  0  0  0  0  0  0  0  0  0  0
    0.6571   -1.7443    3.4392 C   0  0  0  0  0  0  0  0  0  0  0  0
    1.2197   -3.1170    3.1743 C   0  0  0  0  0  0  0  0  0  0  0  0
    2.7766   -3.1166    3.1295 C   0  0  1  0  0  0  0  0  0  0  0  0
    3.1841   -4.3220    2.2665 C   0  0  0  0  0  0  0  0  0  0  0  0
    4.5141   -4.1370    1.5736 C   0  0  0  0  0  0  0  0  0  0  0  0
    4.4974   -2.7540    0.9537 C   0  0  1  0  0  0  0  0  0  0  0  0
    4.5022   -1.7380    2.0663 C   0  0  2  0  0  0  0  0  0  0  0  0
    3.2514   -1.8388    2.6846 O   0  0  0  0  0  0  0  0  0  0  0  0
    4.7800   -0.4204    1.3263 C   0  0  0  0  0  0  0  0  0  0  0  0
    5.8137   -0.9095    0.3563 C   0  0  0  0  0  0  0  0  0  0  0  0
    6.6408   -0.1840   -0.1796 O   0  0  0  0  0  0  0  0  0  0  0  0
    5.7072   -2.4053    0.1398 C   0  0  2  0  0  0  0  0  0  0  0  0
    5.4703   -2.7621   -1.3175 C   0  0  0  0  0  0  0  0  0  0  0  0
    6.7274   -2.4848   -2.1256 C   0  0  0  0  0  0  0  0  0  0  0  0
    7.9172   -3.2400   -1.5266 C   0  0  0  0  0  0  0  0  0  0  0  0
    7.6530   -4.7518   -1.5431 C   0  0  0  0  0  0  0  0  0  0  0  0
    7.5274   -5.2578   -2.9825 C   0  0  0  0  0  0  0  0  0  0  0  0
    8.7647   -4.9218   -3.8165 C   0  0  0  0  0  0  0  0  0  0  0  0
    9.9966   -5.6129   -3.2997 C   0  0  0  0  0  0  0  0  0  0  0  0
   10.6270   -6.4839   -3.8955 O   0  0  0  0  0  0  0  0  0  0  0  0
   10.3817   -5.2155   -2.0750 O   0  0  0  0  0  0  0  0  0  0  0  0
    3.2384   -3.2526    4.4741 O   0  0  0  0  0  0  0  0  0  0  0  0
    0.7699   -3.9748    4.1375 F   0  0  0  0  0  0  0  0  0  0  0  0
    0.6597   -3.5989    2.0296 F   0  0  0  0  0  0  0  0  0  0  0  0
  1  2  1  0
  3  5  1  0
  3  4  1  6
  3  2  1  0
  5  6  1  0
  6 27  1  0
  6 28  1  0
  7  6  1  0
  7  8  1  0
  7 12  1  0
  7 26  1  1
  8  9  1  0
 10  9  1  1
 10 11  1  0
 10 16  1  0
 11 12  1  0
 11 13  1  6
 13 14  1  0
 14 15  2  0
 14 16  1  0
 16 17  1  6
 17 18  1  0
 18 19  1  0
 19 20  1  0
 20 21  1  0
 21 22  1  0
 22 23  1  0
 23 24  2  0
 23 25  1  0
M  END
>  <DRUGBANK_ID>  (1) 
DB05514

>  <COMMON_NAME>  (1) 
Cobiprostone

>  <CAS_NUMBER>  (1) 
333963-42-1

>  <UNII>  (1) 
IL870Q3Z8I

>  <SYNONYMS>  (1) 
Cobiprostone

$$$$
