
     RDKit          3D

  5  4  0  0  0  0  0  0  0  0999 V2000
    0.8624   -0.0017    0.0943 O   0  0  0  0  0  0  0  0  0  0  0  0
    0.2858    1.1337    0.5372 C   0  0  0  0  0  0  0  0  0  0  0  0
    0.9743    2.0551    0.9522 O   0  0  0  0  0  0  0  0  0  0  0  0
   -1.2209    1.1038    0.5184 C   0  0  0  0  0  0  0  0  0  0  0  0
   -1.8826    0.8542   -1.1548 S   0  0  0  0  0  0  0  0  0  0  0  0
  1  2  1  0
  2  3  2  0
  2  4  1  0
  4  5  1  0
M  END
>  <DRUGBANK_ID>  (1) 
DB15429

>  <COMMON_NAME>  (1) 
Thioglycolic acid

>  <CAS_NUMBER>  (1) 
68-11-1

>  <UNII>  (1) 
7857H94KHM

$$$$
