
     RDKit          3D

 32 33  0  0  1  0  0  0  0  0999 V2000
   -6.8466    3.7608   -8.0161 C   0  0  0  0  0  0  0  0  0  0  0  0
   -6.9012    1.6179   -8.1665 S   0  0  0  0  0  0  0  0  0  0  0  0
   -6.3391    1.2959   -9.4466 O   0  0  0  0  0  0  0  0  0  0  0  0
   -6.4140    0.7539   -7.0877 O   0  0  0  0  0  0  0  0  0  0  0  0
   -8.4766    1.2121   -8.1295 N   0  0  0  0  0  0  0  0  0  0  0  0
   -9.5741    1.9639   -7.6828 C   0  0  0  0  0  0  0  0  0  0  0  0
  -10.6737    1.5419   -7.8394 O   0  0  0  0  0  0  0  0  0  0  0  0
   -9.3073    3.3418   -7.0961 C   0  0  0  0  0  0  0  0  0  0  0  0
   -8.5018    3.4055   -5.7187 C   0  0  0  0  0  0  0  0  0  0  0  0
   -6.9978    2.6692   -5.4284 C   0  0  0  0  0  0  0  0  0  0  0  0
   -5.5110    2.9314   -6.2617 C   0  0  0  0  0  0  0  0  0  0  0  0
   -4.6713    3.9664   -6.1758 C   0  0  0  0  0  0  0  0  0  0  0  0
   -4.1979    4.0154   -4.8424 C   0  0  0  0  0  0  0  0  0  0  0  0
   -3.1545    2.8968   -4.8093 C   0  0  2  0  0  0  0  0  0  0  0  0
   -2.2677    3.2611   -3.6601 C   0  0  2  0  0  0  0  0  0  0  0  0
   -0.9370    2.5531   -3.9018 C   0  0  1  0  0  0  0  0  0  0  0  0
   -1.0176    1.7878   -5.2155 C   0  0  0  0  0  0  0  0  0  0  0  0
   -2.1318    2.5360   -5.8733 C   0  0  0  0  0  0  0  0  0  0  0  0
   -2.2210    2.6717   -7.0843 O   0  0  0  0  0  0  0  0  0  0  0  0
    0.0766    3.5553   -3.9802 O   0  0  0  0  0  0  0  0  0  0  0  0
   -2.9123    2.9232   -2.3694 C   0  0  0  0  0  0  0  0  0  0  0  0
   -4.1561    2.4491   -2.2693 C   0  0  0  0  0  0  0  0  0  0  0  0
   -4.8264    1.8454   -1.1327 C   0  0  2  0  0  0  0  0  0  0  0  0
   -3.9738    1.6858    0.1386 C   0  0  0  0  0  0  0  0  0  0  0  0
   -3.6684    0.3523    0.5087 O   0  0  0  0  0  0  0  0  0  0  0  0
   -4.7099   -0.3904    0.9802 C   0  0  0  0  0  0  0  0  0  0  0  0
   -6.0078   -0.3727    0.4674 C   0  0  0  0  0  0  0  0  0  0  0  0
   -6.9143   -1.3789    0.7184 C   0  0  0  0  0  0  0  0  0  0  0  0
   -6.5932   -2.3234    1.6654 C   0  0  0  0  0  0  0  0  0  0  0  0
   -5.3385   -2.2948    2.2823 C   0  0  0  0  0  0  0  0  0  0  0  0
   -4.3906   -1.3307    1.9401 C   0  0  0  0  0  0  0  0  0  0  0  0
   -5.2272    0.6377   -1.8028 O   0  0  0  0  0  0  0  0  0  0  0  0
  1  2  1  0
  2  3  2  0
  2  4  2  0
  2  5  1  0
  5  6  1  0
  6  7  2  0
  6  8  1  0
  8  9  1  0
  9 10  1  0
 10 11  1  0
 11 12  2  0
 12 13  1  0
 14 13  1  6
 14 15  1  0
 14 18  1  0
 15 16  1  0
 15 21  1  1
 16 17  1  0
 16 20  1  6
 17 18  1  0
 18 19  2  0
 21 22  2  0
 23 32  1  6
 23 24  1  0
 23 22  1  0
 24 25  1  0
 25 26  1  0
 26 27  2  0
 26 31  1  0
 27 28  1  0
 28 29  2  0
 29 30  1  0
 30 31  2  0
M  END
>  <DRUGBANK_ID>  (1) 
DB12708

>  <COMMON_NAME>  (1) 
Sulprostone

>  <CAS_NUMBER>  (1) 
60325-46-4

>  <UNII>  (1) 
501Q5EQ1GM

>  <SYNONYMS>  (1) 
Sulprostone

$$$$
