
     RDKit          3D

 13 13  0  0  0  0  0  0  0  0999 V2000
    0.9200    0.0532    0.0486 O   0  0  0  0  0  0  0  0  0  0  0  0
    0.4096   -0.8180   -0.8365 C   0  0  0  0  0  0  0  0  0  0  0  0
    1.1082   -1.4282   -1.6252 O   0  0  0  0  0  0  0  0  0  0  0  0
   -1.0620   -0.8889   -0.7475 C   0  0  0  0  0  0  0  0  0  0  0  0
   -1.7825    0.3296   -0.8148 C   0  0  0  0  0  0  0  0  0  0  0  0
   -3.1836    0.3368   -0.8146 C   0  0  0  0  0  0  0  0  0  0  0  0
   -4.1532    1.8332   -0.7921 S   0  0  0  0  0  0  0  0  0  0  0  0
   -3.8672   -0.8811   -0.8177 C   0  0  0  0  0  0  0  0  0  0  0  0
   -3.1690   -2.0903   -0.7472 C   0  0  0  0  0  0  0  0  0  0  0  0
   -1.7624   -2.1029   -0.6860 C   0  0  0  0  0  0  0  0  0  0  0  0
   -1.1062   -3.4076   -0.4780 N   0  0  0  0  0  0  0  0  0  0  0  0
   -1.8330   -4.4128   -0.4946 O   0  0  0  0  0  0  0  0  0  0  0  0
    0.1017   -3.4452   -0.2281 O   0  0  0  0  0  0  0  0  0  0  0  0
  1  2  1  0
  2  3  2  0
  2  4  1  0
  4  5  2  0
  4 10  1  0
  5  6  1  0
  6  7  1  0
  6  8  2  0
  8  9  1  0
  9 10  2  0
 10 11  1  0
 11 12  1  0
 11 13  2  0
M  CHG  2  11   1  12  -1
M  END
>  <DRUGBANK_ID>  (1) 
DB02763

>  <SECONDARY_ACCESSION_NUMBERS>  (1) 
EXPT02201

>  <COMMON_NAME>  (1) 
5-Mercapto-2-Nitro-Benzoic Acid

>  <CAS_NUMBER>  (1) 
15139-21-6

>  <UNII>  (1) 
OWT399B07G

$$$$
