
     RDKit          3D

  7  6  0  0  0  0  0  0  0  0999 V2000
    0.6892    0.0285    0.1100 N   0  0  0  0  0  0  0  0  0  0  0  0
   -1.0515   -0.5215    1.6552 N   0  0  0  0  0  0  0  0  0  0  0  0
    0.1786   -0.3967    1.3046 C   0  0  0  0  0  0  0  0  0  0  0  0
    1.0327   -0.7447    2.2825 N   0  0  0  0  0  0  0  0  0  0  0  0
    0.1731    0.4534   -1.0841 C   0  0  0  0  0  0  0  0  0  0  0  0
    0.8640    0.8215   -2.1183 N   0  0  0  0  0  0  0  0  0  0  0  0
   -1.1535    0.5220   -1.2767 N   0  0  0  0  0  0  0  0  0  0  0  0
  1  5  1  0
  2  3  2  0
  3  1  1  0
  3  4  1  0
  5  6  2  0
  5  7  1  0
M  END
>  <DRUGBANK_ID>  (1) 
DB13100

>  <COMMON_NAME>  (1) 
Biguanide

>  <CAS_NUMBER>  (1) 
56-03-1

>  <UNII>  (1) 
FB4Q52I9K2

$$$$
