
     RDKit          3D

 36 38  0  0  1  0  0  0  0  0999 V2000
    1.0066    0.1884   -0.1705 C   0  0  0  0  0  0  0  0  0  0  0  0
    0.4713   -0.5411    1.0330 C   0  0  0  0  0  0  0  0  0  0  0  0
    1.0085   -0.0912    2.2739 O   0  0  0  0  0  0  0  0  0  0  0  0
    2.4247   -0.1671    2.3943 C   0  0  0  0  0  0  0  0  0  0  0  0
    2.9680   -1.5717    2.4217 C   0  0  0  0  0  0  0  0  0  0  0  0
    4.3370   -1.7336    2.6042 C   0  0  0  0  0  0  0  0  0  0  0  0
    4.8868   -3.0094    2.6709 C   0  0  0  0  0  0  0  0  0  0  0  0
    4.0753   -4.1521    2.4771 C   0  0  0  0  0  0  0  0  0  0  0  0
    2.6875   -4.0033    2.3636 C   0  0  0  0  0  0  0  0  0  0  0  0
    2.1685   -2.7190    2.3387 C   0  0  0  0  0  0  0  0  0  0  0  0
    1.6936   -4.9484    2.2885 O   0  0  0  0  0  0  0  0  0  0  0  0
    1.9688   -6.2742    2.7095 C   0  0  0  0  0  0  0  0  0  0  0  0
    4.7053   -5.4575    2.4069 C   0  0  0  0  0  0  0  0  0  0  0  0
    5.2305   -6.0366    3.5694 C   0  0  0  0  0  0  0  0  0  0  0  0
    5.6028   -7.3719    3.5748 C   0  0  0  0  0  0  0  0  0  0  0  0
    5.4964   -8.1198    2.3975 C   0  0  0  0  0  0  0  0  0  0  0  0
    5.0397   -7.5088    1.2231 C   0  0  0  0  0  0  0  0  0  0  0  0
    4.6505   -6.1855    1.2174 C   0  0  0  0  0  0  0  0  0  0  0  0
    5.8885   -9.5688    2.3520 C   0  0  0  0  0  0  0  0  0  0  0  0
    4.7131  -10.5320    2.2055 C   0  0  1  0  0  0  0  0  0  0  0  0
    3.9141  -10.4322    0.8855 C   0  0  0  0  0  0  0  0  0  0  0  0
    4.0683  -11.1031   -0.1136 O   0  0  0  0  0  0  0  0  0  0  0  0
    3.0057   -9.4248    0.8950 O   0  0  0  0  0  0  0  0  0  0  0  0
    5.1958  -11.9131    2.3418 N   0  0  0  0  0  0  0  0  0  0  0  0
    4.8104  -12.8781    3.2397 C   0  0  0  0  0  0  0  0  0  0  0  0
    5.3134  -13.9908    3.1888 O   0  0  0  0  0  0  0  0  0  0  0  0
    3.7929  -12.5775    4.2636 C   0  0  0  0  0  0  0  0  0  0  0  0
    2.5890  -11.9544    3.9360 C   0  0  0  0  0  0  0  0  0  0  0  0
    1.6388  -11.6481    4.9005 C   0  0  0  0  0  0  0  0  0  0  0  0
    1.8214  -12.0952    6.2016 C   0  0  0  0  0  0  0  0  0  0  0  0
    2.9762  -12.8071    6.5293 C   0  0  0  0  0  0  0  0  0  0  0  0
    3.9816  -12.9937    5.5774 C   0  0  0  0  0  0  0  0  0  0  0  0
    5.1350  -13.5497    5.9752 F   0  0  0  0  0  0  0  0  0  0  0  0
    2.3023  -11.6090    2.6746 F   0  0  0  0  0  0  0  0  0  0  0  0
    6.2089   -3.2531    2.9488 O   0  0  0  0  0  0  0  0  0  0  0  0
    7.0138   -2.1331    3.2706 C   0  0  0  0  0  0  0  0  0  0  0  0
  1  2  1  0
  2  3  1  0
  3  4  1  0
  4  5  1  0
  5  6  2  0
  5 10  1  0
  6  7  1  0
  7  8  2  0
  7 35  1  0
  8  9  1  0
  8 13  1  0
  9 10  2  0
  9 11  1  0
 11 12  1  0
 13 14  2  0
 13 18  1  0
 14 15  1  0
 15 16  2  0
 16 17  1  0
 16 19  1  0
 17 18  2  0
 20 19  1  6
 20 21  1  0
 20 24  1  0
 21 22  2  0
 21 23  1  0
 24 25  1  0
 25 26  2  0
 25 27  1  0
 27 28  2  0
 27 32  1  0
 28 29  1  0
 28 34  1  0
 29 30  2  0
 30 31  1  0
 31 32  2  0
 32 33  1  0
 35 36  1  0
M  END
>  <DRUGBANK_ID>  (1) 
DB12732

>  <COMMON_NAME>  (1) 
Firategrast

>  <CAS_NUMBER>  (1) 
402567-16-2

>  <UNII>  (1) 
OJY3SK9H5F

>  <SYNONYMS>  (1) 
Firategrast

$$$$
