
     RDKit          3D

 41 45  0  0  1  0  0  0  0  0999 V2000
    2.7833   -1.3072   -2.8452 C   0  0  1  0  0  0  0  0  0  0  0  0
    3.3162   -3.1744   -2.8248 C   0  0  0  0  0  0  0  0  0  0  0  0
    2.4907   -3.9147   -1.7260 C   0  0  0  0  0  0  0  0  0  0  0  0
    2.0447   -2.5841   -1.5048 C   0  0  2  0  0  0  0  0  0  0  0  0
    1.2760   -2.2504   -0.3251 C   0  0  2  0  0  0  0  0  0  0  0  0
    2.0951   -2.5113    0.9993 C   0  0  2  0  0  0  0  0  0  0  0  0
    2.0924   -3.8745    1.3466 O   0  0  0  0  0  0  0  0  0  0  0  0
    1.5307   -1.6847    2.1191 C   0  0  0  0  0  0  0  0  0  0  0  0
    0.0158   -1.8381    2.0806 C   0  0  1  0  0  0  0  0  0  0  0  0
   -0.6137   -1.0802    3.2731 C   0  0  0  0  0  0  0  0  0  0  0  0
   -0.8922    0.4041    2.9942 C   0  0  2  0  0  0  0  0  0  0  0  0
   -2.0149    0.3221    1.8551 C   0  0  0  0  0  0  0  0  0  0  0  0
   -2.1517   -1.2151    1.0659 C   0  0  0  0  0  0  0  0  0  0  0  0
   -0.6928   -1.5203    0.6625 C   0  0  1  0  0  0  0  0  0  0  0  0
   -0.4569   -0.1738   -0.0353 C   0  0  0  0  0  0  0  0  0  0  0  0
   -0.2119   -2.4839   -0.4225 C   0  0  1  0  0  0  0  0  0  0  0  0
   -0.7490   -2.0084   -1.8143 C   0  0  0  0  0  0  0  0  0  0  0  0
    0.0519   -2.4506   -2.9704 C   0  0  0  0  0  0  0  0  0  0  0  0
    1.4865   -2.0061   -2.9325 C   0  0  1  0  0  0  0  0  0  0  0  0
    1.7516   -2.2530   -4.5868 C   0  0  0  0  0  0  0  0  0  0  0  0
    0.4345    1.0952    2.8381 N   0  0  0  0  0  0  0  0  0  0  0  0
    0.5373    2.5295    3.0971 C   0  0  0  0  0  0  0  0  0  0  0  0
    2.0133    3.0795    3.0135 C   0  0  0  0  0  0  0  0  0  0  0  0
    2.6283    2.9145    1.6451 C   0  0  0  0  0  0  0  0  0  0  0  0
    1.6238    3.4353    0.6273 C   0  0  0  0  0  0  0  0  0  0  0  0
    1.7122    4.8718    0.4711 N   0  0  0  0  0  0  0  0  0  0  0  0
    1.0237    5.3089   -0.7595 C   0  0  0  0  0  0  0  0  0  0  0  0
   -0.4129    4.8298   -0.8642 C   0  0  0  0  0  0  0  0  0  0  0  0
   -1.4260    5.7242   -1.1023 C   0  0  0  0  0  0  0  0  0  0  0  0
   -2.7373    5.2697   -0.9977 C   0  0  0  0  0  0  0  0  0  0  0  0
   -3.0058    3.9487   -0.6696 C   0  0  0  0  0  0  0  0  0  0  0  0
   -1.9406    3.1030   -0.5732 C   0  0  0  0  0  0  0  0  0  0  0  0
   -0.6741    3.5077   -0.7006 N   0  0  0  0  0  0  0  0  0  0  0  0
    3.0848    0.0379   -1.7622 C   0  0  2  0  0  0  0  0  0  0  0  0
    2.8257    0.0832   -0.2498 C   0  0  0  0  0  0  0  0  0  0  0  0
    2.5553    1.4527   -2.2240 C   0  0  0  0  0  0  0  0  0  0  0  0
    3.2880    2.5707   -1.4639 C   0  0  0  0  0  0  0  0  0  0  0  0
    4.6765    2.7418   -1.0504 C   0  0  0  0  0  0  0  0  0  0  0  0
    5.2940    3.8652   -1.0978 O   0  0  0  0  0  0  0  0  0  0  0  0
    5.1314    1.6616   -0.4179 O   0  0  0  0  0  0  0  0  0  0  0  0
    6.5223    1.6358   -0.2922 C   0  0  0  0  0  0  0  0  0  0  0  0
  1  2  1  1
  2  3  1  0
  4  3  1  6
  4 19  1  0
  5  4  1  0
  5  6  1  1
  5 16  1  0
  6  7  1  1
  6  8  1  0
  9  8  1  6
  9 10  1  0
 11 10  1  0
 11 12  1  0
 11 21  1  6
 12 13  1  0
 14 13  1  0
 14  9  1  0
 14 15  1  6
 16 14  1  0
 16 17  1  6
 17 18  1  0
 19 18  1  0
 19  1  1  0
 19 20  1  6
 21 22  1  0
 22 23  1  0
 23 24  1  0
 24 25  1  0
 25 26  1  0
 26 27  1  0
 27 28  1  0
 28 29  2  0
 28 33  1  0
 29 30  1  0
 30 31  2  0
 31 32  1  0
 32 33  2  0
 34 36  1  0
 34 35  1  1
 34  1  1  0
 36 37  1  0
 37 38  1  0
 38 39  2  0
 38 40  1  0
 40 41  1  0
M  END
>  <DRUGBANK_ID>  (1) 
DB18390

>  <COMMON_NAME>  (1) 
DPM-1001

>  <CAS_NUMBER>  (1) 
1471172-29-8

>  <UNII>  (1) 
4EA2U2RX2G

>  <SYNONYMS>  (1) 
Cholan-24-oic acid, 7-hydroxy-3-[[4-[(2-pyridinylmethyl)amino]butyl]amino]-, methyl ester, (3β,5α,7α)-; Methyl (3β,5α,7α)-7-hydroxy-3-[[4-[(2-pyridinylmethyl)amino]butyl]amino]cholan-24-oate; methyl (R)-4-((3S,5R,7R,8R,9S,10S,13R,14S,17R)-7-hydroxy-10,13-dimethyl-3-((4-((pyridin-2-ylmethyl)amino)butyl)amino)hexadecahydro-1H-cyclopenta[a]phenanthren-17-yl)pentanoate

$$$$
