A51
     RDKit          3D

 14 15  0  0  0  0  0  0  0  0999 V2000
    1.7934   -0.3178   -0.1157 C   0  0  0  0  0  0  0  0  0  0  0  0
    1.3034    1.0708    0.2103 C   0  0  0  0  0  0  0  0  0  0  0  0
   -0.1538    0.9219    0.0347 C   0  0  0  0  0  0  0  0  0  0  0  0
   -0.4894   -0.5124    0.0289 C   0  0  0  0  0  0  0  0  0  0  0  0
    0.6782   -1.2079   -0.0078 O   0  0  0  0  0  0  0  0  0  0  0  0
   -1.6062   -1.0007    0.0554 O   0  0  0  0  0  0  0  0  0  0  0  0
   -1.0661    1.8802   -0.1540 C   0  0  0  0  0  0  0  0  0  0  0  0
   -0.8307    3.2264   -0.2659 N   0  0  0  0  0  0  0  0  0  0  0  0
   -1.7924    4.2463   -0.3063 C   0  0  0  0  0  0  0  0  0  0  0  0
   -3.0004    4.1547    0.3913 C   0  0  0  0  0  0  0  0  0  0  0  0
   -3.9389    5.1857    0.3343 C   0  0  0  0  0  0  0  0  0  0  0  0
   -3.6813    6.3211   -0.4294 C   0  0  0  0  0  0  0  0  0  0  0  0
   -2.4809    6.4294   -1.1274 C   0  0  0  0  0  0  0  0  0  0  0  0
   -1.5584    5.3807   -1.0949 C   0  0  0  0  0  0  0  0  0  0  0  0
  1  2  1  0
  1  5  1  0
  2  3  1  0
  3  4  1  0
  3  7  2  0
  4  5  1  0
  4  6  2  0
  7  8  1  0
  8  9  1  0
  9 10  2  0
  9 14  1  0
 10 11  1  0
 11 12  2  0
 12 13  1  0
 13 14  2  0
M  END
>  <DRUGBANK_ID>  (1) 
DB07317

>  <COMMON_NAME>  (1) 
(3E)-3-[(phenylamino)methylidene]dihydrofuran-2(3H)-one

$$$$
