1262
     RDKit          3D

 16 17  0  0  1  0  0  0  0  0999 V2000
    1.3132    0.5430   -0.3187 O   0  0  0  0  0  0  0  0  0  0  0  0
   -1.7442    0.0523   -0.6267 O   0  0  0  0  0  0  0  0  0  0  0  0
    0.0016    2.9382    2.0122 O   0  0  0  0  0  0  0  0  0  0  0  0
    2.1031   -0.6642    2.1940 O   0  0  0  0  0  0  0  0  0  0  0  0
    2.4131   -1.5053    0.1027 N   0  0  0  0  0  0  0  0  0  0  0  0
    3.9661   -1.8211    1.8363 N   0  0  0  0  0  0  0  0  0  0  0  0
    4.3703   -2.7256   -0.2669 N   0  0  0  0  0  0  0  0  0  0  0  0
    5.8589   -2.9799    1.5179 N   0  0  0  0  0  0  0  0  0  0  0  0
   -0.8612    0.0221    0.4979 C   0  0  1  0  0  0  0  0  0  0  0  0
   -0.0718   -1.2651    0.4452 C   0  0  0  0  0  0  0  0  0  0  0  0
    0.1936    1.1221    0.3972 C   0  0  1  0  0  0  0  0  0  0  0  0
    1.1744   -0.8935   -0.3640 C   0  0  1  0  0  0  0  0  0  0  0  0
    0.6119    1.6651    1.7792 C   0  0  0  0  0  0  0  0  0  0  0  0
    2.7986   -1.2992    1.4023 C   0  0  0  0  0  0  0  0  0  0  0  0
    3.2557   -2.2275   -0.6812 C   0  0  0  0  0  0  0  0  0  0  0  0
    4.7046   -2.4925    1.0270 C   0  0  0  0  0  0  0  0  0  0  0  0
  1 11  1  0
  1 12  1  0
  3 13  1  0
  4 14  2  0
  5 14  1  0
  5 15  1  0
  6 14  1  0
  6 16  2  0
  7 15  2  0
  7 16  1  0
  8 16  1  0
  9  2  1  6
  9 10  1  0
  9 11  1  0
 10 12  1  0
 11 13  1  1
 12  5  1  1
M  END
>  <DRUGBANK_ID>  (1) 
DB01262

>  <COMMON_NAME>  (1) 
Decitabine

>  <CAS_NUMBER>  (1) 
2353-33-5

>  <UNII>  (1) 
776B62CQ27

>  <SYNONYMS>  (1) 
4-amino-1-(2-deoxy-Î²-D-erythro-pentofuranosyl)-s-triazin-2(1H)-one; 5-aza-2'-deoxycytidine; 5-azadeoxycytidine; DAC; Decitabina; Decitabine

$$$$
