
     RDKit          3D

 26 26  0  0  1  0  0  0  0  0999 V2000
   -1.9141   -5.9249   -0.6065 C   0  0  0  0  0  0  0  0  0  0  0  0
   -0.8273   -5.8286    0.4722 C   0  0  1  0  0  0  0  0  0  0  0  0
   -0.1385   -7.0575    1.1557 C   0  0  0  0  0  0  0  0  0  0  0  0
    1.0339   -7.2388    1.2665 O   0  0  0  0  0  0  0  0  0  0  0  0
   -1.0340   -7.8331    1.8399 O   0  0  0  0  0  0  0  0  0  0  0  0
    0.0138   -4.5932    0.2788 N   0  0  0  0  0  0  0  0  0  0  0  0
    0.2272   -3.3069    0.7574 C   0  0  0  0  0  0  0  0  0  0  0  0
    1.0920   -2.6533    0.1643 O   0  0  0  0  0  0  0  0  0  0  0  0
   -0.5162   -2.6739    1.9946 C   0  0  2  0  0  0  0  0  0  0  0  0
   -1.4347   -1.3430    1.6983 C   0  0  0  0  0  0  0  0  0  0  0  0
   -2.9101   -1.2474    2.2517 C   0  0  0  0  0  0  0  0  0  0  0  0
   -3.0358   -1.1098    3.8259 C   0  0  0  0  0  0  0  0  0  0  0  0
   -4.0722   -1.1917    4.4703 O   0  0  0  0  0  0  0  0  0  0  0  0
   -1.8339   -1.2112    4.4460 O   0  0  0  0  0  0  0  0  0  0  0  0
    0.1578   -2.6830    3.3213 N   0  0  0  0  0  0  0  0  0  0  0  0
   -0.0656   -3.3803    4.4934 C   0  0  0  0  0  0  0  0  0  0  0  0
    0.6504   -3.0755    5.4570 O   0  0  0  0  0  0  0  0  0  0  0  0
   -1.1489   -4.4772    4.7519 C   0  0  0  0  0  0  0  0  0  0  0  0
   -2.6428   -4.0860    4.7895 C   0  0  0  0  0  0  0  0  0  0  0  0
   -3.1098   -3.7221    3.3933 C   0  0  0  0  0  0  0  0  0  0  0  0
   -2.9303   -4.6639    2.2254 C   0  0  0  0  0  0  0  0  0  0  0  0
   -4.0586   -5.6528    2.0404 C   0  0  2  0  0  0  0  0  0  0  0  0
   -4.4761   -5.8033    3.4603 C   0  0  0  0  0  0  0  0  0  0  0  0
   -5.4092   -6.8745    3.8143 C   0  0  0  0  0  0  0  0  0  0  0  0
   -4.4733   -8.3008    3.3009 S   0  0  0  0  0  0  0  0  0  0  0  0
   -3.9171   -7.4118    1.5466 S   0  0  0  0  0  0  0  0  0  0  0  0
  2  1  1  6
  2  3  1  0
  2  6  1  0
  3  4  2  0
  3  5  1  0
  6  7  1  0
  7  8  2  0
  9 15  1  0
  9 10  1  6
  9  7  1  0
 10 11  1  0
 11 12  1  0
 12 13  2  0
 12 14  1  0
 15 16  1  0
 16 17  2  0
 16 18  1  0
 18 19  1  0
 19 20  1  0
 20 21  1  0
 22 21  1  1
 22 23  1  0
 22 26  1  0
 23 24  1  0
 24 25  1  0
 25 26  1  0
M  END
>  <DRUGBANK_ID>  (1) 
DB12795

>  <COMMON_NAME>  (1) 
CMX-2043

>  <CAS_NUMBER>  (1) 
910627-26-8

>  <UNII>  (1) 
83V80O4XY1

$$$$
