32U
     RDKit          3D

 29 31  0  0  0  0  0  0  0  0999 V2000
   -4.2356    0.5312   -1.8208 N   0  0  0  0  0  0  0  0  0  0  0  0
   -4.3363    2.0325   -1.8402 C   0  0  2  0  0  0  0  0  0  0  0  0
   -4.7425    2.9898   -0.6381 C   0  0  0  0  0  0  0  0  0  0  0  0
   -4.8276    4.2261   -0.6801 O   0  0  0  0  0  0  0  0  0  0  0  0
   -4.9932    2.2547    0.4581 N   0  0  0  0  0  0  0  0  0  0  0  0
   -5.2838    2.5658    1.8655 C   0  0  0  0  0  0  0  0  0  0  0  0
   -6.6478    1.9611    2.2609 C   0  0  0  0  0  0  0  0  0  0  0  0
   -7.5532    2.8315    2.8201 C   0  0  0  0  0  0  0  0  0  0  0  0
   -8.7962    2.3681    3.2626 C   0  0  0  0  0  0  0  0  0  0  0  0
   -9.2502    1.0483    3.0472 C   0  0  0  0  0  0  0  0  0  0  0  0
  -10.6242    0.6119    3.3410 C   0  0  0  0  0  0  0  0  0  0  0  0
  -11.0236   -0.6160    3.0628 N   0  0  0  0  0  0  0  0  0  0  0  0
  -11.4774    1.4704    3.8485 N   0  0  0  0  0  0  0  0  0  0  0  0
   -8.3498    0.1612    2.5038 C   0  0  0  0  0  0  0  0  0  0  0  0
   -7.0839    0.6095    2.1620 C   0  0  0  0  0  0  0  0  0  0  0  0
   -5.1718    2.3469   -3.0521 C   0  0  0  0  0  0  0  0  0  0  0  0
   -4.6666    1.3117   -4.0529 C   0  0  0  0  0  0  0  0  0  0  0  0
   -4.2868    0.0818   -3.2196 C   0  0  0  0  0  0  0  0  0  0  0  0
   -3.7167   -0.4181   -0.9339 C   0  0  0  0  0  0  0  0  0  0  0  0
   -3.2467   -0.0685    0.5062 C   0  0  2  0  0  0  0  0  0  0  0  0
   -4.4613   -0.1740    1.3127 N   0  0  0  0  0  0  0  0  0  0  0  0
   -2.0443    0.9432    0.6710 C   0  0  0  0  0  0  0  0  0  0  0  0
   -3.8979   -1.6255   -1.1677 O   0  0  0  0  0  0  0  0  0  0  0  0
   -1.8263    2.3527    0.1012 C   0  0  0  0  0  0  0  0  0  0  0  0
   -1.7437    3.5117    0.8865 C   0  0  0  0  0  0  0  0  0  0  0  0
   -1.7959    4.8059    0.3115 C   0  0  0  0  0  0  0  0  0  0  0  0
   -1.9212    4.9757   -1.0605 C   0  0  0  0  0  0  0  0  0  0  0  0
   -1.8440    3.8477   -1.8524 C   0  0  0  0  0  0  0  0  0  0  0  0
   -1.6512    2.5630   -1.2682 C   0  0  0  0  0  0  0  0  0  0  0  0
  1 19  1  0
  2  1  1  0
  2  3  1  1
  3  5  1  0
  4  3  2  0
  6  5  1  0
  6  7  1  0
  7 15  1  0
  7  8  2  0
  8  9  1  0
  9 10  2  0
 10 11  1  0
 11 13  1  0
 11 12  2  0
 14 10  1  0
 15 14  2  0
 16 17  1  0
 16  2  1  0
 17 18  1  0
 18  1  1  0
 19 23  2  0
 20 21  1  1
 20 22  1  0
 20 19  1  0
 22 24  1  0
 24 29  2  0
 25 26  2  0
 25 24  1  0
 26 27  1  0
 27 28  2  0
 29 28  1  0
M  CHG  1  12   1
M  END
>  <DRUGBANK_ID>  (1) 
DB07005

>  <COMMON_NAME>  (1) 
D-phenylalanyl-N-{4-[amino(iminio)methyl]benzyl}-L-prolinamide

$$$$
