
     RDKit          3D

 25 27  0  0  0  0  0  0  0  0999 V2000
    1.1429   -0.6844    0.3781 C   0  0  0  0  0  0  0  0  0  0  0  0
    4.1991    1.5025   -0.0138 C   0  0  0  0  0  0  0  0  0  0  0  0
    3.5685    2.1429    1.0115 C   0  0  0  0  0  0  0  0  0  0  0  0
    3.5327    1.2683   -1.2140 C   0  0  0  0  0  0  0  0  0  0  0  0
    2.2453    2.4528    0.8075 C   0  0  0  0  0  0  0  0  0  0  0  0
    2.1939    1.5157   -1.3570 C   0  0  0  0  0  0  0  0  0  0  0  0
    0.4756    1.3293    2.4877 C   0  0  0  0  0  0  0  0  0  0  0  0
   -0.1342    3.5123   -0.6025 C   0  0  0  0  0  0  0  0  0  0  0  0
   -0.5135    1.3181   -2.0939 C   0  0  0  0  0  0  0  0  0  0  0  0
   -0.4837    2.7581    1.9564 C   0  0  0  0  0  0  0  0  0  0  0  0
   -2.7938    2.4060   -0.1799 C   0  0  0  0  0  0  0  0  0  0  0  0
   -2.4383    4.5025    1.1227 C   0  0  0  0  0  0  0  0  0  0  0  0
    0.2435    4.3394   -1.8043 C   0  0  0  0  0  0  0  0  0  0  0  0
   -0.1376    2.4764   -3.2313 C   0  0  0  0  0  0  0  0  0  0  0  0
   -2.7624    3.1494   -1.5409 C   0  0  0  0  0  0  0  0  0  0  0  0
   -2.3653    5.2495   -0.3021 C   0  0  0  0  0  0  0  0  0  0  0  0
    0.6303   -0.0970    1.7224 C   0  0  0  0  0  0  0  0  0  0  0  0
    1.4614    1.9081   -0.2720 C   0  0  0  0  0  0  0  0  0  0  0  0
   -1.2030    0.6230    0.7483 C   0  0  0  0  0  0  0  0  0  0  0  0
   -0.1445    1.7889   -0.4859 C   0  0  0  0  0  0  0  0  0  0  0  0
   -2.0379    3.0289    1.2406 N   0  0  0  0  0  0  0  0  0  0  0  0
   -2.3625    0.5618    1.0616 O   0  0  0  0  0  0  0  0  0  0  0  0
   -0.3616    3.8645   -2.9740 O   0  0  0  0  0  0  0  0  0  0  0  0
   -2.9048    4.5527   -1.4599 O   0  0  0  0  0  0  0  0  0  0  0  0
   -0.6586   -0.3844    1.4684 O   0  0  0  0  0  0  0  0  0  0  0  0
  3  2  2  0
  4  2  1  0
  5  3  1  0
  6  4  2  0
 10  7  1  0
 13  8  1  0
 14  9  1  0
 15 11  1  0
 16 12  1  0
 17  1  1  0
 17  7  1  0
 18  5  2  0
 18  6  1  0
 20  8  1  0
 20  9  1  0
 20 18  1  0
 20 19  1  0
 21 10  1  0
 21 11  1  0
 21 12  1  0
 22 19  2  0
 23 13  1  0
 23 14  1  0
 24 15  1  0
 24 16  1  0
 25 17  1  0
 25 19  1  0
M  END
>  <DRUGBANK_ID>  (1) 
DB13825

>  <COMMON_NAME>  (1) 
Fedrilate

>  <CAS_NUMBER>  (1) 
23271-74-1

>  <UNII>  (1) 
NT86R8M7J5

>  <SYNONYMS>  (1) 
Fedrilate

$$$$
