
     RDKit          3D

 16 17  0  0  0  0  0  0  0  0999 V2000
    0.7076    1.1408    0.6165 C   0  0  0  0  0  0  0  0  0  0  0  0
    1.3362    2.4992    0.3412 C   0  0  0  0  0  0  0  0  0  0  0  0
    1.4714    0.0070    0.2829 C   0  0  0  0  0  0  0  0  0  0  0  0
   -0.6544    0.8855    0.8135 C   0  0  0  0  0  0  0  0  0  0  0  0
    0.6421    3.6361    0.0855 O   0  0  0  0  0  0  0  0  0  0  0  0
    2.5724    2.5453    0.2122 O   0  0  0  0  0  0  0  0  0  0  0  0
    0.8566   -1.2406    0.0981 C   0  0  0  0  0  0  0  0  0  0  0  0
   -1.2814   -0.3064    0.6007 N   0  0  0  0  0  0  0  0  0  0  0  0
   -0.7668    3.7579   -0.1921 C   0  0  0  0  0  0  0  0  0  0  0  0
   -0.5169   -1.3370    0.2194 C   0  0  0  0  0  0  0  0  0  0  0  0
   -1.1925    3.0855   -1.4910 C   0  0  0  0  0  0  0  0  0  0  0  0
   -0.7526    1.8078   -1.8613 C   0  0  0  0  0  0  0  0  0  0  0  0
   -2.0841    3.6589   -2.3828 C   0  0  0  0  0  0  0  0  0  0  0  0
   -1.3422    0.9848   -2.8000 C   0  0  0  0  0  0  0  0  0  0  0  0
   -2.5589    2.9103   -3.4818 C   0  0  0  0  0  0  0  0  0  0  0  0
   -2.2190    1.5655   -3.6682 C   0  0  0  0  0  0  0  0  0  0  0  0
  1  2  1  0
  1  3  2  0
  1  4  1  0
  2  5  1  0
  2  6  2  0
  3  7  1  0
  4  8  2  0
  5  9  1  0
  7 10  2  0
  8 10  1  0
  9 11  1  0
 11 12  2  0
 11 13  1  0
 12 14  1  0
 13 15  2  0
 14 16  2  0
 15 16  1  0
M  END
>  <DRUGBANK_ID>  (1) 
DB15764

>  <COMMON_NAME>  (1) 
Benzyl nicotinate

>  <CAS_NUMBER>  (1) 
94-44-0

>  <UNII>  (1) 
S497LCF9C9

>  <SYNONYMS>  (1) 
Benzyl nicotinate; Nicotinic acid benzyl ester; Phenylmethyl 3-pyridinecarboxylate

$$$$
