S10
     RDKit          3D

 15 14  0  0  0  0  0  0  0  0999 V2000
    0.9787    0.0108   -0.0805 O   0  0  0  0  0  0  0  0  0  0  0  0
    2.2016   -0.0413   -0.1236 C   0  0  0  0  0  0  0  0  0  0  0  0
    2.9543    1.0252    0.2613 O   0  0  0  0  0  0  0  0  0  0  0  0
    4.3947    1.0646    0.2820 C   0  0  0  0  0  0  0  0  0  0  0  0
    4.9698    0.1071    1.3126 C   0  0  0  0  0  0  0  0  0  0  0  0
    2.8860   -1.1471   -0.5518 N   0  0  0  0  0  0  0  0  0  0  0  0
    2.2319   -2.3861   -0.9169 C   0  0  0  0  0  0  0  0  0  0  0  0
    2.6415   -2.8154   -2.3229 C   0  0  0  0  0  0  0  0  0  0  0  0
    4.1361   -3.1168   -2.4542 C   0  0  0  0  0  0  0  0  0  0  0  0
    4.5331   -4.2387   -1.6290 N   0  0  0  0  0  0  0  0  0  0  0  0
    5.0678   -5.4173   -2.0495 C   0  0  0  0  0  0  0  0  0  0  0  0
    5.2820   -6.3227   -1.2511 O   0  0  0  0  0  0  0  0  0  0  0  0
    5.3336   -5.4497   -3.3764 O   0  0  0  0  0  0  0  0  0  0  0  0
    5.9175   -6.6579   -3.8916 C   0  0  0  0  0  0  0  0  0  0  0  0
    7.3180   -6.8945   -3.3509 C   0  0  0  0  0  0  0  0  0  0  0  0
  1  2  2  0
  2  3  1  0
  2  6  1  0
  3  4  1  0
  4  5  1  0
  6  7  1  0
  7  8  1  0
  8  9  1  0
  9 10  1  0
 10 11  1  0
 11 12  2  0
 11 13  1  0
 13 14  1  0
 14 15  1  0
M  END
>  <DRUGBANK_ID>  (1) 
DB08501

>  <COMMON_NAME>  (1) 
DIETHYL PROPANE-1,3-DIYLBISCARBAMATE

>  <UNII>  (1) 
F54CSU6844

$$$$
