CFQ
     RDKit          3D

 21 21  0  0  0  0  0  0  0  0999 V2000
   -0.8454   -0.4353    1.1841 As  0  0  0  0  0  4  0  0  0  0  0  0
   -1.4965   -1.6533   -0.1925 C   0  0  0  0  0  0  0  0  0  0  0  0
   -1.4949   -1.0182    2.9279 C   0  0  0  0  0  0  0  0  0  0  0  0
   -1.4947    1.3665    0.8177 C   0  0  0  0  0  0  0  0  0  0  0  0
    1.1046   -0.4362    1.1832 C   0  0  0  0  0  0  0  0  0  0  0  0
    1.6108   -1.8407    1.4688 C   0  0  0  0  0  0  0  0  0  0  0  0
    1.1366   -2.7277    0.4664 O   0  0  0  0  0  0  0  0  0  0  0  0
    1.6100   -2.3035   -0.8035 C   0  0  2  0  0  0  0  0  0  0  0  0
    3.1300   -2.3035   -0.8035 C   0  0  0  0  0  0  0  0  0  0  0  0
    1.1033   -0.8994   -1.0899 C   0  0  0  0  0  0  0  0  0  0  0  0
   -0.1708   -0.6849   -1.3965 C   0  0  0  0  0  0  0  0  0  0  0  0
   -0.6567    0.5953   -1.5108 C   0  0  0  0  0  0  0  0  0  0  0  0
    0.1748    1.6753   -1.4028 C   0  0  0  0  0  0  0  0  0  0  0  0
    1.4154    1.4259   -1.0249 C   0  0  0  0  0  0  0  0  0  0  0  0
    2.0129    0.1434   -1.0285 C   0  0  0  0  0  0  0  0  0  0  0  0
   -1.0695   -1.8273   -1.6156 N   0  0  0  0  0  0  0  0  0  0  0  0
   -2.3851   -1.6131   -1.9322 O   0  0  0  0  0  0  0  0  0  0  0  0
   -0.6417   -2.9720   -1.5150 O   0  0  0  0  0  0  0  0  0  0  0  0
    3.5733   -2.2309    0.4484 F   0  0  0  0  0  0  0  0  0  0  0  0
    3.5733   -3.4240   -1.3665 F   0  0  0  0  0  0  0  0  0  0  0  0
    3.5733   -1.2557   -1.4922 F   0  0  0  0  0  0  0  0  0  0  0  0
  1  2  1  0
  1  3  1  0
  1  4  1  0
  1  5  1  0
  5  6  1  0
  6  7  1  0
  8 10  1  0
  8  9  1  0
  8  7  1  1
  9 19  1  0
  9 20  1  0
  9 21  1  0
 10 11  2  0
 10 15  1  0
 11 12  1  0
 11 16  1  0
 12 13  2  0
 13 14  1  0
 14 15  2  0
 16 17  1  0
 16 18  2  0
M  CHG  2   1   1  16   1
M  END
>  <DRUGBANK_ID>  (1) 
DB07555

>  <COMMON_NAME>  (1) 
Hydroxy(oxo)(2-{(1S)-2,2,2-trifluoro-1-[2-(trimethylarsonio)ethoxy]ethyl}phenyl)ammonium

$$$$
