
     RDKit          3D

 11 13  0  0  0  0  0  0  0  0999 V2000
    0.9060   -0.0289    0.0182 S   0  0  0  0  0  0  0  0  0  0  0  0
    2.8034   -0.0289    0.0182 P   0  0  0  0  0  0  0  0  0  0  0  0
    2.8039    0.4455   -1.6864 N   0  0  0  0  0  0  0  0  0  0  0  0
    3.3708    1.5623   -2.4395 C   0  0  0  0  0  0  0  0  0  0  0  0
    1.9021    1.4523   -2.3248 C   0  0  0  0  0  0  0  0  0  0  0  0
    2.9370    1.3516    1.0665 N   0  0  0  0  0  0  0  0  0  0  0  0
    2.1551    2.5988    0.9810 C   0  0  0  0  0  0  0  0  0  0  0  0
    3.6392    2.6039    0.8229 C   0  0  0  0  0  0  0  0  0  0  0  0
    4.5834   -0.0289    0.0182 N   0  0  0  0  0  0  0  0  0  0  0  0
    5.5919    0.5704   -0.8252 C   0  0  0  0  0  0  0  0  0  0  0  0
    5.2831   -0.8979   -0.9316 C   0  0  0  0  0  0  0  0  0  0  0  0
  1  2  2  0
  2  3  1  0
  2  6  1  0
  2  9  1  0
  3  4  1  0
  3  5  1  0
  4  5  1  0
  6  7  1  0
  6  8  1  0
  7  8  1  0
  9 10  1  0
  9 11  1  0
 10 11  1  0
M  END
>  <DRUGBANK_ID>  (1) 
DB04572

>  <COMMON_NAME>  (1) 
Thiotepa

>  <CAS_NUMBER>  (1) 
52-24-4

>  <UNII>  (1) 
905Z5W3GKH

>  <SYNONYMS>  (1) 
Thiotepa

$$$$
