
     RDKit          3D

 12 13  0  0  0  0  0  0  0  0999 V2000
    0.9839   -0.0110   -0.0103 N   0  0  0  0  0  0  0  0  0  0  0  0
    0.3210    0.8021   -0.8662 C   0  0  0  0  0  0  0  0  0  0  0  0
   -0.7671    1.4249   -0.5426 N   0  0  0  0  0  0  0  0  0  0  0  0
   -1.4529    2.1319   -1.5553 C   0  0  0  0  0  0  0  0  0  0  0  0
   -2.6490    2.7914   -1.2622 C   0  0  0  0  0  0  0  0  0  0  0  0
   -3.4868    3.2271   -2.2979 C   0  0  0  0  0  0  0  0  0  0  0  0
   -3.0968    3.0789   -3.6286 C   0  0  0  0  0  0  0  0  0  0  0  0
   -1.8116    2.6409   -3.9180 C   0  0  0  0  0  0  0  0  0  0  0  0
   -1.0297    2.1174   -2.8866 C   0  0  0  0  0  0  0  0  0  0  0  0
    0.2268    1.4288   -3.1852 C   0  0  0  0  0  0  0  0  0  0  0  0
    0.6512    1.3126   -4.3370 O   0  0  0  0  0  0  0  0  0  0  0  0
    0.8607    0.8635   -2.1169 N   0  0  0  0  0  0  0  0  0  0  0  0
  1  2  1  0
  2  3  2  0
  2 12  1  0
  3  4  1  0
  4  5  2  0
  4  9  1  0
  5  6  1  0
  6  7  2  0
  7  8  1  0
  8  9  2  0
  9 10  1  0
 10 11  2  0
 10 12  1  0
M  END
>  <DRUGBANK_ID>  (1) 
DB03780

>  <SECONDARY_ACCESSION_NUMBERS>  (1) 
EXPT00551

>  <COMMON_NAME>  (1) 
2-Aminoquinazolin-4(3h)-One

$$$$
