
     RDKit          3D

 37 41  0  0  1  0  0  0  0  0999 V2000
    3.1434    0.6758    0.6025 C   0  0  0  0  0  0  0  0  0  0  0  0
    3.6225   -0.6451    0.2485 C   0  0  0  0  0  0  0  0  0  0  0  0
    4.3144   -0.2892   -1.0577 C   0  0  0  0  0  0  0  0  0  0  0  0
    4.5812   -1.1270    1.3988 C   0  0  0  0  0  0  0  0  0  0  0  0
    3.8968   -1.4466    2.6237 O   0  0  0  0  0  0  0  0  0  0  0  0
    2.3642   -1.5149    0.1480 C   0  0  0  0  0  0  0  0  0  0  0  0
    2.4994   -2.8239   -0.1864 C   0  0  0  0  0  0  0  0  0  0  0  0
    1.2624   -3.4348   -0.0160 C   0  0  0  0  0  0  0  0  0  0  0  0
    0.9035   -4.7683   -0.0336 C   0  0  0  0  0  0  0  0  0  0  0  0
   -0.3485   -5.2229   -0.2696 C   0  0  0  0  0  0  0  0  0  0  0  0
   -1.3495   -4.3405    0.0837 C   0  0  0  0  0  0  0  0  0  0  0  0
   -1.0508   -2.9841    0.4403 C   0  0  0  0  0  0  0  0  0  0  0  0
    0.2889   -2.5088    0.2975 C   0  0  0  0  0  0  0  0  0  0  0  0
    0.9994   -1.3114    0.5317 N   0  0  0  0  0  0  0  0  0  0  0  0
    0.3515   -0.1208    1.1363 C   0  0  0  0  0  0  0  0  0  0  0  0
    0.8610    0.4470    2.5283 C   0  0  2  0  0  0  0  0  0  0  0  0
    1.7682    1.7746    2.5831 C   0  0  0  0  0  0  0  0  0  0  0  0
    1.5626    2.7314    1.5394 O   0  0  0  0  0  0  0  0  0  0  0  0
    1.4535   -0.6072    3.3118 O   0  0  0  0  0  0  0  0  0  0  0  0
   -2.6109   -4.7873    0.1918 F   0  0  0  0  0  0  0  0  0  0  0  0
   -0.4743   -6.5343   -0.7556 N   0  0  0  0  0  0  0  0  0  0  0  0
    0.4947   -7.3182   -1.3596 C   0  0  0  0  0  0  0  0  0  0  0  0
    0.1175   -8.4509   -1.7639 O   0  0  0  0  0  0  0  0  0  0  0  0
    1.9987   -7.0254   -1.4780 C   0  0  0  0  0  0  0  0  0  0  0  0
    2.8464   -5.7296   -1.5662 C   0  0  0  0  0  0  0  0  0  0  0  0
    2.4532   -6.3784   -2.8180 C   0  0  0  0  0  0  0  0  0  0  0  0
    2.8081   -8.1547   -0.8833 C   0  0  0  0  0  0  0  0  0  0  0  0
    2.6931   -8.6979    0.4008 C   0  0  0  0  0  0  0  0  0  0  0  0
    3.2151   -9.9929    0.6027 C   0  0  0  0  0  0  0  0  0  0  0  0
    4.1406  -10.4404   -0.3455 C   0  0  0  0  0  0  0  0  0  0  0  0
    4.7082   -9.4963   -1.1265 C   0  0  0  0  0  0  0  0  0  0  0  0
    3.7305   -8.7454   -1.7041 C   0  0  0  0  0  0  0  0  0  0  0  0
    5.7524  -10.0117   -1.8444 O   0  0  0  0  0  0  0  0  0  0  0  0
    5.0065  -11.1146   -2.2945 C   0  0  0  0  0  0  0  0  0  0  0  0
    4.1191  -11.5880   -1.1901 O   0  0  0  0  0  0  0  0  0  0  0  0
    4.3289  -10.6550   -3.3928 F   0  0  0  0  0  0  0  0  0  0  0  0
    5.8337  -12.0800   -2.7505 F   0  0  0  0  0  0  0  0  0  0  0  0
  1  2  1  0
  2  3  1  0
  2  4  1  0
  2  6  1  0
  4  5  1  0
  6  7  2  0
  6 14  1  0
  7  8  1  0
  8  9  2  0
  8 13  1  0
  9 10  1  0
 10 11  2  0
 10 21  1  0
 11 12  1  0
 11 20  1  0
 12 13  2  0
 13 14  1  0
 14 15  1  0
 16 19  1  6
 16 17  1  0
 16 15  1  0
 17 18  1  0
 21 22  1  0
 22 23  2  0
 22 24  1  0
 24 25  1  0
 24 26  1  0
 24 27  1  0
 25 26  1  0
 27 28  2  0
 27 32  1  0
 28 29  1  0
 29 30  2  0
 30 31  1  0
 30 35  1  0
 31 32  2  0
 31 33  1  0
 33 34  1  0
 34 35  1  0
 34 36  1  0
 34 37  1  0
M  END
>  <DRUGBANK_ID>  (1) 
DB11712

>  <COMMON_NAME>  (1) 
Tezacaftor

>  <CAS_NUMBER>  (1) 
1152311-62-0

>  <UNII>  (1) 
8RW88Y506K

>  <SYNONYMS>  (1) 
Tezacaftor

$$$$
