942
     RDKit          3D

 21 23  0  0  1  0  0  0  0  0999 V2000
    0.7384    0.0139   -0.1820 O   0  0  0  0  0  0  0  0  0  0  0  0
   -0.6922   -3.4174    0.6709 N   0  0  0  0  0  0  0  0  0  0  0  0
    0.9850   -0.0584   -2.5527 C   0  0  0  0  0  0  0  0  0  0  0  0
    0.2869   -0.7111   -1.3570 C   0  0  0  0  0  0  0  0  0  0  0  0
    0.9359    1.4718   -2.4784 C   0  0  0  0  0  0  0  0  0  0  0  0
    0.2815   -0.4933   -3.8399 C   0  0  0  0  0  0  0  0  0  0  0  0
    0.6389    1.9155   -3.8971 C   0  0  0  0  0  0  0  0  0  0  0  0
    0.4074    0.6737   -4.7640 C   0  0  0  0  0  0  0  0  0  0  0  0
    0.9476   -2.2213   -1.1388 C   0  0  0  0  0  0  0  0  0  0  0  0
    0.6990   -3.0548    0.2211 C   0  0  0  0  0  0  0  0  0  0  0  0
   -1.3521   -0.4498   -1.7291 C   0  0  0  0  0  0  0  0  0  0  0  0
   -1.4367   -2.1777    0.6287 C   0  0  0  0  0  0  0  0  0  0  0  0
   -1.2993   -4.4382   -0.2243 C   0  0  0  0  0  0  0  0  0  0  0  0
   -2.9600   -2.1760    0.5040 C   0  0  0  0  0  0  0  0  0  0  0  0
   -2.8255   -4.6341   -0.0907 C   0  0  0  0  0  0  0  0  0  0  0  0
   -3.5471   -3.3851   -0.4199 C   0  0  0  0  0  0  0  0  0  0  0  0
   -2.0119    0.7601   -1.9490 C   0  0  0  0  0  0  0  0  0  0  0  0
   -2.2247   -1.4944   -2.0885 C   0  0  0  0  0  0  0  0  0  0  0  0
   -3.3982    0.9611   -2.2320 C   0  0  0  0  0  0  0  0  0  0  0  0
   -3.6602   -1.2600   -2.0944 C   0  0  0  0  0  0  0  0  0  0  0  0
   -4.2819   -0.0930   -2.1403 C   0  0  0  0  0  0  0  0  0  0  0  0
  1  4  1  0
  2 10  1  0
  2 12  1  0
  2 13  1  0
  3  4  1  0
  3  5  1  0
  3  6  1  0
  4  9  1  0
  4 11  1  0
  5  7  1  0
  6  8  1  0
  7  8  1  0
  9 10  1  0
 11 17  2  0
 11 18  1  0
 12 14  1  0
 13 15  1  0
 14 16  1  0
 15 16  1  0
 17 19  1  0
 18 20  2  0
 19 21  2  0
 20 21  1  0
M  END
>  <DRUGBANK_ID>  (1) 
DB00942

>  <SECONDARY_ACCESSION_NUMBERS>  (1) 
APRD00731

>  <COMMON_NAME>  (1) 
Cycrimine

>  <CAS_NUMBER>  (1) 
77-39-4

>  <UNII>  (1) 
543567RFQQ

>  <SYNONYMS>  (1) 
(Â±)-cycrimine; alpha-cyclopentyl-alpha-phenyl-1-piperidinepropanol; Cicrimina; Cycrimine; Cycriminum

$$$$
