
     RDKit          3D

 18 19  0  0  1  0  0  0  0  0999 V2000
   -3.7405   -2.7818    0.4886 C   0  0  0  0  0  0  0  0  0  0  0  0
   -2.4504   -2.6627    0.7935 C   0  0  0  0  0  0  0  0  0  0  0  0
   -1.4642   -3.2794    0.0367 N   0  0  0  0  0  0  0  0  0  0  0  0
   -1.8735   -3.9573   -1.1345 C   0  0  0  0  0  0  0  0  0  0  0  0
   -1.1307   -4.1412   -2.0939 O   0  0  0  0  0  0  0  0  0  0  0  0
   -3.1693   -4.4229   -1.1955 N   0  0  0  0  0  0  0  0  0  0  0  0
   -4.0668   -3.8551   -0.4608 C   0  0  0  0  0  0  0  0  0  0  0  0
   -5.3571   -4.2728   -0.5705 N   0  0  0  0  0  0  0  0  0  0  0  0
   -0.0405   -2.9400    0.2910 C   0  0  1  0  0  0  0  0  0  0  0  0
    0.5684   -3.2788    1.6697 C   0  0  2  0  0  0  0  0  0  0  0  0
    1.4387   -4.5193    1.4343 C   0  0  1  0  0  0  0  0  0  0  0  0
    1.2762   -4.8493   -0.0433 C   0  0  2  0  0  0  0  0  0  0  0  0
    0.8617   -3.5954   -0.6240 O   0  0  0  0  0  0  0  0  0  0  0  0
    0.2505   -5.9819   -0.2760 C   0  0  0  0  0  0  0  0  0  0  0  0
   -0.8800   -5.8911    0.5903 O   0  0  0  0  0  0  0  0  0  0  0  0
    2.8031   -4.2535    1.7772 O   0  0  0  0  0  0  0  0  0  0  0  0
   -0.4061   -3.5379    2.7231 C   0  0  0  0  0  0  0  0  0  0  0  0
   -1.2167   -3.7484    3.5346 N   0  0  0  0  0  0  0  0  0  0  0  0
  1  2  2  0
  1  7  1  0
  2  3  1  0
  3  4  1  0
  4  5  2  0
  4  6  1  0
  6  7  2  0
  7  8  1  0
  9 10  1  0
  9 13  1  0
  9  3  1  1
 10 11  1  0
 10 17  1  1
 11 12  1  0
 11 16  1  6
 12 13  1  0
 12 14  1  1
 14 15  1  0
 17 18  3  0
M  END
>  <DRUGBANK_ID>  (1) 
DB11667

>  <COMMON_NAME>  (1) 
Radgocitabine

>  <CAS_NUMBER>  (1) 
135598-68-4

>  <UNII>  (1) 
00M634HD2V

>  <SYNONYMS>  (1) 
2'-cyano-2'-deoxy-1-(beta-D-arabinofuranosyl)cytosine; CNDAC; Radgocitabine

$$$$
