
     RDKit          3D

 26 27  0  0  0  0  0  0  0  0999 V2000
    0.9193    0.0626    0.0109 C   0  0  0  0  0  0  0  0  0  0  0  0
    2.3628    0.3473   -0.0245 N   0  0  0  0  0  0  0  0  0  0  0  0
    2.9051    0.2837   -1.3550 C   0  0  0  0  0  0  0  0  0  0  0  0
    2.6999    1.1036   -2.5600 C   0  0  0  0  0  0  0  0  0  0  0  0
    3.3769    0.3312   -3.6792 C   0  0  0  0  0  0  0  0  0  0  0  0
    3.1721   -1.1144   -3.5457 O   0  0  0  0  0  0  0  0  0  0  0  0
    3.4445   -2.0601   -2.5711 C   0  0  0  0  0  0  0  0  0  0  0  0
    3.4677   -2.2335   -1.2065 C   0  0  0  0  0  0  0  0  0  0  0  0
    3.2745   -3.4289   -0.4042 C   0  0  0  0  0  0  0  0  0  0  0  0
    3.1794   -4.6062   -0.9793 C   0  0  0  0  0  0  0  0  0  0  0  0
    2.6880   -4.3587   -2.1715 C   0  0  0  0  0  0  0  0  0  0  0  0
    3.0528   -3.2763   -2.8519 C   0  0  0  0  0  0  0  0  0  0  0  0
    3.0542    2.4089   -2.2135 O   0  0  0  0  0  0  0  0  0  0  0  0
    0.2090    1.0568   -0.8973 C   0  0  0  0  0  0  0  0  0  0  0  0
    0.4408   -1.3765   -0.3819 C   0  0  0  0  0  0  0  0  0  0  0  0
    0.4963    0.3228    1.4360 C   0  0  0  0  0  0  0  0  0  0  0  0
    3.2254   -5.9509   -0.7634 N   0  0  0  0  0  0  0  0  0  0  0  0
    3.3867   -7.0445   -1.6284 C   0  0  0  0  0  0  0  0  0  0  0  0
    3.5458   -8.1312   -1.0680 O   0  0  0  0  0  0  0  0  0  0  0  0
    3.4189   -7.0388   -3.0391 N   0  0  0  0  0  0  0  0  0  0  0  0
    3.2871   -6.0283   -4.2739 C   0  0  0  0  0  0  0  0  0  0  0  0
    4.5500   -4.9644   -4.2280 C   0  0  0  0  0  0  0  0  0  0  0  0
    4.2222   -3.5081   -5.1126 C   0  0  0  0  0  0  0  0  0  0  0  0
    2.4490   -2.9891   -5.2870 C   0  0  0  0  0  0  0  0  0  0  0  0
    1.3892   -4.1544   -5.2010 C   0  0  0  0  0  0  0  0  0  0  0  0
    1.6470   -5.4918   -4.4064 C   0  0  0  0  0  0  0  0  0  0  0  0
  1 14  1  0
  1 15  1  0
  1 16  1  0
  1  2  1  0
  2  3  1  0
  3  4  1  0
  4 13  1  0
  4  5  1  0
  5  6  1  0
  6  7  1  0
  7  8  2  0
  8  9  1  0
  9 10  2  0
 10 17  1  0
 10 11  1  0
 11 12  2  0
 12  7  1  0
 17 18  1  0
 18 19  2  0
 18 20  1  0
 20 21  1  0
 21 22  1  0
 21 26  1  0
 22 23  1  0
 23 24  1  0
 24 25  1  0
 25 26  1  0
M  END
>  <DRUGBANK_ID>  (1) 
DB11770

>  <COMMON_NAME>  (1) 
Talinolol

>  <CAS_NUMBER>  (1) 
57460-41-0

>  <UNII>  (1) 
3S82268BKG

>  <SYNONYMS>  (1) 
Talinolol; Talinololum

$$$$
