LC1
     RDKit          3D

 18 20  0  0  0  0  0  0  0  0999 V2000
    0.0116    1.2683    0.0759 C   0  0  0  0  0  0  0  0  0  0  0  0
   -1.1074   -0.0314    0.0419 S   0  0  0  0  0  0  0  0  0  0  0  0
    0.2089   -1.1310   -0.0440 C   0  0  0  0  0  0  0  0  0  0  0  0
    1.4069   -0.5953   -0.1550 N   0  0  0  0  0  0  0  0  0  0  0  0
    1.2979    0.7781   -0.0069 C   0  0  0  0  0  0  0  0  0  0  0  0
    2.4918    1.6691   -0.0015 C   0  0  0  0  0  0  0  0  0  0  0  0
    3.4822    1.5998   -0.9455 N   0  0  0  0  0  0  0  0  0  0  0  0
    4.4169    2.5643   -0.6608 C   0  0  0  0  0  0  0  0  0  0  0  0
    5.5943    2.9532   -1.3032 C   0  0  0  0  0  0  0  0  0  0  0  0
    6.3432    3.9696   -0.6945 C   0  0  0  0  0  0  0  0  0  0  0  0
    5.9170    4.5586    0.5018 C   0  0  0  0  0  0  0  0  0  0  0  0
    6.8280    5.8844    1.2504 S   0  0  0  0  0  0  0  0  0  0  0  0
    6.0381    7.0844    1.1516 O   0  0  0  0  0  0  0  0  0  0  0  0
    7.3733    5.4107    2.5048 O   0  0  0  0  0  0  0  0  0  0  0  0
    8.1502    6.1483    0.2306 N   0  0  0  0  0  0  0  0  0  0  0  0
    4.7201    4.1597    1.1236 C   0  0  0  0  0  0  0  0  0  0  0  0
    3.9521    3.1567    0.5093 C   0  0  0  0  0  0  0  0  0  0  0  0
    2.7282    2.6360    0.8638 N   0  0  0  0  0  0  0  0  0  0  0  0
  1  2  1  0
  1  5  2  0
  2  3  1  0
  3  4  2  0
  4  5  1  0
  5  6  1  0
  6  7  1  0
  6 18  2  0
  7  8  1  0
  8  9  2  0
  8 17  1  0
  9 10  1  0
 10 11  2  0
 11 12  1  0
 11 16  1  0
 12 13  2  0
 12 14  2  0
 12 15  1  0
 16 17  2  0
 17 18  1  0
M  END
>  <DRUGBANK_ID>  (1) 
DB08083

>  <COMMON_NAME>  (1) 
2-(1,3-thiazol-4-yl)-1H-benzimidazole-5-sulfonamide

$$$$
