
     RDKit          3D

 10 10  0  0  0  0  0  0  0  0999 V2000
   -1.9183    0.0182   -0.0132 C   0  0  0  0  0  0  0  0  0  0  0  0
   -1.2298   -1.2038   -0.0021 C   0  0  0  0  0  0  0  0  0  0  0  0
    0.1725   -1.2281    0.0105 C   0  0  0  0  0  0  0  0  0  0  0  0
    0.8797   -0.0290    0.0112 C   0  0  0  0  0  0  0  0  0  0  0  0
    0.2085    1.1882    0.0129 C   0  0  0  0  0  0  0  0  0  0  0  0
   -1.1889    1.2146   -0.0005 C   0  0  0  0  0  0  0  0  0  0  0  0
   -3.4030    0.0947   -0.0407 C   0  0  0  0  0  0  0  0  0  0  0  0
   -4.0624    1.1198   -0.0545 O   0  0  0  0  0  0  0  0  0  0  0  0
   -3.9937   -1.1146   -0.0537 O   0  0  0  0  0  0  0  0  0  0  0  0
    2.2427    0.0109    0.0085 O   0  0  0  0  0  0  0  0  0  0  0  0
  1  7  1  0
  2  1  2  0
  3  2  1  0
  4  3  2  0
  4  5  1  0
  5  6  2  0
  6  1  1  0
  8  7  2  0
  9  7  1  0
 10  4  1  0
M  END
>  <DRUGBANK_ID>  (1) 
DB04242

>  <SECONDARY_ACCESSION_NUMBERS>  (1) 
EXPT02580

>  <COMMON_NAME>  (1) 
4-hydroxybenzoic acid

>  <CAS_NUMBER>  (1) 
99-96-7

>  <UNII>  (1) 
JG8Z55Y12H

>  <SYNONYMS>  (1) 
4-carboxyphenol; p-Hydroxybenzoic acid; p-salicylic acid

$$$$
