
     RDKit          3D

 18 18  0  0  0  0  0  0  0  0999 V2000
    1.1184   -0.0353   -0.1374 C   0  0  0  0  0  0  0  0  0  0  0  0
    0.5743    1.3828    0.0994 C   0  0  0  0  0  0  0  0  0  0  0  0
    1.0605    2.3091   -0.9974 C   0  0  0  0  0  0  0  0  0  0  0  0
   -0.9489    1.3594    0.2654 C   0  0  0  0  0  0  0  0  0  0  0  0
   -1.3850    0.5026    1.4660 C   0  0  0  0  0  0  0  0  0  0  0  0
   -0.8832    1.0299    2.7221 O   0  0  0  0  0  0  0  0  0  0  0  0
    0.4004    0.8024    3.0898 C   0  0  0  0  0  0  0  0  0  0  0  0
    1.2571    0.1356    2.5178 O   0  0  0  0  0  0  0  0  0  0  0  0
    0.8194    1.4972    4.2945 C   0  0  0  0  0  0  0  0  0  0  0  0
   -0.0203    1.8905    5.2522 C   0  0  0  0  0  0  0  0  0  0  0  0
    0.4883    2.4615    6.4938 C   0  0  0  0  0  0  0  0  0  0  0  0
    1.5432    3.3796    6.4883 C   0  0  0  0  0  0  0  0  0  0  0  0
    1.9228    4.0264    7.6603 C   0  0  0  0  0  0  0  0  0  0  0  0
    1.2526    3.7644    8.8531 C   0  0  0  0  0  0  0  0  0  0  0  0
    0.2003    2.8440    8.8600 C   0  0  0  0  0  0  0  0  0  0  0  0
   -0.1494    2.1567    7.6961 C   0  0  0  0  0  0  0  0  0  0  0  0
    1.5461    4.3403   10.0591 O   0  0  0  0  0  0  0  0  0  0  0  0
    2.6961    5.1817   10.0828 C   0  0  0  0  0  0  0  0  0  0  0  0
  1  2  1  0
  2  3  1  0
  2  4  1  0
  4  5  1  0
  5  6  1  0
  6  7  1  0
  7  8  2  0
  7  9  1  0
  9 10  2  0
 10 11  1  0
 11 12  2  0
 11 16  1  0
 12 13  1  0
 13 14  2  0
 14 15  1  0
 14 17  1  0
 15 16  2  0
 17 18  1  0
M  END
>  <DRUGBANK_ID>  (1) 
DB11207

>  <COMMON_NAME>  (1) 
Amiloxate

>  <CAS_NUMBER>  (1) 
71617-10-2

>  <UNII>  (1) 
376KTP06K8

>  <SYNONYMS>  (1) 
3-(4-Methoxyphenyl)-2-propenoic acid, 3-methylbutyl ester; Amiloxate; Isoamyl p-methoxycinnamate; Isoamyl-p-methoxycinnamate

$$$$
