RC8
     RDKit          3D

 32 35  0  0  0  0  0  0  0  0999 V2000
   -5.0103    2.2925   -2.1033 C   0  0  0  0  0  0  0  0  0  0  0  0
   -5.7100    0.2230   -2.6684 C   0  0  0  0  0  0  0  0  0  0  0  0
   -6.2574    0.6339   -3.8617 C   0  0  0  0  0  0  0  0  0  0  0  0
   -6.1866    2.0110   -4.1406 C   0  0  0  0  0  0  0  0  0  0  0  0
   -6.5496   -1.4916   -3.7820 C   0  0  0  0  0  0  0  0  0  0  0  0
   -5.4066   -2.0961   -1.6576 C   0  0  0  0  0  0  0  0  0  0  0  0
   -6.0234   -1.8099   -0.2950 C   0  0  0  0  0  0  0  0  0  0  0  0
   -3.5277    2.7393   -0.0622 C   0  0  1  0  0  0  0  0  0  0  0  0
   -1.3266    3.0955    1.2558 C   0  0  0  0  0  0  0  0  0  0  0  0
   -3.4023    0.7249    1.4057 O   0  0  0  0  0  0  0  0  0  0  0  0
   -3.1575    1.2412    0.0972 C   0  0  0  0  0  0  0  0  0  0  0  0
   -2.1637    3.4939    0.0254 C   0  0  0  0  0  0  0  0  0  0  0  0
   -4.2162    3.1068   -1.3192 N   0  0  0  0  0  0  0  0  0  0  0  0
   -5.5368    2.8179   -3.2343 N   0  0  0  0  0  0  0  0  0  0  0  0
   -5.8613   -1.1419   -2.6555 N   0  0  0  0  0  0  0  0  0  0  0  0
   -3.8852   -2.1970   -1.6023 C   0  0  0  0  0  0  0  0  0  0  0  0
   -6.7914   -0.4467   -4.5334 N   0  0  0  0  0  0  0  0  0  0  0  0
   -5.1519    1.0104   -1.7629 N   0  0  0  0  0  0  0  0  0  0  0  0
   -6.7090    2.5783   -5.2861 N   0  0  0  0  0  0  0  0  0  0  0  0
   -7.4525    1.8170   -6.2708 C   0  0  0  0  0  0  0  0  0  0  0  0
   -8.8909    2.2525   -6.3263 C   0  0  0  0  0  0  0  0  0  0  0  0
   -9.7155    2.1317   -5.2003 C   0  0  0  0  0  0  0  0  0  0  0  0
  -11.0483    2.5304   -5.2621 C   0  0  0  0  0  0  0  0  0  0  0  0
  -11.5937    3.0421   -6.4510 C   0  0  0  0  0  0  0  0  0  0  0  0
  -10.7758    3.1080   -7.5883 C   0  0  0  0  0  0  0  0  0  0  0  0
   -9.4376    2.7152   -7.5274 C   0  0  0  0  0  0  0  0  0  0  0  0
  -12.9644    3.5562   -6.4649 C   0  0  0  0  0  0  0  0  0  0  0  0
  -13.8322    2.9894   -7.3379 N   0  0  0  0  0  0  0  0  0  0  0  0
  -15.1062    3.4435   -7.3171 C   0  0  0  0  0  0  0  0  0  0  0  0
  -15.5562    4.4537   -6.4810 C   0  0  0  0  0  0  0  0  0  0  0  0
  -14.6500    5.0337   -5.6047 C   0  0  0  0  0  0  0  0  0  0  0  0
  -13.3384    4.5783   -5.5930 C   0  0  0  0  0  0  0  0  0  0  0  0
  1 14  2  0
  2  3  1  0
  3  4  2  0
  3 17  1  0
  4 19  1  0
  5 17  2  0
  6 15  1  0
  6 16  1  0
  7  6  1  0
  8 13  1  0
  8 11  1  6
  9 12  1  0
 11 10  1  0
 12  8  1  0
 13  1  1  0
 14  4  1  0
 15  2  1  0
 15  5  1  0
 18  1  1  0
 18  2  2  0
 20 19  1  0
 20 21  1  0
 21 26  1  0
 22 21  2  0
 22 23  1  0
 23 24  2  0
 24 25  1  0
 24 27  1  0
 26 25  2  0
 27 28  2  0
 28 29  1  0
 30 29  2  0
 31 30  1  0
 32 27  1  0
 32 31  2  0
M  END
>  <DRUGBANK_ID>  (1) 
DB08463

>  <COMMON_NAME>  (1) 
(2R)-2-({9-(1-methylethyl)-6-[(4-pyridin-2-ylbenzyl)amino]-9H-purin-2-yl}amino)butan-1-ol

$$$$
