
     RDKit          3D

 22 24  0  0  0  0  0  0  0  0999 V2000
    1.5048   -0.4570   -0.0213 C   0  0  0  0  0  0  0  0  0  0  0  0
   -4.1554    2.3388   -3.9601 C   0  0  0  0  0  0  0  0  0  0  0  0
   -2.0224    5.6834   -1.9716 C   0  0  0  0  0  0  0  0  0  0  0  0
    0.5579   -1.4763   -0.0300 C   0  0  0  0  0  0  0  0  0  0  0  0
    1.0572    0.8449    0.0404 C   0  0  0  0  0  0  0  0  0  0  0  0
   -3.2394    1.2845   -3.9771 C   0  0  0  0  0  0  0  0  0  0  0  0
   -4.7224    2.7215   -2.7575 C   0  0  0  0  0  0  0  0  0  0  0  0
   -3.2151    5.7593   -1.0199 C   0  0  0  0  0  0  0  0  0  0  0  0
   -1.6509    4.2540   -2.2324 C   0  0  0  0  0  0  0  0  0  0  0  0
   -0.8302   -1.2209   -0.0839 C   0  0  0  0  0  0  0  0  0  0  0  0
   -0.3091    1.0439    0.1324 C   0  0  0  0  0  0  0  0  0  0  0  0
   -2.8391    0.6456   -2.7866 C   0  0  0  0  0  0  0  0  0  0  0  0
   -4.3652    2.0478   -1.5861 C   0  0  0  0  0  0  0  0  0  0  0  0
   -3.2951    1.3050    1.0260 C   0  0  0  0  0  0  0  0  0  0  0  0
   -3.0026    4.9856    0.2889 C   0  0  0  0  0  0  0  0  0  0  0  0
   -1.5250    3.5134   -0.9182 C   0  0  0  0  0  0  0  0  0  0  0  0
   -2.6833    2.7251    1.2085 C   0  0  0  0  0  0  0  0  0  0  0  0
   -1.3206    0.0923   -0.0634 C   0  0  0  0  0  0  0  0  0  0  0  0
   -3.3572    1.0442   -1.5465 C   0  0  0  0  0  0  0  0  0  0  0  0
   -2.8423    0.4493   -0.1929 C   0  0  0  0  0  0  0  0  0  0  0  0
   -2.6642    3.6002    0.0133 N   0  0  0  0  0  0  0  0  0  0  0  0
   -3.5933   -0.7842   -0.0717 O   0  0  0  0  0  0  0  0  0  0  0  0
  4  1  2  0
  5  1  1  0
  6  2  2  0
  7  2  1  0
  8  3  1  0
  9  3  1  0
 10  4  1  0
 11  5  2  0
 12  6  1  0
 13  7  2  0
 15  8  1  0
 16  9  1  0
 17 14  1  0
 18 10  2  0
 18 11  1  0
 19 12  2  0
 19 13  1  0
 20 14  1  0
 20 18  1  0
 20 19  1  0
 21 15  1  0
 21 16  1  0
 21 17  1  0
 22 20  1  0
M  END
>  <DRUGBANK_ID>  (1) 
DB13642

>  <COMMON_NAME>  (1) 
Pridinol

>  <CAS_NUMBER>  (1) 
511-45-5

>  <UNII>  (1) 
9E75Q6SUUB

>  <SYNONYMS>  (1) 
Pridinol

$$$$
