
     RDKit          3D

 10 10  0  0  0  0  0  0  0  0999 V2000
    0.8564    0.0775   -0.5038 C   0  0  0  0  0  0  0  0  0  0  0  0
   -1.6110   -2.7286   -0.2899 C   0  0  0  0  0  0  0  0  0  0  0  0
    2.4344   -0.8096    3.7134 C   0  0  0  0  0  0  0  0  0  0  0  0
    1.5669    0.4292    3.5932 C   0  0  0  0  0  0  0  0  0  0  0  0
    1.4241   -1.9434    3.6095 C   0  0  0  0  0  0  0  0  0  0  0  0
    0.5093    0.0272    2.5863 C   0  0  0  0  0  0  0  0  0  0  0  0
    0.9993   -2.0040    1.0802 C   0  0  0  0  0  0  0  0  0  0  0  0
    0.3889   -1.3583   -0.2011 C   0  0  0  0  0  0  0  0  0  0  0  0
    0.5021   -1.4991    2.4624 C   0  0  0  0  0  0  0  0  0  0  0  0
   -1.0739   -1.3814   -0.2104 N   0  0  0  0  0  0  0  0  0  0  0  0
  4  3  1  0
  5  3  1  0
  6  4  1  0
  8  1  1  0
  8  7  1  0
  9  5  1  0
  9  6  1  0
  9  7  1  0
 10  2  1  0
 10  8  1  0
M  END
>  <DRUGBANK_ID>  (1) 
DB08999

>  <COMMON_NAME>  (1) 
Cyclopentamine

>  <CAS_NUMBER>  (1) 
102-45-4

>  <UNII>  (1) 
WB9Q6M8O60

>  <SYNONYMS>  (1) 
Cyclopentamine

$$$$
