MEI
     RDKit          3D

 19 18  0  0  0  0  0  0  0  0999 V2000
   -2.1054    7.3192    0.5742 C   0  0  0  0  0  0  0  0  0  0  0  0
   -1.2892    6.3428    1.1936 O   0  0  0  0  0  0  0  0  0  0  0  0
   -0.0934    6.7701    1.8395 C   0  0  0  0  0  0  0  0  0  0  0  0
    0.8515    7.3122    0.7644 C   0  0  0  0  0  0  0  0  0  0  0  0
   -0.4108    7.7425    2.9580 C   0  0  0  0  0  0  0  0  0  0  0  0
    0.6021    5.5775    2.5290 C   0  0  0  0  0  0  0  0  0  0  0  0
   -0.2897    4.7257    3.4582 C   0  0  0  0  0  0  0  0  0  0  0  0
   -1.4701    4.0579    2.7515 C   0  0  0  0  0  0  0  0  0  0  0  0
   -1.0568    3.0965    1.6017 C   0  0  2  0  0  0  0  0  0  0  0  0
    0.4584    2.8001    1.4762 C   0  0  0  0  0  0  0  0  0  0  0  0
   -1.6118    3.5828    0.2417 C   0  0  0  0  0  0  0  0  0  0  0  0
   -1.1363    2.7139   -0.8724 C   0  0  0  0  0  0  0  0  0  0  0  0
   -1.9069    1.9891   -1.6823 C   0  0  0  0  0  0  0  0  0  0  0  0
   -1.3935    1.1015   -2.7186 C   0  0  0  0  0  0  0  0  0  0  0  0
   -2.4698    0.4047   -3.5068 C   0  0  0  0  0  0  0  0  0  0  0  0
   -0.0766    0.8900   -2.9493 C   0  0  0  0  0  0  0  0  0  0  0  0
    0.4210   -0.0318   -4.0021 C   0  0  0  0  0  0  0  0  0  0  0  0
    1.7710   -0.0833   -4.0593 O   0  0  0  0  0  0  0  0  0  0  0  0
   -0.2749   -0.6824   -4.7477 O   0  0  0  0  0  0  0  0  0  0  0  0
  1  2  1  0
  2  3  1  0
  3  4  1  0
  3  5  1  0
  3  6  1  0
  6  7  1  0
  7  8  1  0
  9 11  1  0
  9 10  1  6
  9  8  1  0
 11 12  1  0
 12 13  2  0
 13 14  1  0
 14 15  1  0
 14 16  2  0
 16 17  1  0
 17 18  1  0
 17 19  2  0
M  END
>  <DRUGBANK_ID>  (1) 
DB08175

>  <COMMON_NAME>  (1) 
(2E,4E)-11-METHOXY-3,7,11-TRIMETHYLDODECA-2,4-DIENOIC ACID

>  <UNII>  (1) 
MB9LR353F8

$$$$
