
     RDKit          3D

 33 38  0  0  0  0  0  0  0  0999 V2000
    2.4437    0.0013    0.0554 C   0  0  0  0  0  0  0  0  0  0  0  0
    1.0303   -0.0025   -0.2992 N   0  0  0  0  0  0  0  0  0  0  0  0
    0.3525   -1.2020    0.2494 C   0  0  0  0  0  0  0  0  0  0  0  0
   -1.1347   -1.2452   -0.1663 C   0  0  0  0  0  0  0  0  0  0  0  0
   -1.7863   -0.0094    0.2796 N   0  0  0  0  0  0  0  0  0  0  0  0
   -1.1539    1.2355   -0.1717 C   0  0  0  0  0  0  0  0  0  0  0  0
    0.3439    1.2006    0.2326 C   0  0  0  0  0  0  0  0  0  0  0  0
   -3.0624   -0.0311    0.7823 C   0  0  0  0  0  0  0  0  0  0  0  0
   -4.1448    0.5857    0.1789 C   0  0  0  0  0  0  0  0  0  0  0  0
   -5.3894    0.6380    0.7005 N   0  0  0  0  0  0  0  0  0  0  0  0
   -5.6315    0.0517    1.8924 C   0  0  0  0  0  0  0  0  0  0  0  0
   -6.9451    0.0402    2.3770 N   0  0  0  0  0  0  0  0  0  0  0  0
   -7.9355    0.7637    1.7073 C   0  0  0  0  0  0  0  0  0  0  0  0
   -8.4214    1.9028    2.2480 N   0  0  0  0  0  0  0  0  0  0  0  0
   -9.4061    2.4583    1.5006 C   0  0  0  0  0  0  0  0  0  0  0  0
   -9.8946    1.9728    0.2893 C   0  0  0  0  0  0  0  0  0  0  0  0
  -11.0191    2.7301   -0.0853 C   0  0  0  0  0  0  0  0  0  0  0  0
  -11.2960    3.6033    0.9486 C   0  0  0  0  0  0  0  0  0  0  0  0
  -10.4203    3.2532    2.0201 N   0  0  0  0  0  0  0  0  0  0  0  0
  -10.6534    3.2342    3.4599 C   0  0  0  0  0  0  0  0  0  0  0  0
  -10.7414    1.4036    3.9988 C   0  0  0  0  0  0  0  0  0  0  0  0
  -11.4975    0.7285    2.9530 C   0  0  0  0  0  0  0  0  0  0  0  0
  -12.7455    1.5821    3.0730 C   0  0  0  0  0  0  0  0  0  0  0  0
  -12.7364    2.6114    4.4737 C   0  0  0  0  0  0  0  0  0  0  0  0
  -11.2778    3.3394    4.8125 C   0  0  0  0  0  0  0  0  0  0  0  0
  -11.7468    4.6772    3.2397 C   0  0  0  0  0  0  0  0  0  0  0  0
  -12.8422    4.6372    2.2967 N   0  0  0  0  0  0  0  0  0  0  0  0
  -12.4973    4.4019    1.0232 C   0  0  0  0  0  0  0  0  0  0  0  0
  -13.2353    4.7310    0.0656 O   0  0  0  0  0  0  0  0  0  0  0  0
   -9.3291    0.7972   -0.1650 C   0  0  0  0  0  0  0  0  0  0  0  0
   -8.3891    0.1874    0.5744 N   0  0  0  0  0  0  0  0  0  0  0  0
   -4.6153   -0.6096    2.5696 C   0  0  0  0  0  0  0  0  0  0  0  0
   -3.3332   -0.6493    2.0046 C   0  0  0  0  0  0  0  0  0  0  0  0
  1  2  1  0
  2  3  1  0
  2  7  1  0
  3  4  1  0
  4  5  1  0
  5  6  1  0
  5  8  1  0
  6  7  1  0
  8  9  2  0
  8 33  1  0
  9 10  1  0
 10 11  2  0
 11 12  1  0
 11 32  1  0
 12 13  1  0
 13 14  2  0
 13 31  1  0
 14 15  1  0
 15 16  2  0
 15 19  1  0
 16 17  1  0
 16 30  1  0
 17 18  2  0
 18 19  1  0
 18 28  1  0
 19 20  1  0
 20 21  1  0
 20 25  1  0
 20 26  1  0
 21 22  1  0
 22 23  1  0
 23 24  1  0
 24 25  1  0
 26 27  1  0
 27 28  1  0
 28 29  2  0
 30 31  2  0
 32 33  2  0
M  END
>  <DRUGBANK_ID>  (1) 
DB15442

>  <COMMON_NAME>  (1) 
Trilaciclib

>  <CAS_NUMBER>  (1) 
1374743-00-6

>  <UNII>  (1) 
U6072DO9XG

>  <SYNONYMS>  (1) 
Trilaciclib

$$$$
