
     RDKit          3D

 29 32  0  0  1  0  0  0  0  0999 V2000
    0.6308    2.4472   -1.3023 C   0  0  0  0  0  0  0  0  0  0  0  0
    0.2381    1.7597    0.0244 C   0  0  0  0  0  0  0  0  0  0  0  0
    0.8717    2.5258    1.2125 C   0  0  0  0  0  0  0  0  0  0  0  0
   -1.2749    1.9071    0.2434 C   0  0  0  0  0  0  0  0  0  0  0  0
   -2.1686    0.7681   -0.1733 C   0  0  0  0  0  0  0  0  0  0  0  0
   -1.6400   -0.6715   -0.0238 C   0  0  0  0  0  0  0  0  0  0  0  0
   -2.1666   -1.4153   -1.2774 C   0  0  0  0  0  0  0  0  0  0  0  0
   -2.2960   -1.3085    1.2231 C   0  0  0  0  0  0  0  0  0  0  0  0
   -0.1195   -0.7893    0.0420 C   0  0  0  0  0  0  0  0  0  0  0  0
    0.7389    0.3233    0.0184 C   0  0  0  0  0  0  0  0  0  0  0  0
    2.1367    0.1102   -0.0313 C   0  0  0  0  0  0  0  0  0  0  0  0
    2.6894   -1.1624   -0.0174 C   0  0  0  0  0  0  0  0  0  0  0  0
    1.8542   -2.2709    0.0600 C   0  0  0  0  0  0  0  0  0  0  0  0
    0.4640   -2.0739    0.0929 C   0  0  0  0  0  0  0  0  0  0  0  0
    2.4378   -3.6624    0.0576 C   0  0  1  0  0  0  0  0  0  0  0  0
    2.1178   -4.2964    1.2974 O   0  0  0  0  0  0  0  0  0  0  0  0
    1.9893   -4.5028   -1.1232 C   0  0  0  0  0  0  0  0  0  0  0  0
    1.4083   -5.7640   -0.9261 C   0  0  0  0  0  0  0  0  0  0  0  0
    1.1111   -6.6044   -2.0041 C   0  0  0  0  0  0  0  0  0  0  0  0
    1.3606   -6.1576   -3.3183 C   0  0  0  0  0  0  0  0  0  0  0  0
    1.8690   -4.8678   -3.5220 C   0  0  0  0  0  0  0  0  0  0  0  0
    2.1932   -4.0537   -2.4372 C   0  0  0  0  0  0  0  0  0  0  0  0
    1.1099   -7.0145   -4.4018 C   0  0  0  0  0  0  0  0  0  0  0  0
    0.6102   -8.3068   -4.1975 C   0  0  0  0  0  0  0  0  0  0  0  0
    0.3580   -8.7346   -2.8839 C   0  0  0  0  0  0  0  0  0  0  0  0
    0.5984   -7.8897   -1.7977 C   0  0  0  0  0  0  0  0  0  0  0  0
    0.3232   -9.2657   -5.3054 C   0  0  0  0  0  0  0  0  0  0  0  0
    0.5662   -8.8465   -6.5627 O   0  0  0  0  0  0  0  0  0  0  0  0
   -0.1192  -10.3880   -5.0871 O   0  0  0  0  0  0  0  0  0  0  0  0
  1  2  1  0
  2  3  1  0
  2  4  1  0
  2 10  1  0
  4  5  1  0
  5  6  1  0
  6  7  1  0
  6  8  1  0
  6  9  1  0
  9 10  2  0
  9 14  1  0
 10 11  1  0
 11 12  2  0
 12 13  1  0
 13 14  2  0
 13 15  1  0
 15 16  1  1
 15 17  1  0
 17 18  2  0
 17 22  1  0
 18 19  1  0
 19 20  2  0
 19 26  1  0
 20 21  1  0
 20 23  1  0
 21 22  2  0
 23 24  2  0
 24 25  1  0
 24 27  1  0
 25 26  2  0
 27 28  1  0
 27 29  2  0
M  END
>  <DRUGBANK_ID>  (1) 
DB03466

>  <SECONDARY_ACCESSION_NUMBERS>  (1) 
EXPT00057

>  <COMMON_NAME>  (1) 
BMS184394

$$$$
