
     RDKit          3D

 25 28  0  0  0  0  0  0  0  0999 V2000
    0.4096    1.6225    0.0581 O   0  0  0  0  0  0  0  0  0  0  0  0
    3.1604   -0.8604    0.0322 O   0  0  0  0  0  0  0  0  0  0  0  0
    1.9581    2.2303   -5.9117 O   0  0  0  0  0  0  0  0  0  0  0  0
    5.2550    4.2229    3.0094 O   0  0  0  0  0  0  0  0  0  0  0  0
    0.9447   -1.1762    0.1190 N   0  0  0  0  0  0  0  0  0  0  0  0
    1.7296    1.1616   -0.2912 C   0  0  0  0  0  0  0  0  0  0  0  0
    2.0388   -0.3594   -0.0063 C   0  0  0  0  0  0  0  0  0  0  0  0
    2.7006    1.9990    0.5815 C   0  0  0  0  0  0  0  0  0  0  0  0
    1.8302    1.4294   -1.8171 C   0  0  0  0  0  0  0  0  0  0  0  0
   -0.5846    0.6933    0.0769 C   0  0  0  0  0  0  0  0  0  0  0  0
   -0.3550   -0.6821    0.0818 C   0  0  0  0  0  0  0  0  0  0  0  0
    1.0305    0.6955   -2.7250 C   0  0  0  0  0  0  0  0  0  0  0  0
    4.0999    1.9171    0.4083 C   0  0  0  0  0  0  0  0  0  0  0  0
    2.6520    2.4309   -2.3552 C   0  0  0  0  0  0  0  0  0  0  0  0
    2.2141    2.8369    1.6018 C   0  0  0  0  0  0  0  0  0  0  0  0
   -1.8839    1.1926    0.0585 C   0  0  0  0  0  0  0  0  0  0  0  0
   -1.4250   -1.5667    0.0086 C   0  0  0  0  0  0  0  0  0  0  0  0
    1.0520    0.9488   -4.0964 C   0  0  0  0  0  0  0  0  0  0  0  0
    4.9731    2.6600    1.2040 C   0  0  0  0  0  0  0  0  0  0  0  0
    2.7025    2.6631   -3.7277 C   0  0  0  0  0  0  0  0  0  0  0  0
    3.0846    3.5673    2.4051 C   0  0  0  0  0  0  0  0  0  0  0  0
    1.8954    1.9332   -4.5849 C   0  0  0  0  0  0  0  0  0  0  0  0
    4.4527    3.4789    2.1980 C   0  0  0  0  0  0  0  0  0  0  0  0
   -2.9587    0.3101    0.0053 C   0  0  0  0  0  0  0  0  0  0  0  0
   -2.7280   -1.0665   -0.0339 C   0  0  0  0  0  0  0  0  0  0  0  0
  1  6  1  0
  1 10  1  0
  2  7  2  0
  3 22  1  0
  4 23  1  0
  5  7  1  0
  5 11  1  0
  6  7  1  0
  6  8  1  0
  6  9  1  0
  8 13  2  0
  8 15  1  0
  9 12  2  0
  9 14  1  0
 10 11  2  0
 10 16  1  0
 11 17  1  0
 12 18  1  0
 13 19  1  0
 14 20  2  0
 15 21  2  0
 16 24  2  0
 17 25  2  0
 18 22  2  0
 19 23  2  0
 20 22  1  0
 21 23  1  0
 24 25  1  0
M  END
>  <DRUGBANK_ID>  (1) 
DB09219

>  <COMMON_NAME>  (1) 
Bisoxatin

>  <CAS_NUMBER>  (1) 
17692-24-9

>  <UNII>  (1) 
7C75N0L7FP

>  <SYNONYMS>  (1) 
Bisoxatin

$$$$
