
     RDKit          3D

 40 41  0  0  1  0  0  0  0  0999 V2000
   -1.5484    1.2735   12.3532 C   0  0  0  0  0  0  0  0  0  0  0  0
   -0.3169    0.0436   13.2022 S   0  0  0  0  0  0  0  0  0  0  0  0
    1.4978    0.3237   12.4867 C   0  0  0  0  0  0  0  0  0  0  0  0
    1.8201    0.1183   10.8496 C   0  0  0  0  0  0  0  0  0  0  0  0
    1.1934    1.2627    9.1113 C   0  0  1  0  0  0  0  0  0  0  0  0
    1.3094    3.1038    8.9042 C   0  0  0  0  0  0  0  0  0  0  0  0
    1.9056    3.6565    7.9984 O   0  0  0  0  0  0  0  0  0  0  0  0
    0.7052    3.8953    9.8930 O   0  0  0  0  0  0  0  0  0  0  0  0
    0.8584    0.7578    7.6564 N   0  0  0  0  0  0  0  0  0  0  0  0
   -0.0418   -0.2564    7.3788 C   0  0  0  0  0  0  0  0  0  0  0  0
    0.4351   -1.0465    6.5591 O   0  0  0  0  0  0  0  0  0  0  0  0
   -1.4183   -0.5507    8.2408 C   0  0  2  0  0  0  0  0  0  0  0  0
   -1.4956   -0.0836    9.6607 C   0  0  0  0  0  0  0  0  0  0  0  0
   -0.0767    0.0334   10.1713 C   0  0  0  0  0  0  0  0  0  0  0  0
    1.1060   -0.9628    9.2655 C   0  0  0  0  0  0  0  0  0  0  0  0
    2.7438   -0.3287    9.0151 C   0  0  0  0  0  0  0  0  0  0  0  0
    3.2834    1.2023    9.7213 C   0  0  0  0  0  0  0  0  0  0  0  0
    2.2345    2.1264   10.7457 C   0  0  0  0  0  0  0  0  0  0  0  0
    0.5019    1.6318   10.9039 C   0  0  0  0  0  0  0  0  0  0  0  0
   -1.9225   -1.9120    8.2268 N   0  0  0  0  0  0  0  0  0  0  0  0
   -3.1846   -2.3352    7.9153 C   0  0  0  0  0  0  0  0  0  0  0  0
   -3.4664   -3.5275    8.0125 O   0  0  0  0  0  0  0  0  0  0  0  0
   -4.1740   -1.3474    7.3047 C   0  0  0  0  0  0  0  0  0  0  0  0
   -4.5605   -0.1360    8.0213 N   0  0  0  0  0  0  0  0  0  0  0  0
   -4.2670    1.1889    7.7794 C   0  0  0  0  0  0  0  0  0  0  0  0
   -4.6654    2.0339    8.5845 O   0  0  0  0  0  0  0  0  0  0  0  0
   -3.5827    1.6409    6.4651 C   0  0  0  0  0  0  0  0  0  0  0  0
   -2.4026    0.9196    6.0330 N   0  0  0  0  0  0  0  0  0  0  0  0
   -2.2806   -0.2032    5.2101 C   0  0  0  0  0  0  0  0  0  0  0  0
   -1.4083   -1.0667    5.2872 O   0  0  0  0  0  0  0  0  0  0  0  0
   -3.1158   -0.3860    4.0148 C   0  0  2  0  0  0  0  0  0  0  0  0
   -2.5203    0.5072    2.9208 C   0  0  0  0  0  0  0  0  0  0  0  0
   -1.2958    1.4091    3.1390 C   0  0  0  0  0  0  0  0  0  0  0  0
   -0.9706    2.3256    2.1582 C   0  0  0  0  0  0  0  0  0  0  0  0
    0.0666    3.2556    2.3750 C   0  0  0  0  0  0  0  0  0  0  0  0
    0.7450    3.3219    3.5936 C   0  0  0  0  0  0  0  0  0  0  0  0
    0.4148    2.4728    4.5911 C   0  0  0  0  0  0  0  0  0  0  0  0
   -0.4540    1.4611    4.2626 C   0  0  0  0  0  0  0  0  0  0  0  0
    1.7925    4.1362    3.8643 O   0  0  0  0  0  0  0  0  0  0  0  0
   -4.5452   -0.1918    4.2477 N   0  0  0  0  0  0  0  0  0  0  0  0
  1  2  1  0
  2  3  1  0
  3  4  1  0
  5  4  1  6
  5  6  1  0
  5  9  1  0
  6  7  2  0
  6  8  1  0
  9 10  1  0
 10 11  2  0
 12 20  1  0
 12 13  1  1
 12 10  1  0
 13 14  1  0
 14 15  2  0
 14 19  1  0
 15 16  1  0
 16 17  2  0
 17 18  1  0
 18 19  2  0
 20 21  1  0
 21 22  2  0
 21 23  1  0
 23 24  1  0
 24 25  1  0
 25 26  2  0
 25 27  1  0
 27 28  1  0
 28 29  1  0
 29 30  2  0
 31 40  1  1
 31 32  1  0
 31 29  1  0
 32 33  1  0
 33 34  2  0
 33 38  1  0
 34 35  1  0
 35 36  2  0
 36 37  1  0
 36 39  1  0
 37 38  2  0
M  END
>  <DRUGBANK_ID>  (1) 
DB12668

>  <COMMON_NAME>  (1) 
Metenkefalin

>  <CAS_NUMBER>  (1) 
58569-55-4

>  <UNII>  (1) 
9JEZ9OD3AS

>  <SYNONYMS>  (1) 
[met5]-enkephalin; Metenkefalin; Methionine Enkephalin

$$$$
