991
     RDKit          3D

 22 24  0  0  0  0  0  0  0  0999 V2000
    1.0049    0.2526   -0.0998 O   0  0  0  0  0  0  0  0  0  0  0  0
    3.1230    3.5559    1.2672 O   0  0  0  0  0  0  0  0  0  0  0  0
    2.5509    1.4163    1.5485 O   0  0  0  0  0  0  0  0  0  0  0  0
   -1.2534    0.3322    0.0171 N   0  0  0  0  0  0  0  0  0  0  0  0
    0.5557   -1.0322    0.0317 C   0  0  0  0  0  0  0  0  0  0  0  0
   -0.8207   -0.9701    0.0662 C   0  0  0  0  0  0  0  0  0  0  0  0
   -0.1288    1.0214   -0.0178 C   0  0  0  0  0  0  0  0  0  0  0  0
    0.0364    2.5040    0.0116 C   0  0  0  0  0  0  0  0  0  0  0  0
    1.5202   -2.1206   -0.0184 C   0  0  0  0  0  0  0  0  0  0  0  0
   -1.6646   -2.1360    0.0483 C   0  0  0  0  0  0  0  0  0  0  0  0
    0.7621    3.0281    1.2503 C   0  0  0  0  0  0  0  0  0  0  0  0
    1.4366   -3.0521   -1.0642 C   0  0  0  0  0  0  0  0  0  0  0  0
    2.4693   -2.3278    0.9899 C   0  0  0  0  0  0  0  0  0  0  0  0
   -2.5136   -2.3489   -1.0400 C   0  0  0  0  0  0  0  0  0  0  0  0
   -1.5187   -3.1243    1.0300 C   0  0  0  0  0  0  0  0  0  0  0  0
    2.2981   -4.1479   -1.1246 C   0  0  0  0  0  0  0  0  0  0  0  0
    3.3653   -3.4027    0.9046 C   0  0  0  0  0  0  0  0  0  0  0  0
   -3.2184   -3.5464   -1.1425 C   0  0  0  0  0  0  0  0  0  0  0  0
   -2.1847   -4.3390    0.8970 C   0  0  0  0  0  0  0  0  0  0  0  0
    2.2025    2.5753    1.3511 C   0  0  0  0  0  0  0  0  0  0  0  0
    3.2673   -4.3208   -0.1418 C   0  0  0  0  0  0  0  0  0  0  0  0
   -3.0576   -4.5365   -0.1718 C   0  0  0  0  0  0  0  0  0  0  0  0
  1  5  1  0
  1  7  1  0
  2 20  1  0
  3 20  2  0
  4  6  1  0
  4  7  2  0
  5  6  2  0
  5  9  1  0
  6 10  1  0
  7  8  1  0
  8 11  1  0
  9 12  2  0
  9 13  1  0
 10 14  2  0
 10 15  1  0
 11 20  1  0
 12 16  1  0
 13 17  2  0
 14 18  1  0
 15 19  2  0
 16 21  2  0
 17 21  1  0
 18 22  2  0
 19 22  1  0
M  END
>  <DRUGBANK_ID>  (1) 
DB00991

>  <SECONDARY_ACCESSION_NUMBERS>  (1) 
APRD00030

>  <COMMON_NAME>  (1) 
Oxaprozin

>  <CAS_NUMBER>  (1) 
21256-18-8

>  <UNII>  (1) 
MHJ80W9LRB

>  <SYNONYMS>  (1) 
Oxaprozin; Oxaprozina; Oxaprozine; Oxaprozinum

$$$$
