
     RDKit          3D

 30 34  0  0  0  0  0  0  0  0999 V2000
    1.1673    0.1291    0.0983 O   0  0  0  0  0  0  0  0  0  0  0  0
    2.3969    0.1174    0.0174 C   0  0  0  0  0  0  0  0  0  0  0  0
    3.1683    0.5921    1.0651 N   0  0  0  0  0  0  0  0  0  0  0  0
    4.5388    0.6840    1.0897 C   0  0  0  0  0  0  0  0  0  0  0  0
    5.2739    1.0442    0.0488 N   0  0  0  0  0  0  0  0  0  0  0  0
    6.5442    0.8713    0.4477 N   0  0  0  0  0  0  0  0  0  0  0  0
    6.5182    0.5034    1.7989 C   0  0  0  0  0  0  0  0  0  0  0  0
    7.7807    0.2881    2.4318 C   0  0  0  0  0  0  0  0  0  0  0  0
    8.9246    0.4752    1.7428 C   0  0  0  0  0  0  0  0  0  0  0  0
    8.9195    0.8618    0.3502 C   0  0  0  0  0  0  0  0  0  0  0  0
    7.7441    1.0363   -0.2788 C   0  0  0  0  0  0  0  0  0  0  0  0
    7.8201    1.5434   -1.6520 C   0  0  0  0  0  0  0  0  0  0  0  0
    8.3707    0.8196   -2.7192 C   0  0  0  0  0  0  0  0  0  0  0  0
    8.3646    1.3439   -4.0276 C   0  0  0  0  0  0  0  0  0  0  0  0
    7.8586    2.6279   -4.2831 C   0  0  0  0  0  0  0  0  0  0  0  0
    7.4542    3.0534   -5.7388 C   0  0  0  0  0  0  0  0  0  0  0  0
    6.0133    3.0438   -6.2489 N   0  0  0  0  0  0  0  0  0  0  0  0
    5.0467    3.9699   -5.6109 C   0  0  0  0  0  0  0  0  0  0  0  0
    4.8355    3.5683   -4.1923 C   0  0  0  0  0  0  0  0  0  0  0  0
    4.4061    1.8779   -3.9464 S   0  0  0  0  0  0  0  0  0  0  0  0
    4.8982    1.4673   -2.6644 O   0  0  0  0  0  0  0  0  0  0  0  0
    2.9869    1.7691   -4.2633 O   0  0  0  0  0  0  0  0  0  0  0  0
    5.3103    0.9341   -5.1510 C   0  0  0  0  0  0  0  0  0  0  0  0
    5.3990    1.7161   -6.4290 C   0  0  0  0  0  0  0  0  0  0  0  0
    7.6285    3.4320   -3.1356 C   0  0  0  0  0  0  0  0  0  0  0  0
    7.4466    2.8587   -1.8718 C   0  0  0  0  0  0  0  0  0  0  0  0
    5.2656    0.4493    2.2264 N   0  0  0  0  0  0  0  0  0  0  0  0
    3.0679   -0.5648   -1.1371 C   0  0  0  0  0  0  0  0  0  0  0  0
    2.3950   -0.9012   -2.4437 C   0  0  0  0  0  0  0  0  0  0  0  0
    2.7454   -2.0005   -1.4842 C   0  0  0  0  0  0  0  0  0  0  0  0
  1  2  2  0
  2  3  1  0
  2 28  1  0
  3  4  1  0
  4  5  2  0
  4 27  1  0
  5  6  1  0
  6  7  1  0
  6 11  1  0
  7  8  1  0
  7 27  2  0
  8  9  2  0
  9 10  1  0
 10 11  2  0
 11 12  1  0
 12 13  2  0
 12 26  1  0
 13 14  1  0
 14 15  2  0
 15 16  1  0
 15 25  1  0
 16 17  1  0
 17 18  1  0
 17 24  1  0
 18 19  1  0
 19 20  1  0
 20 21  2  0
 20 22  2  0
 20 23  1  0
 23 24  1  0
 25 26  2  0
 28 29  1  0
 28 30  1  0
 29 30  1  0
M  END
>  <DRUGBANK_ID>  (1) 
DB14845

>  <COMMON_NAME>  (1) 
Filgotinib

>  <CAS_NUMBER>  (1) 
1206161-97-8

>  <UNII>  (1) 
3XVL385Q0M

>  <SYNONYMS>  (1) 
Filgotinib

$$$$
