
     RDKit          3D

 24 26  0  0  0  0  0  0  0  0999 V2000
    1.1285    0.0042   -0.0015 C   0  0  0  0  0  0  0  0  0  0  0  0
    0.9101    0.2101   -1.5010 C   0  0  0  0  0  0  0  0  0  0  0  0
    1.0233   -1.0928   -2.3113 C   0  0  0  0  0  0  0  0  0  0  0  0
    0.3391   -2.3688   -1.7601 C   0  0  0  0  0  0  0  0  0  0  0  0
   -1.1382   -2.3871   -1.8178 N   0  0  0  0  0  0  0  0  0  0  0  0
   -1.7919   -3.6192   -1.7552 C   0  0  0  0  0  0  0  0  0  0  0  0
   -3.0993   -3.6744   -1.4329 C   0  0  0  0  0  0  0  0  0  0  0  0
   -3.9182   -2.4623   -1.4884 C   0  0  0  0  0  0  0  0  0  0  0  0
   -3.3122   -1.2846   -1.6517 C   0  0  0  0  0  0  0  0  0  0  0  0
   -1.8700   -1.2570   -1.4240 C   0  0  0  0  0  0  0  0  0  0  0  0
   -1.4730   -0.2884   -0.8242 O   0  0  0  0  0  0  0  0  0  0  0  0
   -4.1014    0.2545   -1.7633 Cl  0  0  0  0  0  0  0  0  0  0  0  0
   -5.2908   -2.5796   -1.5075 N   0  0  0  0  0  0  0  0  0  0  0  0
   -6.0729   -2.9633   -0.3461 C   0  0  0  0  0  0  0  0  0  0  0  0
   -6.9481   -4.1108   -0.8070 C   0  0  0  0  0  0  0  0  0  0  0  0
   -7.8019   -3.7192   -2.0476 C   0  0  0  0  0  0  0  0  0  0  0  0
   -6.9379   -3.0530   -3.1359 C   0  0  0  0  0  0  0  0  0  0  0  0
   -6.0850   -1.9567   -2.5641 C   0  0  0  0  0  0  0  0  0  0  0  0
   -8.5059   -4.9604   -2.5638 C   0  0  0  0  0  0  0  0  0  0  0  0
   -9.3159   -5.6934   -1.6881 C   0  0  0  0  0  0  0  0  0  0  0  0
   -9.7183   -6.9818   -2.0240 C   0  0  0  0  0  0  0  0  0  0  0  0
   -9.4500   -7.4878   -3.2931 C   0  0  0  0  0  0  0  0  0  0  0  0
   -8.8017   -6.6982   -4.2336 C   0  0  0  0  0  0  0  0  0  0  0  0
   -8.2918   -5.4632   -3.8563 C   0  0  0  0  0  0  0  0  0  0  0  0
  1  2  1  0
  2  3  1  0
  3  4  1  0
  4  5  1  0
  5  6  1  0
  5 10  1  0
  6  7  2  0
  7  8  1  0
  8  9  2  0
  8 13  1  0
  9 10  1  0
  9 12  1  0
 10 11  2  0
 13 14  1  0
 13 18  1  0
 14 15  1  0
 15 16  1  0
 16 17  1  0
 16 19  1  0
 17 18  1  0
 19 20  2  0
 19 24  1  0
 20 21  1  0
 21 22  2  0
 22 23  1  0
 23 24  2  0
M  END
>  <DRUGBANK_ID>  (1) 
DB12059

>  <COMMON_NAME>  (1) 
JNJ-40411813

>  <CAS_NUMBER>  (1) 
1127498-03-6

>  <UNII>  (1) 
612BYT76F3

$$$$
