
     RDKit          3D

 32 36  0  0  0  0  0  0  0  0999 V2000
    1.6169    1.3949   -1.8220 C   0  0  0  0  0  0  0  0  0  0  0  0
    1.7259    2.8143   -3.1442 C   0  0  0  0  0  0  0  0  0  0  0  0
    0.2262    4.9157   -5.2183 C   0  0  0  0  0  0  0  0  0  0  0  0
   -0.3979    3.9524   -4.1496 C   0  0  0  0  0  0  0  0  0  0  0  0
    0.3644    3.2858   -3.0495 C   0  0  0  0  0  0  0  0  0  0  0  0
   -0.1265    3.3255   -1.8003 C   0  0  0  0  0  0  0  0  0  0  0  0
    0.7367    1.6681   -0.3383 C   0  0  0  0  0  0  0  0  0  0  0  0
    0.8684    3.0378   -0.7263 C   0  0  0  0  0  0  0  0  0  0  0  0
    1.7896    5.0312   -5.3109 C   0  0  2  0  0  0  0  0  0  0  0  0
    2.4314    3.8463   -4.0136 C   0  0  0  0  0  0  0  0  0  0  0  0
    4.3999    7.3354   -6.9646 C   0  0  0  0  0  0  0  0  0  0  0  0
    3.5458    8.3114   -5.6701 C   0  0  1  0  0  0  0  0  0  0  0  0
    4.1190    5.8264   -4.3179 C   0  0  0  0  0  0  0  0  0  0  0  0
    4.9391    8.4263   -6.0190 C   0  0  0  0  0  0  0  0  0  0  0  0
    3.9208    4.2435   -4.1483 C   0  0  2  0  0  0  0  0  0  0  0  0
    1.9567    3.5848   -0.5416 O   0  0  0  0  0  0  0  0  0  0  0  0
    3.7044    6.4683   -5.6165 C   0  0  2  0  0  0  0  0  0  0  0  0
    3.8432    5.3565   -7.1616 C   0  0  0  0  0  0  0  0  0  0  0  0
    2.6024    6.4811   -6.4055 C   0  0  2  0  0  0  0  0  0  0  0  0
    4.5476    3.4765   -5.3168 C   0  0  0  0  0  0  0  0  0  0  0  0
    3.1908    8.9677   -4.4951 O   0  0  0  0  0  0  0  0  0  0  0  0
    4.2005    2.1960   -7.3828 C   0  0  0  0  0  0  0  0  0  0  0  0
    5.5140    2.3685   -7.7940 C   0  0  0  0  0  0  0  0  0  0  0  0
    6.3456    3.0968   -6.9111 C   0  0  0  0  0  0  0  0  0  0  0  0
    5.8733    3.6729   -5.7104 C   0  0  0  0  0  0  0  0  0  0  0  0
    3.7424    2.7014   -6.1769 C   0  0  0  0  0  0  0  0  0  0  0  0
    5.9412    1.8762   -9.0135 N   0  0  0  0  0  0  0  0  0  0  0  0
    5.0606    1.1570   -9.9289 C   0  0  0  0  0  0  0  0  0  0  0  0
    7.3396    1.9844   -9.3878 C   0  0  0  0  0  0  0  0  0  0  0  0
    2.7666    9.0162   -6.9462 C   0  0  0  0  0  0  0  0  0  0  0  0
    2.2490    9.3197   -8.0531 C   0  0  0  0  0  0  0  0  0  0  0  0
    1.6059    9.6307   -9.3387 C   0  0  0  0  0  0  0  0  0  0  0  0
  1  7  1  0
  2  1  1  0
  2  5  1  0
  3  4  1  0
  4  5  1  0
  5  6  2  0
  6  8  1  0
  7  8  1  0
  8 16  2  0
  9  3  1  1
  9 19  1  0
 10  9  1  0
 10  2  2  0
 10 15  1  0
 12 14  1  0
 12 30  1  0
 12 21  1  1
 13 15  1  0
 14 11  1  0
 15 20  1  6
 17 12  1  0
 17 13  1  0
 17 18  1  6
 19 11  1  6
 19 17  1  0
 20 26  2  0
 22 23  2  0
 22 26  1  0
 23 24  1  0
 23 27  1  0
 24 25  2  0
 25 20  1  0
 27 28  1  0
 27 29  1  0
 30 31  3  0
 31 32  1  0
M  END
>  <DRUGBANK_ID>  (1) 
DB00834

>  <SECONDARY_ACCESSION_NUMBERS>  (1) 
APRD00432

>  <COMMON_NAME>  (1) 
Mifepristone

>  <CAS_NUMBER>  (1) 
84371-65-3

>  <UNII>  (1) 
320T6RNW1F

>  <SYNONYMS>  (1) 
Mifepriston; Mifepristona; Mif√©pristone; Mifepristone; Mifepristonum

$$$$
