
     RDKit          3D

 22 25  0  0  0  0  0  0  0  0999 V2000
   -0.4026    0.8422   -0.0006 C   0  0  0  0  0  0  0  0  0  0  0  0
   -0.1806   -0.5495   -0.0004 C   0  0  0  0  0  0  0  0  0  0  0  0
    0.7145    1.6510   -0.0001 C   0  0  0  0  0  0  0  0  0  0  0  0
    1.0768   -1.1550   -0.0012 C   0  0  0  0  0  0  0  0  0  0  0  0
    2.0025    1.0771    0.0013 C   0  0  0  0  0  0  0  0  0  0  0  0
    2.1804   -0.3119   -0.0009 C   0  0  0  0  0  0  0  0  0  0  0  0
   -1.8800    1.0947   -0.0001 C   0  0  0  0  0  0  0  0  0  0  0  0
   -2.4648   -0.3449    0.0007 C   0  0  0  0  0  0  0  0  0  0  0  0
   -1.3885   -1.2287    0.0005 N   0  0  0  0  0  0  0  0  0  0  0  0
   -3.6451   -0.6852    0.0014 O   0  0  0  0  0  0  0  0  0  0  0  0
   -2.6592    2.2271    0.0002 C   0  0  0  0  0  0  0  0  0  0  0  0
   -2.2492    3.7744   -0.0010 C   0  0  0  0  0  0  0  0  0  0  0  0
   -4.0578    2.2821    0.0017 N   0  0  0  0  0  0  0  0  0  0  0  0
   -3.5556    4.5498   -0.0006 C   0  0  0  0  0  0  0  0  0  0  0  0
   -4.5655    3.5859    0.0010 C   0  0  0  0  0  0  0  0  0  0  0  0
   -3.8865    5.9158   -0.0022 C   0  0  0  0  0  0  0  0  0  0  0  0
   -5.2422    6.3033   -0.0030 C   0  0  0  0  0  0  0  0  0  0  0  0
   -5.9077    3.9703    0.0026 C   0  0  0  0  0  0  0  0  0  0  0  0
   -6.2483    5.3324    0.0006 C   0  0  0  0  0  0  0  0  0  0  0  0
   -1.0418    4.2510   -0.0023 N   0  0  0  0  0  0  0  0  0  0  0  0
   -0.9846    5.6524   -0.0032 O   0  0  0  0  0  0  0  0  0  0  0  0
    3.9317   -1.0330   -0.0061 Br  0  0  0  0  0  0  0  0  0  0  0  0
  2  1  1  0
  3  1  2  0
  4  2  2  0
  5  3  1  0
  6  4  1  0
  6  5  2  0
  6 22  1  0
  7  1  1  0
  7 11  2  0
  8  7  1  0
  8 10  2  0
  9  2  1  0
  9  8  1  0
 12 11  1  0
 12 20  2  0
 13 11  1  0
 14 12  1  0
 15 13  1  0
 15 14  2  0
 16 14  1  0
 17 16  2  0
 18 15  1  0
 19 17  1  0
 19 18  2  0
 20 21  1  0
M  END
>  <DRUGBANK_ID>  (1) 
DB03444

>  <SECONDARY_ACCESSION_NUMBERS>  (1) 
EXPT00759

>  <COMMON_NAME>  (1) 
6-bromoindirubin-3'-oxime

>  <CAS_NUMBER>  (1) 
667463-62-9

>  <SYNONYMS>  (1) 
(2Z,3E)-6-Bromoindirubin-3'-oxime; (2Z,3E)-6'-bromo-2,3'-biindole-2',3(1H,1'H)-dione 3-oxime; 6-BIO

$$$$
