
     RDKit          3D

 11 11  0  0  0  0  0  0  0  0999 V2000
   -1.7391   -1.6429    0.0099 C   0  0  0  0  0  0  0  0  0  0  0  0
   -0.5025   -0.7941    0.0093 C   0  0  0  0  0  0  0  0  0  0  0  0
    0.7614   -1.4002   -0.0096 C   0  0  0  0  0  0  0  0  0  0  0  0
    1.9231   -0.6273   -0.0077 C   0  0  0  0  0  0  0  0  0  0  0  0
    1.8367    0.7635   -0.0000 C   0  0  0  0  0  0  0  0  0  0  0  0
    0.5860    1.3972    0.0034 C   0  0  0  0  0  0  0  0  0  0  0  0
    0.5089    2.9067   -0.0078 C   0  0  0  0  0  0  0  0  0  0  0  0
   -0.2060    3.4409   -1.2198 C   0  0  0  0  0  0  0  0  0  0  0  0
   -1.3448    4.1466   -1.1432 C   0  0  0  0  0  0  0  0  0  0  0  0
   -0.5739    0.6051    0.0275 C   0  0  0  0  0  0  0  0  0  0  0  0
   -1.7812    1.2493    0.0839 O   0  0  0  0  0  0  0  0  0  0  0  0
  1  2  1  0
  2  3  2  0
  2 10  1  0
  3  4  1  0
  4  5  2  0
  5  6  1  0
  6  7  1  0
  6 10  2  0
  7  8  1  0
  8  9  2  0
 10 11  1  0
M  END
>  <DRUGBANK_ID>  (1) 
DB03301

>  <SECONDARY_ACCESSION_NUMBERS>  (1) 
EXPT02077

>  <COMMON_NAME>  (1) 
2-Allyl-6-Methyl-Phenol

>  <UNII>  (1) 
BGU079WOI3

$$$$
