HOM
     RDKit          3D

 16 17  0  0  0  0  0  0  0  0999 V2000
   -2.3369    0.6742   -0.0232 C   0  0  0  0  0  0  0  0  0  0  0  0
   -2.2109   -0.8176    0.0236 C   0  0  0  0  0  0  0  0  0  0  0  0
    0.1966   -0.5393   -0.0252 C   0  0  0  0  0  0  0  0  0  0  0  0
    1.4327   -1.1887   -0.0252 C   0  0  0  0  0  0  0  0  0  0  0  0
    2.5906   -0.4260    0.0046 C   0  0  0  0  0  0  0  0  0  0  0  0
    2.5243    0.9570    0.0530 C   0  0  0  0  0  0  0  0  0  0  0  0
    1.2803    1.5834    0.0602 C   0  0  0  0  0  0  0  0  0  0  0  0
    0.0883    0.8487   -0.0085 C   0  0  0  0  0  0  0  0  0  0  0  0
   -1.2422    1.4763   -0.0845 C   0  0  0  0  0  0  0  0  0  0  0  0
   -3.7724    1.1794   -0.0522 C   0  0  0  0  0  0  0  0  0  0  0  0
   -4.2213    1.8943    1.2288 C   0  0  0  0  0  0  0  0  0  0  0  0
   -1.2906    2.9819   -0.3000 C   0  0  0  0  0  0  0  0  0  0  0  0
   -3.1995   -1.5584    0.0830 O   0  0  0  0  0  0  0  0  0  0  0  0
   -0.9412   -1.3577   -0.0347 O   0  0  0  0  0  0  0  0  0  0  0  0
    3.7938   -1.0617   -0.0070 O   0  0  0  0  0  0  0  0  0  0  0  0
   -3.4148    3.0020    1.5802 O   0  0  0  0  0  0  0  0  0  0  0  0
  1  2  1  0
  1  9  2  0
  1 10  1  0
  2 13  2  0
  2 14  1  0
  3  4  1  0
  3  8  2  0
  3 14  1  0
  4  5  2  0
  5  6  1  0
  5 15  1  0
  6  7  2  0
  7  8  1  0
  8  9  1  0
  9 12  1  0
 10 11  1  0
 11 16  1  0
M  END
>  <DRUGBANK_ID>  (1) 
DB07908

>  <COMMON_NAME>  (1) 
7-HYDROXY-4-METHYL-3-(2-HYDROXY-ETHYL)COUMARIN

$$$$
