
     RDKit          3D

 21 23  0  0  0  0  0  0  0  0999 V2000
    1.4022   -0.5506   -0.1811 C   0  0  0  0  0  0  0  0  0  0  0  0
    2.7840    5.5499    2.6838 C   0  0  0  0  0  0  0  0  0  0  0  0
    0.4884   -1.5806   -0.0139 C   0  0  0  0  0  0  0  0  0  0  0  0
    0.9381    0.6661   -0.6522 C   0  0  0  0  0  0  0  0  0  0  0  0
    2.6040    4.2532    3.1590 C   0  0  0  0  0  0  0  0  0  0  0  0
    2.0952    5.9847    1.5469 C   0  0  0  0  0  0  0  0  0  0  0  0
   -0.8973   -1.3453   -0.1037 C   0  0  0  0  0  0  0  0  0  0  0  0
   -0.4410    0.8693   -0.8198 C   0  0  0  0  0  0  0  0  0  0  0  0
    1.7066    3.4350    2.5250 C   0  0  0  0  0  0  0  0  0  0  0  0
    1.0906    5.2054    1.0088 C   0  0  0  0  0  0  0  0  0  0  0  0
   -2.8253    0.3800   -0.2315 C   0  0  0  0  0  0  0  0  0  0  0  0
   -0.2351    3.0822    1.0205 C   0  0  0  0  0  0  0  0  0  0  0  0
   -2.6404    2.5086    1.1352 C   0  0  0  0  0  0  0  0  0  0  0  0
   -3.2687    0.4526    2.2050 C   0  0  0  0  0  0  0  0  0  0  0  0
   -1.3800   -0.0620   -0.4009 C   0  0  0  0  0  0  0  0  0  0  0  0
    0.8244    3.9556    1.5732 C   0  0  0  0  0  0  0  0  0  0  0  0
   -1.1505    1.7800    2.9573 C   0  0  0  0  0  0  0  0  0  0  0  0
   -3.1908    1.1772    0.9571 N   0  0  0  0  0  0  0  0  0  0  0  0
   -1.3527    2.5602    1.8147 N   0  0  0  0  0  0  0  0  0  0  0  0
   -0.6533    2.3547    4.4511 S   0  0  0  0  0  0  0  0  0  0  0  0
   -1.6540    0.1037    2.8739 S   0  0  0  0  0  0  0  0  0  0  0  0
  3  1  2  0
  4  1  1  0
  5  2  2  0
  6  2  1  0
  7  3  1  0
  8  4  2  0
  9  5  1  0
 10  6  2  0
 15  7  2  0
 15  8  1  0
 15 11  1  0
 16  9  2  0
 16 10  1  0
 16 12  1  0
 18 11  1  0
 18 13  1  0
 18 14  1  0
 19 12  1  0
 19 13  1  0
 19 17  1  0
 20 17  2  0
 21 14  1  0
 21 17  1  0
M  END
>  <DRUGBANK_ID>  (1) 
DB13671

>  <COMMON_NAME>  (1) 
Sulbentine

>  <CAS_NUMBER>  (1) 
350-12-9

>  <UNII>  (1) 
D0NR12WK9J

>  <SYNONYMS>  (1) 
Sulbentine

$$$$
