
     RDKit          3D

 29 32  0  0  0  0  0  0  0  0999 V2000
   -0.0079    5.8267   -1.3992 C   0  0  0  0  0  0  0  0  0  0  0  0
   -0.4461    4.5933   -0.5616 C   0  0  0  0  0  0  0  0  0  0  0  0
    0.5775    4.0317    0.4198 C   0  0  0  0  0  0  0  0  0  0  0  0
    1.4206    3.5457   -0.5183 C   0  0  0  0  0  0  0  0  0  0  0  0
    1.9177    4.6320   -1.4558 C   0  0  2  0  0  0  0  0  0  0  0  0
    1.3360    6.2078   -0.8569 C   0  0  0  0  0  0  0  0  0  0  0  0
    1.4062    2.1573   -1.0449 C   0  0  0  0  0  0  0  0  0  0  0  0
    1.6737    1.8163   -2.3671 C   0  0  0  0  0  0  0  0  0  0  0  0
    2.1478    2.7875   -3.5851 C   0  0  2  0  0  0  0  0  0  0  0  0
    1.4630    4.1646   -3.0541 C   0  0  2  0  0  0  0  0  0  0  0  0
    2.4246    2.3818   -5.4328 C   0  0  1  0  0  0  0  0  0  0  0  0
    1.8301    3.6303   -5.7721 C   0  0  2  0  0  0  0  0  0  0  0  0
    1.1523    4.8740   -5.3143 C   0  0  0  0  0  0  0  0  0  0  0  0
    1.6724    5.3167   -4.0103 C   0  0  0  0  0  0  0  0  0  0  0  0
    2.9446    3.0406   -7.2606 C   0  0  0  0  0  0  0  0  0  0  0  0
    1.7055    3.7666   -7.8950 C   0  0  0  0  0  0  0  0  0  0  0  0
    0.9608    2.8932   -7.0675 C   0  0  2  0  0  0  0  0  0  0  0  0
    3.6148    4.0734   -5.4798 C   0  0  0  0  0  0  0  0  0  0  0  0
    3.4212    4.7149   -1.3737 C   0  0  0  0  0  0  0  0  0  0  0  0
    1.0066    1.1229    0.0062 C   0  0  0  0  0  0  0  0  0  0  0  0
   -1.4702    3.9464   -0.7257 O   0  0  0  0  0  0  0  0  0  0  0  0
   -0.5431    2.7568   -7.0044 C   0  0  0  0  0  0  0  0  0  0  0  0
   -1.3158    3.7088   -7.0645 O   0  0  0  0  0  0  0  0  0  0  0  0
   -1.0415    1.3374   -6.8774 C   0  0  0  0  0  0  0  0  0  0  0  0
    1.3532    4.9941   -8.3346 C   0  0  0  0  0  0  0  0  0  0  0  0
    1.3819    1.4051   -7.4940 O   0  0  0  0  0  0  0  0  0  0  0  0
    1.9737    0.9334   -8.6539 C   0  0  0  0  0  0  0  0  0  0  0  0
    2.9047    0.1720   -8.6538 O   0  0  0  0  0  0  0  0  0  0  0  0
    1.3990    1.5343   -9.9001 C   0  0  0  0  0  0  0  0  0  0  0  0
  1  2  1  0
  1  6  1  0
  2  3  1  0
  2 21  2  0
  3  4  2  0
  4  5  1  0
  4  7  1  0
  5  6  1  0
  5 10  1  0
  5 19  1  6
  7  8  2  0
  7 20  1  0
  9  8  1  6
  9 10  1  0
  9 11  1  0
 10 14  1  6
 11 12  1  0
 11 15  1  1
 12 13  1  0
 12 17  1  0
 12 18  1  6
 13 14  1  0
 15 16  1  0
 16 17  1  0
 16 25  2  0
 17 26  1  6
 17 22  1  0
 22 23  2  0
 22 24  1  0
 26 27  1  0
 27 28  2  0
 27 29  1  0
M  END
>  <DRUGBANK_ID>  (1) 
DB14659

>  <SECONDARY_ACCESSION_NUMBERS>  (1) 
DBSALT001692

>  <COMMON_NAME>  (1) 
Melengestrol acetate

>  <CAS_NUMBER>  (1) 
2919-66-6

>  <UNII>  (1) 
4W5HDS3936

>  <SYNONYMS>  (1) 
Melengestrol acetate

$$$$
