
     RDKit          3D

 22 24  0  0  1  0  0  0  0  0999 V2000
   -1.8466   -1.3735    0.1098 C   0  0  1  0  0  0  0  0  0  0  0  0
   -0.8084    0.1971    1.1463 N   0  0  0  0  0  0  0  0  0  0  0  0
   -0.4956   -1.2351    0.8633 C   0  0  2  0  0  0  0  0  0  0  0  0
   -2.0466    0.1005    0.5143 C   0  0  0  0  0  0  0  0  0  0  0  0
    0.2500    1.2229    0.8198 C   0  0  2  0  0  0  0  0  0  0  0  0
    1.5913    0.4353    0.3698 C   0  0  0  0  0  0  0  0  0  0  0  0
    1.1027   -1.3476    0.0227 S   0  0  0  0  0  0  0  0  0  0  0  0
    2.5677    0.8904   -0.7819 C   0  0  0  0  0  0  0  0  0  0  0  0
    2.4871    0.3240    1.5760 C   0  0  0  0  0  0  0  0  0  0  0  0
   -2.8516    0.9852    0.2132 O   0  0  0  0  0  0  0  0  0  0  0  0
    0.4382    2.5674    1.5788 C   0  0  0  0  0  0  0  0  0  0  0  0
   -0.3594    3.5996    1.1655 O   0  0  0  0  0  0  0  0  0  0  0  0
    1.2944    2.7758    2.4291 O   0  0  0  0  0  0  0  0  0  0  0  0
   -1.8960   -1.8518   -1.3041 N   0  0  0  0  0  0  0  0  0  0  0  0
   -1.8367   -1.1561   -2.3967 C   0  0  0  0  0  0  0  0  0  0  0  0
   -1.4406    0.1308   -2.7152 N   0  0  0  0  0  0  0  0  0  0  0  0
   -0.4747    0.7146   -1.8817 C   0  0  0  0  0  0  0  0  0  0  0  0
   -2.2134    1.1443   -3.3874 C   0  0  0  0  0  0  0  0  0  0  0  0
   -1.3632    1.5755   -4.5962 C   0  0  0  0  0  0  0  0  0  0  0  0
    0.1726    2.0501   -2.1204 C   0  0  0  0  0  0  0  0  0  0  0  0
   -0.1207    2.4811   -4.3935 C   0  0  0  0  0  0  0  0  0  0  0  0
    0.8873    1.9686   -3.4121 C   0  0  0  0  0  0  0  0  0  0  0  0
  1  4  1  0
  1 14  1  6
  3  1  1  0
  3  2  1  0
  3  7  1  6
  4  2  1  0
  5  2  1  0
  5 11  1  1
  6  5  1  0
  7  6  1  0
  8  6  1  0
  9  6  1  0
 10  4  2  0
 12 11  1  0
 13 11  2  0
 15 14  2  3
 16 15  1  0
 17 16  1  0
 18 16  1  0
 19 18  1  0
 20 17  1  0
 21 19  1  0
 22 20  1  0
 22 21  1  0
M  END
>  <DRUGBANK_ID>  (1) 
DB01163

>  <SECONDARY_ACCESSION_NUMBERS>  (1) 
APRD00789

>  <COMMON_NAME>  (1) 
Amdinocillin

>  <CAS_NUMBER>  (1) 
32887-01-7

>  <UNII>  (1) 
V10579P3QZ

>  <SYNONYMS>  (1) 
Amdinocillin; Mecilinamo; Mecillinam; Mecillinamum; Penicillin HX

$$$$
