HSH
     RDKit          3D

 20 20  0  0  0  0  0  0  0  0999 V2000
   -8.3481    7.4383   -0.3784 C   0  0  0  0  0  0  0  0  0  0  0  0
   -8.3536    6.6910   -1.7022 C   0  0  0  0  0  0  0  0  0  0  0  0
   -7.1229    7.0504   -2.5368 C   0  0  0  0  0  0  0  0  0  0  0  0
   -5.8141    6.7063   -1.8149 C   0  0  0  0  0  0  0  0  0  0  0  0
   -5.7258    5.2160   -1.4836 C   0  0  0  0  0  0  0  0  0  0  0  0
   -5.7623    4.3731   -2.7534 C   0  0  0  0  0  0  0  0  0  0  0  0
   -4.6111    4.7390   -3.7010 C   0  0  0  0  0  0  0  0  0  0  0  0
   -3.2641    4.4051   -3.0614 C   0  0  0  0  0  0  0  0  0  0  0  0
   -3.1898    3.0240   -2.7114 O   0  0  0  0  0  0  0  0  0  0  0  0
   -3.3707    2.1867   -3.8504 C   0  0  2  0  0  0  0  0  0  0  0  0
   -4.7648    1.8995   -4.0388 O   0  0  0  0  0  0  0  0  0  0  0  0
   -5.0070    1.2136   -5.2774 C   0  0  2  0  0  0  0  0  0  0  0  0
   -6.5183    1.1446   -5.5277 C   0  0  0  0  0  0  0  0  0  0  0  0
   -7.0491    2.4618   -5.6798 O   0  0  0  0  0  0  0  0  0  0  0  0
   -4.3662   -0.1676   -5.1401 C   0  0  2  0  0  0  0  0  0  0  0  0
   -4.9452   -0.8739   -4.0281 O   0  0  0  0  0  0  0  0  0  0  0  0
   -2.8576    0.0014   -4.8827 C   0  0  2  0  0  0  0  0  0  0  0  0
   -2.2425   -1.2750   -4.7208 O   0  0  0  0  0  0  0  0  0  0  0  0
   -2.5829    0.8899   -3.6575 C   0  0  1  0  0  0  0  0  0  0  0  0
   -1.1817    1.1459   -3.5133 O   0  0  0  0  0  0  0  0  0  0  0  0
  1  2  1  0
  2  3  1  0
  3  4  1  0
  4  5  1  0
  5  6  1  0
  6  7  1  0
  7  8  1  0
  8  9  1  0
 10 11  1  0
 10 19  1  0
 10  9  1  1
 11 12  1  0
 12 13  1  1
 12 15  1  0
 13 14  1  0
 15 16  1  1
 15 17  1  0
 17 18  1  1
 17 19  1  0
 19 20  1  6
M  END
>  <DRUGBANK_ID>  (1) 
DB07924

>  <COMMON_NAME>  (1) 
octyl beta-D-galactopyranoside

$$$$
