
     RDKit          3D

 29 34  0  0  1  0  0  0  0  0999 V2000
   -1.0911    1.0731    1.0895 C   0  0  0  0  0  0  0  0  0  0  0  0
   -1.3951    1.2743    2.4814 O   0  0  0  0  0  0  0  0  0  0  0  0
   -0.6990    0.1898    3.4018 C   0  0  1  0  0  0  0  0  0  0  0  0
   -0.1850   -0.5424    2.2374 C   0  0  1  0  0  0  0  0  0  0  0  0
    0.2577    0.5683    1.2350 C   0  0  2  0  0  0  0  0  0  0  0  0
    1.8047   -1.7192    3.9186 C   0  0  1  0  0  0  0  0  0  0  0  0
    0.9984   -1.4422    2.6601 C   0  0  2  0  0  0  0  0  0  0  0  0
    3.5036   -2.3490    3.2036 C   0  0  1  0  0  0  0  0  0  0  0  0
    3.3921   -0.9814    2.4947 C   0  0  2  0  0  0  0  0  0  0  0  0
    2.0822   -0.8726    1.9152 O   0  0  0  0  0  0  0  0  0  0  0  0
    4.4642   -0.6504    1.6243 O   0  0  0  0  0  0  0  0  0  0  0  0
    5.4100   -1.5789    1.9397 C   0  0  0  0  0  0  0  0  0  0  0  0
    4.6595   -2.8255    1.8509 C   0  0  2  0  0  0  0  0  0  0  0  0
   -1.7014    1.2115    0.0415 O   0  0  0  0  0  0  0  0  0  0  0  0
    0.8323   -0.1314    4.3569 C   0  0  0  0  0  0  0  0  0  0  0  0
    1.3652   -3.0720    4.7424 C   0  0  2  0  0  0  0  0  0  0  0  0
    3.1385   -4.0843    3.1063 C   0  0  1  0  0  0  0  0  0  0  0  0
    2.6224   -4.1062    4.5513 C   0  0  0  0  0  0  0  0  0  0  0  0
    6.4994   -1.3962    2.4249 O   0  0  0  0  0  0  0  0  0  0  0  0
   -1.3820   -1.1822    1.6674 O   0  0  0  0  0  0  0  0  0  0  0  0
    0.9794    1.8231    1.7830 C   0  0  0  0  0  0  0  0  0  0  0  0
    0.0262   -2.6234    3.0502 C   0  0  0  0  0  0  0  0  0  0  0  0
    0.0026   -2.8821    4.3714 O   0  0  0  0  0  0  0  0  0  0  0  0
   -0.7110   -3.2517    2.2577 O   0  0  0  0  0  0  0  0  0  0  0  0
    4.5970   -2.8281    0.3629 O   0  0  0  0  0  0  0  0  0  0  0  0
    2.3462   -4.6036    1.7315 C   0  0  0  0  0  0  0  0  0  0  0  0
    3.0549   -5.2251    0.5239 C   0  0  0  0  0  0  0  0  0  0  0  0
    1.0077   -5.3049    1.8915 C   0  0  0  0  0  0  0  0  0  0  0  0
    1.9844   -3.3018    1.1711 C   0  0  0  0  0  0  0  0  0  0  0  0
  1  2  1  0
  1 14  2  0
  3  2  1  0
  3  4  1  0
  3 15  1  1
  4  5  1  0
  4 20  1  6
  5  1  1  0
  5 21  1  1
  6  7  1  0
  6  8  1  0
  6 15  1  1
  6 16  1  0
  7  4  1  0
  7 10  1  6
  7 22  1  0
  8  9  1  0
  8 17  1  6
  9 10  1  6
  9 11  1  0
 11 12  1  0
 12 13  1  0
 12 19  2  0
 13  8  1  0
 13 25  1  6
 16 18  1  1
 17 18  1  0
 17 26  1  6
 22 23  1  0
 22 24  2  0
 23 16  1  0
 26 27  1  0
 26 28  1  0
 26 29  1  0
M  END
>  <DRUGBANK_ID>  (1) 
DB06743

>  <COMMON_NAME>  (1) 
Ginkgolide A

>  <CAS_NUMBER>  (1) 
15291-75-5

>  <UNII>  (1) 
TAZ2DPR77B

>  <SYNONYMS>  (1) 
Ginkgolide-A

$$$$
