
     RDKit          3D

  8  7  0  0  1  0  0  0  0  0999 V2000
    0.9623    0.0197   -0.0652 C   0  0  0  0  0  0  0  0  0  0  0  0
    0.5011   -0.5744   -1.3870 C   0  0  0  0  0  0  0  0  0  0  0  0
    0.9739   -2.0219   -1.5451 C   0  0  0  0  0  0  0  0  0  0  0  0
    0.4254   -2.9560   -0.4555 C   0  0  0  0  0  0  0  0  0  0  0  0
   -1.6677   -3.5425   -1.7078 C   0  0  0  0  0  0  0  0  0  0  0  0
   -1.1064   -2.9739   -0.4057 C   0  0  1  0  0  0  0  0  0  0  0  0
   -1.5638   -3.7777    0.7386 N   0  0  0  0  0  0  0  0  0  0  0  0
   -2.3747   -4.5497   -1.7761 O   0  0  0  0  0  0  0  0  0  0  0  0
  2  1  1  0
  3  2  1  0
  4  3  1  0
  6  4  1  0
  6  5  1  0
  6  7  1  1
  8  5  2  0
M  END
>  <DRUGBANK_ID>  (1) 
DB03241

>  <SECONDARY_ACCESSION_NUMBERS>  (1) 
EXPT02081

>  <COMMON_NAME>  (1) 
1-Amino-1-Carbonyl Pentane

$$$$
