
     RDKit          3D

  8  8  0  0  0  0  0  0  0  0999 V2000
    0.3382    2.1658   -0.0017 O   0  0  0  0  0  0  0  0  0  0  0  0
    0.9952    0.9666    0.0012 C   0  0  0  0  0  0  0  0  0  0  0  0
    2.3904    0.9351    0.0158 C   0  0  0  0  0  0  0  0  0  0  0  0
    3.0568   -0.2927    0.0139 C   0  0  0  0  0  0  0  0  0  0  0  0
    2.3315   -1.4849   -0.0060 C   0  0  0  0  0  0  0  0  0  0  0  0
    0.9364   -1.4522   -0.0169 C   0  0  0  0  0  0  0  0  0  0  0  0
    0.2672   -0.2266   -0.0106 C   0  0  0  0  0  0  0  0  0  0  0  0
   -1.6290   -0.2312   -0.0133 Br  0  0  0  0  0  0  0  0  0  0  0  0
  1  2  1  0
  2  3  2  0
  2  7  1  0
  3  4  1  0
  4  5  2  0
  5  6  1  0
  6  7  2  0
  7  8  1  0
M  END
>  <DRUGBANK_ID>  (1) 
DB04586

>  <COMMON_NAME>  (1) 
o-Bromophenol

>  <CAS_NUMBER>  (1) 
95-56-7

>  <UNII>  (1) 
A0UB206YF0

>  <SYNONYMS>  (1) 
2-Bromfenol; 2-Bromophenol; o-Bromophenol

$$$$
