
     RDKit          3D

  9  9  0  0  0  0  0  0  0  0999 V2000
    0.9065   -0.0708    0.0003 O   0  0  0  0  0  0  0  0  0  0  0  0
    0.4553    1.0346   -0.7701 C   0  0  0  0  0  0  0  0  0  0  0  0
    0.9012    2.3648   -0.2123 C   0  0  0  0  0  0  0  0  0  0  0  0
    1.8611    2.4840    0.8025 C   0  0  0  0  0  0  0  0  0  0  0  0
    2.2084    3.7368    1.3152 C   0  0  0  0  0  0  0  0  0  0  0  0
    1.6093    4.8895    0.8113 C   0  0  0  0  0  0  0  0  0  0  0  0
    0.6778    4.7874   -0.2177 C   0  0  0  0  0  0  0  0  0  0  0  0
   -0.2042    6.5063   -0.9856 I   0  0  0  0  0  0  0  0  0  0  0  0
    0.3253    3.5370   -0.7325 C   0  0  0  0  0  0  0  0  0  0  0  0
  1  2  1  0
  2  3  1  0
  3  4  2  0
  3  9  1  0
  4  5  1  0
  5  6  2  0
  6  7  1  0
  7  8  1  0
  7  9  2  0
M  END
>  <DRUGBANK_ID>  (1) 
DB03339

>  <SECONDARY_ACCESSION_NUMBERS>  (1) 
EXPT01901

>  <COMMON_NAME>  (1) 
3-Iodo-Benzyl Alcohol

>  <UNII>  (1) 
ASC64V76VR

$$$$
