201
     RDKit          3D

 24 26  0  0  0  0  0  0  0  0999 V2000
    1.4150   -0.1673    0.0090 C   0  0  0  0  0  0  0  0  0  0  0  0
    0.5472   -1.2693   -0.0177 C   0  0  0  0  0  0  0  0  0  0  0  0
   -0.8399   -1.0986   -0.0575 C   0  0  0  0  0  0  0  0  0  0  0  0
   -1.3653    0.1974   -0.0501 C   0  0  0  0  0  0  0  0  0  0  0  0
   -0.5259    1.3051    0.0359 C   0  0  0  0  0  0  0  0  0  0  0  0
    0.8684    1.1233   -0.0124 C   0  0  0  0  0  0  0  0  0  0  0  0
   -1.7538   -2.2334    0.0205 C   0  0  0  0  0  0  0  0  0  0  0  0
   -1.7178   -3.0890    1.1314 C   0  0  0  0  0  0  0  0  0  0  0  0
   -2.6441   -4.1209    1.2641 C   0  0  0  0  0  0  0  0  0  0  0  0
   -3.6289   -4.3135    0.2898 C   0  0  0  0  0  0  0  0  0  0  0  0
   -3.6997   -3.4171   -0.7879 C   0  0  0  0  0  0  0  0  0  0  0  0
   -2.7443   -2.4198   -0.9492 C   0  0  0  0  0  0  0  0  0  0  0  0
   -4.5585   -5.4400    0.3540 C   0  0  0  0  0  0  0  0  0  0  0  0
   -5.4134   -5.6142    1.4482 C   0  0  0  0  0  0  0  0  0  0  0  0
   -6.3543   -6.6436    1.4520 C   0  0  0  0  0  0  0  0  0  0  0  0
   -6.4577   -7.5008    0.3573 C   0  0  0  0  0  0  0  0  0  0  0  0
   -5.6149   -7.3390   -0.7386 C   0  0  0  0  0  0  0  0  0  0  0  0
   -4.6411   -6.3436   -0.7192 C   0  0  0  0  0  0  0  0  0  0  0  0
    2.8689   -0.4727    0.1565 C   0  0  0  0  0  0  0  0  0  0  0  0
   -1.0662    2.6669    0.3133 C   0  0  0  0  0  0  0  0  0  0  0  0
   -0.3104    3.6230    0.4463 O   0  0  0  0  0  0  0  0  0  0  0  0
   -2.4167    2.8168    0.4837 N   0  0  0  0  0  0  0  0  0  0  0  0
    3.7130    0.5714    0.2176 O   0  0  0  0  0  0  0  0  0  0  0  0
    3.2744   -1.6267    0.2514 O   0  0  0  0  0  0  0  0  0  0  0  0
  1  2  2  0
  1  6  1  0
  1 19  1  0
  2  3  1  0
  3  4  2  0
  3  7  1  0
  4  5  1  0
  5  6  2  0
  5 20  1  0
  7  8  2  0
  7 12  1  0
  8  9  1  0
  9 10  2  0
 10 11  1  0
 10 13  1  0
 11 12  2  0
 13 14  2  0
 13 18  1  0
 14 15  1  0
 15 16  2  0
 16 17  1  0
 17 18  2  0
 19 23  1  0
 19 24  2  0
 20 21  2  0
 20 22  1  0
M  END
>  <DRUGBANK_ID>  (1) 
DB04583

>  <COMMON_NAME>  (1) 
5-Carbamoyl-1,1':4',1''-terphenyl-3-carboxylic acid

$$$$
