11X
     RDKit          3D

 14 15  0  0  0  0  0  0  0  0999 V2000
   -1.3535   -0.0646    0.0125 N   0  0  0  0  0  0  0  0  0  0  0  0
    1.0464   -5.4973    0.0891 C   0  0  0  0  0  0  0  0  0  0  0  0
    0.3224   -6.6698   -0.1390 C   0  0  0  0  0  0  0  0  0  0  0  0
    0.6467   -4.5680    1.0604 C   0  0  0  0  0  0  0  0  0  0  0  0
   -0.4800   -4.8770    1.8321 C   0  0  0  0  0  0  0  0  0  0  0  0
   -0.8298   -6.9306    0.5938 C   0  0  0  0  0  0  0  0  0  0  0  0
   -1.2281   -6.0353    1.5860 C   0  0  0  0  0  0  0  0  0  0  0  0
   -0.6082   -1.1974    0.0360 C   0  0  0  0  0  0  0  0  0  0  0  0
    1.4373    0.0157    0.0349 C   0  0  0  0  0  0  0  0  0  0  0  0
    0.6973    1.1977    0.0139 C   0  0  0  0  0  0  0  0  0  0  0  0
   -0.6836    1.1067    0.0051 C   0  0  0  0  0  0  0  0  0  0  0  0
    1.5429   -2.5259    0.0226 C   0  0  0  0  0  0  0  0  0  0  0  0
    0.7832   -1.2227    0.0587 C   0  0  0  0  0  0  0  0  0  0  0  0
    1.3072   -3.3498    1.2083 N   0  0  0  0  0  0  0  0  0  0  0  0
  1  8  2  0
  1 11  1  0
  2  3  2  0
  2  4  1  0
  3  6  1  0
  4  5  2  0
  4 14  1  0
  5  7  1  0
  6  7  2  0
  8 13  1  0
  9 10  1  0
  9 13  2  0
 10 11  2  0
 12 13  1  0
 12 14  1  0
M  END
>  <DRUGBANK_ID>  (1) 
DB06851

>  <COMMON_NAME>  (1) 
N-(pyridin-3-ylmethyl)aniline

>  <UNII>  (1) 
24B88BKX5U

$$$$
