
     RDKit          3D

 12 12  0  0  0  0  0  0  0  0999 V2000
    0.9339   -0.0281   -0.0696 O   0  0  0  0  0  0  0  0  0  0  0  0
    0.4339    1.0882    0.7987 B   0  0  0  0  0  0  0  0  0  0  0  0
    1.4087    1.9881    1.4988 O   0  0  0  0  0  0  0  0  0  0  0  0
   -1.1391    1.3189    0.9783 C   0  0  0  0  0  0  0  0  0  0  0  0
   -1.9291    0.2756    1.2032 C   0  0  0  0  0  0  0  0  0  0  0  0
   -3.2552    0.4564    1.5140 C   0  0  0  0  0  0  0  0  0  0  0  0
   -3.8146    1.7041    1.5099 C   0  0  0  0  0  0  0  0  0  0  0  0
   -2.9844    2.7195    1.3557 C   0  0  0  0  0  0  0  0  0  0  0  0
   -1.6512    2.6033    0.8962 C   0  0  0  0  0  0  0  0  0  0  0  0
   -5.3114    1.9112    1.6739 C   0  0  0  0  0  0  0  0  0  0  0  0
   -5.8518    3.2243    1.6638 O   0  0  0  0  0  0  0  0  0  0  0  0
   -6.0793    0.9091    1.8200 O   0  0  0  0  0  0  0  0  0  0  0  0
  1  2  1  0
  2  3  1  0
  2  4  1  0
  4  5  2  0
  4  9  1  0
  5  6  1  0
  6  7  2  0
  7  8  1  0
  7 10  1  0
  8  9  2  0
 10 11  1  0
 10 12  2  0
M  END
>  <DRUGBANK_ID>  (1) 
DB03140

>  <SECONDARY_ACCESSION_NUMBERS>  (1) 
EXPT00208

>  <COMMON_NAME>  (1) 
4-Carboxyphenylboronic Acid

>  <UNII>  (1) 
XQQ1T11DYK

$$$$
