
     RDKit          3D

 19 21  0  0  1  0  0  0  0  0999 V2000
    1.2611    0.0269    0.0882 C   0  0  0  0  0  0  0  0  0  0  0  0
    0.6030    0.5274    1.2866 N   0  0  0  0  0  0  0  0  0  0  0  0
   -0.8728    0.4973    1.2483 C   0  0  2  0  0  0  0  0  0  0  0  0
   -1.4402   -0.8923    1.5838 C   0  0  0  0  0  0  0  0  0  0  0  0
   -1.6247   -1.5547    0.2277 C   0  0  0  0  0  0  0  0  0  0  0  0
   -1.9498   -0.4490   -0.6554 N   0  0  0  0  0  0  0  0  0  0  0  0
   -1.5592    0.8481   -0.1103 C   0  0  0  0  0  0  0  0  0  0  0  0
   -2.8411   -0.5530   -1.6940 C   0  0  0  0  0  0  0  0  0  0  0  0
   -4.0534   -1.1744   -1.4953 C   0  0  0  0  0  0  0  0  0  0  0  0
   -4.9086   -1.3338   -2.5619 C   0  0  0  0  0  0  0  0  0  0  0  0
   -6.1286   -1.9570   -2.4426 N   0  0  0  0  0  0  0  0  0  0  0  0
   -6.7374   -2.3854   -1.2049 C   0  0  0  0  0  0  0  0  0  0  0  0
   -7.9834   -1.6229   -0.8677 C   0  0  0  0  0  0  0  0  0  0  0  0
   -9.2151   -1.8213   -1.7126 C   0  0  0  0  0  0  0  0  0  0  0  0
   -8.5354   -0.4792   -1.6861 C   0  0  0  0  0  0  0  0  0  0  0  0
   -4.5610   -0.9075   -3.7798 N   0  0  0  0  0  0  0  0  0  0  0  0
   -3.3680   -0.3049   -3.9015 C   0  0  0  0  0  0  0  0  0  0  0  0
   -2.9950    0.1052   -5.1472 N   0  0  0  0  0  0  0  0  0  0  0  0
   -2.5054   -0.0855   -2.8986 N   0  0  0  0  0  0  0  0  0  0  0  0
  1  2  1  0
  3  2  1  6
  3  4  1  0
  3  7  1  0
  4  5  1  0
  5  6  1  0
  6  7  1  0
  6  8  1  0
  8  9  2  0
  8 19  1  0
  9 10  1  0
 10 11  1  0
 10 16  2  0
 11 12  1  0
 12 13  1  0
 13 14  1  0
 13 15  1  0
 14 15  1  0
 16 17  1  0
 17 18  1  0
 17 19  2  0
M  END
>  <DRUGBANK_ID>  (1) 
DB15027

>  <COMMON_NAME>  (1) 
Adriforant

>  <CAS_NUMBER>  (1) 
943057-12-3

>  <UNII>  (1) 
D65H9YE9VU

>  <SYNONYMS>  (1) 
Adriforant; PF-03893787

$$$$
