RE2
     RDKit          3D

 17 18  0  0  0  0  0  0  0  0999 V2000
   -1.0918   -0.3682    0.2973 C   0  0  0  0  0  0  0  0  0  0  0  0
    0.0946   -1.0343    0.0626 C   0  0  0  0  0  0  0  0  0  0  0  0
    1.2709   -0.2988    0.0016 C   0  0  0  0  0  0  0  0  0  0  0  0
   -0.8101    3.7829   -1.2541 C   0  0  0  0  0  0  0  0  0  0  0  0
   -0.0828    3.2825    0.0377 C   0  0  0  0  0  0  0  0  0  0  0  0
    1.2533    1.1008    0.0270 C   0  0  0  0  0  0  0  0  0  0  0  0
    0.0407    1.7764    0.2138 C   0  0  0  0  0  0  0  0  0  0  0  0
   -1.0998    1.0102    0.5021 C   0  0  0  0  0  0  0  0  0  0  0  0
    2.4376   -0.9953   -0.1141 O   0  0  0  0  0  0  0  0  0  0  0  0
   -2.2539   -1.0822    0.2438 O   0  0  0  0  0  0  0  0  0  0  0  0
   -2.2626    3.3675   -1.4161 C   0  0  0  0  0  0  0  0  0  0  0  0
   -3.3291    4.2487   -1.2200 C   0  0  0  0  0  0  0  0  0  0  0  0
   -4.6521    3.7745   -1.1880 C   0  0  0  0  0  0  0  0  0  0  0  0
   -4.8894    2.4036   -1.2838 C   0  0  0  0  0  0  0  0  0  0  0  0
   -6.1336    1.8641   -1.1489 O   0  0  0  0  0  0  0  0  0  0  0  0
   -3.8544    1.5342   -1.5402 C   0  0  0  0  0  0  0  0  0  0  0  0
   -2.5644    2.0305   -1.7159 C   0  0  0  0  0  0  0  0  0  0  0  0
  1  8  2  0
  2  1  1  0
  2  3  2  0
  3  6  1  0
  4 11  1  0
  5  4  1  0
  6  7  2  0
  7  5  1  0
  8  7  1  0
  9  3  1  0
 10  1  1  0
 11 12  2  0
 12 13  1  0
 14 13  2  0
 14 15  1  0
 16 14  1  0
 17 11  1  0
 17 16  2  0
M  END
>  <DRUGBANK_ID>  (1) 
DB08466

>  <COMMON_NAME>  (1) 
5-[2-(4-hydroxyphenyl)ethyl]benzene-1,3-diol

>  <UNII>  (1) 
CBY43AY0TT

$$$$
