
     RDKit          3D

 36 39  0  0  0  0  0  0  0  0999 V2000
    0.9505    0.0631   -0.0101 C   0  0  0  0  0  0  0  0  0  0  0  0
    0.2596    1.2740   -0.0245 C   0  0  0  0  0  0  0  0  0  0  0  0
   -1.1290    1.2864   -0.0062 C   0  0  0  0  0  0  0  0  0  0  0  0
   -1.8142    0.0786    0.0805 C   0  0  0  0  0  0  0  0  0  0  0  0
   -1.0884   -1.1229    0.1566 C   0  0  0  0  0  0  0  0  0  0  0  0
    0.2866   -1.1440    0.0575 C   0  0  0  0  0  0  0  0  0  0  0  0
    2.2868    0.0623   -0.0300 F   0  0  0  0  0  0  0  0  0  0  0  0
   -3.3223    0.0857    0.1348 C   0  0  0  0  0  0  0  0  0  0  0  0
   -3.8094   -0.2300    1.5636 C   0  0  0  0  0  0  0  0  0  0  0  0
   -3.2824    0.1500    2.7890 C   0  0  0  0  0  0  0  0  0  0  0  0
   -3.7614   -0.3554    4.0463 C   0  0  0  0  0  0  0  0  0  0  0  0
   -4.7704   -1.2966    4.0745 C   0  0  0  0  0  0  0  0  0  0  0  0
   -5.4013   -1.5157    2.9386 C   0  0  0  0  0  0  0  0  0  0  0  0
   -4.9855   -0.9175    1.7035 C   0  0  0  0  0  0  0  0  0  0  0  0
   -5.2157   -1.8865    5.2026 F   0  0  0  0  0  0  0  0  0  0  0  0
   -3.8313   -0.6962   -1.1644 C   0  0  0  0  0  0  0  0  0  0  0  0
   -3.4540   -2.1838   -1.4037 C   0  0  0  0  0  0  0  0  0  0  0  0
   -3.8032   -3.1397   -0.2661 C   0  0  0  0  0  0  0  0  0  0  0  0
   -5.5175   -4.6490    1.8383 C   0  0  0  0  0  0  0  0  0  0  0  0
   -5.8183   -3.4453    1.0159 C   0  0  0  0  0  0  0  0  0  0  0  0
   -5.7073   -4.4209   -1.0940 C   0  0  0  0  0  0  0  0  0  0  0  0
   -5.5725   -5.7298   -0.3186 C   0  0  0  0  0  0  0  0  0  0  0  0
   -5.2337   -3.3143   -0.2907 N   0  0  0  0  0  0  0  0  0  0  0  0
   -6.1809   -5.7229    1.0488 N   0  0  0  0  0  0  0  0  0  0  0  0
   -7.7276   -5.6099    1.0640 C   0  0  0  0  0  0  0  0  0  0  0  0
   -8.5791   -4.3034    0.6001 C   0  0  0  0  0  0  0  0  0  0  0  0
   -8.9041   -3.4414    1.4234 O   0  0  0  0  0  0  0  0  0  0  0  0
   -8.8720   -4.1578   -0.7593 N   0  0  0  0  0  0  0  0  0  0  0  0
   -9.4331   -2.9211   -1.2583 C   0  0  0  0  0  0  0  0  0  0  0  0
   -8.6702   -1.7518   -1.4932 C   0  0  0  0  0  0  0  0  0  0  0  0
  -10.7985   -2.8400   -1.5289 C   0  0  0  0  0  0  0  0  0  0  0  0
  -11.3578   -1.6053   -1.9336 C   0  0  0  0  0  0  0  0  0  0  0  0
  -10.5880   -0.4592   -2.1050 C   0  0  0  0  0  0  0  0  0  0  0  0
   -9.2402   -0.5374   -1.8929 C   0  0  0  0  0  0  0  0  0  0  0  0
   -7.2132   -1.6461   -1.3387 C   0  0  0  0  0  0  0  0  0  0  0  0
  -11.6982   -4.0137   -1.3066 C   0  0  0  0  0  0  0  0  0  0  0  0
  1  2  2  0
  1  6  1  0
  1  7  1  0
  2  3  1  0
  3  4  2  0
  4  5  1  0
  4  8  1  0
  5  6  2  0
  8 16  1  0
  8  9  1  0
  9 14  1  0
  9 10  2  0
 10 11  1  0
 11 12  2  0
 12 13  1  0
 12 15  1  0
 13 14  2  0
 16 17  1  0
 17 18  1  0
 18 23  1  0
 19 20  1  0
 19 24  1  0
 20 23  1  0
 21 23  1  0
 21 22  1  0
 22 24  1  0
 24 25  1  0
 25 26  1  0
 26 28  1  0
 26 27  2  0
 28 29  1  0
 29 30  2  0
 29 31  1  0
 30 34  1  0
 30 35  1  0
 31 32  2  0
 31 36  1  0
 32 33  1  0
 33 34  2  0
M  END
>  <DRUGBANK_ID>  (1) 
DB13766

>  <COMMON_NAME>  (1) 
Lidoflazine

>  <CAS_NUMBER>  (1) 
3416-26-0

>  <UNII>  (1) 
J4ZHN3HBTE

>  <SYNONYMS>  (1) 
Lidoflazina; Lidoflazine; Lidoflazinum

$$$$
