
     RDKit          3D

 26 27  0  0  0  0  0  0  0  0999 V2000
   -3.5868   -3.5367   -2.6595 S   0  0  0  0  0  0  0  0  0  0  0  0
    0.8733   -5.7423    1.5801 S   0  0  0  0  0  0  0  0  0  0  0  0
   -2.0587   -6.5344    0.7988 O   0  0  0  0  0  0  0  0  0  0  0  0
   -4.1948   -5.8346    0.9850 O   0  0  0  0  0  0  0  0  0  0  0  0
   -4.0902    1.1479   -2.0950 O   0  0  0  0  0  0  0  0  0  0  0  0
   -0.4822   -0.8256    1.6826 O   0  0  0  0  0  0  0  0  0  0  0  0
   -1.2395   -1.4603   -2.5296 O   0  0  0  0  0  0  0  0  0  0  0  0
   -3.3280   -3.2813    0.0134 N   0  0  0  0  0  0  0  0  0  0  0  0
   -2.1115   -0.2955    0.2426 N   0  0  0  0  0  0  0  0  0  0  0  0
   -0.9317   -2.5861   -1.4939 N   0  0  0  0  0  0  0  0  0  0  0  0
   -0.6258   -3.7640    2.1956 N   0  0  0  0  0  0  0  0  0  0  0  0
   -0.1941   -5.3391    3.9733 N   0  0  0  0  0  0  0  0  0  0  0  0
   -3.2562   -5.0732   -1.8828 C   0  0  0  0  0  0  0  0  0  0  0  0
   -2.7613   -4.6091   -0.5234 C   0  0  2  0  0  0  0  0  0  0  0  0
   -3.5450   -2.2837   -1.0567 C   0  0  1  0  0  0  0  0  0  0  0  0
   -2.9061   -0.6137   -0.9246 C   0  0  1  0  0  0  0  0  0  0  0  0
   -4.6903   -5.5520   -1.9365 C   0  0  0  0  0  0  0  0  0  0  0  0
   -2.2123   -5.7684   -2.8162 C   0  0  0  0  0  0  0  0  0  0  0  0
   -3.0473   -5.6899    0.4963 C   0  0  0  0  0  0  0  0  0  0  0  0
   -4.0147    0.4029   -1.1168 C   0  0  0  0  0  0  0  0  0  0  0  0
   -1.0919   -1.1072    0.6585 C   0  0  0  0  0  0  0  0  0  0  0  0
   -0.7599   -2.3792   -0.1450 C   0  0  0  0  0  0  0  0  0  0  0  0
   -0.2619   -3.5514    0.8061 C   0  0  0  0  0  0  0  0  0  0  0  0
    0.4861   -4.6174    0.3443 C   0  0  0  0  0  0  0  0  0  0  0  0
   -0.0752   -4.8552    2.7157 C   0  0  0  0  0  0  0  0  0  0  0  0
   -2.4926   -1.3653   -3.5009 C   0  0  0  0  0  0  0  0  0  0  0  0
  1 13  1  0
  1 15  1  0
  2 24  1  0
  2 25  1  0
  3 19  1  0
  4 19  2  0
  5 20  2  0
  6 21  2  0
  7 10  1  0
  7 26  1  0
  8 14  1  0
 15  8  1  1
  9 21  1  0
 10 22  2  0
 11 23  1  0
 11 25  2  0
 12 25  1  0
 13 14  1  0
 13 17  1  0
 13 18  1  0
 14 19  1  1
 16 20  1  1
 16 15  1  0
 16  9  1  0
 21 22  1  0
 22 23  1  0
 23 24  2  0
M  END
>  <DRUGBANK_ID>  (1) 
DB03437

>  <SECONDARY_ACCESSION_NUMBERS>  (1) 
EXPT02521

>  <COMMON_NAME>  (1) 
(2R,4S)-2-[(1R)-1-{[(2Z)-2-(2-Amino-1,3-thiazol-4-yl)-2-(methoxyimino)acetyl]amino}-2-oxoethyl]-5,5-dimethyl-1,3-thiazolidine-4-carboxylic acid

$$$$
