
     RDKit          3D

  7  6  0  0  0  0  0  0  0  0999 V2000
    0.6932    0.5139    0.0509 C   0  0  0  0  0  0  0  0  0  0  0  0
    0.3647    0.5563   -1.4269 C   0  0  0  0  0  0  0  0  0  0  0  0
    0.9425   -0.6018   -2.2556 C   0  0  0  0  0  0  0  0  0  0  0  0
    0.4602   -1.9050   -1.8422 O   0  0  0  0  0  0  0  0  0  0  0  0
    0.8696   -2.6457   -0.7784 C   0  0  0  0  0  0  0  0  0  0  0  0
    1.9349   -2.0878    0.1257 C   0  0  0  0  0  0  0  0  0  0  0  0
    0.3380   -3.7131   -0.5231 O   0  0  0  0  0  0  0  0  0  0  0  0
  1  2  1  0
  2  3  1  0
  3  4  1  0
  4  5  1  0
  5  6  1  0
  5  7  2  0
M  END
>  <DRUGBANK_ID>  (1) 
DB01670

>  <SECONDARY_ACCESSION_NUMBERS>  (1) 
EXPT00225

>  <COMMON_NAME>  (1) 
Propyl acetate

>  <CAS_NUMBER>  (1) 
109-60-4

>  <UNII>  (1) 
4AWM8C91G6

$$$$
