
     RDKit          3D

 30 35  0  0  1  0  0  0  0  0999 V2000
   -2.2449    1.6952   -1.3897 C   0  0  1  0  0  0  0  0  0  0  0  0
   -2.1253    3.6429   -1.9548 C   0  0  1  0  0  0  0  0  0  0  0  0
   -2.5066    2.5738   -2.4422 O   0  0  0  0  0  0  0  0  0  0  0  0
   -5.6088    5.5571   -3.2238 C   0  0  0  0  0  0  0  0  0  0  0  0
   -5.0625    6.8306   -3.8656 C   0  0  0  0  0  0  0  0  0  0  0  0
   -3.5603    7.1374   -3.8617 C   0  0  0  0  0  0  0  0  0  0  0  0
   -4.5997    4.4083   -3.1678 C   0  0  0  0  0  0  0  0  0  0  0  0
   -3.1435    4.8422   -2.7492 C   0  0  2  0  0  0  0  0  0  0  0  0
   -2.5845    6.2415   -3.4743 C   0  0  0  0  0  0  0  0  0  0  0  0
   -1.0202    6.6968   -2.8548 C   0  0  0  0  0  0  0  0  0  0  0  0
   -0.1045    5.3812   -3.0303 C   0  0  2  0  0  0  0  0  0  0  0  0
   -0.6825    4.0912   -2.1995 C   0  0  2  0  0  0  0  0  0  0  0  0
   -0.8496    0.3687   -1.4572 C   0  0  0  0  0  0  0  0  0  0  0  0
   -0.7068    1.6848   -1.8328 C   0  0  1  0  0  0  0  0  0  0  0  0
    0.0240    2.7148   -2.4916 C   0  0  1  0  0  0  0  0  0  0  0  0
    0.1138    2.2697   -3.9563 C   0  0  0  0  0  0  0  0  0  0  0  0
   -1.1317    1.4578   -4.5024 C   0  0  0  0  0  0  0  0  0  0  0  0
   -1.8579    0.8842   -3.2866 C   0  0  1  0  0  0  0  0  0  0  0  0
   -2.0184   -0.5878   -3.3074 O   0  0  0  0  0  0  0  0  0  0  0  0
   -3.0467   -0.9978   -2.4643 C   0  0  0  0  0  0  0  0  0  0  0  0
   -4.1173    0.0212   -2.2802 C   0  0  0  0  0  0  0  0  0  0  0  0
   -3.6665    1.0918   -3.2136 C   0  0  0  0  0  0  0  0  0  0  0  0
   -2.9869   -2.0105   -1.7813 O   0  0  0  0  0  0  0  0  0  0  0  0
    1.4144    5.0261   -2.8206 C   0  0  0  0  0  0  0  0  0  0  0  0
    1.7585    4.0976   -2.0947 O   0  0  0  0  0  0  0  0  0  0  0  0
    2.3950    5.4385   -3.6387 O   0  0  0  0  0  0  0  0  0  0  0  0
    3.4680    4.4324   -3.5165 C   0  0  0  0  0  0  0  0  0  0  0  0
   -5.8429    7.6588   -4.3472 O   0  0  0  0  0  0  0  0  0  0  0  0
   -3.1372    5.6398   -1.4532 C   0  0  0  0  0  0  0  0  0  0  0  0
   -0.8879    2.3648   -0.0087 C   0  0  0  0  0  0  0  0  0  0  0  0
  1  2  1  0
  1  3  1  0
  2  3  1  6
  2  8  1  0
  2 12  1  0
  4  5  1  0
  5  6  1  0
  5 28  2  0
  6  9  2  0
  7  4  1  0
  8  7  1  0
  8  9  1  0
  8 29  1  1
  9 10  1  0
 10 11  1  0
 12 11  1  6
 11 24  1  1
 12 15  1  0
  1 13  1  6
 14 15  1  0
 14 13  1  0
 14 30  1  1
 15 16  1  6
 16 17  1  0
 18 17  1  6
 18 14  1  0
 18 19  1  0
 18 22  1  0
 19 20  1  0
 20 21  1  0
 20 23  2  0
 21 22  1  0
 24 25  2  0
 24 26  1  0
 26 27  1  0
M  END
>  <DRUGBANK_ID>  (1) 
DB00700

>  <SECONDARY_ACCESSION_NUMBERS>  (1) 
APRD00707

>  <COMMON_NAME>  (1) 
Eplerenone

>  <CAS_NUMBER>  (1) 
107724-20-9

>  <UNII>  (1) 
6995V82D0B

>  <SYNONYMS>  (1) 
Eplerenona; Eplerenone; Epoxymexrenone

$$$$
