540
     RDKit          3D

 20 22  0  0  0  0  0  0  0  0999 V2000
    0.9249   -0.0205    0.0513 N   0  0  0  0  0  0  0  0  0  0  0  0
   -3.0309    4.0734   -2.2438 C   0  0  0  0  0  0  0  0  0  0  0  0
   -3.1640    3.9368   -3.7586 C   0  0  0  0  0  0  0  0  0  0  0  0
   -1.8989    5.0019   -1.8977 C   0  0  0  0  0  0  0  0  0  0  0  0
   -2.0874    3.1704   -4.5098 C   0  0  0  0  0  0  0  0  0  0  0  0
   -0.3068    3.2691   -2.6749 C   0  0  0  0  0  0  0  0  0  0  0  0
   -0.5840    4.5856   -2.1000 C   0  0  0  0  0  0  0  0  0  0  0  0
   -0.8041    2.8399   -4.0198 C   0  0  0  0  0  0  0  0  0  0  0  0
    0.4369    2.4254   -1.9510 C   0  0  0  0  0  0  0  0  0  0  0  0
   -2.1255    6.2987   -1.4358 C   0  0  0  0  0  0  0  0  0  0  0  0
   -2.4258    2.8001   -5.8290 C   0  0  0  0  0  0  0  0  0  0  0  0
    0.4957    5.4340   -1.8232 C   0  0  0  0  0  0  0  0  0  0  0  0
    0.0655    2.1065   -4.8573 C   0  0  0  0  0  0  0  0  0  0  0  0
    0.9391    2.4834   -0.5283 C   0  0  0  0  0  0  0  0  0  0  0  0
   -1.0470    7.1424   -1.1522 C   0  0  0  0  0  0  0  0  0  0  0  0
   -1.5441    2.0846   -6.6357 C   0  0  0  0  0  0  0  0  0  0  0  0
    0.4303    1.3297    0.3647 C   0  0  0  0  0  0  0  0  0  0  0  0
    0.2640    6.7087   -1.3344 C   0  0  0  0  0  0  0  0  0  0  0  0
   -0.3022    1.7219   -6.1433 C   0  0  0  0  0  0  0  0  0  0  0  0
    0.4543   -0.5389   -1.2245 C   0  0  0  0  0  0  0  0  0  0  0  0
  1 17  1  0
  1 20  1  0
  2  3  1  0
  2  4  1  0
  3  5  1  0
  4  7  2  0
  4 10  1  0
  5  8  2  0
  5 11  1  0
  6  7  1  0
  6  8  1  0
  6  9  2  3
  7 12  1  0
  8 13  1  0
  9 14  1  0
 10 15  2  0
 11 16  2  0
 12 18  2  0
 13 19  2  0
 14 17  1  0
 15 18  1  0
 16 19  1  0
M  END
>  <DRUGBANK_ID>  (1) 
DB00540

>  <SECONDARY_ACCESSION_NUMBERS>  (1) 
APRD00602

>  <COMMON_NAME>  (1) 
Nortriptyline

>  <CAS_NUMBER>  (1) 
72-69-5

>  <UNII>  (1) 
BL03SY4LXB

>  <SYNONYMS>  (1) 
10,11-dihydro-N-methyl-5H-dibenzo[a,d]cycloheptene-Δ5,γ-propylamine; 3-(10,11-dihydro-5H-dibenzo[a,d]cyclohepten-5-ylidene)-N-methyl-1-propanamine; Demethylamitriptyline; Desmethylamitriptyline; Nortriptylina; Nortriptyline; Nortriptylinum

$$$$
