887
     RDKit          3D

 31 35  0  0  0  0  0  0  0  0999 V2000
    2.4395   -0.8801    0.2039 C   0  0  0  0  0  0  0  0  0  0  0  0
    1.2391   -1.5911    0.0803 C   0  0  0  0  0  0  0  0  0  0  0  0
   -0.0363   -0.9077    0.1495 C   0  0  0  0  0  0  0  0  0  0  0  0
   -0.0643    0.4771    0.4051 C   0  0  0  0  0  0  0  0  0  0  0  0
    1.0779    0.9833    0.9629 C   0  0  0  0  0  0  0  0  0  0  0  0
    2.2998    0.4209    0.6330 C   0  0  0  0  0  0  0  0  0  0  0  0
   -1.2954   -1.5069   -0.0087 C   0  0  0  0  0  0  0  0  0  0  0  0
   -2.4698   -0.7319   -0.0341 C   0  0  0  0  0  0  0  0  0  0  0  0
   -2.4110    0.6688   -0.0218 C   0  0  0  0  0  0  0  0  0  0  0  0
   -1.1812    1.3117    0.1403 C   0  0  0  0  0  0  0  0  0  0  0  0
    3.6674   -1.4662   -0.0702 O   0  0  0  0  0  0  0  0  0  0  0  0
    4.8625   -0.7267   -0.0385 C   0  0  0  0  0  0  0  0  0  0  0  0
    5.3028    0.0948    1.0435 C   0  0  0  0  0  0  0  0  0  0  0  0
    6.4892    0.8221    0.8902 C   0  0  0  0  0  0  0  0  0  0  0  0
    7.2754    0.6892   -0.1947 N   0  0  0  0  0  0  0  0  0  0  0  0
    6.8841   -0.1586   -1.1727 C   0  0  0  0  0  0  0  0  0  0  0  0
    5.6961   -0.8715   -1.1493 C   0  0  0  0  0  0  0  0  0  0  0  0
    4.6000    0.2776    2.2538 C   0  0  0  0  0  0  0  0  0  0  0  0
    4.8738    1.2698    3.2130 C   0  0  0  0  0  0  0  0  0  0  0  0
    6.0664    1.9806    3.0656 C   0  0  0  0  0  0  0  0  0  0  0  0
    6.8474    1.7116    1.9066 C   0  0  0  0  0  0  0  0  0  0  0  0
    3.7942    1.2819    4.0541 O   0  0  0  0  0  0  0  0  0  0  0  0
    6.7189    2.9299    3.8107 O   0  0  0  0  0  0  0  0  0  0  0  0
    6.2496    3.3066    5.0788 C   0  0  0  0  0  0  0  0  0  0  0  0
    3.7282    2.1246    5.1656 C   0  0  0  0  0  0  0  0  0  0  0  0
   -1.1673    2.8414   -0.0309 C   0  0  0  0  0  0  0  0  0  0  0  0
   -0.0231    3.6026   -0.3401 N   0  0  0  0  0  0  0  0  0  0  0  0
    1.3429    3.2133   -0.5188 C   0  0  0  0  0  0  0  0  0  0  0  0
   -2.2210    3.4518    0.0545 O   0  0  0  0  0  0  0  0  0  0  0  0
    2.2479    3.4403   -1.6803 C   0  0  0  0  0  0  0  0  0  0  0  0
    1.6394    2.1048   -1.5448 C   0  0  0  0  0  0  0  0  0  0  0  0
  1  6  1  0
  2  1  2  0
  2  3  1  0
  3  4  2  0
  4  5  1  0
  4 10  1  0
  6  5  2  0
  7  3  1  0
  7  8  2  0
  8  9  1  0
  9 10  2  0
 10 26  1  0
 11  1  1  0
 12 11  1  0
 12 17  1  0
 13 12  2  0
 14 13  1  0
 14 15  2  0
 15 16  1  0
 16 17  2  0
 18 13  1  0
 19 18  2  0
 20 19  1  0
 20 21  2  0
 21 14  1  0
 22 19  1  0
 22 25  1  0
 23 20  1  0
 24 23  1  0
 26 29  2  0
 26 27  1  0
 27 28  1  0
 28 30  1  0
 28 31  1  0
 30 31  1  0
M  END
>  <DRUGBANK_ID>  (1) 
DB07274

>  <COMMON_NAME>  (1) 
N-cyclopropyl-6-[(6,7-dimethoxyquinolin-4-yl)oxy]naphthalene-1-carboxamide

$$$$
