
     RDKit          3D

 42 45  0  0  0  0  0  0  0  0999 V2000
    0.3638    1.5658   -1.0985 C   0  0  0  0  0  0  0  0  0  0  0  0
    0.6983    2.7001   -2.4000 C   0  0  0  0  0  0  0  0  0  0  0  0
    1.3861    1.6493   -2.6773 C   0  0  0  0  0  0  0  0  0  0  0  0
    2.6359    1.1142   -2.0074 C   0  0  2  0  0  0  0  0  0  0  0  0
    2.7990    1.4851   -0.5260 C   0  0  2  0  0  0  0  0  0  0  0  0
    3.8596    0.4379   -0.2224 C   0  0  0  0  0  0  0  0  0  0  0  0
    4.2544    0.5827    1.1893 C   0  0  2  0  0  0  0  0  0  0  0  0
    5.3879   -0.3659    1.2507 C   0  0  0  0  0  0  0  0  0  0  0  0
    5.9269   -0.6190    2.5712 C   0  0  0  0  0  0  0  0  0  0  0  0
    7.2892   -0.9450    2.6349 C   0  0  0  0  0  0  0  0  0  0  0  0
    7.7147   -1.1269    3.9398 C   0  0  0  0  0  0  0  0  0  0  0  0
    6.9019   -1.0400    5.0881 C   0  0  0  0  0  0  0  0  0  0  0  0
    5.5401   -0.7349    4.9443 C   0  0  0  0  0  0  0  0  0  0  0  0
    5.0290   -0.5255    3.6626 C   0  0  0  0  0  0  0  0  0  0  0  0
    3.5574   -0.2071    3.4260 C   0  0  0  0  0  0  0  0  0  0  0  0
    3.0948    0.2544    2.0388 C   0  0  0  0  0  0  0  0  0  0  0  0
    1.8161    0.4563    1.5767 C   0  0  0  0  0  0  0  0  0  0  0  0
    1.4631    1.3020    0.2071 C   0  0  2  0  0  0  0  0  0  0  0  0
    1.5781    3.4698   -3.6828 C   0  0  0  0  0  0  0  0  0  0  0  0
    2.7058    3.2016   -4.1241 O   0  0  0  0  0  0  0  0  0  0  0  0
    1.4691    4.4547   -4.6016 N   0  0  0  0  0  0  0  0  0  0  0  0
    2.8081   -0.2464    4.3982 O   0  0  0  0  0  0  0  0  0  0  0  0
   -0.6289    0.8245   -1.1896 O   0  0  0  0  0  0  0  0  0  0  0  0
    0.8560    2.4616    0.8435 O   0  0  0  0  0  0  0  0  0  0  0  0
    0.7971    0.1474    2.4683 O   0  0  0  0  0  0  0  0  0  0  0  0
    4.7496   -0.6396    6.0639 O   0  0  0  0  0  0  0  0  0  0  0  0
    0.9149    0.6530   -3.5376 O   0  0  0  0  0  0  0  0  0  0  0  0
    7.4605   -1.2749    6.3704 N   0  0  0  0  0  0  0  0  0  0  0  0
    8.1641   -1.0831    1.5535 N   0  0  0  0  0  0  0  0  0  0  0  0
    7.9178   -0.9725    0.1055 C   0  0  0  0  0  0  0  0  0  0  0  0
    9.5880   -1.3540    1.8180 C   0  0  0  0  0  0  0  0  0  0  0  0
    3.7792    1.3354   -2.9272 N   0  0  0  0  0  0  0  0  0  0  0  0
    3.4113    1.0283   -4.4492 C   0  0  0  0  0  0  0  0  0  0  0  0
    4.2627    2.7326   -2.5447 C   0  0  0  0  0  0  0  0  0  0  0  0
    8.7988   -1.5873    6.5967 C   0  0  0  0  0  0  0  0  0  0  0  0
    9.1815   -1.7967    8.0383 C   0  0  0  0  0  0  0  0  0  0  0  0
    9.6906   -1.6893    5.7539 O   0  0  0  0  0  0  0  0  0  0  0  0
    9.7747   -3.1366    8.2036 N   0  0  0  0  0  0  0  0  0  0  0  0
   10.3086   -3.3813    9.5471 C   0  0  0  0  0  0  0  0  0  0  0  0
    9.1808   -3.2615   10.5785 C   0  0  0  0  0  0  0  0  0  0  0  0
   10.8801   -4.8093    9.6045 C   0  0  0  0  0  0  0  0  0  0  0  0
   11.4463   -2.3980    9.8679 C   0  0  0  0  0  0  0  0  0  0  0  0
  2  1  1  0
  3  2  2  0
  4  3  1  0
  4 32  1  6
  5  4  1  0
  5  6  1  1
  7  6  1  6
  8  7  1  0
  9  8  1  0
 10  9  2  0
 11 10  1  0
 12 11  2  0
 13 12  1  0
 14  9  1  0
 14 13  2  0
 15 14  1  0
 16  7  1  0
 16 15  1  0
 17 16  2  0
 18  1  1  0
 18  5  1  0
 18 17  1  0
 18 24  1  1
 19  2  1  0
 20 19  2  0
 21 19  1  0
 22 15  2  0
 23  1  2  0
 25 17  1  0
 26 13  1  0
 27  3  1  0
 28 12  1  0
 28 35  1  0
 29 10  1  0
 30 29  1  0
 31 29  1  0
 33 32  1  0
 34 32  1  0
 35 36  1  0
 35 37  2  0
 36 38  1  0
 38 39  1  0
 39 40  1  0
 39 41  1  0
 39 42  1  0
M  END
>  <DRUGBANK_ID>  (1) 
DB00560

>  <SECONDARY_ACCESSION_NUMBERS>  (1) 
APRD01307

>  <COMMON_NAME>  (1) 
Tigecycline

>  <CAS_NUMBER>  (1) 
220620-09-7

>  <UNII>  (1) 
70JE2N95KR

>  <SYNONYMS>  (1) 
(4S,4aS,5aR,12aS)-9-(2-(tert-butylamino)acetamido)-4,7-bis(dimethylamino)-1,4,4a,5,5a,6,11,12a-octahydro-3,10,12,12a-tetrahydroxy-1,11-dioxo-2-naphthacenecarboxamide; Tigeciclina; Tigecycline; Tigecyclinum

$$$$
