
     RDKit          3D

 17 18  0  0  0  0  0  0  0  0999 V2000
   -1.1485   -1.4475    0.3834 C   0  0  2  0  0  0  0  0  0  0  0  0
    0.4472   -1.5336    0.5575 C   0  0  1  0  0  0  0  0  0  0  0  0
   -1.8974   -2.1863    1.5246 C   0  0  0  0  0  0  0  0  0  0  0  0
    0.9742   -1.6493    2.0044 C   0  0  0  0  0  0  0  0  0  0  0  0
    1.2041   -2.5845   -0.1721 N   0  0  0  0  0  0  0  0  0  0  0  0
   -2.2784   -3.4880    1.4775 O   0  0  0  0  0  0  0  0  0  0  0  0
   -2.0146   -1.6082    2.6248 O   0  0  0  0  0  0  0  0  0  0  0  0
    0.7850   -3.0524    2.6081 C   0  0  0  0  0  0  0  0  0  0  0  0
    0.7471   -3.8994    0.2254 C   0  0  0  0  0  0  0  0  0  0  0  0
   -2.7840   -4.2235    0.3511 C   0  0  0  0  0  0  0  0  0  0  0  0
    1.1819   -4.1760    1.6475 C   0  0  0  0  0  0  0  0  0  0  0  0
   -1.6620   -1.6626   -1.0512 C   0  0  0  0  0  0  0  0  0  0  0  0
   -0.8075   -1.7029   -2.1578 C   0  0  0  0  0  0  0  0  0  0  0  0
   -2.9939   -1.9862   -1.2866 C   0  0  0  0  0  0  0  0  0  0  0  0
   -1.1238   -2.4783   -3.2722 C   0  0  0  0  0  0  0  0  0  0  0  0
   -3.3036   -2.8314   -2.3610 C   0  0  0  0  0  0  0  0  0  0  0  0
   -2.3575   -3.1048   -3.3412 C   0  0  0  0  0  0  0  0  0  0  0  0
  1  3  1  1
  2  4  1  1
  2  5  1  0
  2  1  1  0
  3  6  1  0
  3  7  2  0
  4  8  1  0
  5  9  1  0
  6 10  1  0
  8 11  1  0
  9 11  1  0
 12  1  1  0
 13 12  2  0
 14 12  1  0
 15 13  1  0
 16 14  2  0
 17 15  2  0
 17 16  1  0
M  END
>  <DRUGBANK_ID>  (1) 
DB06701

>  <COMMON_NAME>  (1) 
Dexmethylphenidate

>  <CAS_NUMBER>  (1) 
40431-64-9

>  <UNII>  (1) 
M32RH9MFGP

>  <SYNONYMS>  (1) 
(+)-threo-methylphenidate; d-threo-methylphenidate; D-TMP; Dexméthylphénidate; Dexmethylphenidate; Dexmethylphenidatum; Dexmetilfenidato; methyl (R)-phenyl[(R)-piperidin-2-yl]acetate

$$$$
