
     RDKit          3D

 10 10  0  0  0  0  0  0  0  0999 V2000
    2.3040    0.0010    0.0040 N   0  0  0  0  0  0  0  0  0  0  0  0
    0.9560   -0.0010    0.0020 C   0  0  0  0  0  0  0  0  0  0  0  0
    0.2380    1.2040   -0.0120 C   0  0  0  0  0  0  0  0  0  0  0  0
   -1.1400    1.2110    0.0070 C   0  0  0  0  0  0  0  0  0  0  0  0
   -1.8370   -0.0000    0.0040 C   0  0  0  0  0  0  0  0  0  0  0  0
   -1.1430   -1.2080   -0.0050 C   0  0  0  0  0  0  0  0  0  0  0  0
    0.2400   -1.2070   -0.0000 C   0  0  0  0  0  0  0  0  0  0  0  0
   -1.9440   -2.5930   -0.0211 B   0  0  0  0  0  0  0  0  0  0  0  0
   -1.1949   -3.8925   -0.0308 O   0  0  0  0  0  0  0  0  0  0  0  0
   -3.4439   -2.5919   -0.0265 O   0  0  0  0  0  0  0  0  0  0  0  0
  1  2  1  0
  2  3  2  0
  2  7  1  0
  3  4  1  0
  4  5  2  0
  5  6  1  0
  6  7  2  0
  6  8  1  0
  8  9  1  0
  8 10  1  0
M  END
>  <DRUGBANK_ID>  (1) 
DB01896

>  <SECONDARY_ACCESSION_NUMBERS>  (1) 
EXPT00538

>  <COMMON_NAME>  (1) 
M-Aminophenylboronic Acid

>  <UNII>  (1) 
44U8ADR772

$$$$
