
     RDKit          3D

 36 40  0  0  0  0  0  0  0  0999 V2000
    3.4649    9.1320    1.8142 C   0  0  0  0  0  0  0  0  0  0  0  0
    3.1576    7.7854    2.4637 C   0  0  1  0  0  0  0  0  0  0  0  0
    3.2698    7.0094    1.1275 C   0  0  0  0  0  0  0  0  0  0  0  0
    5.4683    6.1479    4.0843 C   0  0  1  0  0  0  0  0  0  0  0  0
    4.7046    7.8257    3.5673 C   0  0  2  0  0  0  0  0  0  0  0  0
    4.1781    4.9671    4.7225 C   0  0  0  0  0  0  0  0  0  0  0  0
    2.6661    5.0580    3.9305 C   0  0  2  0  0  0  0  0  0  0  0  0
    1.8141    6.6679    3.4251 C   0  0  2  0  0  0  0  0  0  0  0  0
    0.4390    6.4226    2.9121 C   0  0  1  0  0  0  0  0  0  0  0  0
   -0.1363    5.0642    3.1754 C   0  0  0  0  0  0  0  0  0  0  0  0
    2.6751    3.8786    2.7426 C   0  0  1  0  0  0  0  0  0  0  0  0
    0.8765    3.7041    2.9173 C   0  0  2  0  0  0  0  0  0  0  0  0
    2.5628    3.3587    0.3150 C   0  0  0  0  0  0  0  0  0  0  0  0
    3.5866    4.0828    1.0297 C   0  0  0  0  0  0  0  0  0  0  0  0
    1.3657    3.8307    0.7490 C   0  0  0  0  0  0  0  0  0  0  0  0
    0.6672    2.8690    1.6663 C   0  0  2  0  0  0  0  0  0  0  0  0
   -0.7198    2.6221    1.1139 C   0  0  0  0  0  0  0  0  0  0  0  0
   -1.4605    3.9010    0.6223 C   0  0  0  0  0  0  0  0  0  0  0  0
    0.6285    5.4050    0.0513 C   0  0  2  0  0  0  0  0  0  0  0  0
   -0.6703    4.8433   -0.3686 C   0  0  2  0  0  0  0  0  0  0  0  0
   -1.5204    6.0346   -0.8145 C   0  0  0  0  0  0  0  0  0  0  0  0
   -0.8851    7.3740   -1.2946 C   0  0  0  0  0  0  0  0  0  0  0  0
    0.5732    7.8242   -1.2194 C   0  0  2  0  0  0  0  0  0  0  0  0
    1.3641    6.4328   -1.3351 C   0  0  2  0  0  0  0  0  0  0  0  0
    3.4867    5.9316    3.4894 C   0  0  0  0  0  0  0  0  0  0  0  0
    5.9548    5.4130    2.8640 O   0  0  0  0  0  0  0  0  0  0  0  0
    4.1334    8.5929    4.6835 O   0  0  0  0  0  0  0  0  0  0  0  0
    2.2685    6.1178    1.0939 O   0  0  0  0  0  0  0  0  0  0  0  0
   -0.0494    7.6445    2.4338 O   0  0  0  0  0  0  0  0  0  0  0  0
    0.2568    2.9393    4.0888 C   0  0  0  0  0  0  0  0  0  0  0  0
    1.5706    1.4968    1.7794 C   0  0  0  0  0  0  0  0  0  0  0  0
    1.3154    8.9070   -0.3581 C   0  0  0  0  0  0  0  0  0  0  0  0
    1.8805    5.6529   -2.8013 C   0  0  0  0  0  0  0  0  0  0  0  0
    0.2479    4.1111   -1.3244 C   0  0  0  0  0  0  0  0  0  0  0  0
   -0.1573    2.9955   -1.8390 O   0  0  0  0  0  0  0  0  0  0  0  0
    1.4645    4.1675   -1.3643 O   0  0  0  0  0  0  0  0  0  0  0  0
  2  8  1  0
  2  1  1  6
  2  3  1  0
  3 28  1  0
  4  5  1  0
  4  6  1  0
  4 26  1  6
  5  2  1  0
  5 27  1  1
  7  6  1  0
  7 11  1  0
  7  8  1  0
  7 25  1  1
  8  9  1  6
  9 10  1  0
  9 29  1  1
 10 12  1  0
 11 12  1  0
 11 14  1  6
 12 16  1  0
 12 30  1  1
 13 14  1  0
 15 13  2  0
 19 15  1  6
 15 16  1  0
 16 17  1  0
 16 31  1  1
 17 18  1  0
 18 20  1  0
 19 20  1  0
 19 24  1  0
 20 21  1  0
 20 34  1  6
 21 22  1  0
 22 23  1  0
 23 24  1  0
 23 32  1  1
 24 33  1  6
 34 35  1  0
 34 36  2  0
M  END
>  <DRUGBANK_ID>  (1) 
DB14037

>  <COMMON_NAME>  (1) 
Madecassic acid

>  <CAS_NUMBER>  (1) 
18449-41-7

>  <UNII>  (1) 
M7O1N24J82

>  <SYNONYMS>  (1) 
6Î²-hydroxyasiatic acid; Brahmic acid

$$$$
