
     RDKit          3D

 21 24  0  0  0  0  0  0  0  0999 V2000
   -0.7086    0.9692    0.0002 N   0  0  0  0  0  0  0  0  0  0  0  0
    0.1331   -0.1488    0.0004 C   0  0  0  0  0  0  0  0  0  0  0  0
   -2.0687    0.6432    0.0010 C   0  0  0  0  0  0  0  0  0  0  0  0
   -2.2852   -0.7360    0.0014 C   0  0  0  0  0  0  0  0  0  0  0  0
   -0.9041   -1.3677    0.0007 C   0  0  0  0  0  0  0  0  0  0  0  0
   -3.1490    1.5271    0.0006 C   0  0  0  0  0  0  0  0  0  0  0  0
   -3.5960   -1.2428    0.0028 C   0  0  0  0  0  0  0  0  0  0  0  0
   -4.6867   -0.3495    0.0049 C   0  0  0  0  0  0  0  0  0  0  0  0
   -4.4621    1.0306    0.0025 C   0  0  0  0  0  0  0  0  0  0  0  0
    3.6962    0.7772   -0.0008 N   0  0  0  0  0  0  0  0  0  0  0  0
    2.3572    1.1584   -0.0000 C   0  0  0  0  0  0  0  0  0  0  0  0
    3.8239   -0.6022   -0.0011 C   0  0  0  0  0  0  0  0  0  0  0  0
    2.5550   -1.2121   -0.0009 C   0  0  0  0  0  0  0  0  0  0  0  0
    1.5072   -0.1422    0.0001 C   0  0  0  0  0  0  0  0  0  0  0  0
    5.0361   -1.2933   -0.0019 C   0  0  0  0  0  0  0  0  0  0  0  0
    2.5271   -2.5903   -0.0025 C   0  0  0  0  0  0  0  0  0  0  0  0
    3.7325   -3.3205   -0.0055 C   0  0  0  0  0  0  0  0  0  0  0  0
    4.9798   -2.6822   -0.0039 C   0  0  0  0  0  0  0  0  0  0  0  0
    1.9641    2.3224    0.0005 O   0  0  0  0  0  0  0  0  0  0  0  0
   -0.6089   -2.6316    0.0008 N   0  0  0  0  0  0  0  0  0  0  0  0
   -1.7274   -3.4778    0.0012 O   0  0  0  0  0  0  0  0  0  0  0  0
  2  1  1  0
  3  1  1  0
  4  3  2  0
  5  2  1  0
  5  4  1  0
  6  3  1  0
  7  4  1  0
  8  7  2  0
  9  6  2  0
  9  8  1  0
 11 10  1  0
 12 10  1  0
 13 12  2  0
 14  2  2  0
 14 11  1  0
 14 13  1  0
 15 12  1  0
 16 13  1  0
 17 16  2  0
 18 15  2  0
 18 17  1  0
 19 11  2  0
 20  5  2  0
 21 20  1  0
M  END
>  <DRUGBANK_ID>  (1) 
DB02052

>  <SECONDARY_ACCESSION_NUMBERS>  (1) 
EXPT01949

>  <COMMON_NAME>  (1) 
Indirubin-3'-monoxime

>  <UNII>  (1) 
X6CSG51MBQ

>  <SYNONYMS>  (1) 
1H,1'H-[2,3']biindolylidene3,2'-dione-3-oxime

$$$$
