
     RDKit          3D

 10 11  0  0  0  0  0  0  0  0999 V2000
   -0.2859    0.6816    0.0014 C   0  0  0  0  0  0  0  0  0  0  0  0
   -0.1696   -0.6793    0.0006 C   0  0  0  0  0  0  0  0  0  0  0  0
   -1.5700   -1.1762   -0.0026 C   0  0  0  0  0  0  0  0  0  0  0  0
   -1.6117    1.1257    0.0013 N   0  0  0  0  0  0  0  0  0  0  0  0
   -2.3633    0.0961   -0.0003 N   0  0  0  0  0  0  0  0  0  0  0  0
    2.0948    0.7458   -0.0002 N   0  0  0  0  0  0  0  0  0  0  0  0
    0.9701   -1.3836   -0.0003 N   0  0  0  0  0  0  0  0  0  0  0  0
    2.0682   -0.6049   -0.0005 C   0  0  0  0  0  0  0  0  0  0  0  0
    0.8995    1.3665    0.0008 C   0  0  0  0  0  0  0  0  0  0  0  0
    0.9572    2.7302    0.0002 O   0  0  0  0  0  0  0  0  0  0  0  0
  1  2  2  0
  2  3  1  0
  3  5  1  0
  4  1  1  0
  4  5  2  0
  6  8  1  0
  7  2  1  0
  8  7  2  0
  9  6  2  0
  9  1  1  0
  9 10  1  0
M  END
>  <DRUGBANK_ID>  (1) 
DB03153

>  <SECONDARY_ACCESSION_NUMBERS>  (1) 
EXPT02643

>  <COMMON_NAME>  (1) 
3H-pyrazolo[4,3-d]pyrimidin-7-ol

>  <UNII>  (1) 
UNA9YT8PYM

$$$$
