812
     RDKit          3D

 23 25  0  0  0  0  0  0  0  0999 V2000
    1.2348   -0.1911   -0.3508 O   0  0  0  0  0  0  0  0  0  0  0  0
    5.2277    1.2314    1.5450 O   0  0  0  0  0  0  0  0  0  0  0  0
    3.3243   -1.2634    0.0142 N   0  0  0  0  0  0  0  0  0  0  0  0
    4.4494   -0.8567    0.7744 N   0  0  0  0  0  0  0  0  0  0  0  0
    3.3000    1.0389    0.0616 C   0  0  0  0  0  0  0  0  0  0  0  0
    2.6480    2.3404    0.5195 C   0  0  0  0  0  0  0  0  0  0  0  0
    2.4344   -0.1826   -0.1027 C   0  0  0  0  0  0  0  0  0  0  0  0
    4.4335    0.5357    0.9236 C   0  0  0  0  0  0  0  0  0  0  0  0
    3.6108    3.5457    0.4360 C   0  0  0  0  0  0  0  0  0  0  0  0
    4.1634    3.7988   -0.9714 C   0  0  0  0  0  0  0  0  0  0  0  0
    3.1557   -2.5031   -0.6397 C   0  0  0  0  0  0  0  0  0  0  0  0
    5.3041   -1.6859    1.5409 C   0  0  0  0  0  0  0  0  0  0  0  0
    3.0512    4.1415   -1.9488 C   0  0  0  0  0  0  0  0  0  0  0  0
    3.1107   -3.6751    0.1134 C   0  0  0  0  0  0  0  0  0  0  0  0
    6.1223   -2.6158    0.8948 C   0  0  0  0  0  0  0  0  0  0  0  0
    2.9901   -2.5898   -2.0346 C   0  0  0  0  0  0  0  0  0  0  0  0
    5.4912   -1.4689    2.9171 C   0  0  0  0  0  0  0  0  0  0  0  0
    2.8963   -4.9118   -0.5010 C   0  0  0  0  0  0  0  0  0  0  0  0
    7.1294   -3.2876    1.5978 C   0  0  0  0  0  0  0  0  0  0  0  0
    2.7536   -3.8311   -2.6477 C   0  0  0  0  0  0  0  0  0  0  0  0
    6.5147   -2.1246    3.6138 C   0  0  0  0  0  0  0  0  0  0  0  0
    2.7244   -4.9935   -1.8807 C   0  0  0  0  0  0  0  0  0  0  0  0
    7.3272   -3.0429    2.9553 C   0  0  0  0  0  0  0  0  0  0  0  0
  1  7  2  0
  2  8  2  0
  3  4  1  0
  3  7  1  0
  3 11  1  0
  4  8  1  0
  4 12  1  0
  5  6  1  0
  5  7  1  0
  5  8  1  0
  6  9  1  0
  9 10  1  0
 10 13  1  0
 11 14  2  0
 11 16  1  0
 12 15  2  0
 12 17  1  0
 14 18  1  0
 15 19  1  0
 16 20  2  0
 17 21  2  0
 18 22  2  0
 19 23  2  0
 20 22  1  0
 21 23  1  0
M  END
>  <DRUGBANK_ID>  (1) 
DB00812

>  <SECONDARY_ACCESSION_NUMBERS>  (1) 
APRD00409; DB08343

>  <COMMON_NAME>  (1) 
Phenylbutazone

>  <CAS_NUMBER>  (1) 
50-33-9

>  <UNII>  (1) 
GN5P7K3T8S

>  <SYNONYMS>  (1) 
3,5-Dioxo-1,2-diphenyl-4-n-butylpyrazolidine; 4-butyl-1,2-diphenyl-pyrazolidine-3,5-dione; 4-n-Butyl-1,2-diphenyl-3,5-pyrazolidinedione; Fenilbutazona; Phenbutazone; Phenylbutazon; Ph√©nylbutazone; Phenylbutazone; Phenylbutazonum

$$$$
