850
     RDKit          3D

 27 30  0  0  0  0  0  0  0  0999 V2000
    1.3196    0.9346   -0.8164 Cl  0  0  0  0  0  0  0  0  0  0  0  0
    7.3973    0.2806    0.2077 S   0  0  0  0  0  0  0  0  0  0  0  0
   -0.5443   -3.9725   -1.7462 O   0  0  0  0  0  0  0  0  0  0  0  0
    2.1068   -2.8297    0.6188 N   0  0  0  0  0  0  0  0  0  0  0  0
   -0.7459   -2.9608    1.2621 N   0  0  0  0  0  0  0  0  0  0  0  0
    5.5482   -2.3011   -0.0419 N   0  0  0  0  0  0  0  0  0  0  0  0
    1.2022   -1.6985    0.5892 C   0  0  0  0  0  0  0  0  0  0  0  0
    1.4319   -4.0900    0.4169 C   0  0  0  0  0  0  0  0  0  0  0  0
   -0.0024   -1.7287    1.4794 C   0  0  0  0  0  0  0  0  0  0  0  0
    0.1805   -4.1193    1.3212 C   0  0  0  0  0  0  0  0  0  0  0  0
    2.9800   -2.7535    1.7643 C   0  0  0  0  0  0  0  0  0  0  0  0
    4.0900   -3.7350    1.5069 C   0  0  0  0  0  0  0  0  0  0  0  0
   -1.6519   -2.8340    0.0987 C   0  0  0  0  0  0  0  0  0  0  0  0
    4.7116   -3.5349    0.1031 C   0  0  0  0  0  0  0  0  0  0  0  0
   -1.1511   -2.7522   -1.3679 C   0  0  0  0  0  0  0  0  0  0  0  0
    4.9485   -0.9939   -0.1900 C   0  0  0  0  0  0  0  0  0  0  0  0
    6.9651   -2.5081    0.0630 C   0  0  0  0  0  0  0  0  0  0  0  0
    5.6499    0.1832    0.0547 C   0  0  0  0  0  0  0  0  0  0  0  0
    7.8503   -1.4178    0.0965 C   0  0  0  0  0  0  0  0  0  0  0  0
    3.6250   -0.7428   -0.6351 C   0  0  0  0  0  0  0  0  0  0  0  0
    7.5793   -3.7861    0.0799 C   0  0  0  0  0  0  0  0  0  0  0  0
    5.0460    1.4648    0.1398 C   0  0  0  0  0  0  0  0  0  0  0  0
    9.2408   -1.5867    0.0844 C   0  0  0  0  0  0  0  0  0  0  0  0
    2.9936    0.5496   -0.4774 C   0  0  0  0  0  0  0  0  0  0  0  0
    8.9725   -3.9494    0.0837 C   0  0  0  0  0  0  0  0  0  0  0  0
    3.6785    1.6102   -0.0036 C   0  0  0  0  0  0  0  0  0  0  0  0
    9.8013   -2.8486    0.0748 C   0  0  0  0  0  0  0  0  0  0  0  0
  1 24  1  0
  2 18  1  0
  2 19  1  0
  3 15  1  0
  4  7  1  0
  4  8  1  0
  4 11  1  0
  5  9  1  0
  5 10  1  0
  5 13  1  0
  6 14  1  0
  6 16  1  0
  6 17  1  0
  7  9  1  0
  8 10  1  0
 11 12  1  0
 12 14  1  0
 13 15  1  0
 16 18  2  0
 16 20  1  0
 17 19  2  0
 17 21  1  0
 18 22  1  0
 19 23  1  0
 20 24  2  0
 21 25  2  0
 22 26  2  0
 23 27  2  0
 24 26  1  0
 25 27  1  0
M  END
>  <DRUGBANK_ID>  (1) 
DB00850

>  <SECONDARY_ACCESSION_NUMBERS>  (1) 
APRD00429

>  <COMMON_NAME>  (1) 
Perphenazine

>  <CAS_NUMBER>  (1) 
58-39-9

>  <UNII>  (1) 
FTA7XXY4EZ

>  <SYNONYMS>  (1) 
2-(4-[3-(2-chloro-10H-phenothiazin-10-yl)propyl]-1-piperazinyl)ethanol; 2-chloro-10-(3-(4-(2-hydroxyethyl)piperazin-1-yl)propyl)phenothiazine; 4-[3-(2-chloro-10H-phenothiazin-10-yl)propyl]-1-piperazineethanol; 4-[3-(2-chlorophenothiazin-10-yl)propyl]-1-piperazineethanol; Chlorpiprazine; Etaperazin; Etaperazine; Ethaperazine; Perfenazina; Perfenazine; Perphenazin; Perphénazine; Perphenazine; Perphenazinum; γ-(4-(β-hydroxyethyl)piperazin-1-yl)propyl-2-chlorophenothiazine

$$$$
