
     RDKit          3D

 24 27  0  0  1  0  0  0  0  0999 V2000
    1.5644   11.7570    4.1920 O   0  0  0  0  0  0  0  0  0  0  0  0
    3.3133    9.6213    6.4825 O   0  0  0  0  0  0  0  0  0  0  0  0
    2.1214   11.9087    7.1776 O   0  0  0  0  0  0  0  0  0  0  0  0
    3.3743    5.6056    1.3312 O   0  0  0  0  0  0  0  0  0  0  0  0
    4.2091   14.2519    4.6649 O   0  0  0  0  0  0  0  0  0  0  0  0
    2.3433    9.8062    3.3144 N   0  0  0  0  0  0  0  0  0  0  0  0
    3.5734    8.2806   -0.8694 N   0  0  0  0  0  0  0  0  0  0  0  0
    1.5276    9.0889    1.4185 N   0  0  0  0  0  0  0  0  0  0  0  0
    4.5743   10.5207    2.5743 N   0  0  0  0  0  0  0  0  0  0  0  0
    5.0085    9.7257    0.3125 N   0  0  0  0  0  0  0  0  0  0  0  0
    2.1071   10.4730    4.5494 C   0  0  1  0  0  0  0  0  0  0  0  0
    3.2869   10.6475    5.4852 C   0  0  1  0  0  0  0  0  0  0  0  0
    3.0037   12.0301    6.0452 C   0  0  1  0  0  0  0  0  0  0  0  0
    2.2923   12.7607    4.9010 C   0  0  1  0  0  0  0  0  0  0  0  0
    3.2086   13.5398    3.9503 C   0  0  0  0  0  0  0  0  0  0  0  0
    3.0515    6.8969   -0.7047 C   0  0  2  0  0  0  0  0  0  0  0  0
    3.3547    9.9708    2.4052 C   0  0  0  0  0  0  0  0  0  0  0  0
    1.7576    6.7848    0.0569 C   0  0  0  0  0  0  0  0  0  0  0  0
    2.8673    9.4043    1.2494 C   0  0  0  0  0  0  0  0  0  0  0  0
    1.3263    9.1360    2.7007 C   0  0  0  0  0  0  0  0  0  0  0  0
    3.9421    5.8922    0.0413 C   0  0  0  0  0  0  0  0  0  0  0  0
    3.7895    9.1282    0.2173 C   0  0  0  0  0  0  0  0  0  0  0  0
    2.2192    6.4263    1.4683 C   0  0  0  0  0  0  0  0  0  0  0  0
    5.3036   10.4061    1.4454 C   0  0  0  0  0  0  0  0  0  0  0  0
  1 11  1  0
  1 14  1  0
  4 21  1  0
  4 23  1  0
  5 15  1  0
  6 17  1  0
  6 20  1  0
  7 22  1  0
  8 19  1  0
  8 20  2  0
  9 17  1  0
  9 24  2  0
 10 22  2  0
 10 24  1  0
 11 12  1  0
 11  6  1  6
 12  2  1  1
 12 13  1  0
 13  3  1  1
 13 14  1  0
 14 15  1  6
 16 18  1  0
 16 21  1  0
 16  7  1  1
 17 19  2  0
 18 23  1  0
 19 22  1  0
M  END
>  <DRUGBANK_ID>  (1) 
DB04954

>  <COMMON_NAME>  (1) 
Tecadenoson

>  <CAS_NUMBER>  (1) 
204512-90-3

>  <UNII>  (1) 
GZ1X96601Z

>  <SYNONYMS>  (1) 
Tecadenoson

$$$$
