
     RDKit          3D

 20 22  0  0  1  0  0  0  0  0999 V2000
    1.0412   -0.0414    0.0834 C   0  0  0  0  0  0  0  0  0  0  0  0
   -0.8894   -7.5316    1.6629 C   0  0  0  0  0  0  0  0  0  0  0  0
    0.7964   -3.7125    0.2972 C   0  0  0  0  0  0  0  0  0  0  0  0
   -2.3335   -1.5744    2.4779 C   0  0  0  0  0  0  0  0  0  0  0  0
    0.5468   -1.3993    0.4590 C   0  0  0  0  0  0  0  0  0  0  0  0
   -0.8193   -6.7989    2.9952 C   0  0  2  0  0  0  0  0  0  0  0  0
   -0.5895   -1.6273    1.2450 C   0  0  0  0  0  0  0  0  0  0  0  0
   -3.3698   -6.2862    2.5574 C   0  0  1  0  0  0  0  0  0  0  0  0
   -3.3449   -4.9671    1.7986 C   0  0  2  0  0  0  0  0  0  0  0  0
   -2.1569   -6.1757    3.4946 C   0  0  2  0  0  0  0  0  0  0  0  0
   -0.9245   -2.9549    1.4863 C   0  0  0  0  0  0  0  0  0  0  0  0
   -2.7923   -4.0028    2.8419 C   0  0  2  0  0  0  0  0  0  0  0  0
    1.2366   -2.4779   -0.0150 N   0  0  0  0  0  0  0  0  0  0  0  0
   -0.2897   -4.0446    1.0312 N   0  0  0  0  0  0  0  0  0  0  0  0
   -1.4833   -0.7816    1.8553 N   0  0  0  0  0  0  0  0  0  0  0  0
   -2.0268   -2.8977    2.2973 N   0  0  0  0  0  0  0  0  0  0  0  0
    0.2351   -5.8453    2.9263 O   0  0  0  0  0  0  0  0  0  0  0  0
   -4.6057   -6.3917    3.2873 O   0  0  0  0  0  0  0  0  0  0  0  0
   -4.6353   -4.5697    1.3386 O   0  0  0  0  0  0  0  0  0  0  0  0
   -1.9880   -4.7572    3.7657 O   0  0  0  0  0  0  0  0  0  0  0  0
  5  1  1  0
  6  2  1  6
  6 17  1  0
  7  5  2  0
  8 18  1  1
  9  8  1  0
  9 19  1  1
 10  8  1  0
 10  6  1  0
 11  7  1  0
 12  9  1  0
 12 16  1  6
 13  3  2  0
 13  5  1  0
 14  3  1  0
 14 11  2  0
 15  4  2  0
 15  7  1  0
 16  4  1  0
 16 11  1  0
 10 20  1  6
 20 12  1  0
M  END
>  <DRUGBANK_ID>  (1) 
DB03952

>  <SECONDARY_ACCESSION_NUMBERS>  (1) 
EXPT01123

>  <COMMON_NAME>  (1) 
9-(6-deoxy-beta-D-allofuranosyl)-6-methylpurine

$$$$
