
     RDKit          3D

 30 33  0  0  0  0  0  0  0  0999 V2000
    1.6493   -0.2605   -0.1163 C   0  0  0  0  0  0  0  0  0  0  0  0
    1.1858    0.9586    0.3885 O   0  0  0  0  0  0  0  0  0  0  0  0
    1.5629    1.3515    1.6208 C   0  0  0  0  0  0  0  0  0  0  0  0
    2.8069    1.1998    2.2238 C   0  0  0  0  0  0  0  0  0  0  0  0
    3.0828    1.7678    3.5030 C   0  0  0  0  0  0  0  0  0  0  0  0
    2.1721    2.6500    4.0891 C   0  0  0  0  0  0  0  0  0  0  0  0
    1.1285    3.0247    3.2504 C   0  0  0  0  0  0  0  0  0  0  0  0
    0.6556    2.1446    2.2502 C   0  0  0  0  0  0  0  0  0  0  0  0
   -0.6899    1.8649    2.2512 O   0  0  0  0  0  0  0  0  0  0  0  0
   -1.5659    1.3703    1.2549 C   0  0  0  0  0  0  0  0  0  0  0  0
   -1.5237   -0.1374    1.1045 C   0  0  0  0  0  0  0  0  0  0  0  0
   -1.5842   -0.3847   -0.3917 C   0  0  0  0  0  0  0  0  0  0  0  0
   -1.4508    0.9655   -1.1065 C   0  0  0  0  0  0  0  0  0  0  0  0
   -1.3362    2.0585   -0.0664 C   0  0  0  0  0  0  0  0  0  0  0  0
    1.9295    2.8576    5.6542 C   0  0  0  0  0  0  0  0  0  0  0  0
    1.9887    4.3399    6.1419 C   0  0  0  0  0  0  0  0  0  0  0  0
    0.7316    5.1626    5.9998 C   0  0  0  0  0  0  0  0  0  0  0  0
    0.0029    5.3786    7.1282 N   0  0  0  0  0  0  0  0  0  0  0  0
    0.3377    5.6197    4.9340 O   0  0  0  0  0  0  0  0  0  0  0  0
    0.7213    2.0037    6.1464 N   0  0  0  0  0  0  0  0  0  0  0  0
   -0.0246    1.4875    5.1083 C   0  0  0  0  0  0  0  0  0  0  0  0
    0.1814    0.4205    4.6201 O   0  0  0  0  0  0  0  0  0  0  0  0
   -1.2146    2.4474    4.9675 C   0  0  0  0  0  0  0  0  0  0  0  0
   -1.4581    2.8054    6.2475 C   0  0  0  0  0  0  0  0  0  0  0  0
   -2.4352    3.7486    6.5657 C   0  0  0  0  0  0  0  0  0  0  0  0
   -3.0187    4.5261    5.5465 C   0  0  0  0  0  0  0  0  0  0  0  0
   -2.5972    4.3722    4.2505 C   0  0  0  0  0  0  0  0  0  0  0  0
   -1.7242    3.3343    3.9857 C   0  0  0  0  0  0  0  0  0  0  0  0
   -0.2954    2.3099    7.0217 C   0  0  0  0  0  0  0  0  0  0  0  0
   -0.4719    1.8963    8.1581 O   0  0  0  0  0  0  0  0  0  0  0  0
  1  2  1  0
  2  3  1  0
  3  4  2  0
  3  8  1  0
  4  5  1  0
  5  6  2  0
  6  7  1  0
  6 15  1  0
  7  8  2  0
  8  9  1  0
  9 10  1  0
 10 11  1  0
 10 14  1  0
 11 12  1  0
 12 13  1  0
 13 14  1  0
 15 16  1  0
 15 20  1  0
 16 17  1  0
 17 18  1  0
 17 19  2  0
 20 21  1  0
 20 29  1  0
 21 22  2  0
 21 23  1  0
 23 24  2  0
 23 28  1  0
 24 25  1  0
 24 29  1  0
 25 26  2  0
 26 27  1  0
 27 28  2  0
 29 30  2  0
M  END
>  <DRUGBANK_ID>  (1) 
DB15640

>  <COMMON_NAME>  (1) 
CDC-801

>  <CAS_NUMBER>  (1) 
192819-27-5

>  <UNII>  (1) 
95HB56U8P8

$$$$
