
     RDKit          3D

 25 25  0  0  1  0  0  0  0  0999 V2000
    1.6855    1.6290   -0.0154 C   0  0  0  0  0  0  0  0  0  0  0  0
    0.2667   -5.4627    1.4078 C   0  0  0  0  0  0  0  0  0  0  0  0
    1.0572   -4.8729    2.5892 C   0  0  0  0  0  0  0  0  0  0  0  0
   -1.8784    0.6131   -0.0393 C   0  0  0  0  0  0  0  0  0  0  0  0
   -0.5414   -2.9487    0.0176 C   0  0  0  0  0  0  0  0  0  0  0  0
   -3.1717   -1.5373   -0.0834 C   0  0  0  0  0  0  0  0  0  0  0  0
    0.4813    0.7390   -0.0022 C   0  0  0  0  0  0  0  0  0  0  0  0
   -1.8511   -0.7839   -0.0617 C   0  0  0  0  0  0  0  0  0  0  0  0
   -0.5969   -1.4407   -0.0147 C   0  0  0  0  0  0  0  0  0  0  0  0
   -1.1817   -4.9624    1.2257 C   0  0  1  0  0  0  0  0  0  0  0  0
    0.6843   -5.4152    3.9452 C   0  0  0  0  0  0  0  0  0  0  0  0
    0.5695   -0.6596   -0.0020 C   0  0  0  0  0  0  0  0  0  0  0  0
   -2.1662   -5.5675    2.2432 C   0  0  0  0  0  0  0  0  0  0  0  0
   -0.7353    1.3158   -0.0042 N   0  0  0  0  0  0  0  0  0  0  0  0
   -1.2357   -3.4711    1.1934 N   0  0  0  0  0  0  0  0  0  0  0  0
    1.0780   -6.4457    4.4322 O   0  0  0  0  0  0  0  0  0  0  0  0
   -0.2200   -4.6480    4.5698 O   0  0  0  0  0  0  0  0  0  0  0  0
    1.8375   -1.1662    0.0110 O   0  0  0  0  0  0  0  0  0  0  0  0
   -2.7737   -6.6121    2.1063 O   0  0  0  0  0  0  0  0  0  0  0  0
   -2.2807   -4.8638    3.3721 O   0  0  0  0  0  0  0  0  0  0  0  0
   -3.9289   -0.4787    3.1987 O   0  0  0  0  0  0  0  0  0  0  0  0
   -4.1750   -2.8450    2.6649 O   0  0  0  0  0  0  0  0  0  0  0  0
   -2.2546   -2.0391    3.7959 O   0  0  0  0  0  0  0  0  0  0  0  0
   -3.9296   -1.2605    1.0874 O   0  0  0  0  0  0  0  0  0  0  0  0
   -3.0457   -1.6714    2.5167 P   0  0  0  0  0  0  0  0  0  0  0  0
  3  2  1  0
  7  1  1  0
  8  4  2  0
  8  6  1  0
  9  5  1  0
  9  8  1  0
 10  2  1  1
 10 15  1  0
 11  3  1  0
 12  7  1  0
 12  9  2  0
 13 10  1  0
 14  4  1  0
 14  7  2  0
 15  5  1  0
 16 11  2  0
 17 11  1  0
 18 12  1  0
 19 13  2  0
 20 13  1  0
 24  6  1  0
 25 21  1  0
 25 22  1  0
 25 23  2  0
 25 24  1  0
M  CHG  1  14   1
M  END
>  <DRUGBANK_ID>  (1) 
DB01813

>  <SECONDARY_ACCESSION_NUMBERS>  (1) 
EXPT02638; EXPT02576

>  <COMMON_NAME>  (1) 
Pyridoxyl-Glutamic Acid-5'-Monophosphate

$$$$
