
     RDKit          3D

 22 24  0  0  0  0  0  0  0  0999 V2000
    1.1798   -0.1305    0.0859 C   0  0  0  0  0  0  0  0  0  0  0  0
    0.4651   -1.1404   -0.6798 N   0  0  0  0  0  0  0  0  0  0  0  0
   -1.0012   -0.9597   -0.7058 C   0  0  0  0  0  0  0  0  0  0  0  0
   -1.4946    0.2864   -1.4443 C   0  0  0  0  0  0  0  0  0  0  0  0
   -2.5161    0.2433   -2.3870 C   0  0  0  0  0  0  0  0  0  0  0  0
   -2.8404    1.3992   -3.1566 C   0  0  0  0  0  0  0  0  0  0  0  0
   -2.1181    2.6211   -3.0980 C   0  0  0  0  0  0  0  0  0  0  0  0
   -1.2925    2.7136   -1.9816 C   0  0  0  0  0  0  0  0  0  0  0  0
   -1.0165    1.5771   -1.1737 C   0  0  0  0  0  0  0  0  0  0  0  0
   -2.4349    3.7568   -4.0277 C   0  0  0  0  0  0  0  0  0  0  0  0
   -1.8801    4.7981   -4.8002 C   0  0  0  0  0  0  0  0  0  0  0  0
   -2.9756    5.6799   -5.1811 C   0  0  0  0  0  0  0  0  0  0  0  0
   -3.1810    6.9680   -5.7435 C   0  0  0  0  0  0  0  0  0  0  0  0
   -4.4984    7.4796   -5.7492 C   0  0  0  0  0  0  0  0  0  0  0  0
   -4.7100    8.7542   -6.1124 F   0  0  0  0  0  0  0  0  0  0  0  0
   -5.5963    6.7082   -5.3810 C   0  0  0  0  0  0  0  0  0  0  0  0
   -5.4158    5.3694   -5.0411 C   0  0  0  0  0  0  0  0  0  0  0  0
   -6.5368    4.4314   -4.8751 C   0  0  0  0  0  0  0  0  0  0  0  0
   -6.2411    3.1113   -4.7015 N   0  0  0  0  0  0  0  0  0  0  0  0
   -7.7058    4.8228   -4.9549 O   0  0  0  0  0  0  0  0  0  0  0  0
   -4.1041    4.9566   -4.8495 C   0  0  0  0  0  0  0  0  0  0  0  0
   -3.7746    3.8017   -4.2406 O   0  0  0  0  0  0  0  0  0  0  0  0
  1  2  1  0
  2  3  1  0
  3  4  1  0
  4  5  2  0
  4  9  1  0
  5  6  1  0
  6  7  2  0
  7  8  1  0
  7 10  1  0
  8  9  2  0
 10 11  2  0
 10 22  1  0
 11 12  1  0
 12 13  2  0
 12 21  1  0
 13 14  1  0
 14 15  1  0
 14 16  2  0
 16 17  1  0
 17 18  1  0
 17 21  2  0
 18 19  1  0
 18 20  2  0
 21 22  1  0
M  END
>  <DRUGBANK_ID>  (1) 
DB18248

>  <COMMON_NAME>  (1) 
Mefuparib

>  <CAS_NUMBER>  (1) 
1392502-82-7

>  <UNII>  (1) 
9NN2OZ1YX4

>  <SYNONYMS>  (1) 
5-fluoro-2-(4-((methylamino)methyl)phenyl)-7-benzofurancarboxamide; Cvl-218 free base

$$$$
