
     RDKit          3D

 17 17  0  0  0  0  0  0  0  0999 V2000
    0.9736    0.0814   -0.0512 S   0  0  0  0  0  0  0  0  0  0  0  0
    0.5239   -0.8417   -1.4096 N   0  0  0  0  0  0  0  0  0  0  0  0
    0.6440   -0.5770    1.1944 O   0  0  0  0  0  0  0  0  0  0  0  0
    0.5399    1.4350   -0.3184 O   0  0  0  0  0  0  0  0  0  0  0  0
    2.7576    0.0783   -0.1097 C   0  0  0  0  0  0  0  0  0  0  0  0
   -0.3731   -1.9180   -1.2702 C   0  0  0  0  0  0  0  0  0  0  0  0
    3.4568    1.2889   -0.0853 C   0  0  0  0  0  0  0  0  0  0  0  0
    3.4541   -1.1311   -0.0834 C   0  0  0  0  0  0  0  0  0  0  0  0
   -0.8827   -2.5776   -2.5236 C   0  0  0  0  0  0  0  0  0  0  0  0
   -0.7046   -2.3305   -0.1682 O   0  0  0  0  0  0  0  0  0  0  0  0
    4.8576    1.2834   -0.0690 C   0  0  0  0  0  0  0  0  0  0  0  0
    4.8564   -1.1203   -0.0619 C   0  0  0  0  0  0  0  0  0  0  0  0
   -1.6726   -3.6820   -2.4701 C   0  0  0  0  0  0  0  0  0  0  0  0
    5.5719    0.0825   -0.0392 C   0  0  0  0  0  0  0  0  0  0  0  0
   -2.1867   -4.4010   -3.6940 C   0  0  0  0  0  0  0  0  0  0  0  0
   -2.1114   -4.3111   -1.1644 C   0  0  0  0  0  0  0  0  0  0  0  0
    6.9558    0.0849   -0.1418 N   0  0  0  0  0  0  0  0  0  0  0  0
  1  2  1  0
  1  3  2  0
  1  4  2  0
  1  5  1  0
  2  6  1  0
  5  7  2  0
  5  8  1  0
  6  9  1  0
  6 10  2  0
  7 11  1  0
  8 12  2  0
  9 13  2  3
 11 14  2  0
 12 14  1  0
 13 15  1  0
 13 16  1  0
 14 17  1  0
M  END
>  <DRUGBANK_ID>  (1) 
DB13214

>  <COMMON_NAME>  (1) 
Sulfadicramide

>  <CAS_NUMBER>  (1) 
115-68-4

>  <UNII>  (1) 
7WZ5EG263C

>  <SYNONYMS>  (1) 
Sulfadicramide; Sulfadicrolamide

$$$$
