
     RDKit          3D

 17 16  0  0  0  0  0  0  0  0999 V2000
    0.9555   -0.1158   -0.0066 C   0  0  0  0  0  0  0  0  0  0  0  0
    0.5097    1.1146    0.7666 C   0  0  0  0  0  0  0  0  0  0  0  0
    1.0076    2.3856    0.0771 C   0  0  0  0  0  0  0  0  0  0  0  0
    0.4539    2.4983   -1.3477 C   0  0  0  0  0  0  0  0  0  0  0  0
   -1.0788    2.5149   -1.3334 C   0  0  0  0  0  0  0  0  0  0  0  0
   -1.5838    3.7232   -0.5394 C   0  0  0  0  0  0  0  0  0  0  0  0
   -1.0780    5.0156   -1.1871 C   0  0  0  0  0  0  0  0  0  0  0  0
   -1.5905    5.1037   -2.6279 C   0  0  0  0  0  0  0  0  0  0  0  0
   -3.1221    5.1014   -2.6276 C   0  0  0  0  0  0  0  0  0  0  0  0
   -3.6365    6.3029   -1.8285 C   0  0  0  0  0  0  0  0  0  0  0  0
   -3.1308    7.6007   -2.4656 C   0  0  0  0  0  0  0  0  0  0  0  0
   -3.6310    7.7002   -3.9097 C   0  0  0  0  0  0  0  0  0  0  0  0
   -5.1627    7.7046   -3.9423 C   0  0  0  0  0  0  0  0  0  0  0  0
   -5.7248    8.9072   -3.1760 C   0  0  0  0  0  0  0  0  0  0  0  0
   -5.2248   10.2269   -3.7545 C   0  0  0  0  0  0  0  0  0  0  0  0
   -5.6928   10.3704   -5.1762 C   0  0  0  0  0  0  0  0  0  0  0  0
   -6.4124   11.2944   -5.5594 O   0  0  0  0  0  0  0  0  0  0  0  0
  1  2  1  0
  2  3  1  0
  3  4  1  0
  4  5  1  0
  5  6  1  0
  6  7  1  0
  7  8  1  0
  8  9  1  0
  9 10  1  0
 10 11  1  0
 11 12  1  0
 12 13  1  0
 13 14  1  0
 14 15  1  0
 15 16  1  0
 16 17  2  0
M  END
>  <DRUGBANK_ID>  (1) 
DB03381

>  <SECONDARY_ACCESSION_NUMBERS>  (1) 
EXPT02611

>  <COMMON_NAME>  (1) 
Hexadecanal

>  <CAS_NUMBER>  (1) 
629-80-1

>  <UNII>  (1) 
WQD27655QE

>  <SYNONYMS>  (1) 
1-hexadecanal; 16-hexadecanal; Hexadecanal; n-hexadecanal; Palmitaldehyde

$$$$
