
     RDKit          3D

 17 19  0  0  0  0  0  0  0  0999 V2000
    0.5457   -0.0893   -0.2193 C   0  0  0  0  0  0  0  0  0  0  0  0
    0.2432    0.7491    1.0464 C   0  0  0  0  0  0  0  0  0  0  0  0
    1.2297    1.9807    1.2914 C   0  0  0  0  0  0  0  0  0  0  0  0
    1.0436    3.1931    0.2748 C   0  0  0  0  0  0  0  0  0  0  0  0
    1.0353    4.4502    1.1327 C   0  0  0  0  0  0  0  0  0  0  0  0
    1.0219    5.8083    0.7819 C   0  0  0  0  0  0  0  0  0  0  0  0
    1.0258    6.7876    1.7996 C   0  0  0  0  0  0  0  0  0  0  0  0
    1.0362    6.4030    3.1399 C   0  0  0  0  0  0  0  0  0  0  0  0
    1.0302    5.0614    3.4889 C   0  0  0  0  0  0  0  0  0  0  0  0
    1.0255    4.1037    2.4786 C   0  0  0  0  0  0  0  0  0  0  0  0
    1.0226    2.6231    2.7002 C   0  0  0  0  0  0  0  0  0  0  0  0
    1.0541    7.3338    4.1054 F   0  0  0  0  0  0  0  0  0  0  0  0
    2.5891    1.2792    1.2785 C   0  0  0  0  0  0  0  0  0  0  0  0
    3.4757    1.1148    0.2296 C   0  0  0  0  0  0  0  0  0  0  0  0
    4.0904   -0.0898    0.4726 N   0  0  0  0  0  0  0  0  0  0  0  0
    3.5889   -0.6036    1.6304 C   0  0  0  0  0  0  0  0  0  0  0  0
    2.7778    0.2596    2.2047 N   0  0  0  0  0  0  0  0  0  0  0  0
  1  2  1  0
  2  3  1  0
  3  4  1  0
  3 11  1  0
  3 13  1  0
  4  5  1  0
  5  6  1  0
  5 10  2  0
  6  7  2  0
  7  8  1  0
  8  9  2  0
  8 12  1  0
  9 10  1  0
 10 11  1  0
 13 14  2  0
 13 17  1  0
 14 15  1  0
 15 16  1  0
 16 17  2  0
M  END
>  <DRUGBANK_ID>  (1) 
DB06585

>  <COMMON_NAME>  (1) 
Fipamezole

>  <CAS_NUMBER>  (1) 
150586-58-6

>  <UNII>  (1) 
T5RCK09KHV

>  <SYNONYMS>  (1) 
Fipamezole

$$$$
