
     RDKit          3D

 11 11  0  0  1  0  0  0  0  0999 V2000
    0.8238   -0.0147   -0.0605 O   0  0  0  0  0  0  0  0  0  0  0  0
    0.2392    1.1298    0.3449 C   0  0  0  0  0  0  0  0  0  0  0  0
    0.9224    2.0849    0.6855 O   0  0  0  0  0  0  0  0  0  0  0  0
   -1.2965    1.0858    0.3621 C   0  0  2  0  0  0  0  0  0  0  0  0
   -1.8215    1.2938    1.7678 C   0  0  0  0  0  0  0  0  0  0  0  0
   -1.6294    0.0301    2.5656 C   0  0  0  0  0  0  0  0  0  0  0  0
   -1.5034    0.0407    3.7873 O   0  0  0  0  0  0  0  0  0  0  0  0
   -1.7023   -1.1450    1.8664 N   0  0  0  0  0  0  0  0  0  0  0  0
   -1.9577   -1.2693    0.5330 C   0  0  0  0  0  0  0  0  0  0  0  0
   -2.2615   -2.3381    0.0170 O   0  0  0  0  0  0  0  0  0  0  0  0
   -1.8816   -0.1217   -0.1929 N   0  0  0  0  0  0  0  0  0  0  0  0
  1  2  1  0
  2  3  2  0
  4  2  1  1
  4  5  1  0
  4 11  1  0
  5  6  1  0
  6  7  2  0
  6  8  1  0
  8  9  1  0
  9 10  2  0
  9 11  1  0
M  END
>  <DRUGBANK_ID>  (1) 
DB02129

>  <SECONDARY_ACCESSION_NUMBERS>  (1) 
EXPT01249

>  <COMMON_NAME>  (1) 
Dihydroorotic Acid

>  <CAS_NUMBER>  (1) 
155-54-4

>  <UNII>  (1) 
4LPL64ZNA5

$$$$
