
     RDKit          3D

 26 28  0  0  0  0  0  0  0  0999 V2000
    2.4502    0.0042    0.0581 C   0  0  0  0  0  0  0  0  0  0  0  0
    1.0384   -0.0037   -0.3012 N   0  0  0  0  0  0  0  0  0  0  0  0
    0.3686   -1.2092    0.2462 C   0  0  0  0  0  0  0  0  0  0  0  0
   -1.1113   -1.2660   -0.1771 C   0  0  0  0  0  0  0  0  0  0  0  0
   -1.7732   -0.0420    0.2601 N   0  0  0  0  0  0  0  0  0  0  0  0
   -1.1610    1.2190   -0.1730 C   0  0  0  0  0  0  0  0  0  0  0  0
    0.3419    1.1973    0.2272 C   0  0  0  0  0  0  0  0  0  0  0  0
   -3.0367   -0.1085    0.8041 C   0  0  0  0  0  0  0  0  0  0  0  0
   -3.2364   -0.6849    2.0598 C   0  0  0  0  0  0  0  0  0  0  0  0
   -4.4797   -0.7035    2.6646 C   0  0  0  0  0  0  0  0  0  0  0  0
   -5.5669   -0.1032    2.0245 C   0  0  0  0  0  0  0  0  0  0  0  0
   -5.4432    0.4851    0.7553 C   0  0  0  0  0  0  0  0  0  0  0  0
   -4.1701    0.3869    0.1463 C   0  0  0  0  0  0  0  0  0  0  0  0
   -4.0115    0.7159   -1.1490 F   0  0  0  0  0  0  0  0  0  0  0  0
   -6.5707    1.1317    0.1851 N   0  0  0  0  0  0  0  0  0  0  0  0
   -7.7963    1.0797    0.8575 C   0  0  0  0  0  0  0  0  0  0  0  0
   -8.0340    0.5002    2.0511 C   0  0  0  0  0  0  0  0  0  0  0  0
   -6.8715   -0.1327    2.7169 C   0  0  0  0  0  0  0  0  0  0  0  0
   -6.9383   -0.6892    3.8092 O   0  0  0  0  0  0  0  0  0  0  0  0
   -9.3963    0.5187    2.6330 C   0  0  0  0  0  0  0  0  0  0  0  0
  -10.3806    1.0257    2.1263 O   0  0  0  0  0  0  0  0  0  0  0  0
   -9.4757   -0.0967    3.8253 O   0  0  0  0  0  0  0  0  0  0  0  0
   -6.3844    1.8354   -1.1086 C   0  0  0  0  0  0  0  0  0  0  0  0
   -5.5107    3.1044   -1.0302 C   0  0  0  0  0  0  0  0  0  0  0  0
   -4.2508    2.8914   -0.5762 F   0  0  0  0  0  0  0  0  0  0  0  0
   -2.2034   -1.2379    2.7142 F   0  0  0  0  0  0  0  0  0  0  0  0
  1  2  1  0
  2  3  1  0
  2  7  1  0
  3  4  1  0
  4  5  1  0
  5  6  1  0
  5  8  1  0
  6  7  1  0
  8  9  2  0
  8 13  1  0
  9 10  1  0
  9 26  1  0
 10 11  2  0
 11 12  1  0
 11 18  1  0
 12 13  2  0
 12 15  1  0
 13 14  1  0
 15 16  1  0
 15 23  1  0
 16 17  2  0
 17 18  1  0
 17 20  1  0
 18 19  2  0
 20 21  2  0
 20 22  1  0
 23 24  1  0
 24 25  1  0
M  END
>  <DRUGBANK_ID>  (1) 
DB04576

>  <COMMON_NAME>  (1) 
Fleroxacin

>  <CAS_NUMBER>  (1) 
79660-72-3

>  <UNII>  (1) 
N804LDH51K

>  <SYNONYMS>  (1) 
Fleroxacin; Fleroxacine; Fleroxacino; Fleroxacinum; Fleroxicin; FLRX

$$$$
