
     RDKit          3D

 34 36  0  0  0  0  0  0  0  0999 V2000
   -0.2183    1.1959    0.1566 C   0  0  0  0  0  0  0  0  0  0  0  0
    1.1087    1.2892    0.0365 C   0  0  0  0  0  0  0  0  0  0  0  0
    1.1341   -1.1724    0.2015 N   0  0  0  0  0  0  0  0  0  0  0  0
   -0.7587   -0.0227    0.0747 N   0  0  0  0  0  0  0  0  0  0  0  0
    1.8003    0.0015   -0.0048 C   0  0  0  0  0  0  0  0  0  0  0  0
    3.0158    0.0269   -0.2335 O   0  0  0  0  0  0  0  0  0  0  0  0
   -0.2120   -1.2729    0.0601 C   0  0  0  0  0  0  0  0  0  0  0  0
   -0.7895   -2.3157   -0.0947 O   0  0  0  0  0  0  0  0  0  0  0  0
   -2.0526    0.0175   -0.2932 C   0  0  1  0  0  0  0  0  0  0  0  0
   -2.7449    0.6270    0.8964 C   0  0  2  0  0  0  0  0  0  0  0  0
   -2.9971   -0.2812    1.9818 O   0  0  0  0  0  0  0  0  0  0  0  0
   -3.7746    0.8793   -0.1256 C   0  0  2  0  0  0  0  0  0  0  0  0
   -4.2719   -0.5814   -0.1213 O   0  0  0  0  0  0  0  0  0  0  0  0
   -3.2841    1.6330   -1.3083 C   0  0  1  0  0  0  0  0  0  0  0  0
   -3.4760    3.1975   -1.1107 C   0  0  0  0  0  0  0  0  0  0  0  0
   -3.4255    3.6879    0.2183 O   0  0  0  0  0  0  0  0  0  0  0  0
   -4.5477    1.9014    1.8896 O   0  0  0  0  0  0  0  0  0  0  0  0
   -3.6743    4.2569    2.6559 O   0  0  0  0  0  0  0  0  0  0  0  0
   -4.3046    3.4688    1.5519 P   0  0  1  0  0  0  0  0  0  0  0  0
   -5.7874    4.0660    1.4211 O   0  0  0  0  0  0  0  0  0  0  0  0
   -5.6449   -0.1006    2.3655 O   0  0  0  0  0  0  0  0  0  0  0  0
   -6.8069    1.7908    1.1266 O   0  0  0  0  0  0  0  0  0  0  0  0
   -5.5648    0.7457    1.1005 P   0  0  1  0  0  0  0  0  0  0  0  0
   -6.5819   -0.4101    0.3113 O   0  0  0  0  0  0  0  0  0  0  0  0
   -2.0851    0.9467   -1.4287 O   0  0  0  0  0  0  0  0  0  0  0  0
   -6.4092   -0.8855   -1.1145 C   0  0  2  0  0  0  0  0  0  0  0  0
   -8.3277    0.0601   -2.0613 C   0  0  0  0  0  0  0  0  0  0  0  0
   -5.6278   -0.0234   -2.1583 C   0  0  2  0  0  0  0  0  0  0  0  0
   -4.2765   -0.4344   -2.2602 O   0  0  0  0  0  0  0  0  0  0  0  0
   -7.5655    1.1970   -2.7567 C   0  0  1  0  0  0  0  0  0  0  0  0
   -8.3483    2.3804   -2.7857 O   0  0  0  0  0  0  0  0  0  0  0  0
   -6.2363    1.4193   -2.0735 C   0  0  2  0  0  0  0  0  0  0  0  0
   -5.6198    2.5107   -2.7401 O   0  0  0  0  0  0  0  0  0  0  0  0
   -7.6259   -1.1470   -1.7986 O   0  0  0  0  0  0  0  0  0  0  0  0
  1  2  2  0
  3  7  1  0
  4  1  1  0
  5  3  1  0
  5  2  1  0
  5  6  2  0
  7  4  1  0
  7  8  2  0
  9  4  1  1
 10  9  1  0
 10 11  1  1
 12 10  1  0
 12 13  1  6
 14 12  1  0
 14 15  1  1
 15 16  1  0
 16 19  1  0
 17 23  1  0
 19 17  1  0
 19 18  2  0
 19 20  1  6
 23 21  2  0
 23 22  1  1
 23 24  1  0
 25 14  1  0
 25  9  1  0
 26 24  1  1
 27 30  1  0
 28 26  1  0
 28 29  1  1
 30 32  1  0
 30 31  1  1
 32 28  1  0
 32 33  1  6
 34 26  1  0
 34 27  1  0
M  END
>  <DRUGBANK_ID>  (1) 
DB01713

>  <SECONDARY_ACCESSION_NUMBERS>  (1) 
EXPT03173

>  <COMMON_NAME>  (1) 
UDP-alpha-D-xylose

>  <CAS_NUMBER>  (1) 
3616-06-6

>  <UNII>  (1) 
I839TB018F

>  <SYNONYMS>  (1) 
UDP-xylose; Uridine-5'-diphosphate-xylopyranose

$$$$
