
     RDKit          3D

 24 25  0  0  0  0  0  0  0  0999 V2000
    1.0122    0.0446    0.1418 C   0  0  0  0  0  0  0  0  0  0  0  0
    0.4785    0.4838    1.4727 C   0  0  0  0  0  0  0  0  0  0  0  0
   -0.2112    1.4852    1.6197 O   0  0  0  0  0  0  0  0  0  0  0  0
    0.8883   -0.3870    2.4799 O   0  0  0  0  0  0  0  0  0  0  0  0
    0.4089   -0.1751    3.7933 C   0  0  0  0  0  0  0  0  0  0  0  0
   -0.9533    0.1079    4.0018 C   0  0  0  0  0  0  0  0  0  0  0  0
   -1.4709    0.2291    5.2922 C   0  0  0  0  0  0  0  0  0  0  0  0
   -0.6548   -0.0143    6.3875 C   0  0  0  0  0  0  0  0  0  0  0  0
    0.6865   -0.3447    6.1865 C   0  0  0  0  0  0  0  0  0  0  0  0
    1.2572   -0.3572    4.8936 C   0  0  0  0  0  0  0  0  0  0  0  0
    2.7449   -0.4675    4.8506 C   0  0  0  0  0  0  0  0  0  0  0  0
    3.3879   -0.6073    5.8864 O   0  0  0  0  0  0  0  0  0  0  0  0
    3.2859   -0.3029    3.5833 O   0  0  0  0  0  0  0  0  0  0  0  0
    4.6845   -0.4710    3.4372 C   0  0  0  0  0  0  0  0  0  0  0  0
    5.3739   -1.4896    4.1007 C   0  0  0  0  0  0  0  0  0  0  0  0
    6.7402   -1.6646    3.8978 C   0  0  0  0  0  0  0  0  0  0  0  0
    7.4066   -0.8772    2.9693 C   0  0  0  0  0  0  0  0  0  0  0  0
    6.6950    0.0585    2.2034 C   0  0  0  0  0  0  0  0  0  0  0  0
    5.3449    0.3235    2.4976 C   0  0  0  0  0  0  0  0  0  0  0  0
    7.3503    0.6053    0.9569 C   0  0  0  0  0  0  0  0  0  0  0  0
    6.5811    0.3400   -0.2166 O   0  0  0  0  0  0  0  0  0  0  0  0
    6.4973   -1.0345   -0.5634 N   0  0  0  0  0  0  0  0  0  0  0  0
    7.1146   -1.8488    0.1150 O   0  0  0  0  0  0  0  0  0  0  0  0
    5.7990   -1.2204   -1.5644 O   0  0  0  0  0  0  0  0  0  0  0  0
  1  2  1  0
  2  3  2  0
  2  4  1  0
  4  5  1  0
  5  6  2  0
  5 10  1  0
  6  7  1  0
  7  8  2  0
  8  9  1  0
  9 10  2  0
 10 11  1  0
 11 12  2  0
 11 13  1  0
 13 14  1  0
 14 15  2  0
 14 19  1  0
 15 16  1  0
 16 17  2  0
 17 18  1  0
 18 19  2  0
 18 20  1  0
 20 21  1  0
 21 22  1  0
 22 23  2  0
 22 24  1  0
M  CHG  2  22   1  24  -1
M  END
>  <DRUGBANK_ID>  (1) 
DB12445

>  <SECONDARY_ACCESSION_NUMBERS>  (1) 
DB05822

>  <COMMON_NAME>  (1) 
Nitroaspirin

>  <CAS_NUMBER>  (1) 
175033-36-0

>  <UNII>  (1) 
EH04H13L6B

$$$$
