
     RDKit          3D

 19 20  0  0  1  0  0  0  0  0999 V2000
    1.5241   -0.2022   -0.0475 C   0  0  0  0  0  0  0  0  0  0  0  0
    0.6765   -1.3217   -0.0116 C   0  0  0  0  0  0  0  0  0  0  0  0
   -0.6956   -1.1389    0.1754 C   0  0  0  0  0  0  0  0  0  0  0  0
   -1.0882    0.1769    0.3645 C   0  0  0  0  0  0  0  0  0  0  0  0
   -0.3358    1.3115    0.1976 C   0  0  0  0  0  0  0  0  0  0  0  0
    1.0294    1.1145    0.0029 C   0  0  0  0  0  0  0  0  0  0  0  0
   -0.8580    2.5770    0.1969 O   0  0  0  0  0  0  0  0  0  0  0  0
   -2.2997    2.7579    0.3268 C   0  0  0  0  0  0  0  0  0  0  0  0
   -3.1027    2.4924   -0.9998 C   0  0  0  0  0  0  0  0  0  0  0  0
   -4.4565    3.2224   -1.0239 C   0  0  0  0  0  0  0  0  0  0  0  0
   -5.2905    2.8095   -2.2516 C   0  0  0  0  0  0  0  0  0  0  0  0
   -5.6148    1.3192   -2.2745 C   0  0  0  0  0  0  0  0  0  0  0  0
   -4.3239    0.5478   -2.2991 C   0  0  0  0  0  0  0  0  0  0  0  0
   -3.4237    1.0121   -1.1812 C   0  0  0  0  0  0  0  0  0  0  0  0
   -1.7147   -2.2683    0.2056 C   0  0  1  0  0  0  0  0  0  0  0  0
   -2.6592   -2.2624    1.4411 C   0  0  0  0  0  0  0  0  0  0  0  0
   -3.7607   -1.1980    1.6047 C   0  0  0  0  0  0  0  0  0  0  0  0
   -4.7622   -1.2905    0.5560 N   0  0  0  0  0  0  0  0  0  0  0  0
   -2.4947   -2.3714   -0.9922 O   0  0  0  0  0  0  0  0  0  0  0  0
  1  2  2  0
  1  6  1  0
  2  3  1  0
  3  4  2  0
  3 15  1  0
  4  5  1  0
  5  6  2  0
  5  7  1  0
  7  8  1  0
  8  9  1  0
  9 10  1  0
  9 14  1  0
 10 11  1  0
 11 12  1  0
 12 13  1  0
 13 14  1  0
 15 16  1  0
 15 19  1  6
 16 17  1  0
 17 18  1  0
M  END
>  <DRUGBANK_ID>  (1) 
DB12608

>  <COMMON_NAME>  (1) 
Emixustat

>  <CAS_NUMBER>  (1) 
1141777-14-1

>  <UNII>  (1) 
02DZ1HBF0M

>  <SYNONYMS>  (1) 
Emixustat

$$$$
