
     RDKit          3D

 12 13  0  0  0  0  0  0  0  0999 V2000
   -2.9881   -0.1938   -0.0467 C   0  0  0  0  0  0  0  0  0  0  0  0
   -2.7906    1.1863    0.0288 C   0  0  0  0  0  0  0  0  0  0  0  0
   -1.8920   -1.0678   -0.0687 C   0  0  0  0  0  0  0  0  0  0  0  0
   -1.4976    1.6976    0.0572 C   0  0  0  0  0  0  0  0  0  0  0  0
    1.8233   -0.8378    0.0241 C   0  0  0  0  0  0  0  0  0  0  0  0
   -0.5858   -0.5669   -0.0213 C   0  0  0  0  0  0  0  0  0  0  0  0
    0.6128   -1.4045    0.0037 C   0  0  0  0  0  0  0  0  0  0  0  0
   -0.4180    0.8172    0.0235 C   0  0  0  0  0  0  0  0  0  0  0  0
    2.0024    0.6208    0.0011 C   0  0  0  0  0  0  0  0  0  0  0  0
    0.4225   -2.7686    0.0270 O   0  0  0  0  0  0  0  0  0  0  0  0
    3.1284    1.1081   -0.0331 O   0  0  0  0  0  0  0  0  0  0  0  0
    0.8622    1.4016    0.0309 O   0  0  0  0  0  0  0  0  0  0  0  0
  2  1  2  0
  3  1  1  0
  4  2  1  0
  6  3  2  0
  7  5  2  0
  7  6  1  0
  8  4  2  0
  8  6  1  0
  9  5  1  0
 10  7  1  0
 11  9  2  0
 12  8  1  0
 12  9  1  0
M  END
>  <DRUGBANK_ID>  (1) 
DB03410

>  <SECONDARY_ACCESSION_NUMBERS>  (1) 
EXPT00215

>  <COMMON_NAME>  (1) 
4-hydroxycoumarin

>  <CAS_NUMBER>  (1) 
1076-38-6

>  <UNII>  (1) 
X954ZLL2RD

>  <SYNONYMS>  (1) 
4-coumarinol; 4-hydroxy-2-chromenone; 4-hydroxy-2H-1-benzopyran-2-one; 4-hydroxy-2H-benzo[b]pyran-2-one; 4-hydroxychromen-2-one; 4-hydroxycoumarin; Benzotetronic acid

$$$$
