
     RDKit          3D

 25 27  0  0  0  0  0  0  0  0999 V2000
    0.9426    0.0537    0.1082 C   0  0  0  0  0  0  0  0  0  0  0  0
    0.4465   -1.3609   -0.2659 C   0  0  0  0  0  0  0  0  0  0  0  0
    0.9665   -2.3462    0.7889 C   0  0  0  0  0  0  0  0  0  0  0  0
   -1.0897   -1.3563   -0.2552 C   0  0  0  0  0  0  0  0  0  0  0  0
    0.9270   -1.6953   -1.6493 C   0  0  0  0  0  0  0  0  0  0  0  0
    1.4009   -0.9103   -2.6763 C   0  0  0  0  0  0  0  0  0  0  0  0
    1.6255   -1.6594   -3.7882 N   0  0  0  0  0  0  0  0  0  0  0  0
    1.3262   -2.8854   -3.4092 C   0  0  0  0  0  0  0  0  0  0  0  0
    0.8736   -2.9885   -2.1128 O   0  0  0  0  0  0  0  0  0  0  0  0
    1.5238   -4.1123   -4.2161 C   0  0  0  0  0  0  0  0  0  0  0  0
    2.6779   -5.2814   -3.4876 S   0  0  0  0  0  0  0  0  0  0  0  0
    4.1905   -4.4116   -3.3653 C   0  0  0  0  0  0  0  0  0  0  0  0
    4.5421   -3.0829   -3.2833 C   0  0  0  0  0  0  0  0  0  0  0  0
    5.8937   -2.7953   -3.0576 N   0  0  0  0  0  0  0  0  0  0  0  0
    6.5840   -3.9096   -3.0152 C   0  0  0  0  0  0  0  0  0  0  0  0
    5.6129   -5.2908   -3.3091 S   0  0  0  0  0  0  0  0  0  0  0  0
    7.9681   -3.9255   -2.8012 N   0  0  0  0  0  0  0  0  0  0  0  0
    8.8801   -4.9857   -2.7164 C   0  0  0  0  0  0  0  0  0  0  0  0
   10.0866   -4.7661   -2.5396 O   0  0  0  0  0  0  0  0  0  0  0  0
    8.2978   -6.3896   -2.7021 C   0  0  0  0  0  0  0  0  0  0  0  0
    7.7245   -6.5229   -1.2796 C   0  0  0  0  0  0  0  0  0  0  0  0
    8.2953   -7.7428   -0.5784 C   0  0  0  0  0  0  0  0  0  0  0  0
    7.9562   -8.9439   -1.3336 N   0  0  0  0  0  0  0  0  0  0  0  0
    8.5866   -8.9182   -2.6515 C   0  0  0  0  0  0  0  0  0  0  0  0
    8.1453   -7.7142   -3.4490 C   0  0  0  0  0  0  0  0  0  0  0  0
  1  2  1  0
  2  3  1  0
  2  4  1  0
  2  5  1  0
  5  6  2  0
  5  9  1  0
  6  7  1  0
  7  8  2  0
  8  9  1  0
  8 10  1  0
 10 11  1  0
 11 12  1  0
 12 13  2  0
 12 16  1  0
 13 14  1  0
 14 15  2  0
 15 16  1  0
 15 17  1  0
 17 18  1  0
 18 19  2  0
 18 20  1  0
 20 21  1  0
 20 25  1  0
 21 22  1  0
 22 23  1  0
 23 24  1  0
 24 25  1  0
M  END
>  <DRUGBANK_ID>  (1) 
DB05969

>  <COMMON_NAME>  (1) 
SNS-032

>  <CAS_NUMBER>  (1) 
345627-80-7

>  <UNII>  (1) 
9979I93686

$$$$
