
     RDKit          3D

 29 33  0  0  1  0  0  0  0  0999 V2000
    1.5531   -2.0311   -0.0151 O   0  0  0  0  0  0  0  0  0  0  0  0
    3.6912   -1.9922    0.9809 O   0  0  0  0  0  0  0  0  0  0  0  0
    2.8007   -4.9214   -3.1975 O   0  0  0  0  0  0  0  0  0  0  0  0
    1.8792    0.3581    0.1579 O   0  0  0  0  0  0  0  0  0  0  0  0
    0.3114    1.7792  -10.6993 O   0  0  0  0  0  0  0  0  0  0  0  0
    2.4665   -2.8504   -4.1585 N   0  0  0  0  0  0  0  0  0  0  0  0
    1.6445    0.3733   -5.5205 N   0  0  0  0  0  0  0  0  0  0  0  0
    2.3827   -1.4761   -4.0116 C   0  0  0  0  0  0  0  0  0  0  0  0
    3.2455   -1.7345   -1.7481 C   0  0  0  0  0  0  0  0  0  0  0  0
    3.6374   -1.1873   -0.3077 C   0  0  2  0  0  0  0  0  0  0  0  0
    2.1909   -3.2601   -5.5356 C   0  0  0  0  0  0  0  0  0  0  0  0
    1.8433   -1.9573   -6.1956 C   0  0  0  0  0  0  0  0  0  0  0  0
    1.9049   -0.9172   -5.2732 C   0  0  0  0  0  0  0  0  0  0  0  0
    2.8318   -3.0083   -1.8100 C   0  0  0  0  0  0  0  0  0  0  0  0
    2.7297   -0.8867   -2.8575 C   0  0  0  0  0  0  0  0  0  0  0  0
    2.6897   -3.7058   -3.1062 C   0  0  0  0  0  0  0  0  0  0  0  0
    1.5221   -1.6699   -7.5102 C   0  0  0  0  0  0  0  0  0  0  0  0
    5.0295   -0.7068   -0.2356 C   0  0  0  0  0  0  0  0  0  0  0  0
    2.3123   -3.4376   -0.5051 C   0  0  0  0  0  0  0  0  0  0  0  0
    2.2686   -0.7978   -0.0147 C   0  0  0  0  0  0  0  0  0  0  0  0
    1.2816   -0.3098   -7.8323 C   0  0  0  0  0  0  0  0  0  0  0  0
    1.4289   -2.7702   -8.5366 C   0  0  0  0  0  0  0  0  0  0  0  0
    1.3238    0.6684   -6.7959 C   0  0  0  0  0  0  0  0  0  0  0  0
    5.3538    0.2226   -1.3545 C   0  0  0  0  0  0  0  0  0  0  0  0
    0.9987    0.1025   -9.1503 C   0  0  0  0  0  0  0  0  0  0  0  0
    0.0105   -2.9308   -9.0775 C   0  0  0  0  0  0  0  0  0  0  0  0
    1.0314    1.9861   -7.1329 C   0  0  0  0  0  0  0  0  0  0  0  0
    0.6656    1.4124   -9.4373 C   0  0  0  0  0  0  0  0  0  0  0  0
    0.6872    2.3629   -8.4376 C   0  0  0  0  0  0  0  0  0  0  0  0
  1 19  1  0
  1 20  1  0
  3 16  2  0
  4 20  2  0
  5 28  1  0
  6  8  1  0
  6 11  1  0
  6 16  1  0
  7 13  2  0
  7 23  1  0
  8 13  1  0
  8 15  2  0
  9 10  1  0
  9 14  2  0
  9 15  1  0
 10  2  1  1
 10 18  1  0
 10 20  1  0
 11 12  1  0
 12 13  1  0
 12 17  2  0
 14 16  1  0
 14 19  1  0
 17 21  1  0
 17 22  1  0
 18 24  1  0
 21 23  2  0
 21 25  1  0
 22 26  1  0
 23 27  1  0
 25 28  2  0
 27 29  2  0
 28 29  1  0
M  END
>  <DRUGBANK_ID>  (1) 
DB05482

>  <SECONDARY_ACCESSION_NUMBERS>  (1) 
DB12552

>  <COMMON_NAME>  (1) 
SN-38

>  <CAS_NUMBER>  (1) 
86639-52-3

>  <UNII>  (1) 
0H43101T0J

>  <SYNONYMS>  (1) 
1H-PYRANO(3',4':6,7)INDOLIZINO(1,2-B)QUINOLINE-3,14(4H,12H)-DIONE, 4,11-DIETHYL-4,9-DIHYDROXY-, (4S)-; IRINOTECAN RELATED COMPOUND B

$$$$
