421
     RDKit          3D

 25 29  0  0  1  0  0  0  0  0999 V2000
   -3.0285   -0.2118   -4.7829 O   0  0  0  0  0  0  0  0  0  0  0  0
   -4.3408   -2.0648   -4.5375 O   0  0  0  0  0  0  0  0  0  0  0  0
    7.1178    3.0408   -6.9953 O   0  0  0  0  0  0  0  0  0  0  0  0
   -0.4141   -0.5755   -5.0797 C   0  0  1  0  0  0  0  0  0  0  0  0
    0.2936    0.7628   -5.2387 C   0  0  2  0  0  0  0  0  0  0  0  0
    1.7076    0.6945   -4.7967 C   0  0  1  0  0  0  0  0  0  0  0  0
   -1.8897    0.0622   -5.6047 C   0  0  2  0  0  0  0  0  0  0  0  0
    2.4161   -0.0232   -5.9408 C   0  0  1  0  0  0  0  0  0  0  0  0
    0.4674   -1.6743   -5.9379 C   0  0  0  0  0  0  0  0  0  0  0  0
   -0.6608    1.7599   -4.6260 C   0  0  0  0  0  0  0  0  0  0  0  0
    3.8555    0.6625   -6.2170 C   0  0  2  0  0  0  0  0  0  0  0  0
    2.0028   -1.5612   -5.6522 C   0  0  0  0  0  0  0  0  0  0  0  0
   -1.7782    1.6179   -5.6336 C   0  0  0  0  0  0  0  0  0  0  0  0
    2.2848    1.9935   -4.4678 C   0  0  0  0  0  0  0  0  0  0  0  0
   -0.4551   -1.1907   -3.6443 C   0  0  0  0  0  0  0  0  0  0  0  0
   -2.1253   -0.7083   -6.8607 C   0  0  0  0  0  0  0  0  0  0  0  0
    4.5982    1.3309   -5.0746 C   0  0  0  0  0  0  0  0  0  0  0  0
    3.6016    2.2168   -4.4074 C   0  0  0  0  0  0  0  0  0  0  0  0
    3.7888    2.3766   -6.9972 C   0  0  0  0  0  0  0  0  0  0  0  0
    4.7158   -0.6826   -6.3807 C   0  0  0  0  0  0  0  0  0  0  0  0
   -2.5034   -1.9947   -6.1259 C   0  0  0  0  0  0  0  0  0  0  0  0
   -3.4813   -1.4711   -5.1052 C   0  0  0  0  0  0  0  0  0  0  0  0
    4.8770    3.5994   -6.4665 C   0  0  0  0  0  0  0  0  0  0  0  0
    5.8880    1.6006   -5.5069 C   0  0  0  0  0  0  0  0  0  0  0  0
    6.1132    2.8323   -6.3424 C   0  0  0  0  0  0  0  0  0  0  0  0
  1 22  1  0
  2 22  2  0
  3 25  2  0
  4  5  1  0
  4  7  1  0
  4  9  1  0
  4 15  1  1
  5  6  1  0
  5 10  1  1
  6  8  1  0
  6 14  1  6
  7  1  1  0
  7 13  1  6
  7 16  1  0
  8 11  1  0
  8 12  1  1
  9 12  1  0
 10 13  1  0
 11 17  1  0
 11 19  1  0
 11 20  1  6
 14 18  2  0
 16 21  1  0
 17 18  1  0
 17 24  2  0
 19 23  1  0
 21 22  1  0
 23 25  1  0
 24 25  1  0
M  END
>  <DRUGBANK_ID>  (1) 
DB12221

>  <COMMON_NAME>  (1) 
Canrenone

>  <CAS_NUMBER>  (1) 
976-71-6

>  <UNII>  (1) 
78O20X9J0U

>  <SYNONYMS>  (1) 
Canrenone

$$$$
