GK3
     RDKit          3D

 30 33  0  0  0  0  0  0  0  0999 V2000
   -3.1265   -0.0172    0.0437 N   0  0  0  0  0  0  0  0  0  0  0  0
   -1.9739   -0.0299    0.0013 C   0  0  0  0  0  0  0  0  0  0  0  0
   -0.5407   -0.0136   -0.0356 C   0  0  0  0  0  0  0  0  0  0  0  0
    0.1078    1.2295   -0.0269 C   0  0  0  0  0  0  0  0  0  0  0  0
    1.4781    1.2693   -0.1029 C   0  0  0  0  0  0  0  0  0  0  0  0
    2.1565    0.0748   -0.2686 C   0  0  0  0  0  0  0  0  0  0  0  0
    0.1890   -1.2238   -0.0502 C   0  0  0  0  0  0  0  0  0  0  0  0
    1.5799   -1.1819   -0.1028 C   0  0  0  0  0  0  0  0  0  0  0  0
    2.3573   -2.3627    0.0135 N   0  0  0  0  0  0  0  0  0  0  0  0
    3.7367   -2.5308    0.1487 C   0  0  0  0  0  0  0  0  0  0  0  0
    4.2315   -3.6566    0.1031 O   0  0  0  0  0  0  0  0  0  0  0  0
    4.6562   -1.3825    0.3736 C   0  0  0  0  0  0  0  0  0  0  0  0
    5.7560   -1.1980   -0.4678 C   0  0  0  0  0  0  0  0  0  0  0  0
    4.3670   -0.4190    1.3544 C   0  0  0  0  0  0  0  0  0  0  0  0
    5.0379    0.8062    1.3530 C   0  0  0  0  0  0  0  0  0  0  0  0
    6.1431    1.0026    0.5227 C   0  0  0  0  0  0  0  0  0  0  0  0
    6.5500   -0.0575   -0.3103 C   0  0  0  0  0  0  0  0  0  0  0  0
    6.8639    2.2837    0.5143 C   0  0  0  0  0  0  0  0  0  0  0  0
    7.3867    2.7695    1.7251 C   0  0  0  0  0  0  0  0  0  0  0  0
    8.2001    3.9073    1.7748 C   0  0  0  0  0  0  0  0  0  0  0  0
    8.8556    4.2445    3.0223 C   0  0  0  0  0  0  0  0  0  0  0  0
    8.7303    5.5188    3.5154 O   0  0  0  0  0  0  0  0  0  0  0  0
    9.4805    5.4281    4.6640 C   0  0  0  0  0  0  0  0  0  0  0  0
    9.5930    6.6161    5.5259 C   0  0  0  0  0  0  0  0  0  0  0  0
   10.0121    4.2388    4.8420 N   0  0  0  0  0  0  0  0  0  0  0  0
    9.5909    3.4664    3.7885 N   0  0  0  0  0  0  0  0  0  0  0  0
    8.5062    4.5696    0.5854 C   0  0  0  0  0  0  0  0  0  0  0  0
    8.0045    4.0965   -0.6310 C   0  0  0  0  0  0  0  0  0  0  0  0
    7.1110    3.0127   -0.6682 C   0  0  0  0  0  0  0  0  0  0  0  0
    6.3880    2.7244   -1.9609 C   0  0  0  0  0  0  0  0  0  0  0  0
  1  2  3  0
  2  3  1  0
  3  7  2  0
  4  3  1  0
  4  5  2  0
  5  6  1  0
  6  8  2  0
  7  8  1  0
  8  9  1  0
  9 10  1  0
 10 11  2  0
 10 12  1  0
 12 14  1  0
 13 12  2  0
 13 17  1  0
 14 15  2  0
 16 18  1  0
 16 15  1  0
 17 16  2  0
 18 19  2  0
 19 20  1  0
 20 21  1  0
 21 22  1  0
 21 26  2  0
 22 23  1  0
 23 24  1  0
 23 25  2  0
 26 25  1  0
 27 20  2  0
 28 27  1  0
 29 28  2  0
 29 18  1  0
 30 29  1  0
M  END
>  <DRUGBANK_ID>  (1) 
DB07833

>  <COMMON_NAME>  (1) 
N-(3-cyanophenyl)-2'-methyl-5'-(5-methyl-1,3,4-oxadiazol-2-yl)-4-biphenylcarboxamide

$$$$
