
     RDKit          3D

 31 32  0  0  0  0  0  0  0  0999 V2000
    0.9882    7.2901    6.0853 C   0  0  0  0  0  0  0  0  0  0  0  0
    0.5783    8.7161    6.2561 C   0  0  0  0  0  0  0  0  0  0  0  0
    1.5077    9.5049    5.6550 F   0  0  0  0  0  0  0  0  0  0  0  0
   -0.6050    8.9610    5.6259 F   0  0  0  0  0  0  0  0  0  0  0  0
    0.4012    9.2118    7.4912 F   0  0  0  0  0  0  0  0  0  0  0  0
    1.5165    6.4210    7.0300 C   0  0  0  0  0  0  0  0  0  0  0  0
    1.6818    6.7623    8.4639 N   0  0  0  0  0  0  0  0  0  0  0  0
    2.1408    5.8798    9.2105 O   0  0  0  0  0  0  0  0  0  0  0  0
    1.3966    7.8659    8.8790 O   0  0  0  0  0  0  0  0  0  0  0  0
    2.0126    5.1979    6.5583 C   0  0  0  0  0  0  0  0  0  0  0  0
    1.9217    4.8114    5.1952 C   0  0  0  0  0  0  0  0  0  0  0  0
    1.3287    5.6491    4.2512 C   0  0  0  0  0  0  0  0  0  0  0  0
    0.9920    5.2244    2.9234 N   0  0  0  0  0  0  0  0  0  0  0  0
    0.0921    5.8842    2.0543 C   0  0  0  0  0  0  0  0  0  0  0  0
   -0.5993    5.0674    0.8754 C   0  0  2  0  0  0  0  0  0  0  0  0
    0.0022    3.6802    0.6773 C   0  0  0  0  0  0  0  0  0  0  0  0
   -0.2736    2.6105    1.6041 O   0  0  0  0  0  0  0  0  0  0  0  0
   -0.4457    2.7494    2.9499 C   0  0  0  0  0  0  0  0  0  0  0  0
   -1.2623    3.6707    3.6062 C   0  0  0  0  0  0  0  0  0  0  0  0
   -1.2145    3.9020    4.9988 C   0  0  0  0  0  0  0  0  0  0  0  0
   -0.4335    3.0943    5.8182 C   0  0  0  0  0  0  0  0  0  0  0  0
   -0.2256    3.4381    7.2007 N   0  0  0  0  0  0  0  0  0  0  0  0
    0.7595    2.8668    8.0145 C   0  0  0  0  0  0  0  0  0  0  0  0
    0.9715    3.4506    9.3897 C   0  0  0  0  0  0  0  0  0  0  0  0
    1.5667    2.0093    7.6569 O   0  0  0  0  0  0  0  0  0  0  0  0
    0.3281    2.1163    5.1636 C   0  0  0  0  0  0  0  0  0  0  0  0
    0.3889    2.0013    3.7603 C   0  0  0  0  0  0  0  0  0  0  0  0
   -0.2999    5.8382   -0.3246 O   0  0  0  0  0  0  0  0  0  0  0  0
   -2.1508    5.0404    0.8551 C   0  0  0  0  0  0  0  0  0  0  0  0
   -0.1596    7.0880    2.1423 O   0  0  0  0  0  0  0  0  0  0  0  0
    0.9551    6.8890    4.7185 C   0  0  0  0  0  0  0  0  0  0  0  0
  2  1  1  0
  3  2  1  0
  4  2  1  0
  5  2  1  0
  6  1  2  0
  7  6  1  0
  8  7  1  0
  9  7  2  0
 10  6  1  0
 11 10  2  0
 11 12  1  0
 12 31  2  0
 13 12  1  0
 14 13  1  0
 15 28  1  0
 15 29  1  1
 15 16  1  0
 15 14  1  0
 17 16  1  0
 18 17  1  0
 19 18  2  0
 20 19  1  0
 21 20  2  0
 21 26  1  0
 22 21  1  0
 23 22  1  0
 24 23  1  0
 25 23  2  0
 26 27  2  0
 27 18  1  0
 30 14  2  0
 31  1  1  0
M  CHG  2   7   1   8  -1
M  END
>  <DRUGBANK_ID>  (1) 
DB07423

>  <COMMON_NAME>  (1) 
Andarine

>  <CAS_NUMBER>  (1) 
401900-40-1

>  <UNII>  (1) 
7UT2HAH49H

>  <SYNONYMS>  (1) 
(2S)-3-(4-acetamidophenoxy)-2-hydroxy-2-methyl-N-[4-nitro-3-(trifluoromethyl)phenyl]propanamide

$$$$
