HPQ
     RDKit          3D

 13 13  0  0  0  0  0  0  0  0999 V2000
    0.9084    1.5955    1.7942 N   0  0  0  0  0  0  0  0  0  0  0  0
    0.4408    0.2850    1.2907 C   0  0  2  0  0  0  0  0  0  0  0  0
    0.9773    0.0214   -0.1225 C   0  0  0  0  0  0  0  0  0  0  0  0
    1.2657    0.9579   -0.8844 O   0  0  0  0  0  0  0  0  0  0  0  0
   -1.0963    0.2934    1.3038 C   0  0  0  0  0  0  0  0  0  0  0  0
   -1.7014   -1.0741    0.9755 C   0  0  0  0  0  0  0  0  0  0  0  0
   -1.2464   -2.1805    1.9027 C   0  0  0  0  0  0  0  0  0  0  0  0
   -0.8511   -1.9015    3.2234 C   0  0  0  0  0  0  0  0  0  0  0  0
   -1.3211   -3.5171    1.4991 C   0  0  0  0  0  0  0  0  0  0  0  0
   -0.5902   -2.9158    4.1333 C   0  0  0  0  0  0  0  0  0  0  0  0
   -1.1302   -4.5368    2.4346 C   0  0  0  0  0  0  0  0  0  0  0  0
   -0.7622   -4.2360    3.7469 C   0  0  0  0  0  0  0  0  0  0  0  0
    1.1534   -1.4160   -0.5671 C   0  0  0  0  0  0  0  0  0  0  0  0
  2  5  1  0
  2  3  1  0
  2  1  1  6
  3  4  2  0
  3 13  1  0
  5  6  1  0
  6  7  1  0
  7  8  2  0
  7  9  1  0
  8 10  1  0
  9 11  2  0
 10 12  2  0
 11 12  1  0
M  END
>  <DRUGBANK_ID>  (1) 
DB07913

>  <COMMON_NAME>  (1) 
HOMOPHENYLALANINYLMETHANE

$$$$
