
     RDKit          3D

 26 26  0  0  0  0  0  0  0  0999 V2000
    3.6307    2.2834    1.0480 S   0  0  0  0  0  0  0  0  0  0  0  0
   -0.9731    0.5937   -0.6389 O   0  0  0  0  0  0  0  0  0  0  0  0
   -0.3007    2.6474    4.1515 O   0  0  0  0  0  0  0  0  0  0  0  0
    4.2461    5.9150   -4.2668 O   0  0  0  0  0  0  0  0  0  0  0  0
    1.1520    6.4509    0.2375 O   0  0  0  0  0  0  0  0  0  0  0  0
   -0.4107    4.8103    0.1575 O   0  0  0  0  0  0  0  0  0  0  0  0
    0.1782    1.6090    0.9570 N   0  0  0  0  0  0  0  0  0  0  0  0
    0.6963    4.2026    2.8855 N   0  0  0  0  0  0  0  0  0  0  0  0
    0.5110   -0.5048    4.1406 N   0  0  0  0  0  0  0  0  0  0  0  0
    0.8850    1.8239    2.2127 C   0  0  1  0  0  0  0  0  0  0  0  0
    2.4642    1.6205    2.2939 C   0  0  0  0  0  0  0  0  0  0  0  0
   -1.0381   -0.5891    1.4566 C   0  0  0  0  0  0  0  0  0  0  0  0
   -0.0178   -1.6316    1.9518 C   0  0  0  0  0  0  0  0  0  0  0  0
   -0.5860    0.5556    0.5325 C   0  0  0  0  0  0  0  0  0  0  0  0
    0.3696    2.9179    3.1529 C   0  0  0  0  0  0  0  0  0  0  0  0
    2.7598    1.9479   -0.5301 C   0  0  0  0  0  0  0  0  0  0  0  0
    1.0247   -1.0945    2.9023 C   0  0  0  0  0  0  0  0  0  0  0  0
    3.1458    2.9723   -1.5550 C   0  0  0  0  0  0  0  0  0  0  0  0
    1.3975    4.5894    1.7067 C   0  0  0  0  0  0  0  0  0  0  0  0
    3.5569    2.5689   -2.8093 C   0  0  0  0  0  0  0  0  0  0  0  0
    3.0168    4.3447   -1.3066 C   0  0  0  0  0  0  0  0  0  0  0  0
    3.9302    3.5285   -3.7445 C   0  0  0  0  0  0  0  0  0  0  0  0
    3.2761    5.3059   -2.2651 C   0  0  0  0  0  0  0  0  0  0  0  0
    3.8185    4.8964   -3.4659 C   0  0  0  0  0  0  0  0  0  0  0  0
    0.5806    5.2967    0.6531 C   0  0  0  0  0  0  0  0  0  0  0  0
    4.9838    5.5013   -5.4057 C   0  0  0  0  0  0  0  0  0  0  0  0
  1 11  1  0
  1 16  1  0
  2 14  2  0
  3 15  2  0
  4 24  1  0
  4 26  1  0
  5 25  1  0
  6 25  2  0
  7 14  1  0
  8 15  1  0
  8 19  1  0
  9 17  1  0
 10 15  1  0
 10 11  1  6
 10  7  1  0
 12 13  1  0
 12 14  1  0
 13 17  1  0
 16 18  1  0
 18 20  2  0
 18 21  1  0
 19 25  1  0
 20 22  1  0
 21 23  2  0
 22 24  2  0
 23 24  1  0
M  END
>  <DRUGBANK_ID>  (1) 
DB02943

>  <SECONDARY_ACCESSION_NUMBERS>  (1) 
EXPT00404

>  <COMMON_NAME>  (1) 
N-(4-Aminobutanoyl)-S-(4-methoxybenzyl)-L-cysteinylglycine

$$$$
