
     RDKit          3D

 25 25  0  0  0  0  0  0  0  0999 V2000
    1.4164   -7.9897   -2.3126 C   0  0  2  0  0  0  0  0  0  0  0  0
    0.3278   -7.1763   -1.5317 C   0  0  2  0  0  0  0  0  0  0  0  0
    0.6729   -9.2677   -2.5930 C   0  0  0  0  0  0  0  0  0  0  0  0
    2.7642   -8.2505   -1.6193 C   0  0  0  0  0  0  0  0  0  0  0  0
   -1.0159   -7.8436   -1.8738 C   0  0  1  0  0  0  0  0  0  0  0  0
    0.1512   -5.7123   -1.8921 C   0  0  0  0  0  0  0  0  0  0  0  0
   -0.7662   -8.9773   -2.8491 C   0  0  0  0  0  0  0  0  0  0  0  0
    1.1747  -10.3742   -2.7028 O   0  0  0  0  0  0  0  0  0  0  0  0
    3.9397   -7.7855   -2.5082 C   0  0  0  0  0  0  0  0  0  0  0  0
   -1.6304   -8.3069   -0.6763 O   0  0  0  0  0  0  0  0  0  0  0  0
    1.1755   -5.0143   -2.3554 C   0  0  0  0  0  0  0  0  0  0  0  0
    4.0112   -6.2735   -2.6740 C   0  0  0  0  0  0  0  0  0  0  0  0
    1.4207   -3.6295   -2.7651 C   0  0  2  0  0  0  0  0  0  0  0  0
    4.0516   -5.5721   -1.2784 C   0  0  0  0  0  0  0  0  0  0  0  0
    0.8350   -2.7655   -1.6695 C   0  0  0  0  0  0  0  0  0  0  0  0
    0.8595   -3.4629   -4.0528 O   0  0  0  0  0  0  0  0  0  0  0  0
    5.3966   -5.8024   -0.6198 C   0  0  0  0  0  0  0  0  0  0  0  0
    1.4294   -1.3728   -1.7200 C   0  0  0  0  0  0  0  0  0  0  0  0
    6.5131   -5.2688   -1.5081 C   0  0  0  0  0  0  0  0  0  0  0  0
    1.1135   -0.6778   -3.0427 C   0  0  0  0  0  0  0  0  0  0  0  0
    6.3698   -3.7704   -1.7391 C   0  0  0  0  0  0  0  0  0  0  0  0
   -0.3933   -0.5992   -3.3085 C   0  0  0  0  0  0  0  0  0  0  0  0
    7.4317   -3.0620   -1.3015 O   0  0  0  0  0  0  0  0  0  0  0  0
    5.4196   -3.2289   -2.2605 O   0  0  0  0  0  0  0  0  0  0  0  0
   -1.0937    0.1735   -2.2038 C   0  0  0  0  0  0  0  0  0  0  0  0
  1  2  1  0
  1  3  1  0
  1  4  1  1
  2  5  1  0
  2  6  1  6
  3  7  1  0
  3  8  2  0
  4  9  1  0
  5 10  1  1
  5  7  1  0
  6 11  2  0
  9 12  1  0
 12 14  1  0
 13 16  1  6
 13 15  1  0
 13 11  1  0
 14 17  1  0
 15 18  1  0
 17 19  1  0
 18 20  1  0
 19 21  1  0
 20 22  1  0
 21 23  1  0
 21 24  2  0
 22 25  1  0
M  END
>  <DRUGBANK_ID>  (1) 
DB00770

>  <SECONDARY_ACCESSION_NUMBERS>  (1) 
APRD00785

>  <COMMON_NAME>  (1) 
Alprostadil

>  <CAS_NUMBER>  (1) 
745-65-3

>  <UNII>  (1) 
F5TD010360

>  <SYNONYMS>  (1) 
(11α,13E,15S)-11,15-dihydroxy-9-oxoprost-13-en-1-oic acid; (13E)-(15S)-11alpha,15-Dihydroxy-9-oxoprost-13-enoate; 11α,15α-dihydroxy-9-oxo-13-trans-prostenoic acid; Alprostadil; Alprostadilum; PGE-1; PGE1; Prostaglandin E1

$$$$
