
     RDKit          3D

 31 34  0  0  0  0  0  0  0  0999 V2000
    0.8759   -0.0884   -0.2615 C   0  0  0  0  0  0  0  0  0  0  0  0
    0.4341    1.3409    0.0581 C   0  0  0  0  0  0  0  0  0  0  0  0
    0.9624    2.2053   -1.1010 C   0  0  0  0  0  0  0  0  0  0  0  0
   -1.1012    1.3746    0.0753 C   0  0  0  0  0  0  0  0  0  0  0  0
    1.0019    1.8747    1.4134 C   0  0  0  0  0  0  0  0  0  0  0  0
    0.6289    1.1657    2.6306 N   0  0  0  0  0  0  0  0  0  0  0  0
    0.8811   -0.1625    2.9049 C   0  0  0  0  0  0  0  0  0  0  0  0
    0.2531   -0.4064    4.1151 C   0  0  0  0  0  0  0  0  0  0  0  0
    0.2530   -1.7272    4.5832 C   0  0  0  0  0  0  0  0  0  0  0  0
    0.7822   -2.7162    3.7445 C   0  0  0  0  0  0  0  0  0  0  0  0
    1.3675   -2.3521    2.5376 C   0  0  0  0  0  0  0  0  0  0  0  0
    1.5282   -1.0669    2.1442 N   0  0  0  0  0  0  0  0  0  0  0  0
    1.8625   -3.3884    1.6313 C   0  0  0  0  0  0  0  0  0  0  0  0
    1.1537   -4.4792    1.1405 C   0  0  0  0  0  0  0  0  0  0  0  0
    2.1079   -5.2363    0.4893 N   0  0  0  0  0  0  0  0  0  0  0  0
    3.3127   -4.5790    0.5591 C   0  0  0  0  0  0  0  0  0  0  0  0
    3.1729   -3.4466    1.2182 N   0  0  0  0  0  0  0  0  0  0  0  0
    4.6257   -5.0879    0.0036 C   0  0  0  0  0  0  0  0  0  0  0  0
    5.1475   -4.0794   -1.0348 C   0  0  0  0  0  0  0  0  0  0  0  0
    5.6400   -5.1815    1.1602 C   0  0  0  0  0  0  0  0  0  0  0  0
    4.5099   -6.4696   -0.6596 C   0  0  0  0  0  0  0  0  0  0  0  0
   -0.2478   -4.8741    1.2017 C   0  0  0  0  0  0  0  0  0  0  0  0
   -0.6412   -6.0113    1.9204 C   0  0  0  0  0  0  0  0  0  0  0  0
   -1.9928   -6.3580    1.9995 C   0  0  0  0  0  0  0  0  0  0  0  0
   -2.9253   -5.6555    1.2454 C   0  0  0  0  0  0  0  0  0  0  0  0
   -2.5396   -4.5760    0.4620 C   0  0  0  0  0  0  0  0  0  0  0  0
   -1.2168   -4.1311    0.5132 C   0  0  0  0  0  0  0  0  0  0  0  0
   -4.2150   -6.0144    1.2868 F   0  0  0  0  0  0  0  0  0  0  0  0
   -0.2657    0.7486    4.6351 N   0  0  0  0  0  0  0  0  0  0  0  0
   -0.0248    1.6835    3.7350 C   0  0  0  0  0  0  0  0  0  0  0  0
   -0.3724    2.9668    3.8699 N   0  0  0  0  0  0  0  0  0  0  0  0
  1  2  1  0
  2  3  1  0
  2  4  1  0
  2  5  1  0
  5  6  1  0
  6  7  1  0
  6 30  1  0
  7  8  2  0
  7 12  1  0
  8  9  1  0
  8 29  1  0
  9 10  2  0
 10 11  1  0
 11 12  2  0
 11 13  1  0
 13 14  2  0
 13 17  1  0
 14 15  1  0
 14 22  1  0
 15 16  1  0
 16 17  2  0
 16 18  1  0
 18 19  1  0
 18 20  1  0
 18 21  1  0
 22 23  2  0
 22 27  1  0
 23 24  1  0
 24 25  2  0
 25 26  1  0
 25 28  1  0
 26 27  2  0
 29 30  2  0
 30 31  1  0
M  END
>  <DRUGBANK_ID>  (1) 
DB11787

>  <COMMON_NAME>  (1) 
Ralimetinib

>  <CAS_NUMBER>  (1) 
862505-00-8

>  <UNII>  (1) 
73I34XW4HD

>  <SYNONYMS>  (1) 
Ralimetinib

$$$$
