RXD
     RDKit          3D

 31 33  0  0  0  0  0  0  0  0999 V2000
    1.2358    0.6333    0.0115 F   0  0  0  0  0  0  0  0  0  0  0  0
    2.5088    0.1543    0.0600 C   0  0  0  0  0  0  0  0  0  0  0  0
    2.8121   -0.4047    1.4389 C   0  0  0  0  0  0  0  0  0  0  0  0
    2.1980   -1.6440    1.7584 O   0  0  0  0  0  0  0  0  0  0  0  0
    0.8288   -1.6714    1.8137 C   0  0  0  0  0  0  0  0  0  0  0  0
    0.0168   -1.5238    0.7108 C   0  0  0  0  0  0  0  0  0  0  0  0
   -1.3233   -1.8785    0.7773 C   0  0  0  0  0  0  0  0  0  0  0  0
   -1.8077   -2.5933    1.8971 C   0  0  0  0  0  0  0  0  0  0  0  0
    0.3185   -2.3014    2.9374 C   0  0  0  0  0  0  0  0  0  0  0  0
   -0.9395   -2.8844    2.9822 C   0  0  0  0  0  0  0  0  0  0  0  0
   -1.2077   -3.8867    3.9865 N   0  0  0  0  0  0  0  0  0  0  0  0
   -0.2748   -4.6515    4.7600 C   0  0  0  0  0  0  0  0  0  0  0  0
   -0.5955   -5.5341    5.5764 O   0  0  0  0  0  0  0  0  0  0  0  0
    1.2093   -4.6607    4.4053 C   0  0  0  0  0  0  0  0  0  0  0  0
    1.7452   -5.0422    2.9808 C   0  0  0  0  0  0  0  0  0  0  0  0
    1.1386   -4.6929    1.6052 C   0  0  0  0  0  0  0  0  0  0  0  0
    1.8639   -4.1030    0.7860 O   0  0  0  0  0  0  0  0  0  0  0  0
   -0.1226   -5.0889    1.1735 N   0  0  0  0  0  0  0  0  0  0  0  0
   -1.1356   -5.9505    1.7276 C   0  0  0  0  0  0  0  0  0  0  0  0
   -1.1465   -6.3997    3.0232 C   0  0  0  0  0  0  0  0  0  0  0  0
   -2.2878   -6.8502    3.8913 C   0  0  0  0  0  0  0  0  0  0  0  0
   -3.4763   -7.1956    3.3255 C   0  0  0  0  0  0  0  0  0  0  0  0
   -3.3417   -7.0238    1.9264 C   0  0  0  0  0  0  0  0  0  0  0  0
   -4.3286   -7.6940    1.1445 C   0  0  0  0  0  0  0  0  0  0  0  0
   -4.4132   -7.4234   -0.0533 O   0  0  0  0  0  0  0  0  0  0  0  0
   -2.2753   -6.3641    1.1327 C   0  0  0  0  0  0  0  0  0  0  0  0
   -4.7033   -8.1520    3.9283 C   0  0  0  0  0  0  0  0  0  0  0  0
   -5.3726   -8.2996    4.9378 O   0  0  0  0  0  0  0  0  0  0  0  0
   -4.7708   -9.1774    3.0560 N   0  0  0  0  0  0  0  0  0  0  0  0
   -5.1977   -8.6989    1.8510 C   0  0  0  0  0  0  0  0  0  0  0  0
   -6.3372   -8.8930    1.3767 O   0  0  0  0  0  0  0  0  0  0  0  0
  1  2  1  0
  2  3  1  0
  3  4  1  0
  4  5  1  0
  5  6  2  0
  5  9  1  0
  6  7  1  0
  7  8  2  0
  8 10  1  0
  9 10  2  0
 10 11  1  0
 11 12  1  0
 12 13  2  0
 12 14  1  0
 14 15  1  0
 15 16  1  0
 16 17  2  0
 16 18  1  0
 18 19  1  0
 19 20  2  0
 19 26  1  0
 20 21  1  0
 21 22  2  0
 22 23  1  0
 22 27  1  0
 23 24  1  0
 23 26  2  0
 24 25  2  0
 24 30  1  0
 27 28  2  0
 27 29  1  0
 29 30  1  0
 30 31  2  0
M  END
>  <DRUGBANK_ID>  (1) 
DB08499

>  <COMMON_NAME>  (1) 
N-[3-(2-fluoroethoxy)phenyl]-N'-(1,3,4-trioxo-1,2,3,4-tetrahydroisoquinolin-6-yl)butanediamide

$$$$
