
     RDKit          3D

 21 20  0  0  0  0  0  0  0  0999 V2000
    0.9499    0.0812    0.0683 C   0  0  0  0  0  0  0  0  0  0  0  0
    0.5027    1.3517   -0.6367 C   0  0  0  0  0  0  0  0  0  0  0  0
    0.9975    1.3624   -2.0839 C   0  0  0  0  0  0  0  0  0  0  0  0
    0.4409    0.1721   -2.8717 C   0  0  0  0  0  0  0  0  0  0  0  0
   -1.0928    0.1875   -2.8667 C   0  0  0  0  0  0  0  0  0  0  0  0
   -1.6243    1.4629   -3.5321 C   0  0  0  0  0  0  0  0  0  0  0  0
   -1.1478    1.5425   -4.9796 C   0  0  0  0  0  0  0  0  0  0  0  0
   -1.5709    0.2972   -5.7405 C   0  0  0  0  0  0  0  0  0  0  0  0
   -3.0634    0.2655   -5.8184 C   0  0  0  0  0  0  0  0  0  0  0  0
   -3.7276    0.3849   -6.9639 C   0  0  0  0  0  0  0  0  0  0  0  0
   -3.0469    0.4065   -8.2943 C   0  0  0  0  0  0  0  0  0  0  0  0
   -3.4497   -0.8362   -9.0702 C   0  0  0  0  0  0  0  0  0  0  0  0
   -4.9437   -0.8047   -9.3806 C   0  0  0  0  0  0  0  0  0  0  0  0
   -5.3066    0.4749  -10.1456 C   0  0  0  0  0  0  0  0  0  0  0  0
   -4.5551    0.5479  -11.4790 C   0  0  0  0  0  0  0  0  0  0  0  0
   -4.9210   -0.6397  -12.3754 C   0  0  0  0  0  0  0  0  0  0  0  0
   -6.4299   -0.7005  -12.6564 C   0  0  0  0  0  0  0  0  0  0  0  0
   -6.8694    0.4961  -13.2866 O   0  0  0  0  0  0  0  0  0  0  0  0
   -6.7388   -1.9302  -13.5085 C   0  0  0  0  0  0  0  0  0  0  0  0
   -7.6002   -2.8066  -12.9375 O   0  0  0  0  0  0  0  0  0  0  0  0
   -6.2434   -2.1425  -14.6126 O   0  0  0  0  0  0  0  0  0  0  0  0
  1  2  1  0
  2  3  1  0
  3  4  1  0
  4  5  1  0
  5  6  1  0
  6  7  1  0
  7  8  1  0
  8  9  1  0
  9 10  2  0
 10 11  1  0
 11 12  1  0
 12 13  1  0
 13 14  1  0
 14 15  1  0
 15 16  1  0
 16 17  1  0
 17 18  1  0
 17 19  1  0
 19 20  1  0
 19 21  2  0
M  END
>  <DRUGBANK_ID>  (1) 
DB18213

>  <COMMON_NAME>  (1) 
Idroxioleic acid

>  <CAS_NUMBER>  (1) 
56472-29-8

>  <UNII>  (1) 
OSV3KVO1BT

>  <SYNONYMS>  (1) 
(z)-2-hydroxyoctadec-9-enoic acid; 2-hydroxyoleic acid; 9-octadecenoic acid, 2-hydroxy-, (9z)-; Alpha-hydroxyoleic acid; Cis-2-hydroxy-9-octadecenoic acid; Minerval; Rac-(2r,9z)-2-hydroxyoctadec-9-enoic acid

$$$$
