
     RDKit          3D

 14 14  0  0  1  0  0  0  0  0999 V2000
    0.7169    1.2995   -0.2394 C   0  0  0  0  0  0  0  0  0  0  0  0
   -1.3923   -0.0692   -0.2027 C   0  0  0  0  0  0  0  0  0  0  0  0
    1.4313    0.0273    0.2204 C   0  0  0  0  0  0  0  0  0  0  0  0
   -0.6752   -1.3079    0.2872 C   0  0  2  0  0  0  0  0  0  0  0  0
    0.7773   -1.2983   -0.2131 C   0  0  2  0  0  0  0  0  0  0  0  0
   -1.6115    2.3945   -0.2917 C   0  0  0  0  0  0  0  0  0  0  0  0
   -0.7377    1.2390    0.2470 C   0  0  2  0  0  0  0  0  0  0  0  0
    2.5184   -0.0261    0.9369 N   0  0  0  0  0  0  0  0  0  0  0  0
   -1.4080   -2.4286   -0.2239 O   0  0  0  0  0  0  0  0  0  0  0  0
    1.4615   -2.4665    0.2064 O   0  0  0  0  0  0  0  0  0  0  0  0
   -1.5550    3.5633    0.0692 O   0  0  0  0  0  0  0  0  0  0  0  0
   -2.5679    1.9846   -1.1580 O   0  0  0  0  0  0  0  0  0  0  0  0
   -0.7313    1.2791    1.6784 O   0  0  0  0  0  0  0  0  0  0  0  0
    3.0016    1.2453    1.2600 O   0  0  0  0  0  0  0  0  0  0  0  0
  3  1  1  0
  4  2  1  0
  4  9  1  6
  5  3  1  0
  5  4  1  0
  5 10  1  1
  7  1  1  0
  7  2  1  0
  7 13  1  1
  7  6  1  0
  8  3  2  0
 11  6  2  0
 12  6  1  0
 14  8  1  0
M  END
>  <DRUGBANK_ID>  (1) 
DB03739

>  <SECONDARY_ACCESSION_NUMBERS>  (1) 
EXPT01388

>  <COMMON_NAME>  (1) 
3-Hydroxyimino Quinic Acid

$$$$
