
     RDKit          3D

 11 10  0  0  0  0  0  0  0  0999 V2000
    0.9635    0.0574    0.0737 C   0  0  0  0  0  0  0  0  0  0  0  0
    0.5341    1.5230    0.2573 N   0  0  0  0  0  0  0  0  0  0  0  0
    0.5750   -0.5719   -1.2900 C   0  0  0  0  0  0  0  0  0  0  0  0
    1.0605    2.3862   -0.8830 C   0  0  0  0  0  0  0  0  0  0  0  0
    1.1649   -1.8816   -1.4143 O   0  0  0  0  0  0  0  0  0  0  0  0
   -0.9353   -0.7714   -1.4467 C   0  0  0  0  0  0  0  0  0  0  0  0
    2.4988   -2.1297   -1.4823 C   0  0  0  0  0  0  0  0  0  0  0  0
    3.3450   -1.0630   -1.3972 N   0  0  0  0  0  0  0  0  0  0  0  0
    2.9352   -3.2585   -1.5746 O   0  0  0  0  0  0  0  0  0  0  0  0
   -0.9710    1.6717    0.3859 C   0  0  0  0  0  0  0  0  0  0  0  0
    1.1180    2.0297    1.5765 C   0  0  0  0  0  0  0  0  0  0  0  0
  1  2  1  0
  1  3  1  0
  2  4  1  0
  2 10  1  0
  2 11  1  0
  3  5  1  0
  3  6  1  0
  5  7  1  0
  7  8  1  0
  7  9  2  0
M  CHG  1   2   1
M  END
>  <DRUGBANK_ID>  (1) 
DB01019

>  <SECONDARY_ACCESSION_NUMBERS>  (1) 
APRD00051

>  <COMMON_NAME>  (1) 
Bethanechol

>  <CAS_NUMBER>  (1) 
674-38-4

>  <UNII>  (1) 
004F72P8F4

>  <SYNONYMS>  (1) 
(2-hydroxypropyl)trimethylammonium carbamate; 2-(carbamoyloxy)-N,N,N-trimethylpropan-1-aminium; 2-carbamoyloxypropyl-trimethylazanium; Amidopropyldimethylbetaine; Bethanechol; Carbamoyl-beta-methylcholine; carbamoyl-β-methylcholine; Carbamyl-beta-methylcholine; carbamyl-β-methylcholine

$$$$
