
     RDKit          3D

 35 38  0  0  1  0  0  0  0  0999 V2000
    1.0257   -0.5206   -0.0810 C   0  0  0  0  0  0  0  0  0  0  0  0
    0.3466   -1.1809   -1.2886 C   0  0  0  0  0  0  0  0  0  0  0  0
    1.0966   -2.4969   -1.2319 C   0  0  0  0  0  0  0  0  0  0  0  0
   -1.2281   -1.3168   -1.3276 C   0  0  0  0  0  0  0  0  0  0  0  0
   -2.0819   -0.2957   -1.8417 C   0  0  0  0  0  0  0  0  0  0  0  0
   -3.5207    0.0484   -1.5511 C   0  0  0  0  0  0  0  0  0  0  0  0
   -4.3500    1.7087   -1.5066 C   0  0  0  0  0  0  0  0  0  0  0  0
   -4.0469    3.1586   -0.3142 C   0  0  0  0  0  0  0  0  0  0  0  0
   -2.7258    4.0536   -0.1118 C   0  0  0  0  0  0  0  0  0  0  0  0
   -1.4459    4.5125   -0.9910 C   0  0  0  0  0  0  0  0  0  0  0  0
   -2.3483    4.3961    1.2585 C   0  0  0  0  0  0  0  0  0  0  0  0
   -3.1189    4.0995    2.3789 C   0  0  0  0  0  0  0  0  0  0  0  0
   -2.6203    4.0503    3.6719 O   0  0  0  0  0  0  0  0  0  0  0  0
   -1.3319    4.6347    3.9528 C   0  0  0  0  0  0  0  0  0  0  0  0
    0.1126    3.5208    4.1783 P   0  0  1  0  0  0  0  0  0  0  0  0
    0.9838    4.0794    5.2683 O   0  0  0  0  0  0  0  0  0  0  0  0
   -0.1702    1.9362    4.4254 O   0  0  0  0  0  0  0  0  0  0  0  0
    0.4540    0.8551    3.7005 C   0  0  0  0  0  0  0  0  0  0  0  0
    1.5111    1.2900    2.6977 C   0  0  0  0  0  0  0  0  0  0  0  0
    1.0823    2.5204    1.9530 C   0  0  2  0  0  0  0  0  0  0  0  0
    0.8586    3.6325    2.7590 O   0  0  0  0  0  0  0  0  0  0  0  0
   -0.1179    2.1664    1.1652 C   0  0  0  0  0  0  0  0  0  0  0  0
   -1.3098    1.7193    1.8239 C   0  0  0  0  0  0  0  0  0  0  0  0
   -2.3339    1.2212    1.1188 C   0  0  0  0  0  0  0  0  0  0  0  0
   -2.0142    1.5041   -0.1689 C   0  0  0  0  0  0  0  0  0  0  0  0
   -0.9761    1.8707   -0.9842 C   0  0  0  0  0  0  0  0  0  0  0  0
   -1.2868    2.3453   -2.8347 Cl  0  0  0  0  0  0  0  0  0  0  0  0
    0.0765    2.2309   -0.2317 C   0  0  0  0  0  0  0  0  0  0  0  0
   -4.4015    3.5628    2.1721 C   0  0  0  0  0  0  0  0  0  0  0  0
   -4.8692    3.0663    0.8820 C   0  0  0  0  0  0  0  0  0  0  0  0
   -6.2026    2.3651    0.9040 C   0  0  0  0  0  0  0  0  0  0  0  0
   -4.1587   -1.1028   -1.1488 C   0  0  0  0  0  0  0  0  0  0  0  0
   -3.3982   -2.3337   -1.0469 C   0  0  0  0  0  0  0  0  0  0  0  0
   -1.9739   -2.4218   -1.0814 C   0  0  0  0  0  0  0  0  0  0  0  0
   -1.3248   -3.6150   -1.0235 O   0  0  0  0  0  0  0  0  0  0  0  0
  1  2  1  0
  2  3  1  0
  2  4  1  0
  4  5  2  0
  4 34  1  0
  5  6  1  0
  6  7  1  0
  6 32  2  0
  7  8  1  0
  8  9  2  0
  8 30  1  0
  9 10  1  0
  9 11  1  0
 11 12  2  0
 12 13  1  0
 12 29  1  0
 13 14  1  0
 15 14  1  0
 15 16  2  0
 15 17  1  0
 15 21  1  0
 17 18  1  0
 18 19  1  0
 20 19  1  0
 20 21  1  0
 20 22  1  1
 22 23  2  0
 22 28  1  0
 23 24  1  0
 24 25  2  0
 25 26  1  0
 26 27  1  0
 26 28  2  0
 29 30  2  0
 30 31  1  0
 32 33  1  0
 33 34  2  0
 34 35  1  0
M  END
>  <DRUGBANK_ID>  (1) 
DB15137

>  <COMMON_NAME>  (1) 
VK-2809

>  <CAS_NUMBER>  (1) 
852948-13-1

>  <UNII>  (1) 
3Z11398FNQ

$$$$
