
     RDKit          3D

 27 28  0  0  0  0  0  0  0  0999 V2000
    1.1045    0.0322    0.0605 C   0  0  0  0  0  0  0  0  0  0  0  0
    0.5662    1.1830   -0.5811 O   0  0  0  0  0  0  0  0  0  0  0  0
    0.9250    2.3906   -0.0406 C   0  0  0  0  0  0  0  0  0  0  0  0
    2.2451    2.6584    0.3829 C   0  0  0  0  0  0  0  0  0  0  0  0
    2.6355    3.9574    0.7439 C   0  0  0  0  0  0  0  0  0  0  0  0
    1.7577    5.0172    0.5406 C   0  0  0  0  0  0  0  0  0  0  0  0
    0.5157    4.7225   -0.0602 C   0  0  0  0  0  0  0  0  0  0  0  0
   -0.0041    3.4343   -0.1085 C   0  0  0  0  0  0  0  0  0  0  0  0
   -1.4286    3.3253    0.0065 O   0  0  0  0  0  0  0  0  0  0  0  0
   -2.0345    1.7207   -0.2199 P   0  0  0  0  0  0  0  0  0  0  0  0
   -1.5825    1.2570    1.1728 O   0  0  0  0  0  0  0  0  0  0  0  0
   -3.5368    2.3072    0.0110 O   0  0  0  0  0  0  0  0  0  0  0  0
   -2.6403    0.1162   -0.4463 O   0  0  0  0  0  0  0  0  0  0  0  0
    2.0929    6.3968    1.0200 C   0  0  0  0  0  0  0  0  0  0  0  0
    1.2713    7.4406    1.2037 C   0  0  0  0  0  0  0  0  0  0  0  0
   -0.2013    7.4265    1.0391 C   0  0  0  0  0  0  0  0  0  0  0  0
   -0.9162    6.4057    1.6879 C   0  0  0  0  0  0  0  0  0  0  0  0
   -2.2197    6.0696    1.3103 C   0  0  0  0  0  0  0  0  0  0  0  0
   -2.9026    6.9187    0.4231 C   0  0  0  0  0  0  0  0  0  0  0  0
   -2.2578    8.0969   -0.0407 C   0  0  0  0  0  0  0  0  0  0  0  0
   -0.8824    8.2892    0.1879 C   0  0  0  0  0  0  0  0  0  0  0  0
   -2.8540    9.1302   -0.7347 O   0  0  0  0  0  0  0  0  0  0  0  0
   -4.2784    9.2039   -0.6509 C   0  0  0  0  0  0  0  0  0  0  0  0
   -4.1566    6.6994   -0.0848 O   0  0  0  0  0  0  0  0  0  0  0  0
   -4.8906    5.5426    0.2606 C   0  0  0  0  0  0  0  0  0  0  0  0
   -2.8105    4.9010    1.7222 O   0  0  0  0  0  0  0  0  0  0  0  0
   -2.1150    4.0408    2.6239 C   0  0  0  0  0  0  0  0  0  0  0  0
  1  2  1  0
  2  3  1  0
  3  4  2  0
  3  8  1  0
  4  5  1  0
  5  6  2  0
  6  7  1  0
  6 14  1  0
  7  8  2  0
  8  9  1  0
  9 10  1  0
 10 11  2  0
 10 12  1  0
 10 13  1  0
 14 15  2  0
 15 16  1  0
 16 17  2  0
 16 21  1  0
 17 18  1  0
 18 19  2  0
 18 26  1  0
 19 20  1  0
 19 24  1  0
 20 21  2  0
 20 22  1  0
 22 23  1  0
 24 25  1  0
 26 27  1  0
M  END
>  <DRUGBANK_ID>  (1) 
DB12577

>  <COMMON_NAME>  (1) 
Fosbretabulin

>  <CAS_NUMBER>  (1) 
222030-63-9

>  <UNII>  (1) 
I5590ES2QZ

>  <SYNONYMS>  (1) 
2-METHOXY-5-((Z)-2-(3,4,5-TRIMETHOXYPHENYL)VINYL)PHENYL DIHYDROGEN PHOSPHATE; Combretastatin A-4 phosphate; Combretastatin A4 phosphate; Fosbretabulin; PHENOL, 2-METHOXY-5-((1Z)-2-(3,4,5-TRIMETHOXYPHENYL)ETHENYL)-,1-(DIHYDROGEN PHOSPHATE); PHENOL, 2-METHOXY-5-((Z)-2-(3,4,5-TRIMETHOXYPHENYL)ETHENYL)-, DIHYDROGEN PHOSPHATE; Phosbretabulin

$$$$
