
     RDKit          3D

 11 12  0  0  0  0  0  0  0  0999 V2000
    0.9433   -0.2683   -0.0758 N   0  0  0  0  0  0  0  0  0  0  0  0
    0.2607   -0.2876   -1.2581 C   0  0  0  0  0  0  0  0  0  0  0  0
   -0.7636    0.4939   -1.4650 N   0  0  0  0  0  0  0  0  0  0  0  0
   -1.4324    0.2499   -2.6734 C   0  0  0  0  0  0  0  0  0  0  0  0
   -2.5954    0.8643   -3.1691 C   0  0  0  0  0  0  0  0  0  0  0  0
   -3.0061    0.0957   -4.2467 C   0  0  0  0  0  0  0  0  0  0  0  0
   -1.9839   -0.7757   -4.5540 N   0  0  0  0  0  0  0  0  0  0  0  0
   -1.0682   -0.7432   -3.5386 C   0  0  0  0  0  0  0  0  0  0  0  0
    0.0643   -1.5660   -3.3137 C   0  0  0  0  0  0  0  0  0  0  0  0
    0.4180   -2.4969   -4.0347 O   0  0  0  0  0  0  0  0  0  0  0  0
    0.7179   -1.2295   -2.1526 N   0  0  0  0  0  0  0  0  0  0  0  0
  1  2  1  0
  2  3  2  0
  2 11  1  0
  3  4  1  0
  4  5  1  0
  4  8  2  0
  5  6  2  0
  6  7  1  0
  7  8  1  0
  8  9  1  0
  9 10  2  0
  9 11  1  0
M  END
>  <DRUGBANK_ID>  (1) 
DB04356

>  <SECONDARY_ACCESSION_NUMBERS>  (1) 
EXPT00356

>  <COMMON_NAME>  (1) 
9-Deazaguanine

>  <CAS_NUMBER>  (1) 
65996-58-9

>  <UNII>  (1) 
H2O1DD3CAN

$$$$
