
     RDKit          3D

 28 31  0  0  1  0  0  0  0  0999 V2000
    8.1364    3.9690   -7.4029 C   0  0  0  0  0  0  0  0  0  0  0  0
    4.3606    2.6483   -5.4093 C   0  0  0  0  0  0  0  0  0  0  0  0
    6.4091    4.8556   -8.5870 C   0  0  2  0  0  0  0  0  0  0  0  0
    5.5216    6.6134   -6.2350 C   0  0  0  0  0  0  0  0  0  0  0  0
    7.2278    3.4030   -8.3843 C   0  0  0  0  0  0  0  0  0  0  0  0
    2.4599    4.5295   -6.7355 C   0  0  1  0  0  0  0  0  0  0  0  0
    4.0678    6.2333   -6.2361 C   0  0  0  0  0  0  0  0  0  0  0  0
    2.7199    2.2454   -6.0630 C   0  0  1  0  0  0  0  0  0  0  0  0
    1.5685    3.5477   -6.6436 C   0  0  0  0  0  0  0  0  0  0  0  0
    1.2663    5.3540   -5.7358 C   0  0  0  0  0  0  0  0  0  0  0  0
    0.6156    4.3199   -7.6014 C   0  0  0  0  0  0  0  0  0  0  0  0
   -0.3456    4.4635   -5.8454 C   0  0  0  0  0  0  0  0  0  0  0  0
    5.0472    3.7835   -6.2300 C   0  0  1  0  0  0  0  0  0  0  0  0
    3.9114    4.8049   -5.9540 C   0  0  2  0  0  0  0  0  0  0  0  0
    6.6056    5.6988   -7.0527 C   0  0  2  0  0  0  0  0  0  0  0  0
    7.8735    6.5855   -7.0103 C   0  0  0  0  0  0  0  0  0  0  0  0
    6.8011    4.3969   -6.2754 C   0  0  2  0  0  0  0  0  0  0  0  0
   -0.4299    3.0735   -8.4357 O   0  0  0  0  0  0  0  0  0  0  0  0
   -0.3478    3.4280   -7.2306 C   0  0  0  0  0  0  0  0  0  0  0  0
    2.6493    3.6595   -8.2270 C   0  0  0  0  0  0  0  0  0  0  0  0
    5.0087    4.7067   -8.6948 O   0  0  0  0  0  0  0  0  0  0  0  0
    6.5336    5.1025  -10.1439 C   0  0  0  0  0  0  0  0  0  0  0  0
    5.6631    6.0725  -10.9168 C   0  0  0  0  0  0  0  0  0  0  0  0
    7.1621    4.3150  -10.8699 O   0  0  0  0  0  0  0  0  0  0  0  0
    3.2028    1.0838   -6.9834 C   0  0  0  0  0  0  0  0  0  0  0  0
    4.2780    5.8145   -8.7330 C   0  0  0  0  0  0  0  0  0  0  0  0
    4.7381    7.2366   -8.6117 C   0  0  0  0  0  0  0  0  0  0  0  0
    3.0369    5.7934   -9.0166 O   0  0  0  0  0  0  0  0  0  0  0  0
  2  8  1  0
  3  5  1  0
  3 22  1  0
  3 21  1  6
  4  7  1  0
  5  1  1  0
  6  9  1  0
  6 10  1  0
  6 20  1  6
  8  9  1  0
  8 25  1  6
  9 11  2  0
 10 12  1  0
 11 19  1  0
 12 19  1  0
 13 14  1  0
 13  2  1  1
 14  6  1  0
 14  7  1  6
 15  3  1  0
 15  4  1  0
 15 16  1  6
 17 13  1  0
 17 15  1  0
 17  1  1  6
 19 18  2  0
 21 26  1  0
 22 23  1  0
 22 24  2  0
 26 27  1  0
 26 28  2  0
M  END
>  <DRUGBANK_ID>  (1) 
DB00603

>  <SECONDARY_ACCESSION_NUMBERS>  (1) 
APRD00627

>  <COMMON_NAME>  (1) 
Medroxyprogesterone acetate

>  <CAS_NUMBER>  (1) 
71-58-9

>  <UNII>  (1) 
C2QI4IOI2G

>  <SYNONYMS>  (1) 
(6α)-17-(Acetyloxy)-6-methylpreg-4-ene-3,20-dione; 17-Acetoxy-6α-methylprogesterone; 17α-hydroxy-6α-methylprogesterone acetate; 6-alpha-Methyl-17-alpha-acetoxyprogesterone; 6-alpha-Methyl-17-alpha-hydroxyprogesterone acetate; 6α-Methyl-17-acetoxy progesterone; 6α-Methyl-17α-hydroxyprogesterone acetate; 6α-Methyl-4-pregnene-3,20-dion-17α-ol acetate; Medroxyacetate progesterone; Medroxyprogesterone 17-acetate; Medroxyprogesterone acetate; Methylacetoxyprogesterone; Metigestrona; MPA

$$$$
