SCE
     RDKit          3D

 18 20  0  0  0  0  0  0  0  0999 V2000
    1.5844    1.2066    0.0022 C   0  0  0  0  0  0  0  0  0  0  0  0
    0.2832    0.7498    0.0038 N   0  0  0  0  0  0  0  0  0  0  0  0
    0.3574   -0.6175    0.0104 C   0  0  0  0  0  0  0  0  0  0  0  0
    1.5991   -1.0515    0.0140 N   0  0  0  0  0  0  0  0  0  0  0  0
    2.3650    0.0690    0.0039 C   0  0  0  0  0  0  0  0  0  0  0  0
   -0.9485    1.3711   -0.0002 C   0  0  0  0  0  0  0  0  0  0  0  0
   -2.0512    0.5921   -0.0033 C   0  0  0  0  0  0  0  0  0  0  0  0
   -2.0291   -0.7925    0.0002 N   0  0  0  0  0  0  0  0  0  0  0  0
   -0.8625   -1.4132    0.0122 C   0  0  0  0  0  0  0  0  0  0  0  0
   -0.8802   -2.7863    0.0246 N   0  0  0  0  0  0  0  0  0  0  0  0
    0.2746   -3.6500    0.0010 C   0  0  0  0  0  0  0  0  0  0  0  0
    0.3453   -4.4986    1.2390 C   0  0  0  0  0  0  0  0  0  0  0  0
    1.3739   -4.3338    2.1749 C   0  0  0  0  0  0  0  0  0  0  0  0
    1.4713   -5.2451    3.2138 C   0  0  0  0  0  0  0  0  0  0  0  0
    0.5691   -6.2243    3.4367 N   0  0  0  0  0  0  0  0  0  0  0  0
   -0.4624   -6.3065    2.5696 C   0  0  0  0  0  0  0  0  0  0  0  0
   -0.5938   -5.5070    1.4490 C   0  0  0  0  0  0  0  0  0  0  0  0
    2.0168    2.6146   -0.0008 C   0  0  0  0  0  0  0  0  0  0  0  0
  1  2  1  0
  1 18  1  0
  2  6  1  0
  3  9  1  0
  3  2  1  0
  4  5  1  0
  4  3  2  0
  5  1  2  0
  7  6  2  0
  8  7  1  0
  9  8  2  0
 10 11  1  0
 10  9  1  0
 12 13  2  0
 12 11  1  0
 14 13  1  0
 15 14  2  0
 16 15  1  0
 16 17  2  0
 17 12  1  0
M  END
>  <DRUGBANK_ID>  (1) 
DB08533

>  <COMMON_NAME>  (1) 
3-methyl-N-(pyridin-4-ylmethyl)imidazo[1,2-a]pyrazin-8-amine

$$$$
