1147
     RDKit          3D

 29 32  0  0  1  0  0  0  0  0999 V2000
   -2.1082   -0.1624   -0.1590 Cl  0  0  0  0  0  0  0  0  0  0  0  0
   -3.3924    4.0578    5.9579 S   0  0  0  0  0  0  0  0  0  0  0  0
   -2.1182    6.2698    2.8564 O   0  0  0  0  0  0  0  0  0  0  0  0
   -5.7701    7.9226    5.0439 O   0  0  0  0  0  0  0  0  0  0  0  0
   -3.8474    9.0595    4.9789 O   0  0  0  0  0  0  0  0  0  0  0  0
   -1.1866    1.1845    2.5448 O   0  0  0  0  0  0  0  0  0  0  0  0
   -1.0967    4.2864   -0.8228 O   0  0  0  0  0  0  0  0  0  0  0  0
   -4.0298    5.7280    4.0487 N   0  0  0  0  0  0  0  0  0  0  0  0
   -2.4331    2.8441    3.2275 N   0  0  0  0  0  0  0  0  0  0  0  0
   -0.2236    3.2689   -1.0169 N   0  0  0  0  0  0  0  0  0  0  0  0
   -4.2082    4.2845    4.3504 C   0  0  1  0  0  0  0  0  0  0  0  0
   -3.7801    5.8200    6.4152 C   0  0  0  0  0  0  0  0  0  0  0  0
   -3.6712    6.6372    5.1255 C   0  0  2  0  0  0  0  0  0  0  0  0
   -3.3901    3.9353    3.1053 C   0  0  1  0  0  0  0  0  0  0  0  0
   -2.9589    5.4714    3.2362 C   0  0  0  0  0  0  0  0  0  0  0  0
   -2.7624    6.2547    7.4529 C   0  0  0  0  0  0  0  0  0  0  0  0
   -5.2012    5.7880    6.9563 C   0  0  0  0  0  0  0  0  0  0  0  0
   -4.4197    7.9783    5.0333 C   0  0  0  0  0  0  0  0  0  0  0  0
   -1.6486    2.2909    2.2490 C   0  0  0  0  0  0  0  0  0  0  0  0
   -1.3547    2.9521    0.9704 C   0  0  0  0  0  0  0  0  0  0  0  0
   -0.4098    2.4327    0.0069 C   0  0  0  0  0  0  0  0  0  0  0  0
   -1.8157    4.0898    0.3107 C   0  0  0  0  0  0  0  0  0  0  0  0
    0.3043    1.1732    0.0010 C   0  0  0  0  0  0  0  0  0  0  0  0
   -2.8047    5.1661    0.4189 C   0  0  0  0  0  0  0  0  0  0  0  0
   -0.3792   -0.0507   -0.0483 C   0  0  0  0  0  0  0  0  0  0  0  0
    1.7083    1.1934    0.0046 C   0  0  0  0  0  0  0  0  0  0  0  0
    0.3401   -1.2423   -0.0333 C   0  0  0  0  0  0  0  0  0  0  0  0
    2.4200   -0.0030    0.0110 C   0  0  0  0  0  0  0  0  0  0  0  0
    1.7351   -1.2176    0.0003 C   0  0  0  0  0  0  0  0  0  0  0  0
  1 25  1  0
 11  2  1  1
  2 12  1  0
  3 15  2  0
  4 18  1  0
  5 18  2  0
  6 19  2  0
  7 10  1  0
  7 22  1  0
  8 11  1  0
  8 13  1  0
  8 15  1  0
  9 19  1  0
 10 21  2  0
 11 14  1  0
 12 13  1  0
 12 16  1  0
 12 17  1  0
 13 18  1  1
 14  9  1  1
 14 15  1  0
 19 20  1  0
 20 21  1  0
 20 22  2  0
 21 23  1  0
 22 24  1  0
 23 25  2  0
 23 26  1  0
 25 27  1  0
 26 28  2  0
 27 29  2  0
 28 29  1  0
M  END
>  <DRUGBANK_ID>  (1) 
DB01147

>  <SECONDARY_ACCESSION_NUMBERS>  (1) 
APRD00882; EXPT01068

>  <COMMON_NAME>  (1) 
Cloxacillin

>  <CAS_NUMBER>  (1) 
61-72-3

>  <UNII>  (1) 
O6X5QGC2VB

>  <SYNONYMS>  (1) 
(2S,5R,6R)-6-({[3-(2-chlorophenyl)-5-methylisoxazol-4-yl]carbonyl}amino)-3,3-dimethyl-7-oxo-4-thia-1-azabicyclo[3.2.0]heptane-2-carboxylic acid; (3-(o-chlorophenyl)-5-methyl-4-isoxazolyl)penicillin; 6-(3-(o-chlorophenyl)-5-methyl-4-isoxazolecarboxamido)penicillanic acid; Cloxacilina; Cloxacillin; Cloxacilline; Cloxacillinum

$$$$
