
     RDKit          3D

 36 40  0  0  0  0  0  0  0  0999 V2000
    0.9498   -0.0484   -0.0773 C   0  0  0  0  0  0  0  0  0  0  0  0
    0.2377    0.0351   -1.0833 O   0  0  0  0  0  0  0  0  0  0  0  0
    0.2671   -0.2662    1.2214 C   0  0  0  0  0  0  0  0  0  0  0  0
    0.6593    0.4444    2.3575 C   0  0  0  0  0  0  0  0  0  0  0  0
   -0.8956   -1.0525    1.2566 C   0  0  0  0  0  0  0  0  0  0  0  0
   -0.1034    0.3559    3.5254 C   0  0  0  0  0  0  0  0  0  0  0  0
   -1.6777   -1.1035    2.4113 C   0  0  0  0  0  0  0  0  0  0  0  0
   -1.2628   -0.4375    3.5696 C   0  0  0  0  0  0  0  0  0  0  0  0
    2.3366    0.0065   -0.0770 N   0  0  0  0  0  0  0  0  0  0  0  0
   -2.0755   -0.5534    4.8424 C   0  0  0  0  0  0  0  0  0  0  0  0
   -2.5419    0.7428    5.3248 N   0  0  0  0  0  0  0  0  0  0  0  0
   -4.5065    2.7889    6.1711 N   0  0  0  0  0  0  0  0  0  0  0  0
   -3.7062    1.9929    7.1308 C   0  0  0  0  0  0  0  0  0  0  0  0
   -3.4337    1.3975    4.3490 C   0  0  0  0  0  0  0  0  0  0  0  0
   -3.8367    2.7953    4.8524 C   0  0  0  0  0  0  0  0  0  0  0  0
   -3.2618    0.6075    6.6045 C   0  0  0  0  0  0  0  0  0  0  0  0
   -5.8551    2.2376    6.0476 C   0  0  0  0  0  0  0  0  0  0  0  0
    3.3640    1.2723   -3.4828 C   0  0  0  0  0  0  0  0  0  0  0  0
    4.5169    0.4835   -3.6724 C   0  0  0  0  0  0  0  0  0  0  0  0
    4.8342   -0.5323   -2.7476 C   0  0  0  0  0  0  0  0  0  0  0  0
    4.1595   -0.6497   -1.5332 C   0  0  0  0  0  0  0  0  0  0  0  0
    3.0639    0.1680   -1.2846 C   0  0  0  0  0  0  0  0  0  0  0  0
    2.6762    1.1152   -2.2545 C   0  0  0  0  0  0  0  0  0  0  0  0
    5.5223    0.6886   -4.7712 C   0  0  0  0  0  0  0  0  0  0  0  0
    2.9069    2.2598   -4.3990 N   0  0  0  0  0  0  0  0  0  0  0  0
    3.8746    3.8916   -6.3003 S   0  0  0  0  0  0  0  0  0  0  0  0
    3.2624    2.3748   -5.7098 C   0  0  0  0  0  0  0  0  0  0  0  0
    3.3429    1.3974   -6.5952 N   0  0  0  0  0  0  0  0  0  0  0  0
    4.0934    1.7823   -7.7019 C   0  0  0  0  0  0  0  0  0  0  0  0
    4.4822    3.1054   -7.7048 C   0  0  0  0  0  0  0  0  0  0  0  0
    6.1243   -0.3534  -10.0505 N   0  0  0  0  0  0  0  0  0  0  0  0
    5.1233   -1.0007  -10.6855 C   0  0  0  0  0  0  0  0  0  0  0  0
    5.7602    0.5448   -9.0957 C   0  0  0  0  0  0  0  0  0  0  0  0
    4.4414    0.8362   -8.7503 C   0  0  0  0  0  0  0  0  0  0  0  0
    3.7815   -0.7810  -10.4202 C   0  0  0  0  0  0  0  0  0  0  0  0
    3.4408    0.1499   -9.4381 C   0  0  0  0  0  0  0  0  0  0  0  0
  2  1  2  0
  3  1  1  0
  4  3  2  0
  5  3  1  0
  6  4  1  0
  7  5  2  0
  8  6  2  0
  8  7  1  0
  9  1  1  0
 10  8  1  0
 11 10  1  0
 13 12  1  0
 14 11  1  0
 15 12  1  0
 15 14  1  0
 16 11  1  0
 16 13  1  0
 17 12  1  0
 19 18  2  0
 20 19  1  0
 21 20  2  0
 22  9  1  0
 22 21  1  0
 23 18  1  0
 23 22  2  0
 24 19  1  0
 25 18  1  0
 27 25  1  0
 27 26  1  0
 28 27  2  0
 29 28  1  0
 30 26  1  0
 30 29  2  0
 32 31  2  0
 33 31  1  0
 34 29  1  0
 34 33  2  0
 35 32  1  0
 36 34  1  0
 36 35  2  0
M  END
>  <DRUGBANK_ID>  (1) 
DB11526

>  <COMMON_NAME>  (1) 
Masitinib

>  <CAS_NUMBER>  (1) 
790299-79-5

>  <UNII>  (1) 
M59NC4E26P

>  <SYNONYMS>  (1) 
4-((4-METHYLPIPERAZIN-1-YL)METHYL)-N-(4-METHYL-3-((4-PYRIDIN-3-YL-1,3-THIAZOL-2-YL)AMINO)PHENYL)BENZAMIDE; Masitinib

$$$$
