1299
     RDKit          3D

 21 22  0  0  0  0  0  0  0  0999 V2000
    0.8484   -0.0310    0.5321 S   0  0  0  0  0  0  0  0  0  0  0  0
    0.3367   -0.8154   -0.5722 O   0  0  0  0  0  0  0  0  0  0  0  0
    0.3951   -0.4010    1.8661 O   0  0  0  0  0  0  0  0  0  0  0  0
    2.2387    1.9646   -2.2749 O   0  0  0  0  0  0  0  0  0  0  0  0
    4.2400    3.8362   -1.7238 O   0  0  0  0  0  0  0  0  0  0  0  0
    0.3483    1.5644    0.2043 N   0  0  0  0  0  0  0  0  0  0  0  0
    1.0054    3.6773    0.7624 N   0  0  0  0  0  0  0  0  0  0  0  0
    6.8981   -0.0955   -0.1900 N   0  0  0  0  0  0  0  0  0  0  0  0
    2.9484    4.7443   -0.1086 N   0  0  0  0  0  0  0  0  0  0  0  0
    2.6961   -0.1395    0.5388 C   0  0  0  0  0  0  0  0  0  0  0  0
    1.1648    2.6849   -0.1417 C   0  0  0  0  0  0  0  0  0  0  0  0
    3.4840    1.0039    0.6709 C   0  0  0  0  0  0  0  0  0  0  0  0
    3.3681   -1.3233    0.2016 C   0  0  0  0  0  0  0  0  0  0  0  0
    2.0850    2.7608   -1.1888 C   0  0  0  0  0  0  0  0  0  0  0  0
    4.8499    1.0287    0.3574 C   0  0  0  0  0  0  0  0  0  0  0  0
    4.7866   -1.3224    0.0609 C   0  0  0  0  0  0  0  0  0  0  0  0
    5.5423   -0.1461    0.1434 C   0  0  0  0  0  0  0  0  0  0  0  0
    3.0387    3.7769   -1.0474 C   0  0  0  0  0  0  0  0  0  0  0  0
    1.8965    4.6820    0.7129 C   0  0  0  0  0  0  0  0  0  0  0  0
    1.5917    0.7328   -2.3735 C   0  0  0  0  0  0  0  0  0  0  0  0
    4.6107    2.7597   -2.5876 C   0  0  0  0  0  0  0  0  0  0  0  0
  1  2  2  0
  1  3  2  0
  1  6  1  0
  1 10  1  0
  4 14  1  0
  4 20  1  0
  5 18  1  0
  5 21  1  0
  6 11  1  0
  7 11  2  0
  7 19  1  0
  8 17  1  0
  9 18  1  0
  9 19  2  0
 10 12  2  0
 10 13  1  0
 11 14  1  0
 12 15  1  0
 13 16  2  0
 14 18  2  0
 15 17  2  0
 16 17  1  0
M  END
>  <DRUGBANK_ID>  (1) 
DB01299

>  <COMMON_NAME>  (1) 
Sulfadoxine

>  <CAS_NUMBER>  (1) 
2447-57-6

>  <UNII>  (1) 
88463U4SM5

>  <SYNONYMS>  (1) 
4-Sulfanilamido-5,6-dimethoxypyrimidine; Sulfadoxina; Sulfadoxine; Sulfadoxinum; Sulforthomidine; Sulphadoxine; Sulphormethoxine

$$$$
