
     RDKit          3D

 14 14  0  0  0  0  0  0  0  0999 V2000
    1.0616   -0.0419   -0.0331 C   0  0  0  0  0  0  0  0  0  0  0  0
    0.2957    1.2169   -0.1638 C   0  0  0  0  0  0  0  0  0  0  0  0
   -1.0442    1.2481   -0.1551 C   0  0  0  0  0  0  0  0  0  0  0  0
    0.5122   -1.1361    0.0886 O   0  0  0  0  0  0  0  0  0  0  0  0
    2.4228    0.0351   -0.0599 N   0  0  0  0  0  0  0  0  0  0  0  0
   -1.7811    2.5052   -0.3544 C   0  0  0  0  0  0  0  0  0  0  0  0
    5.0947    0.3484    1.1686 O   0  0  0  0  0  0  0  0  0  0  0  0
    3.2907    1.2014   -0.2032 C   0  0  0  0  0  0  0  0  0  0  0  0
    4.1580    1.4109    1.0333 C   0  0  0  0  0  0  0  0  0  0  0  0
   -1.4044    3.4159   -1.3544 C   0  0  0  0  0  0  0  0  0  0  0  0
   -2.9279    2.7723    0.4001 C   0  0  0  0  0  0  0  0  0  0  0  0
   -3.7091    3.8991    0.1234 C   0  0  0  0  0  0  0  0  0  0  0  0
   -2.1569    4.5663   -1.5957 C   0  0  0  0  0  0  0  0  0  0  0  0
   -3.3124    4.8059   -0.8585 C   0  0  0  0  0  0  0  0  0  0  0  0
  2  1  1  0
  3  2  2  0
  4  1  2  0
  5  1  1  0
  6  3  1  0
  7  9  1  0
  8  5  1  0
  9  8  1  0
 10  6  2  0
 11  6  1  0
 12 11  2  0
 13 10  1  0
 14 12  1  0
 14 13  2  0
M  END
>  <DRUGBANK_ID>  (1) 
DB13297

>  <COMMON_NAME>  (1) 
Idrocilamide

>  <CAS_NUMBER>  (1) 
6961-46-2

>  <UNII>  (1) 
6C816LUB1O

>  <SYNONYMS>  (1) 
Idrocilamide; N-(2-hydroxyethyl)cinnamamide

$$$$
