
     RDKit          3D

 36 38  0  0  0  0  0  0  0  0999 V2000
    1.0958    0.0282   -0.0055 P   0  0  0  0  0  0  0  0  0  0  0  0
   -0.1472   -0.6524   -2.5498 P   0  0  2  0  0  0  0  0  0  0  0  0
   -3.3752   -0.7661   -1.5608 O   0  0  0  0  0  0  0  0  0  0  0  0
    3.7110   -0.5451    2.2486 O   0  0  0  0  0  0  0  0  0  0  0  0
   -4.1174   -0.0649    1.4180 O   0  0  0  0  0  0  0  0  0  0  0  0
   -3.3785   -2.6534    1.5422 O   0  0  0  0  0  0  0  0  0  0  0  0
    1.1966   -0.9385    1.3294 O   0  0  0  0  0  0  0  0  0  0  0  0
    1.8245    3.3680    1.9399 O   0  0  0  0  0  0  0  0  0  0  0  0
    3.6285    2.4008   -0.3045 O   0  0  0  0  0  0  0  0  0  0  0  0
   -0.5500    0.8921   -2.4865 O   0  0  0  0  0  0  0  0  0  0  0  0
    2.6321    1.4742    3.8568 O   0  0  0  0  0  0  0  0  0  0  0  0
    0.8292   -0.9312   -1.2878 O   0  0  0  0  0  0  0  0  0  0  0  0
    5.8859   -1.3081   -0.1756 O   0  0  0  0  0  0  0  0  0  0  0  0
   -0.5606   -2.9148   -0.8228 O   0  0  0  0  0  0  0  0  0  0  0  0
   -0.6342    0.0282   -0.0055 O   0  0  0  0  0  0  0  0  0  0  0  0
    0.8893   -1.1060   -3.6740 O   0  0  0  0  0  0  0  0  0  0  0  0
    2.6441    0.0282   -0.0055 O   0  0  0  0  0  0  0  0  0  0  0  0
   -1.3858   -1.4199   -2.7813 O   0  0  0  0  0  0  0  0  0  0  0  0
   -1.0417   -5.4002   -4.5050 O   0  0  0  0  0  0  0  0  0  0  0  0
   -2.7495   -3.2371   -1.5912 N   0  0  0  0  0  0  0  0  0  0  0  0
   -0.8443   -4.2150   -2.5924 N   0  0  0  0  0  0  0  0  0  0  0  0
   -2.8673   -0.3068    0.7479 C   0  0  1  0  0  0  0  0  0  0  0  0
   -2.7681   -1.8327    0.5489 C   0  0  2  0  0  0  0  0  0  0  0  0
   -2.8584    0.3312   -0.7432 C   0  0  1  0  0  0  0  0  0  0  0  0
   -3.3738   -2.0693   -0.8372 C   0  0  1  0  0  0  0  0  0  0  0  0
    2.1239    2.0095    1.6095 C   0  0  1  0  0  0  0  0  0  0  0  0
    3.5932    1.7879    1.0129 C   0  0  1  0  0  0  0  0  0  0  0  0
    1.8399    1.0316    2.7520 C   0  0  1  0  0  0  0  0  0  0  0  0
    4.3095    0.2092    1.1495 C   0  0  1  0  0  0  0  0  0  0  0  0
    2.1837   -0.4332    2.3598 C   0  0  2  0  0  0  0  0  0  0  0  0
   -1.6093    1.3264   -1.5266 C   0  0  0  0  0  0  0  0  0  0  0  0
    5.5318    0.0581    0.1686 C   0  0  0  0  0  0  0  0  0  0  0  0
   -1.3656   -3.4548   -1.5842 C   0  0  0  0  0  0  0  0  0  0  0  0
   -3.5357   -4.0702   -2.3832 C   0  0  0  0  0  0  0  0  0  0  0  0
   -3.0117   -4.8785   -3.3131 C   0  0  0  0  0  0  0  0  0  0  0  0
   -1.5556   -4.8583   -3.5659 C   0  0  0  0  0  0  0  0  0  0  0  0
  1 15  1  0
  1 17  2  0
  1 12  1  0
  1  7  1  0
  2 10  1  0
  2 12  1  0
  2 16  1  0
  2 18  2  0
  3 24  1  0
  3 25  1  0
  4 29  1  0
  4 30  1  0
 10 31  1  0
 13 32  1  0
 14 33  2  0
 19 36  2  0
 20 33  1  0
 20 34  1  0
 21 33  1  0
 21 36  1  0
 22  5  1  6
 22 23  1  0
 22 24  1  0
 23  6  1  1
 23 25  1  0
 24 31  1  6
 25 20  1  6
 26  8  1  1
 26 27  1  0
 26 28  1  0
 27  9  1  6
 27 29  1  0
 28 11  1  1
 28 30  1  0
 29 32  1  1
 30  7  1  6
 34 35  2  0
 35 36  1  0
M  END
>  <DRUGBANK_ID>  (1) 
DB02421

>  <SECONDARY_ACCESSION_NUMBERS>  (1) 
EXPT03175

>  <COMMON_NAME>  (1) 
Uridine-5'-diphosphate-mannose

$$$$
