
     RDKit          3D

  8  8  0  0  1  0  0  0  0  0999 V2000
    1.0155   -0.0126    0.0478 C   0  0  0  0  0  0  0  0  0  0  0  0
    0.7880   -3.3141   -2.7665 C   0  0  0  0  0  0  0  0  0  0  0  0
   -0.3057   -2.5283   -3.4179 C   0  0  0  0  0  0  0  0  0  0  0  0
    1.0083   -0.5830   -2.4376 C   0  0  0  0  0  0  0  0  0  0  0  0
   -1.0001    0.4694   -1.3431 C   0  0  0  0  0  0  0  0  0  0  0  0
    0.5174    0.3926   -1.3410 C   0  0  1  0  0  0  0  0  0  0  0  0
    0.4175   -1.9557   -2.2262 C   0  0  0  0  0  0  0  0  0  0  0  0
   -1.6282    1.5150   -1.5156 O   0  0  0  0  0  0  0  0  0  0  0  0
  3  2  1  0
  6  1  1  1
  6  4  1  0
  6  5  1  0
  7  2  1  0
  7  3  1  0
  7  4  1  0
  8  5  2  0
M  END
>  <DRUGBANK_ID>  (1) 
DB03736

>  <SECONDARY_ACCESSION_NUMBERS>  (1) 
EXPT01002

>  <COMMON_NAME>  (1) 
2-Cyclopropylmethylenepropanal

$$$$
