
     RDKit          3D

 26 28  0  0  0  0  0  0  0  0999 V2000
    1.2348   -0.0111   -0.0933 C   0  0  0  0  0  0  0  0  0  0  0  0
    0.6278   -1.2950    0.4187 C   0  0  0  0  0  0  0  0  0  0  0  0
   -0.1441   -1.3843    1.5253 C   0  0  0  0  0  0  0  0  0  0  0  0
   -0.6282   -0.2352    2.3041 C   0  0  0  0  0  0  0  0  0  0  0  0
   -1.1486    0.8838    1.6438 C   0  0  0  0  0  0  0  0  0  0  0  0
   -1.5859    2.0000    2.3499 C   0  0  0  0  0  0  0  0  0  0  0  0
   -1.6238    1.9774    3.7470 C   0  0  0  0  0  0  0  0  0  0  0  0
   -1.2119    0.8145    4.4127 C   0  0  0  0  0  0  0  0  0  0  0  0
   -0.6586   -0.2606    3.6990 C   0  0  0  0  0  0  0  0  0  0  0  0
   -2.0842    3.2322    4.4216 C   0  0  0  0  0  0  0  0  0  0  0  0
   -2.1265    3.1995    5.7740 O   0  0  0  0  0  0  0  0  0  0  0  0
   -2.3806    4.2243    3.8003 O   0  0  0  0  0  0  0  0  0  0  0  0
    0.9186   -2.5203   -0.3678 C   0  0  0  0  0  0  0  0  0  0  0  0
    2.1970   -2.8203   -0.8234 C   0  0  0  0  0  0  0  0  0  0  0  0
    2.4217   -3.9583   -1.6149 C   0  0  0  0  0  0  0  0  0  0  0  0
    1.3784   -4.8446   -1.9704 C   0  0  0  0  0  0  0  0  0  0  0  0
    0.1541   -4.6585   -1.3322 C   0  0  0  0  0  0  0  0  0  0  0  0
   -0.0964   -3.4366   -0.6651 C   0  0  0  0  0  0  0  0  0  0  0  0
   -0.8766   -5.7783   -1.3134 C   0  0  0  0  0  0  0  0  0  0  0  0
   -1.2904   -6.0572    0.1411 C   0  0  0  0  0  0  0  0  0  0  0  0
   -2.0962   -5.3107   -2.1285 C   0  0  0  0  0  0  0  0  0  0  0  0
   -0.2739   -7.1475   -1.7589 C   0  0  0  0  0  0  0  0  0  0  0  0
    0.4352   -7.0663   -3.0737 C   0  0  0  0  0  0  0  0  0  0  0  0
    1.4906   -5.8962   -3.1012 C   0  0  0  0  0  0  0  0  0  0  0  0
    1.0035   -5.2607   -4.4139 C   0  0  0  0  0  0  0  0  0  0  0  0
    2.9848   -6.2425   -3.3071 C   0  0  0  0  0  0  0  0  0  0  0  0
  1  2  1  0
  2  3  2  0
  2 13  1  0
  3  4  1  0
  4  5  2  0
  4  9  1  0
  5  6  1  0
  6  7  2  0
  7  8  1  0
  7 10  1  0
  8  9  2  0
 10 11  1  0
 10 12  2  0
 13 14  2  0
 13 18  1  0
 14 15  1  0
 15 16  2  0
 16 17  1  0
 16 24  1  0
 17 18  2  0
 17 19  1  0
 19 20  1  0
 19 21  1  0
 19 22  1  0
 22 23  1  0
 23 24  1  0
 24 25  1  0
 24 26  1  0
M  END
>  <DRUGBANK_ID>  (1) 
DB02877

>  <SECONDARY_ACCESSION_NUMBERS>  (1) 
EXPT03128

>  <COMMON_NAME>  (1) 
Arotinoid acid

>  <CAS_NUMBER>  (1) 
71441-28-6

>  <UNII>  (1) 
673M8C29UR

>  <SYNONYMS>  (1) 
(E)-4-(2-(5,6,7,8-Tetrahydro-5,5,8,8-tetramethyl-2-naphthalenyl)-1-propen-1-yl)benzoic acid; Arotinoic acid; Arotinoid acid; TTNPB

$$$$
