E1P
     RDKit          3D

 13 13  0  0  0  0  0  0  0  0999 V2000
    0.7681    1.1961   -0.2093 C   0  0  0  0  0  0  0  0  0  0  0  0
   -0.6969    1.2733    0.2392 C   0  0  0  0  0  0  0  0  0  0  0  0
   -1.4892    0.0338   -0.1873 C   0  0  0  0  0  0  0  0  0  0  0  0
   -0.7676   -1.2457    0.2226 C   0  0  0  0  0  0  0  0  0  0  0  0
    0.6739   -1.2378   -0.2718 C   0  0  0  0  0  0  0  0  0  0  0  0
    1.3791   -0.0613    0.2328 N   0  0  0  0  0  0  0  0  0  0  0  0
    2.5042   -0.0562    1.0897 C   0  0  0  0  0  0  0  0  0  0  0  0
    3.0148    0.9862    1.4960 O   0  0  0  0  0  0  0  0  0  0  0  0
    3.1341   -1.4310    1.5365 C   0  0  0  0  0  0  0  0  0  0  0  0
    2.7573   -2.5149    1.1152 O   0  0  0  0  0  0  0  0  0  0  0  0
    4.1415   -1.3012    2.4332 O   0  0  0  0  0  0  0  0  0  0  0  0
    4.7317   -2.5542    2.8548 C   0  0  0  0  0  0  0  0  0  0  0  0
    3.7653   -3.3918    3.6867 C   0  0  0  0  0  0  0  0  0  0  0  0
  1  2  1  0
  1  6  1  0
  2  3  1  0
  3  4  1  0
  4  5  1  0
  5  6  1  0
  6  7  1  0
  7  8  2  0
  7  9  1  0
  9 10  2  0
  9 11  1  0
 11 12  1  0
 12 13  1  0
M  END
>  <DRUGBANK_ID>  (1) 
DB02419

>  <SECONDARY_ACCESSION_NUMBERS>  (1) 
EXPT01313

>  <COMMON_NAME>  (1) 
Ethyl Oxo(Piperidin-1-Yl)Acetate

>  <CAS_NUMBER>  (1) 
53074-96-7

>  <UNII>  (1) 
D7IIF4X1TU

$$$$
