
     RDKit          3D

 14 13  0  0  0  0  0  0  0  0999 V2000
    0.9150    0.1787    0.1163 O   0  0  0  0  0  0  0  0  0  0  0  0
    2.1228    0.0762    0.1107 C   0  0  0  0  0  0  0  0  0  0  0  0
    2.9181    1.1037    0.5189 O   0  0  0  0  0  0  0  0  0  0  0  0
    2.8960   -1.1501   -0.4291 C   0  0  1  0  0  0  0  0  0  0  0  0
    2.5838   -2.3697    0.3155 N   0  0  0  0  0  0  0  0  0  0  0  0
    2.5510   -1.3618   -1.9128 C   0  0  0  0  0  0  0  0  0  0  0  0
    2.9801   -0.1618   -2.7399 C   0  0  0  0  0  0  0  0  0  0  0  0
    4.4573    0.1069   -2.5324 C   0  0  0  0  0  0  0  0  0  0  0  0
    5.2500   -0.8321   -3.2513 N   0  0  0  0  0  0  0  0  0  0  0  0
    6.0908   -0.6950   -4.2978 C   0  0  0  0  0  0  0  0  0  0  0  0
    6.7564   -1.6876   -4.8066 N   0  0  0  0  0  0  0  0  0  0  0  0
    6.2934    0.5139   -4.8781 N   0  0  0  0  0  0  0  0  0  0  0  0
    6.6121   -3.0350   -4.2551 C   0  0  0  0  0  0  0  0  0  0  0  0
    5.8029    1.8523   -4.7115 C   0  0  0  0  0  0  0  0  0  0  0  0
  2  1  2  0
  3  2  1  0
  4  2  1  0
  4  5  1  1
  6  4  1  0
  7  6  1  0
  7  8  1  0
  9  8  1  0
 10  9  1  0
 11 10  2  0
 11 13  1  0
 12 10  1  0
 12 14  1  0
M  END
>  <DRUGBANK_ID>  (1) 
DB02302

>  <SECONDARY_ACCESSION_NUMBERS>  (1) 
EXPT00132

>  <COMMON_NAME>  (1) 
Symmetric dimethylarginine

>  <CAS_NUMBER>  (1) 
30344-00-4

>  <UNII>  (1) 
49787G1ULV

>  <SYNONYMS>  (1) 
(S)-2-amino-5-(N',N''-dimethylguanidino)pentanoic acid; Guanidino-N(1),N(2)-dimethylarginine; N(G1),N(G2)-Dimethylarginine; N3,N4-dimethyl-L-arginine; N3,N4-dimethylarginine; NG,N'G-dimethylarginine; SDMA

$$$$
