4823
     RDKit          3D

 24 27  0  0  0  0  0  0  0  0999 V2000
    3.1924    0.1212    0.0111 O   0  0  0  0  0  0  0  0  0  0  0  0
    2.0885   -5.0360   -4.2404 O   0  0  0  0  0  0  0  0  0  0  0  0
    2.5574   -4.3726    4.5821 O   0  0  0  0  0  0  0  0  0  0  0  0
    1.0878    1.0748   -0.0292 N   0  0  0  0  0  0  0  0  0  0  0  0
    1.1216   -1.3356   -0.0433 C   0  0  0  0  0  0  0  0  0  0  0  0
   -0.2919   -0.7410    0.0105 C   0  0  0  0  0  0  0  0  0  0  0  0
    1.9711   -0.0004   -0.0215 C   0  0  0  0  0  0  0  0  0  0  0  0
    1.4194   -2.1136   -1.3529 C   0  0  0  0  0  0  0  0  0  0  0  0
    1.4263   -2.1768    1.2241 C   0  0  0  0  0  0  0  0  0  0  0  0
   -0.2295    0.6506   -0.0161 C   0  0  0  0  0  0  0  0  0  0  0  0
   -1.5225   -1.3849    0.0803 C   0  0  0  0  0  0  0  0  0  0  0  0
   -1.3607    1.4399   -0.0101 C   0  0  0  0  0  0  0  0  0  0  0  0
    2.7363   -2.5579   -1.6188 C   0  0  0  0  0  0  0  0  0  0  0  0
    1.1913   -1.6582    2.5091 C   0  0  0  0  0  0  0  0  0  0  0  0
    0.3925   -2.5855   -2.1855 C   0  0  0  0  0  0  0  0  0  0  0  0
    1.9905   -3.4670    1.1438 C   0  0  0  0  0  0  0  0  0  0  0  0
   -2.6814   -0.6091    0.0499 C   0  0  0  0  0  0  0  0  0  0  0  0
   -2.6003    0.7928    0.0072 C   0  0  0  0  0  0  0  0  0  0  0  0
    2.9801   -3.5546   -2.5665 C   0  0  0  0  0  0  0  0  0  0  0  0
    1.5521   -2.3849    3.6494 C   0  0  0  0  0  0  0  0  0  0  0  0
    0.6420   -3.5459   -3.1589 C   0  0  0  0  0  0  0  0  0  0  0  0
    2.3976   -4.1674    2.2675 C   0  0  0  0  0  0  0  0  0  0  0  0
    1.9233   -4.0440   -3.3229 C   0  0  0  0  0  0  0  0  0  0  0  0
    2.1669   -3.6265    3.5137 C   0  0  0  0  0  0  0  0  0  0  0  0
  1  7  2  0
  2 23  1  0
  3 24  1  0
  4  7  1  0
  4 10  1  0
  5  6  1  0
  5  7  1  0
  5  8  1  0
  5  9  1  0
  6 10  2  0
  6 11  1  0
  8 13  2  0
  8 15  1  0
  9 14  2  0
  9 16  1  0
 10 12  1  0
 11 17  2  0
 12 18  2  0
 13 19  1  0
 14 20  1  0
 15 21  2  0
 16 22  2  0
 17 18  1  0
 19 23  2  0
 20 24  2  0
 21 23  1  0
 22 24  1  0
M  END
>  <DRUGBANK_ID>  (1) 
DB04823

>  <COMMON_NAME>  (1) 
Oxyphenisatin

>  <CAS_NUMBER>  (1) 
125-13-3

>  <UNII>  (1) 
3BT0VQG2GQ

>  <SYNONYMS>  (1) 
1,3-Dihydro-3,3-bis(4-hydroxyphenyl)-2H-indol-2-one; 3,3-Bis(4-hydroxyphenyl)oxindole; 3,3-Bis(p-hydroxyphenyl)-2-indolinone; 3,3-Bis(p-hydroxyphenyl)oxindole; 4,4'-Dihydroxydiphenylisatin; Dihydroxyphenoloxindol; Oxifenisatina; Oxyphenisatine; Oxyphenisatinum

$$$$
