
     RDKit          3D

 11 11  0  0  0  0  0  0  0  0999 V2000
    0.2199    1.1559    0.1943 C   0  0  0  0  0  0  0  0  0  0  0  0
    0.3155   -1.2459    0.0005 C   0  0  0  0  0  0  0  0  0  0  0  0
    1.6040    1.1932    0.3474 C   0  0  0  0  0  0  0  0  0  0  0  0
    1.7131   -1.1914    0.0479 C   0  0  0  0  0  0  0  0  0  0  0  0
    4.3339    2.0247   -1.3047 C   0  0  0  0  0  0  0  0  0  0  0  0
    4.4328    1.2542    0.0264 C   0  0  0  0  0  0  0  0  0  0  0  0
   -0.4229   -0.0623    0.0402 C   0  0  0  0  0  0  0  0  0  0  0  0
    2.3660    0.0337    0.1812 C   0  0  0  0  0  0  0  0  0  0  0  0
   -2.1360   -0.1037   -0.0863 Cl  0  0  0  0  0  0  0  0  0  0  0  0
    3.0253    2.4462   -1.6717 O   0  0  0  0  0  0  0  0  0  0  0  0
    3.7270    0.0048    0.0456 O   0  0  0  0  0  0  0  0  0  0  0  0
  3  1  2  0
  4  2  1  0
  6  5  1  0
  7  1  1  0
  7  2  2  0
  8  3  1  0
  8  4  2  0
  9  7  1  0
 10  5  1  0
 11  6  1  0
 11  8  1  0
M  END
>  <DRUGBANK_ID>  (1) 
DB11368

>  <COMMON_NAME>  (1) 
Chlorophetanol

>  <CAS_NUMBER>  (1) 
1892-43-9

>  <UNII>  (1) 
Q73I5T98DA

>  <SYNONYMS>  (1) 
2-(4-Chlorophenoxy)ethanol; 2-(4-chlorphenoxy)-ethanol; 2-(p-Chlorophenoxy)ethanol; p-Chlorophenyl glycol ether; p-Chlorophenyl monoglycol ether

$$$$
