LUG
     RDKit          3D

 26 28  0  0  0  0  0  0  0  0999 V2000
    1.4723   -1.4425    0.0144 F   0  0  0  0  0  0  0  0  0  0  0  0
    0.3304   -0.7399    0.0378 C   0  0  0  0  0  0  0  0  0  0  0  0
    0.3776    0.6459    0.0553 C   0  0  0  0  0  0  0  0  0  0  0  0
    1.6032    1.1872    0.0999 F   0  0  0  0  0  0  0  0  0  0  0  0
   -0.8827   -1.3996    0.0358 C   0  0  0  0  0  0  0  0  0  0  0  0
   -2.0666   -0.6530    0.0462 C   0  0  0  0  0  0  0  0  0  0  0  0
   -2.0457    0.7635    0.0413 C   0  0  0  0  0  0  0  0  0  0  0  0
   -3.3084    1.4915   -0.0970 C   0  0  0  0  0  0  0  0  0  0  0  0
   -3.6386    2.3490   -1.0356 N   0  0  0  0  0  0  0  0  0  0  0  0
   -4.9108    2.7714   -0.7471 N   0  0  0  0  0  0  0  0  0  0  0  0
   -5.2778    2.1742    0.3594 C   0  0  0  0  0  0  0  0  0  0  0  0
   -6.4425    2.2802    1.0307 N   0  0  0  0  0  0  0  0  0  0  0  0
   -7.4710    3.1973    0.5366 C   0  0  0  0  0  0  0  0  0  0  0  0
   -8.7917    2.4480    0.2782 C   0  0  0  0  0  0  0  0  0  0  0  0
   -9.3533    1.8841    1.5107 N   0  0  0  0  0  0  0  0  0  0  0  0
   -4.3071    1.3204    0.8435 O   0  0  0  0  0  0  0  0  0  0  0  0
   -0.7939    1.4459    0.0445 C   0  0  0  0  0  0  0  0  0  0  0  0
   -0.7224    2.8727   -0.0575 N   0  0  0  0  0  0  0  0  0  0  0  0
    0.4539    3.6609   -0.0240 C   0  0  0  0  0  0  0  0  0  0  0  0
    1.4297    3.4804   -1.0126 C   0  0  0  0  0  0  0  0  0  0  0  0
    2.7220    3.9818   -0.8487 C   0  0  0  0  0  0  0  0  0  0  0  0
    3.0156    4.7860    0.2490 C   0  0  0  0  0  0  0  0  0  0  0  0
    4.9637    5.4525    0.5320 I   0  0  0  0  0  0  0  0  0  0  0  0
    2.0223    5.1015    1.1738 C   0  0  0  0  0  0  0  0  0  0  0  0
    0.7668    4.4981    1.0578 C   0  0  0  0  0  0  0  0  0  0  0  0
   -0.1235    4.6797    2.0464 F   0  0  0  0  0  0  0  0  0  0  0  0
  1  2  1  0
  2  3  2  0
  2  5  1  0
  3  4  1  0
  3 17  1  0
  5  6  2  0
  6  7  1  0
  7  8  1  0
  7 17  2  0
  8  9  2  0
  8 16  1  0
  9 10  1  0
 10 11  2  0
 11 12  1  0
 11 16  1  0
 12 13  1  0
 13 14  1  0
 14 15  1  0
 17 18  1  0
 18 19  1  0
 19 20  2  0
 19 25  1  0
 20 21  1  0
 21 22  2  0
 22 23  1  0
 22 24  1  0
 24 25  2  0
 25 26  1  0
M  END
>  <DRUGBANK_ID>  (1) 
DB08130

>  <COMMON_NAME>  (1) 
N-(5-{3,4-difluoro-2-[(2-fluoro-4-iodophenyl)amino]phenyl}-1,3,4-oxadiazol-2-yl)ethane-1,2-diamine

$$$$
