
     RDKit          3D

 34 39  0  0  0  0  0  0  0  0999 V2000
    2.3275    0.7257   -0.0360 C   0  0  0  0  0  0  0  0  0  0  0  0
    1.0982    1.3259    0.0636 C   0  0  0  0  0  0  0  0  0  0  0  0
    2.3771   -0.6629   -0.0369 C   0  0  0  0  0  0  0  0  0  0  0  0
   -0.4205   -8.8490   -5.3001 C   0  0  0  0  0  0  0  0  0  0  0  0
   -0.8031   -9.4401   -6.5364 C   0  0  0  0  0  0  0  0  0  0  0  0
   -1.1270    0.1193   -0.9439 C   0  0  0  0  0  0  0  0  0  0  0  0
   -1.2794   -1.3711   -2.2932 C   0  0  0  0  0  0  0  0  0  0  0  0
   -0.4260   -5.2854   -2.8254 C   0  0  0  0  0  0  0  0  0  0  0  0
    1.9442   -5.1267    0.5503 C   0  0  0  0  0  0  0  0  0  0  0  0
   -0.5286   -6.3939   -1.9641 C   0  0  0  0  0  0  0  0  0  0  0  0
    2.0342   -3.6597    1.0140 C   0  0  0  0  0  0  0  0  0  0  0  0
    1.7355   -7.8376   -6.0350 C   0  0  0  0  0  0  0  0  0  0  0  0
   -0.7182   -2.4992   -1.4194 C   0  0  0  0  0  0  0  0  0  0  0  0
    0.9898  -10.3925   -7.4621 C   0  0  0  0  0  0  0  0  0  0  0  0
    1.5980   -3.8537   -4.2665 C   0  0  0  0  0  0  0  0  0  0  0  0
    1.2263   -7.4454   -3.9499 C   0  0  0  0  0  0  0  0  0  0  0  0
    2.5937   -5.5560   -4.9594 C   0  0  0  0  0  0  0  0  0  0  0  0
    0.7917   -8.2577   -5.0377 C   0  0  0  0  0  0  0  0  0  0  0  0
   -0.0547    0.2758   -0.1082 C   0  0  0  0  0  0  0  0  0  0  0  0
    0.2107   -8.5203   -7.0552 C   0  0  2  0  0  0  0  0  0  0  0  0
    1.1267   -5.0021   -3.5314 C   0  0  0  0  0  0  0  0  0  0  0  0
   -0.9671   -3.2031   -3.2300 C   0  0  0  0  0  0  0  0  0  0  0  0
    0.0027   -1.1368   -0.3147 C   0  0  0  0  0  0  0  0  0  0  0  0
    0.7485   -5.1729   -0.3471 C   0  0  1  0  0  0  0  0  0  0  0  0
    1.2490   -1.5002    0.0065 C   0  0  0  0  0  0  0  0  0  0  0  0
    0.1603   -6.5856   -5.8726 C   0  0  1  0  0  0  0  0  0  0  0  0
    1.0524   -3.7686   -0.9314 C   0  0  0  0  0  0  0  0  0  0  0  0
    1.3833  -11.5534   -7.7423 N   0  0  0  0  0  0  0  0  0  0  0  0
    2.5651   -4.2576   -5.1083 N   0  0  0  0  0  0  0  0  0  0  0  0
    0.7126   -6.3917   -1.2088 N   0  0  0  0  0  0  0  0  0  0  0  0
    1.7000   -6.0716   -4.0822 N   0  0  0  0  0  0  0  0  0  0  0  0
    1.3776   -2.8969    0.0607 N   0  0  0  0  0  0  0  0  0  0  0  0
    1.1036   -3.3248   -2.0552 O   0  0  0  0  0  0  0  0  0  0  0  0
   -0.4699   -4.6984   -4.7018 O   0  0  0  0  0  0  0  0  0  0  0  0
  2  1  2  0
  3  1  1  0
  5  4  1  0
  7  6  1  0
 10  8  1  0
 11  9  1  0
 18  4  2  0
 18 12  1  0
 18 16  1  0
 19  2  1  0
 19  6  2  0
 20  5  1  0
 20 26  1  0
 20 14  1  1
 21  8  1  0
 21 15  2  0
 22  7  2  0
 22 13  1  0
 23 13  2  0
 23 19  1  0
 24  9  1  1
 24 27  1  0
 24 30  1  0
 25  3  2  0
 25 23  1  0
 26 12  1  0
 28 14  3  0
 29 15  1  0
 29 17  2  0
 30 10  1  0
 31 16  1  0
 31 17  1  0
 31 21  1  0
 32 11  1  0
 32 25  1  0
 32 27  1  0
 33 27  2  0
 34 22  1  0
 26 34  1  1
M  END
>  <DRUGBANK_ID>  (1) 
DB08676

>  <COMMON_NAME>  (1) 
(20S)-19,20,22,23-TETRAHYDRO-19-OXO-5H,21H-18,20-ETHANO-12,14-ETHENO-6,10-METHENOBENZ[D]IMIDAZO[4,3-L][1,6,9,13]OXATRIAZACYCLONOADECOSINE-9-CARBONITRILE

$$$$
