
     RDKit          3D

  9  8  0  0  1  0  0  0  0  0999 V2000
    0.2232    1.3305   -3.3834 O   0  0  0  0  0  0  0  0  0  0  0  0
    0.5914    2.4681   -2.6175 C   0  0  0  0  0  0  0  0  0  0  0  0
    0.9586    2.3144   -1.1505 C   0  0  2  0  0  0  0  0  0  0  0  0
    0.1986    1.1386   -0.5585 C   0  0  0  0  0  0  0  0  0  0  0  0
    0.3403   -0.2471   -1.1667 C   0  0  0  0  0  0  0  0  0  0  0  0
    0.6326    3.6153   -3.1629 O   0  0  0  0  0  0  0  0  0  0  0  0
    0.6035    3.5426   -0.4252 N   0  0  0  0  0  0  0  0  0  0  0  0
    2.0176   -1.0590   -0.5592 Se  0  0  0  0  0  2  0  0  0  0  0  0
    3.5260    0.0589   -1.1220 C   0  0  0  0  0  0  0  0  0  0  0  0
  1  2  1  0
  2  6  2  0
  3  7  1  1
  3  4  1  0
  3  2  1  0
  4  5  1  0
  5  8  1  0
  8  9  1  0
M  END
>  <DRUGBANK_ID>  (1) 
DB11142

>  <COMMON_NAME>  (1) 
Selenomethionine

>  <CAS_NUMBER>  (1) 
3211-76-5

>  <UNII>  (1) 
964MRK2PEL

$$$$
