29U
     RDKit          3D

 24 25  0  0  0  0  0  0  0  0999 V2000
   -4.0720    0.5645   -1.8287 N   0  0  0  0  0  0  0  0  0  0  0  0
   -4.0260    2.0709   -1.8547 C   0  0  2  0  0  0  0  0  0  0  0  0
   -4.5080    3.0323   -0.6594 C   0  0  0  0  0  0  0  0  0  0  0  0
   -4.4109    4.2291   -0.6617 O   0  0  0  0  0  0  0  0  0  0  0  0
   -5.0075    2.2760    0.3710 N   0  0  0  0  0  0  0  0  0  0  0  0
   -5.2982    2.5792    1.8031 C   0  0  0  0  0  0  0  0  0  0  0  0
   -6.6513    1.9636    2.2320 C   0  0  0  0  0  0  0  0  0  0  0  0
   -7.0777    0.6053    2.1470 C   0  0  0  0  0  0  0  0  0  0  0  0
   -8.3395    0.1480    2.4946 C   0  0  0  0  0  0  0  0  0  0  0  0
   -9.2297    1.0372    3.0382 C   0  0  0  0  0  0  0  0  0  0  0  0
  -10.6085    0.5568    3.3285 C   0  0  0  0  0  0  0  0  0  0  0  0
  -11.5162    1.3370    3.8198 N   0  0  0  0  0  0  0  0  0  0  0  0
  -10.9911   -0.7229    3.0663 N   0  0  0  0  0  0  0  0  0  0  0  0
   -8.8006    2.3580    3.2599 C   0  0  0  0  0  0  0  0  0  0  0  0
   -7.5578    2.8269    2.8126 C   0  0  0  0  0  0  0  0  0  0  0  0
   -4.9403    2.3911   -3.0197 C   0  0  0  0  0  0  0  0  0  0  0  0
   -4.5688    1.3327   -4.0409 C   0  0  0  0  0  0  0  0  0  0  0  0
   -4.2170    0.0991   -3.2133 C   0  0  0  0  0  0  0  0  0  0  0  0
   -3.6722   -0.4182   -0.9239 C   0  0  0  0  0  0  0  0  0  0  0  0
   -3.2488   -0.0872    0.5274 C   0  0  2  0  0  0  0  0  0  0  0  0
   -4.4648   -0.1556    1.3050 N   0  0  0  0  0  0  0  0  0  0  0  0
   -2.0712    0.8871    0.7214 C   0  0  0  0  0  0  0  0  0  0  0  0
   -1.9028    2.3307    0.2678 C   0  0  0  0  0  0  0  0  0  0  0  0
   -3.9036   -1.6135   -1.1687 O   0  0  0  0  0  0  0  0  0  0  0  0
  1 19  1  0
  2  1  1  0
  2  3  1  1
  3  5  1  0
  4  3  2  0
  6  5  1  0
  6  7  1  0
  7  8  2  0
  7 15  1  0
  8  9  1  0
  9 10  2  0
 10 11  1  0
 11 12  2  0
 11 13  1  0
 14 10  1  0
 15 14  2  0
 16  2  1  0
 16 17  1  0
 17 18  1  0
 18  1  1  0
 19 24  2  0
 20 21  1  1
 20 22  1  0
 20 19  1  0
 22 23  1  0
M  END
>  <DRUGBANK_ID>  (1) 
DB06947

>  <COMMON_NAME>  (1) 
1-[(2R)-2-aminobutanoyl]-N-(4-carbamimidoylbenzyl)-L-prolinamide

$$$$
