949
     RDKit          3D

 17 17  0  0  0  0  0  0  0  0999 V2000
    1.0866    0.0990    0.3413 O   0  0  0  0  0  0  0  0  0  0  0  0
   -1.6055    1.6566   -2.6585 O   0  0  0  0  0  0  0  0  0  0  0  0
    2.8526   -0.1810    1.7584 O   0  0  0  0  0  0  0  0  0  0  0  0
   -1.6347   -0.6379   -2.5098 O   0  0  0  0  0  0  0  0  0  0  0  0
    3.1002   -0.5242   -0.4149 N   0  0  0  0  0  0  0  0  0  0  0  0
   -3.4526    0.5677   -1.9840 N   0  0  0  0  0  0  0  0  0  0  0  0
    0.7729    1.4889   -1.8204 C   0  0  0  0  0  0  0  0  0  0  0  0
    2.2162    1.6514   -2.3760 C   0  0  0  0  0  0  0  0  0  0  0  0
    0.4669    0.1968   -0.9872 C   0  0  0  0  0  0  0  0  0  0  0  0
   -0.1989    1.6710   -3.0073 C   0  0  0  0  0  0  0  0  0  0  0  0
    2.8495    2.8845   -2.1863 C   0  0  0  0  0  0  0  0  0  0  0  0
    3.0012    0.5945   -2.8925 C   0  0  0  0  0  0  0  0  0  0  0  0
    4.2430    2.9856   -2.2540 C   0  0  0  0  0  0  0  0  0  0  0  0
    4.3990    0.6485   -2.7350 C   0  0  0  0  0  0  0  0  0  0  0  0
    5.0235    1.8495   -2.4391 C   0  0  0  0  0  0  0  0  0  0  0  0
    2.3638   -0.2273    0.6574 C   0  0  0  0  0  0  0  0  0  0  0  0
   -2.1812    0.4512   -2.4249 C   0  0  0  0  0  0  0  0  0  0  0  0
  1  9  1  0
  1 16  1  0
  2 10  1  0
  2 17  1  0
  3 16  2  0
  4 17  2  0
  5 16  1  0
  6 17  1  0
  7  8  1  0
  7  9  1  0
  7 10  1  0
  8 11  2  0
  8 12  1  0
 11 13  1  0
 12 14  2  0
 13 15  2  0
 14 15  1  0
M  END
>  <DRUGBANK_ID>  (1) 
DB00949

>  <SECONDARY_ACCESSION_NUMBERS>  (1) 
APRD00505

>  <COMMON_NAME>  (1) 
Felbamate

>  <CAS_NUMBER>  (1) 
25451-15-4

>  <UNII>  (1) 
X72RBB02N8

>  <SYNONYMS>  (1) 
2-phenyl-1,3-propanediol dicarbamate; carbamic acid 2-phenyltrimethylene ester; Carbamic acid 3-carbamoyloxy-2-phenyl-propyl ester; Felbamate; Felbamato; Felbamatum

$$$$
