
     RDKit          3D

 20 23  0  0  0  0  0  0  0  0999 V2000
   -0.8500    1.8572   -0.3185 C   0  0  0  0  0  0  0  0  0  0  0  0
   -1.5699    0.6441    0.0987 C   0  0  0  0  0  0  0  0  0  0  0  0
   -1.2417   -0.5928   -0.4492 C   0  0  0  0  0  0  0  0  0  0  0  0
   -0.0463   -0.7755   -1.3458 C   0  0  0  0  0  0  0  0  0  0  0  0
    0.4127    2.1314   -0.6425 C   0  0  0  0  0  0  0  0  0  0  0  0
    1.2221   -0.3558   -0.6553 C   0  0  0  0  0  0  0  0  0  0  0  0
    1.4846    1.0271   -0.3467 C   0  0  0  0  0  0  0  0  0  0  0  0
   -2.0916   -1.6706   -0.1687 C   0  0  0  0  0  0  0  0  0  0  0  0
   -3.2668   -1.4813    0.5639 C   0  0  0  0  0  0  0  0  0  0  0  0
   -3.6222   -0.2339    1.0379 C   0  0  0  0  0  0  0  0  0  0  0  0
   -2.7503    0.8139    0.8335 C   0  0  0  0  0  0  0  0  0  0  0  0
    2.6300    1.1946    0.4567 C   0  0  0  0  0  0  0  0  0  0  0  0
    3.4672    0.0973    0.8597 C   0  0  0  0  0  0  0  0  0  0  0  0
    3.1921   -1.2166    0.4921 C   0  0  0  0  0  0  0  0  0  0  0  0
    2.0596   -1.4417   -0.2555 C   0  0  0  0  0  0  0  0  0  0  0  0
   -1.8054    2.9509   -0.5805 C   0  0  0  0  0  0  0  0  0  0  0  0
   -1.9758    3.1700   -2.0331 N   0  0  0  0  0  0  0  0  0  0  0  0
   -1.0627    4.2979   -2.0778 C   0  0  0  0  0  0  0  0  0  0  0  0
    0.4687    3.6587   -1.3966 C   0  0  0  0  0  0  0  0  0  0  0  0
   -1.3917    2.3196   -3.1147 C   0  0  0  0  0  0  0  0  0  0  0  0
  1  5  2  0
  1  2  1  0
  1 16  1  0
  2  3  2  0
  2 11  1  0
  3  4  1  0
  3  8  1  0
  4  6  1  0
  5  7  1  0
  5 19  1  0
  6  7  2  0
  6 15  1  0
  7 12  1  0
  8  9  2  0
  9 10  1  0
 10 11  2  0
 12 13  2  0
 13 14  1  0
 14 15  2  0
 16 17  1  0
 17 18  1  0
 17 20  1  0
 18 19  1  0
M  END
>  <DRUGBANK_ID>  (1) 
DB09304

>  <COMMON_NAME>  (1) 
Setiptiline

>  <CAS_NUMBER>  (1) 
57262-94-9

>  <UNII>  (1) 
7L38105Z6E

>  <SYNONYMS>  (1) 
Setiptilina; Setiptiline; Setiptilinum

$$$$
