
     RDKit          3D

 16 16  0  0  0  0  0  0  0  0999 V2000
   -1.2188   -1.5951   -0.0931 O   0  0  0  0  0  0  0  0  0  0  0  0
   -1.7237   -0.4340   -0.7682 C   0  0  2  0  0  0  0  0  0  0  0  0
   -0.8701    0.8931   -0.5897 C   0  0  1  0  0  0  0  0  0  0  0  0
   -1.0282    1.6442    0.6425 O   0  0  0  0  0  0  0  0  0  0  0  0
    0.6230    0.6037   -0.6830 C   0  0  1  0  0  0  0  0  0  0  0  0
    1.3549    1.7828   -0.3132 O   0  0  0  0  0  0  0  0  0  0  0  0
    1.0119   -0.5590    0.2409 C   0  0  2  0  0  0  0  0  0  0  0  0
    2.4094   -0.8360    0.1529 O   0  0  0  0  0  0  0  0  0  0  0  0
    0.1968   -1.8041   -0.1295 C   0  0  1  0  0  0  0  0  0  0  0  0
    0.5411   -2.9445    0.8481 C   0  0  0  0  0  0  0  0  0  0  0  0
   -0.2319   -4.1051    0.5485 O   0  0  0  0  0  0  0  0  0  0  0  0
   -3.1241   -0.2655   -0.4246 O   0  0  0  0  0  0  0  0  0  0  0  0
   -1.9363   -0.1139    1.7340 O   0  0  0  0  0  0  0  0  0  0  0  0
   -3.6033    1.7098    0.7693 O   0  0  0  0  0  0  0  0  0  0  0  0
   -3.3480    0.1794    1.2321 P   0  0  0  0  0  0  0  0  0  0  0  0
   -3.5719    0.6243    2.8889 O   0  0  0  0  0  0  0  0  0  0  0  0
  1  9  1  0
  1  2  1  0
  2 12  1  1
  3  2  1  0
  3  4  1  1
  5  3  1  0
  5  6  1  1
  7  5  1  0
  7  8  1  6
  9  7  1  0
  9 10  1  1
 10 11  1  0
 12 15  1  0
 15 13  2  0
 15 14  1  0
 15 16  1  0
M  END
>  <DRUGBANK_ID>  (1) 
DB02867

>  <SECONDARY_ACCESSION_NUMBERS>  (1) 
EXPT02084

>  <COMMON_NAME>  (1) 
D-Mannose 1-phosphate

>  <CAS_NUMBER>  (1) 
27251-84-9

>  <SYNONYMS>  (1) 
D-Mannose 1-phosphate; D-mannose 1-phosphates; Mannose 1-phosphate

$$$$
