
     RDKit          3D

 13 13  0  0  1  0  0  0  0  0999 V2000
    5.3668   -4.5539    0.8406 C   0  0  0  0  0  0  0  0  0  0  0  0
    5.7803   -3.1594   -1.0699 C   0  0  0  0  0  0  0  0  0  0  0  0
    5.5312   -5.6992    0.0488 C   0  0  0  0  0  0  0  0  0  0  0  0
    5.9320   -4.3011   -1.8690 C   0  0  0  0  0  0  0  0  0  0  0  0
    5.0534   -2.0660    1.1401 C   0  0  0  0  0  0  0  0  0  0  0  0
    5.4759   -3.2596    0.2934 C   0  0  0  0  0  0  0  0  0  0  0  0
    5.8003   -5.5674   -1.3093 C   0  0  0  0  0  0  0  0  0  0  0  0
    5.7265   -0.6727    1.0379 C   0  0  2  0  0  0  0  0  0  0  0  0
    5.1772    0.1257   -0.1514 C   0  0  0  0  0  0  0  0  0  0  0  0
    5.9803   -7.2560   -2.5075 I   0  0  0  0  0  0  0  0  0  0  0  0
    7.2020   -0.6634    1.0513 N   0  0  0  0  0  0  0  0  0  0  0  0
    4.5828   -0.3121   -1.1261 O   0  0  0  0  0  0  0  0  0  0  0  0
    5.3913    1.4538   -0.0631 O   0  0  0  0  0  0  0  0  0  0  0  0
  3  1  2  0
  4  2  1  0
  6  1  1  0
  6  2  2  0
  6  5  1  0
  7  3  1  0
  7  4  2  0
  8 11  1  6
  8  9  1  0
  8  5  1  0
 10  7  1  0
 12  9  2  0
 13  9  1  0
M  END
>  <DRUGBANK_ID>  (1) 
DB04713

>  <COMMON_NAME>  (1) 
4-Iodo-D-phenylalanine

>  <CAS_NUMBER>  (1) 
62561-75-5

>  <SYNONYMS>  (1) 
D-p-Iodophenylalanine

$$$$
