
     RDKit          3D

 35 39  0  0  0  0  0  0  0  0999 V2000
    0.9279    0.3661   -0.0954 C   0  0  0  0  0  0  0  0  0  0  0  0
    1.4309    7.5146   -0.7561 C   0  0  0  0  0  0  0  0  0  0  0  0
   -9.7203    3.7912   -1.9513 C   0  0  0  0  0  0  0  0  0  0  0  0
   -9.3988    5.0912   -1.5625 C   0  0  0  0  0  0  0  0  0  0  0  0
   -9.3716    3.3486   -3.2247 C   0  0  0  0  0  0  0  0  0  0  0  0
   -8.7038    5.9425   -2.4341 C   0  0  0  0  0  0  0  0  0  0  0  0
   -8.5992    4.1637   -4.0606 C   0  0  0  0  0  0  0  0  0  0  0  0
   -5.5646    7.6689   -5.3546 C   0  0  0  0  0  0  0  0  0  0  0  0
   -5.6136    6.5890   -3.1315 C   0  0  0  0  0  0  0  0  0  0  0  0
   -4.2147    7.0213   -5.6552 C   0  0  0  0  0  0  0  0  0  0  0  0
   -4.3140    5.8917   -3.4588 C   0  0  0  0  0  0  0  0  0  0  0  0
    0.5354    9.7227   -4.1915 C   0  0  0  0  0  0  0  0  0  0  0  0
   -0.2071    6.1302   -3.9878 C   0  0  0  0  0  0  0  0  0  0  0  0
    0.0965    2.5055   -2.9881 C   0  0  0  0  0  0  0  0  0  0  0  0
    0.6929    1.6539   -1.1088 C   0  0  0  0  0  0  0  0  0  0  0  0
   -8.2875    5.4756   -3.6876 C   0  0  0  0  0  0  0  0  0  0  0  0
   -0.4147    8.8065   -4.0660 C   0  0  0  0  0  0  0  0  0  0  0  0
   -0.1150    6.8900   -2.6925 C   0  0  0  0  0  0  0  0  0  0  0  0
    0.3890    7.7707   -3.4407 C   0  0  0  0  0  0  0  0  0  0  0  0
    1.7680    7.2024   -3.3073 C   0  0  0  0  0  0  0  0  0  0  0  0
   -1.8732    8.6846   -4.3207 C   0  0  0  0  0  0  0  0  0  0  0  0
    1.4174    5.2844   -3.2759 C   0  0  0  0  0  0  0  0  0  0  0  0
   -7.5784    6.3429   -4.6792 C   0  0  0  0  0  0  0  0  0  0  0  0
   -2.5533    7.3626   -3.8302 C   0  0  0  0  0  0  0  0  0  0  0  0
    1.7674    8.8607   -3.8215 N   0  0  0  0  0  0  0  0  0  0  0  0
    0.5227    5.1227   -4.1968 N   0  0  0  0  0  0  0  0  0  0  0  0
    0.0378    1.3830   -2.2691 N   0  0  0  0  0  0  0  0  0  0  0  0
    1.1613    2.9949   -0.9904 N   0  0  0  0  0  0  0  0  0  0  0  0
   -6.3373    6.8743   -4.3638 N   0  0  0  0  0  0  0  0  0  0  0  0
   -3.5760    6.7218   -4.4142 N   0  0  0  0  0  0  0  0  0  0  0  0
    0.9596    3.7513   -2.3923 N   0  0  0  0  0  0  0  0  0  0  0  0
   -2.5515    9.5063   -4.9268 O   0  0  0  0  0  0  0  0  0  0  0  0
   -8.1183    6.5309   -5.7668 O   0  0  0  0  0  0  0  0  0  0  0  0
   -2.2039    6.7687   -2.8199 O   0  0  0  0  0  0  0  0  0  0  0  0
    0.4741    6.5882   -1.4502 O   0  0  0  0  0  0  0  0  0  0  0  0
  4  3  2  0
  5  3  1  0
  6  4  1  0
  7  5  2  0
 10  8  1  0
 11  9  1  0
 15  1  1  0
 16  6  2  0
 16  7  1  0
 17 12  2  0
 18 13  1  0
 19 17  1  0
 19 18  2  0
 20 19  1  0
 21 17  1  0
 22 20  2  0
 23 16  1  0
 24 21  1  0
 25 12  1  0
 25 20  1  0
 26 13  2  0
 26 22  1  0
 27 14  2  0
 27 15  1  0
 28 15  2  0
 29  8  1  0
 29  9  1  0
 29 23  1  0
 30 10  1  0
 30 11  1  0
 30 24  1  0
 31 14  1  0
 31 22  1  0
 31 28  1  0
 32 21  2  0
 33 23  2  0
 34 24  2  0
 35  2  1  0
 35 18  1  0
M  END
>  <DRUGBANK_ID>  (1) 
DB14675

>  <COMMON_NAME>  (1) 
Temsavir

>  <CAS_NUMBER>  (1) 
701213-36-7

>  <UNII>  (1) 
4B6J53W8N3

>  <SYNONYMS>  (1) 
Temsavir

$$$$
