
     RDKit          3D

 24 24  0  0  0  0  0  0  0  0999 V2000
    0.9545   -0.0049   -0.1872 C   0  0  0  0  0  0  0  0  0  0  0  0
    0.5248   -1.4574   -0.0597 C   0  0  0  0  0  0  0  0  0  0  0  0
    1.0224   -2.0480    1.2602 C   0  0  0  0  0  0  0  0  0  0  0  0
    0.4558   -1.2839    2.4602 C   0  0  0  0  0  0  0  0  0  0  0  0
   -1.0757   -1.3115    2.4385 C   0  0  0  0  0  0  0  0  0  0  0  0
   -1.5736   -2.7586    2.5302 C   0  0  0  0  0  0  0  0  0  0  0  0
   -1.0972   -3.3739    3.8470 C   0  0  0  0  0  0  0  0  0  0  0  0
   -1.6177   -2.5104    5.0034 C   0  0  0  0  0  0  0  0  0  0  0  0
   -3.1566   -2.3845    4.9081 C   0  0  0  0  0  0  0  0  0  0  0  0
   -3.8055   -3.7571    4.9487 C   0  0  0  0  0  0  0  0  0  0  0  0
   -3.3679   -4.3802    6.2379 C   0  0  0  0  0  0  0  0  0  0  0  0
   -3.7807   -3.6125    7.4811 C   0  0  0  0  0  0  0  0  0  0  0  0
   -5.2653   -3.8128    7.6760 C   0  0  0  0  0  0  0  0  0  0  0  0
   -5.6973   -5.2835    7.7850 C   0  0  0  0  0  0  0  0  0  0  0  0
   -5.1964   -6.0229    9.0427 N   0  0  0  0  0  0  0  0  0  0  0  0
   -5.6385   -5.2207   10.2647 C   0  0  0  0  0  0  0  0  0  0  0  0
   -5.9387   -7.3552    9.0943 C   0  0  0  0  0  0  0  0  0  0  0  0
   -3.6364   -6.3455    9.1406 C   0  0  0  0  0  0  0  0  0  0  0  0
   -2.9874   -7.1498    8.0252 C   0  0  0  0  0  0  0  0  0  0  0  0
   -1.9816   -6.6423    7.2042 C   0  0  0  0  0  0  0  0  0  0  0  0
   -1.7380   -7.1813    5.9298 C   0  0  0  0  0  0  0  0  0  0  0  0
   -2.2893   -8.4176    5.5964 C   0  0  0  0  0  0  0  0  0  0  0  0
   -3.0253   -9.0874    6.5514 C   0  0  0  0  0  0  0  0  0  0  0  0
   -3.3927   -8.4621    7.7437 C   0  0  0  0  0  0  0  0  0  0  0  0
  1  2  1  0
  2  3  1  0
  3  4  1  0
  4  5  1  0
  5  6  1  0
  6  7  1  0
  7  8  1  0
  8  9  1  0
  9 10  1  0
 10 11  1  0
 11 12  1  0
 12 13  1  0
 13 14  1  0
 14 15  1  0
 15 16  1  0
 15 17  1  0
 15 18  1  0
 18 19  1  0
 19 20  2  0
 19 24  1  0
 20 21  1  0
 21 22  2  0
 22 23  1  0
 23 24  2  0
M  CHG  1  15   1
M  END
>  <DRUGBANK_ID>  (1) 
DB13774

>  <COMMON_NAME>  (1) 
Myristalkonium

>  <CAS_NUMBER>  (1) 
16287-71-1

>  <UNII>  (1) 
I5M8YK41GK

>  <SYNONYMS>  (1) 
Miristalkonium; Myristalkonium cation; Myristalkonium ion; Myristyl-benzalkonium; Tetradecylbenzyldimethylammonium; Zephiramine cation; Zephiramine ion

$$$$
