274
     RDKit          3D

 30 32  0  0  1  0  0  0  0  0999 V2000
    1.8067    0.7996   -1.2129 S   0  0  0  0  0  0  0  0  0  0  0  0
    1.5986   -4.1349    1.8114 S   0  0  0  0  0  0  0  0  0  0  0  0
    0.8891    1.3545    1.5322 S   0  0  0  0  0  0  0  0  0  0  0  0
   -2.1078    1.9887   -1.7306 O   0  0  0  0  0  0  0  0  0  0  0  0
   -2.5604   -0.3816    0.5739 O   0  0  0  0  0  0  0  0  0  0  0  0
   -2.2371   -2.8489   -0.3348 O   0  0  0  0  0  0  0  0  0  0  0  0
   -0.4627   -4.1457   -0.1526 O   0  0  0  0  0  0  0  0  0  0  0  0
   -0.6915    4.5555    1.6490 O   0  0  0  0  0  0  0  0  0  0  0  0
   -0.5690   -0.5183   -0.6024 N   0  0  0  0  0  0  0  0  0  0  0  0
   -1.2462    2.7380    0.4068 N   0  0  0  0  0  0  0  0  0  0  0  0
    1.7213   -1.9146    3.3711 N   0  0  0  0  0  0  0  0  0  0  0  0
    1.9066   -3.6286    4.5472 N   0  0  0  0  0  0  0  0  0  0  0  0
    1.8572   -1.3998    4.5851 N   0  0  0  0  0  0  0  0  0  0  0  0
    1.9418   -2.4741    5.3389 N   0  0  0  0  0  0  0  0  0  0  0  0
    2.5106    2.4313    4.6474 N   0  0  0  0  0  0  0  0  0  0  0  0
    0.0197    0.6564   -1.2330 C   0  0  1  0  0  0  0  0  0  0  0  0
   -1.2043    1.6002   -0.6464 C   0  0  2  0  0  0  0  0  0  0  0  0
   -1.6656    0.1028   -0.0503 C   0  0  0  0  0  0  0  0  0  0  0  0
   -0.0272   -1.7875   -0.4992 C   0  0  0  0  0  0  0  0  0  0  0  0
    1.3336   -1.9578   -0.4432 C   0  0  0  0  0  0  0  0  0  0  0  0
    2.3476   -0.8124   -0.6158 C   0  0  0  0  0  0  0  0  0  0  0  0
    2.0928   -3.2405    0.1916 C   0  0  0  0  0  0  0  0  0  0  0  0
   -0.9064   -3.0141   -0.2687 C   0  0  0  0  0  0  0  0  0  0  0  0
   -0.3315    3.5529    1.0385 C   0  0  0  0  0  0  0  0  0  0  0  0
   -3.4285    2.3773   -1.3696 C   0  0  0  0  0  0  0  0  0  0  0  0
    1.0654    3.0740    1.0627 C   0  0  0  0  0  0  0  0  0  0  0  0
    1.8339   -3.2344    3.2923 C   0  0  0  0  0  0  0  0  0  0  0  0
    0.6097    0.9704    3.2380 C   0  0  0  0  0  0  0  0  0  0  0  0
    1.3264   -1.1383    2.3109 C   0  0  0  0  0  0  0  0  0  0  0  0
    1.6487    1.7689    4.0083 C   0  0  0  0  0  0  0  0  0  0  0  0
 16  1  1  1
  1 21  1  0
  2 22  1  0
  2 27  1  0
  3 26  1  0
  3 28  1  0
  4 25  1  0
  5 18  2  0
  6 23  1  0
  7 23  2  0
  8 24  2  0
  9 16  1  0
  9 18  1  0
  9 19  1  0
 10 24  1  0
 11 13  1  0
 11 27  1  0
 11 29  1  0
 12 14  1  0
 12 27  2  0
 13 14  2  0
 15 30  3  0
 16 17  1  0
 17 18  1  0
 17 10  1  1
 17  4  1  0
 19 20  2  0
 19 23  1  0
 20 21  1  0
 20 22  1  0
 24 26  1  0
 28 30  1  0
M  END
>  <DRUGBANK_ID>  (1) 
DB00274

>  <SECONDARY_ACCESSION_NUMBERS>  (1) 
APRD00852

>  <COMMON_NAME>  (1) 
Cefmetazole

>  <CAS_NUMBER>  (1) 
56796-20-4

>  <UNII>  (1) 
3J962UJT8H

>  <SYNONYMS>  (1) 
(6R,7S)-7-({[(cyanomethyl)sulfanyl]acetyl}amino)-7-methoxy-3-{[(1-methyl-1H-tetrazol-5-yl)sulfanyl]methyl}-8-oxo-5-thia-1-azabicyclo[4.2.0]oct-2-ene-2-carboxylic acid; Cefmetazole; Cefmetazolo; Cefmetazolum

$$$$
