
     RDKit          3D

 37 41  0  0  0  0  0  0  0  0999 V2000
   -0.4496   -7.8117    7.5944 C   0  0  0  0  0  0  0  0  0  0  0  0
   -0.1074   -6.3748    7.4873 N   0  0  0  0  0  0  0  0  0  0  0  0
   -0.4463   -5.4484    8.5310 C   0  0  0  0  0  0  0  0  0  0  0  0
    0.1487   -5.8969    6.2251 C   0  0  0  0  0  0  0  0  0  0  0  0
   -0.5298   -6.5127    5.2612 C   0  0  0  0  0  0  0  0  0  0  0  0
    0.9853   -4.8876    5.7356 C   0  0  0  0  0  0  0  0  0  0  0  0
    1.1796   -4.5945    4.3029 C   0  0  0  0  0  0  0  0  0  0  0  0
    0.6217   -5.3755    3.2890 C   0  0  0  0  0  0  0  0  0  0  0  0
   -0.1826   -6.3505    3.9333 C   0  0  0  0  0  0  0  0  0  0  0  0
    0.5993   -4.8476    1.6751 C   0  0  1  0  0  0  0  0  0  0  0  0
    1.8220   -4.8289    0.6515 C   0  0  0  0  0  0  0  0  0  0  0  0
   -0.6614   -5.1781    0.8281 C   0  0  0  0  0  0  0  0  0  0  0  0
   -0.8992   -4.3791   -0.5048 C   0  0  1  0  0  0  0  0  0  0  0  0
    0.1727   -4.6893   -1.4613 C   0  0  1  0  0  0  0  0  0  0  0  0
    1.5453   -4.1247   -1.0462 C   0  0  2  0  0  0  0  0  0  0  0  0
    2.3437   -4.8723   -2.5917 C   0  0  2  0  0  0  0  0  0  0  0  0
    0.5013   -6.1880   -1.5325 C   0  0  0  0  0  0  0  0  0  0  0  0
    1.9668   -6.2130   -1.9352 C   0  0  0  0  0  0  0  0  0  0  0  0
   -1.8547   -5.5201    1.3696 C   0  0  0  0  0  0  0  0  0  0  0  0
   -2.7062   -4.4010    1.2263 C   0  0  0  0  0  0  0  0  0  0  0  0
   -3.2877   -4.8728   -0.0946 C   0  0  0  0  0  0  0  0  0  0  0  0
   -2.2633   -4.6714   -1.1876 C   0  0  0  0  0  0  0  0  0  0  0  0
   -2.3837   -6.1127    2.5847 C   0  0  0  0  0  0  0  0  0  0  0  0
   -2.7856   -4.8722    3.7575 C   0  0  0  0  0  0  0  0  0  0  0  0
   -2.4436   -3.3601    3.3267 C   0  0  0  0  0  0  0  0  0  0  0  0
   -2.0419   -3.4030    1.9065 C   0  0  0  0  0  0  0  0  0  0  0  0
   -2.4334   -2.3504    3.8137 O   0  0  0  0  0  0  0  0  0  0  0  0
    1.6786   -2.5853   -0.4955 C   0  0  0  0  0  0  0  0  0  0  0  0
    1.9219   -5.8540   -4.1052 C   0  0  0  0  0  0  0  0  0  0  0  0
    0.9493   -5.6850   -4.8692 O   0  0  0  0  0  0  0  0  0  0  0  0
    2.8343   -7.0518   -4.6219 C   0  0  0  0  0  0  0  0  0  0  0  0
    4.2157   -6.9952   -4.3764 O   0  0  0  0  0  0  0  0  0  0  0  0
    2.2220   -3.9347   -3.8551 O   0  0  0  0  0  0  0  0  0  0  0  0
    1.2874   -3.2693   -4.6290 C   0  0  0  0  0  0  0  0  0  0  0  0
    0.3806   -2.4291   -3.8395 C   0  0  0  0  0  0  0  0  0  0  0  0
    1.3293   -3.1753   -5.8573 O   0  0  0  0  0  0  0  0  0  0  0  0
    4.8160   -5.9899   -5.1893 C   0  0  0  0  0  0  0  0  0  0  0  0
  1  2  1  0
  2  3  1  0
  2  4  1  0
  4  6  2  0
  5  4  1  0
  5  9  2  0
  6  7  1  0
  7  8  2  0
  8  9  1  0
 10 12  1  0
 10  8  1  1
 11 10  1  0
 11 15  1  0
 12 13  1  0
 12 19  2  0
 13 14  1  0
 14 17  1  1
 15 14  1  0
 15 28  1  1
 16 15  1  0
 16 18  1  0
 16 29  1  0
 16 33  1  6
 17 18  1  0
 19 20  1  0
 20 21  1  0
 21 22  1  0
 13 22  1  6
 23 19  1  0
 23 24  1  0
 24 25  1  0
 25 26  1  0
 25 27  2  0
 26 20  2  0
 29 30  2  0
 29 31  1  0
 31 32  1  0
 32 37  1  0
 33 34  1  0
 34 35  1  0
 34 36  2  0
M  END
>  <DRUGBANK_ID>  (1) 
DB05253

>  <COMMON_NAME>  (1) 
Telapristone acetate

>  <CAS_NUMBER>  (1) 
198414-31-2

>  <UNII>  (1) 
1K9EYK92PQ

>  <SYNONYMS>  (1) 
17alpha-Acetoxy-11beta-(4-(dimethylamino)phenyl)-21-methoxy-19-norpregna-4,9-dien-3,20-dione; Telapristone acetate

$$$$
