
     RDKit          3D

 22 23  0  0  0  0  0  0  0  0999 V2000
    0.9793   -0.0774   -0.0598 P   0  0  0  0  0  0  0  0  0  0  0  0
    0.9879   -1.5229    0.5702 O   0  0  0  0  0  0  0  0  0  0  0  0
   -2.5811    0.2583   -2.9110 O   0  0  0  0  0  0  0  0  0  0  0  0
    3.6657    0.6461    2.1050 O   0  0  0  0  0  0  0  0  0  0  0  0
    0.9458   -1.2503    3.0335 O   0  0  0  0  0  0  0  0  0  0  0  0
    1.4790    1.7457   -0.3271 O   0  0  0  0  0  0  0  0  0  0  0  0
   -0.7507   -0.0774   -0.0598 O   0  0  0  0  0  0  0  0  0  0  0  0
    2.5276   -0.0774   -0.0598 O   0  0  0  0  0  0  0  0  0  0  0  0
   -0.1240    1.5214    0.7575 N   0  0  0  0  0  0  0  0  0  0  0  0
   -2.0560   -3.3380   -2.4716 N   0  0  0  0  0  0  0  0  0  0  0  0
    3.0690   -0.5052    2.6051 N   0  0  0  0  0  0  0  0  0  0  0  0
   -0.6062   -0.6850   -1.9942 C   0  0  0  0  0  0  0  0  0  0  0  0
   -0.2485    1.1413   -1.2963 C   0  0  0  0  0  0  0  0  0  0  0  0
   -0.1666   -2.1338   -1.4700 C   0  0  0  0  0  0  0  0  0  0  0  0
   -1.8442   -0.8444   -2.6406 C   0  0  0  0  0  0  0  0  0  0  0  0
    0.9647   -2.4705   -0.4740 C   0  0  0  0  0  0  0  0  0  0  0  0
   -2.5042   -2.1158   -2.8633 C   0  0  0  0  0  0  0  0  0  0  0  0
   -0.9059   -3.3455   -1.7874 C   0  0  0  0  0  0  0  0  0  0  0  0
    1.2206    1.1124    1.9193 C   0  0  0  0  0  0  0  0  0  0  0  0
   -3.8247   -2.1361   -3.5927 C   0  0  0  0  0  0  0  0  0  0  0  0
    1.6779   -0.3562    2.6288 C   0  0  0  0  0  0  0  0  0  0  0  0
    2.5807    1.4406    1.7386 C   0  0  0  0  0  0  0  0  0  0  0  0
  1  2  1  0
  1  6  1  0
  1  7  1  0
  1  8  2  0
  2 16  1  0
  3 15  1  0
  4 11  1  0
  4 22  1  0
  5 21  2  0
  9 13  1  0
  9 19  1  0
 10 17  2  0
 10 18  1  0
 11 21  1  0
 12 13  1  0
 12 14  1  0
 12 15  2  0
 14 16  1  0
 14 18  2  0
 15 17  1  0
 17 20  1  0
 19 21  1  0
 19 22  2  0
M  END
>  <DRUGBANK_ID>  (1) 
DB03097

>  <SECONDARY_ACCESSION_NUMBERS>  (1) 
EXPT02617

>  <COMMON_NAME>  (1) 
PMP-hydroxyisoxazole, pyridoxamine-5-phosphate-hydroxyisoxazole

$$$$
