BYS
     RDKit          3D

 25 27  0  0  0  0  0  0  0  0999 V2000
    0.9518   -0.3347   -0.0538 C   0  0  1  0  0  0  0  0  0  0  0  0
    0.3955   -1.7673   -0.0771 C   0  0  0  0  0  0  0  0  0  0  0  0
    0.1365   -2.4245   -1.0695 O   0  0  0  0  0  0  0  0  0  0  0  0
    0.0370   -2.2620    1.1006 O   0  0  0  0  0  0  0  0  0  0  0  0
    0.5382    0.1045   -1.4874 C   0  0  0  0  0  0  0  0  0  0  0  0
   -1.0053   -0.0140   -1.7917 C   0  0  0  0  0  0  0  0  0  0  0  0
   -1.9826   -0.1582   -0.7650 C   0  0  0  0  0  0  0  0  0  0  0  0
   -3.3396    0.1046   -0.9549 C   0  0  0  0  0  0  0  0  0  0  0  0
   -3.7825    0.4930   -2.2023 C   0  0  0  0  0  0  0  0  0  0  0  0
   -2.8607    0.6186   -3.2406 C   0  0  0  0  0  0  0  0  0  0  0  0
   -1.4975    0.2990   -3.0608 C   0  0  0  0  0  0  0  0  0  0  0  0
    0.5129    0.6486    1.1373 C   0  0  1  0  0  0  0  0  0  0  0  0
    1.0763    0.1556    2.5115 C   0  0  0  0  0  0  0  0  0  0  0  0
    1.8981    0.6988    3.1992 O   0  0  0  0  0  0  0  0  0  0  0  0
    0.5031   -0.9885    2.9485 O   0  0  0  0  0  0  0  0  0  0  0  0
    0.9048    2.1925    0.9779 C   0  0  0  0  0  0  0  0  0  0  0  0
    0.4382    3.1060   -0.1775 C   0  0  0  0  0  0  0  0  0  0  0  0
   -0.4461    2.7157   -1.1676 C   0  0  0  0  0  0  0  0  0  0  0  0
   -0.5254    3.3189   -2.4170 C   0  0  0  0  0  0  0  0  0  0  0  0
   -0.8985    2.8315   -3.6322 O   0  0  0  0  0  0  0  0  0  0  0  0
   -1.3104    4.0337   -4.2857 C   0  0  0  0  0  0  0  0  0  0  0  0
   -0.7313    5.1877   -3.6355 O   0  0  0  0  0  0  0  0  0  0  0  0
   -0.2526    4.6279   -2.4901 C   0  0  0  0  0  0  0  0  0  0  0  0
    0.3997    5.2138   -1.4303 C   0  0  0  0  0  0  0  0  0  0  0  0
    0.8660    4.4181   -0.3419 C   0  0  0  0  0  0  0  0  0  0  0  0
  1 12  1  0
  1  5  1  6
  1  2  1  0
  2  3  2  0
  2  4  1  0
  5  6  1  0
  6  7  2  0
  6 11  1  0
  7  8  1  0
  8  9  2  0
  9 10  1  0
 10 11  2  0
 12 13  1  0
 12 16  1  6
 13 14  2  0
 13 15  1  0
 16 17  1  0
 17 18  2  0
 17 25  1  0
 18 19  1  0
 19 20  1  0
 19 23  2  0
 20 21  1  0
 21 22  1  0
 22 23  1  0
 23 24  1  0
 24 25  2  0
M  END
>  <DRUGBANK_ID>  (1) 
DB02450

>  <SECONDARY_ACCESSION_NUMBERS>  (1) 
EXPT00786

>  <COMMON_NAME>  (1) 
2-Benzo[1,3]Dioxol-5-Ylmethyl-3-Benzyl-Succinic Acid

$$$$
