
     RDKit          3D

 35 39  0  0  0  0  0  0  0  0999 V2000
   -0.0364   -0.7352   -0.2603 C   0  0  0  0  0  0  0  0  0  0  0  0
   -1.4322   -1.6330   -0.5312 S   0  0  0  0  0  0  0  0  0  0  0  0
   -2.5063   -0.3745   -0.3441 C   0  0  0  0  0  0  0  0  0  0  0  0
   -3.9176   -0.9883   -0.1080 C   0  0  0  0  0  0  0  0  0  0  0  0
   -4.6293   -0.8229    1.1851 N   0  0  0  0  0  0  0  0  0  0  0  0
   -4.9807    0.5748    1.4284 C   0  0  0  0  0  0  0  0  0  0  0  0
   -3.7773    1.3376    1.9467 C   0  0  0  0  0  0  0  0  0  0  0  0
   -2.9859    0.7518    3.0016 N   0  0  0  0  0  0  0  0  0  0  0  0
   -2.1829    1.6608    3.6805 C   0  0  0  0  0  0  0  0  0  0  0  0
   -1.3898    1.0984    4.8614 C   0  0  1  0  0  0  0  0  0  0  0  0
   -0.0705    1.6032    4.9376 O   0  0  0  0  0  0  0  0  0  0  0  0
   -2.1923    1.4796    6.0931 C   0  0  0  0  0  0  0  0  0  0  0  0
   -2.1919    2.8514    3.4351 O   0  0  0  0  0  0  0  0  0  0  0  0
   -2.6884   -0.6820    2.8156 C   0  0  0  0  0  0  0  0  0  0  0  0
   -3.9814   -1.3852    2.3962 C   0  0  0  0  0  0  0  0  0  0  0  0
   -1.7904    0.8601   -0.4712 C   0  0  0  0  0  0  0  0  0  0  0  0
   -2.4247    2.2642   -0.5202 C   0  0  0  0  0  0  0  0  0  0  0  0
   -0.3005    0.6263   -0.2798 C   0  0  0  0  0  0  0  0  0  0  0  0
    0.7355    1.5295   -0.1297 N   0  0  0  0  0  0  0  0  0  0  0  0
    1.9800    0.9693   -0.0114 C   0  0  0  0  0  0  0  0  0  0  0  0
    3.1820    1.8508    0.0048 C   0  0  0  0  0  0  0  0  0  0  0  0
    4.1892    1.8205   -0.9514 C   0  0  0  0  0  0  0  0  0  0  0  0
    5.3207    2.5951   -0.9554 N   0  0  0  0  0  0  0  0  0  0  0  0
    5.4789    3.4401    0.0658 C   0  0  0  0  0  0  0  0  0  0  0  0
    6.5913    4.2365    0.1048 N   0  0  0  0  0  0  0  0  0  0  0  0
    4.5977    3.5457    1.0637 N   0  0  0  0  0  0  0  0  0  0  0  0
    3.4813    2.7557    1.0051 C   0  0  0  0  0  0  0  0  0  0  0  0
    2.2491   -0.3611    0.0586 N   0  0  0  0  0  0  0  0  0  0  0  0
    1.2436   -1.2712   -0.0635 C   0  0  0  0  0  0  0  0  0  0  0  0
    1.5187   -2.6450   -0.0730 N   0  0  0  0  0  0  0  0  0  0  0  0
    2.1721   -3.1675    1.1359 C   0  0  0  0  0  0  0  0  0  0  0  0
    2.8400   -4.5030    0.7489 C   0  0  0  0  0  0  0  0  0  0  0  0
    1.8917   -5.4690    0.2493 O   0  0  0  0  0  0  0  0  0  0  0  0
    1.2440   -4.9575   -0.9192 C   0  0  0  0  0  0  0  0  0  0  0  0
    0.5483   -3.6494   -0.5923 C   0  0  0  0  0  0  0  0  0  0  0  0
  1  2  1  0
  1 18  2  0
  2  3  1  0
  3  4  1  0
  4  5  1  0
  5  6  1  0
  6  7  1  0
  7  8  1  0
  8  9  1  0
  8 14  1  0
  9 10  1  0
  9 13  2  0
 10 11  1  0
 10 12  1  1
 14 15  1  0
 15  5  1  0
 16  3  2  0
 16 17  1  0
 18 16  1  0
 18 19  1  0
 19 20  2  0
 20 21  1  0
 20 28  1  0
 21 22  2  0
 22 23  1  0
 23 24  2  0
 24 25  1  0
 24 26  1  0
 26 27  2  0
 27 21  1  0
 28 29  2  0
 29 30  1  0
 29  1  1  0
 30 31  1  0
 31 32  1  0
 32 33  1  0
 33 34  1  0
 34 35  1  0
 35 30  1  0
M  END
>  <DRUGBANK_ID>  (1) 
DB12180

>  <COMMON_NAME>  (1) 
Apitolisib

>  <CAS_NUMBER>  (1) 
1032754-93-0

>  <UNII>  (1) 
1C854K1MIJ

>  <SYNONYMS>  (1) 
Apitolisib; Apitolisibum

$$$$
