D8G
     RDKit          3D

 23 26  0  0  0  0  0  0  0  0999 V2000
    1.1426   -0.1656    0.7813 O   0  0  0  0  0  0  0  0  0  0  0  0
    2.2768   -0.1059    0.3174 C   0  0  0  0  0  0  0  0  0  0  0  0
    3.0358   -1.2834    0.1015 C   0  0  0  0  0  0  0  0  0  0  0  0
    2.6262   -2.5844    0.0427 N   0  0  0  0  0  0  0  0  0  0  0  0
    1.2740   -3.0907    0.0428 C   0  0  0  0  0  0  0  0  0  0  0  0
    3.7733   -3.3579    0.0331 C   0  0  0  0  0  0  0  0  0  0  0  0
    4.1416   -4.7300    0.0417 C   0  0  0  0  0  0  0  0  0  0  0  0
    5.5203   -4.8308    0.0388 C   0  0  0  0  0  0  0  0  0  0  0  0
    6.3755   -6.0401    0.0326 C   0  0  0  0  0  0  0  0  0  0  0  0
    6.3617   -3.3370    0.0391 S   0  0  0  0  0  0  0  0  0  0  0  0
    4.8613   -2.5186    0.0168 C   0  0  0  0  0  0  0  0  0  0  0  0
    4.3925   -1.2022    0.0072 C   0  0  0  0  0  0  0  0  0  0  0  0
    5.0819    0.0424    0.0139 C   0  0  0  0  0  0  0  0  0  0  0  0
    4.4009    1.1540   -0.0113 N   0  0  0  0  0  0  0  0  0  0  0  0
    2.9778    1.0783    0.0332 N   0  0  0  0  0  0  0  0  0  0  0  0
    2.2283    2.3280    0.0256 C   0  0  0  0  0  0  0  0  0  0  0  0
    1.3553    2.4819   -1.2068 C   0  0  0  0  0  0  0  0  0  0  0  0
    1.6113    3.5110   -2.1203 C   0  0  0  0  0  0  0  0  0  0  0  0
    0.8378    3.6378   -3.2821 C   0  0  0  0  0  0  0  0  0  0  0  0
   -0.1615    2.7127   -3.5826 C   0  0  0  0  0  0  0  0  0  0  0  0
   -0.4309    1.6952   -2.6914 C   0  0  0  0  0  0  0  0  0  0  0  0
    0.2699    1.6383   -1.4989 C   0  0  0  0  0  0  0  0  0  0  0  0
   -0.2387    0.7806   -0.6172 F   0  0  0  0  0  0  0  0  0  0  0  0
  2  1  2  0
  2  3  1  0
  3  4  1  0
  4  5  1  0
  6  4  1  0
  6  7  1  0
  8  7  2  0
  8  9  1  0
 10  8  1  0
 10 11  1  0
 11  6  2  0
 12  3  2  0
 12 11  1  0
 13 12  1  0
 14 13  2  0
 14 15  1  0
 15  2  1  0
 16 15  1  0
 17 16  1  0
 17 22  1  0
 18 17  2  0
 19 18  1  0
 19 20  2  0
 20 21  1  0
 21 22  2  0
 22 23  1  0
M  END
>  <DRUGBANK_ID>  (1) 
DB07628

>  <COMMON_NAME>  (1) 
6-(2-fluorobenzyl)-2,4-dimethyl-4,6-dihydro-5H-thieno[2',3':4,5]pyrrolo[2,3-d]pyridazin-5-one

$$$$
