
     RDKit          3D

 30 32  0  0  1  0  0  0  0  0999 V2000
   15.2498   -8.7122    8.4736 C   0  0  0  0  0  0  0  0  0  0  0  0
   15.0775   -8.3785    7.0001 C   0  0  0  0  0  0  0  0  0  0  0  0
   13.8867   -7.6450    6.6817 O   0  0  0  0  0  0  0  0  0  0  0  0
   12.7078   -8.3249    6.7819 C   0  0  0  0  0  0  0  0  0  0  0  0
   12.2724   -8.9206    7.9661 C   0  0  0  0  0  0  0  0  0  0  0  0
   11.0314   -9.5368    8.0552 C   0  0  0  0  0  0  0  0  0  0  0  0
   10.1597   -9.5014    6.9793 C   0  0  0  0  0  0  0  0  0  0  0  0
   10.5928   -8.8831    5.7896 C   0  0  0  0  0  0  0  0  0  0  0  0
   11.8492   -8.2822    5.6969 C   0  0  0  0  0  0  0  0  0  0  0  0
    8.7883  -10.1121    7.1454 C   0  0  0  0  0  0  0  0  0  0  0  0
    7.6299   -9.1394    7.2791 C   0  0  0  0  0  0  0  0  0  0  0  0
    7.4369   -8.2125    6.2520 C   0  0  0  0  0  0  0  0  0  0  0  0
    6.2421   -7.5116    5.9494 C   0  0  0  0  0  0  0  0  0  0  0  0
    5.2304   -7.6363    6.9036 C   0  0  0  0  0  0  0  0  0  0  0  0
    5.4559   -8.4704    8.0313 C   0  0  0  0  0  0  0  0  0  0  0  0
    6.6528   -9.1827    8.2485 C   0  0  0  0  0  0  0  0  0  0  0  0
    6.8494   -9.8396    9.5813 C   0  0  0  0  0  0  0  0  0  0  0  0
    3.9839   -7.0803    7.0509 O   0  0  0  0  0  0  0  0  0  0  0  0
    3.6198   -6.0504    6.1789 C   0  0  0  0  0  0  0  0  0  0  0  0
    6.4003   -6.8887    4.5419 C   0  0  1  0  0  0  0  0  0  0  0  0
    6.4449   -7.9667    3.4018 C   0  0  1  0  0  0  0  0  0  0  0  0
    6.9284   -7.3556    2.0730 C   0  0  2  0  0  0  0  0  0  0  0  0
    5.9962   -6.2831    1.4924 C   0  0  1  0  0  0  0  0  0  0  0  0
    5.8911   -5.0825    2.4263 C   0  0  2  0  0  0  0  0  0  0  0  0
    5.3781   -5.5049    4.0718 S   0  0  0  0  0  0  0  0  0  0  0  0
    4.8513   -4.0285    2.0059 C   0  0  0  0  0  0  0  0  0  0  0  0
    5.0801   -3.4658    0.7273 O   0  0  0  0  0  0  0  0  0  0  0  0
    6.5423   -5.8127    0.2496 O   0  0  0  0  0  0  0  0  0  0  0  0
    7.1368   -8.3972    1.1092 O   0  0  0  0  0  0  0  0  0  0  0  0
    7.3739   -9.0506    3.6497 O   0  0  0  0  0  0  0  0  0  0  0  0
  1  2  1  0
  2  3  1  0
  3  4  1  0
  4  5  2  0
  4  9  1  0
  5  6  1  0
  6  7  2  0
  7  8  1  0
  7 10  1  0
  8  9  2  0
 10 11  1  0
 11 12  2  0
 11 16  1  0
 12 13  1  0
 13 14  2  0
 14 15  1  0
 14 18  1  0
 15 16  2  0
 16 17  1  0
 18 19  1  0
 20 21  1  0
 20 25  1  0
 20 13  1  1
 21 22  1  0
 21 30  1  1
 22 23  1  0
 22 29  1  6
 23 24  1  0
 23 28  1  6
 24 25  1  0
 24 26  1  6
 26 27  1  0
M  END
>  <DRUGBANK_ID>  (1) 
DB12214

>  <COMMON_NAME>  (1) 
Luseogliflozin

>  <CAS_NUMBER>  (1) 
898537-18-3

>  <UNII>  (1) 
C596HWF74Z

>  <SYNONYMS>  (1) 
Luseogliflozin

$$$$
