
     RDKit          3D

 14 15  0  0  0  0  0  0  0  0999 V2000
    1.2012   -0.1390    0.0010 C   0  0  0  0  0  0  0  0  0  0  0  0
    0.9250    0.4707    1.3732 C   0  0  0  0  0  0  0  0  0  0  0  0
    1.1352    1.9794    1.4184 C   0  0  0  0  0  0  0  0  0  0  0  0
    0.4561    2.7634    0.2733 C   0  0  0  0  0  0  0  0  0  0  0  0
   -1.0979    2.7461    0.1945 C   0  0  0  0  0  0  0  0  0  0  0  0
   -1.8657    1.5986    0.7586 C   0  0  0  0  0  0  0  0  0  0  0  0
   -2.5008    2.0074    1.9136 C   0  0  0  0  0  0  0  0  0  0  0  0
   -3.0829    1.1149    2.8036 C   0  0  0  0  0  0  0  0  0  0  0  0
   -2.9499   -0.2515    2.5431 C   0  0  0  0  0  0  0  0  0  0  0  0
   -2.3332   -0.6818    1.3617 C   0  0  0  0  0  0  0  0  0  0  0  0
   -1.8843    0.2505    0.4110 C   0  0  0  0  0  0  0  0  0  0  0  0
   -1.5708    3.8574    1.0002 O   0  0  0  0  0  0  0  0  0  0  0  0
   -2.3577    3.4549    2.0441 C   0  0  0  0  0  0  0  0  0  0  0  0
   -2.8404    4.1616    2.8943 O   0  0  0  0  0  0  0  0  0  0  0  0
  1  2  1  0
  2  3  1  0
  3  4  1  0
  4  5  1  0
  5  6  1  0
  5 12  1  0
  6  7  2  0
  6 11  1  0
  7  8  1  0
  7 13  1  0
  8  9  2  0
  9 10  1  0
 10 11  2  0
 12 13  1  0
 13 14  2  0
M  END
>  <DRUGBANK_ID>  (1) 
DB12749

>  <COMMON_NAME>  (1) 
Butylphthalide

>  <CAS_NUMBER>  (1) 
6066-49-5

>  <UNII>  (1) 
822Q956KGM

>  <SYNONYMS>  (1) 
(Â±)-3-BUTYLPHTHALIDE; 3-BUTYLPHTHALIDE; 3-n-butylphthalide; 3-N-BUTYLPHTHALIDE [FHFI]; Butylphthalide; DL-3-n-butylphthalide; PHTHALIDE, 3-BUTYL-

$$$$
