GW9
     RDKit          3D

 19 20  0  0  0  0  0  0  0  0999 V2000
   -1.3713    0.4063    1.6766 Cl  0  0  0  0  0  0  0  0  0  0  0  0
   -0.2067    0.1283    0.4134 C   0  0  0  0  0  0  0  0  0  0  0  0
    0.4732    1.2928    0.0596 C   0  0  0  0  0  0  0  0  0  0  0  0
    1.8426    1.2294   -0.0955 C   0  0  0  0  0  0  0  0  0  0  0  0
    2.4711   -0.0195   -0.0489 C   0  0  0  0  0  0  0  0  0  0  0  0
    3.9360   -0.0548    0.0166 N   0  0  0  0  0  0  0  0  0  0  0  0
    4.4864   -1.1606    0.0575 O   0  0  0  0  0  0  0  0  0  0  0  0
    4.5309    1.0332    0.0532 O   0  0  0  0  0  0  0  0  0  0  0  0
    1.7144   -1.2097   -0.0223 C   0  0  0  0  0  0  0  0  0  0  0  0
    0.3171   -1.1423    0.1402 C   0  0  0  0  0  0  0  0  0  0  0  0
   -0.4852   -2.4226    0.0091 C   0  0  0  0  0  0  0  0  0  0  0  0
    0.1189   -3.4881   -0.0024 O   0  0  0  0  0  0  0  0  0  0  0  0
   -1.8752   -2.4571   -0.1023 N   0  0  0  0  0  0  0  0  0  0  0  0
   -2.7727   -1.4059   -0.3434 C   0  0  0  0  0  0  0  0  0  0  0  0
   -2.4670   -0.4145   -1.2793 C   0  0  0  0  0  0  0  0  0  0  0  0
   -3.1484    0.8018   -1.2552 C   0  0  0  0  0  0  0  0  0  0  0  0
   -4.2215    0.9813   -0.3852 C   0  0  0  0  0  0  0  0  0  0  0  0
   -4.6244   -0.0623    0.4510 C   0  0  0  0  0  0  0  0  0  0  0  0
   -3.8866   -1.2530    0.4932 C   0  0  0  0  0  0  0  0  0  0  0  0
  1  2  1  0
  2  3  2  0
  2 10  1  0
  3  4  1  0
  4  5  2  0
  5  6  1  0
  5  9  1  0
  6  7  1  0
  6  8  2  0
  9 10  2  0
 10 11  1  0
 11 12  2  0
 11 13  1  0
 13 14  1  0
 14 15  2  0
 14 19  1  0
 15 16  1  0
 16 17  2  0
 17 18  1  0
 18 19  2  0
M  CHG  2   6   1   7  -1
M  END
>  <DRUGBANK_ID>  (1) 
DB07863

>  <COMMON_NAME>  (1) 
2-chloro-5-nitro-N-phenylbenzamide

>  <UNII>  (1) 
UM18UZV2YD

$$$$
