
     RDKit          3D

 21 21  0  0  0  0  0  0  0  0999 V2000
    0.9190   -0.0341    0.0478 Hg  0  0  0  0  0  2  0  0  0  0  0  0
    7.1440    0.7564   -2.0985 O   0  0  0  0  0  0  0  0  0  0  0  0
    6.7845   -2.9883   -1.4621 O   0  0  0  0  0  0  0  0  0  0  0  0
    3.0324    1.5412   -1.7641 O   0  0  0  0  0  0  0  0  0  0  0  0
    5.0340   -1.5043   -0.7475 O   0  0  0  0  0  0  0  0  0  0  0  0
    4.2756    0.6433   -1.2465 O   0  0  0  0  0  0  0  0  0  0  0  0
   -1.0610   -0.0341    0.0478 O   0  0  0  0  0  0  0  0  0  0  0  0
    5.5157   -1.0520   -0.9280 N   0  0  0  0  0  0  0  0  0  0  0  0
    6.7280   -1.3070   -3.2020 C   0  0  0  0  0  0  0  0  0  0  0  0
    7.1191   -0.0400   -3.2739 C   0  0  0  0  0  0  0  0  0  0  0  0
    6.3608   -1.8479   -1.8298 C   0  0  0  0  0  0  0  0  0  0  0  0
    6.5430   -2.0678   -4.3445 C   0  0  0  0  0  0  0  0  0  0  0  0
    7.4998    0.5073   -4.4753 C   0  0  0  0  0  0  0  0  0  0  0  0
    7.0787   -1.4825   -5.5160 C   0  0  0  0  0  0  0  0  0  0  0  0
    7.3993   -0.2071   -5.6368 C   0  0  0  0  0  0  0  0  0  0  0  0
    5.0257    0.2670   -1.3533 C   0  0  0  0  0  0  0  0  0  0  0  0
    3.5057    0.2670   -1.3533 C   0  0  0  0  0  0  0  0  0  0  0  0
    6.7519    0.1972   -0.8536 C   0  0  0  0  0  0  0  0  0  0  0  0
    5.3114   -0.2796   -0.9435 C   0  0  0  0  0  0  0  0  0  0  0  0
    2.9990   -0.0341    0.0478 C   0  0  0  0  0  0  0  0  0  0  0  0
    1.6124    1.5412   -1.7641 C   0  0  0  0  0  0  0  0  0  0  0  0
  1  7  1  0
  1 20  1  0
  2 10  1  0
  2 18  1  0
  3 11  2  0
  4 17  1  0
  4 21  1  0
  5 19  2  0
  6 19  1  0
  8 11  1  0
  8 16  1  0
  9 10  2  0
  9 11  1  0
  9 12  1  0
 10 13  1  0
 12 14  2  0
 13 15  2  0
 14 15  1  0
 16 17  1  0
 17 20  1  0
 18 19  1  0
M  END
>  <DRUGBANK_ID>  (1) 
DB09338

>  <COMMON_NAME>  (1) 
Mersalyl

>  <CAS_NUMBER>  (1) 
486-67-9

>  <UNII>  (1) 
7RDI07K19U

>  <SYNONYMS>  (1) 
Acidum mersalylicum; Mersal

$$$$
