
     RDKit          3D

 27 30  0  0  0  0  0  0  0  0999 V2000
   -0.4985    0.5595    0.4554 C   0  0  0  0  0  0  0  0  0  0  0  0
   -0.4764   -0.8412    0.3804 C   0  0  0  0  0  0  0  0  0  0  0  0
   -1.6282   -1.4863   -0.1220 C   0  0  0  0  0  0  0  0  0  0  0  0
   -2.7069   -0.6863   -0.5218 C   0  0  0  0  0  0  0  0  0  0  0  0
   -2.6222    0.6953   -0.4621 C   0  0  0  0  0  0  0  0  0  0  0  0
   -1.5331    1.3161    0.0085 N   0  0  0  0  0  0  0  0  0  0  0  0
    0.7590   -1.6158    0.7912 C   0  0  0  0  0  0  0  0  0  0  0  0
    1.8671   -1.6585   -0.2600 C   0  0  0  0  0  0  0  0  0  0  0  0
    0.6512    1.3495    1.0205 C   0  0  0  0  0  0  0  0  0  0  0  0
    2.7764   -0.4292   -0.3167 C   0  0  0  0  0  0  0  0  0  0  0  0
    1.6056    1.8490   -0.0572 C   0  0  0  0  0  0  0  0  0  0  0  0
    2.1495    0.7808   -1.0083 C   0  0  0  0  0  0  0  0  0  0  0  0
   -3.6961    1.4538   -0.8760 N   0  0  0  0  0  0  0  0  0  0  0  0
   -1.7466   -2.9499   -0.2400 C   0  0  0  0  0  0  0  0  0  0  0  0
   -1.6620   -3.7714    0.9008 C   0  0  0  0  0  0  0  0  0  0  0  0
   -1.6629   -5.1592    0.7915 C   0  0  0  0  0  0  0  0  0  0  0  0
   -1.8135   -5.7449   -0.4587 C   0  0  0  0  0  0  0  0  0  0  0  0
   -1.9538   -4.9607   -1.5991 C   0  0  0  0  0  0  0  0  0  0  0  0
   -1.9141   -3.5696   -1.4920 C   0  0  0  0  0  0  0  0  0  0  0  0
   -1.8205   -7.0770   -0.5650 F   0  0  0  0  0  0  0  0  0  0  0  0
   -3.4652    2.5593   -1.8027 C   0  0  0  0  0  0  0  0  0  0  0  0
   -4.1645    3.8621   -1.3734 C   0  0  0  0  0  0  0  0  0  0  0  0
   -5.5354    3.7137   -0.8471 N   0  0  0  0  0  0  0  0  0  0  0  0
   -5.5045    2.7435    0.2605 C   0  0  0  0  0  0  0  0  0  0  0  0
   -4.9194    1.3611   -0.0830 C   0  0  0  0  0  0  0  0  0  0  0  0
   -6.5701    3.4588   -1.8591 C   0  0  0  0  0  0  0  0  0  0  0  0
   -6.5513    2.1884   -2.7093 C   0  0  0  0  0  0  0  0  0  0  0  0
  1  2  2  0
  1  9  1  0
  2  3  1  0
  2  7  1  0
  3 14  1  0
  3  4  2  0
  4  5  1  0
  5 13  1  0
  5  6  2  0
  6  1  1  0
  7  8  1  0
  8 10  1  0
  9 11  1  0
 10 12  1  0
 11 12  1  0
 13 21  1  0
 14 15  2  0
 15 16  1  0
 16 17  2  0
 17 18  1  0
 17 20  1  0
 18 19  2  0
 19 14  1  0
 21 22  1  0
 22 23  1  0
 23 24  1  0
 23 26  1  0
 24 25  1  0
 25 13  1  0
 26 27  1  0
M  END
>  <DRUGBANK_ID>  (1) 
DB09223

>  <COMMON_NAME>  (1) 
Blonanserin

>  <CAS_NUMBER>  (1) 
132810-10-7

>  <UNII>  (1) 
AQ316B4F8C

>  <SYNONYMS>  (1) 
Blonanserin

$$$$
