
     RDKit          3D

 20 22  0  0  0  0  0  0  0  0999 V2000
    3.6760    0.7008    0.0058 C   0  0  0  0  0  0  0  0  0  0  0  0
    2.4553    1.3558    0.0062 C   0  0  0  0  0  0  0  0  0  0  0  0
    3.7106   -0.6930    0.0037 C   0  0  0  0  0  0  0  0  0  0  0  0
   -0.0031    1.4196   -0.0305 C   0  0  0  0  0  0  0  0  0  0  0  0
   -2.4685    1.3651    0.0061 C   0  0  0  0  0  0  0  0  0  0  0  0
   -3.7299   -0.6862    0.0037 C   0  0  0  0  0  0  0  0  0  0  0  0
    1.2587    0.6236    0.0037 C   0  0  0  0  0  0  0  0  0  0  0  0
   -1.2695    0.6364    0.0038 C   0  0  0  0  0  0  0  0  0  0  0  0
   -3.6992    0.7113    0.0055 C   0  0  0  0  0  0  0  0  0  0  0  0
    2.5203   -1.4317    0.0024 C   0  0  0  0  0  0  0  0  0  0  0  0
   -2.5354   -1.4136    0.0048 C   0  0  0  0  0  0  0  0  0  0  0  0
    1.2792   -0.7800    0.0044 C   0  0  0  0  0  0  0  0  0  0  0  0
   -1.2946   -0.7598    0.0055 C   0  0  0  0  0  0  0  0  0  0  0  0
   -0.0187   -1.5228    0.0019 C   0  0  0  0  0  0  0  0  0  0  0  0
   -4.9184    1.5513    0.0013 C   0  0  0  0  0  0  0  0  0  0  0  0
    2.5866   -2.7956   -0.0065 O   0  0  0  0  0  0  0  0  0  0  0  0
   -2.6531   -2.7791    0.0006 O   0  0  0  0  0  0  0  0  0  0  0  0
   -0.0932   -2.7486   -0.0007 O   0  0  0  0  0  0  0  0  0  0  0  0
   -4.9357    2.7718   -0.0005 O   0  0  0  0  0  0  0  0  0  0  0  0
   -6.0482    0.8290    0.0002 O   0  0  0  0  0  0  0  0  0  0  0  0
  2  1  2  0
  3  1  1  0
  7  2  1  0
  7  4  1  0
  8  4  1  0
  8  5  2  0
  9  5  1  0
  9  6  2  0
 10  3  2  0
 11  6  1  0
 12  7  2  0
 12 10  1  0
 13  8  1  0
 13 11  2  0
 14 12  1  0
 14 13  1  0
 15  9  1  0
 16 10  1  0
 17 11  1  0
 18 14  2  0
 19 15  2  0
 20 15  1  0
M  END
>  <DRUGBANK_ID>  (1) 
DB13175

>  <COMMON_NAME>  (1) 
Rheinanthrone

>  <CAS_NUMBER>  (1) 
480-09-1

>  <UNII>  (1) 
0YQK3WBH32

$$$$
