
     RDKit          3D

 29 32  0  0  0  0  0  0  0  0999 V2000
    1.0389    0.0012   -0.0860 C   0  0  0  0  0  0  0  0  0  0  0  0
    0.5914    0.7688    1.1202 C   0  0  0  0  0  0  0  0  0  0  0  0
    0.0508    0.1116    2.2389 C   0  0  0  0  0  0  0  0  0  0  0  0
   -0.2597    0.7970    3.4295 C   0  0  0  0  0  0  0  0  0  0  0  0
    0.0261    2.1708    3.4504 C   0  0  0  0  0  0  0  0  0  0  0  0
    0.5340    2.7987    2.3256 C   0  0  0  0  0  0  0  0  0  0  0  0
    0.8109    2.1497    1.1328 C   0  0  0  0  0  0  0  0  0  0  0  0
    0.6987    4.1066    2.6869 N   0  0  0  0  0  0  0  0  0  0  0  0
    0.2865    4.2179    3.9867 C   0  0  0  0  0  0  0  0  0  0  0  0
   -0.1051    3.0717    4.4748 N   0  0  0  0  0  0  0  0  0  0  0  0
    0.1425    5.4859    4.6609 C   0  0  0  0  0  0  0  0  0  0  0  0
    0.7243    5.6873    5.8875 C   0  0  0  0  0  0  0  0  0  0  0  0
    0.3290    6.6828    6.7132 N   0  0  0  0  0  0  0  0  0  0  0  0
   -0.7304    7.3937    6.3007 C   0  0  0  0  0  0  0  0  0  0  0  0
   -1.2216    7.3764    5.0815 N   0  0  0  0  0  0  0  0  0  0  0  0
   -0.7867    6.4139    4.2514 C   0  0  0  0  0  0  0  0  0  0  0  0
   -1.4984    6.4469    2.9445 C   0  0  0  0  0  0  0  0  0  0  0  0
   -1.2196    8.3378    7.2133 N   0  0  0  0  0  0  0  0  0  0  0  0
   -1.8135    9.5423    6.6136 C   0  0  0  0  0  0  0  0  0  0  0  0
   -2.5366   10.5708    7.4916 C   0  0  0  0  0  0  0  0  0  0  0  0
   -1.7678   11.3852    8.5783 C   0  0  0  0  0  0  0  0  0  0  0  0
   -0.5369   12.3894    8.3140 C   0  0  0  0  0  0  0  0  0  0  0  0
   -0.1718   12.9820    6.9282 C   0  0  0  0  0  0  0  0  0  0  0  0
    0.0974   11.9343    5.8720 C   0  0  0  0  0  0  0  0  0  0  0  0
    1.0630   10.9088    6.3563 N   0  0  0  0  0  0  0  0  0  0  0  0
    0.9618   10.5290    7.8002 C   0  0  0  0  0  0  0  0  0  0  0  0
    0.7456   11.6746    8.7815 C   0  0  0  0  0  0  0  0  0  0  0  0
    1.1102    9.7863    5.3947 C   0  0  0  0  0  0  0  0  0  0  0  0
   -0.8187    0.0745    4.6184 C   0  0  0  0  0  0  0  0  0  0  0  0
  1  2  1  0
  2  3  2  0
  2  7  1  0
  3  4  1  0
  4  5  2  0
  4 29  1  0
  5  6  1  0
  5 10  1  0
  6  7  2  0
  6  8  1  0
  8  9  1  0
  9 10  2  0
  9 11  1  0
 11 12  2  0
 11 16  1  0
 12 13  1  0
 13 14  2  0
 14 15  1  0
 14 18  1  0
 15 16  2  0
 16 17  1  0
 18 19  1  0
 19 20  1  0
 20 21  1  0
 21 22  1  0
 22 23  1  0
 22 27  1  0
 23 24  1  0
 24 25  1  0
 25 26  1  0
 25 28  1  0
 26 27  1  0
M  END
>  <DRUGBANK_ID>  (1) 
DB12522

>  <COMMON_NAME>  (1) 
Toreforant

>  <CAS_NUMBER>  (1) 
952494-46-1

>  <UNII>  (1) 
U6LA7G393X

>  <SYNONYMS>  (1) 
Toreforant

$$$$
