
     RDKit          3D

  6  5  0  0  0  0  0  0  0  0999 V2000
    0.9917    0.1069   -0.1075 N   0  0  0  0  0  0  0  0  0  0  0  0
    0.2985    0.9552   -0.9366 C   0  0  0  0  0  0  0  0  0  0  0  0
   -1.0448    0.9718   -0.9529 C   0  0  0  0  0  0  0  0  0  0  0  0
    0.9718    1.9279   -1.8873 C   0  0  0  0  0  0  0  0  0  0  0  0
    2.3210    1.8942   -1.8543 O   0  0  0  0  0  0  0  0  0  0  0  0
    0.3674    2.6885   -2.6307 O   0  0  0  0  0  0  0  0  0  0  0  0
  1  2  1  0
  2  3  2  0
  2  4  1  0
  4  5  1  0
  4  6  2  0
M  END
>  <DRUGBANK_ID>  (1) 
DB02688

>  <SECONDARY_ACCESSION_NUMBERS>  (1) 
EXPT01186

>  <COMMON_NAME>  (1) 
2,3-Didehydroalanine

>  <CAS_NUMBER>  (1) 
1948-56-7

>  <UNII>  (1) 
98RA387EKY

$$$$
