LY2
     RDKit          3D

 23 26  0  0  0  0  0  0  0  0999 V2000
   -1.4781    0.0431   -0.2261 N   0  0  0  0  0  0  0  0  0  0  0  0
   -0.7472    1.2462    0.2025 C   0  0  0  0  0  0  0  0  0  0  0  0
   -0.8279   -1.2006    0.2205 C   0  0  0  0  0  0  0  0  0  0  0  0
   -2.6040    0.0722   -1.0361 C   0  0  0  0  0  0  0  0  0  0  0  0
    0.7071    1.1651   -0.2763 C   0  0  0  0  0  0  0  0  0  0  0  0
    1.3460   -0.0340    0.1972 O   0  0  0  0  0  0  0  0  0  0  0  0
    0.6341   -1.1962   -0.2709 C   0  0  0  0  0  0  0  0  0  0  0  0
   -7.4402   -0.2951   -2.3931 C   0  0  0  0  0  0  0  0  0  0  0  0
   -6.3215    0.2620   -3.0063 C   0  0  0  0  0  0  0  0  0  0  0  0
   -7.3021   -0.9421   -1.1644 C   0  0  0  0  0  0  0  0  0  0  0  0
   -5.0710    0.1699   -2.3826 C   0  0  0  0  0  0  0  0  0  0  0  0
   -4.9278   -0.4738   -1.1552 C   0  0  0  0  0  0  0  0  0  0  0  0
   -3.8787    0.7607   -2.9989 C   0  0  0  0  0  0  0  0  0  0  0  0
   -6.0485   -1.0434   -0.5258 C   0  0  0  0  0  0  0  0  0  0  0  0
   -3.7115   -0.5793   -0.5176 O   0  0  0  0  0  0  0  0  0  0  0  0
   -5.9674   -1.6598    0.8059 C   0  0  0  0  0  0  0  0  0  0  0  0
   -5.4951   -0.9120    1.8969 C   0  0  0  0  0  0  0  0  0  0  0  0
   -5.5193   -1.4326    3.1881 C   0  0  0  0  0  0  0  0  0  0  0  0
   -6.4286   -2.9637    1.0388 C   0  0  0  0  0  0  0  0  0  0  0  0
   -6.5039   -3.4654    2.3391 C   0  0  0  0  0  0  0  0  0  0  0  0
   -6.0350   -2.7059    3.4098 C   0  0  0  0  0  0  0  0  0  0  0  0
   -2.6304    0.6898   -2.2268 C   0  0  0  0  0  0  0  0  0  0  0  0
   -3.9161    1.3153   -4.0938 O   0  0  0  0  0  0  0  0  0  0  0  0
  1  2  1  0
  1  3  1  0
  1  4  1  0
  2  5  1  0
  3  7  1  0
  4 15  1  0
  4 22  2  0
  5  6  1  0
  6  7  1  0
  8  9  2  0
  8 10  1  0
  9 11  1  0
 10 14  2  0
 11 12  2  0
 11 13  1  0
 12 14  1  0
 12 15  1  0
 13 22  1  0
 13 23  2  0
 14 16  1  0
 16 17  2  0
 16 19  1  0
 17 18  1  0
 18 21  2  0
 19 20  2  0
 20 21  1  0
M  END
>  <DRUGBANK_ID>  (1) 
DB02656

>  <SECONDARY_ACCESSION_NUMBERS>  (1) 
EXPT02073

>  <COMMON_NAME>  (1) 
LY-294002

>  <CAS_NUMBER>  (1) 
154447-36-6

>  <UNII>  (1) 
31M2U1DVID

>  <SYNONYMS>  (1) 
2-(4-morpholinyl)-8-phenyl-4H-1-benzopyran-4-one

$$$$
