
     RDKit          3D

 10  9  0  0  0  0  0  0  0  0999 V2000
    0.8204   -0.0310   -0.0560 O   0  0  0  0  0  0  0  0  0  0  0  0
    0.2757   -0.8539   -0.9468 C   0  0  0  0  0  0  0  0  0  0  0  0
    0.9572   -1.5331   -1.6943 O   0  0  0  0  0  0  0  0  0  0  0  0
   -1.2563   -0.8332   -1.0046 C   0  0  0  0  0  0  0  0  0  0  0  0
   -1.8808   -0.1585   -0.1926 O   0  0  0  0  0  0  0  0  0  0  0  0
   -1.9171   -1.7473   -1.9837 C   0  0  0  0  0  0  0  0  0  0  0  0
   -1.6478   -1.2779   -3.6745 S   0  0  0  0  0  0  0  0  0  0  0  0
   -0.0896   -1.6261   -3.8921 O   0  0  0  0  0  0  0  0  0  0  0  0
   -2.3851   -2.2008   -4.5118 O   0  0  0  0  0  0  0  0  0  0  0  0
   -1.7958    0.1519   -3.7973 O   0  0  0  0  0  0  0  0  0  0  0  0
  1  2  1  0
  2  3  2  0
  2  4  1  0
  4  5  2  0
  4  6  1  0
  6  7  1  0
  7  8  1  0
  7  9  2  0
  7 10  2  0
M  END
>  <DRUGBANK_ID>  (1) 
DB02156

>  <SECONDARY_ACCESSION_NUMBERS>  (1) 
EXPT02950

>  <COMMON_NAME>  (1) 
Sulfopyruvate

>  <CAS_NUMBER>  (1) 
98022-26-5

>  <UNII>  (1) 
8D5GA7PEG6

$$$$
