
     RDKit          3D

 28 31  0  0  1  0  0  0  0  0999 V2000
    1.0343    0.9788    2.5254 C   0  0  0  0  0  0  0  0  0  0  0  0
    0.4814   -0.0232    1.4885 C   0  0  2  0  0  0  0  0  0  0  0  0
    1.1635    0.1991    0.1212 C   0  0  0  0  0  0  0  0  0  0  0  0
    0.4859    1.2483   -0.7611 C   0  0  0  0  0  0  0  0  0  0  0  0
    0.6189    2.6524   -0.2001 C   0  0  0  0  0  0  0  0  0  0  0  0
    2.0684    3.0433   -0.0911 C   0  0  0  0  0  0  0  0  0  0  0  0
    2.6189    3.0999   -1.5002 C   0  0  0  0  0  0  0  0  0  0  0  0
    2.1584    4.3298    0.7014 C   0  0  0  0  0  0  0  0  0  0  0  0
   -1.0756   -0.1029    1.4564 C   0  0  1  0  0  0  0  0  0  0  0  0
   -1.8951    1.1921    1.1300 C   0  0  0  0  0  0  0  0  0  0  0  0
   -2.9831    0.8154    0.1392 C   0  0  0  0  0  0  0  0  0  0  0  0
   -3.1327   -0.6605    0.3862 C   0  0  2  0  0  0  0  0  0  0  0  0
   -1.7072   -1.2174    0.5433 C   0  0  2  0  0  0  0  0  0  0  0  0
   -1.8417   -2.5866    1.2311 C   0  0  0  0  0  0  0  0  0  0  0  0
   -2.7160   -3.5207    0.3723 C   0  0  0  0  0  0  0  0  0  0  0  0
   -4.0762   -2.8835   -0.0481 C   0  0  1  0  0  0  0  0  0  0  0  0
   -3.9402   -1.4506   -0.6198 C   0  0  1  0  0  0  0  0  0  0  0  0
   -5.2896   -0.7698   -0.8398 C   0  0  0  0  0  0  0  0  0  0  0  0
   -6.3269   -1.6793   -1.3761 C   0  0  0  0  0  0  0  0  0  0  0  0
   -6.1912   -3.0285   -1.4581 C   0  0  0  0  0  0  0  0  0  0  0  0
   -4.9436   -3.7834   -0.9836 C   0  0  2  0  0  0  0  0  0  0  0  0
   -5.3657   -5.0247   -0.1487 C   0  0  0  0  0  0  0  0  0  0  0  0
   -6.4727   -5.8550   -0.7898 C   0  0  0  0  0  0  0  0  0  0  0  0
   -7.6895   -4.9739   -1.0561 C   0  0  1  0  0  0  0  0  0  0  0  0
   -7.3263   -3.8442   -2.0163 C   0  0  0  0  0  0  0  0  0  0  0  0
   -9.0174   -5.9512   -1.7340 Cl  0  0  0  0  0  0  0  0  0  0  0  0
   -4.1512   -4.2391   -2.2313 C   0  0  0  0  0  0  0  0  0  0  0  0
   -0.9986   -1.5210   -0.8055 C   0  0  0  0  0  0  0  0  0  0  0  0
  2  3  1  0
  2  1  1  1
  3  4  1  0
  4  5  1  0
  5  6  1  0
  6  7  1  0
  6  8  1  0
  9  2  1  0
  9 10  1  6
  9 13  1  0
 10 11  1  0
 12 11  1  6
 12 13  1  0
 12 17  1  0
 13 14  1  0
 13 28  1  6
 14 15  1  0
 16 15  1  6
 16 17  1  0
 16 21  1  0
 17 18  1  1
 18 19  1  0
 19 20  2  0
 20 21  1  0
 20 25  1  0
 21 22  1  0
 21 27  1  6
 22 23  1  0
 23 24  1  0
 24 25  1  0
 24 26  1  6
M  END
>  <DRUGBANK_ID>  (1) 
DB14045

>  <SECONDARY_ACCESSION_NUMBERS>  (1) 
DBSALT002201

>  <COMMON_NAME>  (1) 
Cholesteryl chloride

>  <CAS_NUMBER>  (1) 
910-31-6

>  <UNII>  (1) 
39EHZ05V39

>  <SYNONYMS>  (1) 
3-Chlorocholest-5-ene; 3-Chlorocholestene; Cholesterol chloride

$$$$
