
     RDKit          3D

 27 28  0  0  0  0  0  0  0  0999 V2000
    1.0859   -0.0284    0.0425 P   0  0  0  0  0  0  0  0  0  0  0  0
    1.1937   -0.6386   -1.4558 O   0  0  0  0  0  0  0  0  0  0  0  0
    1.0872   -1.1956    1.0346 O   0  0  0  0  0  0  0  0  0  0  0  0
   -3.4586    1.8871   -1.1625 O   0  0  0  0  0  0  0  0  0  0  0  0
   -3.6447   -0.3479   -1.0015 O   0  0  0  0  0  0  0  0  0  0  0  0
    1.1410    0.5587   -5.4518 N   0  0  0  0  0  0  0  0  0  0  0  0
    1.4247    2.6945   -4.3552 N   0  0  0  0  0  0  0  0  0  0  0  0
    2.3895    2.3038   -6.2699 N   0  0  0  0  0  0  0  0  0  0  0  0
   -0.7441   -0.0284    0.0425 C   0  0  0  0  0  0  0  0  0  0  0  0
    2.9159   -0.0284    0.0425 C   0  0  0  0  0  0  0  0  0  0  0  0
   -1.4140    0.5860   -1.2205 C   0  0  0  0  0  0  0  0  0  0  0  0
    3.4902    1.2946   -0.4019 C   0  0  0  0  0  0  0  0  0  0  0  0
    3.0214    2.4224    0.4919 C   0  0  0  0  0  0  0  0  0  0  0  0
   -1.0846   -0.1698   -2.5054 C   0  0  0  0  0  0  0  0  0  0  0  0
   -2.9241    0.6499   -1.0993 C   0  0  0  0  0  0  0  0  0  0  0  0
    3.4666    2.2866    1.9264 C   0  0  0  0  0  0  0  0  0  0  0  0
   -0.4163    0.5209   -3.5206 C   0  0  0  0  0  0  0  0  0  0  0  0
   -1.2531   -1.5476   -2.6392 C   0  0  0  0  0  0  0  0  0  0  0  0
    0.2744   -0.1118   -4.5561 C   0  0  0  0  0  0  0  0  0  0  0  0
   -0.6646   -2.2106   -3.7153 C   0  0  0  0  0  0  0  0  0  0  0  0
    3.6731    3.4212    2.6885 C   0  0  0  0  0  0  0  0  0  0  0  0
    3.6347    1.0658    2.5950 C   0  0  0  0  0  0  0  0  0  0  0  0
    0.0901   -1.4988   -4.6668 C   0  0  0  0  0  0  0  0  0  0  0  0
    4.0016    3.2928    4.0440 C   0  0  0  0  0  0  0  0  0  0  0  0
    3.7989    0.9170    3.9523 C   0  0  0  0  0  0  0  0  0  0  0  0
    4.0431    2.0468    4.6778 C   0  0  0  0  0  0  0  0  0  0  0  0
    1.5778    1.7714   -5.3324 C   0  0  0  0  0  0  0  0  0  0  0  0
  1  2  1  0
  1  3  2  0
  1  9  1  0
  1 10  1  0
  4 15  1  0
  5 15  2  0
  6 19  1  0
  6 27  2  3
  7 27  1  0
  8 27  1  0
 10 12  1  0
 11  9  1  0
 11 14  1  0
 11 15  1  0
 12 13  1  0
 13 16  1  0
 14 17  2  0
 14 18  1  0
 16 21  2  0
 16 22  1  0
 17 19  1  0
 18 20  2  0
 19 23  2  0
 20 23  1  0
 21 24  1  0
 22 25  2  0
 24 26  2  0
 25 26  1  0
M  END
>  <DRUGBANK_ID>  (1) 
DB07182

>  <COMMON_NAME>  (1) 
(2S)-2-(3-Carbamimidamidophenyl)-3-[hydroxy(3-phenylpropyl)phosphoryl]propanoic acid

$$$$
