G15
     RDKit          3D

 31 34  0  0  0  0  0  0  0  0999 V2000
    3.1209   -1.7903   -2.6072 O   0  0  0  0  0  0  0  0  0  0  0  0
    2.5866   -0.7009   -2.3991 C   0  0  0  0  0  0  0  0  0  0  0  0
    1.3582   -0.4397   -2.9931 N   0  0  0  0  0  0  0  0  0  0  0  0
    0.4568   -1.5502   -3.3056 C   0  0  0  0  0  0  0  0  0  0  0  0
    0.2994   -1.7757   -4.8137 C   0  0  0  0  0  0  0  0  0  0  0  0
   -0.0444   -0.5551   -5.4933 O   0  0  0  0  0  0  0  0  0  0  0  0
    0.9938    0.4024   -5.3031 C   0  0  0  0  0  0  0  0  0  0  0  0
    1.1425    0.7356   -3.8278 C   0  0  0  0  0  0  0  0  0  0  0  0
    3.1003    0.3511   -1.3102 C   0  0  2  0  0  0  0  0  0  0  0  0
    2.7116    1.7847   -1.6217 C   0  0  0  0  0  0  0  0  0  0  0  0
    4.5586    0.2857   -1.1347 N   0  0  0  0  0  0  0  0  0  0  0  0
    5.4096    1.4197   -0.8444 C   0  0  0  0  0  0  0  0  0  0  0  0
    6.7997    0.8215   -0.9279 C   0  0  0  0  0  0  0  0  0  0  0  0
    5.1424   -0.8700   -0.6427 C   0  0  0  0  0  0  0  0  0  0  0  0
    4.5318   -1.8915   -0.3626 O   0  0  0  0  0  0  0  0  0  0  0  0
    6.6065   -0.6045   -0.3774 C   0  0  1  0  0  0  0  0  0  0  0  0
    7.5647   -1.5521   -0.9813 N   0  0  0  0  0  0  0  0  0  0  0  0
    7.3427   -3.2299   -0.6278 S   0  0  0  0  0  0  0  0  0  0  0  0
    6.0898   -3.7410   -1.1273 O   0  0  0  0  0  0  0  0  0  0  0  0
    8.5862   -3.8533   -1.0367 O   0  0  0  0  0  0  0  0  0  0  0  0
    7.3042   -3.4255    1.1544 C   0  0  0  0  0  0  0  0  0  0  0  0
    6.4836   -2.7371    1.9844 N   0  0  0  0  0  0  0  0  0  0  0  0
    6.8634   -3.1992    3.1891 N   0  0  0  0  0  0  0  0  0  0  0  0
    8.2895   -4.1329    1.8279 N   0  0  0  0  0  0  0  0  0  0  0  0
    7.9545   -4.0112    3.0909 C   0  0  0  0  0  0  0  0  0  0  0  0
    8.6909   -4.5206    4.2005 C   0  0  0  0  0  0  0  0  0  0  0  0
   10.0447   -4.3517    4.4217 C   0  0  0  0  0  0  0  0  0  0  0  0
   10.4652   -4.9135    5.6632 C   0  0  0  0  0  0  0  0  0  0  0  0
    9.4290   -5.5602    6.2845 C   0  0  0  0  0  0  0  0  0  0  0  0
    7.9606   -5.4413    5.4479 S   0  0  0  0  0  0  0  0  0  0  0  0
    9.5086   -6.4121    7.7734 Cl  0  0  0  0  0  0  0  0  0  0  0  0
  1  2  2  0
  2  3  1  0
  3  4  1  0
  3  8  1  0
  4  5  1  0
  5  6  1  0
  6  7  1  0
  7  8  1  0
  9 10  1  6
  9 11  1  0
  9  2  1  0
 11 12  1  0
 11 14  1  0
 12 13  1  0
 13 16  1  0
 14 15  2  0
 14 16  1  0
 16 17  1  6
 17 18  1  0
 18 20  2  0
 18 21  1  0
 18 19  2  0
 21 22  2  0
 21 24  1  0
 22 23  1  0
 23 25  1  0
 24 25  2  0
 25 26  1  0
 26 27  2  0
 26 30  1  0
 27 28  1  0
 28 29  2  0
 29 30  1  0
 29 31  1  0
M  END
>  <DRUGBANK_ID>  (1) 
DB07804

>  <COMMON_NAME>  (1) 
5-(5-CHLORO-2-THIENYL)-N-{(3S)-1-[(1S)-1-METHYL-2-MORPHOLIN-4-YL-2-OXOETHYL]-2-OXOPYRROLIDIN-3-YL}-1H-1,2,4-TRIAZOLE-3-SULFONAMIDE

$$$$
