
     RDKit          3D

 27 28  0  0  0  0  0  0  0  0999 V2000
    0.7706   -0.4331    0.1849 I   0  0  0  0  0  0  0  0  0  0  0  0
   10.3160    5.2702   -1.7916 Br  0  0  0  0  0  0  0  0  0  0  0  0
    9.4469    0.3274   -3.2531 F   0  0  0  0  0  0  0  0  0  0  0  0
   10.2911    2.8506   -3.5871 F   0  0  0  0  0  0  0  0  0  0  0  0
    4.5873    2.2265   -0.7370 F   0  0  0  0  0  0  0  0  0  0  0  0
    6.4353    0.2392    1.6849 O   0  0  0  0  0  0  0  0  0  0  0  0
    6.5182    3.0441    0.0344 O   0  0  0  0  0  0  0  0  0  0  0  0
    6.9726    1.3800   -3.4002 O   0  0  0  0  0  0  0  0  0  0  0  0
    8.0625    3.1723    2.4675 O   0  0  0  0  0  0  0  0  0  0  0  0
    7.2888   -0.1517   -1.5310 N   0  0  0  0  0  0  0  0  0  0  0  0
    7.0958    1.1912    2.4177 N   0  0  0  0  0  0  0  0  0  0  0  0
    8.7862    0.8065   -1.0137 C   0  0  0  0  0  0  0  0  0  0  0  0
    8.8535    1.9291    0.2574 C   0  0  0  0  0  0  0  0  0  0  0  0
    6.7796    1.8449   -0.6765 C   0  0  2  0  0  0  0  0  0  0  0  0
    7.1446    0.2849    0.5219 C   0  0  0  0  0  0  0  0  0  0  0  0
    5.5393   -0.2962   -1.0350 C   0  0  0  0  0  0  0  0  0  0  0  0
    9.5641    1.1046   -2.1674 C   0  0  0  0  0  0  0  0  0  0  0  0
    9.3816    3.2088   -0.0538 C   0  0  0  0  0  0  0  0  0  0  0  0
    7.0425    2.3350   -2.3181 C   0  0  0  0  0  0  0  0  0  0  0  0
    7.9969    2.0952    1.8121 C   0  0  0  0  0  0  0  0  0  0  0  0
   10.0675    2.4341   -2.3223 C   0  0  0  0  0  0  0  0  0  0  0  0
    9.9501    3.4503   -1.3180 C   0  0  0  0  0  0  0  0  0  0  0  0
    4.5201    0.8842   -0.5137 C   0  0  0  0  0  0  0  0  0  0  0  0
    5.0547   -1.5177   -0.5921 C   0  0  0  0  0  0  0  0  0  0  0  0
    3.3696    0.8013    0.2072 C   0  0  0  0  0  0  0  0  0  0  0  0
    3.6718   -1.5497   -0.1383 C   0  0  0  0  0  0  0  0  0  0  0  0
    2.8413   -0.4266    0.1502 C   0  0  0  0  0  0  0  0  0  0  0  0
  1 27  1  0
  2 22  1  0
  3 17  1  0
  4 21  1  0
  5 23  1  0
  6 11  1  0
  6 15  1  0
  8 19  1  0
  9 20  2  0
 10 12  1  0
 10 16  1  0
 11 20  1  0
 12 13  2  0
 12 17  1  0
 13 18  1  0
 13 20  1  0
 14  7  1  1
 14 15  1  0
 14 19  1  0
 16 23  2  0
 16 24  1  0
 17 21  2  0
 18 22  2  0
 21 22  1  0
 23 25  1  0
 24 26  2  0
 25 27  2  0
 26 27  1  0
M  END
>  <DRUGBANK_ID>  (1) 
DB03115

>  <SECONDARY_ACCESSION_NUMBERS>  (1) 
EXPT00634

>  <COMMON_NAME>  (1) 
5-Bromo-N-[(2S)-2,3-dihydroxypropoxy]-3,4-difluoro-2-[(2-fluoro-4-iodophenyl)amino]benzamide

$$$$
