
     RDKit          3D

 19 21  0  0  0  0  0  0  0  0999 V2000
    1.0147   -0.0963    0.0039 C   0  0  0  0  0  0  0  0  0  0  0  0
    2.1014    6.6842   -6.9614 C   0  0  0  0  0  0  0  0  0  0  0  0
    1.7163    6.3443   -5.6861 C   0  0  0  0  0  0  0  0  0  0  0  0
    1.4933    0.6219   -2.8295 C   0  0  0  0  0  0  0  0  0  0  0  0
    1.9056    0.9892   -4.1263 C   0  0  0  0  0  0  0  0  0  0  0  0
    2.5188    5.6561   -7.7909 C   0  0  0  0  0  0  0  0  0  0  0  0
    1.0218    2.8996   -2.3006 C   0  0  0  0  0  0  0  0  0  0  0  0
    1.3041    4.6928   -3.9294 C   0  0  0  0  0  0  0  0  0  0  0  0
    0.5079    1.2408   -0.5183 C   0  0  0  0  0  0  0  0  0  0  0  0
    1.0372    1.5729   -1.9025 C   0  0  0  0  0  0  0  0  0  0  0  0
    1.7603    5.0067   -5.2935 C   0  0  0  0  0  0  0  0  0  0  0  0
    1.4217    3.2611   -3.5908 C   0  0  0  0  0  0  0  0  0  0  0  0
    1.8647    2.3256   -4.5221 C   0  0  0  0  0  0  0  0  0  0  0  0
    2.1914    4.0249   -6.1728 C   0  0  0  0  0  0  0  0  0  0  0  0
   -1.0097    1.2873   -0.4741 C   0  0  0  0  0  0  0  0  0  0  0  0
    2.5757    4.3396   -7.4335 N   0  0  0  0  0  0  0  0  0  0  0  0
   -1.6849    2.0477    0.2144 O   0  0  0  0  0  0  0  0  0  0  0  0
   -1.6063    0.4006   -1.2940 O   0  0  0  0  0  0  0  0  0  0  0  0
    2.2448    2.6776   -5.8076 O   0  0  0  0  0  0  0  0  0  0  0  0
  3  2  2  0
  5  4  1  0
  6  2  1  0
  9  1  1  0
 10  4  2  0
 10  7  1  0
 10  9  1  0
 11  3  1  0
 11  8  1  0
 12  7  2  0
 12  8  1  0
 13  5  2  0
 13 12  1  0
 14 11  2  0
 15  9  1  0
 16  6  2  0
 16 14  1  0
 17 15  2  0
 18 15  1  0
 19 13  1  0
 19 14  1  0
M  END
>  <DRUGBANK_ID>  (1) 
DB13514

>  <COMMON_NAME>  (1) 
Pranoprofen

>  <CAS_NUMBER>  (1) 
52549-17-4

>  <UNII>  (1) 
2R7O1ET613

>  <SYNONYMS>  (1) 
Pranoprofen

$$$$
