
     RDKit          3D

 17 17  0  0  1  0  0  0  0  0999 V2000
    2.7174   -1.5581    6.1478 C   0  0  0  0  0  0  0  0  0  0  0  0
    1.9763   -0.4980    5.3339 C   0  0  0  0  0  0  0  0  0  0  0  0
    1.6446    0.5969    6.3469 C   0  0  0  0  0  0  0  0  0  0  0  0
    2.8153   -0.0704    4.2033 N   0  0  0  0  0  0  0  0  0  0  0  0
    2.1599    0.8390    3.2495 C   0  0  0  0  0  0  0  0  0  0  0  0
    1.8063    2.1868    3.8302 C   0  0  0  0  0  0  0  0  0  0  0  0
    2.8248    3.0666    4.2202 C   0  0  0  0  0  0  0  0  0  0  0  0
    2.5201    4.2193    4.9372 C   0  0  0  0  0  0  0  0  0  0  0  0
    1.1965    4.4946    5.3035 C   0  0  0  0  0  0  0  0  0  0  0  0
    0.8727    5.7772    6.0309 C   0  0  0  0  0  0  0  0  0  0  0  0
    0.0485    6.7617    5.1642 C   0  0  2  0  0  0  0  0  0  0  0  0
    0.1454    6.4813    3.7131 N   0  0  0  0  0  0  0  0  0  0  0  0
    0.5684    8.1769    5.4311 C   0  0  0  0  0  0  0  0  0  0  0  0
   -0.3554    9.0471    5.8899 O   0  0  0  0  0  0  0  0  0  0  0  0
    1.7279    8.5244    5.2096 O   0  0  0  0  0  0  0  0  0  0  0  0
    0.1698    3.6350    4.8936 C   0  0  0  0  0  0  0  0  0  0  0  0
    0.4699    2.4993    4.1433 C   0  0  0  0  0  0  0  0  0  0  0  0
  1  2  1  0
  2  3  1  0
  2  4  1  0
  4  5  1  0
  5  6  1  0
  6  7  2  0
  6 17  1  0
  7  8  1  0
  8  9  2  0
  9 10  1  0
  9 16  1  0
 11 13  1  0
 11 12  1  6
 11 10  1  0
 13 14  1  0
 13 15  2  0
 16 17  2  0
M  END
>  <DRUGBANK_ID>  (1) 
DB04292

>  <SECONDARY_ACCESSION_NUMBERS>  (1) 
EXPT01821

>  <COMMON_NAME>  (1) 
4-[(Isopropylamino)Methyl]Phenylalanine

$$$$
