APP
     RDKit          3D

 12 12  0  0  0  0  0  0  0  0999 V2000
    1.4595   -0.0664    0.2261 N   0  0  0  0  0  0  0  0  0  0  0  0
    2.3603   -0.1110    1.2883 C   0  0  0  0  0  0  0  0  0  0  0  0
    2.6495    0.8685    1.9742 O   0  0  0  0  0  0  0  0  0  0  0  0
    3.0231   -1.4383    1.5728 C   0  0  0  0  0  0  0  0  0  0  0  0
    0.8470    1.2172   -0.1872 C   0  0  2  0  0  0  0  0  0  0  0  0
    1.7531    2.4535   -0.0279 C   0  0  0  0  0  0  0  0  0  0  0  0
    2.9569    2.4985   -0.2555 O   0  0  0  0  0  0  0  0  0  0  0  0
    1.1135    3.6000    0.2693 O   0  0  0  0  0  0  0  0  0  0  0  0
   -0.6147    1.3128    0.2932 C   0  0  0  0  0  0  0  0  0  0  0  0
   -1.4167    0.0733   -0.1521 C   0  0  0  0  0  0  0  0  0  0  0  0
   -0.7115   -1.2265    0.2403 C   0  0  0  0  0  0  0  0  0  0  0  0
    0.7389   -1.2444   -0.2493 C   0  0  0  0  0  0  0  0  0  0  0  0
  1  2  1  0
  1  5  1  0
  1 12  1  0
  2  3  2  0
  2  4  1  0
  5  9  1  0
  5  6  1  1
  6  7  2  0
  6  8  1  0
  9 10  1  0
 10 11  1  0
 11 12  1  0
M  END
>  <DRUGBANK_ID>  (1) 
DB07384

>  <COMMON_NAME>  (1) 
1-ACETYL-2-CARBOXYPIPERIDINE

$$$$
