
     RDKit          3D

 20 20  0  0  0  0  0  0  0  0999 V2000
    1.1847    2.6296    0.3973 C   0  0  0  0  0  0  0  0  0  0  0  0
    0.5811    1.2603    0.8303 C   0  0  2  0  0  0  0  0  0  0  0  0
    1.0652    0.1077   -0.1067 C   0  0  0  0  0  0  0  0  0  0  0  0
    1.0746    0.4310   -1.5353 N   0  0  0  0  0  0  0  0  0  0  0  0
    0.3908    1.4075   -2.2082 C   0  0  0  0  0  0  0  0  0  0  0  0
    0.9733    1.4411   -3.4468 C   0  0  0  0  0  0  0  0  0  0  0  0
    1.8847    0.4349   -3.5442 N   0  0  0  0  0  0  0  0  0  0  0  0
    1.9272   -0.1965   -2.3745 N   0  0  0  0  0  0  0  0  0  0  0  0
   -0.9869    1.2543    0.9492 C   0  0  1  0  0  0  0  0  0  0  0  0
   -1.5937   -0.0313    1.4201 N   0  0  0  0  0  0  0  0  0  0  0  0
   -2.3784   -0.2112    2.5298 C   0  0  0  0  0  0  0  0  0  0  0  0
   -2.7851   -1.3574    3.0724 C   0  0  0  0  0  0  0  0  0  0  0  0
   -3.6120   -1.2939    4.2910 C   0  0  0  0  0  0  0  0  0  0  0  0
   -4.0660   -2.3094    4.8059 O   0  0  0  0  0  0  0  0  0  0  0  0
   -1.5913    2.5076    1.6240 C   0  0  0  0  0  0  0  0  0  0  0  0
   -2.0933    3.4527    1.0146 O   0  0  0  0  0  0  0  0  0  0  0  0
   -1.5840    2.4982    2.9690 O   0  0  0  0  0  0  0  0  0  0  0  0
    1.2980    0.9259    2.5551 S   0  0  0  0  0  5  0  0  0  0  0  0
    2.7709    0.8081    2.2426 O   0  0  0  0  0  0  0  0  0  0  0  0
    0.9517    2.2049    3.2845 O   0  0  0  0  0  0  0  0  0  0  0  0
  2  9  1  0
  2 18  1  0
  2  3  1  0
  2  1  1  6
  3  4  1  0
  4  5  1  0
  5  6  2  0
  6  7  1  0
  7  8  2  0
  8  4  1  0
  9 10  1  1
  9 15  1  0
 10 11  1  0
 11 12  2  0
 12 13  1  0
 13 14  2  0
 15 16  2  0
 15 17  1  0
 18 19  2  0
 18 20  2  0
M  RAD  1  18   2
M  END
>  <DRUGBANK_ID>  (1) 
DB03445

>  <SECONDARY_ACCESSION_NUMBERS>  (1) 
EXPT03016

>  <COMMON_NAME>  (1) 
Tazobactam trans-enamine intermediate

>  <SYNONYMS>  (1) 
Tazobactam Trans-Enamine Intermediate

$$$$
