
     RDKit          3D

  4  3  0  0  0  0  0  0  0  0999 V2000
    0.9081   -0.0613   -0.0463 S   0  0  0  0  0  0  0  0  0  0  0  0
    0.4884   -1.4920   -0.2283 O   0  0  0  0  0  0  0  0  0  0  0  0
    0.4760    0.4169    1.6431 C   0  0  0  0  0  0  0  0  0  0  0  0
    2.7071   -0.0457    0.1348 C   0  0  0  0  0  0  0  0  0  0  0  0
  1  2  2  0
  1  3  1  0
  1  4  1  0
M  END
>  <DRUGBANK_ID>  (1) 
DB01093

>  <SECONDARY_ACCESSION_NUMBERS>  (1) 
APRD00925; EXPT01231

>  <COMMON_NAME>  (1) 
Dimethyl sulfoxide

>  <CAS_NUMBER>  (1) 
67-68-5

>  <UNII>  (1) 
YOW8V9698H

>  <SYNONYMS>  (1) 
Dimethyl sulfoxide; Dimethyl sulfur oxide; Dimethyl sulphoxide; Dimethyli sulfoxidum; Dimethylsulfoxid; Diméthylsulfoxyde; Dimetil sulfóxido; DMSO; Methylsulfinylmethane; S(O)Me2; Sulfinylbis(methane)

$$$$
