
     RDKit          3D

 31 33  0  0  1  0  0  0  0  0999 V2000
    4.0281    2.5839    0.1738 N   0  0  0  0  0  0  0  0  0  0  0  0
    2.6453    2.8105    0.3826 C   0  0  1  0  0  0  0  0  0  0  0  0
    4.7090    1.5676    0.7106 C   0  0  0  0  0  0  0  0  0  0  0  0
    4.7328    2.9768   -0.9662 C   0  0  0  0  0  0  0  0  0  0  0  0
    1.6450    3.1769    1.5863 C   0  0  1  0  0  0  0  0  0  0  0  0
    2.5471    3.9999   -0.5816 O   0  0  0  0  0  0  0  0  0  0  0  0
    5.9207    1.6698    0.0789 C   0  0  0  0  0  0  0  0  0  0  0  0
    4.3264    0.7761    1.7101 N   0  0  0  0  0  0  0  0  0  0  0  0
    5.9451    2.5146   -0.9854 N   0  0  0  0  0  0  0  0  0  0  0  0
    1.4285    4.7016    1.3125 C   0  0  1  0  0  0  0  0  0  0  0  0
    0.2675    2.5613    1.6000 O   0  0  0  0  0  0  0  0  0  0  0  0
    1.5099    4.9698   -0.2396 C   0  0  1  0  0  0  0  0  0  0  0  0
    6.9471    0.9767    0.6467 C   0  0  0  0  0  0  0  0  0  0  0  0
    5.4036    0.1265    2.1767 C   0  0  0  0  0  0  0  0  0  0  0  0
    0.3147    5.1272    2.0884 O   0  0  0  0  0  0  0  0  0  0  0  0
    1.9680    6.1836   -1.0074 C   0  0  0  0  0  0  0  0  0  0  0  0
    6.6879    0.2089    1.7296 N   0  0  0  0  0  0  0  0  0  0  0  0
    8.1783    1.1963    0.0940 N   0  0  0  0  0  0  0  0  0  0  0  0
   -1.2272    5.0800    1.6419 P   0  0  0  0  0  0  0  0  0  0  0  0
    1.5842    5.9609   -2.4185 O   0  0  0  0  0  0  0  0  0  0  0  0
   -1.6739    6.4740    2.2682 O   0  0  0  0  0  0  0  0  0  0  0  0
   -1.1022    5.5075    0.1305 O   0  0  0  0  0  0  0  0  0  0  0  0
   -2.1991    3.9919    1.9108 O   0  0  0  0  0  0  0  0  0  0  0  0
    2.2386    4.5573   -3.1896 P   0  0  1  0  0  0  0  0  0  0  0  0
    0.7198    3.6876   -2.8791 O   0  0  0  0  0  0  0  0  0  0  0  0
    1.7158    5.2289   -4.6000 O   0  0  0  0  0  0  0  0  0  0  0  0
    2.8244    3.3010   -3.8797 O   0  0  0  0  0  0  0  0  0  0  0  0
    0.8359    2.4166   -1.8123 S   0  0  0  0  0  0  0  0  0  0  0  0
    2.3338    1.7662   -2.0135 O   0  0  0  0  0  0  0  0  0  0  0  0
    0.6394    2.9820   -0.5856 O   0  0  0  0  0  0  0  0  0  0  0  0
   -0.1556    1.3457   -1.7086 O   0  0  0  0  0  0  0  0  0  0  0  0
  1  3  1  0
  1  4  1  0
  2  5  1  0
  2  6  1  0
  2  1  1  1
  3  7  2  0
  3  8  1  0
  4  9  2  0
  5 10  1  0
  5 11  1  6
  6 12  1  0
  7 13  1  0
  7  9  1  0
  8 14  2  0
 10 15  1  6
 10 12  1  0
 12 16  1  1
 13 17  2  0
 13 18  1  0
 14 17  1  0
 15 19  1  0
 16 20  1  0
 19 21  1  0
 19 22  1  0
 19 23  2  0
 20 24  1  0
 24 25  1  0
 24 26  1  6
 24 27  2  0
 25 28  1  0
 28 29  1  0
 28 30  2  0
 28 31  2  0
M  END
>  <DRUGBANK_ID>  (1) 
DB02902

>  <SECONDARY_ACCESSION_NUMBERS>  (1) 
EXPT02647

>  <COMMON_NAME>  (1) 
3'-phospho-5'-adenylyl sulfate

>  <CAS_NUMBER>  (1) 
482-67-7

>  <UNII>  (1) 
5TH3ERG159

>  <SYNONYMS>  (1) 
3'-phosphoadenosine 5'-phosphosulfate; 3'-phosphoadenylyl sulfate; PAPS

$$$$
