468
     RDKit          3D

 23 25  0  0  0  0  0  0  0  0999 V2000
   -1.4406    0.2937   -0.2513 C   0  0  0  0  0  0  0  0  0  0  0  0
   -0.4693    1.3670    0.1997 C   0  0  0  0  0  0  0  0  0  0  0  0
    0.9910    1.0923   -0.2019 C   0  0  0  0  0  0  0  0  0  0  0  0
    1.4107   -0.3215    0.2436 C   0  0  0  0  0  0  0  0  0  0  0  0
    0.4229   -1.3866   -0.2325 C   0  0  0  0  0  0  0  0  0  0  0  0
   -0.9959   -1.0789    0.2299 C   0  0  0  0  0  0  0  0  0  0  0  0
    3.2622    2.1652    0.1587 C   0  0  0  0  0  0  0  0  0  0  0  0
    3.8141    3.2180    1.0940 C   0  0  0  0  0  0  0  0  0  0  0  0
    2.6027    4.1219    1.3374 C   0  0  1  0  0  0  0  0  0  0  0  0
    1.4512    3.1363    1.2661 C   0  0  0  0  0  0  0  0  0  0  0  0
    1.8879    2.1273    0.3324 N   0  0  0  0  0  0  0  0  0  0  0  0
    2.5597    4.7658    2.7043 C   0  0  0  0  0  0  0  0  0  0  0  0
    2.6261    6.1566    2.7185 N   0  0  0  0  0  0  0  0  0  0  0  0
    2.4585    4.0683    3.7130 O   0  0  0  0  0  0  0  0  0  0  0  0
    3.9308    1.4558   -0.5806 O   0  0  0  0  0  0  0  0  0  0  0  0
    2.7377    6.8960    3.9292 C   0  0  0  0  0  0  0  0  0  0  0  0
    1.9194    8.0273    4.1110 C   0  0  0  0  0  0  0  0  0  0  0  0
    1.9748    8.7669    5.3003 C   0  0  0  0  0  0  0  0  0  0  0  0
    2.8704    8.4040    6.3012 C   0  0  0  0  0  0  0  0  0  0  0  0
    3.7113    7.3057    6.1144 C   0  0  0  0  0  0  0  0  0  0  0  0
    3.6732    6.5460    4.9270 C   0  0  0  0  0  0  0  0  0  0  0  0
    4.6710    5.4304    4.7426 C   0  0  0  0  0  0  0  0  0  0  0  0
    4.8152    6.9261    7.3937 Cl  0  0  0  0  0  0  0  0  0  0  0  0
  1  6  1  0
  1  2  1  0
  2  3  1  0
  3 11  1  0
  3  4  1  0
  4  5  1  0
  5  6  1  0
  7 11  1  0
  7 15  2  0
  7  8  1  0
  8  9  1  0
  9 12  1  1
  9 10  1  0
 10 11  1  0
 12 13  1  0
 12 14  2  0
 13 16  1  0
 16 21  1  0
 16 17  2  0
 17 18  1  0
 18 19  2  0
 19 20  1  0
 20 21  2  0
 20 23  1  0
 21 22  1  0
M  END
>  <DRUGBANK_ID>  (1) 
DB07090

>  <COMMON_NAME>  (1) 
(3S)-N-(3-CHLORO-2-METHYLPHENYL)-1-CYCLOHEXYL-5-OXOPYRROLIDINE-3-CARBOXAMIDE

$$$$
