
     RDKit          3D

 28 30  0  0  1  0  0  0  0  0999 V2000
    2.5252    0.0008   -0.0077 C   0  0  0  0  0  0  0  0  0  0  0  0
    1.0304    0.0372    0.0175 C   0  0  0  0  0  0  0  0  0  0  0  0
    0.3663    1.2651    0.0172 C   0  0  0  0  0  0  0  0  0  0  0  0
   -1.0118    1.3020   -0.0617 C   0  0  0  0  0  0  0  0  0  0  0  0
   -1.6764    0.0633   -0.1654 C   0  0  0  0  0  0  0  0  0  0  0  0
   -1.1080   -1.2020    0.0010 C   0  0  0  0  0  0  0  0  0  0  0  0
    0.2993   -1.1669    0.0309 C   0  0  0  0  0  0  0  0  0  0  0  0
   -2.0244   -2.7859    0.0126 P   0  0  1  0  0  0  0  0  0  0  0  0
   -0.7509   -3.5933    0.2473 O   0  0  0  0  0  0  0  0  0  0  0  0
   -2.7310   -2.2163    1.6627 C   0  0  0  0  0  0  0  0  0  0  0  0
   -3.7504   -1.1624    1.8144 C   0  0  0  0  0  0  0  0  0  0  0  0
   -4.4608   -0.2079    1.0155 C   0  0  0  0  0  0  0  0  0  0  0  0
   -5.2489    0.8011    1.5978 C   0  0  0  0  0  0  0  0  0  0  0  0
   -5.5035    0.7858    2.9431 C   0  0  0  0  0  0  0  0  0  0  0  0
   -5.0689   -0.2992    3.7016 C   0  0  0  0  0  0  0  0  0  0  0  0
   -4.1499   -1.2146    3.1454 C   0  0  0  0  0  0  0  0  0  0  0  0
   -3.5492   -2.3266    3.6988 N   0  0  0  0  0  0  0  0  0  0  0  0
   -2.5595   -2.8688    2.8836 C   0  0  0  0  0  0  0  0  0  0  0  0
   -1.8011   -4.0624    3.2831 C   0  0  0  0  0  0  0  0  0  0  0  0
   -2.1250   -4.7323    4.2609 O   0  0  0  0  0  0  0  0  0  0  0  0
   -0.8430   -4.5777    2.4465 N   0  0  0  0  0  0  0  0  0  0  0  0
   -6.0757    1.9903    0.6573 Cl  0  0  0  0  0  0  0  0  0  0  0  0
   -2.8908   -4.2833    0.0235 O   0  0  0  0  0  0  0  0  0  0  0  0
   -3.5167   -4.9154    1.1155 C   0  0  0  0  0  0  0  0  0  0  0  0
   -1.6967    2.6145   -0.0482 C   0  0  0  0  0  0  0  0  0  0  0  0
   -3.0178    2.7726   -0.1582 C   0  0  0  0  0  0  0  0  0  0  0  0
   -3.7141    4.0180   -0.0789 C   0  0  0  0  0  0  0  0  0  0  0  0
   -4.3551    4.9671   -0.0128 N   0  0  0  0  0  0  0  0  0  0  0  0
  1  2  1  0
  2  3  2  0
  2  7  1  0
  3  4  1  0
  4  5  2  0
  4 25  1  0
  5  6  1  0
  6  7  2  0
  8  6  1  0
  8  9  2  0
  8 10  1  0
  8 23  1  0
 10 11  1  0
 10 18  2  0
 11 12  2  0
 11 16  1  0
 12 13  1  0
 13 14  2  0
 13 22  1  0
 14 15  1  0
 15 16  2  0
 16 17  1  0
 17 18  1  0
 18 19  1  0
 19 20  2  0
 19 21  1  0
 23 24  1  0
 25 26  2  0
 26 27  1  0
 27 28  3  0
M  END
>  <DRUGBANK_ID>  (1) 
DB06166

>  <COMMON_NAME>  (1) 
Fosdevirine

>  <CAS_NUMBER>  (1) 
1018450-26-4

>  <UNII>  (1) 
Z4I0C281BJ

>  <SYNONYMS>  (1) 
Fosdevirine

$$$$
