
     RDKit          3D

 30 30  0  0  0  0  0  0  0  0999 V2000
    1.1851    0.0749   -0.1493 O   0  0  0  0  0  0  0  0  0  0  0  0
    4.9188    5.1131   -2.5167 O   0  0  0  0  0  0  0  0  0  0  0  0
    1.4275   -2.9890    2.9326 O   0  0  0  0  0  0  0  0  0  0  0  0
    3.5817   -2.3950    2.8518 O   0  0  0  0  0  0  0  0  0  0  0  0
    0.8085   -4.8693   -0.9162 O   0  0  0  0  0  0  0  0  0  0  0  0
    3.2555    1.0703   -0.3026 N   0  0  0  0  0  0  0  0  0  0  0  0
    3.3450    3.6404   -1.7353 N   0  0  0  0  0  0  0  0  0  0  0  0
    3.0357   -1.1176    0.2549 N   0  0  0  0  0  0  0  0  0  0  0  0
    3.4135    6.0737   -1.2435 N   0  0  0  0  0  0  0  0  0  0  0  0
    4.3268   -6.7128    0.3831 N   0  0  0  0  0  0  0  0  0  0  0  0
    3.2118   -5.9722   -1.5903 N   0  0  0  0  0  0  0  0  0  0  0  0
    4.4581   -7.6685   -1.7095 N   0  0  0  0  0  0  0  0  0  0  0  0
    2.6431    2.2592    0.1474 C   0  0  0  0  0  0  0  0  0  0  0  0
    4.3697    1.3402   -1.2676 C   0  0  0  0  0  0  0  0  0  0  0  0
    2.1716    2.9829   -1.0938 C   0  0  0  0  0  0  0  0  0  0  0  0
    4.0763    2.4953   -2.3407 C   0  0  0  0  0  0  0  0  0  0  0  0
    2.6335   -3.3947   -0.1784 C   0  0  1  0  0  0  0  0  0  0  0  0
    2.2790   -2.2587    0.7533 C   0  0  1  0  0  0  0  0  0  0  0  0
    2.4123   -0.0039   -0.1679 C   0  0  0  0  0  0  0  0  0  0  0  0
    2.3007    6.4406   -0.3221 C   0  0  0  0  0  0  0  0  0  0  0  0
    4.2145   -3.6669   -0.2033 C   0  0  0  0  0  0  0  0  0  0  0  0
    3.8954    4.9261   -1.8386 C   0  0  0  0  0  0  0  0  0  0  0  0
    4.8051   -4.3855    1.0025 C   0  0  0  0  0  0  0  0  0  0  0  0
    2.7350    6.8538    1.0819 C   0  0  0  0  0  0  0  0  0  0  0  0
    1.1991    7.2884   -0.9638 C   0  0  0  0  0  0  0  0  0  0  0  0
    1.5790    5.2086   -0.0510 C   0  0  0  0  0  0  0  0  0  0  0  0
    2.4967   -2.5342    2.2550 C   0  0  0  0  0  0  0  0  0  0  0  0
    1.5084   -4.4682    0.0142 C   0  0  0  0  0  0  0  0  0  0  0  0
    4.0691   -5.6661    1.3753 C   0  0  0  0  0  0  0  0  0  0  0  0
    4.0035   -6.7558   -0.8469 C   0  0  0  0  0  0  0  0  0  0  0  0
  1 19  2  0
  2 22  2  0
  3 27  1  0
  4 27  2  0
  5 28  2  0
  6 13  1  0
  6 14  1  0
  6 19  1  0
  7 15  1  0
  7 16  1  0
  7 22  1  0
  8 19  1  0
  9 20  1  0
  9 22  1  0
 10 29  1  0
 10 30  2  3
 11 30  1  0
 12 30  1  0
 13 15  1  0
 14 16  1  0
 17 18  1  0
 17 21  1  1
 17 28  1  0
 18  8  1  6
 18 27  1  0
 20 24  1  0
 20 25  1  0
 20 26  1  0
 21 23  1  0
 23 29  1  0
M  END
>  <DRUGBANK_ID>  (1) 
DB03417

>  <SECONDARY_ACCESSION_NUMBERS>  (1) 
EXPT00047

>  <COMMON_NAME>  (1) 
(2S,3R)-2-[[4-(Tert-butylcarbamoyl)piperazine-1-carbonyl]amino]-6-(diaminomethylideneamino)-3-formylhexanoic acid

$$$$
