
     RDKit          3D

 28 30  0  0  1  0  0  0  0  0999 V2000
    3.5800   -0.9973    1.7854 C   0  0  0  0  0  0  0  0  0  0  0  0
    2.5161   -1.0972    2.8711 C   0  0  0  0  0  0  0  0  0  0  0  0
    1.0801   -0.6580    2.4440 C   0  0  2  0  0  0  0  0  0  0  0  0
    1.0529    0.8480    2.2722 C   0  0  0  0  0  0  0  0  0  0  0  0
    1.8210    1.3242    1.1704 C   0  0  0  0  0  0  0  0  0  0  0  0
    2.2764    2.6328    1.0413 C   0  0  0  0  0  0  0  0  0  0  0  0
    1.7829    3.5749    1.9299 C   0  0  0  0  0  0  0  0  0  0  0  0
    0.9241    3.1451    2.9541 C   0  0  0  0  0  0  0  0  0  0  0  0
    0.5305    1.7902    3.1465 C   0  0  0  0  0  0  0  0  0  0  0  0
   -0.4036    1.4662    4.2646 C   0  0  0  0  0  0  0  0  0  0  0  0
   -0.8442    0.3293    4.6959 N   0  0  0  0  0  0  0  0  0  0  0  0
   -0.6577   -0.9346    4.2731 N   0  0  0  0  0  0  0  0  0  0  0  0
    0.1197   -1.3793    3.3471 C   0  0  0  0  0  0  0  0  0  0  0  0
    0.0570   -2.9061    3.1952 C   0  0  0  0  0  0  0  0  0  0  0  0
   -0.9483    2.5993    5.0833 C   0  0  0  0  0  0  0  0  0  0  0  0
   -1.7052    3.6275    4.5213 C   0  0  0  0  0  0  0  0  0  0  0  0
   -2.1067    4.6986    5.3195 C   0  0  0  0  0  0  0  0  0  0  0  0
   -1.6995    4.7796    6.6591 C   0  0  0  0  0  0  0  0  0  0  0  0
   -0.9687    3.7157    7.2297 C   0  0  0  0  0  0  0  0  0  0  0  0
   -0.6559    2.6027    6.4476 C   0  0  0  0  0  0  0  0  0  0  0  0
   -0.5786    3.8489    8.5413 O   0  0  0  0  0  0  0  0  0  0  0  0
    0.2093    2.7906    9.0802 C   0  0  0  0  0  0  0  0  0  0  0  0
   -1.9617    5.8549    7.4730 O   0  0  0  0  0  0  0  0  0  0  0  0
   -2.6646    6.9476    6.8934 C   0  0  0  0  0  0  0  0  0  0  0  0
    2.0152    4.9285    1.9294 O   0  0  0  0  0  0  0  0  0  0  0  0
    2.8690    5.4377    0.9096 C   0  0  0  0  0  0  0  0  0  0  0  0
    3.1961    3.0193    0.1136 O   0  0  0  0  0  0  0  0  0  0  0  0
    3.8640    2.0566   -0.6822 C   0  0  0  0  0  0  0  0  0  0  0  0
  1  2  1  0
  3  4  1  0
  3 13  1  0
  3  2  1  1
  4  5  2  0
  4  9  1  0
  5  6  1  0
  6  7  2  0
  6 27  1  0
  7  8  1  0
  7 25  1  0
  8  9  2  0
  9 10  1  0
 10 11  2  0
 10 15  1  0
 11 12  1  0
 12 13  2  0
 13 14  1  0
 15 16  2  0
 15 20  1  0
 16 17  1  0
 17 18  2  0
 18 19  1  0
 18 23  1  0
 19 20  2  0
 19 21  1  0
 21 22  1  0
 23 24  1  0
 25 26  1  0
 27 28  1  0
M  END
>  <DRUGBANK_ID>  (1) 
DB06582

>  <COMMON_NAME>  (1) 
Dextofisopam

>  <CAS_NUMBER>  (1) 
82059-50-5

>  <UNII>  (1) 
EZ15I5D6C1

>  <SYNONYMS>  (1) 
Dextofisopam; R-tofisopam

$$$$
