1113
     RDKit          3D

 25 27  0  0  0  0  0  0  0  0999 V2000
    0.8737    0.1843    0.1297 O   0  0  0  0  0  0  0  0  0  0  0  0
    1.8012   -2.5755   -0.9189 O   0  0  0  0  0  0  0  0  0  0  0  0
   -3.8929    3.2813   -7.5165 O   0  0  0  0  0  0  0  0  0  0  0  0
   -2.0404    5.5082   -7.1938 O   0  0  0  0  0  0  0  0  0  0  0  0
   -2.9460   -0.2309   -4.5146 N   0  0  0  0  0  0  0  0  0  0  0  0
   -1.2955   -0.3419   -2.7361 C   0  0  0  0  0  0  0  0  0  0  0  0
   -2.8108    1.7086   -3.0272 C   0  0  0  0  0  0  0  0  0  0  0  0
   -2.3277    0.3151   -3.4289 C   0  0  0  0  0  0  0  0  0  0  0  0
   -0.8542   -1.5951   -3.2364 C   0  0  0  0  0  0  0  0  0  0  0  0
   -2.5958    2.7514   -4.0994 C   0  0  0  0  0  0  0  0  0  0  0  0
   -0.6656    0.1577   -1.5889 C   0  0  0  0  0  0  0  0  0  0  0  0
    0.1896   -2.2629   -2.5552 C   0  0  0  0  0  0  0  0  0  0  0  0
    0.3860   -0.5037   -0.9447 C   0  0  0  0  0  0  0  0  0  0  0  0
   -1.4662   -2.1111   -4.3857 C   0  0  0  0  0  0  0  0  0  0  0  0
    0.8219   -1.7502   -1.4042 C   0  0  0  0  0  0  0  0  0  0  0  0
   -3.3206    2.6013   -5.2839 C   0  0  0  0  0  0  0  0  0  0  0  0
   -1.7415    3.8455   -3.9684 C   0  0  0  0  0  0  0  0  0  0  0  0
   -2.4906   -1.4088   -4.9849 C   0  0  0  0  0  0  0  0  0  0  0  0
   -3.1882    3.4690   -6.3599 C   0  0  0  0  0  0  0  0  0  0  0  0
   -2.3214    4.5643   -6.2345 C   0  0  0  0  0  0  0  0  0  0  0  0
   -1.6367    4.7647   -5.0205 C   0  0  0  0  0  0  0  0  0  0  0  0
    2.2205    0.5846   -0.0795 C   0  0  0  0  0  0  0  0  0  0  0  0
    2.4989   -2.3388    0.3015 C   0  0  0  0  0  0  0  0  0  0  0  0
   -4.7539    2.1539   -7.5987 C   0  0  0  0  0  0  0  0  0  0  0  0
   -2.5593    5.2659   -8.4981 C   0  0  0  0  0  0  0  0  0  0  0  0
  1 13  1  0
  1 22  1  0
  2 15  1  0
  2 23  1  0
  3 19  1  0
  3 24  1  0
  4 20  1  0
  4 25  1  0
  5  8  2  0
  5 18  1  0
  6  8  1  0
  6  9  2  0
  6 11  1  0
  7  8  1  0
  7 10  1  0
  9 12  1  0
  9 14  1  0
 10 16  2  0
 10 17  1  0
 11 13  2  0
 12 15  2  0
 13 15  1  0
 14 18  2  0
 16 19  1  0
 17 21  2  0
 19 20  2  0
 20 21  1  0
M  END
>  <DRUGBANK_ID>  (1) 
DB01113

>  <SECONDARY_ACCESSION_NUMBERS>  (1) 
APRD00628; DB07725

>  <COMMON_NAME>  (1) 
Papaverine

>  <CAS_NUMBER>  (1) 
58-74-2

>  <UNII>  (1) 
DAA13NKG2Q

>  <SYNONYMS>  (1) 
Papaverina; Papaverine

$$$$
