
     RDKit          3D

 21 23  0  0  1  0  0  0  0  0999 V2000
    2.0874   -0.1033   -0.0526 C   0  0  2  0  0  0  0  0  0  0  0  0
    2.3881    0.2576    1.4039 C   0  0  0  0  0  0  0  0  0  0  0  0
    1.6758   -0.7077    2.3594 C   0  0  0  0  0  0  0  0  0  0  0  0
    2.4622   -1.9805    2.5365 C   0  0  0  0  0  0  0  0  0  0  0  0
    3.1038   -2.2179    3.8656 C   0  0  0  0  0  0  0  0  0  0  0  0
    2.5956   -2.8524    1.5299 C   0  0  0  0  0  0  0  0  0  0  0  0
    3.2343   -4.2051    1.6419 C   0  0  0  0  0  0  0  0  0  0  0  0
    2.2613   -4.9727    0.7708 C   0  0  0  0  0  0  0  0  0  0  0  0
    2.1982   -4.0491   -0.4933 C   0  0  1  0  0  0  0  0  0  0  0  0
    3.5134   -4.2156   -1.2577 C   0  0  0  0  0  0  0  0  0  0  0  0
    1.1118   -4.3586   -1.3630 O   0  0  0  0  0  0  0  0  0  0  0  0
    1.9979   -2.6506    0.1428 C   0  0  2  0  0  0  0  0  0  0  0  0
    2.6784   -1.4344   -0.5061 C   0  0  1  0  0  0  0  0  0  0  0  0
    2.5401   -1.3792   -1.9132 O   0  0  0  0  0  0  0  0  0  0  0  0
    2.8596   -0.0964   -2.2874 C   0  0  0  0  0  0  0  0  0  0  0  0
    3.3361    0.1454   -3.3705 O   0  0  0  0  0  0  0  0  0  0  0  0
    2.6320    0.8649   -1.1064 C   0  0  1  0  0  0  0  0  0  0  0  0
    1.6430    2.0232   -1.3583 C   0  0  0  0  0  0  0  0  0  0  0  0
    1.5249    2.4218   -2.7580 N   0  0  0  0  0  0  0  0  0  0  0  0
    0.4308    3.3658   -2.9653 C   0  0  0  0  0  0  0  0  0  0  0  0
    2.7693    2.9891   -3.2800 C   0  0  0  0  0  0  0  0  0  0  0  0
  1  2  1  1
  1 13  1  0
  1 17  1  0
  2  3  1  0
  3  4  1  0
  4  5  1  0
  4  6  2  0
  6  7  1  0
  7  8  1  0
  9  8  1  0
  9 11  1  0
  9 10  1  6
 12  9  1  0
 12  6  1  1
 13 12  1  0
 13 14  1  6
 14 15  1  0
 15 16  2  0
 17 15  1  0
 17 18  1  6
 18 19  1  0
 19 20  1  0
 19 21  1  0
M  END
>  <DRUGBANK_ID>  (1) 
DB17111

>  <COMMON_NAME>  (1) 
Dimethylaminomicheliolide

>  <CAS_NUMBER>  (1) 
1403357-81-2

>  <UNII>  (1) 
580BNQ45EO

>  <SYNONYMS>  (1) 
11.BETA.,13-DIHYDRO-13-(DIMETHYLAMINO)MICHELIOLIDE; AZULENO(4,5-B)FURAN-2(3H)-ONE, 3-((DIMETHYLAMINO)METHYL)-3A,4,5,7,8,9,9A,9B-OCTAHYDRO-9-HYDROXY-6,9-DIMETHYL-, (3R,3AS,9R,9AS,9BS)-

$$$$
