
     RDKit          3D

 31 35  0  0  1  0  0  0  0  0999 V2000
   -0.1408   -0.0031   -0.2943 C   0  0  0  0  0  0  0  0  0  0  0  0
   -1.2588   -0.3487   -1.3149 C   0  0  0  0  0  0  0  0  0  0  0  0
   -0.8316   -1.3297   -2.3517 C   0  0  0  0  0  0  0  0  0  0  0  0
    0.3501   -0.9050   -2.8185 C   0  0  0  0  0  0  0  0  0  0  0  0
    0.6522    0.6360   -2.7252 C   0  0  1  0  0  0  0  0  0  0  0  0
    0.2252    1.1554   -1.2644 C   0  0  0  0  0  0  0  0  0  0  0  0
    1.3984   -1.9421   -3.1284 C   0  0  0  0  0  0  0  0  0  0  0  0
    2.5114   -1.3316   -4.0148 C   0  0  0  0  0  0  0  0  0  0  0  0
    2.9530   -0.1173   -3.2105 C   0  0  2  0  0  0  0  0  0  0  0  0
    2.0420    1.0855   -3.1500 C   0  0  2  0  0  0  0  0  0  0  0  0
    4.2628    0.4811   -2.9892 C   0  0  1  0  0  0  0  0  0  0  0  0
    4.8290    1.9601   -3.1091 C   0  0  2  0  0  0  0  0  0  0  0  0
    3.6958    3.0236   -3.1114 C   0  0  0  0  0  0  0  0  0  0  0  0
    2.4107    2.5415   -2.5159 C   0  0  2  0  0  0  0  0  0  0  0  0
   -0.1393    1.2876   -3.8718 C   0  0  0  0  0  0  0  0  0  0  0  0
    2.4262    2.8006   -1.1220 O   0  0  0  0  0  0  0  0  0  0  0  0
    5.7058    2.6348   -4.2400 C   0  0  0  0  0  0  0  0  0  0  0  0
    2.1112    1.3730   -4.5222 F   0  0  0  0  0  0  0  0  0  0  0  0
   -2.2561    0.2812   -1.4642 O   0  0  0  0  0  0  0  0  0  0  0  0
    3.9554    0.4283   -1.3919 C   0  0  0  0  0  0  0  0  0  0  0  0
    5.1233    0.9716   -0.7513 C   0  0  1  0  0  0  0  0  0  0  0  0
    5.8105    1.7593   -1.8682 C   0  0  1  0  0  0  0  0  0  0  0  0
    6.9598    0.6688   -2.2220 C   0  0  0  0  0  0  0  0  0  0  0  0
    7.1423    0.0805   -3.6468 C   0  0  0  0  0  0  0  0  0  0  0  0
    7.6075    0.1688   -1.3198 O   0  0  0  0  0  0  0  0  0  0  0  0
    8.7730    0.4794   -4.1944 Cl  0  0  0  0  0  0  0  0  0  0  0  0
    6.0813    3.0069   -1.2350 O   0  0  0  0  0  0  0  0  0  0  0  0
    4.7334    1.8344    0.2895 O   0  0  0  0  0  0  0  0  0  0  0  0
    5.3407    3.0946    0.0009 C   0  0  0  0  0  0  0  0  0  0  0  0
    6.2337    3.4855    1.1607 C   0  0  0  0  0  0  0  0  0  0  0  0
    4.2866    4.2311    0.0364 C   0  0  0  0  0  0  0  0  0  0  0  0
  1  2  1  0
  1  6  1  0
  2  3  1  0
  2 19  2  0
  3  4  2  0
  4  5  1  0
  4  7  1  0
  5  6  1  0
  5 10  1  0
  5 15  1  6
  7  8  1  0
  9  8  1  6
  9 10  1  0
  9 11  1  0
 10 14  1  0
 10 18  1  6
 11 12  1  0
 11 20  1  1
 12 13  1  0
 12 17  1  6
 12 22  1  0
 13 14  1  0
 14 16  1  1
 21 20  1  6
 21 22  1  0
 21 28  1  0
 22 23  1  6
 22 27  1  0
 23 24  1  0
 23 25  2  0
 24 26  1  0
 27 29  1  0
 29 28  1  0
 29 30  1  0
 29 31  1  0
M  END
>  <DRUGBANK_ID>  (1) 
DB06786

>  <COMMON_NAME>  (1) 
Halcinonide

>  <CAS_NUMBER>  (1) 
3093-35-4

>  <UNII>  (1) 
SI86V6QNEG

>  <SYNONYMS>  (1) 
(4aS,4bR,5S,6aS,6bS,9aR,10aS,10bS)-6b-(chloroacetyl)-4b-fluoro-5-hydroxy-4a,6a,8,8-tetramethyl-3,4,4a,4b,5,6,6a,6b,9a,10,10a,10b,11,12-tetradecahydro-2H-naphtho[2',1':4,5]indeno[1,2-d][1,3]dioxol-2-one; Halcinonid; Halcinonida; Halcinonide; Halcinonidum

$$$$
