KMB
     RDKit          3D

 22 24  0  0  0  0  0  0  0  0999 V2000
    0.9535    0.0950   -0.0825 C   0  0  0  0  0  0  0  0  0  0  0  0
    0.4876    1.4569    0.1615 N   0  0  0  0  0  0  0  0  0  0  0  0
    0.4880   -0.4627   -1.4067 C   0  0  0  0  0  0  0  0  0  0  0  0
    0.0026    0.3580   -2.4353 C   0  0  0  0  0  0  0  0  0  0  0  0
   -0.3531   -0.1573   -3.6968 C   0  0  0  0  0  0  0  0  0  0  0  0
   -0.2473   -1.5376   -3.9335 C   0  0  0  0  0  0  0  0  0  0  0  0
   -0.6160   -2.0710   -5.1834 N   0  0  0  0  0  0  0  0  0  0  0  0
   -0.4467   -3.3321   -5.4071 C   0  0  0  0  0  0  0  0  0  0  0  0
   -0.7669   -3.8618   -6.6062 N   0  0  0  0  0  0  0  0  0  0  0  0
    0.0496   -4.1797   -4.4631 N   0  0  0  0  0  0  0  0  0  0  0  0
    0.4050   -3.7814   -3.2020 C   0  0  0  0  0  0  0  0  0  0  0  0
    0.8347   -4.5722   -2.3633 O   0  0  0  0  0  0  0  0  0  0  0  0
    0.2487   -2.3496   -2.9101 C   0  0  0  0  0  0  0  0  0  0  0  0
    0.6131   -1.8316   -1.6608 C   0  0  0  0  0  0  0  0  0  0  0  0
   -0.8394    0.8044   -4.7508 C   0  0  0  0  0  0  0  0  0  0  0  0
    0.1829    0.8694   -6.2605 S   0  0  0  0  0  0  0  0  0  0  0  0
    1.7782    1.3657   -5.6315 C   0  0  0  0  0  0  0  0  0  0  0  0
    2.0683    2.7243   -5.4898 C   0  0  0  0  0  0  0  0  0  0  0  0
    3.3889    3.1471   -5.3193 C   0  0  0  0  0  0  0  0  0  0  0  0
    4.4098    2.2108   -5.1700 C   0  0  0  0  0  0  0  0  0  0  0  0
    4.1075    0.8506   -5.1793 C   0  0  0  0  0  0  0  0  0  0  0  0
    2.8054    0.4284   -5.4677 C   0  0  0  0  0  0  0  0  0  0  0  0
  1  2  1  0
  1  3  1  0
  3  4  2  0
  3 14  1  0
  4  5  1  0
  5  6  2  0
  5 15  1  0
  6  7  1  0
  6 13  1  0
  7  8  2  0
  8  9  1  0
  8 10  1  0
 10 11  1  0
 11 12  2  0
 11 13  1  0
 13 14  2  0
 15 16  1  0
 16 17  1  0
 17 18  2  0
 17 22  1  0
 18 19  1  0
 19 20  2  0
 20 21  1  0
 21 22  2  0
M  END
>  <DRUGBANK_ID>  (1) 
DB04239

>  <SECONDARY_ACCESSION_NUMBERS>  (1) 
EXPT01975

>  <COMMON_NAME>  (1) 
2-Amino-6-Aminomethyl-8-Phenylsulfanylmethyl-3h-Quinazolin-4-One

$$$$
