533
     RDKit          3D

 22 24  0  0  0  0  0  0  0  0999 V2000
    0.8891   -0.0609   -0.0022 S   0  0  0  0  0  0  0  0  0  0  0  0
   -0.5351   -2.0587   -7.9131 O   0  0  0  0  0  0  0  0  0  0  0  0
   -2.2122   -3.6130   -7.9976 O   0  0  0  0  0  0  0  0  0  0  0  0
    0.4537   -1.1029    0.9080 O   0  0  0  0  0  0  0  0  0  0  0  0
    0.4649    1.3137    0.1836 O   0  0  0  0  0  0  0  0  0  0  0  0
   -0.5471   -1.7764   -5.6348 C   0  0  0  0  0  0  0  0  0  0  0  0
   -0.1366   -1.3420   -4.2920 C   0  0  0  0  0  0  0  0  0  0  0  0
   -1.5530   -2.6161   -5.9161 C   0  0  0  0  0  0  0  0  0  0  0  0
    0.1068   -1.3143   -6.8759 C   0  0  0  0  0  0  0  0  0  0  0  0
    0.4140   -0.5531   -1.6497 C   0  0  0  0  0  0  0  0  0  0  0  0
   -2.4173   -3.2922   -4.9534 C   0  0  0  0  0  0  0  0  0  0  0  0
   -0.1641    0.0113   -3.9358 C   0  0  0  0  0  0  0  0  0  0  0  0
    0.1703   -2.2919   -3.3012 C   0  0  0  0  0  0  0  0  0  0  0  0
   -1.5136   -2.8423   -7.3721 C   0  0  0  0  0  0  0  0  0  0  0  0
    0.1043    0.4081   -2.6170 C   0  0  0  0  0  0  0  0  0  0  0  0
    0.3801   -1.9084   -1.9729 C   0  0  0  0  0  0  0  0  0  0  0  0
   -2.3592   -4.6844   -4.8364 C   0  0  0  0  0  0  0  0  0  0  0  0
   -3.1671   -2.5554   -4.0237 C   0  0  0  0  0  0  0  0  0  0  0  0
    2.6695   -0.0808   -0.0493 C   0  0  0  0  0  0  0  0  0  0  0  0
   -2.9986   -5.3264   -3.7763 C   0  0  0  0  0  0  0  0  0  0  0  0
   -3.7568   -3.1944   -2.9335 C   0  0  0  0  0  0  0  0  0  0  0  0
   -3.6906   -4.5813   -2.8225 C   0  0  0  0  0  0  0  0  0  0  0  0
  1  4  2  0
  1  5  2  0
  1 10  1  0
  1 19  1  0
  2  9  1  0
  2 14  1  0
  3 14  2  0
  6  7  1  0
  6  8  2  0
  6  9  1  0
  7 12  2  0
  7 13  1  0
  8 11  1  0
  8 14  1  0
 10 15  2  0
 10 16  1  0
 11 17  2  0
 11 18  1  0
 12 15  1  0
 13 16  2  0
 17 20  1  0
 18 21  2  0
 20 22  2  0
 21 22  1  0
M  END
>  <DRUGBANK_ID>  (1) 
DB00533

>  <SECONDARY_ACCESSION_NUMBERS>  (1) 
APRD00151

>  <COMMON_NAME>  (1) 
Rofecoxib

>  <CAS_NUMBER>  (1) 
162011-90-7

>  <UNII>  (1) 
0QTW8Z7MCR

>  <SYNONYMS>  (1) 
3-phenyl-4-[4-(methylsulfonyl)phenyl]-2(5H)-furanone; 4-[4-(methylsulfonyl)phenyl]-3-phenyl-2(5H)-furanone; Rof√©coxib; Rofecoxib; Rofecoxibum

$$$$
