
     RDKit          3D

 44 48  0  0  0  0  0  0  0  0999 V2000
    0.9968    0.1943   -0.0787 C   0  0  0  0  0  0  0  0  0  0  0  0
    0.5441   -0.8197   -1.1161 C   0  0  0  0  0  0  0  0  0  0  0  0
    1.0224   -2.2194   -0.7403 C   0  0  0  0  0  0  0  0  0  0  0  0
    0.4760   -2.6436    0.6289 C   0  0  0  0  0  0  0  0  0  0  0  0
   -1.0685   -2.6117    0.6513 C   0  0  0  0  0  0  0  0  0  0  0  0
   -1.6041   -3.5690   -0.3672 C   0  0  0  0  0  0  0  0  0  0  0  0
   -1.2007   -4.8618   -0.1734 C   0  0  0  0  0  0  0  0  0  0  0  0
   -1.6579   -5.8390   -1.0084 C   0  0  0  0  0  0  0  0  0  0  0  0
   -2.3683   -5.6152   -2.1873 C   0  0  0  0  0  0  0  0  0  0  0  0
   -2.8240   -4.3042   -2.3531 C   0  0  0  0  0  0  0  0  0  0  0  0
   -2.4385   -3.2820   -1.4548 C   0  0  0  0  0  0  0  0  0  0  0  0
   -2.6282   -6.6611   -3.2648 C   0  0  0  0  0  0  0  0  0  0  0  0
   -3.3830   -6.3214   -4.2137 O   0  0  0  0  0  0  0  0  0  0  0  0
   -2.0063   -7.9255   -3.2694 N   0  0  0  0  0  0  0  0  0  0  0  0
   -1.2090   -8.3204   -2.1140 C   0  0  0  0  0  0  0  0  0  0  0  0
   -1.9751   -9.0918   -1.0281 C   0  0  0  0  0  0  0  0  0  0  0  0
   -1.8856  -10.4051   -1.2454 C   0  0  0  0  0  0  0  0  0  0  0  0
   -2.5647  -11.5418   -0.7178 C   0  0  0  0  0  0  0  0  0  0  0  0
   -2.9103  -11.4720    0.5519 C   0  0  0  0  0  0  0  0  0  0  0  0
   -3.0046  -10.1438    0.9841 C   0  0  0  0  0  0  0  0  0  0  0  0
   -2.6716   -8.9583    0.1459 C   0  0  0  0  0  0  0  0  0  0  0  0
   -2.9169  -12.7642    1.2556 C   0  0  0  0  0  0  0  0  0  0  0  0
   -1.8402  -13.7172    1.3798 C   0  0  0  0  0  0  0  0  0  0  0  0
   -1.9566  -14.8492    2.1826 C   0  0  0  0  0  0  0  0  0  0  0  0
   -3.1672  -15.0393    2.8315 C   0  0  0  0  0  0  0  0  0  0  0  0
   -3.3996  -16.1680    3.7804 C   0  0  0  0  0  0  0  0  0  0  0  0
   -3.8412  -15.6634    5.1366 C   0  0  0  0  0  0  0  0  0  0  0  0
   -4.9438  -15.8753    5.6084 O   0  0  0  0  0  0  0  0  0  0  0  0
   -2.8588  -14.9245    5.7320 O   0  0  0  0  0  0  0  0  0  0  0  0
   -3.2333  -14.3908    7.0017 C   0  0  0  0  0  0  0  0  0  0  0  0
   -4.2500  -14.1798    2.5883 C   0  0  0  0  0  0  0  0  0  0  0  0
   -4.1491  -13.1239    1.7245 C   0  0  0  0  0  0  0  0  0  0  0  0
   -2.2523   -8.9169   -4.4224 C   0  0  0  0  0  0  0  0  0  0  0  0
   -3.3937   -9.9217   -4.2071 C   0  0  0  0  0  0  0  0  0  0  0  0
   -2.9394  -11.1705   -3.4081 C   0  0  0  0  0  0  0  0  0  0  0  0
   -1.4575  -11.7343   -3.5412 N   0  0  0  0  0  0  0  0  0  0  0  0
   -0.4773  -10.8026   -4.0980 C   0  0  0  0  0  0  0  0  0  0  0  0
   -1.0375   -9.6958   -4.9732 C   0  0  0  0  0  0  0  0  0  0  0  0
   -0.6220  -12.6406   -2.4109 C   0  0  0  0  0  0  0  0  0  0  0  0
    0.2075  -11.9848   -0.9719 C   0  0  0  0  0  0  0  0  0  0  0  0
   -0.3371  -11.6446    0.2029 N   0  0  0  0  0  0  0  0  0  0  0  0
    0.2763  -10.5381    0.7214 C   0  0  0  0  0  0  0  0  0  0  0  0
    1.5499  -10.6283    0.2755 C   0  0  0  0  0  0  0  0  0  0  0  0
    1.5127  -11.5592   -0.7672 N   0  0  0  0  0  0  0  0  0  0  0  0
  1  2  1  0
  2  3  1  0
  3  4  1  0
  4  5  1  0
  5  6  1  0
  6  7  2  0
  6 11  1  0
  7  8  1  0
  8  9  2  0
  9 10  1  0
  9 12  1  0
 10 11  2  0
 12 13  2  0
 12 14  1  0
 14 15  1  0
 14 33  1  0
 15 16  1  0
 16 17  2  0
 16 21  1  0
 17 18  1  0
 18 19  2  0
 19 20  1  0
 19 22  1  0
 20 21  2  0
 22 23  2  0
 22 32  1  0
 23 24  1  0
 24 25  2  0
 25 26  1  0
 25 31  1  0
 26 27  1  0
 27 28  2  0
 27 29  1  0
 29 30  1  0
 31 32  2  0
 33 34  1  0
 33 38  1  0
 34 35  1  0
 35 36  1  0
 36 37  1  0
 36 39  1  0
 37 38  1  0
 39 40  1  0
 40 41  2  0
 40 44  1  0
 41 42  1  0
 42 43  2  0
 43 44  1  0
M  END
>  <DRUGBANK_ID>  (1) 
DB02505

>  <SECONDARY_ACCESSION_NUMBERS>  (1) 
EXPT01851

>  <COMMON_NAME>  (1) 
N-(R-Carboxy-Ethyl)-Alpha-(S)-(2-Phenylethyl)

$$$$
