
     RDKit          3D

 33 35  0  0  0  0  0  0  0  0999 V2000
    0.9935   -0.1086    0.0838 Si  0  0  0  0  0  4  0  0  0  0  0  0
    1.0012    1.6019   -2.4695 Si  0  0  0  0  0  4  0  0  0  0  0  0
    1.0085   -3.1166   -0.1405 Si  0  0  0  0  0  4  0  0  0  0  0  0
    0.5342    0.2856   -1.5013 O   0  0  0  0  0  0  0  0  0  0  0  0
    0.5075   -1.6475    0.5280 O   0  0  0  0  0  0  0  0  0  0  0  0
    2.2005    4.1925    3.8010 O   0  0  0  0  0  0  0  0  0  0  0  0
    2.3595    6.4242    2.2477 N   0  0  0  0  0  0  0  0  0  0  0  0
    1.5158    7.2210    1.5428 N   0  0  0  0  0  0  0  0  0  0  0  0
    2.7307    6.8378    3.4726 N   0  0  0  0  0  0  0  0  0  0  0  0
    0.4107    1.2547    1.1952 C   0  0  0  0  0  0  0  0  0  0  0  0
    0.9244    1.3244    2.6271 C   0  0  0  0  0  0  0  0  0  0  0  0
    2.4897    1.5527    2.7156 C   0  0  0  0  0  0  0  0  0  0  0  0
    2.8549   -0.1979    0.0233 C   0  0  0  0  0  0  0  0  0  0  0  0
    0.0964    2.4136    3.3245 C   0  0  0  0  0  0  0  0  0  0  0  0
    3.0504    2.8123    2.0526 C   0  0  0  0  0  0  0  0  0  0  0  0
    0.4240    3.1858   -1.6468 C   0  0  0  0  0  0  0  0  0  0  0  0
    2.8706    1.6296   -2.6588 C   0  0  0  0  0  0  0  0  0  0  0  0
    0.3401    1.5719   -4.2009 C   0  0  0  0  0  0  0  0  0  0  0  0
    0.4222   -3.0286   -1.9138 C   0  0  0  0  0  0  0  0  0  0  0  0
    2.8941   -3.2763   -0.0960 C   0  0  0  0  0  0  0  0  0  0  0  0
    0.3484   -4.5886    0.7595 C   0  0  0  0  0  0  0  0  0  0  0  0
    2.7118    4.0653    2.5410 C   0  0  0  0  0  0  0  0  0  0  0  0
    3.8700    2.8109    0.9048 C   0  0  0  0  0  0  0  0  0  0  0  0
    2.8465    5.2064    1.7434 C   0  0  0  0  0  0  0  0  0  0  0  0
    4.0541    3.9516    0.0933 C   0  0  0  0  0  0  0  0  0  0  0  0
    3.4657    5.1516    0.4912 C   0  0  0  0  0  0  0  0  0  0  0  0
    4.8925    3.8954   -1.1580 C   0  0  0  0  0  0  0  0  0  0  0  0
    1.1901    8.1557    2.4506 C   0  0  0  0  0  0  0  0  0  0  0  0
    1.9858    7.9351    3.6560 C   0  0  0  0  0  0  0  0  0  0  0  0
    0.2856    9.2341    2.3626 C   0  0  0  0  0  0  0  0  0  0  0  0
    1.9497    8.7685    4.7743 C   0  0  0  0  0  0  0  0  0  0  0  0
    0.2711   10.0756    3.4959 C   0  0  0  0  0  0  0  0  0  0  0  0
    1.0750    9.8594    4.6486 C   0  0  0  0  0  0  0  0  0  0  0  0
  1  4  1  0
  1  5  1  0
  1 10  1  0
  1 13  1  0
  2  4  1  0
  2 16  1  0
  2 17  1  0
  2 18  1  0
  3  5  1  0
  3 19  1  0
  3 20  1  0
  3 21  1  0
  6 22  1  0
  7  8  1  0
  7  9  1  0
  7 24  1  0
  8 28  2  0
  9 29  2  0
 10 11  1  0
 11 12  1  0
 11 14  1  0
 12 15  1  0
 15 22  2  0
 15 23  1  0
 22 24  1  0
 23 25  2  0
 24 26  2  0
 25 26  1  0
 25 27  1  0
 28 29  1  0
 28 30  1  0
 29 31  1  0
 30 32  2  0
 31 33  2  0
 32 33  1  0
M  END
>  <DRUGBANK_ID>  (1) 
DB11585

>  <COMMON_NAME>  (1) 
Drometrizole trisiloxane

>  <CAS_NUMBER>  (1) 
155633-54-8

>  <UNII>  (1) 
HC22845I1X

>  <SYNONYMS>  (1) 
Silatrizole

$$$$
