
     RDKit          3D

 33 37  0  0  1  0  0  0  0  0999 V2000
   -1.7487   -0.4485    0.1320 C   0  0  0  0  0  0  0  0  0  0  0  0
   -1.0721   -1.6250    0.7774 C   0  0  0  0  0  0  0  0  0  0  0  0
   -0.6774    0.0563   -0.9679 C   0  0  0  0  0  0  0  0  0  0  0  0
   -0.1183    1.2953   -0.9916 O   0  0  0  0  0  0  0  0  0  0  0  0
   -0.3331   -0.6856   -1.8625 O   0  0  0  0  0  0  0  0  0  0  0  0
   -0.5577    2.2888   -0.1115 C   0  0  2  0  0  0  0  0  0  0  0  0
   -2.0242    2.5958   -0.3661 C   0  0  1  0  0  0  0  0  0  0  0  0
    0.2227    3.5672   -0.3131 C   0  0  0  0  0  0  0  0  0  0  0  0
   -2.4234    3.6139    0.6939 C   0  0  0  0  0  0  0  0  0  0  0  0
   -2.4168    3.1276   -1.6913 C   0  0  0  0  0  0  0  0  0  0  0  0
   -0.7609    4.7039   -0.5957 N   0  0  2  0  0  0  0  0  0  0  0  0
   -1.7093    4.9037    0.5672 C   0  0  0  0  0  0  0  0  0  0  0  0
   -1.6975    4.4131   -1.8059 C   0  0  0  0  0  0  0  0  0  0  0  0
    0.0580    5.9292   -0.6673 C   0  0  0  0  0  0  0  0  0  0  0  0
   -1.5174   -2.9246    0.8034 C   0  0  0  0  0  0  0  0  0  0  0  0
   -0.7473   -3.7293    1.6731 C   0  0  0  0  0  0  0  0  0  0  0  0
    0.2819   -3.0321    2.2638 C   0  0  0  0  0  0  0  0  0  0  0  0
    0.3999   -1.4408    1.6622 S   0  0  0  0  0  0  0  0  0  0  0  0
    0.7929    6.1445   -1.9679 C   0  0  0  0  0  0  0  0  0  0  0  0
    0.0358    6.1149   -3.3026 C   0  0  0  0  0  0  0  0  0  0  0  0
   -1.1238    6.9483   -3.5610 O   0  0  0  0  0  0  0  0  0  0  0  0
   -2.0414    7.4081   -2.6578 C   0  0  0  0  0  0  0  0  0  0  0  0
   -1.7390    8.0136   -1.4515 C   0  0  0  0  0  0  0  0  0  0  0  0
   -2.6797    8.0467   -0.4007 C   0  0  0  0  0  0  0  0  0  0  0  0
   -4.0212    7.8909   -0.6808 C   0  0  0  0  0  0  0  0  0  0  0  0
   -4.3786    7.6728   -2.0045 C   0  0  0  0  0  0  0  0  0  0  0  0
   -3.4011    7.3255   -2.9615 C   0  0  0  0  0  0  0  0  0  0  0  0
   -2.4761    0.3775    1.2797 C   0  0  0  0  0  0  0  0  0  0  0  0
   -4.1562    1.0206    1.1761 S   0  0  0  0  0  0  0  0  0  0  0  0
   -2.1998    0.4912    2.6441 C   0  0  0  0  0  0  0  0  0  0  0  0
   -3.8335    2.1204    2.4762 C   0  0  0  0  0  0  0  0  0  0  0  0
   -2.8547    1.5892    3.2788 C   0  0  0  0  0  0  0  0  0  0  0  0
   -2.8225   -0.9351   -0.6986 O   0  0  0  0  0  0  0  0  0  0  0  0
  1  2  1  0
  1  3  1  0
  1 28  1  0
  1 33  1  0
  2 15  2  0
  2 18  1  0
  3  4  1  0
  3  5  2  0
  6  7  1  0
  6  8  1  0
  6  4  1  6
  7  9  1  1
  7 10  1  0
  8 11  1  0
  9 12  1  0
 10 13  1  0
 11 12  1  0
 11 13  1  0
 11 14  1  6
 14 19  1  0
 15 16  1  0
 16 17  2  0
 17 18  1  0
 19 20  1  0
 20 21  1  0
 21 22  1  0
 22 23  2  0
 22 27  1  0
 23 24  1  0
 24 25  2  0
 25 26  1  0
 26 27  2  0
 29 28  1  0
 30 28  2  0
 31 29  1  0
 32 30  1  0
 32 31  2  0
M  CHG  1  11   1
M  END
>  <DRUGBANK_ID>  (1) 
DB08897

>  <COMMON_NAME>  (1) 
Aclidinium

>  <CAS_NUMBER>  (1) 
727649-81-2

>  <UNII>  (1) 
K17VY42F6C

>  <SYNONYMS>  (1) 
Aclidinio

$$$$
