80G
     RDKit          3D

 13 14  0  0  0  0  0  0  0  0999 V2000
    1.3977   -0.2249    0.0623 C   0  0  0  0  0  0  0  0  0  0  0  0
    0.8932    1.0808    0.0350 C   0  0  0  0  0  0  0  0  0  0  0  0
   -0.4859    1.3018    0.0147 C   0  0  0  0  0  0  0  0  0  0  0  0
   -1.3851    0.2271   -0.0358 C   0  0  0  0  0  0  0  0  0  0  0  0
   -0.8784   -1.0787   -0.0215 C   0  0  0  0  0  0  0  0  0  0  0  0
    0.4999   -1.2996    0.0280 C   0  0  0  0  0  0  0  0  0  0  0  0
    2.8342   -0.4888    0.1262 C   0  0  0  0  0  0  0  0  0  0  0  0
    5.1843   -0.6518    0.8610 C   0  0  0  0  0  0  0  0  0  0  0  0
    4.9649   -1.3324   -0.3145 C   0  0  0  0  0  0  0  0  0  0  0  0
    3.6073   -1.2433   -0.7365 C   0  0  0  0  0  0  0  0  0  0  0  0
   -2.8643    0.4809   -0.1653 C   0  0  0  0  0  0  0  0  0  0  0  0
   -3.3861    1.2373    0.9647 N   0  0  0  0  0  0  0  0  0  0  0  0
    3.7632    0.1037    1.4403 S   0  0  0  0  0  0  0  0  0  0  0  0
  1  6  1  0
  1  7  1  0
  2  1  2  0
  3  2  1  0
  3  4  2  0
  4  5  1  0
  5  6  2  0
  7 13  1  0
  7 10  2  0
  8  9  2  0
 10  9  1  0
 11  4  1  0
 11 12  1  0
 13  8  1  0
M  END
>  <DRUGBANK_ID>  (1) 
DB07259

>  <COMMON_NAME>  (1) 
1-(4-thiophen-2-ylphenyl)methanamine

$$$$
