
     RDKit          3D

 30 33  0  0  0  0  0  0  0  0999 V2000
    0.6314    2.4606   -1.3043 C   0  0  0  0  0  0  0  0  0  0  0  0
    0.2393    1.7810    0.0244 C   0  0  0  0  0  0  0  0  0  0  0  0
    0.8736    2.5381    1.2145 C   0  0  0  0  0  0  0  0  0  0  0  0
   -1.2764    1.9223    0.2431 C   0  0  0  0  0  0  0  0  0  0  0  0
   -2.1722    0.7838   -0.1748 C   0  0  0  0  0  0  0  0  0  0  0  0
   -1.6396   -0.6500   -0.0263 C   0  0  0  0  0  0  0  0  0  0  0  0
   -2.1666   -1.4026   -1.2777 C   0  0  0  0  0  0  0  0  0  0  0  0
   -2.2918   -1.2963    1.2213 C   0  0  0  0  0  0  0  0  0  0  0  0
   -0.1170   -0.7469    0.0321 C   0  0  0  0  0  0  0  0  0  0  0  0
    0.4628   -2.0309    0.0722 C   0  0  0  0  0  0  0  0  0  0  0  0
    1.8402   -2.2853    0.0373 C   0  0  0  0  0  0  0  0  0  0  0  0
    2.6689   -1.1683   -0.0591 C   0  0  0  0  0  0  0  0  0  0  0  0
    2.1317    0.1184   -0.0469 C   0  0  0  0  0  0  0  0  0  0  0  0
    0.7414    0.3514    0.0143 C   0  0  0  0  0  0  0  0  0  0  0  0
    2.4183   -3.6945    0.0561 C   0  0  0  0  0  0  0  0  0  0  0  0
    1.7714   -4.8324    0.0992 N   0  0  0  0  0  0  0  0  0  0  0  0
    0.3856   -4.7264    0.1662 O   0  0  0  0  0  0  0  0  0  0  0  0
    3.9193   -3.8390    0.0179 C   0  0  0  0  0  0  0  0  0  0  0  0
    4.7148   -3.2857    1.0257 C   0  0  0  0  0  0  0  0  0  0  0  0
    6.1049   -3.4187    0.9753 C   0  0  0  0  0  0  0  0  0  0  0  0
    6.7232   -4.1589   -0.0430 C   0  0  0  0  0  0  0  0  0  0  0  0
    8.1208   -4.3482   -0.0451 C   0  0  0  0  0  0  0  0  0  0  0  0
    8.7513   -5.0976   -1.0454 C   0  0  0  0  0  0  0  0  0  0  0  0
    7.9562   -5.6540   -2.0590 C   0  0  0  0  0  0  0  0  0  0  0  0
    6.5654   -5.4670   -2.0724 C   0  0  0  0  0  0  0  0  0  0  0  0
    5.9260   -4.7298   -1.0620 C   0  0  0  0  0  0  0  0  0  0  0  0
    4.5242   -4.5536   -1.0253 C   0  0  0  0  0  0  0  0  0  0  0  0
   10.2271   -5.3408   -1.1000 C   0  0  0  0  0  0  0  0  0  0  0  0
   10.9824   -4.8005   -0.1238 O   0  0  0  0  0  0  0  0  0  0  0  0
   10.7384   -6.0013   -1.9990 O   0  0  0  0  0  0  0  0  0  0  0  0
  1  2  1  0
  2  3  1  0
  2  4  1  0
  2 14  1  0
  4  5  1  0
  5  6  1  0
  6  7  1  0
  6  8  1  0
  6  9  1  0
  9 10  1  0
  9 14  2  0
 10 11  2  0
 11 12  1  0
 11 15  1  0
 12 13  2  0
 13 14  1  0
 15 16  2  0
 15 18  1  0
 16 17  1  0
 18 19  2  0
 18 27  1  0
 19 20  1  0
 20 21  2  0
 21 22  1  0
 21 26  1  0
 22 23  2  0
 23 24  1  0
 23 28  1  0
 24 25  2  0
 25 26  1  0
 26 27  2  0
 28 29  1  0
 28 30  2  0
M  END
>  <DRUGBANK_ID>  (1) 
DB02258

>  <SECONDARY_ACCESSION_NUMBERS>  (1) 
EXPT00094

>  <COMMON_NAME>  (1) 
SR11254

$$$$
