
     RDKit          3D

 13 14  0  0  0  0  0  0  0  0999 V2000
    1.2416   -1.4076    0.0311 C   0  0  0  0  0  0  0  0  0  0  0  0
   -0.0026   -0.7258    0.0926 C   0  0  0  0  0  0  0  0  0  0  0  0
   -0.0249    0.7005    0.0950 C   0  0  0  0  0  0  0  0  0  0  0  0
    1.1838    1.4067    0.0690 C   0  0  0  0  0  0  0  0  0  0  0  0
    2.4354   -0.6613   -0.0511 C   0  0  0  0  0  0  0  0  0  0  0  0
    2.3997    0.7426   -0.0188 C   0  0  0  0  0  0  0  0  0  0  0  0
    1.2947   -2.8000   -0.1118 N   0  0  0  0  0  0  0  0  0  0  0  0
    1.1612    2.7807    0.0742 O   0  0  0  0  0  0  0  0  0  0  0  0
   -1.2411   -1.3963    0.1173 C   0  0  0  0  0  0  0  0  0  0  0  0
    3.7650   -1.3483   -0.1813 C   0  0  0  0  0  0  0  0  0  0  0  0
   -1.2593    1.3676    0.0533 C   0  0  0  0  0  0  0  0  0  0  0  0
   -2.4441   -0.7171   -0.0458 C   0  0  0  0  0  0  0  0  0  0  0  0
   -2.4457    0.6681   -0.1302 C   0  0  0  0  0  0  0  0  0  0  0  0
  2  1  2  0
  3  2  1  0
  4  6  1  0
  4  3  2  0
  5  1  1  0
  6  5  2  0
  7  1  1  0
  8  4  1  0
  9  2  1  0
 10  5  1  0
 11  3  1  0
 11 13  2  0
 12  9  2  0
 13 12  1  0
M  END
>  <DRUGBANK_ID>  (1) 
DB15664

>  <COMMON_NAME>  (1) 
Vitamin K7

>  <CAS_NUMBER>  (1) 
83-69-2

>  <UNII>  (1) 
HEE4JPA7DF

>  <SYNONYMS>  (1) 
1-amino-2-methyl-4-naphthol; 1-hydroxy-3-methyl-4-aminonaphthalene; 2-methyl-4-hydroxy-1-naphthylamine; 3-methyl-4-amino-1-naphthol; 4-amino-3-methyl-1-naphthol; 4-Amino-3-methylnaphthol

$$$$
