
     RDKit          3D

 20 20  0  0  0  0  0  0  0  0999 V2000
    0.9664    0.0718   -0.0918 C   0  0  0  0  0  0  0  0  0  0  0  0
    0.3919   -1.0169    0.8164 C   0  0  0  0  0  0  0  0  0  0  0  0
    1.0223   -1.1186    2.1387 N   0  0  0  0  0  0  0  0  0  0  0  0
    0.4886   -2.2257    2.9483 C   0  0  0  0  0  0  0  0  0  0  0  0
    0.7764   -3.6543    2.4818 C   0  0  0  0  0  0  0  0  0  0  0  0
    2.4853   -1.0510    2.1461 C   0  0  0  0  0  0  0  0  0  0  0  0
    3.2648   -2.1808    1.4732 C   0  0  0  0  0  0  0  0  0  0  0  0
    2.8504   -2.5381    0.1216 N   0  0  0  0  0  0  0  0  0  0  0  0
    3.6259   -2.6096   -0.9808 C   0  0  0  0  0  0  0  0  0  0  0  0
    3.1406   -2.6790   -2.1137 O   0  0  0  0  0  0  0  0  0  0  0  0
    5.0656   -2.6417   -0.7649 C   0  0  0  0  0  0  0  0  0  0  0  0
    5.6261   -3.4592    0.2325 C   0  0  0  0  0  0  0  0  0  0  0  0
    6.9967   -3.4320    0.4717 C   0  0  0  0  0  0  0  0  0  0  0  0
    7.8125   -2.6700   -0.3688 C   0  0  0  0  0  0  0  0  0  0  0  0
    9.2096   -2.6340   -0.1477 N   0  0  0  0  0  0  0  0  0  0  0  0
   10.0955   -1.8891   -0.9108 C   0  0  0  0  0  0  0  0  0  0  0  0
   11.5343   -1.9546   -0.5083 C   0  0  0  0  0  0  0  0  0  0  0  0
    9.8202   -1.1838   -1.8793 O   0  0  0  0  0  0  0  0  0  0  0  0
    7.2188   -1.9405   -1.4115 C   0  0  0  0  0  0  0  0  0  0  0  0
    5.8511   -1.8521   -1.5690 C   0  0  0  0  0  0  0  0  0  0  0  0
  1  2  1  0
  2  3  1  0
  3  4  1  0
  3  6  1  0
  4  5  1  0
  6  7  1  0
  7  8  1  0
  8  9  1  0
  9 10  2  0
  9 11  1  0
 11 12  2  0
 11 20  1  0
 12 13  1  0
 13 14  2  0
 14 15  1  0
 14 19  1  0
 15 16  1  0
 16 17  1  0
 16 18  2  0
 19 20  2  0
M  END
>  <DRUGBANK_ID>  (1) 
DB17602

>  <COMMON_NAME>  (1) 
Acecainide

>  <CAS_NUMBER>  (1) 
32795-44-1

>  <UNII>  (1) 
910Q707V6F

>  <SYNONYMS>  (1) 
4'-((2-(diethylamino)ethyl)carbamoyl)acetanilide; Acetylprocainamide; Acetylprocainamide, n-; Benzamide, 4-(acetylamino)-n-(2-(diethylamino)ethyl)-; N-acetyl-procainamide; N-acetylnovocainamide; N-acetylprocainamide; N-acetylprocaine amide

$$$$
