1571
     RDKit          3D

 26 28  0  0  1  0  0  0  0  0999 V2000
    0.5505   -0.1964   -0.1184 O   0  0  0  0  0  0  0  0  0  0  0  0
    5.3000    1.4006    0.6163 N   0  0  0  0  0  0  0  0  0  0  0  0
    2.6732   -1.0491   -0.6652 N   0  0  0  0  0  0  0  0  0  0  0  0
    4.1816   -1.0192   -0.7162 C   0  0  0  0  0  0  0  0  0  0  0  0
    5.0482   -1.2654    0.5636 C   0  0  0  0  0  0  0  0  0  0  0  0
    4.5397    0.2570   -1.4044 C   0  0  0  0  0  0  0  0  0  0  0  0
    5.1087    0.0614    1.3591 C   0  0  0  0  0  0  0  0  0  0  0  0
    4.6243    1.5591   -0.7011 C   0  0  0  0  0  0  0  0  0  0  0  0
    6.4710   -1.9230    0.4990 C   0  0  0  0  0  0  0  0  0  0  0  0
    6.7432    1.7858    0.4545 C   0  0  0  0  0  0  0  0  0  0  0  0
    7.6047    0.8390   -0.4698 C   0  0  0  0  0  0  0  0  0  0  0  0
    2.1336   -1.7303   -1.8281 C   0  0  0  0  0  0  0  0  0  0  0  0
    1.7481   -0.1343   -0.0048 C   0  0  0  0  0  0  0  0  0  0  0  0
    2.2735    0.9133    0.9748 C   0  0  0  0  0  0  0  0  0  0  0  0
    7.3805    0.6015   -2.0240 C   0  0  0  0  0  0  0  0  0  0  0  0
    1.1883   -1.0787   -2.6238 C   0  0  0  0  0  0  0  0  0  0  0  0
    2.5506   -3.0189   -2.2042 C   0  0  0  0  0  0  0  0  0  0  0  0
    2.1769    2.4367    0.9056 C   0  0  0  0  0  0  0  0  0  0  0  0
    0.5119   -1.7537   -3.6291 C   0  0  0  0  0  0  0  0  0  0  0  0
    1.9152   -3.6782   -3.2615 C   0  0  0  0  0  0  0  0  0  0  0  0
    7.0527   -0.6891   -2.6342 C   0  0  0  0  0  0  0  0  0  0  0  0
    6.9422    1.7325   -2.7186 C   0  0  0  0  0  0  0  0  0  0  0  0
    0.8497   -3.0687   -3.9218 C   0  0  0  0  0  0  0  0  0  0  0  0
    6.1939   -0.7820   -3.7699 C   0  0  0  0  0  0  0  0  0  0  0  0
    6.0755    1.6164   -3.8261 C   0  0  0  0  0  0  0  0  0  0  0  0
    5.7248    0.3787   -4.3751 C   0  0  0  0  0  0  0  0  0  0  0  0
  1 13  2  0
  2  7  1  0
  2  8  1  0
  2 10  1  0
  3  4  1  0
  3 12  1  0
  3 13  1  0
  4  5  1  0
  4  6  1  0
  5  7  1  0
  5  9  1  0
  6  8  1  0
 10 11  1  0
 11 15  1  0
 12 16  2  0
 12 17  1  0
 13 14  1  0
 14 18  1  0
 15 21  2  0
 15 22  1  0
 16 19  1  0
 17 20  2  0
 19 23  2  0
 20 23  1  0
 21 24  1  0
 22 25  2  0
 24 26  2  0
 25 26  1  0
M  END
>  <DRUGBANK_ID>  (1) 
DB01571

>  <COMMON_NAME>  (1) 
3-Methylfentanyl

>  <CAS_NUMBER>  (1) 
42045-86-3

>  <UNII>  (1) 
QVU94XE61A

>  <SYNONYMS>  (1) 
3-MF; mefentanyl

$$$$
