
     RDKit          3D

 14 16  0  0  0  0  0  0  0  0999 V2000
   -4.0956   -0.8533   -0.0108 O   0  0  0  0  0  0  0  0  0  0  0  0
   -2.9928   -0.3212    0.0045 C   0  0  0  0  0  0  0  0  0  0  0  0
   -2.8620    1.1462    0.0278 C   0  0  0  0  0  0  0  0  0  0  0  0
   -1.6767    1.7643    0.0137 C   0  0  0  0  0  0  0  0  0  0  0  0
   -0.4533    0.9757   -0.0098 C   0  0  0  0  0  0  0  0  0  0  0  0
    0.8128    1.5830   -0.0257 C   0  0  0  0  0  0  0  0  0  0  0  0
    1.9575    0.7594   -0.0158 C   0  0  0  0  0  0  0  0  0  0  0  0
    3.3624    0.9716   -0.0118 C   0  0  0  0  0  0  0  0  0  0  0  0
    3.9455   -0.2749    0.0073 C   0  0  0  0  0  0  0  0  0  0  0  0
    2.9978   -1.2468    0.0098 O   0  0  0  0  0  0  0  0  0  0  0  0
    1.7890   -0.6222   -0.0036 C   0  0  0  0  0  0  0  0  0  0  0  0
    0.5560   -1.2623   -0.0042 C   0  0  0  0  0  0  0  0  0  0  0  0
   -0.5543   -0.4179   -0.0038 C   0  0  0  0  0  0  0  0  0  0  0  0
   -1.8154   -1.0526    0.0026 O   0  0  0  0  0  0  0  0  0  0  0  0
  1  2  2  0
  2  3  1  0
  2 14  1  0
  3  4  2  0
  4  5  1  0
  5  6  1  0
  5 13  2  0
  6  7  2  0
  7  8  1  0
  7 11  1  0
  8  9  2  0
  9 10  1  0
 10 11  1  0
 11 12  2  0
 12 13  1  0
 13 14  1  0
M  END
>  <DRUGBANK_ID>  (1) 
DB18665

>  <COMMON_NAME>  (1) 
Psoralen

>  <CAS_NUMBER>  (1) 
66-97-7

>  <UNII>  (1) 
KTZ7ZCN2EX

>  <SYNONYMS>  (1) 
6-hydroxy-5-benzofuranacrylic acid .delta.-lactone; Ficusin

$$$$
