NPV
     RDKit          3D

 28 31  0  0  0  0  0  0  0  0999 V2000
    1.4075   -0.2592    0.0426 C   0  0  0  0  0  0  0  0  0  0  0  0
    0.5081   -1.3323    0.0301 C   0  0  0  0  0  0  0  0  0  0  0  0
   -0.8727   -1.0987    0.0155 C   0  0  0  0  0  0  0  0  0  0  0  0
   -1.3792    0.2089    0.0155 C   0  0  0  0  0  0  0  0  0  0  0  0
    0.9146    1.0492    0.0124 C   0  0  0  0  0  0  0  0  0  0  0  0
   -2.8136    0.4724   -0.1438 C   0  0  0  0  0  0  0  0  0  0  0  0
   -7.2980    1.5954   -1.8609 C   0  0  0  0  0  0  0  0  0  0  0  0
   -3.2528    1.2147   -1.2347 C   0  0  0  0  0  0  0  0  0  0  0  0
   -4.6184    1.4028   -1.4270 C   0  0  0  0  0  0  0  0  0  0  0  0
   -5.0888    2.0366   -2.5794 C   0  0  0  0  0  0  0  0  0  0  0  0
    2.8704   -0.4709    0.1584 C   0  0  0  0  0  0  0  0  0  0  0  0
    3.7180    0.4105    0.2090 O   0  0  0  0  0  0  0  0  0  0  0  0
    3.2002   -1.7693    0.2619 O   0  0  0  0  0  0  0  0  0  0  0  0
   -0.4640    1.2764    0.0469 C   0  0  0  0  0  0  0  0  0  0  0  0
   -3.6659   -0.0640    0.7598 N   0  0  0  0  0  0  0  0  0  0  0  0
   -6.4445    2.0082   -2.8599 C   0  0  0  0  0  0  0  0  0  0  0  0
   -6.8754    1.0796   -0.6911 N   0  0  0  0  0  0  0  0  0  0  0  0
   -5.5442    0.8890   -0.5076 C   0  0  0  0  0  0  0  0  0  0  0  0
   -5.0043    0.1573    0.5673 C   0  0  0  0  0  0  0  0  0  0  0  0
   -5.9040   -0.3862    1.6082 C   0  0  0  0  0  0  0  0  0  0  0  0
   -7.0164   -1.1879    1.2797 C   0  0  0  0  0  0  0  0  0  0  0  0
   -5.7628    0.0396    2.9396 C   0  0  0  0  0  0  0  0  0  0  0  0
   -6.7160   -0.2818    3.9096 C   0  0  0  0  0  0  0  0  0  0  0  0
   -7.8442   -1.0208    3.5624 C   0  0  0  0  0  0  0  0  0  0  0  0
   -8.0118   -1.4331    2.2363 C   0  0  0  0  0  0  0  0  0  0  0  0
   -9.3072   -1.9898    1.8200 N   0  0  0  0  0  0  0  0  0  0  0  0
   -9.4584   -2.2834    0.6255 O   0  0  0  0  0  0  0  0  0  0  0  0
  -10.1907   -2.0989    2.6840 O   0  0  0  0  0  0  0  0  0  0  0  0
  1  2  2  0
  1  5  1  0
  2  3  1  0
  3  4  2  0
  4  6  1  0
  5 14  2  0
  6 15  1  0
  6  8  2  0
  8  9  1  0
  9 18  1  0
  9 10  2  0
 10 16  1  0
 11  1  1  0
 12 11  2  0
 13 11  1  0
 14  4  1  0
 15 19  2  0
 16  7  2  0
 17  7  1  0
 18 17  2  0
 19 20  1  0
 19 18  1  0
 20 22  2  0
 21 25  2  0
 21 20  1  0
 22 23  1  0
 24 23  2  0
 25 24  1  0
 26 27  2  0
 26 25  1  0
 28 26  1  0
M  CHG  2  26   1  28  -1
M  END
>  <DRUGBANK_ID>  (1) 
DB08299

>  <COMMON_NAME>  (1) 
4-[8-(3-nitrophenyl)-1,7-naphthyridin-6-yl]benzoic acid

>  <UNII>  (1) 
ISK95MWA33

$$$$
