
     RDKit          3D

 21 22  0  0  0  0  0  0  0  0999 V2000
    1.0720   -0.0580   -0.0381 P   0  0  0  0  0  0  0  0  0  0  0  0
   -0.3566   -8.2633    0.8247 F   0  0  0  0  0  0  0  0  0  0  0  0
   -0.0933   -2.6555    1.6321 O   0  0  0  0  0  0  0  0  0  0  0  0
    1.0744    0.4387    1.5117 O   0  0  0  0  0  0  0  0  0  0  0  0
   -2.2535   -1.5022    3.7268 O   0  0  0  0  0  0  0  0  0  0  0  0
    2.1334   -3.9292    2.7859 O   0  0  0  0  0  0  0  0  0  0  0  0
    2.3841   -8.1218    1.2327 O   0  0  0  0  0  0  0  0  0  0  0  0
    1.0151    1.1345   -0.9834 O   0  0  0  0  0  0  0  0  0  0  0  0
   -0.6580   -0.0580   -0.0381 O   0  0  0  0  0  0  0  0  0  0  0  0
    2.8020   -0.0580   -0.0381 O   0  0  0  0  0  0  0  0  0  0  0  0
    0.1267   -4.9517    2.2135 N   0  0  0  0  0  0  0  0  0  0  0  0
    2.1528   -6.1204    2.2880 N   0  0  0  0  0  0  0  0  0  0  0  0
   -0.6373   -3.7269    2.4358 C   0  0  1  0  0  0  0  0  0  0  0  0
   -0.2524   -1.4184    2.3745 C   0  0  1  0  0  0  0  0  0  0  0  0
   -0.8453   -1.7582    3.7266 C   0  0  2  0  0  0  0  0  0  0  0  0
    1.4988   -4.9265    2.4538 C   0  0  0  0  0  0  0  0  0  0  0  0
   -0.6194   -3.2347    3.8757 C   0  0  0  0  0  0  0  0  0  0  0  0
   -0.4986   -6.0978    1.7380 C   0  0  0  0  0  0  0  0  0  0  0  0
    0.2058   -7.1786    1.3881 C   0  0  0  0  0  0  0  0  0  0  0  0
    1.6603   -7.2020    1.6147 C   0  0  0  0  0  0  0  0  0  0  0  0
    1.0624   -0.6249    2.4676 C   0  0  0  0  0  0  0  0  0  0  0  0
  1  4  1  0
  1  8  2  0
  1  9  1  0
  1 10  1  0
  2 19  1  0
  3 13  1  0
  3 14  1  0
  4 21  1  0
  6 16  2  0
  7 20  2  0
 11 16  1  0
 11 18  1  0
 12 16  1  0
 12 20  1  0
 13 17  1  0
 13 11  1  1
 14 15  1  0
 14 21  1  1
 15  5  1  6
 15 17  1  0
 18 19  2  0
 19 20  1  0
M  END
>  <DRUGBANK_ID>  (1) 
DB03761

>  <SECONDARY_ACCESSION_NUMBERS>  (1) 
EXPT03176

>  <COMMON_NAME>  (1) 
5-fluoro-2'-deoxyuridine-5'-monophosphate

>  <CAS_NUMBER>  (1) 
134-46-3

>  <UNII>  (1) 
7CJ707H131

>  <SYNONYMS>  (1) 
5-fluorodeoxyuridine monophosphate; 5FdUMP; F-dUMP

$$$$
