
     RDKit          3D

 39 42  0  0  0  0  0  0  0  0999 V2000
  -12.4996   -4.5989   21.0450 C   0  0  0  0  0  0  0  0  0  0  0  0
   -6.0903   -3.8087   12.9307 C   0  0  0  0  0  0  0  0  0  0  0  0
   -9.3545   -3.2489   14.3188 C   0  0  0  0  0  0  0  0  0  0  0  0
   -1.2972   -6.0795   13.0079 C   0  0  0  0  0  0  0  0  0  0  0  0
   -6.4983   -3.9816   13.5912 C   0  0  0  0  0  0  0  0  0  0  0  0
   -2.6930   -7.2020   15.5674 C   0  0  0  0  0  0  0  0  0  0  0  0
   -5.2550   -3.2830   14.1172 C   0  0  0  0  0  0  0  0  0  0  0  0
   -2.6606   -6.5519   16.9410 C   0  0  0  0  0  0  0  0  0  0  0  0
  -11.6460   -4.8337   18.6475 C   0  0  0  0  0  0  0  0  0  0  0  0
   -6.3733   -2.3038   10.9707 C   0  0  0  0  0  0  0  0  0  0  0  0
   -9.2804   -3.9763   21.3832 C   0  0  0  0  0  0  0  0  0  0  0  0
  -10.2666   -5.0169   16.6998 C   0  0  0  0  0  0  0  0  0  0  0  0
   -3.5020   -4.0753   11.5481 C   0  0  0  0  0  0  0  0  0  0  0  0
   -5.4451   -6.0815   15.5845 C   0  0  0  0  0  0  0  0  0  0  0  0
  -11.4679   -4.5612   19.9293 C   0  0  0  0  0  0  0  0  0  0  0  0
   -5.6542   -3.1275   11.6437 C   0  0  0  0  0  0  0  0  0  0  0  0
   -8.4929   -4.2569   15.0616 C   0  0  0  0  0  0  0  0  0  0  0  0
   -2.7068   -5.7675   13.4833 C   0  0  0  0  0  0  0  0  0  0  0  0
   -5.7245   -1.8924    9.9016 C   0  0  0  0  0  0  0  0  0  0  0  0
  -10.4554   -4.7911   18.0280 C   0  0  0  0  0  0  0  0  0  0  0  0
   -7.2825   -4.5650   14.7553 C   0  0  0  0  0  0  0  0  0  0  0  0
   -3.3055   -6.2376   14.5648 C   0  0  0  0  0  0  0  0  0  0  0  0
  -10.0097   -4.3300   20.0973 C   0  0  0  0  0  0  0  0  0  0  0  0
   -4.5104   -3.2951   11.0737 C   0  0  0  0  0  0  0  0  0  0  0  0
   -8.8689   -4.9414   16.1072 C   0  0  0  0  0  0  0  0  0  0  0  0
   -3.6951   -4.8717   12.8283 C   0  0  0  0  0  0  0  0  0  0  0  0
   -6.8297   -5.4546   15.5960 C   0  0  0  0  0  0  0  0  0  0  0  0
   -4.5437   -5.7223   14.6309 C   0  0  0  0  0  0  0  0  0  0  0  0
   -4.3873   -4.2850   14.8611 C   0  0  0  0  0  0  0  0  0  0  0  0
   -4.0768   -6.2056   17.3711 C   0  0  0  0  0  0  0  0  0  0  0  0
   -9.4765   -4.4951   18.8983 N   0  0  0  0  0  0  0  0  0  0  0  0
   -4.5314   -2.5003    9.9354 N   0  0  0  0  0  0  0  0  0  0  0  0
   -7.8220   -5.7165   16.4812 N   0  0  0  0  0  0  0  0  0  0  0  0
   -4.7771   -4.9096   13.5877 N   0  0  0  0  0  0  0  0  0  0  0  0
   -3.2001   -4.5123   14.4685 O   0  0  0  0  0  0  0  0  0  0  0  0
   -4.9031   -4.9670   15.9948 O   0  0  0  0  0  0  0  0  0  0  0  0
   -4.5609   -6.7127   18.4311 O   0  0  0  0  0  0  0  0  0  0  0  0
   -4.8588   -5.3153   16.5886 O   0  0  0  0  0  0  0  0  0  0  0  0
    1.0649    0.0626    0.0431 Co  0  0  0  0  0 15  0  0  0  0  0  0
  7  5  1  0
  8  6  1  0
 15  1  1  0
 15  9  2  0
 16  2  1  0
 16 10  1  0
 17  3  1  0
 18  4  1  0
 19 10  2  0
 19 11  1  0
 20  9  1  0
 20 12  1  0
 21  5  1  0
 21 17  2  0
 22  6  1  0
 22 18  2  0
 23 11  2  0
 23 15  1  0
 24 13  1  0
 24 16  2  0
 25 12  2  0
 25 17  1  0
 26 13  2  0
 26 18  1  0
 27 14  2  0
 27 21  1  0
 28 14  1  0
 28 22  1  0
 29  7  1  0
 30  8  1  0
 31 20  2  0
 31 23  1  0
 32 19  1  0
 32 24  1  0
 33 25  1  0
 33 27  1  0
 34 26  1  0
 34 28  2  0
 35 29  2  0
 36 29  1  0
 37 30  2  0
 38 30  1  0
M  CHG  3  32  -1  36  -1  39   7
M  END
>  <DRUGBANK_ID>  (1) 
DB02173

>  <SECONDARY_ACCESSION_NUMBERS>  (1) 
EXPT01165

>  <COMMON_NAME>  (1) 
Co(III)-(Deuteroporphyrin IX)

$$$$
