
     RDKit          3D

 32 35  0  0  1  0  0  0  0  0999 V2000
    0.8370   -0.0995    0.1240 C   0  0  0  0  0  0  0  0  0  0  0  0
    0.5370    1.3217   -0.2962 C   0  0  0  0  0  0  0  0  0  0  0  0
    1.0879    1.8130   -1.6375 C   0  0  0  0  0  0  0  0  0  0  0  0
    0.3142    2.2823   -2.4802 O   0  0  0  0  0  0  0  0  0  0  0  0
    2.4538    1.9321   -1.7679 N   0  0  0  0  0  0  0  0  0  0  0  0
    3.4630    0.9485   -1.4485 C   0  0  0  0  0  0  0  0  0  0  0  0
    4.6699    1.8070   -1.1651 C   0  0  0  0  0  0  0  0  0  0  0  0
    4.6068    2.8447   -2.2956 C   0  0  1  0  0  0  0  0  0  0  0  0
    3.0824    3.0129   -2.5374 C   0  0  0  0  0  0  0  0  0  0  0  0
    5.2836    4.0614   -1.8766 N   0  0  0  0  0  0  0  0  0  0  0  0
    6.4088    4.4903   -2.5563 C   0  0  0  0  0  0  0  0  0  0  0  0
    7.6352    4.6115   -1.9067 C   0  0  0  0  0  0  0  0  0  0  0  0
    7.7982    4.2475   -0.4563 C   0  0  0  0  0  0  0  0  0  0  0  0
    9.2071    4.1608   -0.0631 N   0  0  0  0  0  0  0  0  0  0  0  0
   10.0427    5.2693   -0.5270 C   0  0  0  0  0  0  0  0  0  0  0  0
   10.0775    5.2586   -2.0590 C   0  0  0  0  0  0  0  0  0  0  0  0
    8.6975    5.1073   -2.6598 C   0  0  0  0  0  0  0  0  0  0  0  0
    8.5718    5.4231   -3.9662 N   0  0  0  0  0  0  0  0  0  0  0  0
    7.3573    5.2329   -4.5013 C   0  0  0  0  0  0  0  0  0  0  0  0
    6.2714    4.7696   -3.8626 N   0  0  0  0  0  0  0  0  0  0  0  0
    9.7457    3.0869    0.6140 C   0  0  0  0  0  0  0  0  0  0  0  0
   10.3819    3.2164    1.8535 C   0  0  0  0  0  0  0  0  0  0  0  0
   10.9874    2.2150    2.5619 N   0  0  0  0  0  0  0  0  0  0  0  0
   10.9803    0.9880    2.0014 C   0  0  0  0  0  0  0  0  0  0  0  0
   11.6034   -0.0649    2.6310 O   0  0  0  0  0  0  0  0  0  0  0  0
   12.2320    0.1938    3.8751 C   0  0  0  0  0  0  0  0  0  0  0  0
   10.3720    0.7179    0.7859 C   0  0  0  0  0  0  0  0  0  0  0  0
    9.7353    1.7862    0.1042 C   0  0  0  0  0  0  0  0  0  0  0  0
   10.4015   -0.6555    0.1837 C   0  0  0  0  0  0  0  0  0  0  0  0
    9.1428   -1.1403   -0.0275 F   0  0  0  0  0  0  0  0  0  0  0  0
   11.0004   -0.6580   -1.0428 F   0  0  0  0  0  0  0  0  0  0  0  0
   11.0406   -1.6288    0.8903 F   0  0  0  0  0  0  0  0  0  0  0  0
  1  2  1  0
  2  3  1  0
  3  4  2  0
  3  5  1  0
  5  6  1  0
  5  9  1  0
  6  7  1  0
  8  7  1  0
  8  9  1  0
  8 10  1  1
 10 11  1  0
 11 12  1  0
 11 20  2  0
 12 13  1  0
 12 17  2  0
 13 14  1  0
 14 15  1  0
 14 21  1  0
 15 16  1  0
 16 17  1  0
 17 18  1  0
 18 19  2  0
 19 20  1  0
 21 22  2  0
 21 28  1  0
 22 23  1  0
 23 24  2  0
 24 25  1  0
 24 27  1  0
 25 26  1  0
 27 28  2  0
 27 29  1  0
 29 30  1  0
 29 31  1  0
 29 32  1  0
M  END
>  <DRUGBANK_ID>  (1) 
DB16217

>  <COMMON_NAME>  (1) 
Leniolisib

>  <CAS_NUMBER>  (1) 
1354690-24-6

>  <UNII>  (1) 
L22772Z9CP

>  <SYNONYMS>  (1) 
Cdz-173 free base; Cdz173 free base; Leniolisib

$$$$
