
     RDKit          3D

 14 15  0  0  0  0  0  0  0  0999 V2000
    0.7091    1.2295   -0.2313 C   0  0  1  0  0  0  0  0  0  0  0  0
    1.3651    2.5436    0.1969 C   0  0  0  0  0  0  0  0  0  0  0  0
    1.4525   -0.0856    0.2524 C   0  0  1  0  0  0  0  0  0  0  0  0
   -0.6650    1.2124    0.2303 O   0  0  0  0  0  0  0  0  0  0  0  0
    2.6541    2.8678   -0.2583 C   0  0  0  0  0  0  0  0  0  0  0  0
    0.7029    3.5081    0.9734 C   0  0  0  0  0  0  0  0  0  0  0  0
    0.7146   -1.3084   -0.2002 N   0  0  0  0  0  0  0  0  0  0  0  0
    2.9019   -0.1606   -0.2551 C   0  0  0  0  0  0  0  0  0  0  0  0
   -1.3525    0.0568   -0.2594 C   0  0  0  0  0  0  0  0  0  0  0  0
    3.3176    4.0225    0.1418 C   0  0  0  0  0  0  0  0  0  0  0  0
    1.3188    4.7301    1.2698 C   0  0  0  0  0  0  0  0  0  0  0  0
   -0.6889   -1.2228    0.2520 C   0  0  0  0  0  0  0  0  0  0  0  0
    1.3106   -2.5467    0.3047 C   0  0  0  0  0  0  0  0  0  0  0  0
    2.6364    4.9720    0.8901 C   0  0  0  0  0  0  0  0  0  0  0  0
  1  2  1  1
  1  3  1  0
  1  4  1  0
  2  5  2  0
  2  6  1  0
  3  7  1  0
  3  8  1  6
  4  9  1  0
  5 10  1  0
  6 11  2  0
  7 12  1  0
  7 13  1  0
  9 12  1  0
 10 14  2  0
 11 14  1  0
M  END
>  <DRUGBANK_ID>  (1) 
DB01579

>  <COMMON_NAME>  (1) 
Phendimetrazine

>  <CAS_NUMBER>  (1) 
634-03-7

>  <UNII>  (1) 
AB2794W8KV

>  <SYNONYMS>  (1) 
(2S,3S)-3,4-dimethyl-2-phenylmorpholine; Phendimetrazine

$$$$
