Untitled Document-7
     RDKit          3D

 21 24  0  0  0  0  0  0  0  0999 V2000
    1.3055    0.0558   -0.1867 C   0  0  0  0  0  0  0  0  0  0  0  0
    0.3487   -0.3766   -1.2012 C   0  0  0  0  0  0  0  0  0  0  0  0
    0.3906    0.6190   -2.4611 C   0  0  0  0  0  0  0  0  0  0  0  0
    0.2603    2.1563   -2.0044 C   0  0  1  0  0  0  0  0  0  0  0  0
    1.1549    2.4566   -0.7593 C   0  0  2  0  0  0  0  0  0  0  0  0
    0.7397    1.3808    0.2674 C   0  0  0  0  0  0  0  0  0  0  0  0
    0.5807    3.2614   -3.0443 C   0  0  0  0  0  0  0  0  0  0  0  0
    0.4823    4.7973   -2.4967 C   0  0  0  0  0  0  0  0  0  0  0  0
    1.4105    5.1135   -1.2085 C   0  0  2  0  0  0  0  0  0  0  0  0
    0.9095    3.9101   -0.2054 C   0  0  2  0  0  0  0  0  0  0  0  0
    1.9872    6.8098   -0.5722 C   0  0  1  0  0  0  0  0  0  0  0  0
    1.7896    6.3147    0.7477 C   0  0  2  0  0  0  0  0  0  0  0  0
    1.2225    5.3175    1.6771 C   0  0  0  0  0  0  0  0  0  0  0  0
    1.5392    3.9821    1.1672 C   0  0  0  0  0  0  0  0  0  0  0  0
    2.9686    7.8043    0.8691 C   0  0  0  0  0  0  0  0  0  0  0  0
    2.0331    8.2330    2.0304 C   0  0  0  0  0  0  0  0  0  0  0  0
    1.0437    7.8050    1.0779 C   0  0  2  0  0  0  0  0  0  0  0  0
   -0.3187   -1.4313   -1.0307 O   0  0  0  0  0  0  0  0  0  0  0  0
    2.6795    2.2994   -1.0629 C   0  0  0  0  0  0  0  0  0  0  0  0
    3.5096    5.7156    0.2526 C   0  0  0  0  0  0  0  0  0  0  0  0
   -0.2883    7.7975    1.4834 O   0  0  0  0  0  0  0  0  0  0  0  0
  1  2  1  0
  2  3  1  0
  2 18  2  0
  4  3  1  6
  4  5  1  0
  4  7  1  0
  5  6  1  0
  5 19  1  6
  6  1  1  0
  7  8  1  0
  9  8  1  6
  9 10  1  0
  9 11  1  0
 10  5  1  0
 11 12  1  0
 11 15  1  1
 12 13  1  0
 12 20  1  1
 13 14  1  0
 10 14  1  1
 15 16  1  0
 16 17  1  0
 17 12  1  0
 17 21  1  1
M  END
>  <DRUGBANK_ID>  (1) 
DB02901

>  <SECONDARY_ACCESSION_NUMBERS>  (1) 
EXPT01199

>  <COMMON_NAME>  (1) 
Stanolone

>  <CAS_NUMBER>  (1) 
521-18-6

>  <UNII>  (1) 
08J2K08A3Y

>  <SYNONYMS>  (1) 
17beta-Hydroxy-5alpha-androstan-3-one; 17beta-Hydroxy-5alpha-androstane-3-one; 17beta-Hydroxyandrostan-3-one; 17β-hydroxy-3-oxo-5α-androstanone; 17β-hydroxy-5α-androstan-3-one; 4-Dihydrotestosterone; 5alpha-Dihydrotestosterone; 5α-DHT; Androstanolona; Androstanolone; Androstanolonum; DHT; Dihydrotestosteron; Dihydrotestostérone; Dihydrotestosterone

$$$$
