
     RDKit          3D

 36 38  0  0  1  0  0  0  0  0999 V2000
   -4.2630   -6.0895    2.0816 O   0  0  0  0  0  0  0  0  0  0  0  0
   -4.1621   -5.7724    0.7176 N   0  0  0  0  0  0  0  0  0  0  0  0
   -4.4420   -6.4368   -0.4599 C   0  0  0  0  0  0  0  0  0  0  0  0
   -4.5388   -5.8078   -1.5274 O   0  0  0  0  0  0  0  0  0  0  0  0
   -4.5882   -7.9149   -0.7101 C   0  0  0  0  0  0  0  0  0  0  0  0
   -3.3786   -8.7681   -1.1786 C   0  0  0  0  0  0  0  0  0  0  0  0
   -2.3577   -8.9461   -0.1126 C   0  0  0  0  0  0  0  0  0  0  0  0
   -3.1238   -9.2093    1.2481 C   0  0  0  0  0  0  0  0  0  0  0  0
   -2.9878  -10.6326    1.6238 C   0  0  0  0  0  0  0  0  0  0  0  0
   -1.5291  -11.0976    1.5429 C   0  0  0  0  0  0  0  0  0  0  0  0
   -0.4482  -10.5702    2.5282 C   0  0  0  0  0  0  0  0  0  0  0  0
   -0.1689  -11.3664    3.4831 O   0  0  0  0  0  0  0  0  0  0  0  0
    0.3616   -9.4199    2.4370 N   0  0  0  0  0  0  0  0  0  0  0  0
    0.1054   -8.1368    1.8120 C   0  0  0  0  0  0  0  0  0  0  0  0
   -1.0501   -7.6086    2.0587 C   0  0  0  0  0  0  0  0  0  0  0  0
   -1.6128   -6.6459    1.1714 C   0  0  0  0  0  0  0  0  0  0  0  0
   -0.9299   -5.8045    0.3101 C   0  0  0  0  0  0  0  0  0  0  0  0
   -1.5952   -4.8241   -0.6825 C   0  0  0  0  0  0  0  0  0  0  0  0
   -1.8806   -3.5440   -0.0632 N   0  0  0  0  0  0  0  0  0  0  0  0
   -2.5368   -2.4432   -0.8436 C   0  0  2  0  0  0  0  0  0  0  0  0
   -1.5225   -1.2651   -0.7501 C   0  0  0  0  0  0  0  0  0  0  0  0
   -0.2895   -1.4485   -0.6651 O   0  0  0  0  0  0  0  0  0  0  0  0
   -2.0594   -0.0196   -0.8040 O   0  0  0  0  0  0  0  0  0  0  0  0
   -1.1135    1.0402   -0.6976 C   0  0  0  0  0  0  0  0  0  0  0  0
   -1.7307    2.4044   -0.3886 C   0  0  0  0  0  0  0  0  0  0  0  0
   -0.6911    3.4039   -0.9089 C   0  0  0  0  0  0  0  0  0  0  0  0
    0.1895    2.6329   -1.8947 C   0  0  0  0  0  0  0  0  0  0  0  0
   -0.4741    1.2817   -2.0535 C   0  0  0  0  0  0  0  0  0  0  0  0
   -3.9772   -2.1564   -0.3459 C   0  0  0  0  0  0  0  0  0  0  0  0
   -4.8770   -3.1994   -0.1974 C   0  0  0  0  0  0  0  0  0  0  0  0
   -6.1027   -3.1929    0.4697 C   0  0  0  0  0  0  0  0  0  0  0  0
   -6.5969   -1.9752    0.8411 C   0  0  0  0  0  0  0  0  0  0  0  0
   -5.8405   -0.8491    0.5306 C   0  0  0  0  0  0  0  0  0  0  0  0
   -4.5759   -0.9413   -0.0881 C   0  0  0  0  0  0  0  0  0  0  0  0
    0.3908   -5.9597    0.5715 C   0  0  0  0  0  0  0  0  0  0  0  0
    0.9491   -7.1476    1.2659 C   0  0  0  0  0  0  0  0  0  0  0  0
  1  2  1  0
  2  3  1  0
  3  4  2  0
  3  5  1  0
  5  6  1  0
  6  7  1  0
  7  8  1  0
  8  9  1  0
  9 10  1  0
 10 11  1  0
 11 12  2  0
 11 13  1  0
 13 14  1  0
 14 15  2  0
 14 36  1  0
 15 16  1  0
 16 17  2  0
 17 18  1  0
 17 35  1  0
 18 19  1  0
 20 29  1  0
 20 21  1  0
 20 19  1  1
 21 22  2  0
 21 23  1  0
 23 24  1  0
 24 25  1  0
 24 28  1  0
 25 26  1  0
 26 27  1  0
 27 28  1  0
 29 30  2  0
 29 34  1  0
 30 31  1  0
 31 32  2  0
 32 33  1  0
 33 34  2  0
 35 36  2  0
M  END
>  <DRUGBANK_ID>  (1) 
DB15321

>  <COMMON_NAME>  (1) 
Tefinostat

>  <CAS_NUMBER>  (1) 
914382-60-8

>  <UNII>  (1) 
ZAU91150SB

>  <SYNONYMS>  (1) 
Tefinostat

$$$$
