87Y
     RDKit          3D

 23 25  0  0  0  0  0  0  0  0999 V2000
   -2.4192   -0.7169    0.0094 N   0  0  0  0  0  0  0  0  0  0  0  0
   -1.2985   -1.4949   -0.0118 C   0  0  0  0  0  0  0  0  0  0  0  0
   -1.3951   -2.7257    0.0210 O   0  0  0  0  0  0  0  0  0  0  0  0
    0.0093   -0.7828   -0.0751 C   0  0  0  0  0  0  0  0  0  0  0  0
    1.1972   -1.5043    0.0094 N   0  0  0  0  0  0  0  0  0  0  0  0
    2.3176   -0.8352   -0.0380 C   0  0  0  0  0  0  0  0  0  0  0  0
    3.6544   -1.5918    0.0244 C   0  0  0  0  0  0  0  0  0  0  0  0
    3.8313   -2.3570    1.1972 O   0  0  0  0  0  0  0  0  0  0  0  0
    2.4214    0.6989   -0.1420 C   0  0  1  0  0  0  0  0  0  0  0  0
    3.1509    1.1691    1.1580 C   0  0  0  0  0  0  0  0  0  0  0  0
    3.1273    1.0524   -1.4470 C   0  0  0  0  0  0  0  0  0  0  0  0
    1.0944    1.2625   -0.3155 N   0  0  0  0  0  0  0  0  0  0  0  0
   -0.0834    0.5569   -0.2377 C   0  0  0  0  0  0  0  0  0  0  0  0
   -1.2662    1.2627   -0.2707 N   0  0  0  0  0  0  0  0  0  0  0  0
   -2.3784    0.6331   -0.1035 C   0  0  0  0  0  0  0  0  0  0  0  0
   -3.5592    1.2910   -0.0184 N   0  0  0  0  0  0  0  0  0  0  0  0
    3.1623    2.6728    1.4311 C   0  0  0  0  0  0  0  0  0  0  0  0
    1.8003    3.2672    1.6981 C   0  0  0  0  0  0  0  0  0  0  0  0
    0.7197    2.4969    2.1638 C   0  0  0  0  0  0  0  0  0  0  0  0
   -0.5848    2.9772    2.0753 C   0  0  0  0  0  0  0  0  0  0  0  0
   -0.8173    4.2675    1.6255 C   0  0  0  0  0  0  0  0  0  0  0  0
    0.2586    5.0868    1.2923 C   0  0  0  0  0  0  0  0  0  0  0  0
    1.5617    4.5894    1.3187 C   0  0  0  0  0  0  0  0  0  0  0  0
  1  2  1  0
  1 15  1  0
  2  3  2  0
  2  4  1  0
  4  5  1  0
  4 13  2  0
  5  6  2  0
  6  7  1  0
  6  9  1  0
  7  8  1  0
  9 12  1  0
  9 11  1  6
  9 10  1  0
 10 17  1  0
 12 13  1  0
 13 14  1  0
 14 15  2  0
 15 16  1  0
 17 18  1  0
 18 19  2  0
 18 23  1  0
 19 20  1  0
 20 21  2  0
 21 22  1  0
 22 23  2  0
M  END
>  <DRUGBANK_ID>  (1) 
DB04610

>  <COMMON_NAME>  (1) 
7,8-dihydro-6-hydroxymethyl-7-methyl-7-[2-phenylethyl]-pterin

$$$$
