
     RDKit          3D

 11 12  0  0  0  0  0  0  0  0999 V2000
   -2.0160    1.0430   -0.0000 B   0  0  0  0  0  0  0  0  0  0  0  0
   -0.2630    0.7310   -0.0010 C   0  0  0  0  0  0  0  0  0  0  0  0
    0.7470    1.5310   -0.0020 C   0  0  0  0  0  0  0  0  0  0  0  0
    2.0560    1.0290    0.0040 C   0  0  0  0  0  0  0  0  0  0  0  0
    2.2430   -0.3630   -0.0020 C   0  0  0  0  0  0  0  0  0  0  0  0
    1.1910   -1.1820   -0.0010 C   0  0  0  0  0  0  0  0  0  0  0  0
   -0.1370   -0.6650   -0.0000 C   0  0  0  0  0  0  0  0  0  0  0  0
   -1.2460   -1.4220    0.0010 C   0  0  0  0  0  0  0  0  0  0  0  0
   -2.5770   -0.7040    0.0010 O   0  0  0  0  0  0  0  0  0  0  0  0
    3.8908   -1.0362   -0.0110 Cl  0  0  0  0  0  0  0  0  0  0  0  0
   -2.7897    2.3280    0.0000 O   0  0  0  0  0  0  0  0  0  0  0  0
  1  2  1  0
  1  9  1  0
  1 11  1  0
  2  3  2  0
  2  7  1  0
  3  4  1  0
  4  5  2  0
  5  6  1  0
  5 10  1  0
  6  7  2  0
  7  8  1  0
  8  9  1  0
M  END
>  <DRUGBANK_ID>  (1) 
DB12810

>  <COMMON_NAME>  (1) 
AN-2718

>  <CAS_NUMBER>  (1) 
174672-06-1

>  <UNII>  (1) 
810U6C2DGG

$$$$
