1259
     RDKit          3D

 40 44  0  0  0  0  0  0  0  0999 V2000
   -1.7862    0.3358   -1.4781 Cl  0  0  0  0  0  0  0  0  0  0  0  0
   -1.6354   -1.8922   -6.9512 S   0  0  0  0  0  0  0  0  0  0  0  0
   -3.7336   -2.6921    4.5153 F   0  0  0  0  0  0  0  0  0  0  0  0
    3.1606    0.6122   -5.0606 O   0  0  0  0  0  0  0  0  0  0  0  0
   -2.7614   -1.3477   -6.2368 O   0  0  0  0  0  0  0  0  0  0  0  0
   -1.7963   -3.0892   -7.7756 O   0  0  0  0  0  0  0  0  0  0  0  0
   -0.3467   -2.3798   -0.2009 O   0  0  0  0  0  0  0  0  0  0  0  0
    0.4569    0.6676   -6.4170 N   0  0  0  0  0  0  0  0  0  0  0  0
    2.5059    2.4183   -0.0493 N   0  0  0  0  0  0  0  0  0  0  0  0
    6.6318    2.4528    0.0565 N   0  0  0  0  0  0  0  0  0  0  0  0
    4.5168    3.1372    0.9521 N   0  0  0  0  0  0  0  0  0  0  0  0
   -0.6643    0.6925   -7.3547 C   0  0  0  0  0  0  0  0  0  0  0  0
   -1.0087   -0.6221   -8.0469 C   0  0  0  0  0  0  0  0  0  0  0  0
    1.6851    0.1238   -6.9856 C   0  0  0  0  0  0  0  0  0  0  0  0
    2.6877   -0.2956   -5.9680 C   0  0  0  0  0  0  0  0  0  0  0  0
    4.7577    0.6864   -3.2441 C   0  0  0  0  0  0  0  0  0  0  0  0
    4.0985   -0.0444   -4.3086 C   0  0  0  0  0  0  0  0  0  0  0  0
    4.6226    1.9073   -1.1229 C   0  0  0  0  0  0  0  0  0  0  0  0
    4.0110    1.3251   -2.2655 C   0  0  0  0  0  0  0  0  0  0  0  0
    3.2928   -1.5214   -5.7720 C   0  0  0  0  0  0  0  0  0  0  0  0
    4.2055   -1.3555   -4.7160 C   0  0  0  0  0  0  0  0  0  0  0  0
    6.0104    1.8942   -0.9886 C   0  0  0  0  0  0  0  0  0  0  0  0
    6.1417    0.6568   -3.0924 C   0  0  0  0  0  0  0  0  0  0  0  0
    3.9113    2.5162   -0.0736 C   0  0  0  0  0  0  0  0  0  0  0  0
   -0.3732   -2.3027   -5.7497 C   0  0  0  0  0  0  0  0  0  0  0  0
    6.7499    1.2608   -1.9812 C   0  0  0  0  0  0  0  0  0  0  0  0
    1.7637    1.2191   -0.0028 C   0  0  0  0  0  0  0  0  0  0  0  0
    5.8550    3.0583    0.9682 C   0  0  0  0  0  0  0  0  0  0  0  0
    0.4124    1.2549   -0.3127 C   0  0  0  0  0  0  0  0  0  0  0  0
    2.3736   -0.0419    0.0869 C   0  0  0  0  0  0  0  0  0  0  0  0
    0.2817   -1.1718   -0.3361 C   0  0  0  0  0  0  0  0  0  0  0  0
   -0.2625    0.0780   -0.6667 C   0  0  0  0  0  0  0  0  0  0  0  0
    1.6389   -1.2219   -0.0273 C   0  0  0  0  0  0  0  0  0  0  0  0
   -1.7641   -2.4116    0.0297 C   0  0  0  0  0  0  0  0  0  0  0  0
   -2.2484   -1.7770    1.3341 C   0  0  0  0  0  0  0  0  0  0  0  0
   -2.8597   -2.5376    2.3263 C   0  0  0  0  0  0  0  0  0  0  0  0
   -2.1153   -0.4075    1.6309 C   0  0  0  0  0  0  0  0  0  0  0  0
   -3.2384   -1.9304    3.5343 C   0  0  0  0  0  0  0  0  0  0  0  0
   -2.5474    0.2167    2.7880 C   0  0  0  0  0  0  0  0  0  0  0  0
   -3.0913   -0.5643    3.7701 C   0  0  0  0  0  0  0  0  0  0  0  0
  1 32  1  0
  2  5  2  0
  2  6  2  0
  2 13  1  0
  2 25  1  0
  3 38  1  0
  4 15  1  0
  4 17  1  0
  7 31  1  0
  7 34  1  0
  8 12  1  0
  8 14  1  0
  9 24  1  0
  9 27  1  0
 10 22  2  0
 10 28  1  0
 11 24  1  0
 11 28  2  0
 12 13  1  0
 14 15  1  0
 15 20  2  0
 16 17  1  0
 16 19  2  0
 16 23  1  0
 17 21  2  0
 18 19  1  0
 18 22  1  0
 18 24  2  0
 20 21  1  0
 22 26  1  0
 23 26  2  0
 27 29  2  0
 27 30  1  0
 29 32  1  0
 30 33  2  0
 31 32  2  0
 31 33  1  0
 34 35  1  0
 35 36  2  0
 35 37  1  0
 36 38  1  0
 37 39  2  0
 38 40  2  0
 39 40  1  0
M  END
>  <DRUGBANK_ID>  (1) 
DB01259

>  <SECONDARY_ACCESSION_NUMBERS>  (1) 
DB02584

>  <COMMON_NAME>  (1) 
Lapatinib

>  <CAS_NUMBER>  (1) 
231277-92-2

>  <UNII>  (1) 
0VUA21238F

>  <SYNONYMS>  (1) 
Lapatinib; N-(3-chloro-4-((3-fluorophenyl)methoxy)phenyl)-6-(5-(((2-(methylsulfonyl)ethyl)amino)methyl)-2-furanyl)-4-quinazolinamine

$$$$
