
     RDKit          3D

 33 35  0  0  0  0  0  0  0  0999 V2000
   -1.1050   -1.2392   -0.0449 C   0  0  0  0  0  0  0  0  0  0  0  0
   -1.8050   -0.0114   -0.0312 C   0  0  0  0  0  0  0  0  0  0  0  0
   -1.1010    1.1952    0.0054 C   0  0  0  0  0  0  0  0  0  0  0  0
    0.2960    1.1818    0.0205 C   0  0  0  0  0  0  0  0  0  0  0  0
    1.0095   -0.0433    0.0297 C   0  0  0  0  0  0  0  0  0  0  0  0
    0.3047   -1.2711   -0.0060 C   0  0  0  0  0  0  0  0  0  0  0  0
   -2.8851    2.7181   -1.2921 O   0  0  0  0  0  0  0  0  0  0  0  0
   -1.9832    2.7521    0.0493 S   0  0  0  0  0  0  0  0  0  0  0  0
   -1.0240    3.8150   -0.1462 O   0  0  0  0  0  0  0  0  0  0  0  0
   -2.8737    2.7198    1.1906 O   0  0  0  0  0  0  0  0  0  0  0  0
    2.5124    0.0115   -0.0009 C   0  0  0  0  0  0  0  0  0  0  0  0
    2.3514   -4.0540    0.7532 C   0  0  0  0  0  0  0  0  0  0  0  0
    0.9091   -3.6025   -0.8967 C   0  0  0  0  0  0  0  0  0  0  0  0
    1.7579   -4.6120   -0.4200 C   0  0  0  0  0  0  0  0  0  0  0  0
    1.0073   -2.5381    0.0125 N   0  0  0  0  0  0  0  0  0  0  0  0
    1.9174   -2.8000    0.9808 N   0  0  0  0  0  0  0  0  0  0  0  0
    3.3345   -4.6280    1.7218 C   0  0  0  0  0  0  0  0  0  0  0  0
    0.1627   -3.5384   -2.0094 O   0  0  0  0  0  0  0  0  0  0  0  0
    1.9218   -5.9055   -1.0322 N   0  0  0  0  0  0  0  0  0  0  0  0
    2.8709   -6.6366   -0.6208 N   0  0  0  0  0  0  0  0  0  0  0  0
    3.0383   -7.8741   -1.3616 C   0  0  0  0  0  0  0  0  0  0  0  0
    2.9923   -9.1038   -0.6396 C   0  0  0  0  0  0  0  0  0  0  0  0
    3.3521   -7.9824   -2.7415 C   0  0  0  0  0  0  0  0  0  0  0  0
    3.5048   -9.2657   -3.3564 C   0  0  0  0  0  0  0  0  0  0  0  0
    3.3888  -10.4560   -2.6301 C   0  0  0  0  0  0  0  0  0  0  0  0
    3.1473  -10.3700   -1.2638 C   0  0  0  0  0  0  0  0  0  0  0  0
    1.7669  -12.6632   -1.0253 O   0  0  0  0  0  0  0  0  0  0  0  0
    3.0042  -11.8925   -0.3238 S   0  0  0  0  0  0  0  0  0  0  0  0
    2.5624  -11.5456    1.0046 O   0  0  0  0  0  0  0  0  0  0  0  0
    4.2015  -12.6758   -0.5584 O   0  0  0  0  0  0  0  0  0  0  0  0
    3.5619   -6.8152   -3.6445 C   0  0  0  0  0  0  0  0  0  0  0  0
    3.6717   -6.8814   -4.8593 O   0  0  0  0  0  0  0  0  0  0  0  0
    3.6389   -5.6404   -3.0096 O   0  0  0  0  0  0  0  0  0  0  0  0
  1  2  2  0
  1  6  1  0
  2  3  1  0
  3  4  2  0
  3  8  1  0
  4  5  1  0
  5  6  2  0
  5 11  1  0
  6 15  1  0
  7  8  1  0
  8 10  2  0
  8  9  2  0
 12 16  2  0
 12 14  1  0
 12 17  1  0
 13 15  1  0
 13 14  2  0
 13 18  1  0
 14 19  1  0
 15 16  1  0
 19 20  2  0
 20 21  1  0
 21 22  2  0
 21 23  1  0
 22 26  1  0
 23 24  2  0
 23 31  1  0
 24 25  1  0
 25 26  2  0
 26 28  1  0
 27 28  1  0
 28 30  2  0
 28 29  2  0
 31 32  2  0
 31 33  1  0
M  END
>  <DRUGBANK_ID>  (1) 
DB03442

>  <SECONDARY_ACCESSION_NUMBERS>  (1) 
EXPT00150

>  <COMMON_NAME>  (1) 
Acid yellow 54 free acid

>  <CAS_NUMBER>  (1) 
68957-71-1

>  <UNII>  (1) 
83Y199VAOL

>  <SYNONYMS>  (1) 
2-(5-hydroxy-3-methyl-1-(2-methyl-4-sulfophenyl)-1H-pyrazol-4-ylazo)-4-sulfobenzoic acid

$$$$
