2C5
     RDKit          3D

 33 36  0  0  0  0  0  0  0  0999 V2000
    1.1166   -1.0677   -1.9917 O   0  0  0  0  0  0  0  0  0  0  0  0
    0.4792   -1.1253   -0.6748 C   0  0  2  0  0  0  0  0  0  0  0  0
    0.8254    0.0694    0.2221 C   0  0  0  0  0  0  0  0  0  0  0  0
    2.0911   -0.0194    0.7117 C   0  0  0  0  0  0  0  0  0  0  0  0
    2.7428    0.8084    1.6072 C   0  0  0  0  0  0  0  0  0  0  0  0
    2.1570    1.9518    1.9924 C   0  0  0  0  0  0  0  0  0  0  0  0
    0.8378    2.0969    1.6080 C   0  0  0  0  0  0  0  0  0  0  0  0
    0.1501    1.1298    0.7834 C   0  0  0  0  0  0  0  0  0  0  0  0
    5.4752   -3.8080    1.0020 C   0  0  0  0  0  0  0  0  0  0  0  0
    4.7897   -2.9797    1.8507 C   0  0  0  0  0  0  0  0  0  0  0  0
    4.2628   -3.5845    3.3910 Cl  0  0  0  0  0  0  0  0  0  0  0  0
    2.9768    2.8880    2.7168 C   0  0  0  0  0  0  0  0  0  0  0  0
    4.5154   -1.6637    1.4218 C   0  0  0  0  0  0  0  0  0  0  0  0
    3.7551    3.5590    3.2236 N   0  0  0  0  0  0  0  0  0  0  0  0
    5.8194   -3.3359   -0.2659 C   0  0  0  0  0  0  0  0  0  0  0  0
    4.8370   -1.1395    0.0851 C   0  0  0  0  0  0  0  0  0  0  0  0
    5.4758   -2.0558   -0.7217 C   0  0  0  0  0  0  0  0  0  0  0  0
    2.5761   -1.0754   -2.1314 C   0  0  0  0  0  0  0  0  0  0  0  0
    1.7304   -4.0000    1.4709 N   0  0  0  0  0  0  0  0  0  0  0  0
    1.4941   -2.6930    1.2327 C   0  0  0  0  0  0  0  0  0  0  0  0
    0.8595   -2.4538    0.0181 C   0  0  0  0  0  0  0  0  0  0  0  0
    0.6116   -3.7283   -0.4176 N   0  0  0  0  0  0  0  0  0  0  0  0
    1.1170   -4.6099    0.4957 C   0  0  0  0  0  0  0  0  0  0  0  0
   -0.1457   -4.0781   -1.5833 C   0  0  0  0  0  0  0  0  0  0  0  0
    2.7221    1.3764   -2.0925 N   0  0  0  0  0  0  0  0  0  0  0  0
    3.3486    0.2142   -1.6884 C   0  0  0  0  0  0  0  0  0  0  0  0
    4.4005    0.1994   -0.6648 C   0  0  0  0  0  0  0  0  0  0  0  0
    4.7702    1.4998   -0.1698 C   0  0  0  0  0  0  0  0  0  0  0  0
    4.0750    2.6798   -0.5619 C   0  0  0  0  0  0  0  0  0  0  0  0
    3.0534    2.5470   -1.4878 C   0  0  0  0  0  0  0  0  0  0  0  0
    4.2852    3.9488    0.0960 C   0  0  0  0  0  0  0  0  0  0  0  0
    4.3968    4.9699    0.6249 N   0  0  0  0  0  0  0  0  0  0  0  0
    1.9913    3.8574   -1.8813 Cl  0  0  0  0  0  0  0  0  0  0  0  0
  1 18  1  0
  2 21  1  0
  2  3  1  0
  2  1  1  6
  3  4  2  0
  3  8  1  0
  4  5  1  0
  5  6  2  0
  6  7  1  0
  6 12  1  0
  7  8  2  0
  9 10  2  0
  9 15  1  0
 10 11  1  0
 10 13  1  0
 12 14  3  0
 13 16  2  0
 15 17  2  0
 16 17  1  0
 16 27  1  0
 18 26  1  0
 19 20  1  0
 19 23  2  0
 20 21  2  0
 21 22  1  0
 22 23  1  0
 22 24  1  0
 25 26  2  0
 25 30  1  0
 26 27  1  0
 27 28  2  0
 28 29  1  0
 29 30  2  0
 29 31  1  0
 30 33  1  0
 31 32  3  0
M  END
>  <DRUGBANK_ID>  (1) 
DB06953

>  <COMMON_NAME>  (1) 
2-CHLORO-5-(3-CHLORO-PHENYL)-6-[(4-CYANO-PHENYL)-(3-METHYL-3H-IMIDAZOL-4-YL)- METHOXYMETHYL]-NICOTINONITRILE

$$$$
