
     RDKit          3D

  6  6  0  0  0  0  0  0  0  0999 V2000
    2.1798    0.0138    0.0187 C   0  0  0  0  0  0  0  0  0  0  0  0
    0.7219   -0.0164   -0.0013 N   0  0  0  0  0  0  0  0  0  0  0  0
   -0.0656   -1.1608   -0.0050 C   0  0  0  0  0  0  0  0  0  0  0  0
   -1.3667   -0.7436    0.0060 C   0  0  0  0  0  0  0  0  0  0  0  0
   -1.3302    0.6311    0.0064 N   0  0  0  0  0  0  0  0  0  0  0  0
   -0.0680    1.0683   -0.0057 C   0  0  0  0  0  0  0  0  0  0  0  0
  1  2  1  0
  2  3  1  0
  2  6  1  0
  3  4  2  0
  4  5  1  0
  5  6  2  0
M  CHG  1   5   1
M  END
>  <DRUGBANK_ID>  (1) 
DB02671

>  <SECONDARY_ACCESSION_NUMBERS>  (1) 
EXPT00077

>  <COMMON_NAME>  (1) 
1-Methylimidazole

>  <CAS_NUMBER>  (1) 
616-47-7

>  <UNII>  (1) 
P4617QS63Y

$$$$
