
     RDKit          3D

 39 43  0  0  0  0  0  0  0  0999 V2000
    2.5050   -0.1441   -0.0836 C   0  0  0  0  0  0  0  0  0  0  0  0
    1.1546   -0.3101   -0.6598 N   0  0  0  0  0  0  0  0  0  0  0  0
    0.4235   -1.3710    0.0658 C   0  0  0  0  0  0  0  0  0  0  0  0
   -1.0911   -1.3447   -0.2591 C   0  0  0  0  0  0  0  0  0  0  0  0
   -1.7887   -0.0922    0.0915 N   0  0  0  0  0  0  0  0  0  0  0  0
   -2.0413    0.0489    1.5501 C   0  0  0  0  0  0  0  0  0  0  0  0
   -0.8680    0.2642    2.5060 C   0  0  0  0  0  0  0  0  0  0  0  0
   -0.0655    1.4461    2.5942 C   0  0  0  0  0  0  0  0  0  0  0  0
    1.2160    1.3845    3.1930 C   0  0  0  0  0  0  0  0  0  0  0  0
    1.5024    0.3358    4.0375 C   0  0  0  0  0  0  0  0  0  0  0  0
    2.7670    0.2173    4.6506 N   0  0  0  0  0  0  0  0  0  0  0  0
    3.2466   -0.7537    5.5279 C   0  0  0  0  0  0  0  0  0  0  0  0
    4.3254   -0.5874    6.0939 O   0  0  0  0  0  0  0  0  0  0  0  0
    2.4958   -2.0180    5.7963 C   0  0  0  0  0  0  0  0  0  0  0  0
    2.0207   -2.7825    4.7174 C   0  0  0  0  0  0  0  0  0  0  0  0
    1.0659   -3.7742    4.9412 C   0  0  0  0  0  0  0  0  0  0  0  0
    0.7598   -4.1774    6.2485 C   0  0  0  0  0  0  0  0  0  0  0  0
   -0.2508   -5.2715    6.4473 C   0  0  0  0  0  0  0  0  0  0  0  0
    1.4098   -3.5605    7.3387 C   0  0  0  0  0  0  0  0  0  0  0  0
    2.1771   -2.4022    7.1128 C   0  0  0  0  0  0  0  0  0  0  0  0
    1.3841   -4.1945    8.6537 C   0  0  0  0  0  0  0  0  0  0  0  0
    1.4276   -4.8186    9.6726 C   0  0  0  0  0  0  0  0  0  0  0  0
    1.4864   -5.5468   10.9222 C   0  0  0  0  0  0  0  0  0  0  0  0
    1.5571   -4.9415   12.0929 N   0  0  0  0  0  0  0  0  0  0  0  0
    1.5578   -5.8975   13.0898 N   0  0  0  0  0  0  0  0  0  0  0  0
    1.4929   -7.0776   12.5157 C   0  0  0  0  0  0  0  0  0  0  0  0
    1.4528   -8.4050   13.0391 C   0  0  0  0  0  0  0  0  0  0  0  0
    1.3872   -9.4518   12.1930 C   0  0  0  0  0  0  0  0  0  0  0  0
    1.3600   -9.2540   10.7512 C   0  0  0  0  0  0  0  0  0  0  0  0
    1.3926   -8.0030   10.2542 C   0  0  0  0  0  0  0  0  0  0  0  0
    1.4559   -6.9170   11.1312 N   0  0  0  0  0  0  0  0  0  0  0  0
    0.4698   -0.5595    4.2626 C   0  0  0  0  0  0  0  0  0  0  0  0
   -0.5496   -0.7732    3.3590 C   0  0  0  0  0  0  0  0  0  0  0  0
   -0.4261    2.7190    1.8681 C   0  0  0  0  0  0  0  0  0  0  0  0
   -0.5102    3.8335    2.6307 F   0  0  0  0  0  0  0  0  0  0  0  0
    0.4805    3.0462    0.9022 F   0  0  0  0  0  0  0  0  0  0  0  0
   -1.6387    2.6290    1.2869 F   0  0  0  0  0  0  0  0  0  0  0  0
   -1.1053    0.9867   -0.6487 C   0  0  0  0  0  0  0  0  0  0  0  0
    0.4337    0.9500   -0.4536 C   0  0  0  0  0  0  0  0  0  0  0  0
  1  2  1  0
  2  3  1  0
  2 39  1  0
  3  4  1  0
  4  5  1  0
  5  6  1  0
  5 38  1  0
  6  7  1  0
  7  8  2  0
  7 33  1  0
  8  9  1  0
  8 34  1  0
  9 10  2  0
 10 11  1  0
 10 32  1  0
 11 12  1  0
 12 13  2  0
 12 14  1  0
 14 15  2  0
 14 20  1  0
 15 16  1  0
 16 17  2  0
 17 18  1  0
 17 19  1  0
 19 20  2  0
 19 21  1  0
 21 22  3  0
 22 23  1  0
 23 24  2  0
 23 31  1  0
 24 25  1  0
 25 26  2  0
 26 27  1  0
 26 31  1  0
 27 28  2  0
 28 29  1  0
 29 30  2  0
 30 31  1  0
 32 33  2  0
 34 35  1  0
 34 36  1  0
 34 37  1  0
 38 39  1  0
M  END
>  <DRUGBANK_ID>  (1) 
DB15396

>  <COMMON_NAME>  (1) 
Vamotinib

>  <CAS_NUMBER>  (1) 
1416241-23-0

>  <UNII>  (1) 
I8C3R768IZ

>  <SYNONYMS>  (1) 
Vamotinib

$$$$
