
     RDKit          3D

 10  9  0  0  1  0  0  0  0  0999 V2000
    0.9249    0.0206    0.0637 C   0  0  0  0  0  0  0  0  0  0  0  0
    0.4270   -1.3952   -0.0400 C   0  0  0  0  0  0  0  0  0  0  0  0
   -0.2785   -1.9028    0.8270 O   0  0  0  0  0  0  0  0  0  0  0  0
    0.7898   -2.1187   -1.1388 N   0  0  0  0  0  0  0  0  0  0  0  0
    1.6163   -1.6845   -2.2710 C   0  0  1  0  0  0  0  0  0  0  0  0
    2.8983   -2.5247   -2.3563 C   0  0  0  0  0  0  0  0  0  0  0  0
    2.6637   -3.9090   -2.5864 O   0  0  0  0  0  0  0  0  0  0  0  0
    0.8248   -1.7743   -3.5810 C   0  0  0  0  0  0  0  0  0  0  0  0
    0.6485   -0.5947   -4.2238 O   0  0  0  0  0  0  0  0  0  0  0  0
    0.3238   -2.8077   -4.0085 O   0  0  0  0  0  0  0  0  0  0  0  0
  1  2  1  0
  2  3  2  0
  2  4  1  0
  5  4  1  0
  5  6  1  6
  5  8  1  0
  6  7  1  0
  8  9  1  0
  8 10  2  0
M  END
>  <DRUGBANK_ID>  (1) 
DB02340

>  <SECONDARY_ACCESSION_NUMBERS>  (1) 
EXPT02839

>  <COMMON_NAME>  (1) 
N-Acetyl-Serine

>  <CAS_NUMBER>  (1) 
16354-58-8

>  <UNII>  (1) 
W98518XGZ3

$$$$
