
     RDKit          3D

  4  3  0  0  0  0  0  0  0  0999 V2000
    1.0223    0.1304    0.0477 N   0  0  0  0  0  0  0  0  0  0  0  0
    0.5445   -0.6600   -1.0902 C   0  0  0  0  0  0  0  0  0  0  0  0
    1.0412   -2.1090   -1.0490 C   0  0  0  0  0  0  0  0  0  0  0  0
    0.5698   -2.7754    0.1177 O   0  0  0  0  0  0  0  0  0  0  0  0
  1  2  1  0
  2  3  1  0
  3  4  1  0
M  END
>  <DRUGBANK_ID>  (1) 
DB03994

>  <SECONDARY_ACCESSION_NUMBERS>  (1) 
EXPT01366

>  <COMMON_NAME>  (1) 
Ethanolamine

>  <CAS_NUMBER>  (1) 
141-43-5

>  <UNII>  (1) 
5KV86114PT

$$$$
