
     RDKit          3D

 27 29  0  0  0  0  0  0  0  0999 V2000
    0.9622   -0.1998   -0.1132 C   0  0  0  0  0  0  0  0  0  0  0  0
    0.3591   -1.5914   -0.1075 C   0  0  0  0  0  0  0  0  0  0  0  0
   -0.2425   -2.0288    0.8691 O   0  0  0  0  0  0  0  0  0  0  0  0
    0.5274   -2.2876   -1.3137 O   0  0  0  0  0  0  0  0  0  0  0  0
    0.1284   -3.6749   -1.4278 C   0  0  0  0  0  0  0  0  0  0  0  0
   -1.1738   -3.9793   -1.1184 C   0  0  0  0  0  0  0  0  0  0  0  0
   -1.5473   -5.3209   -1.1520 C   0  0  0  0  0  0  0  0  0  0  0  0
   -0.6637   -6.3472   -1.5743 C   0  0  0  0  0  0  0  0  0  0  0  0
    0.6199   -6.0389   -2.0161 C   0  0  0  0  0  0  0  0  0  0  0  0
    1.5526   -7.0331   -2.6389 C   0  0  0  0  0  0  0  0  0  0  0  0
    1.1580   -8.1604   -2.9069 O   0  0  0  0  0  0  0  0  0  0  0  0
    2.9563   -6.6272   -2.9959 C   0  0  0  0  0  0  0  0  0  0  0  0
    3.8146   -7.5620   -3.6181 C   0  0  0  0  0  0  0  0  0  0  0  0
    5.1278   -7.2051   -3.9717 C   0  0  0  0  0  0  0  0  0  0  0  0
    5.5841   -5.8887   -3.6997 C   0  0  0  0  0  0  0  0  0  0  0  0
    4.7229   -4.9276   -3.0918 C   0  0  0  0  0  0  0  0  0  0  0  0
    5.2592   -3.5496   -3.0191 O   0  0  0  0  0  0  0  0  0  0  0  0
    4.9100   -2.5635   -2.0780 C   0  0  0  0  0  0  0  0  0  0  0  0
    4.3658   -2.7842   -0.9964 O   0  0  0  0  0  0  0  0  0  0  0  0
    5.4120   -1.1718   -2.2012 C   0  0  0  0  0  0  0  0  0  0  0  0
    3.3928   -5.3129   -2.7461 C   0  0  0  0  0  0  0  0  0  0  0  0
    2.3652   -4.3815   -2.2098 C   0  0  0  0  0  0  0  0  0  0  0  0
    2.5351   -3.2244   -2.0515 O   0  0  0  0  0  0  0  0  0  0  0  0
    1.0031   -4.7188   -1.8941 C   0  0  0  0  0  0  0  0  0  0  0  0
    6.0379   -8.1915   -4.6481 C   0  0  0  0  0  0  0  0  0  0  0  0
    7.1841   -7.9747   -4.9942 O   0  0  0  0  0  0  0  0  0  0  0  0
    5.4583   -9.3921   -4.8560 O   0  0  0  0  0  0  0  0  0  0  0  0
  1  2  1  0
  2  3  2  0
  2  4  1  0
  4  5  1  0
  5  6  2  0
  5 24  1  0
  6  7  1  0
  7  8  2  0
  8  9  1  0
  9 10  1  0
  9 24  2  0
 10 11  2  0
 10 12  1  0
 12 13  2  0
 12 21  1  0
 13 14  1  0
 14 15  2  0
 14 25  1  0
 15 16  1  0
 16 17  1  0
 16 21  2  0
 17 18  1  0
 18 19  2  0
 18 20  1  0
 21 22  1  0
 22 23  2  0
 22 24  1  0
 25 26  2  0
 25 27  1  0
M  END
>  <DRUGBANK_ID>  (1) 
DB11994

>  <COMMON_NAME>  (1) 
Diacerein

>  <CAS_NUMBER>  (1) 
13739-02-1

>  <UNII>  (1) 
4HU6J11EL5

>  <SYNONYMS>  (1) 
Diacerein; Diacere√≠na

$$$$
