
     RDKit          3D

 14 14  0  0  1  0  0  0  0  0999 V2000
    0.9573    0.0401    0.1238 N   0  0  0  0  0  0  0  0  0  0  0  0
    0.3867    0.6389   -1.1021 C   0  0  1  0  0  0  0  0  0  0  0  0
    0.8497   -0.1320   -2.3721 C   0  0  0  0  0  0  0  0  0  0  0  0
    0.4314   -1.5883   -2.4524 C   0  0  0  0  0  0  0  0  0  0  0  0
   -0.9250   -1.9201   -2.5473 C   0  0  0  0  0  0  0  0  0  0  0  0
   -1.3642   -3.2370   -2.4365 C   0  0  0  0  0  0  0  0  0  0  0  0
   -0.4355   -4.2665   -2.3711 C   0  0  0  0  0  0  0  0  0  0  0  0
   -0.8764   -5.5591   -2.3256 O   0  0  0  0  0  0  0  0  0  0  0  0
    0.9302   -3.9702   -2.3736 C   0  0  0  0  0  0  0  0  0  0  0  0
    2.3717   -5.4854   -2.3252 I   0  0  0  0  0  0  0  0  0  0  0  0
    1.3647   -2.6345   -2.3992 C   0  0  0  0  0  0  0  0  0  0  0  0
   -1.1524    0.7410   -0.9236 C   0  0  0  0  0  0  0  0  0  0  0  0
   -1.6879    1.9477   -1.2153 O   0  0  0  0  0  0  0  0  0  0  0  0
   -1.8724   -0.1740   -0.5351 O   0  0  0  0  0  0  0  0  0  0  0  0
  2  1  1  1
  2  3  1  0
  2 12  1  0
  3  4  1  0
  4  5  2  0
  4 11  1  0
  5  6  1  0
  6  7  2  0
  7  8  1  0
  7  9  1  0
  9 10  1  0
  9 11  2  0
 12 13  1  0
 12 14  2  0
M  END
>  <DRUGBANK_ID>  (1) 
DB01758

>  <SECONDARY_ACCESSION_NUMBERS>  (1) 
EXPT01951

>  <COMMON_NAME>  (1) 
3-Iodo-Tyrosine

>  <CAS_NUMBER>  (1) 
70-78-0

>  <UNII>  (1) 
FRQ98U4U27

$$$$
