1092
     RDKit          3D

 41 46  0  0  1  0  0  0  0  0999 V2000
   -1.4565   -0.0180   -0.0174 O   0  0  0  0  0  0  0  0  0  0  0  0
   -3.5819    5.1232    2.1128 O   0  0  0  0  0  0  0  0  0  0  0  0
    0.6615    3.1289   -1.3593 O   0  0  0  0  0  0  0  0  0  0  0  0
   -0.3537    5.2833   -1.8658 O   0  0  0  0  0  0  0  0  0  0  0  0
    0.3039    6.4368    0.7485 O   0  0  0  0  0  0  0  0  0  0  0  0
   -3.7136    4.2409   -2.0751 O   0  0  0  0  0  0  0  0  0  0  0  0
   -0.1335   -4.5135    3.0018 O   0  0  0  0  0  0  0  0  0  0  0  0
   -1.9710    5.4995   -3.6355 O   0  0  0  0  0  0  0  0  0  0  0  0
   -2.2677   -4.5303    3.7802 O   0  0  0  0  0  0  0  0  0  0  0  0
   -3.6068    4.0887   -5.4190 O   0  0  0  0  0  0  0  0  0  0  0  0
   -5.9468    5.7215   -4.6624 O   0  0  0  0  0  0  0  0  0  0  0  0
   -4.4416    8.1556   -3.7664 O   0  0  0  0  0  0  0  0  0  0  0  0
   -0.7792    3.6134    0.6757 C   0  0  2  0  0  0  0  0  0  0  0  0
   -1.4976    2.3043    0.2473 C   0  0  1  0  0  0  0  0  0  0  0  0
   -0.7099    1.0391    0.6021 C   0  0  2  0  0  0  0  0  0  0  0  0
    0.7906    0.7672    0.3671 C   0  0  1  0  0  0  0  0  0  0  0  0
   -1.6144    4.9179    0.3632 C   0  0  2  0  0  0  0  0  0  0  0  0
   -3.3577    4.8668    0.7438 C   0  0  1  0  0  0  0  0  0  0  0  0
    0.6825    3.4468    0.0352 C   0  0  1  0  0  0  0  0  0  0  0  0
    1.4146    2.2796    0.8169 C   0  0  0  0  0  0  0  0  0  0  0  0
    0.7651   -0.8514    1.3835 C   0  0  1  0  0  0  0  0  0  0  0  0
   -2.9558    2.1544    0.7706 C   0  0  0  0  0  0  0  0  0  0  0  0
   -0.6582    0.9569    2.1595 C   0  0  0  0  0  0  0  0  0  0  0  0
   -3.8857    3.2758    0.3975 C   0  0  0  0  0  0  0  0  0  0  0  0
   -1.5284    4.9611   -1.1422 C   0  0  1  0  0  0  0  0  0  0  0  0
    0.5465    0.0935    2.5392 C   0  0  0  0  0  0  0  0  0  0  0  0
   -4.2634    6.1472   -0.0669 C   0  0  0  0  0  0  0  0  0  0  0  0
   -1.0772    6.2593    0.9532 C   0  0  0  0  0  0  0  0  0  0  0  0
    1.5350    0.6991   -1.0756 C   0  0  0  0  0  0  0  0  0  0  0  0
   -2.6551    5.8992   -1.2959 C   0  0  0  0  0  0  0  0  0  0  0  0
   -3.8847    5.1145   -1.0388 C   0  0  2  0  0  0  0  0  0  0  0  0
   -0.0666   -2.2243    2.2240 C   0  0  0  0  0  0  0  0  0  0  0  0
    0.6991   -3.5376    2.3617 C   0  0  0  0  0  0  0  0  0  0  0  0
   -1.2788   -2.5246    2.7793 C   0  0  0  0  0  0  0  0  0  0  0  0
   -2.9244    4.3706   -3.2495 C   0  0  2  0  0  0  0  0  0  0  0  0
   -1.3585   -3.9661    3.2762 C   0  0  0  0  0  0  0  0  0  0  0  0
   -4.0976    4.3071   -4.1221 C   0  0  1  0  0  0  0  0  0  0  0  0
   -4.7628    5.6915   -3.8875 C   0  0  1  0  0  0  0  0  0  0  0  0
   -2.3686    6.9145   -3.6587 C   0  0  2  0  0  0  0  0  0  0  0  0
   -3.8098    6.9453   -4.1930 C   0  0  2  0  0  0  0  0  0  0  0  0
   -1.2462    7.9754   -3.7621 C   0  0  0  0  0  0  0  0  0  0  0  0
  5 28  1  0
  7 33  1  0
  7 36  1  0
  8 35  1  0
  8 39  1  0
  9 36  2  0
 13 14  1  0
 13 17  1  0
 13 19  1  6
 14 15  1  0
 14 22  1  1
 15 16  1  0
 15 23  1  0
 15  1  1  6
 16 20  1  0
 16 21  1  0
 16 29  1  6
 17 18  1  0
 17 25  1  0
 17 28  1  1
 18 24  1  0
 18 27  1  0
 18  2  1  1
 19 20  1  0
 19  3  1  6
 21 26  1  0
 21 32  1  6
 22 24  1  0
 23 26  1  0
 25 30  1  0
 25  4  1  1
 27 31  1  0
 30 31  1  0
 31  6  1  1
 32 33  1  0
 32 34  2  0
 34 36  1  0
 35  6  1  1
 35 37  1  0
 37 10  1  6
 37 38  1  0
 38 11  1  6
 38 40  1  0
 39 40  1  0
 39 41  1  6
 40 12  1  1
M  END
>  <DRUGBANK_ID>  (1) 
DB01092

>  <SECONDARY_ACCESSION_NUMBERS>  (1) 
APRD00135

>  <COMMON_NAME>  (1) 
Ouabain

>  <CAS_NUMBER>  (1) 
630-60-4

>  <UNII>  (1) 
5ACL011P69

>  <SYNONYMS>  (1) 
3-(α-L-rhamnopyranosyloxy)-1β,5β,11α,14,19-pentahydroxy-5β-card-20(22)-enolide; G-Strophanthin; Ouabagenin L-Rhamnoside; Ouabagenin-L-rhamnosid; Ouabain anhydrous; Ouabaine; Oubain

$$$$
