
     RDKit          3D

 32 34  0  0  1  0  0  0  0  0999 V2000
    1.1124    0.1073   -0.0208 C   0  0  0  0  0  0  0  0  0  0  0  0
    0.6537    0.7049   -1.3496 C   0  0  0  0  0  0  0  0  0  0  0  0
    1.0427   -0.1825   -2.5412 C   0  0  0  0  0  0  0  0  0  0  0  0
    0.5730   -1.6238   -2.4304 C   0  0  0  0  0  0  0  0  0  0  0  0
   -0.6572   -1.9280   -1.8497 C   0  0  0  0  0  0  0  0  0  0  0  0
   -0.8549   -3.2315   -1.4536 C   0  0  0  0  0  0  0  0  0  0  0  0
   -0.1146   -4.2873   -1.9601 C   0  0  0  0  0  0  0  0  0  0  0  0
    1.0894   -4.0281   -2.6066 C   0  0  0  0  0  0  0  0  0  0  0  0
    1.4505   -2.6787   -2.7914 C   0  0  0  0  0  0  0  0  0  0  0  0
    2.6464   -2.2263   -3.2749 O   0  0  0  0  0  0  0  0  0  0  0  0
    1.9138   -5.2459   -2.8908 C   0  0  0  0  0  0  0  0  0  0  0  0
    1.4646   -6.3703   -2.6681 O   0  0  0  0  0  0  0  0  0  0  0  0
    3.3096   -5.0868   -3.4034 C   0  0  0  0  0  0  0  0  0  0  0  0
   -1.5496   -0.9205   -1.6260 O   0  0  0  0  0  0  0  0  0  0  0  0
   -2.8390   -1.1686   -1.0548 C   0  0  0  0  0  0  0  0  0  0  0  0
   -3.7246   -1.9328   -1.9973 C   0  0  0  0  0  0  0  0  0  0  0  0
   -3.6766   -3.3334   -2.0484 C   0  0  0  0  0  0  0  0  0  0  0  0
   -4.2155   -4.0643   -3.0771 C   0  0  0  0  0  0  0  0  0  0  0  0
   -5.0509   -3.4223   -3.9634 C   0  0  0  0  0  0  0  0  0  0  0  0
   -5.2506   -2.0318   -3.8164 C   0  0  0  0  0  0  0  0  0  0  0  0
   -4.5440   -1.2751   -2.8942 C   0  0  0  0  0  0  0  0  0  0  0  0
   -5.7363   -4.2813   -4.9921 C   0  0  1  0  0  0  0  0  0  0  0  0
   -7.2297   -4.3551   -4.7832 C   0  0  0  0  0  0  0  0  0  0  0  0
   -8.0086   -3.1881   -4.8421 C   0  0  0  0  0  0  0  0  0  0  0  0
   -9.3773   -3.2037   -4.6658 C   0  0  0  0  0  0  0  0  0  0  0  0
  -10.0177   -4.4209   -4.5399 C   0  0  0  0  0  0  0  0  0  0  0  0
   -9.2782   -5.6113   -4.5638 C   0  0  0  0  0  0  0  0  0  0  0  0
   -7.8780   -5.5787   -4.5868 C   0  0  0  0  0  0  0  0  0  0  0  0
   -9.9590   -6.9201   -4.7192 C   0  0  0  0  0  0  0  0  0  0  0  0
   -9.4220   -7.9953   -4.8274 O   0  0  0  0  0  0  0  0  0  0  0  0
  -11.2965   -6.7709   -4.8334 O   0  0  0  0  0  0  0  0  0  0  0  0
   -5.4540   -3.7810   -6.2931 O   0  0  0  0  0  0  0  0  0  0  0  0
  1  2  1  0
  2  3  1  0
  3  4  1  0
  4  5  2  0
  4  9  1  0
  5  6  1  0
  5 14  1  0
  6  7  2  0
  7  8  1  0
  8  9  2  0
  8 11  1  0
  9 10  1  0
 11 12  2  0
 11 13  1  0
 14 15  1  0
 15 16  1  0
 16 17  2  0
 16 21  1  0
 17 18  1  0
 18 19  2  0
 19 20  1  0
 19 22  1  0
 20 21  2  0
 22 23  1  0
 22 32  1  6
 23 24  2  0
 23 28  1  0
 24 25  1  0
 25 26  2  0
 26 27  1  0
 27 28  2  0
 27 29  1  0
 29 30  2  0
 29 31  1  0
M  END
>  <DRUGBANK_ID>  (1) 
DB13016

>  <COMMON_NAME>  (1) 
LY-2300559

>  <CAS_NUMBER>  (1) 
889116-06-7

>  <UNII>  (1) 
Z572ZBT8XL

$$$$
