
     RDKit          3D

  6  4  0  0  0  0  0  0  0  0999 V2000
    1.0994   -0.0021    0.0106 Ni  0  0  0  0  0 15  0  0  0  0  0  0
    1.0741    0.0624   -0.0247 S   0  0  0  0  0  0  0  0  0  0  0  0
    0.5639    0.4988   -1.4001 O   0  0  0  0  0  0  0  0  0  0  0  0
    0.5041   -1.5122    0.3215 O   0  0  0  0  0  0  0  0  0  0  0  0
    0.5041    1.1495    1.1659 O   0  0  0  0  0  0  0  0  0  0  0  0
    2.6045    0.0624   -0.0247 O   0  0  0  0  0  0  0  0  0  0  0  0
  3  2  2  0
  4  2  1  0
  5  2  1  0
  6  2  2  0
M  CHG  3   1   2   4  -1   5  -1
M  END
>  <DRUGBANK_ID>  (1) 
DB14180

>  <COMMON_NAME>  (1) 
Nickel sulfate

>  <CAS_NUMBER>  (1) 
7786-81-4

>  <UNII>  (1) 
4FLT4T3WUN

>  <SYNONYMS>  (1) 
Nickel sulfate(1:1); Nickel sulphate; nickel(II) sulfate

$$$$
