
     RDKit          3D

 16 16  0  0  1  0  0  0  0  0999 V2000
   -5.8163    0.8429    5.4180 O   0  0  0  0  0  0  0  0  0  0  0  0
   -2.7030   -1.9865   -1.3368 N   0  0  0  0  0  0  0  0  0  0  0  0
   -3.9709   -1.4404    1.4029 C   0  0  1  0  0  0  0  0  0  0  0  0
   -2.9156   -2.6344    1.1601 C   0  0  2  0  0  0  0  0  0  0  0  0
   -2.0335   -2.4643   -0.1174 C   0  0  0  0  0  0  0  0  0  0  0  0
   -5.1094   -1.5982    0.4026 C   0  0  0  0  0  0  0  0  0  0  0  0
   -4.5382   -1.3991    2.8114 C   0  0  0  0  0  0  0  0  0  0  0  0
   -3.4383   -4.0986    1.0434 C   0  0  0  0  0  0  0  0  0  0  0  0
   -6.4496   -0.9324    0.3714 C   0  0  0  0  0  0  0  0  0  0  0  0
   -4.8546   -0.2137    3.4684 C   0  0  0  0  0  0  0  0  0  0  0  0
   -4.8632   -2.5985    3.4550 C   0  0  0  0  0  0  0  0  0  0  0  0
   -1.7394   -1.7411   -2.4012 C   0  0  0  0  0  0  0  0  0  0  0  0
   -3.7484   -2.8419   -1.9179 C   0  0  0  0  0  0  0  0  0  0  0  0
   -5.4705   -0.2771    4.7298 C   0  0  0  0  0  0  0  0  0  0  0  0
   -5.4755   -2.6632    4.6935 C   0  0  0  0  0  0  0  0  0  0  0  0
   -5.7731   -1.4987    5.3344 C   0  0  0  0  0  0  0  0  0  0  0  0
  1 14  1  0
  2  5  1  0
  2 12  1  0
  2 13  1  0
  3  6  1  6
  3  7  1  0
  4  8  1  6
  4  5  1  0
  4  3  1  0
  6  9  1  0
  7 10  2  0
  7 11  1  0
 10 14  1  0
 11 15  2  0
 14 16  2  0
 15 16  1  0
M  END
>  <DRUGBANK_ID>  (1) 
DB06204

>  <COMMON_NAME>  (1) 
Tapentadol

>  <CAS_NUMBER>  (1) 
175591-23-8

>  <UNII>  (1) 
H8A007M585

>  <SYNONYMS>  (1) 
3-[(1R,2R)-3-(Dimethylamino)-1-ethyl-2-methylpropyl]phenol; PHENOL, 3-((1R,2R)-3-(DIMETHYLAMINO)-1-ETHYL-2-METHYLPROPYL)-; Tapentadol

$$$$
