GK4
     RDKit          3D

 26 29  0  0  0  0  0  0  0  0999 V2000
    0.9955   -0.0698   -0.0569 O   0  0  0  0  0  0  0  0  0  0  0  0
    2.2256   -0.0399   -0.0034 C   0  0  0  0  0  0  0  0  0  0  0  0
    2.9497    0.7432   -0.8753 N   0  0  0  0  0  0  0  0  0  0  0  0
    4.3897    0.7999   -1.0780 C   0  0  0  0  0  0  0  0  0  0  0  0
    4.8493    0.3358   -2.4110 C   0  0  0  0  0  0  0  0  0  0  0  0
    3.9561    0.0803   -3.5889 C   0  0  0  0  0  0  0  0  0  0  0  0
    4.5445   -1.0830   -2.8335 C   0  0  0  0  0  0  0  0  0  0  0  0
    2.9514   -0.8976    0.9618 C   0  0  0  0  0  0  0  0  0  0  0  0
    4.0968   -0.4141    1.5884 C   0  0  0  0  0  0  0  0  0  0  0  0
    4.9946   -1.3077    2.1425 C   0  0  0  0  0  0  0  0  0  0  0  0
    2.5749   -2.2325    1.1320 C   0  0  0  0  0  0  0  0  0  0  0  0
    3.4076   -3.1009    1.8485 C   0  0  0  0  0  0  0  0  0  0  0  0
    4.6294   -2.6448    2.3611 C   0  0  0  0  0  0  0  0  0  0  0  0
    5.5012   -3.4602    3.2152 C   0  0  0  0  0  0  0  0  0  0  0  0
    5.8885   -2.9895    4.4933 C   0  0  0  0  0  0  0  0  0  0  0  0
    5.1830   -1.8392    5.1754 C   0  0  0  0  0  0  0  0  0  0  0  0
    6.9237   -3.6333    5.1836 C   0  0  0  0  0  0  0  0  0  0  0  0
    7.4571   -4.8293    4.7021 C   0  0  0  0  0  0  0  0  0  0  0  0
    6.0443   -4.6648    2.7465 C   0  0  0  0  0  0  0  0  0  0  0  0
    7.0112   -5.3594    3.4875 C   0  0  0  0  0  0  0  0  0  0  0  0
    7.6177   -6.5436    2.9164 C   0  0  0  0  0  0  0  0  0  0  0  0
    8.2493   -6.6809    1.7696 N   0  0  0  0  0  0  0  0  0  0  0  0
    8.5624   -8.0156    1.6539 N   0  0  0  0  0  0  0  0  0  0  0  0
    7.4740   -7.7266    3.5940 O   0  0  0  0  0  0  0  0  0  0  0  0
    8.0784   -8.6019    2.7272 C   0  0  0  0  0  0  0  0  0  0  0  0
    8.0816  -10.0298    3.0823 C   0  0  0  0  0  0  0  0  0  0  0  0
  2  1  2  0
  3  4  1  0
  3  2  1  0
  5  4  1  0
  6  7  1  0
  6  5  1  0
  7  5  1  0
  8  2  1  0
  8 11  1  0
  9  8  2  0
 10  9  1  0
 10 13  2  0
 12 11  2  0
 13 12  1  0
 14 13  1  0
 14 19  2  0
 15 17  2  0
 15 14  1  0
 16 15  1  0
 17 18  1  0
 18 20  2  0
 19 20  1  0
 20 21  1  0
 21 24  1  0
 21 22  2  0
 22 23  1  0
 24 25  1  0
 25 26  1  0
 25 23  2  0
M  END
>  <DRUGBANK_ID>  (1) 
DB07834

>  <COMMON_NAME>  (1) 
N-(cyclopropylmethyl)-2'-methyl-5'-(5-methyl-1,3,4-oxadiazol-2-yl)biphenyl-4-carboxamide

$$$$
