
     RDKit          3D

  3  0  0  0  0  0  0  0  0  0999 V2000
    1.0677    0.0725   -0.0126 Fe  0  0  0  0  0 15  0  0  0  0  0  0
    0.9926   -0.0958    0.0278 O   0  0  0  0  0  0  0  0  0  0  0  0
    0.9271   -0.0098   -0.0677 O   0  0  0  0  0  0  0  0  0  0  0  0
M  CHG  3   1   3   2  -1   3  -2
M  END
>  <DRUGBANK_ID>  (1) 
DB14695

>  <COMMON_NAME>  (1) 
Ferric oxyhydroxide

>  <CAS_NUMBER>  (1) 
20344-49-4

>  <UNII>  (1) 
87PZU03K0K

>  <SYNONYMS>  (1) 
Hydrated ferric oxide; Iron hydroxide oxide

$$$$
