
     RDKit          3D

 10  9  0  0  0  0  0  0  0  0999 V2000
    1.0559    0.0519    0.0646 O   0  0  0  0  0  0  0  0  0  0  0  0
    0.4793   -1.1033   -1.0869 P   0  0  0  0  0  0  0  0  0  0  0  0
   -1.0078   -1.0257   -0.4082 O   0  0  0  0  0  0  0  0  0  0  0  0
    0.5895   -0.0538   -2.1909 O   0  0  0  0  0  0  0  0  0  0  0  0
   -0.1307   -2.3252   -2.3049 C   0  0  0  0  0  0  0  0  0  0  0  0
    0.6082   -3.6468   -2.0461 C   0  0  0  0  0  0  0  0  0  0  0  0
    0.3593   -4.2345   -0.6741 C   0  0  0  0  0  0  0  0  0  0  0  0
   -0.2858   -5.3927   -0.4838 C   0  0  0  0  0  0  0  0  0  0  0  0
    0.8828   -3.5895    0.5601 C   0  0  0  0  0  0  0  0  0  0  0  0
    1.6914   -2.6653    0.5198 O   0  0  0  0  0  0  0  0  0  0  0  0
  1  2  1  0
  2  3  1  0
  2  4  2  0
  2  5  1  0
  5  6  1  0
  6  7  1  0
  7  8  2  0
  7  9  1  0
  9 10  2  0
M  END
>  <DRUGBANK_ID>  (1) 
DB03211

>  <SECONDARY_ACCESSION_NUMBERS>  (1) 
EXPT01081

>  <COMMON_NAME>  (1) 
(3-Formyl-but-3-Enyl)-Phosphonic Acid

$$$$
