
     RDKit          3D

 41 46  0  0  1  0  0  0  0  0999 V2000
   -2.1707   -3.4431   -0.5313 C   0  0  0  0  0  0  0  0  0  0  0  0
   -1.6838   -4.2483    1.6867 C   0  0  0  0  0  0  0  0  0  0  0  0
    3.9892    7.2163   -2.8857 C   0  0  0  0  0  0  0  0  0  0  0  0
    4.8257    5.0347   -3.8321 C   0  0  0  0  0  0  0  0  0  0  0  0
    2.8153    6.1460   -4.8110 C   0  0  0  0  0  0  0  0  0  0  0  0
   -0.0116    1.7302    2.6774 C   0  0  0  0  0  0  0  0  0  0  0  0
    1.3841    4.7271   -2.7850 C   0  0  0  0  0  0  0  0  0  0  0  0
    0.5811    4.0603   -1.8664 C   0  0  0  0  0  0  0  0  0  0  0  0
    1.3736    2.3442    2.6224 C   0  0  0  0  0  0  0  0  0  0  0  0
   -1.7462    0.5288    1.0998 C   0  0  0  0  0  0  0  0  0  0  0  0
   -0.4280   -0.7621    2.1566 C   0  0  0  0  0  0  0  0  0  0  0  0
    3.2723    4.7649   -1.2393 C   0  0  0  0  0  0  0  0  0  0  0  0
   -3.1354   -1.6584    2.7941 C   0  0  0  0  0  0  0  0  0  0  0  0
   -2.2034    2.2658    4.9298 C   0  0  0  0  0  0  0  0  0  0  0  0
   -3.3012   -0.6140    8.0218 C   0  0  0  0  0  0  0  0  0  0  0  0
   -2.5739   -3.2508    0.9334 C   0  0  0  0  0  0  0  0  0  0  0  0
   -0.2673    0.6647    1.6138 C   0  0  2  0  0  0  0  0  0  0  0  0
    2.7132    5.0982   -2.4900 C   0  0  0  0  0  0  0  0  0  0  0  0
   -1.4655   -1.0003    1.0391 C   0  0  1  0  0  0  0  0  0  0  0  0
    1.1397    3.7624   -0.6301 C   0  0  0  0  0  0  0  0  0  0  0  0
    2.4555    4.0925   -0.3481 C   0  0  0  0  0  0  0  0  0  0  0  0
   -2.3401   -2.4476    3.8679 C   0  0  2  0  0  0  0  0  0  0  0  0
    1.5154    3.0430    1.3320 C   0  0  0  0  0  0  0  0  0  0  0  0
   -3.0648    1.3820    7.2847 C   0  0  0  0  0  0  0  0  0  0  0  0
   -3.1477   -3.5391    4.5595 C   0  0  2  0  0  0  0  0  0  0  0  0
   -3.5623   -2.8765    5.8530 C   0  0  2  0  0  0  0  0  0  0  0  0
   -3.0030    2.7551    7.0164 C   0  0  0  0  0  0  0  0  0  0  0  0
   -2.6104    0.5492    6.2713 C   0  0  0  0  0  0  0  0  0  0  0  0
   -2.3834   -1.9531    6.1378 C   0  0  2  0  0  0  0  0  0  0  0  0
    3.5714    5.8646   -3.4983 C   0  0  0  0  0  0  0  0  0  0  0  0
   -3.3906    3.7278    7.9070 N   0  0  0  0  0  0  0  0  0  0  0  0
   -2.5578    3.1878    5.8307 N   0  0  0  0  0  0  0  0  0  0  0  0
   -2.1728    0.9319    5.0717 N   0  0  0  0  0  0  0  0  0  0  0  0
   -3.5015    0.6428    8.3635 N   0  0  0  0  0  0  0  0  0  0  0  0
    0.5639    3.1574    0.4298 N   0  0  0  0  0  0  0  0  0  0  0  0
    2.6761    3.6147    0.9124 N   0  0  0  0  0  0  0  0  0  0  0  0
   -2.6298   -1.8320    1.4083 N   0  0  0  0  0  0  0  0  0  0  0  0
   -2.7452   -0.7137    6.7776 N   0  0  0  0  0  0  0  0  0  0  0  0
   -2.3322   -4.6787    4.9157 O   0  0  0  0  0  0  0  0  0  0  0  0
   -3.7189   -3.8448    6.8914 O   0  0  0  0  0  0  0  0  0  0  0  0
   -1.7765   -1.6469    4.8976 O   0  0  0  0  0  0  0  0  0  0  0  0
  8  7  2  0
  9  6  1  0
 16  1  1  0
 16  2  1  0
 17 10  1  0
 17 11  1  0
 17  6  1  1
 18  7  1  0
 18 12  2  0
 19 10  1  0
 19 11  1  0
 19 37  1  1
 20  8  1  0
 21 12  1  0
 21 20  2  0
 22 13  1  6
 23  9  1  0
 25 22  1  0
 25 39  1  1
 26 25  1  0
 26 40  1  1
 27 24  2  0
 28 24  1  0
 29 26  1  0
 29 38  1  6
 30  3  1  0
 30  4  1  0
 30  5  1  0
 30 18  1  0
 31 27  1  0
 32 14  2  0
 32 27  1  0
 33 14  1  0
 33 28  2  0
 34 15  2  0
 34 24  1  0
 35 20  1  0
 35 23  2  0
 36 21  1  0
 36 23  1  0
 37 13  1  0
 37 16  1  0
 38 15  1  0
 38 28  1  0
 41 22  1  0
 41 29  1  0
M  END
>  <DRUGBANK_ID>  (1) 
DB12920

>  <COMMON_NAME>  (1) 
Pinometostat

>  <CAS_NUMBER>  (1) 
1380288-87-8

>  <UNII>  (1) 
8V9YR09EF3

>  <SYNONYMS>  (1) 
9H-PURIN-6-AMINE, 9-(5-DEOXY-5-((CIS-3-(2-(6-(1,1-DIMETHYLETHYL)-1H-BENZIMIDAZOL-2-YL)ETHYL)CYCLOBUTYL)(1-METHYLETHYL)AMINO)-.BETA.-D-RIBOFURANOSYL)-; Pinometostat; PINOMETOSTAT ANHYDROUS

$$$$
