DVP
     RDKit          3D

 32 35  0  0  0  0  0  0  0  0999 V2000
    1.0617    0.0133   -0.1247 C   0  0  0  0  0  0  0  0  0  0  0  0
    0.5878    0.4989   -1.3897 O   0  0  0  0  0  0  0  0  0  0  0  0
    0.9964    1.7686   -1.6515 C   0  0  0  0  0  0  0  0  0  0  0  0
    1.7047    2.4191   -0.8841 O   0  0  0  0  0  0  0  0  0  0  0  0
    0.4841    2.2876   -2.9920 C   0  0  0  0  0  0  0  0  0  0  0  0
    1.5820    2.2507   -4.0677 C   0  0  0  0  0  0  0  0  0  0  0  0
    2.6648    3.3074   -3.8145 C   0  0  0  0  0  0  0  0  0  0  0  0
   -0.0523    3.7203   -2.8363 C   0  0  0  0  0  0  0  0  0  0  0  0
    1.0666    4.7352   -2.6076 C   0  0  0  0  0  0  0  0  0  0  0  0
    2.0650    4.6372   -3.6635 N   0  0  0  0  0  0  0  0  0  0  0  0
    2.4206    5.6721   -4.5265 C   0  0  0  0  0  0  0  0  0  0  0  0
    3.2035    5.5285   -5.4646 O   0  0  0  0  0  0  0  0  0  0  0  0
    1.8283    7.0251   -4.3394 C   0  0  0  0  0  0  0  0  0  0  0  0
    2.0024    7.7464   -3.1559 C   0  0  0  0  0  0  0  0  0  0  0  0
    1.4810    9.0487   -3.0344 C   0  0  0  0  0  0  0  0  0  0  0  0
    1.1859    7.6363   -5.4120 C   0  0  0  0  0  0  0  0  0  0  0  0
    0.7363    8.9583   -5.2992 C   0  0  0  0  0  0  0  0  0  0  0  0
    0.8026    9.6717   -4.0961 C   0  0  0  0  0  0  0  0  0  0  0  0
    0.3336   10.9739   -3.9568 N   0  0  0  0  0  0  0  0  0  0  0  0
   -0.5140   11.6404   -4.9516 C   0  0  0  0  0  0  0  0  0  0  0  0
   -1.9600   11.8249   -4.5271 C   0  0  0  0  0  0  0  0  0  0  0  0
   -2.5121   13.0873   -4.4012 C   0  0  0  0  0  0  0  0  0  0  0  0
   -3.8171   13.3057   -4.0795 N   0  0  0  0  0  0  0  0  0  0  0  0
   -4.6154   12.2434   -3.8811 C   0  0  0  0  0  0  0  0  0  0  0  0
   -5.8918   12.4527   -3.5437 N   0  0  0  0  0  0  0  0  0  0  0  0
   -6.6715   11.3901   -3.3481 C   0  0  0  0  0  0  0  0  0  0  0  0
   -7.9741   11.6077   -2.9938 N   0  0  0  0  0  0  0  0  0  0  0  0
   -6.2659   10.1276   -3.4750 N   0  0  0  0  0  0  0  0  0  0  0  0
   -4.9784    9.9388   -3.8175 C   0  0  0  0  0  0  0  0  0  0  0  0
   -4.5545    8.6237   -3.9735 N   0  0  0  0  0  0  0  0  0  0  0  0
   -4.0688   10.9675   -4.0353 C   0  0  0  0  0  0  0  0  0  0  0  0
   -2.7518   10.7411   -4.3634 N   0  0  0  0  0  0  0  0  0  0  0  0
  1  2  1  0
  2  3  1  0
  3  4  2  0
  3  5  1  0
  5  6  1  0
  5  8  1  0
  6  7  1  0
  7 10  1  0
  8  9  1  0
  9 10  1  0
 10 11  1  0
 11 12  2  0
 11 13  1  0
 13 14  2  0
 13 16  1  0
 14 15  1  0
 15 18  2  0
 16 17  2  0
 17 18  1  0
 18 19  1  0
 19 20  1  0
 20 21  1  0
 21 22  2  0
 21 32  1  0
 22 23  1  0
 23 24  2  0
 24 25  1  0
 24 31  1  0
 25 26  2  0
 26 27  1  0
 26 28  1  0
 28 29  2  0
 29 30  1  0
 29 31  1  0
 31 32  2  0
M  END
>  <DRUGBANK_ID>  (1) 
DB07689

>  <COMMON_NAME>  (1) 
METHYL 1-(4-{[(2,4-DIAMINOPTERIDIN-6-YL)METHYL]AMINO}BENZOYL)PIPERIDINE-4-CARBOXYLATE

$$$$
