
     RDKit          3D

 24 27  0  0  1  0  0  0  0  0999 V2000
    2.0444   -0.4000   -0.4801 C   0  0  0  0  0  0  0  0  0  0  0  0
    0.5048   -0.6940   -1.3130 C   0  0  1  0  0  0  0  0  0  0  0  0
    0.2479   -0.0570    0.0290 C   0  0  1  0  0  0  0  0  0  0  0  0
    0.6547    1.4332   -0.6738 C   0  0  0  0  0  0  0  0  0  0  0  0
   -0.6552    1.9786   -0.7136 C   0  0  0  0  0  0  0  0  0  0  0  0
   -0.8124    3.2228   -0.0934 C   0  0  0  0  0  0  0  0  0  0  0  0
   -2.0501    3.5506    0.2575 C   0  0  0  0  0  0  0  0  0  0  0  0
   -3.1119    2.6579   -0.0155 C   0  0  0  0  0  0  0  0  0  0  0  0
   -2.9218    1.3844   -0.6172 C   0  0  0  0  0  0  0  0  0  0  0  0
   -1.6743    1.0246   -1.0070 C   0  0  0  0  0  0  0  0  0  0  0  0
   -1.1591   -0.4728   -1.3996 C   0  0  2  0  0  0  0  0  0  0  0  0
   -1.7241   -1.6788   -0.4939 C   0  0  0  0  0  0  0  0  0  0  0  0
   -1.2375   -1.6437    0.9950 C   0  0  0  0  0  0  0  0  0  0  0  0
   -0.5761   -0.3313    1.2364 N   0  0  0  0  0  0  0  0  0  0  0  0
    0.2261   -0.2732    2.5067 C   0  0  0  0  0  0  0  0  0  0  0  0
    1.3734   -1.2940    2.9610 C   0  0  0  0  0  0  0  0  0  0  0  0
    2.7864   -1.2623    2.3398 C   0  0  0  0  0  0  0  0  0  0  0  0
    3.4603   -0.0486    2.0829 C   0  0  0  0  0  0  0  0  0  0  0  0
    4.4053    0.0248    1.0257 C   0  0  0  0  0  0  0  0  0  0  0  0
    4.7932   -1.1281    0.3281 C   0  0  0  0  0  0  0  0  0  0  0  0
    4.2974   -2.3689    0.7352 C   0  0  0  0  0  0  0  0  0  0  0  0
    3.2995   -2.4389    1.7335 C   0  0  0  0  0  0  0  0  0  0  0  0
   -1.6760   -0.6640   -2.8294 C   0  0  0  0  0  0  0  0  0  0  0  0
   -4.3711    3.0198    0.3240 O   0  0  0  0  0  0  0  0  0  0  0  0
  2  1  1  6
  2  3  1  0
  2 11  1  0
  3  4  1  6
  3 14  1  0
  4  5  1  0
  5  6  1  0
  5 10  2  0
  6  7  2  0
  7  8  1  0
  8  9  2  0
  8 24  1  0
  9 10  1  0
 10 11  1  0
 11 12  1  0
 11 23  1  6
 12 13  1  0
 13 14  1  0
 14 15  1  0
 15 16  1  0
 16 17  1  0
 17 18  2  0
 17 22  1  0
 18 19  1  0
 19 20  2  0
 20 21  1  0
 21 22  2  0
M  END
>  <DRUGBANK_ID>  (1) 
DB13606

>  <COMMON_NAME>  (1) 
Phenazocine

>  <CAS_NUMBER>  (1) 
58073-76-0

>  <UNII>  (1) 
J0ND6N0AQC

$$$$
