
     RDKit          3D

  6  5  0  0  0  0  0  0  0  0999 V2000
    1.0476    0.0867    0.0146 C   0  0  0  0  0  0  0  0  0  0  0  0
    0.5409    1.5125    0.1594 C   0  0  0  0  0  0  0  0  0  0  0  0
    1.1942    2.5934   -1.3394 Se  0  0  0  0  0  2  0  0  0  0  0  0
    3.1542    2.5934   -1.3395 C   0  0  0  0  0  0  0  0  0  0  0  0
    3.8892    1.8487   -0.3069 N   0  0  0  0  0  0  0  0  0  0  0  0
    3.8121    3.2598   -2.2636 N   0  0  0  0  0  0  0  0  0  0  0  0
  1  2  1  0
  2  3  1  0
  3  4  1  0
  4  5  1  0
  4  6  2  0
M  END
>  <DRUGBANK_ID>  (1) 
DB02589

>  <SECONDARY_ACCESSION_NUMBERS>  (1) 
EXPT01939

>  <COMMON_NAME>  (1) 
Se-Ethyl-Isoselenourea

$$$$
