
     RDKit          3D

  6  5  0  0  0  0  0  0  0  0999 V2000
    1.5289   -0.3709    0.2867 C   0  0  0  0  0  0  0  0  0  0  0  0
    0.6912   -1.3451   -0.3323 O   0  0  0  0  0  0  0  0  0  0  0  0
    1.0053   -1.5742   -1.7065 C   0  0  0  0  0  0  0  0  0  0  0  0
    0.3515   -0.5810   -2.6883 C   0  0  0  0  0  0  0  0  0  0  0  0
    0.6655    0.7904   -2.4435 O   0  0  0  0  0  0  0  0  0  0  0  0
   -0.1722    1.3982   -1.4622 C   0  0  0  0  0  0  0  0  0  0  0  0
  1  2  1  0
  2  3  1  0
  3  4  1  0
  4  5  1  0
  5  6  1  0
M  END
>  <DRUGBANK_ID>  (1) 
DB01749

>  <SECONDARY_ACCESSION_NUMBERS>  (1) 
EXPT01306

>  <COMMON_NAME>  (1) 
1,2-Dimethoxyethane

>  <CAS_NUMBER>  (1) 
110-71-4

>  <UNII>  (1) 
GXS24JF5IW

$$$$
