
     RDKit          3D

 34 38  0  0  0  0  0  0  0  0999 V2000
    2.5061    0.6975    0.0149 C   0  0  0  0  0  0  0  0  0  0  0  0
    2.4751   -0.6886    0.0060 C   0  0  0  0  0  0  0  0  0  0  0  0
    1.2484   -1.3600   -0.0060 C   0  0  0  0  0  0  0  0  0  0  0  0
    0.0380   -0.6803   -0.0113 C   0  0  0  0  0  0  0  0  0  0  0  0
    0.0652    0.7201   -0.0099 C   0  0  0  0  0  0  0  0  0  0  0  0
    1.3094    1.4016    0.0060 C   0  0  0  0  0  0  0  0  0  0  0  0
   -1.1893    1.3412   -0.0377 C   0  0  0  0  0  0  0  0  0  0  0  0
   -2.3317    0.6406   -0.0708 N   0  0  0  0  0  0  0  0  0  0  0  0
   -2.2392   -0.6884   -0.0792 C   0  0  0  0  0  0  0  0  0  0  0  0
   -1.0964   -1.3857   -0.0316 N   0  0  0  0  0  0  0  0  0  0  0  0
   -3.5046   -1.4081   -0.0222 C   0  0  0  0  0  0  0  0  0  0  0  0
   -3.7790   -2.2099    1.0872 C   0  0  0  0  0  0  0  0  0  0  0  0
   -5.0058   -2.8504    1.2467 C   0  0  0  0  0  0  0  0  0  0  0  0
   -5.9937   -2.6714    0.2787 C   0  0  0  0  0  0  0  0  0  0  0  0
   -5.7558   -1.8413   -0.8193 C   0  0  0  0  0  0  0  0  0  0  0  0
   -4.5072   -1.2376   -0.9829 C   0  0  0  0  0  0  0  0  0  0  0  0
   -5.3366   -3.6359    2.3182 O   0  0  0  0  0  0  0  0  0  0  0  0
   -4.3064   -3.8618    3.2816 C   0  0  0  0  0  0  0  0  0  0  0  0
   -3.0631   -4.6112    2.7588 C   0  0  0  0  0  0  0  0  0  0  0  0
   -1.9342   -4.1671    2.8768 O   0  0  0  0  0  0  0  0  0  0  0  0
   -3.2585   -5.8134    2.1282 N   0  0  0  0  0  0  0  0  0  0  0  0
   -4.5043   -6.5522    2.0314 C   0  0  0  0  0  0  0  0  0  0  0  0
   -4.8949   -6.7642    0.5773 C   0  0  0  0  0  0  0  0  0  0  0  0
   -4.3784   -7.8723    2.7747 C   0  0  0  0  0  0  0  0  0  0  0  0
   -1.2928    2.7327   -0.1191 N   0  0  0  0  0  0  0  0  0  0  0  0
   -2.4466    3.5157   -0.0231 C   0  0  0  0  0  0  0  0  0  0  0  0
   -3.3689    3.3479    1.0226 C   0  0  0  0  0  0  0  0  0  0  0  0
   -4.5750    4.0534    1.0494 C   0  0  0  0  0  0  0  0  0  0  0  0
   -4.7759    4.9233   -0.0209 C   0  0  0  0  0  0  0  0  0  0  0  0
   -3.7776    5.2951   -0.9147 C   0  0  0  0  0  0  0  0  0  0  0  0
   -2.6475    4.4888   -1.0119 C   0  0  0  0  0  0  0  0  0  0  0  0
   -4.3734    6.3620   -1.6211 C   0  0  0  0  0  0  0  0  0  0  0  0
   -5.6662    6.0481   -1.7705 N   0  0  0  0  0  0  0  0  0  0  0  0
   -5.8901    5.5280   -0.5464 N   0  0  0  0  0  0  0  0  0  0  0  0
  1  2  2  0
  2  3  1  0
  3  4  2  0
  4  5  1  0
  4 10  1  0
  5  6  2  0
  5  7  1  0
  6  1  1  0
  7 25  1  0
  8  7  2  0
  9  8  1  0
  9 11  1  0
 10  9  2  0
 11 16  1  0
 12 11  2  0
 13 12  1  0
 13 17  1  0
 14 13  2  0
 15 14  1  0
 16 15  2  0
 17 18  1  0
 18 19  1  0
 19 20  2  0
 19 21  1  0
 21 22  1  0
 22 23  1  0
 22 24  1  0
 25 26  1  0
 26 31  1  0
 27 26  2  0
 28 27  1  0
 29 28  2  0
 29 34  1  0
 30 29  1  0
 30 32  1  0
 31 30  2  0
 32 33  2  0
 33 34  1  0
M  END
>  <DRUGBANK_ID>  (1) 
DB16703

>  <COMMON_NAME>  (1) 
Belumosudil

>  <CAS_NUMBER>  (1) 
911417-87-3

>  <UNII>  (1) 
834YJF89WO

>  <SYNONYMS>  (1) 
Belumosudil

$$$$
