
     RDKit          3D

  7  6  0  0  1  0  0  0  0  0999 V2000
    0.9774    2.3051   -0.6712 N   0  0  0  0  0  0  0  0  0  0  0  0
    0.5233    1.2962    0.3577 C   0  0  2  0  0  0  0  0  0  0  0  0
    1.2301    0.0014    0.0656 C   0  0  0  0  0  0  0  0  0  0  0  0
    2.5718   -0.0572    0.0484 C   0  0  0  0  0  0  0  0  0  0  0  0
   -1.0329    1.2057    0.3647 C   0  0  0  0  0  0  0  0  0  0  0  0
   -1.5773    1.5743    1.4420 O   0  0  0  0  0  0  0  0  0  0  0  0
   -1.5132    1.0156   -0.7876 O   0  0  0  0  0  0  0  0  0  0  0  0
  2  5  1  0
  2  3  1  0
  2  1  1  6
  3  4  2  0
  5  6  1  0
  5  7  2  0
M  CHG  2   1   1   6  -1
M  END
>  <DRUGBANK_ID>  (1) 
DB01804

>  <SECONDARY_ACCESSION_NUMBERS>  (1) 
EXPT00367

>  <COMMON_NAME>  (1) 
2-Ammoniobut-3-Enoate, 2-Amino-3-Butenoate

$$$$
