37U
     RDKit          3D

 27 29  0  0  0  0  0  0  0  0999 V2000
   -5.3285    2.2397    0.2240 C   0  0  0  0  0  0  0  0  0  0  0  0
   -4.8204    3.3766   -0.4113 C   0  0  0  0  0  0  0  0  0  0  0  0
   -4.5543    3.4391   -1.9302 C   0  0  0  0  0  0  0  0  0  0  0  0
   -3.3356    2.8575   -2.5697 N   0  0  0  0  0  0  0  0  0  0  0  0
   -3.1990    1.8302   -3.4792 C   0  0  0  0  0  0  0  0  0  0  0  0
   -2.0761    1.5538   -3.9679 O   0  0  0  0  0  0  0  0  0  0  0  0
   -4.3941    0.9844   -3.8717 C   0  0  1  0  0  0  0  0  0  0  0  0
   -5.4164    0.5858   -2.8804 N   0  0  0  0  0  0  0  0  0  0  0  0
   -5.3133   -0.1664   -1.6787 C   0  0  0  0  0  0  0  0  0  0  0  0
   -6.3699   -0.5353   -1.1320 O   0  0  0  0  0  0  0  0  0  0  0  0
   -3.9127   -0.4284   -0.8588 C   0  0  2  0  0  0  0  0  0  0  0  0
   -4.0064   -0.4218    0.6340 N   0  0  0  0  0  0  0  0  0  0  0  0
   -2.8598    0.6026   -1.1600 C   0  0  0  0  0  0  0  0  0  0  0  0
   -1.4879    0.7032   -0.6194 C   0  0  0  0  0  0  0  0  0  0  0  0
   -0.8385    1.9264   -0.3496 C   0  0  0  0  0  0  0  0  0  0  0  0
    0.4135    1.8969    0.2391 C   0  0  0  0  0  0  0  0  0  0  0  0
    0.9679    0.6608    0.5699 C   0  0  0  0  0  0  0  0  0  0  0  0
    0.3282   -0.5335    0.2368 C   0  0  0  0  0  0  0  0  0  0  0  0
   -0.8563   -0.5068   -0.4452 C   0  0  0  0  0  0  0  0  0  0  0  0
   -6.7403    0.7778   -3.5130 C   0  0  0  0  0  0  0  0  0  0  0  0
   -6.5159    1.4754   -4.8661 C   0  0  0  0  0  0  0  0  0  0  0  0
   -5.0958    1.9544   -4.8250 C   0  0  0  0  0  0  0  0  0  0  0  0
   -4.8023    4.4773    0.4298 C   0  0  0  0  0  0  0  0  0  0  0  0
   -5.1413    4.3566    1.8033 C   0  0  0  0  0  0  0  0  0  0  0  0
   -5.1979    5.4610    2.5538 F   0  0  0  0  0  0  0  0  0  0  0  0
   -5.4576    3.1467    2.4098 C   0  0  0  0  0  0  0  0  0  0  0  0
   -5.5732    2.0619    1.5945 C   0  0  0  0  0  0  0  0  0  0  0  0
  1  2  2  0
  1 27  1  0
  2  3  1  0
  2 23  1  0
  3  4  1  0
  4  5  1  0
  5  6  2  0
  7  5  1  1
  7  8  1  0
  7 22  1  0
  8  9  1  0
  8 20  1  0
  9 10  2  0
 11 13  1  0
 11 12  1  1
 11  9  1  0
 13 14  1  0
 14 15  2  0
 14 19  1  0
 15 16  1  0
 16 17  2  0
 17 18  1  0
 18 19  2  0
 20 21  1  0
 21 22  1  0
 23 24  2  0
 24 25  1  0
 24 26  1  0
 26 27  2  0
M  END
>  <DRUGBANK_ID>  (1) 
DB07027

>  <COMMON_NAME>  (1) 
D-phenylalanyl-N-(3-fluorobenzyl)-L-prolinamide

$$$$
