NOR
     RDKit          3D

 17 17  0  0  0  0  0  0  0  0999 V2000
    0.9051    0.2247   -0.0837 N   0  0  0  0  0  0  0  0  0  0  0  0
    0.4065   -0.4730   -1.2882 C   0  0  1  0  0  0  0  0  0  0  0  0
    0.9477   -1.9169   -1.4357 C   0  0  0  0  0  0  0  0  0  0  0  0
    0.5396   -2.8897   -0.3091 C   0  0  0  0  0  0  0  0  0  0  0  0
    1.3727   -2.6334    0.9543 C   0  0  0  0  0  0  0  0  0  0  0  0
    0.7111   -4.3470   -0.7694 C   0  0  0  0  0  0  0  0  0  0  0  0
    1.0509   -3.6015    2.0695 C   0  0  0  0  0  0  0  0  0  0  0  0
    0.4398   -5.3326    0.3683 C   0  0  0  0  0  0  0  0  0  0  0  0
    1.2825   -5.0223    1.6016 C   0  0  0  0  0  0  0  0  0  0  0  0
   -1.1411   -0.4313   -1.2929 C   0  0  1  0  0  0  0  0  0  0  0  0
   -1.6102    0.8895   -1.0462 O   0  0  0  0  0  0  0  0  0  0  0  0
   -1.6774   -1.0670   -2.5635 C   0  0  0  0  0  0  0  0  0  0  0  0
   -2.3306   -2.1095   -2.5403 O   0  0  0  0  0  0  0  0  0  0  0  0
   -1.2954   -0.3951   -3.6827 O   0  0  0  0  0  0  0  0  0  0  0  0
   -1.7502   -0.8893   -4.9605 C   0  0  0  0  0  0  0  0  0  0  0  0
   -1.1915   -2.2752   -5.2738 C   0  0  0  0  0  0  0  0  0  0  0  0
   -3.2707   -0.8322   -5.0565 C   0  0  0  0  0  0  0  0  0  0  0  0
  2  1  1  1
  2  3  1  0
  2 10  1  0
  3  4  1  0
  4  5  1  0
  4  6  1  0
  5  7  1  0
  6  8  1  0
  7  9  1  0
  8  9  1  0
 10 11  1  6
 10 12  1  0
 12 13  2  0
 12 14  1  0
 14 15  1  0
 15 16  1  0
 15 17  1  0
M  END
>  <DRUGBANK_ID>  (1) 
DB08288

>  <COMMON_NAME>  (1) 
CYCLOHEXYL-NORSTATINE

$$$$
