
     RDKit          3D

 29 31  0  0  0  0  0  0  0  0999 V2000
    1.1641    0.6155    0.2416 C   0  0  0  0  0  0  0  0  0  0  0  0
    0.5681   -0.0571    1.4767 C   0  0  0  0  0  0  0  0  0  0  0  0
    1.0053    0.8830    2.5960 C   0  0  0  0  0  0  0  0  0  0  0  0
   -0.9501   -0.3033    1.3096 C   0  0  0  0  0  0  0  0  0  0  0  0
   -1.3217   -1.4851    0.5219 O   0  0  0  0  0  0  0  0  0  0  0  0
   -1.0373   -1.5049   -0.8298 C   0  0  0  0  0  0  0  0  0  0  0  0
   -2.0783   -1.3449   -1.6877 N   0  0  0  0  0  0  0  0  0  0  0  0
   -1.7861   -1.2384   -3.0258 C   0  0  0  0  0  0  0  0  0  0  0  0
   -0.5032   -1.0709   -3.5084 C   0  0  0  0  0  0  0  0  0  0  0  0
    0.5297   -1.2762   -2.6029 C   0  0  0  0  0  0  0  0  0  0  0  0
    0.2372   -1.7529   -1.3237 C   0  0  0  0  0  0  0  0  0  0  0  0
    1.5267   -2.4828   -0.4346 Cl  0  0  0  0  0  0  0  0  0  0  0  0
   -0.2215   -0.9158   -4.8910 N   0  0  0  0  0  0  0  0  0  0  0  0
   -0.9329   -0.1266   -5.7321 N   0  0  0  0  0  0  0  0  0  0  0  0
   -0.3127   -0.2695   -6.9186 C   0  0  0  0  0  0  0  0  0  0  0  0
   -0.6915    0.4670   -8.1387 C   0  0  0  0  0  0  0  0  0  0  0  0
    0.7051   -1.2372   -6.9096 C   0  0  0  0  0  0  0  0  0  0  0  0
    0.7513   -1.6192   -5.5729 C   0  0  0  0  0  0  0  0  0  0  0  0
    1.5738   -2.6199   -5.1458 C   0  0  0  0  0  0  0  0  0  0  0  0
    2.2871   -3.1854   -6.1628 C   0  0  0  0  0  0  0  0  0  0  0  0
    2.3962   -2.8407   -7.4726 C   0  0  0  0  0  0  0  0  0  0  0  0
    1.5564   -1.8236   -7.8960 C   0  0  0  0  0  0  0  0  0  0  0  0
    3.3601   -3.6565   -8.2568 C   0  0  0  0  0  0  0  0  0  0  0  0
    3.4645   -3.4378   -9.4568 O   0  0  0  0  0  0  0  0  0  0  0  0
    4.1679   -4.7066   -7.6610 N   0  0  0  0  0  0  0  0  0  0  0  0
    4.6644   -5.3612   -6.1460 S   0  0  0  0  0  0  0  0  0  0  0  0
    4.0334   -7.0148   -6.2754 C   0  0  0  0  0  0  0  0  0  0  0  0
    6.0959   -5.3796   -6.1631 O   0  0  0  0  0  0  0  0  0  0  0  0
    4.0144   -4.8874   -4.9268 O   0  0  0  0  0  0  0  0  0  0  0  0
  1  2  1  0
  2  3  1  0
  2  4  1  0
  4  5  1  0
  5  6  1  0
  6  7  2  0
  6 11  1  0
  7  8  1  0
  8  9  2  0
  9 10  1  0
  9 13  1  0
 10 11  2  0
 11 12  1  0
 13 14  1  0
 13 18  1  0
 14 15  2  0
 15 16  1  0
 15 17  1  0
 17 18  2  0
 17 22  1  0
 18 19  1  0
 19 20  2  0
 20 21  1  0
 21 22  2  0
 21 23  1  0
 23 24  2  0
 23 25  1  0
 25 26  1  0
 26 27  1  0
 26 28  2  0
 26 29  2  0
M  END
>  <DRUGBANK_ID>  (1) 
DB15124

>  <COMMON_NAME>  (1) 
PF-05241328

>  <CAS_NUMBER>  (1) 
1387633-03-5

>  <UNII>  (1) 
8RAL5N48VT

$$$$
