
     RDKit          3D

 21 23  0  0  0  0  0  0  0  0999 V2000
   -2.2416   -0.1704   -0.0352 Cl  0  0  0  0  0  0  0  0  0  0  0  0
    3.4520    5.0569   -0.6716 N   0  0  0  0  0  0  0  0  0  0  0  0
    1.8485    2.6336   -0.1300 N   0  0  0  0  0  0  0  0  0  0  0  0
    5.7859    1.2161    0.1400 N   0  0  0  0  0  0  0  0  0  0  0  0
    5.5478    0.4264   -0.9359 N   0  0  0  0  0  0  0  0  0  0  0  0
    2.3382    5.0053    0.3084 C   0  0  0  0  0  0  0  0  0  0  0  0
    3.1136    4.0860   -1.7242 C   0  0  0  0  0  0  0  0  0  0  0  0
    2.0475    3.6152    0.9562 C   0  0  0  0  0  0  0  0  0  0  0  0
    2.8679    2.6826   -1.1536 C   0  0  0  0  0  0  0  0  0  0  0  0
    4.8388    4.9430   -0.1297 C   0  0  0  0  0  0  0  0  0  0  0  0
    5.4694    3.6690    0.5458 C   0  0  0  0  0  0  0  0  0  0  0  0
    1.4273    1.3302    0.1382 C   0  0  0  0  0  0  0  0  0  0  0  0
    5.7989    2.4697   -0.3625 C   0  0  0  0  0  0  0  0  0  0  0  0
    0.0516    1.1781    0.1198 C   0  0  0  0  0  0  0  0  0  0  0  0
    2.2177    0.1589    0.1568 C   0  0  0  0  0  0  0  0  0  0  0  0
    5.7520    2.4113   -1.7904 C   0  0  0  0  0  0  0  0  0  0  0  0
    5.3454    1.1139   -2.0931 C   0  0  0  0  0  0  0  0  0  0  0  0
   -0.5309   -0.0775    0.0578 C   0  0  0  0  0  0  0  0  0  0  0  0
    1.6358   -1.1171    0.0788 C   0  0  0  0  0  0  0  0  0  0  0  0
    0.2500   -1.2297    0.0220 C   0  0  0  0  0  0  0  0  0  0  0  0
    4.6499    0.5850   -3.3048 C   0  0  0  0  0  0  0  0  0  0  0  0
  1 18  1  0
  2  6  1  0
  2  7  1  0
  2 10  1  0
  3  8  1  0
  3  9  1  0
  3 12  1  0
  4  5  1  0
  4 13  2  0
  5 17  1  0
  6  8  1  0
  7  9  1  0
 10 11  1  0
 11 13  1  0
 12 14  2  0
 12 15  1  0
 13 16  1  0
 14 18  1  0
 15 19  2  0
 16 17  2  0
 17 21  1  0
 18 20  2  0
 19 20  1  0
M  END
>  <DRUGBANK_ID>  (1) 
DB09197

>  <COMMON_NAME>  (1) 
Mepiprazole

>  <CAS_NUMBER>  (1) 
20326-12-9

>  <UNII>  (1) 
977BAL0NR7

>  <SYNONYMS>  (1) 
Mepiprazol; Mepiprazole; Mepiprazolum

$$$$
