279
     RDKit          3D

 28 30  0  0  0  0  0  0  0  0999 V2000
   -0.0803    1.0250   -0.0718 C   0  0  0  0  0  0  0  0  0  0  0  0
   -1.4466    0.9581   -0.0006 C   0  0  0  0  0  0  0  0  0  0  0  0
    0.2273   -1.2604    0.0250 C   0  0  0  0  0  0  0  0  0  0  0  0
   -0.9407   -6.5936   -2.1375 C   0  0  0  0  0  0  0  0  0  0  0  0
    0.8586   -0.0138   -0.0295 C   0  0  0  0  0  0  0  0  0  0  0  0
   -1.8566   -5.8895   -2.9042 C   0  0  0  0  0  0  0  0  0  0  0  0
   -2.0381   -0.2535    0.0288 C   0  0  0  0  0  0  0  0  0  0  0  0
   -2.1046   -4.6543   -2.1889 C   0  0  0  0  0  0  0  0  0  0  0  0
   -1.2089   -1.3903    0.0539 C   0  0  0  0  0  0  0  0  0  0  0  0
   -1.3536   -4.7040   -1.0237 C   0  0  0  0  0  0  0  0  0  0  0  0
    0.3642   -5.3326    0.8938 C   0  0  0  0  0  0  0  0  0  0  0  0
   -1.1637   -3.8171    0.0842 C   0  0  0  0  0  0  0  0  0  0  0  0
    2.4225    0.0404   -0.0350 C   0  0  0  0  0  0  0  0  0  0  0  0
   -2.4930   -6.2446   -4.1895 C   0  0  0  0  0  0  0  0  0  0  0  0
   -3.5258   -0.1811   -0.0193 C   0  0  0  0  0  0  0  0  0  0  0  0
   -3.0112   -3.5755   -2.6785 C   0  0  0  0  0  0  0  0  0  0  0  0
   -1.6868   -8.1334   -7.0596 C   0  0  0  0  0  0  0  0  0  0  0  0
    1.8331    2.8474    0.0961 C   0  0  0  0  0  0  0  0  0  0  0  0
   -2.7465   -7.9012   -5.9993 C   0  0  0  0  0  0  0  0  0  0  0  0
    0.2466   -6.2067   -0.0564 N   0  0  0  0  0  0  0  0  0  0  0  0
   -0.3108   -4.1540    1.0051 N   0  0  0  0  0  0  0  0  0  0  0  0
   -0.6312   -5.8571   -1.0189 N   0  0  0  0  0  0  0  0  0  0  0  0
   -1.8414   -2.6399    0.2244 N   0  0  0  0  0  0  0  0  0  0  0  0
   -2.1561   -7.4688   -4.7422 N   0  0  0  0  0  0  0  0  0  0  0  0
    3.2853    1.1274   -0.0053 N   0  0  0  0  0  0  0  0  0  0  0  0
    3.0080   -1.0543   -0.0654 O   0  0  0  0  0  0  0  0  0  0  0  0
   -3.2826   -5.4986   -4.7338 O   0  0  0  0  0  0  0  0  0  0  0  0
    3.1695    2.5237    0.1065 O   0  0  0  0  0  0  0  0  0  0  0  0
  1  5  2  0
  1  2  1  0
  2  7  2  0
  3  9  2  0
  5  3  1  0
  6 14  1  0
  6  4  2  0
  7  9  1  0
  7 15  1  0
  8  6  1  0
  9 23  1  0
 10  8  2  0
 10 22  1  0
 11 20  2  0
 12 21  2  0
 12 10  1  0
 13 26  2  0
 13  5  1  0
 14 24  1  0
 16  8  1  0
 17 19  1  0
 18 28  1  0
 21 11  1  0
 22 20  1  0
 22  4  1  0
 23 12  1  0
 24 19  1  0
 25 13  1  0
 27 14  2  0
 28 25  1  0
M  END
>  <DRUGBANK_ID>  (1) 
DB06940

>  <COMMON_NAME>  (1) 
N-ethyl-4-{[5-(methoxycarbamoyl)-2-methylphenyl]amino}-5-methylpyrrolo[2,1-f][1,2,4]triazine-6-carboxamide

$$$$
