
     RDKit          3D

 28 32  0  0  1  0  0  0  0  0999 V2000
    2.3516    0.6080    1.6943 C   0  0  0  0  0  0  0  0  0  0  0  0
   -5.2935    5.3958   -0.5700 C   0  0  0  0  0  0  0  0  0  0  0  0
   -5.0308    4.2999   -1.3893 C   0  0  0  0  0  0  0  0  0  0  0  0
   -6.1854    5.2686    0.4946 C   0  0  0  0  0  0  0  0  0  0  0  0
   -5.7136    3.0916   -1.1858 C   0  0  0  0  0  0  0  0  0  0  0  0
   -6.7363    4.0201    0.8033 C   0  0  0  0  0  0  0  0  0  0  0  0
   -2.0259   -2.1916    0.1288 C   0  0  0  0  0  0  0  0  0  0  0  0
   -4.0052    1.5277    0.3844 C   0  0  0  0  0  0  0  0  0  0  0  0
   -0.5879   -2.1282   -0.3931 C   0  0  0  0  0  0  0  0  0  0  0  0
   -2.7357    1.5185   -0.1172 C   0  0  0  0  0  0  0  0  0  0  0  0
    2.5482   -1.8963    0.0200 C   0  0  0  0  0  0  0  0  0  0  0  0
    3.9410   -1.2438   -0.1235 C   0  0  0  0  0  0  0  0  0  0  0  0
    0.1041    1.6985   -0.0886 C   0  0  0  0  0  0  0  0  0  0  0  0
    1.5937    1.7264   -0.4167 C   0  0  0  0  0  0  0  0  0  0  0  0
   -4.1492   -0.8464    0.2840 C   0  0  0  0  0  0  0  0  0  0  0  0
   -6.5187    2.9232   -0.0442 C   0  0  0  0  0  0  0  0  0  0  0  0
   -2.7593   -0.8794    0.0383 C   0  0  0  0  0  0  0  0  0  0  0  0
   -4.7738    0.3878    0.3997 C   0  0  0  0  0  0  0  0  0  0  0  0
   -2.0574    0.3226   -0.2046 C   0  0  0  0  0  0  0  0  0  0  0  0
   -0.5853    0.3714   -0.5220 C   0  0  2  0  0  0  0  0  0  0  0  0
    0.1261   -0.8583    0.0867 C   0  0  2  0  0  0  0  0  0  0  0  0
    1.5829   -0.7811   -0.3593 C   0  0  1  0  0  0  0  0  0  0  0  0
    3.6872    0.2412   -0.4441 C   0  0  1  0  0  0  0  0  0  0  0  0
   -7.0558    1.5940    0.3927 C   0  0  0  0  0  0  0  0  0  0  0  0
    2.2937    0.4939    0.1493 C   0  0  2  0  0  0  0  0  0  0  0  0
    4.6941    1.1033    0.0440 O   0  0  0  0  0  0  0  0  0  0  0  0
   -8.2302    1.5098    0.7109 O   0  0  0  0  0  0  0  0  0  0  0  0
   -6.1842    0.4816    0.5223 O   0  0  0  0  0  0  0  0  0  0  0  0
  3  2  2  0
  4  2  1  0
  5  3  1  0
  6  4  2  0
  9  7  1  0
 10  8  1  0
 12 11  1  0
 14 13  1  0
 16  5  2  0
 16  6  1  0
 17  7  1  0
 17 15  2  0
 18  8  2  0
 18 15  1  0
 19 10  2  0
 19 17  1  0
 20 13  1  1
 20 19  1  0
 21  9  1  6
 21 20  1  0
 22 11  1  1
 22 21  1  0
 23 12  1  0
 23 26  1  1
 24 16  1  0
 25  1  1  1
 25 14  1  0
 25 22  1  0
 25 23  1  0
 27 24  2  0
 28 18  1  0
 28 24  1  0
M  END
>  <DRUGBANK_ID>  (1) 
DB13953

>  <SECONDARY_ACCESSION_NUMBERS>  (1) 
DBSALT000066

>  <COMMON_NAME>  (1) 
Estradiol benzoate

>  <CAS_NUMBER>  (1) 
50-50-0

>  <UNII>  (1) 
1S4CJB5ZGN

>  <SYNONYMS>  (1) 
benzoato de estradiol; Estradiol benzoate

$$$$
