
     RDKit          3D

 30 31  0  0  0  0  0  0  0  0999 V2000
    0.2811    1.1752   -0.0197 O   0  0  0  0  0  0  0  0  0  0  0  0
    0.2488   -1.2519   -0.1225 O   0  0  0  0  0  0  0  0  0  0  0  0
    2.4881   -0.1189    7.1572 O   0  0  0  0  0  0  0  0  0  0  0  0
    2.4029   -2.4627    7.0967 O   0  0  0  0  0  0  0  0  0  0  0  0
   -1.9449    0.0348    1.8023 O   0  0  0  0  0  0  0  0  0  0  0  0
   -0.6484   -1.1809    8.7765 O   0  0  0  0  0  0  0  0  0  0  0  0
    0.4196   -1.0594   -2.7091 O   0  0  0  0  0  0  0  0  0  0  0  0
    0.8466   -2.2388    4.8528 O   0  0  0  0  0  0  0  0  0  0  0  0
    1.2776    1.0260   -2.7411 O   0  0  0  0  0  0  0  0  0  0  0  0
    1.5508   -0.1418    4.4566 O   0  0  0  0  0  0  0  0  0  0  0  0
    0.3258   -0.0468    2.1499 O   0  0  0  0  0  0  0  0  0  0  0  0
   -2.8383   -1.2197    8.2915 O   0  0  0  0  0  0  0  0  0  0  0  0
   -1.0363    0.0779    3.8772 N   0  0  0  0  0  0  0  0  0  0  0  0
   -1.3764   -1.2155    6.5470 N   0  0  0  0  0  0  0  0  0  0  0  0
   -1.8288    0.0223    0.3618 C   0  0  0  0  0  0  0  0  0  0  0  0
    0.7634   -1.1876    8.4687 C   0  0  0  0  0  0  0  0  0  0  0  0
    0.8721   -0.0191   -0.5428 C   0  0  0  0  0  0  0  0  0  0  0  0
    2.5801   -1.2805    6.3245 C   0  0  0  0  0  0  0  0  0  0  0  0
   -1.1213    1.2448   -0.2126 C   0  0  0  0  0  0  0  0  0  0  0  0
   -1.1797   -1.2489   -0.1603 C   0  0  0  0  0  0  0  0  0  0  0  0
    1.1851    0.0558    7.6947 C   0  0  0  0  0  0  0  0  0  0  0  0
    1.1641   -2.5012    7.8016 C   0  0  0  0  0  0  0  0  0  0  0  0
    2.3292   -0.0294   -0.0396 C   0  0  0  0  0  0  0  0  0  0  0  0
    3.9880   -1.2612    5.7363 C   0  0  0  0  0  0  0  0  0  0  0  0
    0.9124    0.0533   -2.0960 C   0  0  0  0  0  0  0  0  0  0  0  0
    1.6677   -1.1842    5.0839 C   0  0  0  0  0  0  0  0  0  0  0  0
   -0.8253    0.0183    2.5508 C   0  0  0  0  0  0  0  0  0  0  0  0
   -1.6841   -1.2031    7.8843 C   0  0  0  0  0  0  0  0  0  0  0  0
   -2.2766    0.0255    4.6011 C   0  0  0  0  0  0  0  0  0  0  0  0
   -2.3735   -1.2216    5.4876 C   0  0  0  0  0  0  0  0  0  0  0  0
  1 17  1  0
  1 19  1  0
  2 17  1  0
  2 20  1  0
  3 18  1  0
  3 21  1  0
  4 18  1  0
  4 22  1  0
  5 15  1  0
  5 27  1  0
  6 16  1  0
  6 28  1  0
  7 25  1  0
  8 26  1  0
  9 25  2  0
 10 26  2  0
 11 27  2  0
 12 28  2  0
 13 27  1  0
 13 29  1  0
 14 28  1  0
 14 30  1  0
 15 19  1  0
 15 20  1  0
 16 21  1  0
 16 22  1  0
 17 23  1  0
 17 25  1  0
 18 24  1  0
 18 26  1  0
 29 30  1  0
M  END
>  <DRUGBANK_ID>  (1) 
DB07579

>  <COMMON_NAME>  (1) 
Bis-1,2-{[(Z)-2-carboxy-2-methyl-1,3-dioxane]-5-yloxycarbamoyl}-ethane

$$$$
