
     RDKit          3D

 12 11  0  0  0  0  0  0  0  0999 V2000
    0.9489   -0.0670    0.0907 C   0  0  0  0  0  0  0  0  0  0  0  0
    0.5015    1.2655   -0.4879 C   0  0  0  0  0  0  0  0  0  0  0  0
   -1.2055    1.8737   -4.8415 C   0  0  0  0  0  0  0  0  0  0  0  0
   -3.2227    0.6985   -5.8206 C   0  0  0  0  0  0  0  0  0  0  0  0
   -1.7115    0.7438   -5.7404 C   0  0  0  0  0  0  0  0  0  0  0  0
    1.0009    1.4178   -1.9261 C   0  0  0  0  0  0  0  0  0  0  0  0
    0.4444    0.3147   -2.8337 C   0  0  0  0  0  0  0  0  0  0  0  0
   -1.6060    1.6748   -3.3770 C   0  0  0  0  0  0  0  0  0  0  0  0
   -1.0878    0.3343   -2.8416 C   0  0  0  0  0  0  0  0  0  0  0  0
   -3.8515    0.9069   -6.8547 O   0  0  0  0  0  0  0  0  0  0  0  0
   -3.7896    0.3976   -4.6228 O   0  0  0  0  0  0  0  0  0  0  0  0
   -5.2134    0.5117   -4.5558 C   0  0  0  0  0  0  0  0  0  0  0  0
  2  1  1  0
  4 11  1  0
  5  3  1  0
  5  4  1  0
  6  2  1  0
  7  6  1  0
  8  3  1  0
  9  7  1  0
  9  8  1  0
 10  4  2  0
 11 12  1  0
M  END
>  <DRUGBANK_ID>  (1) 
DB01631

>  <SECONDARY_ACCESSION_NUMBERS>  (1) 
EXPT02376

>  <COMMON_NAME>  (1) 
Methyl nonanoate

>  <CAS_NUMBER>  (1) 
1731-84-6

>  <UNII>  (1) 
7XKD6QOH68

>  <SYNONYMS>  (1) 
Methyl ester nonanoic acid; Methyl n-nonanoate; Methyl nonylate; Methyl pelargonate; Pelargonic acid methyl ester

$$$$
