
     RDKit          3D

  7  6  0  0  0  0  0  0  0  0999 V2000
    1.5058    0.5953    0.9213 O   0  0  0  0  0  0  0  0  0  0  0  0
    0.1138    1.3710    0.7159 P   0  0  0  0  0  0  0  0  0  0  0  0
    0.3907    1.9606   -0.7470 O   0  0  0  0  0  0  0  0  0  0  0  0
   -1.1141    0.5226    0.7752 O   0  0  0  0  0  0  0  0  0  0  0  0
    0.0533    2.7616    1.8122 C   0  0  0  0  0  0  0  0  0  0  0  0
    0.7978    3.9904    1.4488 C   0  0  0  0  0  0  0  0  0  0  0  0
    0.2357    4.9810    0.9314 O   0  0  0  0  0  0  0  0  0  0  0  0
  1  2  1  0
  2  3  1  0
  2  4  2  0
  2  5  1  0
  5  6  1  0
  6  7  2  0
M  END
>  <DRUGBANK_ID>  (1) 
DB03174

>  <SECONDARY_ACCESSION_NUMBERS>  (1) 
EXPT02628

>  <COMMON_NAME>  (1) 
Phosphonoacetaldehyde

>  <UNII>  (1) 
VPZ8FR5BMZ

$$$$
