
     RDKit          3D

 12 13  0  0  0  0  0  0  0  0999 V2000
    0.8989   -0.1026   -0.1370 C   0  0  0  0  0  0  0  0  0  0  0  0
    0.4303    0.2171   -1.5067 C   0  0  0  0  0  0  0  0  0  0  0  0
    0.3564    1.4176   -2.0444 N   0  0  0  0  0  0  0  0  0  0  0  0
   -0.1080    1.1598   -3.3028 C   0  0  0  0  0  0  0  0  0  0  0  0
   -0.3134   -0.1855   -3.5157 C   0  0  0  0  0  0  0  0  0  0  0  0
    0.0397   -0.8129   -2.3374 O   0  0  0  0  0  0  0  0  0  0  0  0
   -0.7671   -0.7796   -4.6548 N   0  0  0  0  0  0  0  0  0  0  0  0
   -1.0169    0.0587   -5.6257 C   0  0  0  0  0  0  0  0  0  0  0  0
   -1.4743   -0.3648   -6.8292 N   0  0  0  0  0  0  0  0  0  0  0  0
   -0.8408    1.4232   -5.5152 N   0  0  0  0  0  0  0  0  0  0  0  0
   -0.3893    2.0664   -4.3791 C   0  0  0  0  0  0  0  0  0  0  0  0
   -0.2551    3.2869   -4.3335 O   0  0  0  0  0  0  0  0  0  0  0  0
  1  2  1  0
  2  3  2  0
  2  6  1  0
  3  4  1  0
  4  5  2  0
  4 11  1  0
  5  6  1  0
  5  7  1  0
  7  8  2  0
  8  9  1  0
  8 10  1  0
 10 11  1  0
 11 12  2  0
M  END
>  <DRUGBANK_ID>  (1) 
DB02993

>  <SECONDARY_ACCESSION_NUMBERS>  (1) 
EXPT02210

>  <COMMON_NAME>  (1) 
8-Methyl-9-Oxoguanine

$$$$
