
     RDKit          3D

 14 14  0  0  0  0  0  0  0  0999 V2000
   -1.9179   -0.6626   -0.0234 C   0  0  0  0  0  0  0  0  0  0  0  0
   -0.7156   -1.3844   -0.0174 C   0  0  0  0  0  0  0  0  0  0  0  0
   -3.1909    1.5431    0.0249 C   0  0  0  0  0  0  0  0  0  0  0  0
   -0.6783    1.4137   -0.0086 C   0  0  0  0  0  0  0  0  0  0  0  0
   -1.9085    0.7421   -0.0108 C   0  0  0  0  0  0  0  0  0  0  0  0
   -3.2864    2.3811    1.2806 C   0  0  0  0  0  0  0  0  0  0  0  0
    0.4956   -0.6970   -0.0094 C   0  0  0  0  0  0  0  0  0  0  0  0
    0.5071    0.6947   -0.0092 C   0  0  0  0  0  0  0  0  0  0  0  0
   -3.3604    3.9093    1.1539 C   0  0  0  0  0  0  0  0  0  0  0  0
   -3.3027    1.8202    2.4562 N   0  0  0  0  0  0  0  0  0  0  0  0
    1.6997   -1.3461   -0.0031 O   0  0  0  0  0  0  0  0  0  0  0  0
    1.6806    1.3938   -0.0105 O   0  0  0  0  0  0  0  0  0  0  0  0
   -3.4122    4.6408    2.1275 O   0  0  0  0  0  0  0  0  0  0  0  0
   -3.3838    4.3690   -0.0958 O   0  0  0  0  0  0  0  0  0  0  0  0
  2  1  2  0
  5  1  1  0
  5  3  1  0
  5  4  2  0
  6  3  1  0
  7  2  1  0
  8  4  1  0
  8  7  2  0
  9  6  1  0
 10  6  2  0
 11  7  1  0
 12  8  1  0
 13  9  2  0
 14  9  1  0
M  END
>  <DRUGBANK_ID>  (1) 
DB07979

>  <COMMON_NAME>  (1) 
(2E)-3-(3,4-DIHYDROXYPHENYL)-2-IMINOPROPANOIC ACID

$$$$
