4HD
     RDKit          3D

 25 24  0  0  0  0  0  0  0  0999 V2000
    0.9949   -0.2971   -0.0211 O   0  0  0  0  0  0  0  0  0  0  0  0
    1.0893   -1.5059    1.8513 O   0  0  0  0  0  0  0  0  0  0  0  0
    0.4112   -0.9346    1.0088 C   0  0  0  0  0  0  0  0  0  0  0  0
   -1.0934   -0.8686    0.9891 C   0  0  0  0  0  0  0  0  0  0  0  0
   -1.6238    0.5548    1.1582 C   0  0  0  0  0  0  0  0  0  0  0  0
   -1.1934    1.4987    0.0350 C   0  0  1  0  0  0  0  0  0  0  0  0
   -1.6495    0.9671   -1.2967 C   0  0  0  0  0  0  0  0  0  0  0  0
   -2.4273    1.6534   -2.1239 C   0  0  0  0  0  0  0  0  0  0  0  0
   -2.9191    1.1858   -3.3857 C   0  0  0  0  0  0  0  0  0  0  0  0
   -3.6718    1.9735   -4.1597 C   0  0  0  0  0  0  0  0  0  0  0  0
   -4.0735    3.3566   -3.7757 C   0  0  0  0  0  0  0  0  0  0  0  0
   -3.6220    4.3594   -4.7776 C   0  0  0  0  0  0  0  0  0  0  0  0
   -4.4707    5.2036   -5.3660 C   0  0  0  0  0  0  0  0  0  0  0  0
   -5.9318    5.1574   -5.1014 C   0  0  0  0  0  0  0  0  0  0  0  0
   -6.4433    6.4659   -4.6164 C   0  0  0  0  0  0  0  0  0  0  0  0
   -7.4359    7.1045   -5.2371 C   0  0  0  0  0  0  0  0  0  0  0  0
   -8.0491    6.5746   -6.4830 C   0  0  0  0  0  0  0  0  0  0  0  0
   -9.5175    6.4002   -6.3403 C   0  0  0  0  0  0  0  0  0  0  0  0
  -10.3803    6.9883   -7.1713 C   0  0  0  0  0  0  0  0  0  0  0  0
   -9.9373    7.9034   -8.2604 C   0  0  0  0  0  0  0  0  0  0  0  0
  -10.4438    7.4619   -9.5866 C   0  0  0  0  0  0  0  0  0  0  0  0
  -11.1931    8.2403  -10.3752 C   0  0  0  0  0  0  0  0  0  0  0  0
  -11.6293    9.6278  -10.0059 C   0  0  0  0  0  0  0  0  0  0  0  0
  -11.0518   10.6495  -10.9591 C   0  0  0  0  0  0  0  0  0  0  0  0
   -1.7025    2.8038    0.3124 O   0  0  0  0  0  0  0  0  0  0  0  0
  1  3  1  0
  2  3  2  0
  3  4  1  0
  4  5  1  0
  5  6  1  0
  6  7  1  0
  6 25  1  1
  7  8  2  0
  8  9  1  0
  9 10  2  0
 10 11  1  0
 11 12  1  0
 12 13  2  0
 13 14  1  0
 14 15  1  0
 15 16  2  0
 16 17  1  0
 17 18  1  0
 18 19  2  0
 19 20  1  0
 20 21  1  0
 21 22  2  0
 22 23  1  0
 23 24  1  0
M  END
>  <DRUGBANK_ID>  (1) 
DB07111

>  <COMMON_NAME>  (1) 
(4S,5E,7Z,10Z,13Z,16Z,19Z)-4-hydroxydocosa-5,7,10,13,16,19-hexaenoic acid

$$$$
