
     RDKit          3D

 14 15  0  0  0  0  0  0  0  0999 V2000
    0.8265   -0.0980    0.1213 C   0  0  0  0  0  0  0  0  0  0  0  0
    0.4383    1.0731    1.0084 C   0  0  0  0  0  0  0  0  0  0  0  0
    0.9556    2.4547    0.5258 C   0  0  0  0  0  0  0  0  0  0  0  0
    0.1898    3.3962    0.2936 O   0  0  0  0  0  0  0  0  0  0  0  0
    2.4264    2.7128    0.4471 C   0  0  0  0  0  0  0  0  0  0  0  0
    3.3006    1.8131   -0.1966 C   0  0  0  0  0  0  0  0  0  0  0  0
    4.6753    2.0390   -0.2549 C   0  0  0  0  0  0  0  0  0  0  0  0
    5.1428    3.2123    0.2764 C   0  0  0  0  0  0  0  0  0  0  0  0
    4.3011    4.1278    0.8660 C   0  0  0  0  0  0  0  0  0  0  0  0
    2.9383    3.9106    0.9712 C   0  0  0  0  0  0  0  0  0  0  0  0
    4.9776    5.2272    1.2978 O   0  0  0  0  0  0  0  0  0  0  0  0
    6.3379    4.8591    0.9751 C   0  0  0  0  0  0  0  0  0  0  0  0
    6.4379    3.6166    0.2544 O   0  0  0  0  0  0  0  0  0  0  0  0
   -1.0434    1.0834    1.0508 N   0  0  0  0  0  0  0  0  0  0  0  0
  1  2  1  0
  2  3  1  0
  2 14  1  0
  3  4  2  0
  3  5  1  0
  5  6  2  0
  5 10  1  0
  6  7  1  0
  7  8  2  0
  8  9  1  0
  8 13  1  0
  9 10  2  0
  9 11  1  0
 11 12  1  0
 12 13  1  0
M  END
>  <DRUGBANK_ID>  (1) 
DB12809

>  <COMMON_NAME>  (1) 
BK-MDA

>  <CAS_NUMBER>  (1) 
80535-73-5

>  <UNII>  (1) 
K0XHQ9FYT3

>  <SYNONYMS>  (1) 
MDC

$$$$
