
     RDKit          3D

 17 17  0  0  0  0  0  0  0  0999 V2000
    0.9241    0.0260   -0.1277 C   0  0  1  0  0  0  0  0  0  0  0  0
    0.2054   -1.1829   -0.7601 C   0  0  0  0  0  0  0  0  0  0  0  0
    0.4863    1.2243   -0.8865 N   0  0  0  0  0  0  0  0  0  0  0  0
    0.0573    2.4736   -0.5208 C   0  0  0  0  0  0  0  0  0  0  0  0
    0.5711    0.0912    1.3524 C   0  0  0  0  0  0  0  0  0  0  0  0
    0.8408   -1.7955   -1.7803 O   0  0  0  0  0  0  0  0  0  0  0  0
   -0.2264    3.2516   -1.4381 O   0  0  0  0  0  0  0  0  0  0  0  0
    1.0247   -0.9279    2.3325 C   0  0  0  0  0  0  0  0  0  0  0  0
   -0.9256   -1.5568   -0.4378 O   0  0  0  0  0  0  0  0  0  0  0  0
    1.6252   -2.8075    4.2478 C   0  0  0  0  0  0  0  0  0  0  0  0
   -1.0729    2.2108    1.6623 N   0  0  0  0  0  0  0  0  0  0  0  0
    1.6970   -0.5333    3.4999 C   0  0  0  0  0  0  0  0  0  0  0  0
    0.6080   -2.2436    2.1746 C   0  0  0  0  0  0  0  0  0  0  0  0
    0.9192   -3.1918    3.1189 C   0  0  0  0  0  0  0  0  0  0  0  0
    2.0031   -1.4863    4.4599 C   0  0  0  0  0  0  0  0  0  0  0  0
    1.9525   -3.7368    5.1845 O   0  0  0  0  0  0  0  0  0  0  0  0
   -0.0500    2.9497    0.9435 C   0  0  0  0  0  0  0  0  0  0  0  0
  1  3  1  0
  1  2  1  0
  4  3  1  0
  1  5  1  1
  6  2  1  0
  7  4  2  0
  8  5  1  0
  9  2  2  0
 10 14  1  0
 11 17  1  0
 12  8  2  0
 13  8  1  0
 14 13  2  0
 15 12  1  0
 15 10  2  0
 16 10  1  0
 17  4  1  0
M  END
>  <DRUGBANK_ID>  (1) 
DB15991

>  <COMMON_NAME>  (1) 
Glycyltyrosine

>  <CAS_NUMBER>  (1) 
658-79-7

>  <UNII>  (1) 
A226496H4O

$$$$
