2UN
     RDKit          3D

 28 29  0  0  0  0  0  0  0  0999 V2000
    0.9870   -0.0073   -0.1450 O   0  0  0  0  0  0  0  0  0  0  0  0
    2.4303    0.0261    0.0382 S   0  0  0  0  0  0  0  0  0  0  0  0
    3.0859   -0.8453    0.9653 O   0  0  0  0  0  0  0  0  0  0  0  0
    3.0461   -0.3089   -1.4061 O   0  0  0  0  0  0  0  0  0  0  0  0
    2.9618    1.5737    0.3183 N   0  0  0  0  0  0  0  0  0  0  0  0
    2.0673    2.6174    0.6532 C   0  0  0  0  0  0  0  0  0  0  0  0
    0.9938    2.4392    1.5256 C   0  0  0  0  0  0  0  0  0  0  0  0
    2.2855    3.8663    0.0959 C   0  0  0  0  0  0  0  0  0  0  0  0
    1.3806    4.8968    0.3450 C   0  0  0  0  0  0  0  0  0  0  0  0
    0.3168    4.7621    1.2360 C   0  0  0  0  0  0  0  0  0  0  0  0
    0.1149    3.4972    1.8009 C   0  0  0  0  0  0  0  0  0  0  0  0
   -0.5291    5.9948    1.5802 C   0  0  0  0  0  0  0  0  0  0  0  0
    0.1951    7.0789    2.4781 C   0  0  0  0  0  0  0  0  0  0  0  0
    1.3835    7.7520    1.7309 C   0  0  0  0  0  0  0  0  0  0  0  0
    1.3229    8.8482    1.1829 O   0  0  0  0  0  0  0  0  0  0  0  0
    2.5159    6.9945    1.6728 O   0  0  0  0  0  0  0  0  0  0  0  0
    3.4565    7.3749    0.6406 C   0  0  0  0  0  0  0  0  0  0  0  0
   -0.7259    8.2540    2.8266 C   0  0  0  0  0  0  0  0  0  0  0  0
   -0.6117    8.9135    4.0221 O   0  0  0  0  0  0  0  0  0  0  0  0
    0.0128    8.6293    5.3254 C   0  0  0  0  0  0  0  0  0  0  0  0
   -1.5274    8.6805    1.9916 O   0  0  0  0  0  0  0  0  0  0  0  0
    0.5641    6.3208    3.7376 C   0  0  0  0  0  0  0  0  0  0  0  0
   -0.6438    5.7434    4.5387 C   0  0  0  0  0  0  0  0  0  0  0  0
   -0.5725    4.4116    4.9117 C   0  0  0  0  0  0  0  0  0  0  0  0
   -1.5051    3.8749    5.7962 C   0  0  0  0  0  0  0  0  0  0  0  0
   -2.3856    4.7023    6.4876 C   0  0  0  0  0  0  0  0  0  0  0  0
   -2.4432    6.0373    6.1708 C   0  0  0  0  0  0  0  0  0  0  0  0
   -1.7551    6.4693    5.0471 C   0  0  0  0  0  0  0  0  0  0  0  0
  1  2  2  0
  2  3  2  0
  2  4  1  0
  2  5  1  0
  5  6  1  0
  6  7  2  0
  6  8  1  0
  7 11  1  0
  8  9  2  0
  9 10  1  0
 10 11  2  0
 10 12  1  0
 12 13  1  0
 13 14  1  0
 13 18  1  0
 13 22  1  0
 14 15  2  0
 14 16  1  0
 16 17  1  0
 18 19  1  0
 18 21  2  0
 19 20  1  0
 22 23  1  0
 23 24  2  0
 23 28  1  0
 24 25  1  0
 25 26  2  0
 26 27  1  0
 27 28  2  0
M  END
>  <DRUGBANK_ID>  (1) 
DB06989

>  <COMMON_NAME>  (1) 
{4-[2-BENZYL-3-METHOXY-2-(METHOXYCARBONYL)-3-OXOPROPYL]PHENYL}SULFAMIC ACID

$$$$
