
     RDKit          3D

 33 36  0  0  0  0  0  0  0  0999 V2000
    2.3393   -0.1885   -0.1066 F   0  0  0  0  0  0  0  0  0  0  0  0
    1.0117   -0.2364   -0.2539 C   0  0  0  0  0  0  0  0  0  0  0  0
    0.3311    0.9245   -0.5221 C   0  0  0  0  0  0  0  0  0  0  0  0
   -1.0509    0.8652   -0.4853 C   0  0  0  0  0  0  0  0  0  0  0  0
   -1.7739   -0.2974   -0.1480 C   0  0  0  0  0  0  0  0  0  0  0  0
   -1.0672   -1.4745   -0.0171 C   0  0  0  0  0  0  0  0  0  0  0  0
    0.3265   -1.4374   -0.0576 C   0  0  0  0  0  0  0  0  0  0  0  0
   -3.2802   -0.2615   -0.0095 C   0  0  0  0  0  0  0  0  0  0  0  0
   -3.9296   -0.7234   -1.2031 O   0  0  0  0  0  0  0  0  0  0  0  0
   -3.5340   -0.0380   -2.4004 C   0  0  0  0  0  0  0  0  0  0  0  0
   -4.0855    1.3876   -2.5157 C   0  0  0  0  0  0  0  0  0  0  0  0
   -3.6709    2.2102   -1.3851 N   0  0  0  0  0  0  0  0  0  0  0  0
   -4.8007    2.5007   -0.4777 C   0  0  0  0  0  0  0  0  0  0  0  0
   -5.6077    3.7100   -0.9144 C   0  0  0  0  0  0  0  0  0  0  0  0
   -4.7701    4.8841   -1.2110 N   0  0  0  0  0  0  0  0  0  0  0  0
   -4.2002    5.5442   -0.0136 C   0  0  0  0  0  0  0  0  0  0  0  0
   -3.2566    4.8152    0.9199 C   0  0  0  0  0  0  0  0  0  0  0  0
   -1.9168    5.0295    1.0663 C   0  0  0  0  0  0  0  0  0  0  0  0
   -1.0326    4.1300    1.8364 C   0  0  0  0  0  0  0  0  0  0  0  0
   -1.1826    2.7427    1.8518 C   0  0  0  0  0  0  0  0  0  0  0  0
   -0.1696    1.8870    2.3166 C   0  0  0  0  0  0  0  0  0  0  0  0
    1.0212    2.4123    2.7846 C   0  0  0  0  0  0  0  0  0  0  0  0
    1.1291    3.7910    2.9094 C   0  0  0  0  0  0  0  0  0  0  0  0
    0.1070    4.6405    2.4559 C   0  0  0  0  0  0  0  0  0  0  0  0
   -3.7616    4.5292   -2.2290 C   0  0  0  0  0  0  0  0  0  0  0  0
   -2.8788    3.3745   -1.7917 C   0  0  0  0  0  0  0  0  0  0  0  0
   -3.8953   -0.8561    1.2554 C   0  0  0  0  0  0  0  0  0  0  0  0
   -3.5715   -0.3022    2.5136 C   0  0  0  0  0  0  0  0  0  0  0  0
   -4.1662   -0.7731    3.6812 C   0  0  0  0  0  0  0  0  0  0  0  0
   -5.1086   -1.7860    3.5946 C   0  0  0  0  0  0  0  0  0  0  0  0
   -5.6689   -2.2592    4.7146 F   0  0  0  0  0  0  0  0  0  0  0  0
   -5.4872   -2.3108    2.3636 C   0  0  0  0  0  0  0  0  0  0  0  0
   -4.8896   -1.8401    1.1943 C   0  0  0  0  0  0  0  0  0  0  0  0
  1  2  1  0
  2  3  2  0
  2  7  1  0
  3  4  1  0
  4  5  2  0
  5  6  1  0
  5  8  1  0
  6  7  2  0
  8  9  1  0
  8 27  1  0
  9 10  1  0
 10 11  1  0
 11 12  1  0
 12 13  1  0
 12 26  1  0
 13 14  1  0
 14 15  1  0
 15 16  1  0
 15 25  1  0
 16 17  1  0
 17 18  2  0
 18 19  1  0
 19 20  2  0
 19 24  1  0
 20 21  1  0
 21 22  2  0
 22 23  1  0
 23 24  2  0
 25 26  1  0
 27 28  2  0
 27 33  1  0
 28 29  1  0
 29 30  2  0
 30 31  1  0
 30 32  1  0
 32 33  2  0
M  END
>  <DRUGBANK_ID>  (1) 
DB17028

>  <COMMON_NAME>  (1) 
GBR-12879

>  <CAS_NUMBER>  (1) 
67469-43-6

>  <UNII>  (1) 
VNS6D6QMEP

>  <SYNONYMS>  (1) 
1-(2-(bis(4-fluorophenyl)methoxy)ethyl)-4-(3-phenyl-2-propenyl)piperazine; Piperazine, 1-(2-(bis(4-fluorophenyl)methoxy)ethyl)-4-(3-phenyl-2-propen-1-yl)-; Piperazine, 1-(2-(bis(4-fluorophenyl)methoxy)ethyl)-4-(3-phenyl-2-propenyl)-

$$$$
