
     RDKit          3D

 26 28  0  0  1  0  0  0  0  0999 V2000
    1.1474   -0.0193    0.8232 C   0  0  0  0  0  0  0  0  0  0  0  0
   -0.7458    9.0769    1.4860 C   0  0  0  0  0  0  0  0  0  0  0  0
    0.3676    8.2757    1.2495 C   0  0  0  0  0  0  0  0  0  0  0  0
   -1.8065    9.1469    0.5686 C   0  0  0  0  0  0  0  0  0  0  0  0
    0.0291    5.7286   -2.5316 C   0  0  0  0  0  0  0  0  0  0  0  0
   -2.0715    7.2760   -2.5317 C   0  0  0  0  0  0  0  0  0  0  0  0
   -0.2390    0.8410   -1.6266 C   0  0  0  0  0  0  0  0  0  0  0  0
    0.4495    0.9170    1.7370 C   0  0  1  0  0  0  0  0  0  0  0  0
   -0.8870    6.7851   -2.0048 C   0  0  0  0  0  0  0  0  0  0  0  0
    0.4370    7.5168    0.0926 C   0  0  0  0  0  0  0  0  0  0  0  0
   -1.7216    8.3527   -0.5818 C   0  0  0  0  0  0  0  0  0  0  0  0
    0.0706    4.4322   -1.7242 C   0  0  0  0  0  0  0  0  0  0  0  0
    0.9802   -0.0555   -1.9220 C   0  0  0  0  0  0  0  0  0  0  0  0
   -0.6304    7.5194   -0.8179 C   0  0  0  0  0  0  0  0  0  0  0  0
    0.9065    2.3556    1.3571 C   0  0  1  0  0  0  0  0  0  0  0  0
    0.4214    2.9459   -0.0825 C   0  0  0  0  0  0  0  0  0  0  0  0
   -0.2900    3.2077   -2.2243 C   0  0  0  0  0  0  0  0  0  0  0  0
    1.5414    6.7967   -0.1489 F   0  0  0  0  0  0  0  0  0  0  0  0
    0.4912    3.1232    2.5390 N   0  0  0  0  0  0  0  0  0  0  0  0
   -2.5804    8.1983   -1.6468 N   0  0  0  0  0  0  0  0  0  0  0  0
    0.5021    4.2534   -0.3995 N   0  0  0  0  0  0  0  0  0  0  0  0
    0.0106    2.2580   -1.2644 N   0  0  0  0  0  0  0  0  0  0  0  0
   -0.9721    0.7563    1.6413 O   0  0  0  0  0  0  0  0  0  0  0  0
    1.0309   -1.2508   -1.7375 O   0  0  0  0  0  0  0  0  0  0  0  0
    2.1302    0.6083   -2.1911 O   0  0  0  0  0  0  0  0  0  0  0  0
   -0.7997    2.8437   -3.3967 O   0  0  0  0  0  0  0  0  0  0  0  0
  3  2  2  0
  4  2  1  0
  8  1  1  6
  8 23  1  0
  9  5  1  0
  9  6  2  0
 10  3  1  0
 11  4  2  0
 12  5  1  0
 13  7  1  0
 14  9  1  0
 14 10  2  0
 14 11  1  0
 15  8  1  0
 15 19  1  1
 16 15  1  0
 17 12  2  0
 18 10  1  0
 20  6  1  0
 20 11  1  0
 21 12  1  0
 21 16  2  0
 22  7  1  0
 22 16  1  0
 22 17  1  0
 24 13  2  0
 25 13  1  0
 26 17  1  0
M  END
>  <DRUGBANK_ID>  (1) 
DB01674

>  <SECONDARY_ACCESSION_NUMBERS>  (1) 
EXPT00211

>  <COMMON_NAME>  (1) 
[2-(1-Amino-2-Hydroxy-Propyl)-4-(4-Fluoro-1h-Indol-3-Ylmethyl)-5-Hydroxy-Imidazol-1-Yl]-Acetic Acid

$$$$
