
     RDKit          3D

 23 26  0  0  0  0  0  0  0  0999 V2000
    2.2850    0.4977    0.1502 C   0  0  2  0  0  0  0  0  0  0  0  0
    1.5673   -0.7740   -0.3564 C   0  0  2  0  0  0  0  0  0  0  0  0
    0.1058   -0.8396    0.0965 C   0  0  1  0  0  0  0  0  0  0  0  0
   -0.6160    0.3992   -0.4945 C   0  0  1  0  0  0  0  0  0  0  0  0
   -2.1009    0.3734   -0.1922 C   0  0  0  0  0  0  0  0  0  0  0  0
   -2.7991   -0.8239    0.0681 C   0  0  0  0  0  0  0  0  0  0  0  0
    1.5818    1.7309   -0.4135 C   0  0  0  0  0  0  0  0  0  0  0  0
    0.0894    1.7163   -0.0754 C   0  0  0  0  0  0  0  0  0  0  0  0
   -0.6189   -2.1006   -0.3831 C   0  0  0  0  0  0  0  0  0  0  0  0
    2.5366   -1.8919    0.0195 C   0  0  0  0  0  0  0  0  0  0  0  0
   -2.8204    1.5627   -0.2606 C   0  0  0  0  0  0  0  0  0  0  0  0
    3.6798    0.2426   -0.4446 C   0  0  2  0  0  0  0  0  0  0  0  0
   -7.0338    1.6521    0.4566 C   0  0  0  0  0  0  0  0  0  0  0  0
   -4.1995   -0.7824    0.3039 C   0  0  0  0  0  0  0  0  0  0  0  0
   -2.0601   -2.1431    0.1474 C   0  0  0  0  0  0  0  0  0  0  0  0
   -4.8899    0.4383    0.2553 C   0  0  0  0  0  0  0  0  0  0  0  0
   -6.2945    0.4586    0.4925 O   0  0  0  0  0  0  0  0  0  0  0  0
    3.9325   -1.2424   -0.1244 C   0  0  0  0  0  0  0  0  0  0  0  0
   -6.6201    2.7870    0.2312 O   0  0  0  0  0  0  0  0  0  0  0  0
   -4.1812    1.5947   -0.0300 C   0  0  0  0  0  0  0  0  0  0  0  0
    2.3484    0.6100    1.6949 C   0  0  0  0  0  0  0  0  0  0  0  0
    4.6910    1.1008    0.0433 O   0  0  0  0  0  0  0  0  0  0  0  0
   -8.4820    1.4394    0.7345 C   0  0  0  0  0  0  0  0  0  0  0  0
  1 21  1  1
  2  1  1  0
  3  2  1  0
  4  3  1  0
  5  4  1  0
  6  5  2  0
  7  1  1  0
  8  7  1  0
  4  8  1  1
  3  9  1  6
  2 10  1  1
 11  5  1  0
 12  1  1  0
 12 22  1  1
 13 17  1  0
 14  6  1  0
 15  9  1  0
 15  6  1  0
 16 14  2  0
 16 20  1  0
 17 16  1  0
 18 12  1  0
 18 10  1  0
 19 13  2  0
 20 11  2  0
 23 13  1  0
M  END
>  <DRUGBANK_ID>  (1) 
DB13952

>  <SECONDARY_ACCESSION_NUMBERS>  (1) 
DBSALT000065

>  <COMMON_NAME>  (1) 
Estradiol acetate

>  <CAS_NUMBER>  (1) 
4245-41-4

>  <UNII>  (1) 
5R97F5H93P

>  <SYNONYMS>  (1) 
E3A; Estradiol 3-acetate; Estradiol acetate; Estradiol-3-acetate

$$$$
