
     RDKit          3D

 32 35  0  0  1  0  0  0  0  0999 V2000
    0.8212   -0.1966    0.4404 C   0  0  0  0  0  0  0  0  0  0  0  0
    0.2793    1.2431    0.6699 C   0  0  2  0  0  0  0  0  0  0  0  0
   -1.0408    1.2446   -0.1122 C   0  0  0  0  0  0  0  0  0  0  0  0
   -0.8618    1.5087   -1.6328 C   0  0  2  0  0  0  0  0  0  0  0  0
   -0.1759    0.4773   -2.4257 N   0  0  0  0  0  0  0  0  0  0  0  0
   -0.1592    2.8559   -1.8185 C   0  0  0  0  0  0  0  0  0  0  0  0
    1.2316    2.9385   -1.1171 C   0  0  1  0  0  0  0  0  0  0  0  0
    0.9865    2.6231    0.3770 C   0  0  0  0  0  0  0  0  0  0  0  0
    2.3472    2.0507   -1.6647 C   0  0  0  0  0  0  0  0  0  0  0  0
    2.6761    1.9410   -3.0102 C   0  0  0  0  0  0  0  0  0  0  0  0
    2.0986    2.7586   -4.0079 N   0  0  0  0  0  0  0  0  0  0  0  0
    2.1677    2.7112   -5.4037 C   0  0  0  0  0  0  0  0  0  0  0  0
    1.6345    3.5894   -6.0521 O   0  0  0  0  0  0  0  0  0  0  0  0
    2.8703    1.5796   -6.0989 C   0  0  0  0  0  0  0  0  0  0  0  0
    3.9771    1.9260   -6.8158 N   0  0  0  0  0  0  0  0  0  0  0  0
    4.8017    0.9134   -7.2066 C   0  0  0  0  0  0  0  0  0  0  0  0
    4.5934   -0.4097   -6.8077 C   0  0  0  0  0  0  0  0  0  0  0  0
    5.4763   -1.3718   -7.1123 F   0  0  0  0  0  0  0  0  0  0  0  0
    3.4630   -0.7383   -6.0752 C   0  0  0  0  0  0  0  0  0  0  0  0
    2.5339    0.2598   -5.7835 C   0  0  0  0  0  0  0  0  0  0  0  0
    5.8842    1.2502   -8.1290 C   0  0  0  0  0  0  0  0  0  0  0  0
    5.9223    0.6526   -9.3971 C   0  0  0  0  0  0  0  0  0  0  0  0
    4.9561   -0.2066   -9.7594 F   0  0  0  0  0  0  0  0  0  0  0  0
    6.9395    0.9130  -10.3134 C   0  0  0  0  0  0  0  0  0  0  0  0
    7.9655    1.7873   -9.9724 C   0  0  0  0  0  0  0  0  0  0  0  0
    7.9611    2.3899   -8.7147 C   0  0  0  0  0  0  0  0  0  0  0  0
    6.9255    2.1255   -7.8102 C   0  0  0  0  0  0  0  0  0  0  0  0
    6.9786    2.7098   -6.6035 F   0  0  0  0  0  0  0  0  0  0  0  0
    3.6024    0.9436   -3.2937 C   0  0  0  0  0  0  0  0  0  0  0  0
    3.9426   -0.1082   -2.5246 N   0  0  0  0  0  0  0  0  0  0  0  0
    3.6534    0.0386   -1.2483 C   0  0  0  0  0  0  0  0  0  0  0  0
    3.0403    1.1848   -0.7816 C   0  0  0  0  0  0  0  0  0  0  0  0
  2  1  1  6
  2  3  1  0
  2  8  1  0
  4  3  1  0
  4  5  1  1
  4  6  1  0
  7  6  1  0
  7  8  1  0
  7  9  1  6
  9 10  1  0
  9 32  2  0
 10 11  1  0
 10 29  2  0
 11 12  1  0
 12 13  2  0
 12 14  1  0
 14 15  2  0
 14 20  1  0
 15 16  1  0
 16 17  2  0
 16 21  1  0
 17 18  1  0
 17 19  1  0
 19 20  2  0
 21 22  2  0
 21 27  1  0
 22 23  1  0
 22 24  1  0
 24 25  2  0
 25 26  1  0
 26 27  2  0
 27 28  1  0
 29 30  1  0
 30 31  2  0
 31 32  1  0
M  END
>  <DRUGBANK_ID>  (1) 
DB14943

>  <COMMON_NAME>  (1) 
LGH-447

>  <CAS_NUMBER>  (1) 
1210608-43-7

>  <UNII>  (1) 
9TG5O4V25H

$$$$
