
     RDKit          3D

 25 27  0  0  0  0  0  0  0  0999 V2000
    5.2961    1.1916    2.7291 C   0  0  0  0  0  0  0  0  0  0  0  0
    6.3986    0.3327    3.3164 C   0  0  0  0  0  0  0  0  0  0  0  0
    5.8324   -0.5250    4.4241 C   0  0  0  0  0  0  0  0  0  0  0  0
    4.5252   -1.2724    4.1281 C   0  0  0  0  0  0  0  0  0  0  0  0
    3.4874   -0.3249    3.6075 C   0  0  1  0  0  0  0  0  0  0  0  0
    4.0646    0.3298    2.3305 C   0  0  1  0  0  0  0  0  0  0  0  0
    2.8550    1.2047    1.8974 C   0  0  2  0  0  0  0  0  0  0  0  0
    2.0747   -0.7534    3.2076 C   0  0  0  0  0  0  0  0  0  0  0  0
    1.5728    0.4602    2.4087 C   0  0  0  0  0  0  0  0  0  0  0  0
    4.3265   -2.5902    4.3297 C   0  0  0  0  0  0  0  0  0  0  0  0
    5.3038   -3.4554    4.9466 C   0  0  0  0  0  0  0  0  0  0  0  0
    5.9065   -3.1981    6.1257 C   0  0  0  0  0  0  0  0  0  0  0  0
    6.9857   -4.1123    6.6641 C   0  0  0  0  0  0  0  0  0  0  0  0
    8.2187   -3.3316    7.1572 C   0  0  2  0  0  0  0  0  0  0  0  0
    7.7997   -2.3082    8.1932 C   0  0  0  0  0  0  0  0  0  0  0  0
    6.8135   -1.2942    7.6571 C   0  0  1  0  0  0  0  0  0  0  0  0
    5.6012   -1.9920    7.0093 C   0  0  0  0  0  0  0  0  0  0  0  0
    8.2163   -2.3560    9.4555 C   0  0  0  0  0  0  0  0  0  0  0  0
    6.3197   -0.4534    8.7044 O   0  0  0  0  0  0  0  0  0  0  0  0
    8.8742   -2.6618    6.0824 O   0  0  0  0  0  0  0  0  0  0  0  0
    2.8554    1.7060    0.4309 C   0  0  2  0  0  0  0  0  0  0  0  0
    1.9880    0.8681   -0.5321 C   0  0  0  0  0  0  0  0  0  0  0  0
    2.0977   -0.6506   -0.4742 C   0  0  0  0  0  0  0  0  0  0  0  0
    4.2450    2.0493   -0.1486 C   0  0  0  0  0  0  0  0  0  0  0  0
    4.4981   -0.8068    1.3500 C   0  0  0  0  0  0  0  0  0  0  0  0
  1  2  1  0
  1  6  1  0
  2  3  1  0
  3  4  1  0
  4  5  1  0
  4 10  2  0
  5  8  1  6
  6  5  1  0
  6 25  1  6
  7  6  1  0
  7  9  1  6
  8  9  1  0
 10 11  1  0
 11 12  2  0
 12 13  1  0
 12 17  1  0
 13 14  1  0
 14 15  1  0
 14 20  1  6
 15 16  1  0
 15 18  2  0
 16 17  1  0
 16 19  1  1
 21 24  1  6
 21 22  1  0
 21  7  1  0
 22 23  1  0
M  END
>  <DRUGBANK_ID>  (1) 
DB04891

>  <COMMON_NAME>  (1) 
Becocalcidiol

>  <CAS_NUMBER>  (1) 
524067-21-8

>  <UNII>  (1) 
N75R59YD0F

>  <SYNONYMS>  (1) 
Becocalcidiol

$$$$
