
     RDKit          3D

 38 45  0  0  0  0  0  0  0  0999 V2000
   -5.9456    4.2526    8.0991 C   0  0  0  0  0  0  0  0  0  0  0  0
   -1.0832   -4.3485    6.6958 C   0  0  0  0  0  0  0  0  0  0  0  0
   -8.8753   -1.2541    1.6120 C   0  0  0  0  0  0  0  0  0  0  0  0
   -3.5633   -6.7228    3.7861 C   0  0  0  0  0  0  0  0  0  0  0  0
    0.4624    1.9175    2.1130 C   0  0  0  0  0  0  0  0  0  0  0  0
   -6.4990    1.4193    9.2730 C   0  0  0  0  0  0  0  0  0  0  0  0
   -6.3557    3.5759    6.9924 C   0  0  0  0  0  0  0  0  0  0  0  0
   -1.8082   -5.1159    5.8379 C   0  0  0  0  0  0  0  0  0  0  0  0
   -1.8170    1.8498    0.3532 C   0  0  0  0  0  0  0  0  0  0  0  0
   -1.5042    3.3307    0.4922 C   0  0  0  0  0  0  0  0  0  0  0  0
   -6.5745   -0.2057    1.0870 C   0  0  0  0  0  0  0  0  0  0  0  0
   -4.2501    0.5186    1.3712 C   0  0  0  0  0  0  0  0  0  0  0  0
   -5.6213   -4.0808    2.1377 C   0  0  0  0  0  0  0  0  0  0  0  0
   -5.3657    2.5995    4.4080 C   0  0  0  0  0  0  0  0  0  0  0  0
   -7.4365   -0.8794    1.9279 C   0  0  0  0  0  0  0  0  0  0  0  0
   -3.5744   -5.2208    4.0184 C   0  0  0  0  0  0  0  0  0  0  0  0
   -0.8267    1.2504    2.5644 C   0  0  0  0  0  0  0  0  0  0  0  0
   -6.0436    1.2038    7.8389 C   0  0  0  0  0  0  0  0  0  0  0  0
   -5.3838   -0.0558    1.7398 C   0  0  0  0  0  0  0  0  0  0  0  0
   -5.9587    2.1213    6.8005 C   0  0  0  0  0  0  0  0  0  0  0  0
   -2.8184   -4.4669    4.9059 C   0  0  0  0  0  0  0  0  0  0  0  0
   -1.9032    1.2184    1.7332 C   0  0  0  0  0  0  0  0  0  0  0  0
   -6.7939   -1.1455    3.0624 C   0  0  0  0  0  0  0  0  0  0  0  0
   -2.1218   -0.0022    4.3578 C   0  0  0  0  0  0  0  0  0  0  0  0
   -4.5620   -3.9668    3.2218 C   0  0  0  0  0  0  0  0  0  0  0  0
   -3.1923    0.5514    2.1846 C   0  0  0  0  0  0  0  0  0  0  0  0
   -5.5006    1.6572    5.5931 C   0  0  0  0  0  0  0  0  0  0  0  0
   -0.1765    3.5028    1.2120 C   0  0  0  0  0  0  0  0  0  0  0  0
   -5.4788   -0.2938    7.0514 C   0  0  0  0  0  0  0  0  0  0  0  0
   -3.0233   -3.1100    4.9047 C   0  0  0  0  0  0  0  0  0  0  0  0
   -4.4775   -0.6329    3.8294 Fe  0  0  0  0  0  4  0  0  0  0  0  0
   -5.5125   -0.6347    2.9638 N   0  0  0  0  0  0  0  0  0  0  0  0
   -3.2741   -0.0265    3.4454 N   0  0  0  0  0  0  0  0  0  0  0  0
   -3.9472   -2.5789    4.0592 N   0  0  0  0  0  0  0  0  0  0  0  0
   -5.1687    0.3438    5.4693 N   0  0  0  0  0  0  0  0  0  0  0  0
    0.8974    4.1742    0.5699 O   0  0  0  0  0  0  0  0  0  0  0  0
   -0.0276    3.0459    2.3885 O   0  0  0  0  0  0  0  0  0  0  0  0
   -2.2798   -2.2704    5.7757 O   0  0  0  0  0  0  0  0  0  0  0  0
  7  1  2  0
  8  2  2  0
 10  9  1  0
 15  3  1  0
 15 11  2  0
 16  4  1  0
 17  5  1  0
 18  6  1  0
 19 11  1  0
 19 12  2  0
 20  7  1  0
 20 18  1  0
 21  8  1  0
 21 16  1  0
 22  9  1  0
 22 17  2  0
 23 13  2  0
 23 15  1  0
 24 14  2  0
 24 17  1  0
 25 13  1  0
 25 16  2  0
 26 12  1  0
 26 22  1  0
 27 14  1  0
 27 20  2  0
 28 10  1  0
 29 18  2  0
 30 21  2  0
 32 19  1  0
 32 23  1  0
 32 31  1  0
 33 24  1  0
 33 26  2  0
 33 31  1  0
 34 25  1  0
 34 30  1  0
 34 31  1  0
 35 27  1  0
 35 29  1  0
 35 31  1  0
 36 28  1  0
 37 28  2  0
 38 29  1  0
 38 30  1  0
M  CHG  1  33   1
M  END
>  <DRUGBANK_ID>  (1) 
DB04803

>  <COMMON_NAME>  (1) 
Verdoheme

$$$$
