
     RDKit          3D

 13 10  0  0  0  0  0  0  0  0999 V2000
    3.0840    1.3989   -1.1092 Mg  0  0  0  0  0 15  0  0  0  0  0  0
    1.7612    0.9346    0.0702 O   0  0  0  0  0  0  0  0  0  0  0  0
    0.5926    1.3426   -0.8791 C   0  0  0  0  0  0  0  0  0  0  0  0
    1.0011    2.8171   -1.0223 C   0  0  0  0  0  0  0  0  0  0  0  0
    2.1578    2.7788   -1.6325 O   0  0  0  0  0  0  0  0  0  0  0  0
    0.6748    3.5876   -0.0779 O   0  0  0  0  0  0  0  0  0  0  0  0
    0.8120    0.6349   -2.2798 C   0  0  0  0  0  0  0  0  0  0  0  0
    0.6192   -0.9028   -0.0573 O   0  0  0  0  0  0  0  0  0  0  0  0
    0.2261   -2.2528   -0.0010 C   0  0  0  0  0  0  0  0  0  0  0  0
    0.9553   -2.8859   -1.2395 C   0  0  0  0  0  0  0  0  0  0  0  0
    2.1469   -3.2743   -0.9603 O   0  0  0  0  0  0  0  0  0  0  0  0
    0.4713   -2.6360   -2.3620 O   0  0  0  0  0  0  0  0  0  0  0  0
    0.8127   -2.5308    1.3700 C   0  0  0  0  0  0  0  0  0  0  0  0
  3  2  1  0
  4  3  1  0
  4  5  1  0
  4  6  2  0
  7  3  1  0
  9  8  1  0
 10  9  1  0
 10 11  1  0
 10 12  2  0
 13  9  1  0
M  CHG  3   1   2   5  -1  11  -1
M  END
>  <DRUGBANK_ID>  (1) 
DB14515

>  <SECONDARY_ACCESSION_NUMBERS>  (1) 
DBSALT002535

>  <COMMON_NAME>  (1) 
Magnesium lactate

>  <CAS_NUMBER>  (1) 
18917-93-6

>  <UNII>  (1) 
MT6QI8324A

>  <SYNONYMS>  (1) 
Magnesium DL-lactate; Magnesium lactate anhydrous; Magnesium lactate, anhydrous

$$$$
