
     RDKit          3D

 29 32  0  0  1  0  0  0  0  0999 V2000
   -3.1417   -1.1918    2.8479 F   0  0  0  0  0  0  0  0  0  0  0  0
   -3.1886    0.1754    2.7684 C   0  0  0  0  0  0  0  0  0  0  0  0
   -2.9523    1.0698    1.4878 C   0  0  0  0  0  0  0  0  0  0  0  0
   -2.4249    0.5185   -0.3019 N   0  0  0  0  0  0  0  0  0  0  0  0
   -2.0084    0.7262   -1.5735 C   0  0  0  0  0  0  0  0  0  0  0  0
   -1.8664   -0.1985   -2.3750 O   0  0  0  0  0  0  0  0  0  0  0  0
   -1.5080    1.9319   -1.7254 N   0  0  0  0  0  0  0  0  0  0  0  0
   -1.6829    2.4309   -0.4601 C   0  0  1  0  0  0  0  0  0  0  0  0
   -3.4094    2.7317   -0.4711 N   0  0  0  0  0  0  0  0  0  0  0  0
   -4.4268    1.9010   -0.1934 C   0  0  0  0  0  0  0  0  0  0  0  0
   -5.7904    2.5445    0.1732 C   0  0  0  0  0  0  0  0  0  0  0  0
   -6.2995    3.5592   -0.6376 C   0  0  0  0  0  0  0  0  0  0  0  0
   -7.4969    4.2093   -0.3090 C   0  0  0  0  0  0  0  0  0  0  0  0
   -8.2694    3.7598    0.7594 C   0  0  0  0  0  0  0  0  0  0  0  0
   -7.8362    2.6672    1.5078 C   0  0  0  0  0  0  0  0  0  0  0  0
   -6.5572    2.1262    1.2820 C   0  0  0  0  0  0  0  0  0  0  0  0
   -4.4672    0.1385    0.0040 C   0  0  0  0  0  0  0  0  0  0  0  0
   -3.2714   -0.9679    0.6939 C   0  0  0  0  0  0  0  0  0  0  0  0
   -1.4763   -0.4386    1.1223 N   0  0  0  0  0  0  0  0  0  0  0  0
   -0.8392    1.2167    0.8362 C   0  0  0  0  0  0  0  0  0  0  0  0
   -0.1032    1.6999    1.7203 O   0  0  0  0  0  0  0  0  0  0  0  0
   -3.3065   -2.2557    0.4616 C   0  0  0  0  0  0  0  0  0  0  0  0
   -4.2297   -2.5326   -0.5290 C   0  0  0  0  0  0  0  0  0  0  0  0
   -5.2082   -1.6281   -1.1556 C   0  0  0  0  0  0  0  0  0  0  0  0
   -5.3776   -0.2886   -0.8988 C   0  0  0  0  0  0  0  0  0  0  0  0
   -2.8597    2.3574    1.8461 C   0  0  0  0  0  0  0  0  0  0  0  0
   -2.6722    2.8303    3.0902 C   0  0  0  0  0  0  0  0  0  0  0  0
   -2.8339    2.0118    4.1676 C   0  0  0  0  0  0  0  0  0  0  0  0
   -3.1409    0.6793    4.0413 C   0  0  0  0  0  0  0  0  0  0  0  0
  1  2  1  0
  2  3  2  0
  2 29  1  0
  3  4  1  0
  3 26  1  0
  4  5  1  0
  5  6  2  0
  5  7  1  0
  8  9  1  0
  8 20  1  0
  8  7  1  6
  9 10  2  0
 10 11  1  0
 10 17  1  0
 11 12  2  0
 11 16  1  0
 12 13  1  0
 13 14  2  0
 14 15  1  0
 15 16  2  0
 17 18  2  0
 17 25  1  0
 18 19  1  0
 18 22  1  0
 19 20  1  0
 20 21  2  0
 22 23  2  0
 23 24  1  0
 24 25  2  0
 26 27  2  0
 27 28  1  0
 28 29  2  0
M  END
>  <DRUGBANK_ID>  (1) 
DB15197

>  <COMMON_NAME>  (1) 
RSV-604

>  <CAS_NUMBER>  (1) 
676128-63-5

>  <UNII>  (1) 
6NF9HI6D98

$$$$
