
     RDKit          3D

 26 29  0  0  0  0  0  0  0  0999 V2000
    0.9869   -0.0622    0.1447 C   0  0  0  0  0  0  0  0  0  0  0  0
    0.5540    0.3803   -1.2121 C   0  0  0  0  0  0  0  0  0  0  0  0
    0.3553    1.7241   -1.4972 C   0  0  0  0  0  0  0  0  0  0  0  0
   -0.0149    2.2079   -2.6950 N   0  0  0  0  0  0  0  0  0  0  0  0
   -0.1618    1.3656   -3.7490 C   0  0  0  0  0  0  0  0  0  0  0  0
    0.2424   -0.0060   -3.6213 C   0  0  0  0  0  0  0  0  0  0  0  0
    0.4392   -0.4706   -2.3197 C   0  0  0  0  0  0  0  0  0  0  0  0
    0.4370   -1.8440   -2.3842 N   0  0  0  0  0  0  0  0  0  0  0  0
    0.2876   -2.2943   -3.6742 C   0  0  0  0  0  0  0  0  0  0  0  0
    0.4083   -1.1815   -4.5074 C   0  0  0  0  0  0  0  0  0  0  0  0
    0.4914   -1.4541   -5.9403 C   0  0  0  0  0  0  0  0  0  0  0  0
    0.9084   -0.4968   -6.8987 C   0  0  0  0  0  0  0  0  0  0  0  0
    0.5635   -0.6268   -8.2554 C   0  0  0  0  0  0  0  0  0  0  0  0
   -0.0237   -1.7911   -8.6993 C   0  0  0  0  0  0  0  0  0  0  0  0
   -0.2160   -2.8531   -7.8162 C   0  0  0  0  0  0  0  0  0  0  0  0
    0.0557   -2.6946   -6.4334 C   0  0  0  0  0  0  0  0  0  0  0  0
   -0.1145   -3.7574   -5.5367 C   0  0  0  0  0  0  0  0  0  0  0  0
    0.0809   -3.5862   -4.1588 C   0  0  0  0  0  0  0  0  0  0  0  0
   -0.4105   -1.9513   -9.9980 O   0  0  0  0  0  0  0  0  0  0  0  0
   -0.8964    1.9084   -4.7820 N   0  0  0  0  0  0  0  0  0  0  0  0
   -1.2524    1.0668   -5.8750 C   0  0  0  0  0  0  0  0  0  0  0  0
   -2.5449    1.2719   -6.5733 C   0  0  0  0  0  0  0  0  0  0  0  0
   -2.7275    2.6836   -7.0654 C   0  0  0  0  0  0  0  0  0  0  0  0
   -1.8450    3.1431   -8.1652 N   0  0  0  0  0  0  0  0  0  0  0  0
   -2.2932    4.4883   -8.5279 C   0  0  0  0  0  0  0  0  0  0  0  0
   -0.4125    3.2500   -7.8582 C   0  0  0  0  0  0  0  0  0  0  0  0
  1  2  1  0
  2  3  2  0
  2  7  1  0
  3  4  1  0
  4  5  2  0
  5  6  1  0
  5 20  1  0
  6  7  2  0
  6 10  1  0
  7  8  1  0
  8  9  1  0
  9 10  2  0
  9 18  1  0
 10 11  1  0
 11 12  2  0
 11 16  1  0
 12 13  1  0
 13 14  2  0
 14 15  1  0
 14 19  1  0
 15 16  2  0
 16 17  1  0
 17 18  2  0
 20 21  1  0
 21 22  1  0
 22 23  1  0
 23 24  1  0
 24 25  1  0
 24 26  1  0
M  END
>  <DRUGBANK_ID>  (1) 
DB12868

>  <COMMON_NAME>  (1) 
Intoplicine

>  <CAS_NUMBER>  (1) 
125974-72-3

>  <UNII>  (1) 
FB2CIN6HMI

>  <SYNONYMS>  (1) 
Intoplicine

$$$$
