
     RDKit          3D

 14 13  0  0  0  0  0  0  0  0999 V2000
    0.8723   -0.1706   -0.2901 C   0  0  0  0  0  0  0  0  0  0  0  0
    0.5515   -1.6294   -0.1590 C   0  0  0  0  0  0  0  0  0  0  0  0
    1.0705   -2.0623    1.2197 C   0  0  0  0  0  0  0  0  0  0  0  0
    0.5945    0.6038   -1.5272 C   0  0  0  0  0  0  0  0  0  0  0  0
    0.6008   -1.2138    2.2860 O   0  0  0  0  0  0  0  0  0  0  0  0
    1.2748    0.0802   -2.6366 O   0  0  0  0  0  0  0  0  0  0  0  0
    2.9012   -0.0765   -2.6588 S   0  0  0  0  0  0  0  0  0  0  0  0
    1.1858    0.2579    2.7729 S   0  0  0  0  0  0  0  0  0  0  0  0
    2.9402    0.0887    2.5030 C   0  0  0  0  0  0  0  0  0  0  0  0
    3.3553    1.6434   -2.5263 C   0  0  0  0  0  0  0  0  0  0  0  0
    3.3646   -0.7565   -1.4524 O   0  0  0  0  0  0  0  0  0  0  0  0
    3.2713   -0.5664   -3.9554 O   0  0  0  0  0  0  0  0  0  0  0  0
    0.7288    1.3481    1.9271 O   0  0  0  0  0  0  0  0  0  0  0  0
    0.9500    0.3758    4.1937 O   0  0  0  0  0  0  0  0  0  0  0  0
  2  1  1  0
  3  2  1  0
  3  5  1  0
  4  1  1  0
  4  6  1  0
  5  8  1  0
  6  7  1  0
  7 10  1  0
  8  9  1  0
 11  7  2  0
 12  7  2  0
 13  8  2  0
 14  8  2  0
M  END
>  <DRUGBANK_ID>  (1) 
DB01008

>  <SECONDARY_ACCESSION_NUMBERS>  (1) 
APRD00664

>  <COMMON_NAME>  (1) 
Busulfan

>  <CAS_NUMBER>  (1) 
55-98-1

>  <UNII>  (1) 
G1LN9045DK

>  <SYNONYMS>  (1) 
1,4-Bis(methanesulfonoxy)butane; 1,4-Butanediol dimethanesulfonate; 1,4-Dimesyloxybutane; 1,4-Dimethanesulfonoxybutane; Busulfan; Busulfano; Busulfanum; Busulphan; Tetramethylene bis(methanesulfonate)

$$$$
