
     RDKit          3D

 30 33  0  0  0  0  0  0  0  0999 V2000
    7.0525   -4.5648    3.8663 C   0  0  1  0  0  0  0  0  0  0  0  0
    6.6593   -9.3908    5.7288 C   0  0  1  0  0  0  0  0  0  0  0  0
    7.4632   -4.1841    2.0425 C   0  0  1  0  0  0  0  0  0  0  0  0
    5.9793   -7.1050    4.3042 C   0  0  2  0  0  0  0  0  0  0  0  0
    6.5006   -5.9277    3.4586 C   0  0  2  0  0  0  0  0  0  0  0  0
    7.0488   -7.7364    5.1730 C   0  0  1  0  0  0  0  0  0  0  0  0
    5.2227   -9.7748    5.5504 C   0  0  0  0  0  0  0  0  0  0  0  0
    9.5230   -2.7761   -1.1473 P   0  0  0  0  0  0  0  0  0  0  0  0
    8.1120   -5.1729    5.1484 C   0  0  0  0  0  0  0  0  0  0  0  0
    7.4338   -6.3803    6.0673 C   0  0  2  0  0  0  0  0  0  0  0  0
    7.1429  -11.1037    4.9324 C   0  0  0  0  0  0  0  0  0  0  0  0
    7.3949   -3.8150    0.3034 C   0  0  0  0  0  0  0  0  0  0  0  0
    5.1383  -10.9295    6.3140 C   0  0  0  0  0  0  0  0  0  0  0  0
    8.5827   -5.2487    1.9853 C   0  0  0  0  0  0  0  0  0  0  0  0
    7.8013   -6.3760    2.6822 C   0  0  0  0  0  0  0  0  0  0  0  0
    5.5066   -8.2402    3.4116 C   0  0  0  0  0  0  0  0  0  0  0  0
    6.5846  -12.3788    5.2173 C   0  0  0  0  0  0  0  0  0  0  0  0
    5.1462  -12.0789    5.4342 C   0  0  0  0  0  0  0  0  0  0  0  0
    7.1651   -2.4027   -0.2198 C   0  0  0  0  0  0  0  0  0  0  0  0
    7.9382   -2.1567   -1.4593 O   0  0  0  0  0  0  0  0  0  0  0  0
    9.9174   -2.0943   -2.5735 O   0  0  0  0  0  0  0  0  0  0  0  0
    9.7596   -1.5104   -0.1361 O   0  0  0  0  0  0  0  0  0  0  0  0
    4.6836   -9.3153    4.1940 C   0  0  0  0  0  0  0  0  0  0  0  0
   10.9415   -3.3305   -0.8681 O   0  0  0  0  0  0  0  0  0  0  0  0
    7.3768   -4.6525   -0.6320 O   0  0  0  0  0  0  0  0  0  0  0  0
    4.1882  -12.3755    4.6651 O   0  0  0  0  0  0  0  0  0  0  0  0
    6.1183   -4.8990    1.3153 O   0  0  0  0  0  0  0  0  0  0  0  0
    6.3343   -3.5184    4.8972 C   0  0  0  0  0  0  0  0  0  0  0  0
    8.4050   -6.8435    6.9930 O   0  0  0  0  0  0  0  0  0  0  0  0
    6.1270   -8.7517    7.2785 C   0  0  0  0  0  0  0  0  0  0  0  0
  1 28  1  1
  2  6  1  0
  2 30  1  1
  3  1  1  0
  3 12  1  0
  3 27  1  6
  4  5  1  0
  5  1  1  0
  6 10  1  1
  6  4  1  0
  7  2  1  0
  8 20  1  0
  9  1  1  0
 10  9  1  0
 10 29  1  1
 11  2  1  0
 13  7  2  0
 14  3  1  0
 14 15  1  0
  5 15  1  1
  4 16  1  6
 17 11  2  0
 18 17  1  0
 18 13  1  0
 19 12  1  0
 20 19  1  0
 21  8  1  0
 22  8  1  0
 23 16  1  0
 23  7  1  0
 24  8  2  0
 25 12  2  0
 26 18  2  0
M  END
>  <DRUGBANK_ID>  (1) 
DB14631

>  <SECONDARY_ACCESSION_NUMBERS>  (1) 
DBSALT002204

>  <COMMON_NAME>  (1) 
Prednisolone phosphate

>  <CAS_NUMBER>  (1) 
302-25-0

>  <UNII>  (1) 
752SY38R6C

>  <SYNONYMS>  (1) 
Prednisolone 21-(dihydrogen phosphate); Prednisolone 21-monophosphate; Prednisolone 21-phosphate

$$$$
