
     RDKit          3D

 15 15  0  0  0  0  0  0  0  0999 V2000
    0.9097    0.0849    0.0008 C   0  0  0  0  0  0  0  0  0  0  0  0
    0.5002   -1.2242    0.6589 C   0  0  0  0  0  0  0  0  0  0  0  0
    4.7218   -1.1605   10.4805 C   0  0  0  0  0  0  0  0  0  0  0  0
    3.1505   -1.4055    1.2775 O   0  0  0  0  0  0  0  0  0  0  0  0
    0.9737   -1.3240    2.0182 O   0  0  0  0  0  0  0  0  0  0  0  0
    3.5752   -1.9052   10.0676 O   0  0  0  0  0  0  0  0  0  0  0  0
    2.3154   -1.4173    2.1766 C   0  0  0  0  0  0  0  0  0  0  0  0
    3.2280   -1.7820    8.7474 C   0  0  0  0  0  0  0  0  0  0  0  0
    2.7365   -1.5239    3.5880 C   0  0  0  0  0  0  0  0  0  0  0  0
    3.8399   -0.9166    7.8428 C   0  0  0  0  0  0  0  0  0  0  0  0
    2.1935   -2.6051    8.2954 C   0  0  0  0  0  0  0  0  0  0  0  0
    1.9260   -1.6320    4.6520 C   0  0  0  0  0  0  0  0  0  0  0  0
    3.4408   -0.8845    6.5027 C   0  0  0  0  0  0  0  0  0  0  0  0
    1.8220   -2.6049    6.9411 C   0  0  0  0  0  0  0  0  0  0  0  0
    2.4259   -1.7255    6.0344 C   0  0  0  0  0  0  0  0  0  0  0  0
  2  1  1  0
  5  2  1  0
  6  3  1  0
  7  4  2  0
  7  5  1  0
  8  6  1  0
  9  7  1  0
 10  8  2  0
 11  8  1  0
 12  9  2  0
 13 10  1  0
 14 11  2  0
 15 12  1  0
 15 13  2  0
 15 14  1  0
M  END
>  <DRUGBANK_ID>  (1) 
DB16440

>  <COMMON_NAME>  (1) 
Ethyl methoxycinnamate

>  <CAS_NUMBER>  (1) 
24393-56-4

>  <UNII>  (1) 
SD418S06XD

>  <SYNONYMS>  (1) 
Ethyl (E)-4-methoxycinnamate; Ethyl (E)-p-methoxycinnamate; Ethyl methoxycinnamate; Ethyl trans-p-methoxycinnamate

$$$$
