
     RDKit          3D

 31 35  0  0  0  0  0  0  0  0999 V2000
    0.9117    0.0731    0.0397 Cl  0  0  0  0  0  0  0  0  0  0  0  0
   10.6333    3.7858   -0.1274 F   0  0  0  0  0  0  0  0  0  0  0  0
    7.6047   -5.0466   -1.7329 O   0  0  0  0  0  0  0  0  0  0  0  0
    4.8343   -6.4787    0.0321 N   0  0  0  0  0  0  0  0  0  0  0  0
    6.7789   -0.1669    0.1537 N   0  0  0  0  0  0  0  0  0  0  0  0
    7.7325   -7.3477   -1.2100 N   0  0  0  0  0  0  0  0  0  0  0  0
    9.2700   -5.9138   -0.4117 N   0  0  0  0  0  0  0  0  0  0  0  0
    5.4985   -3.6243    0.0366 C   0  0  0  0  0  0  0  0  0  0  0  0
    5.8036   -4.4607    1.2818 C   0  0  0  0  0  0  0  0  0  0  0  0
    4.2302   -4.1468   -0.6330 C   0  0  0  0  0  0  0  0  0  0  0  0
    5.8802   -5.9377    0.9054 C   0  0  0  0  0  0  0  0  0  0  0  0
    4.4787   -5.5819   -1.0821 C   0  0  0  0  0  0  0  0  0  0  0  0
    5.6944   -2.1444    0.1647 C   0  0  0  0  0  0  0  0  0  0  0  0
    5.2561   -7.7977   -0.5063 C   0  0  0  0  0  0  0  0  0  0  0  0
    4.7282   -1.1068    0.1639 C   0  0  0  0  0  0  0  0  0  0  0  0
    6.4038   -7.8474   -1.5778 C   0  0  0  0  0  0  0  0  0  0  0  0
    6.9372   -1.5281    0.1173 C   0  0  0  0  0  0  0  0  0  0  0  0
    5.4144    0.1167    0.1671 C   0  0  0  0  0  0  0  0  0  0  0  0
    8.7215   -8.1369   -0.5029 C   0  0  0  0  0  0  0  0  0  0  0  0
    3.3208   -1.1088    0.1116 C   0  0  0  0  0  0  0  0  0  0  0  0
    9.9123   -7.1827   -0.4926 C   0  0  0  0  0  0  0  0  0  0  0  0
    4.7182    1.3377    0.1037 C   0  0  0  0  0  0  0  0  0  0  0  0
    7.8409    0.7749    0.1316 C   0  0  0  0  0  0  0  0  0  0  0  0
    8.1364   -5.9947   -1.2230 C   0  0  0  0  0  0  0  0  0  0  0  0
    2.6323    0.0965    0.0732 C   0  0  0  0  0  0  0  0  0  0  0  0
    3.3182    1.3033    0.0685 C   0  0  0  0  0  0  0  0  0  0  0  0
    7.9000    1.7571    1.1266 C   0  0  0  0  0  0  0  0  0  0  0  0
    8.8058    0.7384   -0.8862 C   0  0  0  0  0  0  0  0  0  0  0  0
    8.8359    2.7871    1.0257 C   0  0  0  0  0  0  0  0  0  0  0  0
    9.7938    1.7292   -0.9302 C   0  0  0  0  0  0  0  0  0  0  0  0
    9.7627    2.7739   -0.0105 C   0  0  0  0  0  0  0  0  0  0  0  0
  1 25  1  0
  2 31  1  0
  3 24  2  0
  4 11  1  0
  4 12  1  0
  4 14  1  0
  5 17  1  0
  5 18  1  0
  5 23  1  0
  6 16  1  0
  6 19  1  0
  6 24  1  0
  7 21  1  0
  7 24  1  0
  8  9  1  0
  8 10  1  0
  8 13  1  0
  9 11  1  0
 10 12  1  0
 13 15  1  0
 13 17  2  0
 14 16  1  0
 15 18  2  0
 15 20  1  0
 18 22  1  0
 19 21  1  0
 20 25  2  0
 22 26  2  0
 23 27  2  0
 23 28  1  0
 25 26  1  0
 27 29  1  0
 28 30  2  0
 29 31  2  0
 30 31  1  0
M  END
>  <DRUGBANK_ID>  (1) 
DB06144

>  <COMMON_NAME>  (1) 
Sertindole

>  <CAS_NUMBER>  (1) 
106516-24-9

>  <UNII>  (1) 
GVV4Z879SP

>  <SYNONYMS>  (1) 
1-[2-[4-[5-chloro-1-(4-fluorophenyl)-indol-3-yl]-1-piperidyl]ethyl]imidazolidin-2-one; Sertindol; Sertindole; Sertindolum

$$$$
