
     RDKit          3D

 38 42  0  0  1  0  0  0  0  0999 V2000
    3.0657   -2.7449   -0.0747 O   0  0  0  0  0  0  0  0  0  0  0  0
    4.0663    4.0774    0.0248 O   0  0  0  0  0  0  0  0  0  0  0  0
    1.5100    2.2290    2.5577 O   0  0  0  0  0  0  0  0  0  0  0  0
    2.6185    4.8429    4.6667 O   0  0  0  0  0  0  0  0  0  0  0  0
    0.9126   -1.6448   -0.0956 O   0  0  0  0  0  0  0  0  0  0  0  0
    3.9702   -4.1921    1.4594 O   0  0  0  0  0  0  0  0  0  0  0  0
    6.4811    7.1719   -1.4707 O   0  0  0  0  0  0  0  0  0  0  0  0
    4.0868    3.3288    2.1650 N   0  0  0  0  0  0  0  0  0  0  0  0
    4.1301    3.4844    3.5743 N   0  0  0  0  0  0  0  0  0  0  0  0
    2.0415    0.1798    1.8771 N   0  0  0  0  0  0  0  0  0  0  0  0
    5.3984    6.3745    0.3393 N   0  0  0  0  0  0  0  0  0  0  0  0
    8.8906    7.1333    0.1678 N   0  0  0  0  0  0  0  0  0  0  0  0
    3.8081    1.9307    1.7757 C   0  0  1  0  0  0  0  0  0  0  0  0
    4.8739    1.0087    2.4075 C   0  0  0  0  0  0  0  0  0  0  0  0
    5.0895    1.2478    3.8723 C   0  0  0  0  0  0  0  0  0  0  0  0
    5.2254    2.7291    4.1625 C   0  0  0  0  0  0  0  0  0  0  0  0
    5.1598    5.5927    1.5774 C   0  0  2  0  0  0  0  0  0  0  0  0
    4.3378    4.3062    1.2126 C   0  0  0  0  0  0  0  0  0  0  0  0
    4.5593    6.4681    2.6532 C   0  0  0  0  0  0  0  0  0  0  0  0
    2.3806    1.4835    2.1154 C   0  0  0  0  0  0  0  0  0  0  0  0
    4.7084    5.7935    4.0077 C   0  0  0  0  0  0  0  0  0  0  0  0
    3.7091    4.6785    4.1329 C   0  0  0  0  0  0  0  0  0  0  0  0
    2.8395   -0.8719    1.2598 C   0  0  2  0  0  0  0  0  0  0  0  0
    2.3230   -1.5219   -0.0044 C   0  0  1  0  0  0  0  0  0  0  0  0
    3.1538   -2.0397    2.1787 C   0  0  0  0  0  0  0  0  0  0  0  0
    3.4937   -3.0900    1.1765 C   0  0  0  0  0  0  0  0  0  0  0  0
    6.5689    6.6120   -0.3783 C   0  0  0  0  0  0  0  0  0  0  0  0
    0.2369   -2.3157    0.9566 C   0  0  0  0  0  0  0  0  0  0  0  0
    7.9244    6.1861    0.1467 C   0  0  0  0  0  0  0  0  0  0  0  0
    8.1623    4.8823    0.5950 C   0  0  0  0  0  0  0  0  0  0  0  0
    0.4996   -3.8036    0.9347 C   0  0  0  0  0  0  0  0  0  0  0  0
    9.3622    4.5679    1.2600 C   0  0  0  0  0  0  0  0  0  0  0  0
    7.2648    3.8591    0.3746 C   0  0  0  0  0  0  0  0  0  0  0  0
   10.3584    5.5352    1.2686 C   0  0  0  0  0  0  0  0  0  0  0  0
   10.0868    6.7678    0.6882 C   0  0  0  0  0  0  0  0  0  0  0  0
    9.5257    3.3006    1.8647 C   0  0  0  0  0  0  0  0  0  0  0  0
    7.4287    2.6360    0.9783 C   0  0  0  0  0  0  0  0  0  0  0  0
    8.5115    2.3555    1.7914 C   0  0  0  0  0  0  0  0  0  0  0  0
  1 24  1  0
  1 26  1  0
  2 18  2  0
  3 20  2  0
  4 22  2  0
  5 28  1  0
  6 26  2  0
  7 27  2  0
  8  9  1  0
  8 13  1  0
  8 18  1  0
  9 16  1  0
  9 22  1  0
 10 20  1  0
 11 27  1  0
 12 29  2  0
 12 35  1  0
 13 14  1  0
 13 20  1  1
 14 15  1  0
 15 16  1  0
 17 11  1  6
 17 18  1  0
 17 19  1  0
 19 21  1  0
 21 22  1  0
 23 10  1  1
 23 24  1  0
 23 25  1  0
 24  5  1  1
 25 26  1  0
 27 29  1  0
 28 31  1  0
 29 30  1  0
 30 32  2  0
 30 33  1  0
 32 34  1  0
 32 36  1  0
 33 37  2  0
 34 35  2  0
 36 38  2  0
 37 38  1  0
M  END
>  <DRUGBANK_ID>  (1) 
DB04875

>  <COMMON_NAME>  (1) 
Pralnacasan

>  <CAS_NUMBER>  (1) 
192755-52-5

>  <UNII>  (1) 
N986NI319S

>  <SYNONYMS>  (1) 
Pralnacasan

$$$$
