
     RDKit          3D

 27 29  0  0  0  0  0  0  0  0999 V2000
    1.0629    0.1345   -0.0892 C   0  0  0  0  0  0  0  0  0  0  0  0
    2.1363   10.0077   -4.4958 C   0  0  0  0  0  0  0  0  0  0  0  0
   -0.2048    2.7609   -9.2649 C   0  0  0  0  0  0  0  0  0  0  0  0
    0.4304    3.7758   -9.9750 C   0  0  0  0  0  0  0  0  0  0  0  0
   -0.8110    3.0436   -8.0493 C   0  0  0  0  0  0  0  0  0  0  0  0
   -1.5194    2.9959   -4.2799 C   0  0  0  0  0  0  0  0  0  0  0  0
    0.6681    3.8628   -4.7550 C   0  0  0  0  0  0  0  0  0  0  0  0
    0.0294    6.6338   -5.7240 C   0  0  0  0  0  0  0  0  0  0  0  0
   -2.3182    7.0287   -5.5820 C   0  0  0  0  0  0  0  0  0  0  0  0
   -0.9957    2.3759   -3.1424 C   0  0  0  0  0  0  0  0  0  0  0  0
    1.1845    3.3024   -3.5828 C   0  0  0  0  0  0  0  0  0  0  0  0
    0.2757    7.7702   -5.0281 C   0  0  0  0  0  0  0  0  0  0  0  0
   -2.0443    8.3152   -5.0640 C   0  0  0  0  0  0  0  0  0  0  0  0
    0.4325    5.0477   -9.4446 C   0  0  0  0  0  0  0  0  0  0  0  0
    0.5196    0.6098   -1.4067 C   0  0  0  0  0  0  0  0  0  0  0  0
    0.8161   10.6651   -4.1670 C   0  0  0  0  0  0  0  0  0  0  0  0
   -0.7117    3.8084   -5.0763 C   0  0  0  0  0  0  0  0  0  0  0  0
   -1.2602    6.1537   -5.8626 C   0  0  0  0  0  0  0  0  0  0  0  0
    0.3478    2.5307   -2.7920 C   0  0  0  0  0  0  0  0  0  0  0  0
   -0.7200    8.6764   -4.7935 C   0  0  0  0  0  0  0  0  0  0  0  0
   -0.7654    4.3466   -7.5782 C   0  0  0  0  0  0  0  0  0  0  0  0
   -1.3613    4.6671   -6.2081 C   0  0  0  0  0  0  0  0  0  0  0  0
   -0.1563    5.3454   -8.2775 N   0  0  0  0  0  0  0  0  0  0  0  0
   -0.1398   -0.1015   -2.1369 O   0  0  0  0  0  0  0  0  0  0  0  0
    0.8121   11.8171   -3.7368 O   0  0  0  0  0  0  0  0  0  0  0  0
    0.8869    1.9391   -1.6348 O   0  0  0  0  0  0  0  0  0  0  0  0
   -0.3975    9.9612   -4.2889 O   0  0  0  0  0  0  0  0  0  0  0  0
  4  3  2  0
  5  3  1  0
 10  6  2  0
 11  7  1  0
 12  8  2  0
 13  9  1  0
 14  4  1  0
 15  1  1  0
 16  2  1  0
 17  6  1  0
 17  7  2  0
 18  8  1  0
 18  9  2  0
 19 10  1  0
 19 11  2  0
 20 12  1  0
 20 13  2  0
 21  5  2  0
 22 17  1  0
 22 18  1  0
 22 21  1  0
 23 14  2  0
 23 21  1  0
 24 15  2  0
 25 16  2  0
 26 15  1  0
 26 19  1  0
 27 16  1  0
 27 20  1  0
M  END
>  <DRUGBANK_ID>  (1) 
DB09020

>  <COMMON_NAME>  (1) 
Bisacodyl

>  <CAS_NUMBER>  (1) 
603-50-9

>  <UNII>  (1) 
10X0709Y6I

>  <SYNONYMS>  (1) 
Bisacodilo; Bisacodyl; Bisacodyle; Bisacodylum; Phenol, 4,4'-(2-pyridinylmethylene)bis-, diacetate (ester)

$$$$
