X99
     RDKit          3D

 29 32  0  0  0  0  0  0  0  0999 V2000
    0.9823    0.2067   -0.0808 C   0  0  0  0  0  0  0  0  0  0  0  0
    2.2148    0.1736   -0.1387 O   0  0  0  0  0  0  0  0  0  0  0  0
    0.2431   -1.0548    0.5299 C   0  0  0  0  0  0  0  0  0  0  0  0
   -0.5064   -0.9526    1.8773 C   0  0  0  0  0  0  0  0  0  0  0  0
   -1.5456    0.0253    2.0374 N   0  0  0  0  0  0  0  0  0  0  0  0
   -1.0111    1.8208    2.0070 C   0  0  0  0  0  0  0  0  0  0  0  0
   -3.2315   -0.2560    1.3318 C   0  0  0  0  0  0  0  0  0  0  0  0
    0.0867    2.2130    2.3768 O   0  0  0  0  0  0  0  0  0  0  0  0
   -3.7025   -1.3051    0.8947 O   0  0  0  0  0  0  0  0  0  0  0  0
   -2.5299    2.7589    1.0100 C   0  0  0  0  0  0  0  0  0  0  0  0
   -2.7615    4.0643    0.6718 C   0  0  0  0  0  0  0  0  0  0  0  0
   -4.0068    4.2219   -0.0122 C   0  0  0  0  0  0  0  0  0  0  0  0
   -4.9478    3.1426   -0.4676 C   0  0  0  0  0  0  0  0  0  0  0  0
   -4.8313    1.7521   -0.2339 C   0  0  0  0  0  0  0  0  0  0  0  0
   -3.7849    1.4844    0.5902 C   0  0  0  0  0  0  0  0  0  0  0  0
    0.2496    1.2112   -0.7362 N   0  0  0  0  0  0  0  0  0  0  0  0
    0.6353    2.0467   -1.8752 C   0  0  0  0  0  0  0  0  0  0  0  0
   -0.8399    1.9566   -0.1951 C   0  0  1  0  0  0  0  0  0  0  0  0
   -1.6740    2.3368   -1.4014 C   0  0  0  0  0  0  0  0  0  0  0  0
   -0.6413    2.8190   -2.2967 C   0  0  0  0  0  0  0  0  0  0  0  0
   -1.8909    0.9952    0.5377 C   0  0  0  0  0  0  0  0  0  0  0  0
   -1.9439   -0.0302   -0.2312 O   0  0  0  0  0  0  0  0  0  0  0  0
   -0.5558    4.1578   -2.0841 F   0  0  0  0  0  0  0  0  0  0  0  0
   -1.1158    2.5945   -3.5285 F   0  0  0  0  0  0  0  0  0  0  0  0
   -2.7738    1.3831    2.3143 N   0  0  0  0  0  0  0  0  0  0  0  0
   -3.7154    2.6339    2.8109 C   0  0  0  0  0  0  0  0  0  0  0  0
   -2.1149    1.1810    3.9270 C   0  0  0  0  0  0  0  0  0  0  0  0
   -3.3705    1.2705    4.7411 C   0  0  0  0  0  0  0  0  0  0  0  0
   -4.1739    2.4107    4.1863 C   0  0  0  0  0  0  0  0  0  0  0  0
  1  3  1  0
  1 16  1  0
  2  1  2  0
  4  3  1  0
  4  5  1  0
  5  6  1  0
  5  7  1  0
  6 10  1  0
  7 15  1  0
  8  6  2  0
  9  7  2  0
 10 15  2  0
 10 11  1  0
 11 12  2  0
 12 13  1  0
 14 13  2  0
 15 14  1  0
 16 17  1  0
 18 16  1  0
 18 19  1  0
 18 21  1  1
 19 20  1  0
 20 17  1  0
 20 23  1  0
 21 22  2  0
 21 25  1  0
 24 20  1  0
 25 26  1  0
 25 27  1  0
 26 29  1  0
 27 28  1  0
 28 29  1  0
M  END
>  <DRUGBANK_ID>  (1) 
DB08739

>  <COMMON_NAME>  (1) 
2-{3-[(2S)-4,4-difluoro-2-(pyrrolidin-1-ylcarbonyl)pyrrolidin-1-yl]-3-oxopropyl}-isoindole-1,3(2H)-dione

$$$$
