G95
     RDKit          3D

 26 29  0  0  0  0  0  0  0  0999 V2000
    0.9696    0.8655    2.2974 C   0  0  0  0  0  0  0  0  0  0  0  0
    0.3611   -0.3067    1.4492 C   0  0  2  0  0  0  0  0  0  0  0  0
   -1.7951   -1.4435    2.0425 C   0  0  0  0  0  0  0  0  0  0  0  0
   -3.2514   -1.3596    1.9466 C   0  0  0  0  0  0  0  0  0  0  0  0
   -4.0280   -0.9273    0.8867 C   0  0  0  0  0  0  0  0  0  0  0  0
   -7.9637   -2.6258    2.3376 C   0  0  0  0  0  0  0  0  0  0  0  0
   -9.2397   -2.7668    2.8704 C   0  0  0  0  0  0  0  0  0  0  0  0
   -7.0318   -1.7993    2.9837 C   0  0  0  0  0  0  0  0  0  0  0  0
   -5.7052   -1.5407    2.4079 C   0  0  0  0  0  0  0  0  0  0  0  0
   -5.4273   -1.0474    1.1468 C   0  0  0  0  0  0  0  0  0  0  0  0
   -4.2468   -1.9130    3.2399 S   0  0  0  0  0  0  0  0  0  0  0  0
   -1.1992   -2.4167    2.5118 O   0  0  0  0  0  0  0  0  0  0  0  0
    2.3445    1.2602    1.9348 N   0  0  0  0  0  0  0  0  0  0  0  0
   -7.8609    0.0167    6.0687 C   0  0  0  0  0  0  0  0  0  0  0  0
   -6.9135   -0.2213    5.0945 C   0  0  0  0  0  0  0  0  0  0  0  0
   -7.4625   -1.1435    4.1571 C   0  0  0  0  0  0  0  0  0  0  0  0
    0.8183   -0.1723   -0.0054 C   0  0  0  0  0  0  0  0  0  0  0  0
   -1.1035   -0.3509    1.5542 N   0  0  0  0  0  0  0  0  0  0  0  0
    0.1188    0.6379   -0.9092 C   0  0  0  0  0  0  0  0  0  0  0  0
    0.6509    0.9284   -2.1633 C   0  0  0  0  0  0  0  0  0  0  0  0
    1.9131    0.4583   -2.5151 C   0  0  0  0  0  0  0  0  0  0  0  0
   -9.6953   -2.1666    3.9904 N   0  0  0  0  0  0  0  0  0  0  0  0
    2.6436   -0.3138   -1.6168 C   0  0  0  0  0  0  0  0  0  0  0  0
    2.0764   -0.6812   -0.3954 C   0  0  0  0  0  0  0  0  0  0  0  0
   -8.7705   -1.3862    4.5784 C   0  0  0  0  0  0  0  0  0  0  0  0
   -8.9888   -0.6855    5.7335 N   0  0  0  0  0  0  0  0  0  0  0  0
  1 13  1  0
  2 18  1  0
  2 17  1  0
  2  1  1  1
  3  4  1  0
  3 12  2  0
  3 18  1  0
  4  5  2  0
  4 11  1  0
  5 10  1  0
  6  7  2  0
  6  8  1  0
  7 22  1  0
  8  9  1  0
  8 16  2  0
  9 10  2  0
  9 11  1  0
 14 15  2  0
 14 26  1  0
 15 16  1  0
 16 25  1  0
 17 19  2  0
 17 24  1  0
 19 20  1  0
 20 21  2  0
 21 23  1  0
 22 25  2  0
 23 24  2  0
 25 26  1  0
M  END
>  <DRUGBANK_ID>  (1) 
DB07812

>  <COMMON_NAME>  (1) 
N-[(1S)-2-amino-1-phenylethyl]-5-(1H-pyrrolo[2,3-b]pyridin-4-yl)thiophene-2-carboxamide

$$$$
