
     RDKit          3D

 14 13  0  0  0  0  0  0  0  0999 V2000
    0.5441    0.5800    0.2917 C   0  0  0  0  0  0  0  0  0  0  0  0
   -0.1729    0.5345    1.5914 C   0  0  1  0  0  0  0  0  0  0  0  0
   -1.0481    1.7030    1.4499 N   0  0  0  0  0  0  0  0  0  0  0  0
   -0.7848   -0.8540    1.7621 C   0  0  0  0  0  0  0  0  0  0  0  0
    0.1965   -2.0389    1.8998 C   0  0  0  0  0  0  0  0  0  0  0  0
    1.5098   -1.9206    3.1661 S   0  0  0  0  0  0  0  0  0  0  0  0
    2.6983   -0.6530    2.5529 C   0  0  0  0  0  0  0  0  0  0  0  0
    3.5195   -0.9344    1.2642 C   0  0  0  0  0  0  0  0  0  0  0  0
    2.7811   -1.1078   -0.0140 N   0  0  0  0  0  0  0  0  0  0  0  0
    2.8432   -0.3297   -1.1656 C   0  0  0  0  0  0  0  0  0  0  0  0
    1.8506   -0.4963   -2.3375 C   0  0  0  0  0  0  0  0  0  0  0  0
    3.5681    0.7480   -1.1332 N   0  0  0  0  0  0  0  0  0  0  0  0
    0.0711    0.1006   -0.7140 O   0  0  0  0  0  0  0  0  0  0  0  0
    1.5568    1.4890    0.3966 O   0  0  0  0  0  0  0  0  0  0  0  0
  1  2  1  0
  1 13  2  0
  1 14  1  0
  2  3  1  6
  2  4  1  0
  4  5  1  0
  5  6  1  0
  6  7  1  0
  7  8  1  0
  8  9  1  0
  9 10  1  0
 10 11  1  0
 10 12  2  0
M  END
>  <DRUGBANK_ID>  (1) 
DB12237

>  <COMMON_NAME>  (1) 
GW-274150

>  <CAS_NUMBER>  (1) 
210354-22-6

>  <UNII>  (1) 
0ZZF1V8G63

$$$$
