
     RDKit          3D

 10 10  0  0  0  0  0  0  0  0999 V2000
    1.3616   -0.2209    0.0579 C   0  0  0  0  0  0  0  0  0  0  0  0
    0.4694   -1.3013    0.0378 C   0  0  0  0  0  0  0  0  0  0  0  0
    0.8592    1.0855    0.0180 C   0  0  0  0  0  0  0  0  0  0  0  0
    2.8438   -0.4827    0.1139 C   0  0  0  0  0  0  0  0  0  0  0  0
   -0.9043   -1.0813   -0.0016 C   0  0  0  0  0  0  0  0  0  0  0  0
   -0.5179    1.3034    0.0355 C   0  0  0  0  0  0  0  0  0  0  0  0
    3.5374    0.0668   -1.0124 O   0  0  0  0  0  0  0  0  0  0  0  0
   -1.3975    0.2212    0.0027 C   0  0  0  0  0  0  0  0  0  0  0  0
    3.2376   -0.4921   -2.2096 C   0  0  0  0  0  0  0  0  0  0  0  0
    2.4671   -1.4171   -2.4284 O   0  0  0  0  0  0  0  0  0  0  0  0
  1  2  2  0
  1  3  1  0
  1  4  1  0
  2  5  1  0
  3  6  2  0
  4  7  1  0
  5  8  2  0
  6  8  1  0
  7  9  1  0
  9 10  2  0
M  END
>  <DRUGBANK_ID>  (1) 
DB04569

>  <SECONDARY_ACCESSION_NUMBERS>  (1) 
EXPT02593

>  <COMMON_NAME>  (1) 
Benzyl formate

>  <CAS_NUMBER>  (1) 
104-57-4

>  <UNII>  (1) 
79GJF97O0Y

>  <SYNONYMS>  (1) 
Phenylmethyl formate

$$$$
