1247
     RDKit          3D

 17 18  0  0  0  0  0  0  0  0999 V2000
   -0.0584    1.0667   -0.0314 O   0  0  0  0  0  0  0  0  0  0  0  0
   -3.6841   -1.0267    0.0377 O   0  0  0  0  0  0  0  0  0  0  0  0
   -1.4374   -3.8260    0.0495 N   0  0  0  0  0  0  0  0  0  0  0  0
   -2.5424   -2.9542    0.0312 N   0  0  0  0  0  0  0  0  0  0  0  0
   -1.3717    0.6073   -0.0039 N   0  0  0  0  0  0  0  0  0  0  0  0
   -1.1838   -4.5312   -1.2179 C   0  0  0  0  0  0  0  0  0  0  0  0
   -1.2440   -3.6732   -2.4593 C   0  0  0  0  0  0  0  0  0  0  0  0
   -2.0955   -4.0315   -3.5056 C   0  0  0  0  0  0  0  0  0  0  0  0
   -0.4961   -2.4983   -2.5972 C   0  0  0  0  0  0  0  0  0  0  0  0
   -1.3209   -0.7414    0.1035 C   0  0  0  0  0  0  0  0  0  0  0  0
   -2.5688   -1.5484    0.0558 C   0  0  0  0  0  0  0  0  0  0  0  0
   -2.2497   -3.1916   -4.6094 C   0  0  0  0  0  0  0  0  0  0  0  0
   -0.7457   -1.5943   -3.6260 C   0  0  0  0  0  0  0  0  0  0  0  0
    0.0370   -1.1216    0.2290 C   0  0  0  0  0  0  0  0  0  0  0  0
    0.7777    0.0106    0.0782 C   0  0  0  0  0  0  0  0  0  0  0  0
   -1.6004   -1.9590   -4.6546 C   0  0  0  0  0  0  0  0  0  0  0  0
    2.2366    0.1821    0.0140 C   0  0  0  0  0  0  0  0  0  0  0  0
  1  5  1  0
  1 15  1  0
  2 11  2  0
  3  4  1  0
  3  6  1  0
  4 11  1  0
  5 10  2  0
  6  7  1  0
  7  8  2  0
  7  9  1  0
  8 12  1  0
  9 13  2  0
 10 11  1  0
 10 14  1  0
 12 16  2  0
 13 16  1  0
 14 15  2  0
 15 17  1  0
M  END
>  <DRUGBANK_ID>  (1) 
DB01247

>  <SECONDARY_ACCESSION_NUMBERS>  (1) 
APRD00701

>  <COMMON_NAME>  (1) 
Isocarboxazid

>  <CAS_NUMBER>  (1) 
59-63-2

>  <UNII>  (1) 
34237V843T

>  <SYNONYMS>  (1) 
Isocarboxazid; Isocarboxazida; Isocarboxazide; Isocarboxazidum

$$$$
