FRL
     RDKit          3D

 30 33  0  0  0  0  0  0  0  0999 V2000
    0.3506    1.1644   -0.0997 C   0  0  0  0  0  0  0  0  0  0  0  0
    1.7524    1.1243   -0.2107 C   0  0  0  0  0  0  0  0  0  0  0  0
    2.4632   -0.0940   -0.1570 C   0  0  0  0  0  0  0  0  0  0  0  0
    1.7224   -1.2733   -0.0628 C   0  0  0  0  0  0  0  0  0  0  0  0
    0.3216   -1.2441   -0.0256 C   0  0  0  0  0  0  0  0  0  0  0  0
   -0.3599   -0.0283   -0.0307 C   0  0  0  0  0  0  0  0  0  0  0  0
   -2.0796   -0.0100    0.0223 Cl  0  0  0  0  0  0  0  0  0  0  0  0
    3.9317   -0.1706   -0.1669 C   0  0  0  0  0  0  0  0  0  0  0  0
    4.7283   -0.6517   -1.0934 N   0  0  0  0  0  0  0  0  0  0  0  0
    5.9913   -0.4379   -0.5905 C   0  0  0  0  0  0  0  0  0  0  0  0
    5.9416    0.1664    0.6531 C   0  0  0  0  0  0  0  0  0  0  0  0
    4.6018    0.2335    0.9659 O   0  0  0  0  0  0  0  0  0  0  0  0
    7.2353   -0.7109   -1.1527 C   0  0  0  0  0  0  0  0  0  0  0  0
    8.3838   -0.3141   -0.4588 C   0  0  0  0  0  0  0  0  0  0  0  0
    8.2990    0.3660    0.7610 C   0  0  0  0  0  0  0  0  0  0  0  0
    7.0605    0.6508    1.3725 C   0  0  0  0  0  0  0  0  0  0  0  0
    7.0525    1.4615    2.6507 C   0  0  0  0  0  0  0  0  0  0  0  0
    6.3493    2.8148    2.4937 C   0  0  0  0  0  0  0  0  0  0  0  0
    4.8371    2.7150    2.1366 C   0  0  1  0  0  0  0  0  0  0  0  0
    4.1078    1.8439    3.2078 C   0  0  1  0  0  0  0  0  0  0  0  0
    4.1142    2.4794    4.4805 O   0  0  0  0  0  0  0  0  0  0  0  0
    4.2036    4.0072    1.9169 N   0  0  0  0  0  0  0  0  0  0  0  0
    2.6772    1.4702    2.9013 C   0  0  0  0  0  0  0  0  0  0  0  0
    2.9481    4.2501    1.4418 C   0  0  0  0  0  0  0  0  0  0  0  0
    2.7032    5.5322    1.3463 N   0  0  0  0  0  0  0  0  0  0  0  0
    3.8750    6.1525    1.7100 C   0  0  0  0  0  0  0  0  0  0  0  0
    4.8325    5.2058    2.0031 C   0  0  0  0  0  0  0  0  0  0  0  0
    4.0634    7.5879    1.7576 C   0  0  0  0  0  0  0  0  0  0  0  0
    3.1794    8.4132    1.5188 O   0  0  0  0  0  0  0  0  0  0  0  0
    5.3226    7.9966    2.0989 N   0  0  0  0  0  0  0  0  0  0  0  0
  1  2  2  0
  1  6  1  0
  2  3  1  0
  3  4  2  0
  3  8  1  0
  4  5  1  0
  5  6  2  0
  6  7  1  0
  8  9  2  0
  8 12  1  0
  9 10  1  0
 10 11  2  0
 10 13  1  0
 11 12  1  0
 11 16  1  0
 13 14  2  0
 14 15  1  0
 15 16  2  0
 16 17  1  0
 17 18  1  0
 19 18  1  1
 19 20  1  0
 19 22  1  0
 20 21  1  0
 20 23  1  6
 22 24  1  0
 22 27  1  0
 24 25  2  0
 25 26  1  0
 26 27  2  0
 26 28  1  0
 28 29  2  0
 28 30  1  0
M  END
>  <DRUGBANK_ID>  (1) 
DB07786

>  <COMMON_NAME>  (1) 
1-((1R,2S)-1-{2-[2-(4-CHLOROPHENYL)-1,3-BENZOXAZOL-7-YL]ETHYL}-2-HYDROXYPROPYL)-1H-IMIDAZOLE-4-CARBOXAMIDE

$$$$
