
     RDKit          3D

 33 38  0  0  0  0  0  0  0  0999 V2000
   -2.5733    0.4925    0.0007 C   0  0  0  0  0  0  0  0  0  0  0  0
   -1.1253    0.1810    0.0253 C   0  0  0  0  0  0  0  0  0  0  0  0
   -0.7047   -1.0891   -0.0093 N   0  0  0  0  0  0  0  0  0  0  0  0
    0.6765   -1.0283   -0.0158 O   0  0  0  0  0  0  0  0  0  0  0  0
    1.0793    0.2712    0.0132 C   0  0  0  0  0  0  0  0  0  0  0  0
    2.5375    0.5011    0.0061 C   0  0  0  0  0  0  0  0  0  0  0  0
   -0.0316    1.0840    0.0573 C   0  0  0  0  0  0  0  0  0  0  0  0
   -0.0116    2.5286    0.0869 C   0  0  0  0  0  0  0  0  0  0  0  0
    0.6147    3.2329   -0.9467 C   0  0  0  0  0  0  0  0  0  0  0  0
    0.5901    4.6514   -1.0629 C   0  0  0  0  0  0  0  0  0  0  0  0
   -0.0570    5.3237   -0.0038 C   0  0  0  0  0  0  0  0  0  0  0  0
   -0.2419    6.6687    0.1981 N   0  0  0  0  0  0  0  0  0  0  0  0
   -0.8379    6.7862    1.3563 C   0  0  0  0  0  0  0  0  0  0  0  0
   -1.1013    5.5609    1.9032 N   0  0  0  0  0  0  0  0  0  0  0  0
   -0.6216    4.6048    1.0459 C   0  0  0  0  0  0  0  0  0  0  0  0
   -0.6443    3.2138    1.1209 C   0  0  0  0  0  0  0  0  0  0  0  0
   -1.1585    8.1274    1.9800 C   0  0  0  0  0  0  0  0  0  0  0  0
   -0.6270    8.3887    3.3724 C   0  0  0  0  0  0  0  0  0  0  0  0
   -2.0969    8.2337    3.1598 C   0  0  0  0  0  0  0  0  0  0  0  0
    1.2913    5.4017   -2.2238 C   0  0  0  0  0  0  0  0  0  0  0  0
    0.3182    6.2597   -2.8631 O   0  0  0  0  0  0  0  0  0  0  0  0
    2.4579    6.2582   -1.6609 C   0  0  0  0  0  0  0  0  0  0  0  0
    3.4845    5.6235   -0.9461 C   0  0  0  0  0  0  0  0  0  0  0  0
    4.5407    6.3746   -0.4475 C   0  0  0  0  0  0  0  0  0  0  0  0
    4.5502    7.7456   -0.6569 C   0  0  0  0  0  0  0  0  0  0  0  0
    3.5030    8.3096   -1.3654 C   0  0  0  0  0  0  0  0  0  0  0  0
    2.4714    7.6053   -1.8719 N   0  0  0  0  0  0  0  0  0  0  0  0
    1.7819    4.4524   -3.3596 C   0  0  0  0  0  0  0  0  0  0  0  0
    3.1014    4.4171   -3.6911 N   0  0  0  0  0  0  0  0  0  0  0  0
    3.5006    3.5522   -4.6440 C   0  0  0  0  0  0  0  0  0  0  0  0
    2.6519    2.6563   -5.2655 C   0  0  0  0  0  0  0  0  0  0  0  0
    1.3116    2.6650   -4.9107 C   0  0  0  0  0  0  0  0  0  0  0  0
    0.8641    3.5915   -3.9793 C   0  0  0  0  0  0  0  0  0  0  0  0
  1  2  1  0
  2  3  2  0
  2  7  1  0
  3  4  1  0
  4  5  1  0
  5  6  1  0
  5  7  2  0
  7  8  1  0
  8  9  2  0
  8 16  1  0
  9 10  1  0
 10 11  2  0
 10 20  1  0
 11 12  1  0
 11 15  1  0
 12 13  2  0
 13 14  1  0
 13 17  1  0
 14 15  1  0
 15 16  2  0
 17 18  1  0
 17 19  1  0
 18 19  1  0
 20 21  1  0
 20 22  1  0
 20 28  1  0
 22 23  2  0
 22 27  1  0
 23 24  1  0
 24 25  2  0
 25 26  1  0
 26 27  2  0
 28 29  2  0
 28 33  1  0
 29 30  1  0
 30 31  2  0
 31 32  1  0
 32 33  2  0
M  END
>  <DRUGBANK_ID>  (1) 
DB14970

>  <COMMON_NAME>  (1) 
Alobresib

>  <CAS_NUMBER>  (1) 
1637771-14-2

>  <UNII>  (1) 
3QBL0BLP3D

>  <SYNONYMS>  (1) 
Alobresib

$$$$
