
     RDKit          3D

 10 10  0  0  1  0  0  0  0  0999 V2000
    1.0317   -0.0580   -0.0090 C   0  0  0  0  0  0  0  0  0  0  0  0
    0.5739    3.2906   -1.9162 C   0  0  0  0  0  0  0  0  0  0  0  0
    0.6312    0.8806   -1.1421 C   0  0  2  0  0  0  0  0  0  0  0  0
    1.0631    2.3282   -0.8333 C   0  0  1  0  0  0  0  0  0  0  0  0
   -0.9208    3.1039   -2.1621 C   0  0  1  0  0  0  0  0  0  0  0  0
   -1.2297    1.6160   -2.4470 C   0  0  1  0  0  0  0  0  0  0  0  0
    2.4764    2.4363   -0.7060 O   0  0  0  0  0  0  0  0  0  0  0  0
   -1.6358    3.5675   -1.0098 O   0  0  0  0  0  0  0  0  0  0  0  0
   -0.6938    1.1563   -3.6776 O   0  0  0  0  0  0  0  0  0  0  0  0
   -0.7814    0.7949   -1.3599 O   0  0  0  0  0  0  0  0  0  0  0  0
  3  1  1  1
  4  2  1  0
  4  3  1  0
  4  7  1  6
  5  2  1  0
  5  8  1  1
  6  5  1  0
  6  9  1  6
 10  3  1  0
 10  6  1  0
M  END
>  <DRUGBANK_ID>  (1) 
DB04028

>  <SECONDARY_ACCESSION_NUMBERS>  (1) 
EXPT03143

>  <COMMON_NAME>  (1) 
Tyvelose

>  <CAS_NUMBER>  (1) 
5658-12-8

>  <SYNONYMS>  (1) 
3,6-dideoxy-α-D-arabino-hexopyranose; α-Tyv; α-tyvelopyranose

$$$$
