I15
     RDKit          3D

 22 24  0  0  0  0  0  0  0  0999 V2000
   -0.2189   -0.7459    0.0054 C   0  0  0  0  0  0  0  0  0  0  0  0
    1.0250   -1.4298   -0.0015 C   0  0  0  0  0  0  0  0  0  0  0  0
   -0.2406    0.6496    0.0034 C   0  0  0  0  0  0  0  0  0  0  0  0
   -1.5973   -1.1159    0.0051 C   0  0  0  0  0  0  0  0  0  0  0  0
    1.0160   -2.8144   -0.0063 O   0  0  0  0  0  0  0  0  0  0  0  0
    2.1787   -0.6256   -0.0373 C   0  0  0  0  0  0  0  0  0  0  0  0
   -1.5657    0.9990    0.0016 N   0  0  0  0  0  0  0  0  0  0  0  0
    0.9137    1.4364    0.0041 C   0  0  0  0  0  0  0  0  0  0  0  0
   -2.4078   -0.0471    0.0020 N   0  0  0  0  0  0  0  0  0  0  0  0
   -2.1715   -2.4864    0.0028 C   0  0  0  0  0  0  0  0  0  0  0  0
    2.2032   -3.5070    0.0234 C   0  0  0  0  0  0  0  0  0  0  0  0
    2.1291    0.7618   -0.0099 C   0  0  0  0  0  0  0  0  0  0  0  0
    3.1002   -3.3977    1.0917 C   0  0  0  0  0  0  0  0  0  0  0  0
    2.4766   -4.3675   -1.0415 C   0  0  0  0  0  0  0  0  0  0  0  0
    4.3285   -4.0637    1.0408 C   0  0  0  0  0  0  0  0  0  0  0  0
    3.6876   -5.0673   -1.0755 C   0  0  0  0  0  0  0  0  0  0  0  0
    4.6193   -4.9020   -0.0421 C   0  0  0  0  0  0  0  0  0  0  0  0
    5.2968   -3.8711    2.0800 C   0  0  0  0  0  0  0  0  0  0  0  0
    3.9791   -5.9484   -2.1667 C   0  0  0  0  0  0  0  0  0  0  0  0
    4.2179   -6.6711   -3.0455 N   0  0  0  0  0  0  0  0  0  0  0  0
    3.4061   -1.1580   -0.1091 F   0  0  0  0  0  0  0  0  0  0  0  0
    6.0888   -3.7222    2.9171 N   0  0  0  0  0  0  0  0  0  0  0  0
  1  2  2  0
  1  3  1  0
  1  4  1  0
  2  5  1  0
  2  6  1  0
  3  7  1  0
  3  8  2  0
  4  9  2  0
  4 10  1  0
  5 11  1  0
  6 12  2  0
  6 21  1  0
  7  9  1  0
  8 12  1  0
 11 13  2  0
 11 14  1  0
 13 15  1  0
 14 16  2  0
 15 17  2  0
 15 18  1  0
 16 17  1  0
 16 19  1  0
 18 22  3  0
 19 20  3  0
M  END
>  <DRUGBANK_ID>  (1) 
DB07935

>  <COMMON_NAME>  (1) 
5-[(5-fluoro-3-methyl-1H-indazol-4-yl)oxy]benzene-1,3-dicarbonitrile

$$$$
