
     RDKit          3D

 19 21  0  0  1  0  0  0  0  0999 V2000
   -2.0852   -0.7411   -0.0030 C   0  0  0  0  0  0  0  0  0  0  0  0
   -2.0311    0.6484   -0.0187 C   0  0  0  0  0  0  0  0  0  0  0  0
   -0.2330    4.8829    0.9487 C   0  0  0  0  0  0  0  0  0  0  0  0
    2.3154   -0.0229    0.0349 C   0  0  0  0  0  0  0  0  0  0  0  0
   -0.9006   -1.4793    0.0093 C   0  0  0  0  0  0  0  0  0  0  0  0
    1.2370    4.5650    0.6227 C   0  0  2  0  0  0  0  0  0  0  0  0
    0.3019   -0.7386    0.0278 C   0  0  0  0  0  0  0  0  0  0  0  0
    1.5788    4.6357   -0.8691 C   0  0  2  0  0  0  0  0  0  0  0  0
    1.5555    3.1812   -1.3158 C   0  0  2  0  0  0  0  0  0  0  0  0
    0.2136    0.6527    0.0177 C   0  0  0  0  0  0  0  0  0  0  0  0
    1.9964    2.4507   -0.0527 C   0  0  2  0  0  0  0  0  0  0  0  0
   -0.9257   -2.8663   -0.0409 N   0  0  0  0  0  0  0  0  0  0  0  0
   -0.9002    1.3927   -0.0380 N   0  0  0  0  0  0  0  0  0  0  0  0
    1.6191   -1.1423    0.0323 N   0  0  0  0  0  0  0  0  0  0  0  0
    1.5108    1.0880    0.0467 N   0  0  0  0  0  0  0  0  0  0  0  0
   -1.2064    4.0769    0.3115 O   0  0  0  0  0  0  0  0  0  0  0  0
    2.8909    5.1845   -1.0857 O   0  0  0  0  0  0  0  0  0  0  0  0
    2.4160    2.9194   -2.4234 O   0  0  0  0  0  0  0  0  0  0  0  0
    1.5869    3.2370    1.0817 O   0  0  0  0  0  0  0  0  0  0  0  0
  2  1  2  0
  5  1  1  0
  6  3  1  6
  7  5  2  0
  8  6  1  0
  8 17  1  1
  9  8  1  0
  9 18  1  6
 10  7  1  0
 11  9  1  0
 11 15  1  1
 12  5  1  0
 13  2  1  0
 13 10  2  0
 14  4  2  0
 14  7  1  0
 15  4  1  0
 15 10  1  0
 16  3  1  0
 19  6  1  0
 19 11  1  0
M  END
>  <DRUGBANK_ID>  (1) 
DB04218

>  <SECONDARY_ACCESSION_NUMBERS>  (1) 
EXPT00071

>  <COMMON_NAME>  (1) 
1-Deaza-Adenosine

$$$$
