
     RDKit          3D

  4  3  0  0  0  0  0  0  0  0999 V2000
    1.0617   -0.0420   -0.0665 O   0  0  0  0  0  0  0  0  0  0  0  0
    0.4450   -1.1321   -1.4281 As  0  0  0  0  0  3  0  0  0  0  0  0
    1.0617   -2.8563   -1.1649 O   0  0  0  0  0  0  0  0  0  0  0  0
   -1.4050   -1.1321   -1.4281 O   0  0  0  0  0  0  0  0  0  0  0  0
  1  2  1  0
  2  3  1  0
  2  4  1  0
M  END
>  <DRUGBANK_ID>  (1) 
DB04456

>  <SECONDARY_ACCESSION_NUMBERS>  (1) 
EXPT03008

>  <COMMON_NAME>  (1) 
Arsenous acid

>  <CAS_NUMBER>  (1) 
13464-58-9

>  <UNII>  (1) 
935XD1L5K2

>  <SYNONYMS>  (1) 
arsenic trihydroxide; arsenous acid; arsorous acid; trihydroxyarsenite(III)

$$$$
