1527
     RDKit          3D

 12 12  0  0  0  0  0  0  0  0999 V2000
   -2.1011   -0.1515    0.0053 Cl  0  0  0  0  0  0  0  0  0  0  0  0
    1.3319    3.7544    1.3246 N   0  0  0  0  0  0  0  0  0  0  0  0
   -0.0868    3.3639    1.2194 C   0  0  0  0  0  0  0  0  0  0  0  0
   -0.3789    2.5183   -0.0627 C   0  0  0  0  0  0  0  0  0  0  0  0
   -0.8945    4.6700    1.1556 C   0  0  0  0  0  0  0  0  0  0  0  0
   -0.4770    2.5860    2.4869 C   0  0  0  0  0  0  0  0  0  0  0  0
    0.3120    1.1643   -0.1170 C   0  0  0  0  0  0  0  0  0  0  0  0
   -0.3763   -0.0561   -0.0528 C   0  0  0  0  0  0  0  0  0  0  0  0
    1.7181    1.1238   -0.1923 C   0  0  0  0  0  0  0  0  0  0  0  0
    0.3279   -1.2670   -0.0205 C   0  0  0  0  0  0  0  0  0  0  0  0
    2.4185   -0.0769   -0.0848 C   0  0  0  0  0  0  0  0  0  0  0  0
    1.7226   -1.2736   -0.0098 C   0  0  0  0  0  0  0  0  0  0  0  0
  1  8  1  0
  2  3  1  0
  3  4  1  0
  3  5  1  0
  3  6  1  0
  4  7  1  0
  7  8  2  0
  7  9  1  0
  8 10  1  0
  9 11  2  0
 10 12  2  0
 11 12  1  0
M  END
>  <DRUGBANK_ID>  (1) 
DB01527

>  <COMMON_NAME>  (1) 
Clortermine

>  <CAS_NUMBER>  (1) 
10389-73-8

>  <UNII>  (1) 
4FA88HM3IX

>  <SYNONYMS>  (1) 
Clortermine

$$$$
