
     RDKit          3D

 41 41  0  0  1  0  0  0  0  0999 V2000
   -0.6919    0.8279    0.9423 C   0  0  0  0  0  0  0  0  0  0  0  0
   -1.8508    1.7694    1.2266 C   0  0  1  0  0  0  0  0  0  0  0  0
   -1.4206    2.8020    2.1803 N   0  0  0  0  0  0  0  0  0  0  0  0
   -1.4699    4.2209    1.7991 C   0  0  0  0  0  0  0  0  0  0  0  0
   -1.0979    5.1136    2.6237 O   0  0  0  0  0  0  0  0  0  0  0  0
   -1.9576    4.7328    0.4536 C   0  0  2  0  0  0  0  0  0  0  0  0
   -1.7865    6.2419    0.3934 C   0  0  0  0  0  0  0  0  0  0  0  0
   -2.7392    6.8200   -0.6404 C   0  0  0  0  0  0  0  0  0  0  0  0
   -4.1702    6.4811   -0.2561 C   0  0  0  0  0  0  0  0  0  0  0  0
   -4.4825    7.0740    1.1082 C   0  0  0  0  0  0  0  0  0  0  0  0
   -4.3219    8.5342    1.0563 N   0  0  0  0  0  0  0  0  0  0  0  0
   -5.4636    9.4104    1.3557 C   0  0  0  0  0  0  0  0  0  0  0  0
   -5.3247   10.6729    1.3109 O   0  0  0  0  0  0  0  0  0  0  0  0
   -6.7217    8.8461    1.6952 O   0  0  0  0  0  0  0  0  0  0  0  0
   -7.8246    9.6924    1.9845 C   0  0  0  0  0  0  0  0  0  0  0  0
   -7.4862   10.5772    3.1732 C   0  0  0  0  0  0  0  0  0  0  0  0
   -7.6256   11.8927    3.0581 C   0  0  0  0  0  0  0  0  0  0  0  0
   -7.4685   12.7109    4.1507 C   0  0  0  0  0  0  0  0  0  0  0  0
   -7.0768   12.2038    5.3585 C   0  0  0  0  0  0  0  0  0  0  0  0
   -7.0209   10.8877    5.4527 C   0  0  0  0  0  0  0  0  0  0  0  0
   -7.0303   10.0030    4.3484 C   0  0  0  0  0  0  0  0  0  0  0  0
   -3.3781    4.3937    0.2860 N   0  0  0  0  0  0  0  0  0  0  0  0
   -3.8038    3.5459   -0.8369 C   0  0  0  0  0  0  0  0  0  0  0  0
   -5.0319    3.2527   -0.9819 O   0  0  0  0  0  0  0  0  0  0  0  0
   -2.7752    3.0200   -1.8247 C   0  0  0  0  0  0  0  0  0  0  0  0
   -2.0711    4.1892   -2.4937 C   0  0  0  0  0  0  0  0  0  0  0  0
   -1.3018    5.0075   -1.4694 C   0  0  2  0  0  0  0  0  0  0  0  0
   -2.2206    5.9340   -0.7924 N   0  0  0  0  0  0  0  0  0  0  0  0
   -3.6401    5.5535   -0.8252 C   0  0  0  0  0  0  0  0  0  0  0  0
   -4.5111    6.3007   -0.2792 O   0  0  0  0  0  0  0  0  0  0  0  0
   -4.0381    4.3509   -1.4670 O   0  0  0  0  0  0  0  0  0  0  0  0
   -5.4094    3.9833   -1.4987 C   0  0  0  0  0  0  0  0  0  0  0  0
   -5.9256    3.8293   -0.0773 C   0  0  0  0  0  0  0  0  0  0  0  0
   -6.2068    5.0622   -2.2132 C   0  0  0  0  0  0  0  0  0  0  0  0
   -5.5635    2.6650   -2.2394 C   0  0  0  0  0  0  0  0  0  0  0  0
   -0.2095    5.7988   -2.1702 C   0  0  0  0  0  0  0  0  0  0  0  0
    1.1512    5.5958   -1.8184 O   0  0  0  0  0  0  0  0  0  0  0  0
   -0.5140    6.6422   -3.0708 O   0  0  0  0  0  0  0  0  0  0  0  0
   -2.3201    2.4643   -0.1361 B   0  0  0  0  0  0  0  0  0  0  0  0
   -3.7244    2.2767   -0.6288 O   0  0  0  0  0  0  0  0  0  0  0  0
   -1.3557    3.3033   -0.9210 O   0  0  0  0  0  0  0  0  0  0  0  0
  2  1  1  6
  2  3  1  0
  2 39  1  0
  3  4  1  0
  4  5  2  0
  6 22  1  0
  6  7  1  1
  6  4  1  0
  7  8  1  0
  8  9  1  0
  9 10  1  0
 10 11  1  0
 11 12  1  0
 12 13  2  0
 12 14  1  0
 14 15  1  0
 15 16  1  0
 16 17  2  0
 16 21  1  0
 17 18  1  0
 18 19  2  0
 19 20  1  0
 20 21  2  0
 22 23  1  0
 23 24  2  0
 23 25  1  0
 25 26  1  0
 27 36  1  0
 27 28  1  0
 27 26  1  6
 28 29  1  0
 29 30  2  0
 29 31  1  0
 31 32  1  0
 32 33  1  0
 32 34  1  0
 32 35  1  0
 36 37  1  0
 36 38  2  0
 39 40  1  0
 39 41  1  0
M  END
>  <DRUGBANK_ID>  (1) 
DB04647

>  <COMMON_NAME>  (1) 
BOC-GAMMA-D-GLU-L-LYS(CBZ)-D-BOROALA

$$$$
