
     RDKit          3D

 18 19  0  0  0  0  0  0  0  0999 V2000
    1.7207    1.2368    0.0123 C   0  0  0  0  0  0  0  0  0  0  0  0
    0.3099    1.2949   -0.0353 C   0  0  0  0  0  0  0  0  0  0  0  0
   -0.4508    0.1240   -0.0180 C   0  0  0  0  0  0  0  0  0  0  0  0
    0.1748   -1.0882    0.1543 C   0  0  0  0  0  0  0  0  0  0  0  0
    1.5375   -1.0930    0.4026 C   0  0  0  0  0  0  0  0  0  0  0  0
    2.3582    0.0051    0.1723 C   0  0  0  0  0  0  0  0  0  0  0  0
    3.7675   -0.1244    0.0956 N   0  0  0  0  0  0  0  0  0  0  0  0
    4.5778   -1.2672   -0.0044 C   0  0  0  0  0  0  0  0  0  0  0  0
    5.7921   -1.1620    0.1073 O   0  0  0  0  0  0  0  0  0  0  0  0
    4.0065   -2.6412   -0.1805 C   0  0  0  0  0  0  0  0  0  0  0  0
    4.3167   -3.5998    0.8005 C   0  0  0  0  0  0  0  0  0  0  0  0
    3.5880   -4.7923    0.8557 C   0  0  0  0  0  0  0  0  0  0  0  0
    2.5094   -5.0096   -0.0024 C   0  0  0  0  0  0  0  0  0  0  0  0
    2.2263   -4.0820   -1.0042 C   0  0  0  0  0  0  0  0  0  0  0  0
    3.0266   -2.9418   -1.1440 C   0  0  0  0  0  0  0  0  0  0  0  0
    2.7190   -2.0406   -2.1264 O   0  0  0  0  0  0  0  0  0  0  0  0
    4.0337   -6.1244    2.1219 Br  0  0  0  0  0  0  0  0  0  0  0  0
   -2.1649    0.1544   -0.0927 Cl  0  0  0  0  0  0  0  0  0  0  0  0
  1  2  2  0
  1  6  1  0
  2  3  1  0
  3  4  2  0
  3 18  1  0
  4  5  1  0
  5  6  2  0
  6  7  1  0
  7  8  1  0
  8  9  2  0
  8 10  1  0
 10 11  2  0
 10 15  1  0
 11 12  1  0
 12 13  2  0
 12 17  1  0
 13 14  1  0
 14 15  2  0
 15 16  1  0
M  END
>  <DRUGBANK_ID>  (1) 
DB13696

>  <COMMON_NAME>  (1) 
Bromochlorosalicylanilide

>  <CAS_NUMBER>  (1) 
3679-64-9

>  <UNII>  (1) 
6GK715PWMQ

$$$$
