
     RDKit          3D

 40 44  0  0  0  0  0  0  0  0999 V2000
   -1.8478   -0.6983   -0.4960 C   0  0  1  0  0  0  0  0  0  0  0  0
   -0.8358   -1.4969    0.3452 C   0  0  0  0  0  0  0  0  0  0  0  0
    0.5642   -1.2330    0.0078 N   0  0  0  0  0  0  0  0  0  0  0  0
   -1.9819    0.7591   -0.0063 C   0  0  0  0  0  0  0  0  0  0  0  0
    1.2073   -0.0129    0.1752 C   0  0  0  0  0  0  0  0  0  0  0  0
   -0.6993    1.6131   -0.0298 C   0  0  0  0  0  0  0  0  0  0  0  0
    0.4423    1.1309    0.8678 C   0  0  1  0  0  0  0  0  0  0  0  0
   -0.9357    0.1582   -4.1305 C   0  0  0  0  0  0  0  0  0  0  0  0
   -0.7863   -1.1013   -4.6877 C   0  0  0  0  0  0  0  0  0  0  0  0
   -1.0434   -2.2246   -3.9122 C   0  0  0  0  0  0  0  0  0  0  0  0
   -1.4267   -2.0987   -2.5805 C   0  0  0  0  0  0  0  0  0  0  0  0
   -1.5658   -0.8370   -1.9885 C   0  0  0  0  0  0  0  0  0  0  0  0
   -1.3705    0.2795   -2.8163 C   0  0  0  0  0  0  0  0  0  0  0  0
   -0.8925   -3.4413   -4.4510 F   0  0  0  0  0  0  0  0  0  0  0  0
   -1.6073   -3.2111   -1.8512 F   0  0  0  0  0  0  0  0  0  0  0  0
    0.0131    0.7549    2.2132 N   0  0  0  0  0  0  0  0  0  0  0  0
    0.2948    1.4721    3.3375 C   0  0  0  0  0  0  0  0  0  0  0  0
   -0.3841    0.9961    4.4554 N   0  0  0  0  0  0  0  0  0  0  0  0
    0.9527    2.5039    3.3214 O   0  0  0  0  0  0  0  0  0  0  0  0
   -0.7352    1.9292    5.5030 C   0  0  0  0  0  0  0  0  0  0  0  0
    0.1392    1.7777    6.7378 C   0  0  0  0  0  0  0  0  0  0  0  0
    0.1453    0.3350    7.2720 C   0  0  0  0  0  0  0  0  0  0  0  0
    0.4396   -0.6344    6.0984 C   0  0  0  0  0  0  0  0  0  0  0  0
   -0.4338   -0.4073    4.8635 C   0  0  0  0  0  0  0  0  0  0  0  0
    1.0858    0.1817    8.3934 N   0  0  0  0  0  0  0  0  0  0  0  0
    2.3276    0.1892   -0.3008 O   0  0  0  0  0  0  0  0  0  0  0  0
    1.3497   -2.3762   -0.5010 C   0  0  0  0  0  0  0  0  0  0  0  0
    1.5106   -3.5026    0.5184 C   0  0  0  0  0  0  0  0  0  0  0  0
    0.3157   -4.0199    0.8924 F   0  0  0  0  0  0  0  0  0  0  0  0
    2.2380   -4.5194    0.0111 F   0  0  0  0  0  0  0  0  0  0  0  0
    2.1207   -3.0624    1.6399 F   0  0  0  0  0  0  0  0  0  0  0  0
    2.8698   -0.4357    9.6393 N   0  0  0  0  0  0  0  0  0  0  0  0
    2.2207   -0.6654    8.4342 C   0  0  0  0  0  0  0  0  0  0  0  0
    2.1811    0.5166   10.3616 C   0  0  0  0  0  0  0  0  0  0  0  0
    1.0712    0.9037    9.6119 C   0  0  0  0  0  0  0  0  0  0  0  0
    0.2204    1.8526   10.1352 C   0  0  0  0  0  0  0  0  0  0  0  0
    0.5440    2.3757   11.3946 C   0  0  0  0  0  0  0  0  0  0  0  0
    1.6866    1.9155   12.0599 C   0  0  0  0  0  0  0  0  0  0  0  0
    2.5298    0.9787   11.5676 N   0  0  0  0  0  0  0  0  0  0  0  0
    2.6078   -1.4755    7.6014 O   0  0  0  0  0  0  0  0  0  0  0  0
  1  2  1  0
  1  4  1  0
  1 12  1  6
  2  3  1  0
  3 27  1  0
  3  5  1  0
  4  6  1  0
  5 26  2  0
  5  7  1  0
  6  7  1  0
  7 16  1  1
  8  9  2  0
  9 10  1  0
 10 11  2  0
 10 14  1  0
 11 12  1  0
 11 15  1  0
 12 13  2  0
 13  8  1  0
 16 17  1  0
 17 18  1  0
 17 19  2  0
 18 20  1  0
 18 24  1  0
 20 21  1  0
 21 22  1  0
 22 23  1  0
 22 25  1  0
 23 24  1  0
 25 35  1  0
 27 28  1  0
 28 29  1  0
 28 30  1  0
 28 31  1  0
 32 33  1  0
 33 25  1  0
 33 40  2  0
 34 32  1  0
 34 35  2  0
 35 36  1  0
 36 37  2  0
 37 38  1  0
 38 39  2  0
 39 34  1  0
M  END
>  <DRUGBANK_ID>  (1) 
DB12228

>  <SECONDARY_ACCESSION_NUMBERS>  (1) 
DB05760

>  <COMMON_NAME>  (1) 
Telcagepant

>  <CAS_NUMBER>  (1) 
781649-09-0

>  <UNII>  (1) 
D42O649ALL

>  <SYNONYMS>  (1) 
Telcagepant

$$$$
