
     RDKit          3D

 27 30  0  0  1  0  0  0  0  0999 V2000
   -2.5623   -2.3909  -22.4491 C   0  0  0  0  0  0  0  0  0  0  0  0
    0.6129    0.0167  -17.2977 C   0  0  0  0  0  0  0  0  0  0  0  0
    0.3339   -0.0066  -24.0309 C   0  0  0  0  0  0  0  0  0  0  0  0
   -0.1684   -3.8642  -18.8398 C   0  0  0  0  0  0  0  0  0  0  0  0
    0.3809   -3.5497  -20.1804 C   0  0  0  0  0  0  0  0  0  0  0  0
    0.0342   -1.8445  -15.4697 C   0  0  0  0  0  0  0  0  0  0  0  0
   -0.6735   -1.6248  -16.6433 C   0  0  0  0  0  0  0  0  0  0  0  0
    0.8067   -1.1999  -22.0088 C   0  0  0  0  0  0  0  0  0  0  0  0
    1.3789   -3.2770  -16.9877 C   0  0  0  0  0  0  0  0  0  0  0  0
    0.4918    0.9039  -21.2768 C   0  0  0  0  0  0  0  0  0  0  0  0
   -3.6367    1.9518  -23.0606 C   0  0  0  0  0  0  0  0  0  0  0  0
   -1.2575   -1.0816  -22.2979 C   0  0  1  0  0  0  0  0  0  0  0  0
    0.5692   -2.8513  -17.9621 C   0  0  0  0  0  0  0  0  0  0  0  0
    1.5013   -2.1650  -16.0689 C   0  0  0  0  0  0  0  0  0  0  0  0
   -0.2120   -2.1642  -20.3795 C   0  0  2  0  0  0  0  0  0  0  0  0
   -0.2432   -2.0061  -21.9245 C   0  0  1  0  0  0  0  0  0  0  0  0
   -0.2231    0.3396  -19.9989 C   0  0  0  0  0  0  0  0  0  0  0  0
   -3.0675    0.5224  -23.1247 C   0  0  0  0  0  0  0  0  0  0  0  0
    0.3140   -1.0093  -19.4496 C   0  0  1  0  0  0  0  0  0  0  0  0
    0.1006   -1.3450  -17.9320 C   0  0  2  0  0  0  0  0  0  0  0  0
   -0.2455   -0.1288  -22.5529 C   0  0  2  0  0  0  0  0  0  0  0  0
   -1.6590    0.3264  -22.6019 C   0  0  2  0  0  0  0  0  0  0  0  0
   -3.9815    2.2774  -24.3990 O   0  0  0  0  0  0  0  0  0  0  0  0
    2.5182   -1.5051  -15.9212 O   0  0  0  0  0  0  0  0  0  0  0  0
   -1.3384    0.7339  -19.6473 O   0  0  0  0  0  0  0  0  0  0  0  0
   -3.7846   -0.3363  -23.6254 O   0  0  0  0  0  0  0  0  0  0  0  0
   -1.3834    1.6485  -22.2882 O   0  0  0  0  0  0  0  0  0  0  0  0
  5  4  1  0
  7  6  2  0
 12  8  1  0
 12  1  1  6
 13  4  1  0
 13  9  2  0
 14  6  1  0
 14  9  1  0
 15  5  1  6
 16  8  1  6
 16 15  1  0
 17 10  1  0
 18 11  1  0
 19 15  1  0
 19 17  1  6
 20  7  1  0
 20 13  1  0
 20 19  1  0
 20  2  1  1
 21 10  1  0
 21 16  1  0
 21  3  1  6
 22 12  1  0
 22 21  1  0
 22 27  1  1
 22 18  1  0
 23 11  1  0
 24 14  2  0
 25 17  2  0
 26 18  2  0
M  END
>  <DRUGBANK_ID>  (1) 
DB09383

>  <COMMON_NAME>  (1) 
Meprednisone

>  <CAS_NUMBER>  (1) 
1247-42-3

>  <UNII>  (1) 
67U96J8P35

>  <SYNONYMS>  (1) 
Meprednisone

$$$$
