C8E
     RDKit          3D

 21 20  0  0  0  0  0  0  0  0999 V2000
    1.0557   -0.0155   -0.1723 C   0  0  0  0  0  0  0  0  0  0  0  0
    0.6841   -1.4256   -0.6084 C   0  0  0  0  0  0  0  0  0  0  0  0
    1.2770   -2.4526    0.3787 C   0  0  0  0  0  0  0  0  0  0  0  0
    0.7261   -2.2006    1.7258 C   0  0  0  0  0  0  0  0  0  0  0  0
   -0.7457   -2.2711    1.5076 C   0  0  0  0  0  0  0  0  0  0  0  0
   -1.3115   -3.6999    1.1742 C   0  0  0  0  0  0  0  0  0  0  0  0
   -1.0817   -4.8379    2.2018 C   0  0  0  0  0  0  0  0  0  0  0  0
   -1.9017   -4.7404    3.4657 C   0  0  0  0  0  0  0  0  0  0  0  0
   -3.2587   -4.4370    3.6678 O   0  0  0  0  0  0  0  0  0  0  0  0
   -3.6727   -3.2546    2.9721 C   0  0  0  0  0  0  0  0  0  0  0  0
   -2.8403   -1.8968    3.0761 C   0  0  0  0  0  0  0  0  0  0  0  0
   -1.6595   -1.7008    3.9446 O   0  0  0  0  0  0  0  0  0  0  0  0
   -0.8956   -2.5813    4.7639 C   0  0  0  0  0  0  0  0  0  0  0  0
   -1.6127   -2.8972    6.0661 C   0  0  0  0  0  0  0  0  0  0  0  0
   -2.9798   -2.4395    6.3246 O   0  0  0  0  0  0  0  0  0  0  0  0
   -3.6524   -1.4031    5.5605 C   0  0  0  0  0  0  0  0  0  0  0  0
   -3.0734    0.1807    5.2967 C   0  0  0  0  0  0  0  0  0  0  0  0
   -1.6856    0.6045    5.4482 O   0  0  0  0  0  0  0  0  0  0  0  0
   -1.0284   -0.1503    6.4319 C   0  0  0  0  0  0  0  0  0  0  0  0
   -1.4530   -0.2507    7.8925 C   0  0  0  0  0  0  0  0  0  0  0  0
   -2.8311   -0.5276    8.1266 O   0  0  0  0  0  0  0  0  0  0  0  0
  1  2  1  0
  2  3  1  0
  3  4  1  0
  4  5  1  0
  5  6  1  0
  6  7  1  0
  7  8  1  0
  8  9  1  0
  9 10  1  0
 10 11  1  0
 11 12  1  0
 12 13  1  0
 13 14  1  0
 14 15  1  0
 15 16  1  0
 16 17  1  0
 17 18  1  0
 18 19  1  0
 19 20  1  0
 20 21  1  0
M  END
>  <DRUGBANK_ID>  (1) 
DB04233

>  <SECONDARY_ACCESSION_NUMBERS>  (1) 
EXPT00817

>  <COMMON_NAME>  (1) 
(Hydroxyethyloxy)Tri(Ethyloxy)Octane

$$$$
