
     RDKit          3D

 22 23  0  0  0  0  0  0  0  0999 V2000
    0.9411    0.0434    0.1059 O   0  0  0  0  0  0  0  0  0  0  0  0
    0.3753    0.8822    0.9973 C   0  0  0  0  0  0  0  0  0  0  0  0
    1.0651    1.5459    1.7567 O   0  0  0  0  0  0  0  0  0  0  0  0
   -1.1292    0.8810    0.9435 C   0  0  0  0  0  0  0  0  0  0  0  0
   -1.6767    1.3312   -0.3902 C   0  0  0  0  0  0  0  0  0  0  0  0
   -2.3117    0.4255   -1.2451 C   0  0  0  0  0  0  0  0  0  0  0  0
   -2.8120    0.8435   -2.4897 C   0  0  0  0  0  0  0  0  0  0  0  0
   -2.7078    2.1787   -2.9147 C   0  0  0  0  0  0  0  0  0  0  0  0
   -2.1085    3.0833   -2.0228 C   0  0  0  0  0  0  0  0  0  0  0  0
   -1.5617    2.6640   -0.7983 C   0  0  0  0  0  0  0  0  0  0  0  0
   -3.1389    2.6709   -4.1835 N   0  0  0  0  0  0  0  0  0  0  0  0
   -3.5645    1.7782   -4.9520 N   0  0  0  0  0  0  0  0  0  0  0  0
   -3.9142    2.2560   -6.2416 C   0  0  0  0  0  0  0  0  0  0  0  0
   -3.0533    3.0250   -7.0347 C   0  0  0  0  0  0  0  0  0  0  0  0
   -3.4143    3.4010   -8.3366 C   0  0  0  0  0  0  0  0  0  0  0  0
   -4.6223    2.9626   -8.8821 C   0  0  0  0  0  0  0  0  0  0  0  0
   -4.9874    3.4025  -10.1237 O   0  0  0  0  0  0  0  0  0  0  0  0
   -5.4603    2.0964   -8.1590 C   0  0  0  0  0  0  0  0  0  0  0  0
   -5.1220    1.8154   -6.8158 C   0  0  0  0  0  0  0  0  0  0  0  0
   -6.6135    1.4309   -8.8666 C   0  0  0  0  0  0  0  0  0  0  0  0
   -7.3407    0.5550   -8.1405 O   0  0  0  0  0  0  0  0  0  0  0  0
   -6.8793    1.5885  -10.0516 O   0  0  0  0  0  0  0  0  0  0  0  0
  1  2  1  0
  2  3  2  0
  2  4  1  0
  4  5  1  0
  5  6  2  0
  5 10  1  0
  6  7  1  0
  7  8  2  0
  8  9  1  0
  8 11  1  0
  9 10  2  0
 11 12  2  0
 12 13  1  0
 13 14  2  0
 13 19  1  0
 14 15  1  0
 15 16  2  0
 16 17  1  0
 16 18  1  0
 18 19  2  0
 18 20  1  0
 20 21  1  0
 20 22  2  0
M  END
>  <DRUGBANK_ID>  (1) 
DB18066

>  <COMMON_NAME>  (1) 
NM-004

>  <CAS_NUMBER>  (1) 
402934-69-4

>  <UNII>  (1) 
QIU74LKJ78

>  <SYNONYMS>  (1) 
5-((e)-(4-(carboxymethyl)phenyl)azo)-2-hydroxy-benzoic acid; 5-(4-carboxymethyl-phenylazo)-2-hydroxy-benzoic acid; Benzeneacetic acid, 4-(2-(3-carboxy-4-hydroxyphenyl)diazenyl)-

$$$$
