
     RDKit          3D

  6  6  0  0  0  0  0  0  0  0999 V2000
    0.0145    1.0975    0.0009 N   0  0  0  0  0  0  0  0  0  0  0  0
   -1.3621   -0.6358    0.0038 N   0  0  0  0  0  0  0  0  0  0  0  0
   -1.2448    0.7243    0.0025 C   0  0  0  0  0  0  0  0  0  0  0  0
    0.7440   -0.0683   -0.0018 C   0  0  0  0  0  0  0  0  0  0  0  0
   -0.0996   -1.1580   -0.0079 C   0  0  0  0  0  0  0  0  0  0  0  0
    2.2222   -0.0403    0.0054 C   0  0  0  0  0  0  0  0  0  0  0  0
  3  1  2  0
  3  2  1  0
  4  1  1  0
  5  2  1  0
  5  4  2  0
  6  4  1  0
M  END
>  <DRUGBANK_ID>  (1) 
DB03385

>  <SECONDARY_ACCESSION_NUMBERS>  (1) 
EXPT00221

>  <COMMON_NAME>  (1) 
4-Methylimidazole

>  <CAS_NUMBER>  (1) 
822-36-6

>  <UNII>  (1) 
Q64GF9FV4I

>  <SYNONYMS>  (1) 
4-MEI; 4(5)-methylimidazole

$$$$
