216235
     RDKit          3D

 29 32  0  0  0  0  0  0  0  0999 V2000
    2.5321    0.9104    1.6723 Cl  0  0  0  0  0  0  0  0  0  0  0  0
    2.1273   -3.5874   -0.4117 S   0  0  0  0  0  0  0  0  0  0  0  0
   -0.6703    0.0646   -0.7019 S   0  0  0  0  0  0  0  0  0  0  0  0
    3.7319   -3.6059    4.8018 O   0  0  0  0  0  0  0  0  0  0  0  0
    2.9351   -5.4292    3.6567 O   0  0  0  0  0  0  0  0  0  0  0  0
    2.0827    0.7161   -1.6558 O   0  0  0  0  0  0  0  0  0  0  0  0
    1.9762   -4.2127   -1.7061 O   0  0  0  0  0  0  0  0  0  0  0  0
    1.7536   -4.3672    0.7486 O   0  0  0  0  0  0  0  0  0  0  0  0
    5.9141   -0.3558   -0.2132 O   0  0  0  0  0  0  0  0  0  0  0  0
    4.2287   -2.7527   -0.3335 N   0  0  0  0  0  0  0  0  0  0  0  0
    5.6863    1.0380   -0.3558 N   0  0  0  0  0  0  0  0  0  0  0  0
    3.0541   -1.9506    1.3835 C   0  0  0  0  0  0  0  0  0  0  0  0
    2.8357   -1.1941   -0.4495 C   0  0  0  0  0  0  0  0  0  0  0  0
    2.0410   -2.0722    2.2215 C   0  0  0  0  0  0  0  0  0  0  0  0
    0.5317   -2.3084   -0.5409 C   0  0  0  0  0  0  0  0  0  0  0  0
    0.6469   -0.9671   -0.8773 C   0  0  0  0  0  0  0  0  0  0  0  0
    4.3057   -2.6857    2.2004 C   0  0  0  0  0  0  0  0  0  0  0  0
    1.8338   -0.3499   -1.0032 C   0  0  0  0  0  0  0  0  0  0  0  0
    4.2151   -3.6788    3.2657 C   0  0  0  0  0  0  0  0  0  0  0  0
    3.0427   -4.2194    2.9929 C   0  0  0  0  0  0  0  0  0  0  0  0
    2.0615   -3.1642    3.0679 C   0  0  0  0  0  0  0  0  0  0  0  0
    0.8857   -1.2246    2.2261 C   0  0  0  0  0  0  0  0  0  0  0  0
   -0.8734   -2.4751   -0.1970 C   0  0  0  0  0  0  0  0  0  0  0  0
    2.7537   -4.8007    4.8835 C   0  0  0  0  0  0  0  0  0  0  0  0
   -1.5780   -1.2579   -0.1709 C   0  0  0  0  0  0  0  0  0  0  0  0
    4.8308   -1.0388    0.3616 C   0  0  0  0  0  0  0  0  0  0  0  0
    4.0631    0.2928    0.9443 C   0  0  0  0  0  0  0  0  0  0  0  0
    4.5099    1.3848    0.1707 C   0  0  0  0  0  0  0  0  0  0  0  0
    3.6694    2.7088   -0.1085 C   0  0  0  0  0  0  0  0  0  0  0  0
  1 27  1  0
  2  7  2  0
  2  8  2  0
  2 10  1  0
  2 15  1  0
  3 16  1  0
  3 25  1  0
  4 19  1  0
  4 24  1  0
  5 20  1  0
  5 24  1  0
  6 18  2  0
  9 11  1  0
  9 26  1  0
 10 26  1  0
 11 28  2  0
 12 13  1  0
 12 14  2  0
 12 17  1  0
 13 18  1  0
 14 21  1  0
 14 22  1  0
 15 16  2  0
 15 23  1  0
 16 18  1  0
 17 19  2  0
 19 20  1  0
 20 21  2  0
 23 25  2  0
 26 27  2  0
 27 28  1  0
 28 29  1  0
M  END
>  <DRUGBANK_ID>  (1) 
DB06268

>  <COMMON_NAME>  (1) 
Sitaxentan

>  <CAS_NUMBER>  (1) 
184036-34-8

>  <UNII>  (1) 
J9QH779MEM

>  <SYNONYMS>  (1) 
Sitaxentan; Sitaxsentan

$$$$
