
     RDKit          3D

 31 32  0  0  0  0  0  0  0  0999 V2000
    1.1743    0.1335    0.1279 C   0  0  0  0  0  0  0  0  0  0  0  0
    1.3920   -0.8272   -2.1941 C   0  0  0  0  0  0  0  0  0  0  0  0
   -3.3841   -2.3131   -2.9917 C   0  0  0  0  0  0  0  0  0  0  0  0
   -1.4316   -1.1032   -3.8262 C   0  0  0  0  0  0  0  0  0  0  0  0
   -4.2485    0.5261    0.3337 C   0  0  0  0  0  0  0  0  0  0  0  0
   -1.0206    1.8404   -5.1891 C   0  0  0  0  0  0  0  0  0  0  0  0
    1.2616    2.3460   -5.6020 C   0  0  0  0  0  0  0  0  0  0  0  0
    0.6169   -3.5115   -0.4846 C   0  0  0  0  0  0  0  0  0  0  0  0
   -0.7730   -3.2560    1.4481 C   0  0  0  0  0  0  0  0  0  0  0  0
   -0.6675    1.7132   -3.8409 C   0  0  0  0  0  0  0  0  0  0  0  0
    1.6075    2.0821   -4.2518 C   0  0  0  0  0  0  0  0  0  0  0  0
   -0.3364   -2.9061   -1.2644 C   0  0  0  0  0  0  0  0  0  0  0  0
   -1.5728   -2.4087    0.6976 C   0  0  0  0  0  0  0  0  0  0  0  0
   -3.5240   -0.5856   -0.2172 C   0  0  0  0  0  0  0  0  0  0  0  0
   -3.7552    1.6229   -0.5698 C   0  0  0  0  0  0  0  0  0  0  0  0
   -0.0421    2.1866   -6.0759 C   0  0  0  0  0  0  0  0  0  0  0  0
    0.3373   -3.7986    0.8328 C   0  0  0  0  0  0  0  0  0  0  0  0
    0.6399    1.7196   -3.3327 C   0  0  0  0  0  0  0  0  0  0  0  0
   -1.4186   -2.3214   -0.7281 C   0  0  0  0  0  0  0  0  0  0  0  0
   -0.9820    0.6907   -0.9056 C   0  0  0  0  0  0  0  0  0  0  0  0
   -3.4838    0.3414   -3.0280 C   0  0  0  0  0  0  0  0  0  0  0  0
    0.5715    0.1995   -1.2884 C   0  0  0  0  0  0  0  0  0  0  0  0
   -2.5455   -1.0798   -2.7999 C   0  0  0  0  0  0  0  0  0  0  0  0
   -0.4692    2.4621   -7.7145 Cl  0  0  0  0  0  0  0  0  0  0  0  0
    1.3457   -4.9278    1.6126 Cl  0  0  0  0  0  0  0  0  0  0  0  0
   -1.2678    1.7896   -1.2662 O   0  0  0  0  0  0  0  0  0  0  0  0
   -3.9449    0.5415   -4.1613 O   0  0  0  0  0  0  0  0  0  0  0  0
   -1.8864   -0.0161   -0.0120 O   0  0  0  0  0  0  0  0  0  0  0  0
   -3.7809    1.3024   -2.0662 O   0  0  0  0  0  0  0  0  0  0  0  0
    1.0476    1.4683   -2.0165 O   0  0  0  0  0  0  0  0  0  0  0  0
   -1.8993   -1.3383   -1.5567 O   0  0  0  0  0  0  0  0  0  0  0  0
 10  6  2  0
 11  7  1  0
 12  8  2  0
 13  9  1  0
 14  5  1  0
 15  5  1  0
 16  6  1  0
 16  7  2  0
 17  8  1  0
 17  9  2  0
 18 10  1  0
 18 11  2  0
 19 12  1  0
 19 13  2  0
 22  1  1  0
 22  2  1  0
 22 20  1  0
 23  3  1  0
 23  4  1  0
 23 21  1  0
 24 16  1  0
 25 17  1  0
 26 20  2  0
 27 21  2  0
 28 14  1  0
 28 20  1  0
 29 15  1  0
 29 21  1  0
 30 18  1  0
 30 22  1  0
 31 19  1  0
 31 23  1  0
M  END
>  <DRUGBANK_ID>  (1) 
DB13433

>  <COMMON_NAME>  (1) 
Simfibrate

>  <CAS_NUMBER>  (1) 
14929-11-4

>  <UNII>  (1) 
L2R75RQX26

>  <SYNONYMS>  (1) 
Simfibrate

$$$$
