
     RDKit          3D

 13 12  0  0  1  0  0  0  0  0999 V2000
    4.5694   -4.1043    3.2707 C   0  0  0  0  0  0  0  0  0  0  0  0
    3.3754   -3.1832    3.4817 C   0  0  0  0  0  0  0  0  0  0  0  0
    2.5887   -3.3988    4.3890 O   0  0  0  0  0  0  0  0  0  0  0  0
    3.1516   -2.0138    2.4875 C   0  0  1  0  0  0  0  0  0  0  0  0
    4.3113   -1.2068    2.3682 O   0  0  0  0  0  0  0  0  0  0  0  0
    2.6796   -2.3922    1.0716 C   0  0  2  0  0  0  0  0  0  0  0  0
    1.4156   -1.7120    0.9135 O   0  0  0  0  0  0  0  0  0  0  0  0
    2.8781   -3.9404    0.8547 C   0  0  0  0  0  0  0  0  0  0  0  0
    2.3178   -4.6340   -0.2362 O   0  0  0  0  0  0  0  0  0  0  0  0
    0.5975   -4.4634   -0.3025 P   0  0  0  0  0  0  0  0  0  0  0  0
    0.5531   -3.7776    1.1788 O   0  0  0  0  0  0  0  0  0  0  0  0
    0.9538   -3.3012   -1.3747 O   0  0  0  0  0  0  0  0  0  0  0  0
   -0.9421   -4.3107   -0.3619 O   0  0  0  0  0  0  0  0  0  0  0  0
  1  2  1  0
  2  3  2  0
  2  4  1  0
  4  5  1  6
  6  8  1  0
  6  7  1  1
  6  4  1  0
  8  9  1  0
  9 10  1  0
 10 11  1  0
 10 12  1  0
 10 13  2  0
M  END
>  <DRUGBANK_ID>  (1) 
DB02496

>  <SECONDARY_ACCESSION_NUMBERS>  (1) 
EXPT01308

>  <COMMON_NAME>  (1) 
1-Deoxy-D-xylulose 5-phosphate

>  <CAS_NUMBER>  (1) 
190079-18-6

>  <UNII>  (1) 
I4C288B3TN

$$$$
