
     RDKit          3D

 26 28  0  0  0  0  0  0  0  0999 V2000
    1.1930   -1.4080    0.0237 C   0  0  0  0  0  0  0  0  0  0  0  0
    2.3369   -0.6399   -0.1617 C   0  0  0  0  0  0  0  0  0  0  0  0
    2.2068    0.7166   -0.3933 C   0  0  0  0  0  0  0  0  0  0  0  0
    1.0516    1.3952   -0.1033 C   0  0  0  0  0  0  0  0  0  0  0  0
   -0.0600   -0.7515    0.0432 C   0  0  0  0  0  0  0  0  0  0  0  0
   -0.1003    0.6669    0.0303 C   0  0  0  0  0  0  0  0  0  0  0  0
   -1.2865    1.3848    0.0392 C   0  0  0  0  0  0  0  0  0  0  0  0
   -2.4954    0.7096    0.0178 C   0  0  0  0  0  0  0  0  0  0  0  0
   -2.4891   -0.6945    0.0145 C   0  0  0  0  0  0  0  0  0  0  0  0
   -1.2870   -1.4216    0.0439 C   0  0  0  0  0  0  0  0  0  0  0  0
   -3.7802    1.4734   -0.0102 C   0  0  0  0  0  0  0  0  0  0  0  0
   -4.8909    0.8127   -0.0171 N   0  0  0  0  0  0  0  0  0  0  0  0
   -3.8044    2.8366   -0.0200 N   0  0  0  0  0  0  0  0  0  0  0  0
    3.6225   -1.2492   -0.1166 O   0  0  0  0  0  0  0  0  0  0  0  0
    4.9280   -0.7009   -0.0337 C   0  0  0  0  0  0  0  0  0  0  0  0
    5.0841    0.7778    0.1015 C   0  0  0  0  0  0  0  0  0  0  0  0
    5.9186   -1.3949   -0.1738 O   0  0  0  0  0  0  0  0  0  0  0  0
    4.4363    1.5707    1.0672 C   0  0  0  0  0  0  0  0  0  0  0  0
    4.3968    2.9845    0.9322 C   0  0  0  0  0  0  0  0  0  0  0  0
    5.1577    3.6324   -0.0532 C   0  0  0  0  0  0  0  0  0  0  0  0
    5.9197    2.7974   -0.8852 C   0  0  0  0  0  0  0  0  0  0  0  0
    5.8237    1.4085   -0.8844 C   0  0  0  0  0  0  0  0  0  0  0  0
    5.1780    5.0454   -0.1911 N   0  0  0  0  0  0  0  0  0  0  0  0
    5.9551    5.7542   -1.0744 C   0  0  0  0  0  0  0  0  0  0  0  0
    5.8432    7.0955   -1.0447 N   0  0  0  0  0  0  0  0  0  0  0  0
    6.7907    5.2482   -1.9143 N   0  0  0  0  0  0  0  0  0  0  0  0
  1  2  2  0
  2 14  1  0
  2  3  1  0
  3  4  2  0
  5  6  2  0
  5  1  1  0
  6  7  1  0
  6  4  1  0
  7  8  2  0
  8  9  1  0
  8 11  1  0
  9 10  2  0
 10  5  1  0
 11 13  1  0
 11 12  2  0
 14 15  1  0
 15 16  1  0
 15 17  2  0
 16 18  2  0
 18 19  1  0
 19 20  2  0
 20 21  1  0
 20 23  1  0
 21 22  2  0
 22 16  1  0
 23 24  1  0
 24 25  1  0
 24 26  2  0
M  END
>  <DRUGBANK_ID>  (1) 
DB12598

>  <COMMON_NAME>  (1) 
Nafamostat

>  <CAS_NUMBER>  (1) 
81525-10-2

>  <UNII>  (1) 
Y25LQ0H97D

>  <SYNONYMS>  (1) 
Nafamostat; Nafamostatum; p-Guanidinobenzoic acid ester with 6-hydroxy-2-naphthamidine

$$$$
