
     RDKit          3D

 27 29  0  0  0  0  0  0  0  0999 V2000
   -1.1296   -0.0735   -1.4615 C   0  0  0  0  0  0  0  0  0  0  0  0
   -0.8497   -0.0007    0.0474 C   0  0  2  0  0  0  0  0  0  0  0  0
   -2.0903    0.0108    0.7481 O   0  0  0  0  0  0  0  0  0  0  0  0
   -0.0640    1.2708    0.4133 C   0  0  0  0  0  0  0  0  0  0  0  0
    1.3544    1.2475   -0.1874 C   0  0  0  0  0  0  0  0  0  0  0  0
    2.1055   -0.0184    0.2757 C   0  0  1  0  0  0  0  0  0  0  0  0
    1.3083   -1.2616   -0.0967 C   0  0  0  0  0  0  0  0  0  0  0  0
   -0.0692   -1.2254    0.5107 C   0  0  0  0  0  0  0  0  0  0  0  0
    3.4626   -0.0847   -0.3159 N   0  0  0  0  0  0  0  0  0  0  0  0
    4.4932   -1.3847    0.1371 S   0  0  0  0  0  0  0  0  0  0  0  0
    3.8146   -2.6207   -0.1869 O   0  0  0  0  0  0  0  0  0  0  0  0
    5.7949   -1.1083   -0.4220 O   0  0  0  0  0  0  0  0  0  0  0  0
    4.6095   -1.2658    1.9103 C   0  0  0  0  0  0  0  0  0  0  0  0
    4.6088   -0.0166    2.5370 C   0  0  0  0  0  0  0  0  0  0  0  0
    4.6074    0.0651    3.9345 C   0  0  0  0  0  0  0  0  0  0  0  0
    4.6132   -1.0970    4.7182 C   0  0  0  0  0  0  0  0  0  0  0  0
    4.5262   -2.3411    4.0681 C   0  0  0  0  0  0  0  0  0  0  0  0
    4.5865   -2.4331    2.6761 C   0  0  0  0  0  0  0  0  0  0  0  0
    4.7506   -1.0485    6.1843 C   0  0  0  0  0  0  0  0  0  0  0  0
    3.7877   -0.3778    6.9568 C   0  0  0  0  0  0  0  0  0  0  0  0
    3.8390   -0.4062    8.3519 C   0  0  0  0  0  0  0  0  0  0  0  0
    4.8465   -1.1213    8.9923 C   0  0  0  0  0  0  0  0  0  0  0  0
    4.9529   -1.0930   10.7084 Cl  0  0  0  0  0  0  0  0  0  0  0  0
    5.8041   -1.8103    8.2534 C   0  0  0  0  0  0  0  0  0  0  0  0
    5.8076   -1.7109    6.8552 C   0  0  0  0  0  0  0  0  0  0  0  0
    6.9446   -2.2156    6.1352 C   0  0  0  0  0  0  0  0  0  0  0  0
    7.8879   -2.5843    5.5560 N   0  0  0  0  0  0  0  0  0  0  0  0
  2  4  1  0
  2  8  1  0
  2  3  1  0
  2  1  1  6
  4  5  1  0
  6  5  1  0
  6  7  1  0
  6  9  1  6
  7  8  1  0
  9 10  1  0
 10 11  2  0
 10 12  2  0
 10 13  1  0
 13 14  2  0
 13 18  1  0
 14 15  1  0
 15 16  2  0
 16 17  1  0
 16 19  1  0
 17 18  2  0
 19 20  2  0
 19 25  1  0
 20 21  1  0
 21 22  2  0
 22 23  1  0
 22 24  1  0
 24 25  2  0
 25 26  1  0
 26 27  3  0
M  END
>  <DRUGBANK_ID>  (1) 
DB18059

>  <COMMON_NAME>  (1) 
MBS-2320

>  <CAS_NUMBER>  (1) 
1642602-54-7

>  <UNII>  (1) 
38E2HYD3AW

>  <SYNONYMS>  (1) 
(1,1'-BIPHENYL)-4-SULFONAMIDE, 4'-CHLORO-2'-CYANO-N-(TRANS-4-HYDROXY-4-METHYLCYCLOHEXYL)-; 1-METHYL-TRANS-4-(((4'-CHLORO-2'-CYANO-1,1'-BIPHENYL-4-YL)SULFONYL)AMINO)CYCLOHEXANOL; 4'-chloro-2'-cyano-N-(trans-4-hydroxy-4-methylcyclohexyl)-biphenyl-4-sulfonamide

$$$$
