MR4
     RDKit          3D

 18 20  0  0  0  0  0  0  0  0999 V2000
   -2.5860    0.5240   -0.0045 C   0  0  0  0  0  0  0  0  0  0  0  0
   -1.2220   -0.1043   -0.0360 C   0  0  0  0  0  0  0  0  0  0  0  0
   -1.1010   -1.5090   -0.0613 C   0  0  0  0  0  0  0  0  0  0  0  0
   -0.0539    0.6730   -0.0180 C   0  0  0  0  0  0  0  0  0  0  0  0
   -0.0953    2.0419    0.0022 O   0  0  0  0  0  0  0  0  0  0  0  0
    1.2128    0.0769   -0.0129 C   0  0  0  0  0  0  0  0  0  0  0  0
    2.4593    0.9155   -0.0217 C   0  0  0  0  0  0  0  0  0  0  0  0
    1.3043   -1.3235   -0.0001 C   0  0  0  0  0  0  0  0  0  0  0  0
    0.1565   -2.1285   -0.0325 C   0  0  0  0  0  0  0  0  0  0  0  0
    0.2971   -3.5777    0.0737 C   0  0  0  0  0  0  0  0  0  0  0  0
   -0.2387   -4.3478   -0.9336 O   0  0  0  0  0  0  0  0  0  0  0  0
    0.0800   -5.6311   -0.5641 C   0  0  0  0  0  0  0  0  0  0  0  0
   -0.2059   -6.8211   -1.2307 C   0  0  0  0  0  0  0  0  0  0  0  0
    0.2227   -7.9990   -0.5964 C   0  0  0  0  0  0  0  0  0  0  0  0
    0.8943   -7.9655    0.6318 C   0  0  0  0  0  0  0  0  0  0  0  0
    1.1755   -6.7470    1.2642 C   0  0  0  0  0  0  0  0  0  0  0  0
    0.7618   -5.5630    0.6408 C   0  0  0  0  0  0  0  0  0  0  0  0
    0.9147   -4.2571    1.0206 N   0  0  0  0  0  0  0  0  0  0  0  0
  1  2  1  0
  2  3  2  0
  2  4  1  0
  3  9  1  0
  4  6  2  0
  4  5  1  0
  6  8  1  0
  6  7  1  0
  8  9  2  0
  9 10  1  0
 10 18  2  0
 10 11  1  0
 11 12  1  0
 12 13  2  0
 12 17  1  0
 13 14  1  0
 14 15  2  0
 15 16  1  0
 16 17  2  0
 17 18  1  0
M  END
>  <DRUGBANK_ID>  (1) 
DB08205

>  <COMMON_NAME>  (1) 
4-(1,3-BENZOXAZOL-2-YL)-2,6-DIMETHYLPHENOL

$$$$
