SU1
     RDKit          3D

 22 24  0  0  0  0  0  0  0  0999 V2000
   -0.6972    1.6057   -0.0331 N   0  0  0  0  0  0  0  0  0  0  0  0
   -1.7893    0.7694   -0.1197 C   0  0  0  0  0  0  0  0  0  0  0  0
   -2.9446    1.0885   -0.1564 O   0  0  0  0  0  0  0  0  0  0  0  0
   -1.1804   -0.5875   -0.0890 C   0  0  0  0  0  0  0  0  0  0  0  0
    1.3833   -1.3420   -0.0523 C   0  0  0  0  0  0  0  0  0  0  0  0
    2.6758   -0.7834   -0.0362 C   0  0  0  0  0  0  0  0  0  0  0  0
    2.8553    0.6106    0.0213 C   0  0  0  0  0  0  0  0  0  0  0  0
    1.7568    1.4682    0.0481 C   0  0  0  0  0  0  0  0  0  0  0  0
    0.5030    0.9058    0.0032 C   0  0  0  0  0  0  0  0  0  0  0  0
    0.2910   -0.4730   -0.0347 C   0  0  0  0  0  0  0  0  0  0  0  0
   -1.9066   -1.6714    0.1364 C   0  0  0  0  0  0  0  0  0  0  0  0
   -4.0899   -1.3871   -0.9123 N   0  0  0  0  0  0  0  0  0  0  0  0
   -3.3227   -1.8020    0.1529 C   0  0  0  0  0  0  0  0  0  0  0  0
   -4.1911   -2.3966    1.0576 C   0  0  0  0  0  0  0  0  0  0  0  0
   -5.5326   -2.1427    0.6146 C   0  0  0  0  0  0  0  0  0  0  0  0
   -5.4229   -1.5274   -0.6147 C   0  0  0  0  0  0  0  0  0  0  0  0
   -6.7943   -2.4608    1.3409 C   0  0  0  0  0  0  0  0  0  0  0  0
   -3.7775   -3.1155    2.2988 C   0  0  0  0  0  0  0  0  0  0  0  0
   -3.1160   -4.4708    2.0253 C   0  0  0  0  0  0  0  0  0  0  0  0
   -1.8495   -4.4705    1.2107 C   0  0  0  0  0  0  0  0  0  0  0  0
   -0.7171   -4.3149    1.6454 O   0  0  0  0  0  0  0  0  0  0  0  0
   -2.0891   -4.5202   -0.1233 O   0  0  0  0  0  0  0  0  0  0  0  0
  1  2  1  0
  1  9  1  0
  2  3  2  0
  2  4  1  0
  4 10  1  0
  4 11  2  0
  5  6  1  0
  5 10  2  0
  6  7  2  0
  7  8  1  0
  8  9  2  0
  9 10  1  0
 11 13  1  0
 12 13  1  0
 12 16  1  0
 13 14  2  0
 14 15  1  0
 14 18  1  0
 15 16  2  0
 15 17  1  0
 18 19  1  0
 19 20  1  0
 20 21  2  0
 20 22  1  0
M  END
>  <DRUGBANK_ID>  (1) 
DB08577

>  <COMMON_NAME>  (1) 
3-[(3-(2-CARBOXYETHYL)-4-METHYLPYRROL-2-YL)METHYLENE]-2-INDOLINONE

$$$$
