
     RDKit          3D

 14 14  0  0  0  0  0  0  0  0999 V2000
   -0.7386    1.1296   -0.0019 C   0  0  0  0  0  0  0  0  0  0  0  0
   -1.5030    0.0220    0.0133 C   0  0  0  0  0  0  0  0  0  0  0  0
   -0.8138   -1.3158    0.0053 C   0  0  0  0  0  0  0  0  0  0  0  0
   -1.4401   -2.3761    0.0451 O   0  0  0  0  0  0  0  0  0  0  0  0
    0.6721   -1.3066   -0.0927 C   0  0  0  0  0  0  0  0  0  0  0  0
    1.2635   -0.1110   -0.1934 C   0  0  0  0  0  0  0  0  0  0  0  0
    0.6511    1.1280   -0.0684 N   0  0  0  0  0  0  0  0  0  0  0  0
    1.4287    2.3878    0.0008 C   0  0  0  0  0  0  0  0  0  0  0  0
    2.3431    2.4907    1.2456 C   0  0  0  0  0  0  0  0  0  0  0  0
    3.4244    1.4046    1.3394 C   0  0  0  0  0  0  0  0  0  0  0  0
    4.2548    1.4074    0.1730 O   0  0  0  0  0  0  0  0  0  0  0  0
    3.0066    3.7657    1.2044 O   0  0  0  0  0  0  0  0  0  0  0  0
    1.7582   -3.0362   -0.0524 I   0  0  0  0  0  0  0  0  0  0  0  0
   -3.5440    0.0956    0.0167 I   0  0  0  0  0  0  0  0  0  0  0  0
  1  2  2  0
  1  7  1  0
  2  3  1  0
  2 14  1  0
  3  4  2  0
  3  5  1  0
  5  6  2  0
  5 13  1  0
  6  7  1  0
  7  8  1  0
  8  9  1  0
  9 10  1  0
  9 12  1  0
 10 11  1  0
M  END
>  <DRUGBANK_ID>  (1) 
DB13389

>  <COMMON_NAME>  (1) 
Iopydol

>  <CAS_NUMBER>  (1) 
5579-92-0

>  <UNII>  (1) 
T4661K682A

>  <SYNONYMS>  (1) 
Iopydol

$$$$
