
     RDKit          3D

  5  4  0  0  0  0  0  0  0  0999 V2000
    0.9927    0.0592   -0.0314 C   0  0  0  0  0  0  0  0  0  0  0  0
    0.5334   -1.0605   -0.9497 C   0  0  0  0  0  0  0  0  0  0  0  0
    1.0828   -2.3293   -0.5987 O   0  0  0  0  0  0  0  0  0  0  0  0
    2.5058   -2.4238   -0.6315 C   0  0  0  0  0  0  0  0  0  0  0  0
    3.0872   -2.1446   -2.0070 C   0  0  0  0  0  0  0  0  0  0  0  0
  1  2  1  0
  2  3  1  0
  3  4  1  0
  4  5  1  0
M  END
>  <DRUGBANK_ID>  (1) 
DB13598

>  <COMMON_NAME>  (1) 
Diethyl ether

>  <CAS_NUMBER>  (1) 
60-29-7

>  <UNII>  (1) 
0F5N573A2Y

>  <SYNONYMS>  (1) 
Ether

$$$$
