
     RDKit          3D

 40 44  0  0  0  0  0  0  0  0999 V2000
    8.7647   -8.0968   13.2072 S   0  0  0  0  0  0  0  0  0  0  0  0
    9.0973    1.3717    8.6065 F   0  0  0  0  0  0  0  0  0  0  0  0
   11.5361   -2.1799   10.4951 O   0  0  0  0  0  0  0  0  0  0  0  0
   10.6013    2.9488    7.2102 O   0  0  0  0  0  0  0  0  0  0  0  0
   13.6272   -3.7172    9.9804 O   0  0  0  0  0  0  0  0  0  0  0  0
   10.4391   -4.5030    8.2816 O   0  0  0  0  0  0  0  0  0  0  0  0
    6.9416   -1.4454    4.5094 O   0  0  0  0  0  0  0  0  0  0  0  0
    8.3307   -4.6149    9.2677 O   0  0  0  0  0  0  0  0  0  0  0  0
    8.9834   -9.6116   12.6717 O   0  0  0  0  0  0  0  0  0  0  0  0
    9.4249   -8.0034   14.5542 O   0  0  0  0  0  0  0  0  0  0  0  0
    7.4419   -7.7430   12.9853 O   0  0  0  0  0  0  0  0  0  0  0  0
   11.1668    0.4407   10.6303 C   0  0  2  0  0  0  0  0  0  0  0  0
   10.6496   -0.1812    9.2564 C   0  0  2  0  0  0  0  0  0  0  0  0
   12.4625    0.7818    9.9372 C   0  0  1  0  0  0  0  0  0  0  0  0
   10.1837    0.6969    8.0969 C   0  0  1  0  0  0  0  0  0  0  0  0
   12.7510   -1.1909   10.0235 C   0  0  1  0  0  0  0  0  0  0  0  0
    9.7570   -0.1551    6.8622 C   0  0  2  0  0  0  0  0  0  0  0  0
   11.1976    1.7427    7.7247 C   0  0  2  0  0  0  0  0  0  0  0  0
   11.7580    2.0597    9.0348 C   0  0  0  0  0  0  0  0  0  0  0  0
   11.7277   -0.3181   11.9700 C   0  0  0  0  0  0  0  0  0  0  0  0
   13.0604   -0.9988   11.4690 C   0  0  1  0  0  0  0  0  0  0  0  0
    9.5953   -1.1756    9.4992 C   0  0  0  0  0  0  0  0  0  0  0  0
    9.8549   -1.7389    6.7214 C   0  0  0  0  0  0  0  0  0  0  0  0
   12.9102   -2.9152    9.3211 C   0  0  0  0  0  0  0  0  0  0  0  0
   13.1739    2.0013   10.8853 C   0  0  0  0  0  0  0  0  0  0  0  0
    9.8291   -2.1363    8.2979 C   0  0  0  0  0  0  0  0  0  0  0  0
    9.5846    0.6683    5.5360 C   0  0  0  0  0  0  0  0  0  0  0  0
    8.3171   -0.4599    7.3081 C   0  0  0  0  0  0  0  0  0  0  0  0
    9.0923   -2.3592    5.6812 C   0  0  0  0  0  0  0  0  0  0  0  0
   14.3701   -1.6999   11.6800 C   0  0  0  0  0  0  0  0  0  0  0  0
   11.8640   -3.9173    8.2272 C   0  0  0  0  0  0  0  0  0  0  0  0
    8.7509    0.2132    4.5630 C   0  0  0  0  0  0  0  0  0  0  0  0
    8.1637   -1.2832    4.6624 C   0  0  0  0  0  0  0  0  0  0  0  0
    9.5462   -4.8220    9.2911 C   0  0  0  0  0  0  0  0  0  0  0  0
   10.0708   -5.6442   10.3573 C   0  0  0  0  0  0  0  0  0  0  0  0
    9.2403   -6.2043   11.3194 C   0  0  0  0  0  0  0  0  0  0  0  0
   11.3973   -6.0166   10.2785 C   0  0  0  0  0  0  0  0  0  0  0  0
    9.8149   -7.1811   12.1301 C   0  0  0  0  0  0  0  0  0  0  0  0
   11.9602   -6.9651   11.0770 C   0  0  0  0  0  0  0  0  0  0  0  0
   11.1628   -7.5544   12.0190 C   0  0  0  0  0  0  0  0  0  0  0  0
  1  9  1  0
  1 10  2  0
  1 11  2  0
  1 38  1  0
  5 24  2  0
  6 31  1  0
  6 34  1  0
  7 33  2  0
  8 34  2  0
 12 13  1  0
 12 14  1  0
 12 20  1  1
 13 15  1  0
 13 22  1  1
 14 16  1  0
 14 19  1  0
 14 25  1  1
 15 17  1  0
 15 18  1  0
 15  2  1  1
 16 21  1  0
 16 24  1  0
 16  3  1  1
 17 23  1  0
 17 27  1  0
 17 28  1  1
 18 19  1  0
 18  4  1  1
 20 21  1  0
 21 30  1  1
 22 26  1  0
 23 26  1  0
 23 29  2  0
 24 31  1  0
 27 32  2  0
 29 33  1  0
 32 33  1  0
 34 35  1  0
 35 36  2  0
 35 37  1  0
 36 38  1  0
 37 39  2  0
 38 40  2  0
 39 40  1  0
M  END
>  <DRUGBANK_ID>  (1) 
DB14703

>  <COMMON_NAME>  (1) 
Dexamethasone metasulfobenzoate

>  <CAS_NUMBER>  (1) 
16978-57-7

>  <UNII>  (1) 
C67221CB9Q

>  <SYNONYMS>  (1) 
Dexamethasone m-sulfobenzoate; Dexamethasone-21-sulfobenzoate

$$$$
