
     RDKit          3D

 39 40  0  0  1  0  0  0  0  0999 V2000
   -1.7738  -13.6428    0.4055 C   0  0  0  0  0  0  0  0  0  0  0  0
   -0.7353  -13.2464    2.5395 C   0  0  2  0  0  0  0  0  0  0  0  0
   -0.3099  -12.5863    5.3336 C   0  0  0  0  0  0  0  0  0  0  0  0
    0.5289  -11.6115    7.6973 C   0  0  0  0  0  0  0  0  0  0  0  0
    1.5948  -12.0043    9.4617 C   0  0  2  0  0  0  0  0  0  0  0  0
    0.0032  -11.7401    9.3341 C   0  0  2  0  0  0  0  0  0  0  0  0
   -0.5495  -10.1719    8.4705 C   0  0  0  0  0  0  0  0  0  0  0  0
   -0.6514  -10.0847    7.1634 C   0  0  0  0  0  0  0  0  0  0  0  0
   -0.9650   -8.8521    6.6756 C   0  0  1  0  0  0  0  0  0  0  0  0
    0.0340   -8.4240    5.6912 C   0  0  2  0  0  0  0  0  0  0  0  0
    0.1419   -9.4157    4.4392 C   0  0  0  0  0  0  0  0  0  0  0  0
   -0.0493   -9.0254    3.2052 C   0  0  0  0  0  0  0  0  0  0  0  0
    0.0012   -9.9569    2.0758 C   0  0  0  0  0  0  0  0  0  0  0  0
   -0.2498   -9.5496    0.8022 C   0  0  0  0  0  0  0  0  0  0  0  0
   -0.1940  -10.5358   -0.3556 C   0  0  0  0  0  0  0  0  0  0  0  0
    0.0788  -11.6781   -0.0421 O   0  0  0  0  0  0  0  0  0  0  0  0
   -0.4601  -10.1088   -1.6929 N   0  0  0  0  0  0  0  0  0  0  0  0
   -0.4143  -11.0125   -2.7936 C   0  0  0  0  0  0  0  0  0  0  0  0
   -0.6707  -10.5883   -4.0357 C   0  0  0  0  0  0  0  0  0  0  0  0
   -0.6169  -11.4872   -5.1374 C   0  0  0  0  0  0  0  0  0  0  0  0
   -0.5470  -11.0603   -6.2969 O   0  0  0  0  0  0  0  0  0  0  0  0
   -0.6917  -13.0758   -4.3379 C   0  0  0  0  0  0  0  0  0  0  0  0
   -0.6619  -13.5760   -2.4588 C   0  0  0  0  0  0  0  0  0  0  0  0
   -0.5817  -13.7998   -0.0259 C   0  0  0  0  0  0  0  0  0  0  0  0
   -0.0144  -12.3949   -2.4985 C   0  0  0  0  0  0  0  0  0  0  0  0
    0.5960  -12.8616   -1.5599 O   0  0  0  0  0  0  0  0  0  0  0  0
   -1.0278  -13.7685   -5.9270 N   0  0  0  0  0  0  0  0  0  0  0  0
   -0.5855   -8.1223    0.5376 C   0  0  0  0  0  0  0  0  0  0  0  0
    1.4623   -8.3448    6.3332 O   0  0  0  0  0  0  0  0  0  0  0  0
    1.8321   -9.6249    6.7642 C   0  0  0  0  0  0  0  0  0  0  0  0
   -2.2099   -8.9475    6.0406 O   0  0  0  0  0  0  0  0  0  0  0  0
   -3.2177   -9.7526    6.5656 C   0  0  0  0  0  0  0  0  0  0  0  0
   -4.3074   -9.7977    6.0006 O   0  0  0  0  0  0  0  0  0  0  0  0
   -3.0013  -10.5052    7.7368 N   0  0  0  0  0  0  0  0  0  0  0  0
   -0.3397  -10.9862    6.1411 C   0  0  0  0  0  0  0  0  0  0  0  0
   -1.0398  -12.3409   10.0766 C   0  0  0  0  0  0  0  0  0  0  0  0
    2.5504  -11.3476    8.7099 O   0  0  0  0  0  0  0  0  0  0  0  0
    0.8591  -10.1574    9.5029 O   0  0  0  0  0  0  0  0  0  0  0  0
    0.0297   -9.0732   11.0797 C   0  0  0  0  0  0  0  0  0  0  0  0
  2  3  1  0
  2 24  1  0
  2  1  1  6
  3  4  1  0
  4  5  1  0
  4 38  1  0
  5  6  1  0
  5 37  1  1
  6  7  1  0
  6 36  1  1
  7  8  2  0
  8  9  1  0
  8 35  1  0
  9 10  1  0
  9 31  1  6
 10 11  1  0
 10 29  1  1
 11 12  2  0
 12 13  1  0
 13 14  2  0
 14 15  1  0
 14 28  1  0
 15 16  2  0
 15 17  1  0
 17 18  1  0
 18 19  2  0
 18 25  1  0
 19 20  1  0
 20 21  2  0
 20 22  1  0
 22 23  2  0
 22 27  1  0
 23 24  1  0
 23 25  1  0
 25 26  2  0
 29 30  1  0
 31 32  1  0
 32 33  2  0
 32 34  1  0
 38 39  1  0
M  END
>  <DRUGBANK_ID>  (1) 
DB13023

>  <COMMON_NAME>  (1) 
IPI-493

>  <CAS_NUMBER>  (1) 
64202-81-9

>  <UNII>  (1) 
SLQ1AJG3VB

$$$$
