
     RDKit          3D

 31 33  0  0  0  0  0  0  0  0999 V2000
    5.3166   -1.7927   -1.1295 S   0  0  0  0  0  0  0  0  0  0  0  0
    4.1695   -1.6323    3.3725 O   0  0  0  0  0  0  0  0  0  0  0  0
    1.6525   -1.3031    1.3586 O   0  0  0  0  0  0  0  0  0  0  0  0
    1.4300    0.6919    2.9442 O   0  0  0  0  0  0  0  0  0  0  0  0
    4.3778   -2.5449   -0.3319 O   0  0  0  0  0  0  0  0  0  0  0  0
    6.0635   -2.4138   -2.1606 O   0  0  0  0  0  0  0  0  0  0  0  0
    3.6422    1.2458   -2.8367 O   0  0  0  0  0  0  0  0  0  0  0  0
    3.5446   -0.2723    5.1499 N   0  0  0  0  0  0  0  0  0  0  0  0
    6.2203   -1.6397    0.2515 N   0  0  0  0  0  0  0  0  0  0  0  0
    3.3470   -0.3887    7.3654 N   0  0  0  0  0  0  0  0  0  0  0  0
    4.6892   -0.3192   -1.5398 N   0  0  0  0  0  0  0  0  0  0  0  0
    5.4372    1.3427    5.0047 N   0  0  0  0  0  0  0  0  0  0  0  0
    3.6994   -1.8920   -4.1145 N   0  0  0  0  0  0  0  0  0  0  0  0
    6.1280    2.0075    7.2764 N   0  0  0  0  0  0  0  0  0  0  0  0
    5.0744    1.1399    9.2119 N   0  0  0  0  0  0  0  0  0  0  0  0
    4.1113   -1.6024    1.9300 C   0  0  1  0  0  0  0  0  0  0  0  0
    2.9276   -0.6564    1.5568 C   0  0  2  0  0  0  0  0  0  0  0  0
    2.7782    0.2377    2.7754 C   0  0  2  0  0  0  0  0  0  0  0  0
    3.1674   -0.7468    3.8527 C   0  0  1  0  0  0  0  0  0  0  0  0
    5.5111   -1.0424    1.4572 C   0  0  0  0  0  0  0  0  0  0  0  0
    4.5183    0.5714    5.6304 C   0  0  0  0  0  0  0  0  0  0  0  0
    2.8881   -0.8182    6.2263 C   0  0  0  0  0  0  0  0  0  0  0  0
    4.3577    0.4705    7.0112 C   0  0  0  0  0  0  0  0  0  0  0  0
    1.7040   -1.6838   -2.5399 C   0  0  2  0  0  0  0  0  0  0  0  0
    2.8228   -0.9816   -3.3776 C   0  0  1  0  0  0  0  0  0  0  0  0
    2.2743   -2.4345   -1.3725 C   0  0  0  0  0  0  0  0  0  0  0  0
    3.7342    0.0447   -2.5720 C   0  0  0  0  0  0  0  0  0  0  0  0
    5.2000    1.2162    7.8427 C   0  0  0  0  0  0  0  0  0  0  0  0
    0.8726   -2.7501   -3.2233 C   0  0  0  0  0  0  0  0  0  0  0  0
    3.0263   -3.7641   -1.7816 C   0  0  0  0  0  0  0  0  0  0  0  0
    6.1911    2.0264    5.9217 C   0  0  0  0  0  0  0  0  0  0  0  0
  1  5  2  0
  1  6  2  0
  1  9  1  0
  1 11  1  0
  2 16  1  0
  2 19  1  0
  7 27  2  0
  8 21  1  0
  8 22  1  0
  9 20  1  0
 10 22  2  0
 10 23  1  0
 11 27  1  0
 12 21  1  0
 12 31  2  0
 14 28  2  0
 14 31  1  0
 15 28  1  0
 16 17  1  0
 16 20  1  6
 17  3  1  1
 17 18  1  0
 18  4  1  1
 18 19  1  0
 19  8  1  1
 21 23  2  0
 23 28  1  0
 24 29  1  6
 24 26  1  0
 24 25  1  0
 25 13  1  1
 25 27  1  0
 26 30  1  0
M  END
>  <DRUGBANK_ID>  (1) 
DB01755

>  <SECONDARY_ACCESSION_NUMBERS>  (1) 
EXPT01859

>  <COMMON_NAME>  (1) 
N-[Isoleucinyl]-N'-[adenosyl]-diaminosufone

>  <SYNONYMS>  (1) 
5'-Deoxy-5'-[(L-isoleucylsulfamoyl)amino]adenosine

$$$$
