
     RDKit          3D

 13 13  0  0  0  0  0  0  0  0999 V2000
    0.5775    1.4000   -0.3046 C   0  0  2  0  0  0  0  0  0  0  0  0
    1.4282    0.2039    0.1117 C   0  0  1  0  0  0  0  0  0  0  0  0
    0.7706   -1.1634   -0.2418 C   0  0  2  0  0  0  0  0  0  0  0  0
   -0.7092   -1.2425    0.2360 C   0  0  1  0  0  0  0  0  0  0  0  0
   -1.4962    0.0070   -0.2105 C   0  0  2  0  0  0  0  0  0  0  0  0
   -0.8280    1.2930    0.3013 C   0  0  1  0  0  0  0  0  0  0  0  0
    0.5252    1.4053   -1.7405 O   0  0  0  0  0  0  0  0  0  0  0  0
   -0.8016    1.3537    1.7342 O   0  0  0  0  0  0  0  0  0  0  0  0
   -2.8660   -0.0270    0.1907 O   0  0  0  0  0  0  0  0  0  0  0  0
   -1.3714   -2.4167   -0.2561 O   0  0  0  0  0  0  0  0  0  0  0  0
    1.5036   -2.3132    0.2346 O   0  0  0  0  0  0  0  0  0  0  0  0
    2.7220    0.3266   -0.4959 O   0  0  0  0  0  0  0  0  0  0  0  0
    2.4713   -2.0685    1.2466 C   0  0  0  0  0  0  0  0  0  0  0  0
  1  2  1  0
  1  6  1  0
  1  7  1  6
  2  3  1  0
  2 12  1  6
  3  4  1  0
  3 11  1  1
  4  5  1  0
  4 10  1  6
  5  6  1  0
  5  9  1  1
  6  8  1  1
 11 13  1  0
M  END
>  <DRUGBANK_ID>  (1) 
DB12969

>  <COMMON_NAME>  (1) 
Methylinositol

>  <CAS_NUMBER>  (1) 
10284-63-6

>  <UNII>  (1) 
TF9HZN9T0M

>  <SYNONYMS>  (1) 
Pinitol

$$$$
