DF9
     RDKit          3D

 26 29  0  0  0  0  0  0  0  0999 V2000
    1.6790    2.0135    0.0446 N   0  0  0  0  0  0  0  0  0  0  0  0
    1.1721    0.7454   -0.0320 C   0  0  0  0  0  0  0  0  0  0  0  0
    2.0009   -0.3093    0.0448 N   0  0  0  0  0  0  0  0  0  0  0  0
    1.4590   -1.5435    0.0180 C   0  0  0  0  0  0  0  0  0  0  0  0
    0.1635   -1.8886   -0.0633 N   0  0  0  0  0  0  0  0  0  0  0  0
   -0.1714    0.4792   -0.1992 C   0  0  0  0  0  0  0  0  0  0  0  0
   -0.6514   -0.8184   -0.2172 C   0  0  0  0  0  0  0  0  0  0  0  0
   -1.2460    1.3200   -0.3245 N   0  0  0  0  0  0  0  0  0  0  0  0
   -2.3702    0.5784   -0.5685 C   0  0  0  0  0  0  0  0  0  0  0  0
   -2.0716   -0.7549   -0.3330 C   0  0  0  0  0  0  0  0  0  0  0  0
   -3.0584   -1.8611   -0.1212 C   0  0  0  0  0  0  0  0  0  0  0  0
   -3.8183   -1.6619    1.1236 N   0  0  0  0  0  0  0  0  0  0  0  0
   -4.6500   -0.4643    1.2464 C   0  0  0  0  0  0  0  0  0  0  0  0
   -4.0647    0.3232    2.4358 C   0  0  2  0  0  0  0  0  0  0  0  0
   -2.9747    1.1669    2.0698 O   0  0  0  0  0  0  0  0  0  0  0  0
   -2.9955   -1.7735    2.3238 C   0  0  0  0  0  0  0  0  0  0  0  0
   -3.4908   -0.7597    3.3544 C   0  0  2  0  0  0  0  0  0  0  0  0
   -4.5121   -1.2018    4.4028 C   0  0  0  0  0  0  0  0  0  0  0  0
   -4.1090   -2.7040    5.3901 S   0  0  0  0  0  0  0  0  0  0  0  0
   -4.0225   -4.1314    4.2180 C   0  0  0  0  0  0  0  0  0  0  0  0
   -5.2295   -4.4082    3.3488 C   0  0  0  0  0  0  0  0  0  0  0  0
   -5.5865   -5.7232    3.0598 C   0  0  0  0  0  0  0  0  0  0  0  0
   -6.7736   -6.0045    2.3701 C   0  0  0  0  0  0  0  0  0  0  0  0
   -7.6245   -4.9806    1.9536 C   0  0  0  0  0  0  0  0  0  0  0  0
   -7.2454   -3.6723    2.1498 C   0  0  0  0  0  0  0  0  0  0  0  0
   -6.0280   -3.4236    2.7677 C   0  0  0  0  0  0  0  0  0  0  0  0
  1  2  1  0
  2  3  2  0
  2  6  1  0
  3  4  1  0
  4  5  2  0
  5  7  1  0
  6  7  2  0
  6  8  1  0
  7 10  1  0
  8  9  1  0
  9 10  2  0
 10 11  1  0
 11 12  1  0
 12 13  1  0
 12 16  1  0
 13 14  1  0
 14 15  1  6
 14 17  1  0
 16 17  1  0
 17 18  1  1
 18 19  1  0
 19 20  1  0
 20 21  1  0
 21 22  2  0
 21 26  1  0
 22 23  1  0
 23 24  2  0
 24 25  1  0
 25 26  2  0
M  END
>  <DRUGBANK_ID>  (1) 
DB07649

>  <COMMON_NAME>  (1) 
(3R,4S)-1-[(4-amino-5H-pyrrolo[3,2-d]pyrimidin-7-yl)methyl]-4-[(benzylsulfanyl)methyl]pyrrolidin-3-ol

$$$$
