
     RDKit          3D

 19 20  0  0  0  0  0  0  0  0999 V2000
    0.9983    0.0837   -0.0893 C   0  0  0  0  0  0  0  0  0  0  0  0
    0.4263    0.6637   -1.2610 O   0  0  0  0  0  0  0  0  0  0  0  0
    0.9190    1.8937   -1.6127 C   0  0  0  0  0  0  0  0  0  0  0  0
    2.2639    2.2475   -1.4858 C   0  0  0  0  0  0  0  0  0  0  0  0
    2.7104    3.5004   -1.9123 C   0  0  0  0  0  0  0  0  0  0  0  0
    4.1329    3.8406   -1.7936 C   0  0  0  0  0  0  0  0  0  0  0  0
    4.6640    5.0086   -2.2002 C   0  0  0  0  0  0  0  0  0  0  0  0
    6.0885    5.3077   -2.1450 C   0  0  0  0  0  0  0  0  0  0  0  0
    7.0379    4.3711   -2.5671 C   0  0  0  0  0  0  0  0  0  0  0  0
    8.3893    4.7051   -2.5910 C   0  0  0  0  0  0  0  0  0  0  0  0
    8.7789    5.9886   -2.2219 C   0  0  0  0  0  0  0  0  0  0  0  0
   10.0914    6.3542   -2.2097 O   0  0  0  0  0  0  0  0  0  0  0  0
    7.8419    6.9422   -1.8424 C   0  0  0  0  0  0  0  0  0  0  0  0
    6.4955    6.5943   -1.7752 C   0  0  0  0  0  0  0  0  0  0  0  0
    1.7934    4.3738   -2.4987 C   0  0  0  0  0  0  0  0  0  0  0  0
    0.4713    4.0080   -2.7195 C   0  0  0  0  0  0  0  0  0  0  0  0
   -0.4149    4.7839   -3.4244 O   0  0  0  0  0  0  0  0  0  0  0  0
    0.1541    5.9157   -4.0963 C   0  0  0  0  0  0  0  0  0  0  0  0
    0.0231    2.7796   -2.2290 C   0  0  0  0  0  0  0  0  0  0  0  0
  1  2  1  0
  2  3  1  0
  3  4  2  0
  3 19  1  0
  4  5  1  0
  5  6  1  0
  5 15  2  0
  6  7  2  0
  7  8  1  0
  8  9  2  0
  8 14  1  0
  9 10  1  0
 10 11  2  0
 11 12  1  0
 11 13  1  0
 13 14  2  0
 15 16  1  0
 16 17  1  0
 16 19  2  0
 17 18  1  0
M  END
>  <DRUGBANK_ID>  (1) 
DB17939

>  <COMMON_NAME>  (1) 
Pterostilbene

>  <CAS_NUMBER>  (1) 
18259-15-9

>  <UNII>  (1) 
26R60S6A5I

>  <SYNONYMS>  (1) 
3,5-DIMETHOXY-4'-HYDROXY-TRANS-STILBENE; EH-301 COMPONENT PTEROSTILBENE; PHENOL, 4-((1E)-2-(3,5-DIMETHOXYPHENYL)ETHENYL)-

$$$$
