
     RDKit          3D

 23 24  0  0  1  0  0  0  0  0999 V2000
   -1.6161   -0.2012   -2.3467 O   0  0  0  0  0  0  0  0  0  0  0  0
   -0.3292   -0.5478   -2.8189 C   0  0  0  0  0  0  0  0  0  0  0  0
    0.7486   -0.6236   -1.6194 C   0  0  1  0  0  0  0  0  0  0  0  0
    1.6870   -1.7139   -1.8751 O   0  0  0  0  0  0  0  0  0  0  0  0
    3.0451   -1.7163   -1.3992 C   0  0  2  0  0  0  0  0  0  0  0  0
    3.6546   -0.3868   -0.9647 C   0  0  2  0  0  0  0  0  0  0  0  0
    4.7681   -0.5739   -0.0791 O   0  0  0  0  0  0  0  0  0  0  0  0
    2.6802    0.7012   -0.5317 C   0  0  1  0  0  0  0  0  0  0  0  0
    3.3833    1.9630   -0.6676 O   0  0  0  0  0  0  0  0  0  0  0  0
    1.4413    0.7492   -1.4269 C   0  0  1  0  0  0  0  0  0  0  0  0
    1.9126    1.2800   -2.6580 O   0  0  0  0  0  0  0  0  0  0  0  0
    4.4410   -1.9424   -3.6825 C   0  0  2  0  0  0  0  0  0  0  0  0
    5.2357   -0.5994   -3.6857 C   0  0  1  0  0  0  0  0  0  0  0  0
    6.3055   -0.3864   -4.7697 C   0  0  0  0  0  0  0  0  0  0  0  0
    5.8503   -0.6646   -6.0830 O   0  0  0  0  0  0  0  0  0  0  0  0
    4.3412    0.5521   -3.7493 O   0  0  0  0  0  0  0  0  0  0  0  0
    3.5022    0.6107   -4.9002 C   0  0  2  0  0  0  0  0  0  0  0  0
    2.6827    1.7890   -4.8946 O   0  0  0  0  0  0  0  0  0  0  0  0
    2.6655   -0.6789   -5.0391 C   0  0  2  0  0  0  0  0  0  0  0  0
    1.7814   -0.7532   -3.9578 O   0  0  0  0  0  0  0  0  0  0  0  0
    3.4426   -1.9822   -4.8936 C   0  0  1  0  0  0  0  0  0  0  0  0
    4.0681   -2.1889   -6.1589 O   0  0  0  0  0  0  0  0  0  0  0  0
    3.8893   -2.4112   -2.3852 O   0  0  0  0  0  0  0  0  0  0  0  0
  1  2  1  0
  3  4  1  0
  3 10  1  0
  3  2  1  6
  4  5  1  0
  5 23  1  6
  5  6  1  0
  6  7  1  1
  6  8  1  0
  8  9  1  6
  8 10  1  0
 10 11  1  6
 12 13  1  0
 12 21  1  0
 12 23  1  1
 13 16  1  0
 13 14  1  6
 14 15  1  0
 16 17  1  0
 17 18  1  1
 17 19  1  0
 19 20  1  1
 19 21  1  0
 21 22  1  6
M  END
>  <DRUGBANK_ID>  (1) 
DB04465

>  <SECONDARY_ACCESSION_NUMBERS>  (1) 
EXPT02005

>  <COMMON_NAME>  (1) 
Lactose

>  <CAS_NUMBER>  (1) 
63-42-3

>  <UNII>  (1) 
3SY5LH9PMK

$$$$
