
     RDKit          3D

 31 33  0  0  0  0  0  0  0  0999 V2000
    0.7862    0.0545    0.0065 C   0  0  0  0  0  0  0  0  0  0  0  0
    0.0566    1.2203   -0.0134 C   0  0  0  0  0  0  0  0  0  0  0  0
    0.1457   -1.1696    0.0275 C   0  0  0  0  0  0  0  0  0  0  0  0
   -1.3455    1.1466   -0.0226 C   0  0  0  0  0  0  0  0  0  0  0  0
   -1.2570   -1.2892    0.0201 C   0  0  0  0  0  0  0  0  0  0  0  0
   -2.0443   -0.0940   -0.0078 C   0  0  0  0  0  0  0  0  0  0  0  0
   -3.4368   -0.1046   -0.0383 N   0  0  0  0  0  0  0  0  0  0  0  0
   -4.2370   -0.6384    1.0572 C   0  0  0  0  0  0  0  0  0  0  0  0
   -4.1992    0.6139   -1.0587 C   0  0  0  0  0  0  0  0  0  0  0  0
   -5.1957   -1.6872    0.4848 C   0  0  0  0  0  0  0  0  0  0  0  0
   -5.1176   -0.4157   -1.7286 C   0  0  0  0  0  0  0  0  0  0  0  0
   -6.0107   -1.1596   -0.7115 C   0  0  0  0  0  0  0  0  0  0  0  0
   -6.6512   -2.3540   -1.4004 C   0  0  0  0  0  0  0  0  0  0  0  0
   -7.9994   -2.3608   -1.4030 O   0  0  0  0  0  0  0  0  0  0  0  0
   -6.0053   -3.2725   -1.8895 O   0  0  0  0  0  0  0  0  0  0  0  0
   -1.8725   -2.5962   -0.0182 N   0  0  0  0  0  0  0  0  0  0  0  0
   -1.1867   -3.8035   -0.0360 C   0  0  0  0  0  0  0  0  0  0  0  0
   -1.9396   -4.9628   -0.0786 N   0  0  0  0  0  0  0  0  0  0  0  0
    0.0413   -3.8642   -0.0031 O   0  0  0  0  0  0  0  0  0  0  0  0
   -1.2885   -6.2004   -0.0603 C   0  0  0  0  0  0  0  0  0  0  0  0
   -2.0720   -7.4585   -0.0115 C   0  0  0  0  0  0  0  0  0  0  0  0
   -0.0714   -6.3697   -0.1426 O   0  0  0  0  0  0  0  0  0  0  0  0
   -1.6568   -8.5403    0.8045 C   0  0  0  0  0  0  0  0  0  0  0  0
   -2.3212   -9.7721    0.7512 C   0  0  0  0  0  0  0  0  0  0  0  0
   -3.1292   -7.6511   -0.9091 C   0  0  0  0  0  0  0  0  0  0  0  0
   -3.3811   -9.9359   -0.1265 C   0  0  0  0  0  0  0  0  0  0  0  0
   -3.7755   -8.8886   -0.9525 C   0  0  0  0  0  0  0  0  0  0  0  0
   -4.7892   -9.0657   -1.8096 F   0  0  0  0  0  0  0  0  0  0  0  0
   -4.0240  -11.1108   -0.1670 F   0  0  0  0  0  0  0  0  0  0  0  0
   -0.3545   -8.4384    1.9415 Cl  0  0  0  0  0  0  0  0  0  0  0  0
    2.1258    0.0898    0.0022 F   0  0  0  0  0  0  0  0  0  0  0  0
  1  2  2  0
  1  3  1  0
  1 31  1  0
  2  4  1  0
  3  5  2  0
  4  6  2  0
  5  6  1  0
  5 16  1  0
  6  7  1  0
  7  8  1  0
  7  9  1  0
  8 10  1  0
  9 11  1  0
 10 12  1  0
 11 12  1  0
 12 13  1  0
 13 14  1  0
 13 15  2  0
 16 17  1  0
 17 18  1  0
 17 19  2  0
 18 20  1  0
 20 21  1  0
 20 22  2  0
 21 23  2  0
 21 25  1  0
 23 24  1  0
 23 30  1  0
 24 26  2  0
 25 27  2  0
 26 27  1  0
 26 29  1  0
 27 28  1  0
M  END
>  <DRUGBANK_ID>  (1) 
DB07396

>  <COMMON_NAME>  (1) 
AVE-2865

>  <CAS_NUMBER>  (1) 
648917-13-9

>  <UNII>  (1) 
6O70DED99N

$$$$
