
     RDKit          3D

 26 27  0  0  0  0  0  0  0  0999 V2000
    1.0674    0.3032   -0.0720 C   0  0  0  0  0  0  0  0  0  0  0  0
    0.5430    0.8074    1.1994 N   0  0  0  0  0  0  0  0  0  0  0  0
   -0.9162    0.8058    1.1732 C   0  0  0  0  0  0  0  0  0  0  0  0
    1.0391    0.1228    2.4049 C   0  0  0  0  0  0  0  0  0  0  0  0
    0.6405   -1.3422    2.5766 C   0  0  0  0  0  0  0  0  0  0  0  0
    1.1675   -2.2389    1.4859 C   0  0  0  0  0  0  0  0  0  0  0  0
    2.6155   -2.0028    1.2030 N   0  0  0  0  0  0  0  0  0  0  0  0
    3.3598   -3.1649    1.4402 C   0  0  0  0  0  0  0  0  0  0  0  0
    4.4322   -3.2549    2.2620 N   0  0  0  0  0  0  0  0  0  0  0  0
    4.7692   -4.5195    2.5978 C   0  0  0  0  0  0  0  0  0  0  0  0
    6.0570   -4.8377    3.0290 N   0  0  0  0  0  0  0  0  0  0  0  0
    6.6443   -6.0592    3.0471 C   0  0  0  0  0  0  0  0  0  0  0  0
    7.5597   -6.2421    3.9011 O   0  0  0  0  0  0  0  0  0  0  0  0
    6.3288   -7.1256    2.2383 N   0  0  0  0  0  0  0  0  0  0  0  0
    5.6836   -7.2716    0.9609 C   0  0  0  0  0  0  0  0  0  0  0  0
    5.6537   -6.2340    0.0218 C   0  0  0  0  0  0  0  0  0  0  0  0
    4.7681   -6.2659   -1.0925 C   0  0  0  0  0  0  0  0  0  0  0  0
    3.9483   -7.3886   -1.3629 C   0  0  0  0  0  0  0  0  0  0  0  0
    2.5544   -7.0918   -2.3983 Cl  0  0  0  0  0  0  0  0  0  0  0  0
    3.9969   -8.4852   -0.4544 C   0  0  0  0  0  0  0  0  0  0  0  0
    2.5827   -9.5409   -0.2943 Cl  0  0  0  0  0  0  0  0  0  0  0  0
    4.8706   -8.4190    0.6986 C   0  0  0  0  0  0  0  0  0  0  0  0
    3.9370   -5.5296    2.4573 N   0  0  0  0  0  0  0  0  0  0  0  0
    2.9486   -5.3532    1.5785 C   0  0  0  0  0  0  0  0  0  0  0  0
    2.3287   -6.5350    1.0088 C   0  0  0  0  0  0  0  0  0  0  0  0
    2.8026   -4.2362    0.8508 C   0  0  0  0  0  0  0  0  0  0  0  0
  1  2  1  0
  2  3  1  0
  2  4  1  0
  4  5  1  0
  5  6  1  0
  6  7  1  0
  7  8  1  0
  8  9  2  0
  8 26  1  0
  9 10  1  0
 10 11  1  0
 10 23  2  0
 11 12  1  0
 12 13  2  0
 12 14  1  0
 14 15  1  0
 15 16  2  0
 15 22  1  0
 16 17  1  0
 17 18  2  0
 18 19  1  0
 18 20  1  0
 20 21  1  0
 20 22  2  0
 23 24  1  0
 24 25  1  0
 24 26  2  0
M  END
>  <DRUGBANK_ID>  (1) 
DB17114

>  <COMMON_NAME>  (1) 
CT-179

>  <CAS_NUMBER>  (1) 
1996636-69-1

>  <UNII>  (1) 
4Z0F3ZM8ZD

>  <SYNONYMS>  (1) 
1-(2-(3-(3,4-dichlorophenyl)ureido)-6-methyl-pyrimidin-4-yl)-amino-3(dimethylamino)propane; CT 179; CT179; Urea, n-(3,4-dichlorophenyl)-n'-(4-((3-(dimethylamino)propyl)amino)-6-methyl-2-pyrimidinyl)-

$$$$
