
     RDKit          3D

 22 23  0  0  0  0  0  0  0  0999 V2000
    1.0267    0.0662    0.0700 P   0  0  0  0  0  0  0  0  0  0  0  0
    0.9185    0.6993    1.4465 O   0  0  0  0  0  0  0  0  0  0  0  0
    0.9699    1.0296   -1.2280 O   0  0  0  0  0  0  0  0  0  0  0  0
   -0.7033    0.0662    0.0700 O   0  0  0  0  0  0  0  0  0  0  0  0
    2.7567    0.0662    0.0700 O   0  0  0  0  0  0  0  0  0  0  0  0
    3.3433    1.2663    0.6875 C   0  0  0  0  0  0  0  0  0  0  0  0
    2.8085    2.5766    0.0435 C   0  0  1  0  0  0  0  0  0  0  0  0
    1.4319    2.8210    0.4212 O   0  0  0  0  0  0  0  0  0  0  0  0
    3.4884    3.9077    0.3048 C   0  0  1  0  0  0  0  0  0  0  0  0
    3.2747    4.7595   -0.8468 O   0  0  0  0  0  0  0  0  0  0  0  0
    2.7322    4.5028    1.4817 C   0  0  1  0  0  0  0  0  0  0  0  0
    2.6945    5.9297    1.4795 O   0  0  0  0  0  0  0  0  0  0  0  0
    1.3277    3.9275    1.3136 C   0  0  2  0  0  0  0  0  0  0  0  0
    0.6399    3.6071    2.5644 N   0  0  0  0  0  0  0  0  0  0  0  0
    1.2821    2.8509    3.5242 C   0  0  0  0  0  0  0  0  0  0  0  0
    2.4259    2.4167    3.4393 O   0  0  0  0  0  0  0  0  0  0  0  0
    0.6391    2.6569    4.7060 N   0  0  0  0  0  0  0  0  0  0  0  0
   -0.5127    3.2414    5.1227 C   0  0  0  0  0  0  0  0  0  0  0  0
   -0.9407    3.0599    6.2530 O   0  0  0  0  0  0  0  0  0  0  0  0
   -1.1888    4.1332    4.1455 C   0  0  0  0  0  0  0  0  0  0  0  0
   -0.5804    4.2234    2.7804 C   0  0  0  0  0  0  0  0  0  0  0  0
   -1.1615    4.8921    1.9215 O   0  0  0  0  0  0  0  0  0  0  0  0
  2  1  2  0
  3  1  1  0
  4  1  1  0
  5  1  1  0
  6  5  1  0
  7  6  1  1
  7  8  1  0
  9  7  1  0
  9 10  1  6
 11  9  1  0
 11 12  1  6
 13  8  1  0
 13 11  1  0
 13 14  1  1
 15 14  1  0
 15 16  2  0
 15 17  1  0
 18 17  1  0
 18 19  2  0
 18 20  1  0
 20 21  1  0
 21 14  1  0
 21 22  2  0
M  END
>  <DRUGBANK_ID>  (1) 
DB03668

>  <SECONDARY_ACCESSION_NUMBERS>  (1) 
EXPT00725

>  <COMMON_NAME>  (1) 
6-oxouridine 5'-phosphate

>  <SYNONYMS>  (1) 
5,6-dihydro-6-oxouridine 5'-monophosphate; 5,6-dihydro-6-oxouridine 5'-phosphate

$$$$
