
     RDKit          3D

 33 37  0  0  1  0  0  0  0  0999 V2000
    0.9717    0.0399   -0.0664 C   0  0  0  0  0  0  0  0  0  0  0  0
    0.1549    0.6549    0.8004 C   0  0  0  0  0  0  0  0  0  0  0  0
   -1.3371    0.6937    0.7241 C   0  0  0  0  0  0  0  0  0  0  0  0
   -1.9315    1.5178    1.4285 O   0  0  0  0  0  0  0  0  0  0  0  0
   -1.9694   -0.0971   -0.2187 N   0  0  0  0  0  0  0  0  0  0  0  0
   -3.1664    0.3947   -0.8886 C   0  0  0  0  0  0  0  0  0  0  0  0
   -4.3916   -0.4648   -0.5914 C   0  0  0  0  0  0  0  0  0  0  0  0
   -4.1286   -1.9514   -0.8800 C   0  0  0  0  0  0  0  0  0  0  0  0
   -2.8408   -2.4053   -0.1984 C   0  0  2  0  0  0  0  0  0  0  0  0
   -1.6425   -1.5101   -0.4846 C   0  0  0  0  0  0  0  0  0  0  0  0
   -2.5758   -3.8324   -0.2522 N   0  0  0  0  0  0  0  0  0  0  0  0
   -2.2135   -4.7503   -1.2294 C   0  0  0  0  0  0  0  0  0  0  0  0
   -2.1418   -5.9736   -0.5636 C   0  0  0  0  0  0  0  0  0  0  0  0
   -2.4488   -5.6803    0.7709 C   0  0  0  0  0  0  0  0  0  0  0  0
   -2.7271   -4.4009    0.9549 N   0  0  0  0  0  0  0  0  0  0  0  0
   -2.4632   -6.5539    1.9054 C   0  0  0  0  0  0  0  0  0  0  0  0
   -3.6522   -6.7371    2.6025 C   0  0  0  0  0  0  0  0  0  0  0  0
   -3.6404   -7.5050    3.7535 C   0  0  0  0  0  0  0  0  0  0  0  0
   -2.4600   -8.1293    4.1793 C   0  0  0  0  0  0  0  0  0  0  0  0
   -1.2769   -7.9539    3.4554 C   0  0  0  0  0  0  0  0  0  0  0  0
   -1.2734   -7.1524    2.3232 C   0  0  0  0  0  0  0  0  0  0  0  0
   -2.3447   -8.9127    5.3085 O   0  0  0  0  0  0  0  0  0  0  0  0
   -3.4717   -9.1335    6.0604 C   0  0  0  0  0  0  0  0  0  0  0  0
   -4.5827   -9.8037    5.5399 C   0  0  0  0  0  0  0  0  0  0  0  0
   -5.7251   -9.9563    6.3210 C   0  0  0  0  0  0  0  0  0  0  0  0
   -5.7312   -9.4965    7.6377 C   0  0  0  0  0  0  0  0  0  0  0  0
   -4.5997   -8.8764    8.1716 C   0  0  0  0  0  0  0  0  0  0  0  0
   -3.4660   -8.6920    7.3816 C   0  0  0  0  0  0  0  0  0  0  0  0
   -1.8039   -7.1352   -1.2672 C   0  0  0  0  0  0  0  0  0  0  0  0
   -1.5535   -7.0242   -2.5796 N   0  0  0  0  0  0  0  0  0  0  0  0
   -1.6458   -5.7913   -3.1329 C   0  0  0  0  0  0  0  0  0  0  0  0
   -1.9626   -4.5955   -2.5493 N   0  0  0  0  0  0  0  0  0  0  0  0
   -1.7128   -8.3705   -0.6629 N   0  0  0  0  0  0  0  0  0  0  0  0
  1  2  2  0
  2  3  1  0
  3  4  2  0
  3  5  1  0
  5  6  1  0
  5 10  1  0
  6  7  1  0
  7  8  1  0
  8  9  1  0
  9 10  1  0
  9 11  1  6
 11 12  1  0
 11 15  1  0
 12 13  2  0
 12 32  1  0
 13 14  1  0
 13 29  1  0
 14 15  2  0
 14 16  1  0
 16 17  2  0
 16 21  1  0
 17 18  1  0
 18 19  2  0
 19 20  1  0
 19 22  1  0
 20 21  2  0
 22 23  1  0
 23 24  2  0
 23 28  1  0
 24 25  1  0
 25 26  2  0
 26 27  1  0
 27 28  2  0
 29 30  2  0
 29 33  1  0
 30 31  1  0
 31 32  2  0
M  END
>  <DRUGBANK_ID>  (1) 
DB09053

>  <COMMON_NAME>  (1) 
Ibrutinib

>  <CAS_NUMBER>  (1) 
936563-96-1

>  <UNII>  (1) 
1X70OSD4VX

>  <SYNONYMS>  (1) 
1-[(3R)-3-[4-Amino-3-(4-phenoxyphenyl)-1H-pyrazolo[3,4-d]pyrimidin-1-yl]piperidin-1-yl]prop-2-en-1-one; Ibrutinib

$$$$
