
     RDKit          3D

 25 27  0  0  0  0  0  0  0  0999 V2000
    0.5521    0.1342    0.2339 C   0  0  0  0  0  0  0  0  0  0  0  0
    0.1325    1.2530    1.1924 C   0  0  0  0  0  0  0  0  0  0  0  0
   -0.0648    0.3374   -1.2172 C   0  0  0  0  0  0  0  0  0  0  0  0
    0.3384   -1.3704    0.6712 C   0  0  0  0  0  0  0  0  0  0  0  0
    1.9332    0.2589    0.5742 O   0  0  0  0  0  0  0  0  0  0  0  0
   -0.0813    0.9435    2.5235 C   0  0  0  0  0  0  0  0  0  0  0  0
    0.4028    2.6238    0.8898 C   0  0  0  0  0  0  0  0  0  0  0  0
   -0.4211   -0.7575   -2.0354 C   0  0  0  0  0  0  0  0  0  0  0  0
   -0.2587    1.5947   -1.8607 C   0  0  0  0  0  0  0  0  0  0  0  0
    1.4065   -2.2450    0.7620 O   0  0  0  0  0  0  0  0  0  0  0  0
   -0.7781   -1.8236    0.8555 O   0  0  0  0  0  0  0  0  0  0  0  0
   -0.1051    1.9657    3.4649 C   0  0  0  0  0  0  0  0  0  0  0  0
    0.4425    3.6311    1.8211 C   0  0  0  0  0  0  0  0  0  0  0  0
   -0.8850   -0.5836   -3.3653 C   0  0  0  0  0  0  0  0  0  0  0  0
   -0.7389    1.7901   -3.1645 C   0  0  0  0  0  0  0  0  0  0  0  0
    2.8597   -2.0316    0.6842 C   0  0  0  0  0  0  0  0  0  0  0  0
    0.1364    3.2994    3.1137 C   0  0  0  0  0  0  0  0  0  0  0  0
   -1.0243    0.6860   -3.9336 C   0  0  0  0  0  0  0  0  0  0  0  0
    3.4128   -1.7895   -0.7529 C   0  0  0  0  0  0  0  0  0  0  0  0
    3.0462   -0.5411   -1.4375 N   0  0  0  0  0  0  0  0  0  0  0  0
    3.8773    0.6276   -1.1077 C   0  0  0  0  0  0  0  0  0  0  0  0
    2.8639   -0.6702   -2.8733 C   0  0  0  0  0  0  0  0  0  0  0  0
    3.1285    1.9127   -1.4821 C   0  0  0  0  0  0  0  0  0  0  0  0
    2.2876    0.6067   -3.4689 C   0  0  0  0  0  0  0  0  0  0  0  0
    2.7971    1.9501   -2.9612 C   0  0  0  0  0  0  0  0  0  0  0  0
  1  2  1  0
  1  3  1  0
  1  4  1  0
  1  5  1  0
  2  6  2  0
  2  7  1  0
  3  8  2  0
  3  9  1  0
  4 10  1  0
  4 11  2  0
  6 12  1  0
  7 13  2  0
  8 14  1  0
  9 15  2  0
 10 16  1  0
 12 17  2  0
 13 17  1  0
 14 18  2  0
 15 18  1  0
 16 19  1  0
 19 20  1  0
 20 21  1  0
 20 22  1  0
 21 23  1  0
 22 24  1  0
 23 25  1  0
 24 25  1  0
M  END
>  <DRUGBANK_ID>  (1) 
DB15888

>  <COMMON_NAME>  (1) 
Pipethanate

>  <CAS_NUMBER>  (1) 
4546-39-8

>  <UNII>  (1) 
P32MG14U83

>  <SYNONYMS>  (1) 
Piperilate; Pipetanato; Pipethanate; Pipethanatum

$$$$
