
     RDKit          3D

 33 36  0  0  0  0  0  0  0  0999 V2000
    1.4301   -0.1889    0.0434 C   0  0  0  0  0  0  0  0  0  0  0  0
    0.5436   -1.2806    0.0534 C   0  0  0  0  0  0  0  0  0  0  0  0
   -0.8256   -1.0481   -0.0219 C   0  0  0  0  0  0  0  0  0  0  0  0
   -1.2145    0.2769   -0.1748 C   0  0  0  0  0  0  0  0  0  0  0  0
   -0.4141    1.3681    0.0841 C   0  0  0  0  0  0  0  0  0  0  0  0
    0.9500    1.1361    0.0759 C   0  0  0  0  0  0  0  0  0  0  0  0
   -0.9456    2.6330    0.2556 O   0  0  0  0  0  0  0  0  0  0  0  0
   -2.3127    2.7696    0.5293 C   0  0  0  0  0  0  0  0  0  0  0  0
   -2.9649    2.1123    1.5782 C   0  0  0  0  0  0  0  0  0  0  0  0
   -4.3625    2.2370    1.7069 C   0  0  0  0  0  0  0  0  0  0  0  0
   -5.0731    3.0573    0.8294 C   0  0  0  0  0  0  0  0  0  0  0  0
   -4.3315    3.7171   -0.1399 C   0  0  0  0  0  0  0  0  0  0  0  0
   -2.9862    3.5867   -0.3116 N   0  0  0  0  0  0  0  0  0  0  0  0
   -6.5605    3.2577    0.9101 C   0  0  0  0  0  0  0  0  0  0  0  0
   -6.8902    4.5526    1.1761 F   0  0  0  0  0  0  0  0  0  0  0  0
   -7.2042    2.9430   -0.2455 F   0  0  0  0  0  0  0  0  0  0  0  0
   -7.1558    2.5185    1.8881 F   0  0  0  0  0  0  0  0  0  0  0  0
   -1.8348   -2.1228    0.0203 C   0  0  0  0  0  0  0  0  0  0  0  0
   -3.1806   -1.9937    0.0795 C   0  0  0  0  0  0  0  0  0  0  0  0
   -4.0896   -3.1959   -0.0074 C   0  0  0  0  0  0  0  0  0  0  0  0
   -4.9525   -3.0158   -1.2898 C   0  0  0  0  0  0  0  0  0  0  0  0
   -5.7741   -1.7964   -1.1994 N   0  0  0  0  0  0  0  0  0  0  0  0
   -4.9038   -0.6331   -1.1389 C   0  0  0  0  0  0  0  0  0  0  0  0
   -4.0735   -0.7571    0.1374 C   0  0  0  0  0  0  0  0  0  0  0  0
   -7.1337   -1.5920   -1.0476 C   0  0  0  0  0  0  0  0  0  0  0  0
   -7.6048   -0.4595   -1.0236 O   0  0  0  0  0  0  0  0  0  0  0  0
   -8.0247   -2.6233   -0.9797 N   0  0  0  0  0  0  0  0  0  0  0  0
   -7.8116   -3.9885   -0.8451 C   0  0  0  0  0  0  0  0  0  0  0  0
   -6.9457   -4.4524    0.1280 C   0  0  0  0  0  0  0  0  0  0  0  0
   -6.3583   -5.7026   -0.0383 C   0  0  0  0  0  0  0  0  0  0  0  0
   -6.8234   -6.5003   -1.0599 C   0  0  0  0  0  0  0  0  0  0  0  0
   -7.8180   -6.0998   -1.8775 N   0  0  0  0  0  0  0  0  0  0  0  0
   -8.3168   -4.8216   -1.7723 N   0  0  0  0  0  0  0  0  0  0  0  0
  1  2  2  0
  1  6  1  0
  2  3  1  0
  3  4  2  0
  3 18  1  0
  4  5  1  0
  5  6  2  0
  5  7  1  0
  7  8  1  0
  8  9  2  0
  8 13  1  0
  9 10  1  0
 10 11  2  0
 11 12  1  0
 11 14  1  0
 12 13  2  0
 14 15  1  0
 14 16  1  0
 14 17  1  0
 18 19  2  3
 19 20  1  0
 19 24  1  0
 20 21  1  0
 21 22  1  0
 22 23  1  0
 22 25  1  0
 23 24  1  0
 25 26  2  0
 25 27  1  0
 27 28  1  0
 28 29  2  0
 28 33  1  0
 29 30  1  0
 30 31  2  0
 31 32  1  0
 32 33  2  0
M  END
>  <DRUGBANK_ID>  (1) 
DB12012

>  <COMMON_NAME>  (1) 
PF-04457845

>  <CAS_NUMBER>  (1) 
1020315-31-4

>  <UNII>  (1) 
H4C81M8YYW

$$$$
