
     RDKit          3D

 28 31  0  0  0  0  0  0  0  0999 V2000
   -0.8747    0.6001   -1.2152 C   0  0  0  0  0  0  0  0  0  0  0  0
   -0.4093   -0.8235   -1.8019 C   0  0  1  0  0  0  0  0  0  0  0  0
    0.3790   -2.3993   -1.2795 C   0  0  2  0  0  0  0  0  0  0  0  0
   -1.7839   -1.6362   -2.0969 C   0  0  2  0  0  0  0  0  0  0  0  0
    0.8169   -0.0804   -2.4434 C   0  0  0  0  0  0  0  0  0  0  0  0
    1.9889   -2.2900   -0.5359 C   0  0  1  0  0  0  0  0  0  0  0  0
   -0.0140   -3.2836   -2.5124 C   0  0  0  0  0  0  0  0  0  0  0  0
   -2.8546   -0.5425   -1.3405 C   0  0  0  0  0  0  0  0  0  0  0  0
   -2.9827   -1.6504   -2.9470 O   0  0  0  0  0  0  0  0  0  0  0  0
   -0.9451   -2.3003   -3.2749 C   0  0  0  0  0  0  0  0  0  0  0  0
    2.0109    0.1938   -1.3652 C   0  0  0  0  0  0  0  0  0  0  0  0
    2.4988   -0.6909   -0.3948 C   0  0  0  0  0  0  0  0  0  0  0  0
    2.4834   -3.4358    0.6436 C   0  0  0  0  0  0  0  0  0  0  0  0
   -2.8430   -0.4350    0.4654 C   0  0  0  0  0  0  0  0  0  0  0  0
   -3.2726    0.4283   -2.0268 O   0  0  0  0  0  0  0  0  0  0  0  0
    3.0482   -0.2491    1.2256 C   0  0  2  0  0  0  0  0  0  0  0  0
    3.1364   -2.8461    1.9417 C   0  0  0  0  0  0  0  0  0  0  0  0
   -1.9689    0.5599    1.3450 O   0  0  0  0  0  0  0  0  0  0  0  0
    4.0277    0.9776    0.6938 C   0  0  0  0  0  0  0  0  0  0  0  0
    2.4728   -1.5516    2.1043 C   0  0  0  0  0  0  0  0  0  0  0  0
    2.8142    0.6660    2.7231 C   0  0  0  0  0  0  0  0  0  0  0  0
   -0.5742    0.6923    1.2500 C   0  0  0  0  0  0  0  0  0  0  0  0
    1.3026   -1.8603    2.8099 C   0  0  0  0  0  0  0  0  0  0  0  0
    2.3884   -0.1133    4.0567 C   0  0  0  0  0  0  0  0  0  0  0  0
   -0.0498   -0.6908    0.8550 C   0  0  0  0  0  0  0  0  0  0  0  0
    0.0681    1.7531    1.2213 O   0  0  0  0  0  0  0  0  0  0  0  0
    1.1950   -0.4788    3.3128 C   0  0  0  0  0  0  0  0  0  0  0  0
    0.2846    0.2442    3.2416 O   0  0  0  0  0  0  0  0  0  0  0  0
  2  4  1  0
  2  5  1  0
  2  1  1  1
  3  2  1  0
  3  7  1  6
  4 10  1  0
  4  9  1  6
  4  8  1  0
  5 11  1  0
  6  3  1  0
  6 12  1  0
  6 13  1  1
  7 10  1  0
  8 14  1  0
  8 15  2  0
 11 12  2  0
 13 17  1  0
 14 18  1  0
 16 12  1  0
 16 20  1  0
 16 21  1  0
 16 19  1  6
 17 20  1  0
 18 22  1  0
 20 23  2  0
 21 24  1  0
 22 25  1  0
 22 26  2  0
 23 27  1  0
 24 27  1  0
 27 28  2  0
M  END
>  <DRUGBANK_ID>  (1) 
DB05288

>  <COMMON_NAME>  (1) 
Anecortave acetate

>  <CAS_NUMBER>  (1) 
7753-60-8

>  <UNII>  (1) 
Y0PC411K4T

>  <SYNONYMS>  (1) 
Anecortave acetate

$$$$
