LZ2
     RDKit          3D

 15 16  0  0  0  0  0  0  0  0999 V2000
    0.9597    0.1266   -0.0988 N   0  0  0  0  0  0  0  0  0  0  0  0
    0.3362    1.6062    0.3834 S   0  0  0  0  0  0  0  0  0  0  0  0
    0.9545    2.5556   -0.5085 O   0  0  0  0  0  0  0  0  0  0  0  0
   -1.1017    1.4408    0.4456 O   0  0  0  0  0  0  0  0  0  0  0  0
    0.9081    1.9477    2.0411 C   0  0  0  0  0  0  0  0  0  0  0  0
    0.8828    3.3095    2.4018 C   0  0  0  0  0  0  0  0  0  0  0  0
    1.2630    3.7090    3.6779 C   0  0  0  0  0  0  0  0  0  0  0  0
    1.6873    2.7560    4.5974 C   0  0  0  0  0  0  0  0  0  0  0  0
    1.7575    1.3894    4.2626 C   0  0  0  0  0  0  0  0  0  0  0  0
    2.2093    0.4386    5.2066 C   0  0  0  0  0  0  0  0  0  0  0  0
    2.5537    0.8599    6.4674 O   0  0  0  0  0  0  0  0  0  0  0  0
    2.3141   -0.9138    4.8940 C   0  0  0  0  0  0  0  0  0  0  0  0
    1.9315   -1.3435    3.6377 C   0  0  0  0  0  0  0  0  0  0  0  0
    1.4343   -0.4284    2.7142 C   0  0  0  0  0  0  0  0  0  0  0  0
    1.3588    0.9612    2.9645 C   0  0  0  0  0  0  0  0  0  0  0  0
  1  2  1  0
  2  3  2  0
  2  4  2  0
  2  5  1  0
  5  6  2  0
  5 15  1  0
  6  7  1  0
  7  8  2  0
  8  9  1  0
  9 10  1  0
  9 15  2  0
 10 11  1  0
 10 12  2  0
 12 13  1  0
 13 14  2  0
 14 15  1  0
M  END
>  <DRUGBANK_ID>  (1) 
DB08132

>  <COMMON_NAME>  (1) 
5-hydroxynaphthalene-1-sulfonamide

>  <UNII>  (1) 
5MS1N9V1FR

$$$$
