
     RDKit          3D

 15 17  0  0  0  0  0  0  0  0999 V2000
    0.0075   -1.3461   -0.0007 N   0  0  0  0  0  0  0  0  0  0  0  0
   -1.1560   -0.6698   -0.0011 C   0  0  0  0  0  0  0  0  0  0  0  0
    1.1671   -0.6638   -0.0003 C   0  0  0  0  0  0  0  0  0  0  0  0
   -0.0023    1.4623   -0.0024 C   0  0  0  0  0  0  0  0  0  0  0  0
    1.2152    0.7484   -0.0008 C   0  0  0  0  0  0  0  0  0  0  0  0
   -1.2154    0.7420   -0.0013 C   0  0  0  0  0  0  0  0  0  0  0  0
   -2.3578   -1.3744   -0.0011 C   0  0  0  0  0  0  0  0  0  0  0  0
    2.3749   -1.3599    0.0006 C   0  0  0  0  0  0  0  0  0  0  0  0
    2.4702    1.3931   -0.0002 C   0  0  0  0  0  0  0  0  0  0  0  0
   -2.4757    1.3781   -0.0004 C   0  0  0  0  0  0  0  0  0  0  0  0
   -3.6006   -0.7301    0.0004 C   0  0  0  0  0  0  0  0  0  0  0  0
    3.6581    0.6778    0.0001 C   0  0  0  0  0  0  0  0  0  0  0  0
    3.6127   -0.7059    0.0003 C   0  0  0  0  0  0  0  0  0  0  0  0
   -3.6578    0.6533    0.0019 C   0  0  0  0  0  0  0  0  0  0  0  0
   -0.0063    2.8644    0.0025 N   0  0  0  0  0  0  0  0  0  0  0  0
  2  1  2  0
  3  1  1  0
  5  3  2  0
  5  4  1  0
  6  2  1  0
  6  4  2  0
  7  2  1  0
  8  3  1  0
  9  5  1  0
 10  6  1  0
 11  7  2  0
 12  9  2  0
 13  8  2  0
 13 12  1  0
 14 10  2  0
 14 11  1  0
 15  4  1  0
M  END
>  <DRUGBANK_ID>  (1) 
DB11561

>  <COMMON_NAME>  (1) 
Aminacrine

>  <CAS_NUMBER>  (1) 
90-45-9

>  <UNII>  (1) 
78OY3Z0P7Z

>  <SYNONYMS>  (1) 
10-amino-5-azaanthracene; 5-aminoacridine; 9-acridinamine; 9AA; Aminacrin; Aminacrine; Aminoacridina; Aminoacridine; Aminoacridinum

$$$$
