
     RDKit          3D

 18 18  0  0  0  0  0  0  0  0999 V2000
   -0.0696   -0.6385    0.0044 C   0  0  0  0  0  0  0  0  0  0  0  0
   -1.2248   -1.3855    0.0400 C   0  0  0  0  0  0  0  0  0  0  0  0
   -2.4596   -0.7390    0.0376 C   0  0  0  0  0  0  0  0  0  0  0  0
   -2.6391    0.6595   -0.0224 C   0  0  0  0  0  0  0  0  0  0  0  0
   -1.4453    1.4029   -0.0451 C   0  0  0  0  0  0  0  0  0  0  0  0
   -0.1755    0.7572   -0.0242 C   0  0  0  0  0  0  0  0  0  0  0  0
    1.2481    1.7438   -0.0218 Cl  0  0  0  0  0  0  0  0  0  0  0  0
    1.4238   -1.5037    0.0003 Cl  0  0  0  0  0  0  0  0  0  0  0  0
   -3.9435    1.2777   -0.0474 N   0  0  0  0  0  0  0  0  0  0  0  0
   -5.1485    0.5786   -0.0363 C   0  0  0  0  0  0  0  0  0  0  0  0
   -6.3993    1.2083   -0.0740 N   0  0  0  0  0  0  0  0  0  0  0  0
   -5.1303   -0.7183    0.0156 N   0  0  0  0  0  0  0  0  0  0  0  0
   -7.6307    0.5396   -0.0545 C   0  0  0  0  0  0  0  0  0  0  0  0
   -8.8120    1.2340   -0.0966 N   0  0  0  0  0  0  0  0  0  0  0  0
   -7.6098   -0.7544    0.0050 N   0  0  0  0  0  0  0  0  0  0  0  0
  -10.1478    0.6014   -0.0774 C   0  0  0  0  0  0  0  0  0  0  0  0
  -10.9453    1.0102    1.1539 C   0  0  0  0  0  0  0  0  0  0  0  0
  -10.9265    0.8940   -1.3531 C   0  0  0  0  0  0  0  0  0  0  0  0
  1  2  2  0
  1  8  1  0
  2  3  1  0
  3  4  2  0
  4  9  1  0
  4  5  1  0
  5  6  2  0
  6  1  1  0
  6  7  1  0
  9 10  1  0
 10 11  1  0
 10 12  2  0
 11 13  1  0
 13 14  1  0
 13 15  2  0
 14 16  1  0
 16 17  1  0
 16 18  1  0
M  END
>  <DRUGBANK_ID>  (1) 
DB12314

>  <COMMON_NAME>  (1) 
Chlorproguanil

>  <CAS_NUMBER>  (1) 
537-21-3

>  <UNII>  (1) 
8O3249M729

>  <SYNONYMS>  (1) 
Chlorproguanil; Chlorproguanilum; Clorproguanil

$$$$
