
     RDKit          3D

 28 28  0  0  0  0  0  0  0  0999 V2000
    7.7606    0.4089    8.5773 I   0  0  0  0  0  0  0  0  0  0  0  0
    6.1853    2.5622    2.2524 S   0  0  0  0  0  0  0  0  0  0  0  0
    2.1338    0.2555    2.3706 O   0  0  0  0  0  0  0  0  0  0  0  0
    3.6844    4.5307    5.6761 O   0  0  0  0  0  0  0  0  0  0  0  0
    1.5063    5.6653    5.6291 O   0  0  0  0  0  0  0  0  0  0  0  0
    0.2238    4.6091    7.0869 O   0  0  0  0  0  0  0  0  0  0  0  0
    1.0301    5.3154    0.3749 O   0  0  0  0  0  0  0  0  0  0  0  0
    1.2326    3.1389    0.7019 O   0  0  0  0  0  0  0  0  0  0  0  0
    3.4223    1.7847    3.2841 N   0  0  0  0  0  0  0  0  0  0  0  0
    2.7066    4.7708    3.5536 N   0  0  0  0  0  0  0  0  0  0  0  0
    1.9281    2.0762    6.2628 N   0  0  0  0  0  0  0  0  0  0  0  0
    4.1657    2.7919    4.1454 C   0  0  1  0  0  0  0  0  0  0  0  0
    0.2022    2.5182    4.5005 C   0  0  0  0  0  0  0  0  0  0  0  0
    0.8507    2.1158    3.1682 C   0  0  0  0  0  0  0  0  0  0  0  0
    5.4237    3.4666    3.5891 C   0  0  0  0  0  0  0  0  0  0  0  0
    1.2247    3.0859    5.4498 C   0  0  1  0  0  0  0  0  0  0  0  0
    2.1606    1.3280    2.9903 C   0  0  0  0  0  0  0  0  0  0  0  0
    3.5379    4.1174    4.5170 C   0  0  0  0  0  0  0  0  0  0  0  0
    6.6776    1.0841    3.1811 C   0  0  0  0  0  0  0  0  0  0  0  0
    0.9639    4.5027    6.1563 C   0  0  0  0  0  0  0  0  0  0  0  0
    7.5664    1.3981    4.3505 C   0  0  0  0  0  0  0  0  0  0  0  0
    2.7282    4.6374    2.0697 C   0  0  0  0  0  0  0  0  0  0  0  0
    7.2852    0.9001    5.6323 C   0  0  0  0  0  0  0  0  0  0  0  0
    8.7040    2.1938    4.1579 C   0  0  0  0  0  0  0  0  0  0  0  0
    8.1428    1.1960    6.6922 C   0  0  0  0  0  0  0  0  0  0  0  0
    9.5381    2.5071    5.2224 C   0  0  0  0  0  0  0  0  0  0  0  0
    1.5969    4.2679    1.0027 C   0  0  0  0  0  0  0  0  0  0  0  0
    9.2627    2.0031    6.4915 C   0  0  0  0  0  0  0  0  0  0  0  0
  1 25  1  0
  2 15  1  0
  2 19  1  0
  3 17  2  0
  4 18  2  0
  5 20  1  0
  6 20  2  0
  7 27  1  0
  8 27  2  0
  9 17  1  0
 10 18  1  0
 10 22  1  0
 12 18  1  0
 12 15  1  6
 12  9  1  0
 13 14  1  0
 14 17  1  0
 16 20  1  0
 16 13  1  0
 16 11  1  1
 19 21  1  0
 21 23  2  0
 21 24  1  0
 22 27  1  0
 23 25  1  0
 24 26  2  0
 25 28  2  0
 26 28  1  0
M  END
>  <DRUGBANK_ID>  (1) 
DB04341

>  <SECONDARY_ACCESSION_NUMBERS>  (1) 
EXPT01551

>  <COMMON_NAME>  (1) 
S-(3-Iodobenzyl)glutathione

$$$$
