PAY
     RDKit          3D

 20 19  0  0  0  0  0  0  0  0999 V2000
   -5.8614    0.2063   -2.7243 O   0  0  0  0  0  0  0  0  0  0  0  0
   -4.2371    0.2535   -1.2099 O   0  0  0  0  0  0  0  0  0  0  0  0
   -4.5614    0.2657   -2.3847 C   0  0  0  0  0  0  0  0  0  0  0  0
   -3.6053    0.3391   -3.5604 C   0  0  0  0  0  0  0  0  0  0  0  0
   -3.6444   -0.8890   -4.4588 C   0  0  0  0  0  0  0  0  0  0  0  0
   -5.0379   -1.3018   -5.0038 C   0  0  1  0  0  0  0  0  0  0  0  0
   -5.4543   -0.2483   -6.0234 C   0  0  0  0  0  0  0  0  0  0  0  0
   -5.6707   -0.4162   -7.2055 O   0  0  0  0  0  0  0  0  0  0  0  0
   -5.5237    0.9888   -5.4886 O   0  0  0  0  0  0  0  0  0  0  0  0
   -5.1283   -2.7163   -5.6243 C   0  0  0  0  0  0  0  0  0  0  0  0
   -4.9381   -3.9070   -4.6469 C   0  0  2  0  0  0  0  0  0  0  0  0
   -6.2114   -4.2241   -3.8916 C   0  0  0  0  0  0  0  0  0  0  0  0
   -6.9886   -5.1213   -4.1373 O   0  0  0  0  0  0  0  0  0  0  0  0
   -6.4328   -3.4008   -2.8439 O   0  0  0  0  0  0  0  0  0  0  0  0
   -3.7837   -3.6740   -3.6789 C   0  0  0  0  0  0  0  0  0  0  0  0
   -3.2309   -4.7372   -2.7516 C   0  0  2  0  0  0  0  0  0  0  0  0
   -1.7040   -4.6064   -2.7294 C   0  0  0  0  0  0  0  0  0  0  0  0
   -3.6475   -6.0975   -3.2245 C   0  0  0  0  0  0  0  0  0  0  0  0
   -4.4900   -6.7259   -2.3808 O   0  0  0  0  0  0  0  0  0  0  0  0
   -3.3203   -6.5604   -4.3050 O   0  0  0  0  0  0  0  0  0  0  0  0
  1  3  1  0
  2  3  2  0
  3  4  1  0
  4  5  1  0
  6  5  1  6
  6  7  1  0
  6 10  1  0
  7  8  2  0
  7  9  1  0
 11 15  1  1
 11 12  1  0
 11 10  1  0
 12 13  2  0
 12 14  1  0
 16 18  1  0
 16 17  1  6
 16 15  1  0
 18 19  1  0
 18 20  2  0
M  END
>  <DRUGBANK_ID>  (1) 
DB08368

>  <COMMON_NAME>  (1) 
OCTANE-1,3,5,7-TETRACARBOXYLIC ACID

$$$$
