811
     RDKit          3D

 17 18  0  0  1  0  0  0  0  0999 V2000
    1.6899    0.4811    0.2514 O   0  0  0  0  0  0  0  0  0  0  0  0
   -1.8968    0.8530    0.0478 O   0  0  0  0  0  0  0  0  0  0  0  0
   -0.7456   -1.4962    0.6498 O   0  0  0  0  0  0  0  0  0  0  0  0
    1.4416   -1.7808   -2.6347 O   0  0  0  0  0  0  0  0  0  0  0  0
    0.7222    6.1593   -2.8795 O   0  0  0  0  0  0  0  0  0  0  0  0
    0.7173    2.6490   -0.0812 N   0  0  0  0  0  0  0  0  0  0  0  0
    1.1930    2.9245   -1.3196 N   0  0  0  0  0  0  0  0  0  0  0  0
    0.2331    4.7587   -0.3452 N   0  0  0  0  0  0  0  0  0  0  0  0
    1.6938    4.3105   -3.7258 N   0  0  0  0  0  0  0  0  0  0  0  0
   -0.1821   -0.8274   -0.4905 C   0  0  1  0  0  0  0  0  0  0  0  0
   -0.5942    0.6294   -0.4900 C   0  0  2  0  0  0  0  0  0  0  0  0
    1.3472   -0.7660   -0.3982 C   0  0  1  0  0  0  0  0  0  0  0  0
    0.4914    1.2789    0.3592 C   0  0  1  0  0  0  0  0  0  0  0  0
    2.0628   -0.8542   -1.7529 C   0  0  0  0  0  0  0  0  0  0  0  0
    0.1746    3.7566    0.4957 C   0  0  0  0  0  0  0  0  0  0  0  0
    0.8455    4.2243   -1.4651 C   0  0  0  0  0  0  0  0  0  0  0  0
    1.0672    4.9875   -2.7108 C   0  0  0  0  0  0  0  0  0  0  0  0
  1 12  1  0
  1 13  1  0
  4 14  1  0
  5 17  2  0
  6  7  1  0
  6 15  1  0
  7 16  2  0
  8 15  2  0
  8 16  1  0
  9 17  1  0
 10  3  1  1
 10 11  1  0
 10 12  1  0
 11  2  1  1
 11 13  1  0
 12 14  1  6
 13  6  1  6
 16 17  1  0
M  END
>  <DRUGBANK_ID>  (1) 
DB00811

>  <SECONDARY_ACCESSION_NUMBERS>  (1) 
APRD00081; EXPT02825; DB01693

>  <COMMON_NAME>  (1) 
Ribavirin

>  <CAS_NUMBER>  (1) 
36791-04-5

>  <UNII>  (1) 
49717AWG6K

>  <SYNONYMS>  (1) 
1-beta-D-Ribofuranosyl-1,2,4-triazole-3-carboxamide; 1-beta-D-Ribofuranosyl-1H-1,2,4-triazole-3-carboxamide; RBV; Ribavirin; Ribavirina; Ribavirine; Ribavirinum; Tribavirin

$$$$
