
     RDKit          3D

 20 22  0  0  0  0  0  0  0  0999 V2000
    1.4891   -1.3841   -0.0562 C   0  0  0  0  0  0  0  0  0  0  0  0
    2.5699    0.6714   -0.0353 C   0  0  0  0  0  0  0  0  0  0  0  0
    1.4169    1.4066   -0.0164 C   0  0  0  0  0  0  0  0  0  0  0  0
    0.2695   -0.7821   -0.0175 C   0  0  0  0  0  0  0  0  0  0  0  0
    0.2617    0.6744    0.0408 C   0  0  0  0  0  0  0  0  0  0  0  0
   -0.8787   -1.5939    0.0029 C   0  0  0  0  0  0  0  0  0  0  0  0
   -1.8976    0.3940    0.4400 C   0  0  0  0  0  0  0  0  0  0  0  0
   -2.0406   -0.9623    0.2080 C   0  0  0  0  0  0  0  0  0  0  0  0
    2.6405   -0.6871   -0.0471 N   0  0  0  0  0  0  0  0  0  0  0  0
   -0.9089    1.3113    0.2544 C   0  0  0  0  0  0  0  0  0  0  0  0
   -0.8945    3.6901    1.4256 O   0  0  0  0  0  0  0  0  0  0  0  0
   -0.6778    3.5563   -1.0818 O   0  0  0  0  0  0  0  0  0  0  0  0
   -1.2930    3.1128    0.1400 S   0  0  0  0  0  0  0  0  0  0  0  0
   -3.9663    3.3349    1.1112 C   0  0  0  0  0  0  0  0  0  0  0  0
   -4.2192    1.8721    1.4051 C   0  0  0  0  0  0  0  0  0  0  0  0
   -3.7992    1.4418   -1.1873 C   0  0  0  0  0  0  0  0  0  0  0  0
   -3.0314    3.4743   -0.0667 N   0  0  0  0  0  0  0  0  0  0  0  0
   -4.5970    1.1104    0.1040 N   0  0  0  0  0  0  0  0  0  0  0  0
   -3.6313    2.9367   -1.3534 C   0  0  0  0  0  0  0  0  0  0  0  0
   -5.0340    3.3633   -1.7305 C   0  0  0  0  0  0  0  0  0  0  0  0
  1  9  2  0
  1  4  1  0
  2  3  2  0
  3  5  1  0
  5  4  2  0
  5 10  1  0
  6  4  1  0
  6  8  2  0
  7  8  1  0
  9  2  1  0
 10  7  2  0
 10 13  1  0
 13 11  2  0
 13 12  2  0
 13 17  1  0
 14 15  1  0
 15 18  1  0
 16 19  1  0
 17 14  1  0
 17 19  1  0
 18 16  1  0
 19 20  1  0
M  END
>  <DRUGBANK_ID>  (1) 
DB07996

>  <COMMON_NAME>  (1) 
5-(2-methylpiperazine-1-sulfonyl)isoquinoline

>  <CAS_NUMBER>  (1) 
84477-87-2

>  <UNII>  (1) 
487H9Q0F9N

>  <SYNONYMS>  (1) 
1-(5-Isoquinolinesulfonyl)-2-methylpiperazine; 1-(5-Isoquinolinylsulfonyl)-2-methylpiperazine

$$$$
