
     RDKit          3D

 20 21  0  0  0  0  0  0  0  0999 V2000
    1.5206   -0.0246    0.1712 C   0  0  0  0  0  0  0  0  0  0  0  0
   -1.2969    4.8769   -4.8313 C   0  0  0  0  0  0  0  0  0  0  0  0
    1.1980    4.7263   -5.2724 C   0  0  0  0  0  0  0  0  0  0  0  0
   -0.2881    2.7565   -5.6771 C   0  0  0  0  0  0  0  0  0  0  0  0
   -2.4914   -3.1503    0.7979 C   0  0  0  0  0  0  0  0  0  0  0  0
   -3.4347   -1.9858    1.0997 C   0  0  0  0  0  0  0  0  0  0  0  0
   -1.1650   -2.9448    1.4930 C   0  0  0  0  0  0  0  0  0  0  0  0
    0.1361    1.9439   -1.6229 C   0  0  0  0  0  0  0  0  0  0  0  0
    0.5592    4.1925   -0.9691 C   0  0  0  0  0  0  0  0  0  0  0  0
    0.0610    2.2789   -2.9398 C   0  0  0  0  0  0  0  0  0  0  0  0
    0.3803    4.5652   -2.2983 C   0  0  0  0  0  0  0  0  0  0  0  0
   -2.8081   -0.6328    0.7570 C   0  0  0  0  0  0  0  0  0  0  0  0
   -0.6484   -1.5707    1.1711 C   0  0  0  0  0  0  0  0  0  0  0  0
    0.9980    2.3887    0.7278 C   0  0  0  0  0  0  0  0  0  0  0  0
   -0.9178    0.8221    1.1326 C   0  0  0  0  0  0  0  0  0  0  0  0
    0.6548    0.9267    1.0784 C   0  0  0  0  0  0  0  0  0  0  0  0
    0.5231    2.8428   -0.6299 C   0  0  0  0  0  0  0  0  0  0  0  0
    0.1673    3.6102   -3.3130 C   0  0  0  0  0  0  0  0  0  0  0  0
   -0.0465    3.9877   -4.7662 C   0  0  0  0  0  0  0  0  0  0  0  0
   -1.5363   -0.4651    1.4822 N   0  0  0  0  0  0  0  0  0  0  0  0
  6  5  1  0
  7  5  1  0
 10  8  2  0
 11  9  1  0
 12  6  1  0
 13  7  1  0
 16  1  1  0
 16 14  1  0
 16 15  1  0
 17  8  1  0
 17  9  2  0
 17 14  1  0
 18 10  1  0
 18 11  2  0
 19  2  1  0
 19  3  1  0
 19  4  1  0
 19 18  1  0
 20 12  1  0
 20 13  1  0
 20 15  1  0
M  END
>  <DRUGBANK_ID>  (1) 
DB12728

>  <COMMON_NAME>  (1) 
Fenpropidin

>  <CAS_NUMBER>  (1) 
67306-00-7

>  <UNII>  (1) 
845XW54F31

>  <SYNONYMS>  (1) 
Patrol

$$$$
