
     RDKit          3D

 22 22  0  0  0  0  0  0  0  0999 V2000
    0.9999   -0.0260   -0.0299 C   0  0  0  0  0  0  0  0  0  0  0  0
    0.4840    0.7280   -1.2398 C   0  0  0  0  0  0  0  0  0  0  0  0
    0.9995    0.2151   -2.5689 C   0  0  0  0  0  0  0  0  0  0  0  0
   -1.0280    0.6974   -1.2373 C   0  0  0  0  0  0  0  0  0  0  0  0
   -1.8039    1.7754   -1.1692 C   0  0  0  0  0  0  0  0  0  0  0  0
   -1.2366    3.1229   -1.1221 C   0  0  0  0  0  0  0  0  0  0  0  0
   -1.6823    3.9522   -2.3218 C   0  0  0  0  0  0  0  0  0  0  0  0
   -3.0448    4.5547   -2.1461 C   0  0  0  0  0  0  0  0  0  0  0  0
   -3.1423    5.3590   -0.8365 C   0  0  0  0  0  0  0  0  0  0  0  0
   -2.3496    6.6949   -0.7055 C   0  0  0  0  0  0  0  0  0  0  0  0
   -2.9828    7.7366   -0.6250 O   0  0  0  0  0  0  0  0  0  0  0  0
   -0.9734    6.8057   -0.6215 N   0  0  0  0  0  0  0  0  0  0  0  0
    0.0906    5.8130   -0.6278 C   0  0  0  0  0  0  0  0  0  0  0  0
    0.8918    5.6605   -1.9277 C   0  0  0  0  0  0  0  0  0  0  0  0
    0.5238    6.3668   -3.0829 C   0  0  0  0  0  0  0  0  0  0  0  0
    1.1097    6.0962   -4.3188 C   0  0  0  0  0  0  0  0  0  0  0  0
    2.1127    5.1399   -4.4536 C   0  0  0  0  0  0  0  0  0  0  0  0
    2.4957    4.3792   -3.3439 C   0  0  0  0  0  0  0  0  0  0  0  0
    1.8554    4.6339   -2.0989 C   0  0  0  0  0  0  0  0  0  0  0  0
    3.4121    3.3601   -3.2703 O   0  0  0  0  0  0  0  0  0  0  0  0
    4.2725    3.1429   -4.3755 C   0  0  0  0  0  0  0  0  0  0  0  0
    2.5717    5.0785   -5.7378 O   0  0  0  0  0  0  0  0  0  0  0  0
  1  2  1  0
  2  3  1  0
  2  4  1  0
  4  5  2  0
  5  6  1  0
  6  7  1  0
  7  8  1  0
  8  9  1  0
  9 10  1  0
 10 11  2  0
 10 12  1  0
 12 13  1  0
 13 14  1  0
 14 15  2  0
 14 19  1  0
 15 16  1  0
 16 17  2  0
 17 18  1  0
 17 22  1  0
 18 19  2  0
 18 20  1  0
 20 21  1  0
M  END
>  <DRUGBANK_ID>  (1) 
DB09120

>  <COMMON_NAME>  (1) 
Zucapsaicin

>  <CAS_NUMBER>  (1) 
25775-90-0

>  <UNII>  (1) 
15OX67P384

>  <SYNONYMS>  (1) 
(Z)-Capsaicin; cis-Capsaicin; Civamide; Zucapsaicin

$$$$
