
     RDKit          3D

 21 24  0  0  0  0  0  0  0  0999 V2000
    0.9120    1.9416    3.8111 C   0  0  2  0  0  0  0  0  0  0  0  0
   -0.0680    0.9250    3.7703 C   0  0  2  0  0  0  0  0  0  0  0  0
    1.0188    0.0644    2.3924 C   0  0  2  0  0  0  0  0  0  0  0  0
    0.8506   -1.3867    1.9077 C   0  0  0  0  0  0  0  0  0  0  0  0
    1.0765   -1.4988    0.3333 C   0  0  0  0  0  0  0  0  0  0  0  0
    2.3002   -1.0047   -0.4494 C   0  0  0  0  0  0  0  0  0  0  0  0
    3.5410   -0.7718    0.3883 C   0  0  1  0  0  0  0  0  0  0  0  0
    2.7681    0.2185    1.8705 C   0  0  1  0  0  0  0  0  0  0  0  0
    2.7693    1.8311    1.9712 C   0  0  0  0  0  0  0  0  0  0  0  0
    2.3243    2.2343    3.4045 C   0  0  0  0  0  0  0  0  0  0  0  0
    4.5123   -2.3591   -0.0865 C   0  0  0  0  0  0  0  0  0  0  0  0
    4.3165   -2.9162   -1.6563 C   0  0  0  0  0  0  0  0  0  0  0  0
    2.8362   -2.8549   -1.6504 C   0  0  0  0  0  0  0  0  0  0  0  0
    2.2124   -3.7622   -1.2797 O   0  0  0  0  0  0  0  0  0  0  0  0
    2.3882   -1.4006   -1.7512 C   0  0  0  0  0  0  0  0  0  0  0  0
   -0.5192    2.5618    4.9054 C   0  0  0  0  0  0  0  0  0  0  0  0
    0.5211    2.8924    6.0139 C   0  0  0  0  0  0  0  0  0  0  0  0
    0.8770    1.5807    5.5698 C   0  0  2  0  0  0  0  0  0  0  0  0
    1.9258    0.8566    6.1103 O   0  0  0  0  0  0  0  0  0  0  0  0
   -0.3775    2.6964    2.7034 C   0  0  0  0  0  0  0  0  0  0  0  0
   -0.5325    2.5326    1.2301 C   0  0  0  0  0  0  0  0  0  0  0  0
  1 20  1  1
  2  1  1  0
  3  2  1  0
  3  8  1  0
  3  4  1  1
  5  4  1  0
  6  5  1  0
  6  7  1  0
  7  8  1  0
  8  9  1  6
  9 10  1  0
 10  1  1  0
  7 11  1  1
 12 11  1  0
 13 12  1  0
 14 13  2  0
 15 13  1  0
 15  6  2  0
  2 16  1  6
 16 17  1  0
 17 18  1  0
 18  1  1  0
 18 19  1  1
 21 20  1  0
M  END
>  <DRUGBANK_ID>  (1) 
DB01543

>  <COMMON_NAME>  (1) 
18-methyl-19-nortestosterone

>  <CAS_NUMBER>  (1) 
793-55-5

>  <UNII>  (1) 
6AL6ML53DZ

>  <SYNONYMS>  (1) 
13beta-ethyl-17beta-hydroxygon-4-en-3-one

$$$$
