
     RDKit          3D

 22 23  0  0  0  0  0  0  0  0999 V2000
    0.9324    0.0733    0.0075 P   0  0  0  0  0  0  0  0  0  0  0  0
    2.5634   -2.1591   -0.5731 P   0  0  0  0  0  0  0  0  0  0  0  0
    0.7646    0.2173    1.6284 O   0  0  0  0  0  0  0  0  0  0  0  0
    0.9324   -1.6011   -0.4279 O   0  0  0  0  0  0  0  0  0  0  0  0
   -0.7976    0.0733    0.0075 O   0  0  0  0  0  0  0  0  0  0  0  0
    2.4807    0.0733    0.0075 O   0  0  0  0  0  0  0  0  0  0  0  0
   -3.7260   -1.7341    4.6505 O   0  0  0  0  0  0  0  0  0  0  0  0
    2.5845   -1.5027   -2.0373 O   0  0  0  0  0  0  0  0  0  0  0  0
    2.9762   -1.6705    0.9047 O   0  0  0  0  0  0  0  0  0  0  0  0
    4.0232   -2.6586   -0.7030 O   0  0  0  0  0  0  0  0  0  0  0  0
   -1.4881   -1.4763    3.0804 N   0  0  0  0  0  0  0  0  0  0  0  0
   -3.6833   -3.7838    1.2375 N   0  0  0  0  0  0  0  0  0  0  0  0
   -1.4435   -3.2829    0.8953 N   0  0  0  0  0  0  0  0  0  0  0  0
   -4.7594   -3.2185    3.2513 N   0  0  0  0  0  0  0  0  0  0  0  0
   -5.6813   -4.6924    1.7786 N   0  0  0  0  0  0  0  0  0  0  0  0
   -0.3487   -1.7445    2.4225 C   0  0  0  0  0  0  0  0  0  0  0  0
    0.8257   -0.8232    2.5813 C   0  0  0  0  0  0  0  0  0  0  0  0
   -2.5520   -2.2455    2.7092 C   0  0  0  0  0  0  0  0  0  0  0  0
   -2.5603   -3.0712    1.5932 C   0  0  0  0  0  0  0  0  0  0  0  0
   -0.3434   -2.7179    1.4308 C   0  0  0  0  0  0  0  0  0  0  0  0
   -3.7278   -2.3575    3.6093 C   0  0  0  0  0  0  0  0  0  0  0  0
   -4.6882   -3.8600    2.1350 C   0  0  0  0  0  0  0  0  0  0  0  0
  1  5  1  0
  1  6  2  0
  1  4  1  0
  1  3  1  0
  2  4  1  0
  2  8  1  0
  2  9  1  0
  2 10  2  0
  3 17  1  0
  7 21  2  0
 11 16  2  0
 11 18  1  0
 12 19  1  0
 12 22  1  0
 13 19  1  0
 13 20  2  0
 14 21  1  0
 14 22  2  0
 15 22  1  0
 16 17  1  0
 16 20  1  0
 18 19  2  0
 18 21  1  0
M  END
>  <DRUGBANK_ID>  (1) 
DB04047

>  <SECONDARY_ACCESSION_NUMBERS>  (1) 
EXPT01742

>  <COMMON_NAME>  (1) 
6-hydroxymethylpterin diphosphate

>  <CAS_NUMBER>  (1) 
6863-06-5

>  <UNII>  (1) 
H4K6WCP5DQ

>  <SYNONYMS>  (1) 
2-Amino-4-hydroxy-6-hydroxymethylpteridine pyrophosphate

$$$$
