
     RDKit          3D

 28 29  0  0  1  0  0  0  0  0999 V2000
    0.1074    5.8699    3.7498 C   0  0  0  0  0  0  0  0  0  0  0  0
    0.5254    5.2033    4.8278 N   0  0  0  0  0  0  0  0  0  0  0  0
   -0.0989    7.2301    3.7605 C   0  0  0  0  0  0  0  0  0  0  0  0
    0.7246    5.9180    5.9510 C   0  0  0  0  0  0  0  0  0  0  0  0
    0.0859    7.9589    4.8519 N   0  0  0  0  0  0  0  0  0  0  0  0
    0.4901    7.2858    5.9290 C   0  0  0  0  0  0  0  0  0  0  0  0
   -0.1500    5.0993    2.4651 C   0  0  0  0  0  0  0  0  0  0  0  0
   -0.6110    5.8080    1.2626 N   0  0  0  0  0  0  0  0  0  0  0  0
    0.0335    3.8421    2.4306 O   0  0  0  0  0  0  0  0  0  0  0  0
   -1.0375    5.0844    0.0563 C   0  0  2  0  0  0  0  0  0  0  0  0
   -0.3909    3.7089    0.0354 C   0  0  0  0  0  0  0  0  0  0  0  0
   -0.6126    5.8628   -1.1782 C   0  0  0  0  0  0  0  0  0  0  0  0
   -1.0536    5.1145   -2.4256 C   0  0  0  0  0  0  0  0  0  0  0  0
   -0.6703    3.8462   -2.5140 C   0  0  0  0  0  0  0  0  0  0  0  0
   -1.6873    5.7488   -3.4814 C   0  0  0  0  0  0  0  0  0  0  0  0
   -1.0283    3.0813   -3.5978 C   0  0  0  0  0  0  0  0  0  0  0  0
   -2.1344    4.8680   -4.4944 C   0  0  0  0  0  0  0  0  0  0  0  0
   -1.7071    3.6283   -4.6511 C   0  0  0  0  0  0  0  0  0  0  0  0
   -0.3533    2.5517   -0.4887 O   0  0  0  0  0  0  0  0  0  0  0  0
    0.8232    4.2862    0.6300 N   0  0  0  0  0  0  0  0  0  0  0  0
    0.7798    5.6247    1.2362 C   0  0  1  0  0  0  0  0  0  0  0  0
    1.1647    5.5291    2.7036 C   0  0  0  0  0  0  0  0  0  0  0  0
    2.5708    4.9643    2.8228 C   0  0  0  0  0  0  0  0  0  0  0  0
    3.5471    5.8791    2.1015 C   0  0  0  0  0  0  0  0  0  0  0  0
    2.9556    4.8686    4.2902 C   0  0  0  0  0  0  0  0  0  0  0  0
    1.8075    6.5877    0.4770 B   0  0  0  0  0  0  0  0  0  0  0  0
    1.3097    7.8275   -0.2050 O   0  0  0  0  0  0  0  0  0  0  0  0
    3.2689    6.2506    0.4471 O   0  0  0  0  0  0  0  0  0  0  0  0
  1  7  1  0
  2  1  2  0
  3  1  1  0
  4  2  1  0
  5  3  2  0
  6  4  2  0
  6  5  1  0
  7  8  1  0
  7  9  2  0
 10 12  1  6
 10 11  1  0
 10  8  1  0
 11 19  2  0
 11 20  1  0
 12 13  1  0
 14 13  2  0
 15 13  1  0
 16 14  1  0
 17 15  2  0
 18 16  2  0
 18 17  1  0
 20 21  1  0
 21 22  1  1
 21 26  1  0
 22 23  1  0
 23 24  1  0
 23 25  1  0
 26 27  1  0
 26 28  1  0
M  END
>  <DRUGBANK_ID>  (1) 
DB00188

>  <SECONDARY_ACCESSION_NUMBERS>  (1) 
APRD00828; DB07475

>  <COMMON_NAME>  (1) 
Bortezomib

>  <CAS_NUMBER>  (1) 
179324-69-7

>  <UNII>  (1) 
69G8BD63PP

>  <SYNONYMS>  (1) 
[(1R)-3-methyl-1-({(2S)-3-phenyl-2-[(pyrazin-2-ylcarbonyl)amino]propanoyl}amino)butyl]boronic acid; Bortezomib; N-[(1R)-1-(DIHYDROXYBORYL)-3-methylbutyl]-N-(pyrazin-2-ylcarbonyl)-L-phenylalaninamide

$$$$
