
     RDKit          3D

 36 39  0  0  0  0  0  0  0  0999 V2000
    0.9821   -0.1464    0.0128 C   0  0  0  0  0  0  0  0  0  0  0  0
    0.5248    1.1837    0.5897 C   0  0  0  0  0  0  0  0  0  0  0  0
    1.0213    2.3418   -0.2760 C   0  0  0  0  0  0  0  0  0  0  0  0
    0.4840    2.2436   -1.7101 C   0  0  0  0  0  0  0  0  0  0  0  0
   -1.0448    2.3468   -1.7612 C   0  0  0  0  0  0  0  0  0  0  0  0
   -1.5743    3.6403   -1.1473 C   0  0  0  0  0  0  0  0  0  0  0  0
   -1.1884    4.8609   -1.9587 C   0  0  0  0  0  0  0  0  0  0  0  0
   -1.9970    5.5650   -2.5136 O   0  0  0  0  0  0  0  0  0  0  0  0
    0.2054    5.0238   -1.9406 O   0  0  0  0  0  0  0  0  0  0  0  0
    0.7608    6.0568   -2.7049 C   0  0  0  0  0  0  0  0  0  0  0  0
    0.2353    7.3316   -2.5974 C   0  0  0  0  0  0  0  0  0  0  0  0
    0.7727    8.3479   -3.3461 C   0  0  0  0  0  0  0  0  0  0  0  0
    1.8549    8.1119   -4.1896 C   0  0  0  0  0  0  0  0  0  0  0  0
    2.4238    6.8166   -4.2820 C   0  0  0  0  0  0  0  0  0  0  0  0
    1.8746    5.7883   -3.5080 C   0  0  0  0  0  0  0  0  0  0  0  0
    3.6252    6.5238   -5.1571 C   0  0  0  0  0  0  0  0  0  0  0  0
    3.8603    7.6289   -6.1875 C   0  0  0  0  0  0  0  0  0  0  0  0
    3.7352    9.0012   -5.4643 C   0  0  2  0  0  0  0  0  0  0  0  0
    2.3065    9.2535   -5.0512 C   0  0  2  0  0  0  0  0  0  0  0  0
    2.1180   10.6813   -4.4325 C   0  0  0  0  0  0  0  0  0  0  0  0
    2.6069   11.8493   -5.2748 C   0  0  0  0  0  0  0  0  0  0  0  0
    4.0321   11.6350   -5.5885 C   0  0  1  0  0  0  0  0  0  0  0  0
    4.0213   10.2187   -6.2967 C   0  0  1  0  0  0  0  0  0  0  0  0
    5.3984   10.1783   -6.6675 C   0  0  0  0  0  0  0  0  0  0  0  0
    5.5570   11.7498   -6.9696 C   0  0  0  0  0  0  0  0  0  0  0  0
    4.4759   12.6437   -6.6785 C   0  0  2  0  0  0  0  0  0  0  0  0
    5.2699   13.9180   -6.4735 O   0  0  0  0  0  0  0  0  0  0  0  0
    6.5842   14.3278   -6.8290 C   0  0  0  0  0  0  0  0  0  0  0  0
    6.9835   15.3819   -6.3880 O   0  0  0  0  0  0  0  0  0  0  0  0
    7.5726   13.5320   -7.8516 C   0  0  0  0  0  0  0  0  0  0  0  0
    8.3845   12.2271   -7.5299 C   0  0  0  0  0  0  0  0  0  0  0  0
    7.6645   10.8940   -7.5521 C   0  0  0  0  0  0  0  0  0  0  0  0
    6.5538   10.6700   -8.9047 C   0  0  0  0  0  0  0  0  0  0  0  0
    7.2436    9.8375   -9.8726 C   0  0  0  0  0  0  0  0  0  0  0  0
    7.5128    8.5304   -9.1678 C   0  0  0  0  0  0  0  0  0  0  0  0
    5.0044   11.6551   -4.3461 C   0  0  0  0  0  0  0  0  0  0  0  0
  1  2  1  0
  2  3  1  0
  3  4  1  0
  4  5  1  0
  5  6  1  0
  6  7  1  0
  7  8  2  0
  7  9  1  0
  9 10  1  0
 10 11  2  0
 10 15  1  0
 11 12  1  0
 12 13  2  0
 13 14  1  0
 14 15  2  0
 14 16  1  0
 16 17  1  0
 18 17  1  6
 18 19  1  0
 18 23  1  0
 19 13  1  0
 19 20  1  1
 20 21  1  0
 21 22  1  0
 22 23  1  0
 22 26  1  0
 22 36  1  1
 23 24  1  1
 24 25  1  0
 25 26  1  0
 26 27  1  1
 27 28  1  0
 28 29  2  0
 28 30  1  0
 30 31  1  0
 31 32  1  0
 32 33  1  0
 33 34  1  0
 34 35  1  0
M  END
>  <DRUGBANK_ID>  (1) 
DB13955

>  <SECONDARY_ACCESSION_NUMBERS>  (1) 
DBSALT002570

>  <COMMON_NAME>  (1) 
Estradiol dienanthate

>  <CAS_NUMBER>  (1) 
7732-97-0

>  <UNII>  (1) 
65C72P1860

>  <SYNONYMS>  (1) 
Estradiol dienantate

$$$$
