
     RDKit          3D

 13 12  0  0  1  0  0  0  0  0999 V2000
    0.2134   -0.1573   -2.2485 C   0  0  0  0  0  0  0  0  0  0  0  0
    0.5506    1.3193   -2.4553 C   0  0  1  0  0  0  0  0  0  0  0  0
    1.4012   -0.9287   -1.6691 C   0  0  1  0  0  0  0  0  0  0  0  0
    1.0039    2.0857   -1.1954 C   0  0  2  0  0  0  0  0  0  0  0  0
    1.0027   -2.3991   -1.3207 C   0  0  0  0  0  0  0  0  0  0  0  0
    0.5081    1.6850    0.2542 C   0  0  0  0  0  0  0  0  0  0  0  0
    1.5689    1.4384   -3.4862 O   0  0  0  0  0  0  0  0  0  0  0  0
    2.4459   -0.8826   -2.6964 O   0  0  0  0  0  0  0  0  0  0  0  0
    0.6169    3.4797   -1.4448 O   0  0  0  0  0  0  0  0  0  0  0  0
    1.6496   -3.2744   -1.9824 O   0  0  0  0  0  0  0  0  0  0  0  0
    0.0714   -2.5934   -0.4931 O   0  0  0  0  0  0  0  0  0  0  0  0
    0.5921    2.5934    1.1243 O   0  0  0  0  0  0  0  0  0  0  0  0
    0.0200    0.5316    0.4154 O   0  0  0  0  0  0  0  0  0  0  0  0
  2  1  1  0
  2  7  1  6
  3  1  1  0
  3  8  1  6
  4  9  1  6
  4  6  1  0
  4  2  1  0
  5  3  1  0
 10  5  2  0
 11  5  1  0
 12  6  2  0
 13  6  1  0
M  CHG  2  11  -1  13  -1
M  END
>  <DRUGBANK_ID>  (1) 
DB03212

>  <SECONDARY_ACCESSION_NUMBERS>  (1) 
EXPT01307

>  <COMMON_NAME>  (1) 
4-Deoxyglucarate

$$$$
