
     RDKit          3D

 18 18  0  0  0  0  0  0  0  0999 V2000
    1.2113    0.0077   -0.1424 C   0  0  0  0  0  0  0  0  0  0  0  0
    0.4611   -0.7553   -0.9031 N   0  0  0  0  0  0  0  0  0  0  0  0
    0.5533    0.7826    0.8076 N   0  0  0  0  0  0  0  0  0  0  0  0
    2.5734    0.1587   -0.1060 N   0  0  0  0  0  0  0  0  0  0  0  0
    1.0265   -1.7250   -1.7733 C   0  0  0  0  0  0  0  0  0  0  0  0
    1.0810    1.6964    1.8313 C   0  0  0  0  0  0  0  0  0  0  0  0
    3.5211   -0.3469   -1.0493 C   0  0  0  0  0  0  0  0  0  0  0  0
    1.9660   -2.6416   -1.2948 C   0  0  0  0  0  0  0  0  0  0  0  0
    0.6862   -1.8043   -3.1236 C   0  0  0  0  0  0  0  0  0  0  0  0
    0.6787    3.1808    1.5761 C   0  0  0  0  0  0  0  0  0  0  0  0
    0.6992    1.2222    3.2383 C   0  0  0  0  0  0  0  0  0  0  0  0
    4.3673   -0.8034   -1.7020 N   0  0  0  0  0  0  0  0  0  0  0  0
    2.6740   -3.4228   -2.1931 C   0  0  0  0  0  0  0  0  0  0  0  0
    1.3775   -2.7048   -3.9325 C   0  0  0  0  0  0  0  0  0  0  0  0
   -0.8277    3.4117    1.7768 C   0  0  0  0  0  0  0  0  0  0  0  0
    1.4519    4.0982    2.5543 C   0  0  0  0  0  0  0  0  0  0  0  0
    1.0661    3.5938    0.1456 C   0  0  0  0  0  0  0  0  0  0  0  0
    2.3888   -3.4906   -3.5045 N   0  0  0  0  0  0  0  0  0  0  0  0
  1  2  2  0
  1  3  1  0
  1  4  1  0
  2  5  1  0
  3  6  1  0
  4  7  1  0
  5  8  2  0
  5  9  1  0
  6 10  1  0
  6 11  1  0
  7 12  3  0
  8 13  1  0
  9 14  2  0
 10 15  1  0
 10 16  1  0
 10 17  1  0
 13 18  2  0
 14 18  1  0
M  END
>  <DRUGBANK_ID>  (1) 
DB06762

>  <COMMON_NAME>  (1) 
Pinacidil

>  <CAS_NUMBER>  (1) 
60560-33-0

>  <UNII>  (1) 
BB4UGO5K0D

>  <SYNONYMS>  (1) 
Pinacidil; Pinacidil anhydrous; Pinacidilum

$$$$
