
     RDKit          3D

 27 30  0  0  0  0  0  0  0  0999 V2000
    0.6738   -0.1862    0.2273 C   0  0  0  0  0  0  0  0  0  0  0  0
    0.3450   -1.3542   -0.4929 O   0  0  0  0  0  0  0  0  0  0  0  0
    0.9994   -1.4729   -1.7657 C   0  0  0  0  0  0  0  0  0  0  0  0
    0.7018   -0.3097   -2.7295 C   0  0  0  0  0  0  0  0  0  0  0  0
    1.2505    1.0865   -2.3800 N   0  0  0  0  0  0  0  0  0  0  0  0
    0.5715    2.2328   -2.7334 C   0  0  0  0  0  0  0  0  0  0  0  0
   -0.6933    2.3711   -3.5700 C   0  0  0  0  0  0  0  0  0  0  0  0
    1.2307    3.2647   -2.1498 N   0  0  0  0  0  0  0  0  0  0  0  0
    0.8645    4.7125   -2.2991 C   0  0  0  0  0  0  0  0  0  0  0  0
    1.1247    5.1669   -3.7148 C   0  0  0  0  0  0  0  0  0  0  0  0
    0.3216    4.6871   -4.7003 N   0  0  0  0  0  0  0  0  0  0  0  0
    0.6621    4.9741   -5.9733 C   0  0  0  0  0  0  0  0  0  0  0  0
    1.8100    5.6718   -6.2687 C   0  0  0  0  0  0  0  0  0  0  0  0
    2.5892    6.2072   -5.3011 N   0  0  0  0  0  0  0  0  0  0  0  0
    2.2034    5.9772   -4.0245 C   0  0  0  0  0  0  0  0  0  0  0  0
    2.3059    2.8148   -1.3705 C   0  0  0  0  0  0  0  0  0  0  0  0
    2.4183    1.4540   -1.5633 C   0  0  0  0  0  0  0  0  0  0  0  0
    3.4578    0.6934   -0.8460 C   0  0  0  0  0  0  0  0  0  0  0  0
    3.7398   -0.5006   -0.9301 O   0  0  0  0  0  0  0  0  0  0  0  0
    4.2531    1.4687    0.1882 C   0  0  0  0  0  0  0  0  0  0  0  0
    5.1731    0.8171    1.0454 C   0  0  0  0  0  0  0  0  0  0  0  0
    6.0179    1.5458    1.9024 C   0  0  0  0  0  0  0  0  0  0  0  0
    5.9389    2.9318    1.9417 C   0  0  0  0  0  0  0  0  0  0  0  0
    4.9846    3.5801    1.1611 C   0  0  0  0  0  0  0  0  0  0  0  0
    4.1371    2.8554    0.2928 C   0  0  0  0  0  0  0  0  0  0  0  0
    3.1411    3.6010   -0.5040 C   0  0  0  0  0  0  0  0  0  0  0  0
    3.0945    4.8253   -0.3357 O   0  0  0  0  0  0  0  0  0  0  0  0
  1  2  1  0
  2  3  1  0
  3  4  1  0
  4  5  1  0
  5  6  2  0
  5 17  1  0
  6  7  1  0
  6  8  1  0
  8  9  1  0
  8 16  1  0
  9 10  1  0
 10 11  2  0
 10 15  1  0
 11 12  1  0
 12 13  2  0
 13 14  1  0
 14 15  2  0
 16 17  2  0
 16 26  1  0
 17 18  1  0
 18 19  2  0
 18 20  1  0
 20 21  2  0
 20 25  1  0
 21 22  1  0
 22 23  2  0
 23 24  1  0
 24 25  2  0
 25 26  1  0
 26 27  2  0
M  CHG  1   5   1
M  END
>  <DRUGBANK_ID>  (1) 
DB17062

>  <COMMON_NAME>  (1) 
Sepantronium

>  <CAS_NUMBER>  (1) 
753440-91-4

>  <UNII>  (1) 
UZ77T1VFBM

>  <SYNONYMS>  (1) 
1h-naphth(2,3-d)imidazolium, 4,9-dihydro-1-(2-methoxyethyl)-2-methyl-4,9-dioxo-3-(2-pyrazinylmethyl)-; Sepantronium cation; Sepantronium ion

$$$$
