
     RDKit          3D

 31 34  0  0  0  0  0  0  0  0999 V2000
    0.7621    0.1284    2.3942 C   0  0  1  0  0  0  0  0  0  0  0  0
    1.0165   -0.1634    0.9958 C   0  0  1  0  0  0  0  0  0  0  0  0
    0.4534    1.5707    2.5988 C   0  0  0  0  0  0  0  0  0  0  0  0
   -0.4219   -0.7424    2.8893 C   0  0  1  0  0  0  0  0  0  0  0  0
    2.0041   -0.2732    3.1518 C   0  0  0  0  0  0  0  0  0  0  0  0
    2.2581   -0.6712    0.8949 C   0  0  2  0  0  0  0  0  0  0  0  0
    2.0389    4.4288   -0.8756 C   0  0  1  0  0  0  0  0  0  0  0  0
    0.9199    1.0284    0.2299 O   0  0  0  0  0  0  0  0  0  0  0  0
   -0.2573    2.4138    1.5525 C   0  0  2  0  0  0  0  0  0  0  0  0
    0.7980    2.1189    3.6924 O   0  0  0  0  0  0  0  0  0  0  0  0
   -1.5781   -0.5656    1.9932 C   0  0  0  0  0  0  0  0  0  0  0  0
   -0.0060   -2.2044    2.8948 C   0  0  0  0  0  0  0  0  0  0  0  0
    2.8840   -0.7413    2.2304 C   0  0  0  0  0  0  0  0  0  0  0  0
    3.0401    0.1620    0.0519 O   0  0  0  0  0  0  0  0  0  0  0  0
    1.0365    4.0732    0.2103 C   0  0  0  0  0  0  0  0  0  0  0  0
    3.1194    5.1514   -0.3041 O   0  0  0  0  0  0  0  0  0  0  0  0
   -1.4214    1.6442    0.9011 C   0  0  1  0  0  0  0  0  0  0  0  0
    0.7451    2.7693    0.4666 C   0  0  0  0  0  0  0  0  0  0  0  0
   -2.1485    0.8443    1.9554 C   0  0  2  0  0  0  0  0  0  0  0  0
    4.2843   -1.2536    2.5252 C   0  0  0  0  0  0  0  0  0  0  0  0
    4.3891    0.5013    0.3372 C   0  0  0  0  0  0  0  0  0  0  0  0
    2.0389    4.4288   -0.8756 C   0  0  0  0  0  0  0  0  0  0  0  0
   -1.9700    1.5051    3.3126 C   0  0  0  0  0  0  0  0  0  0  0  0
    5.0678   -0.0587    1.5766 C   0  0  0  0  0  0  0  0  0  0  0  0
    5.0290    1.2733   -0.4437 O   0  0  0  0  0  0  0  0  0  0  0  0
    3.2981    3.8505   -0.5651 O   0  0  0  0  0  0  0  0  0  0  0  0
   -2.7017    0.6952    4.3705 C   0  0  0  0  0  0  0  0  0  0  0  0
   -0.4905    1.5669    3.6553 C   0  0  0  0  0  0  0  0  0  0  0  0
    6.3602    0.2664    1.8500 C   0  0  0  0  0  0  0  0  0  0  0  0
    4.3024   -0.9819    2.5106 C   0  0  0  0  0  0  0  0  0  0  0  0
    7.1255    1.1896    0.9160 C   0  0  0  0  0  0  0  0  0  0  0  0
  1  2  1  0
  1  3  1  0
  1  4  1  0
  1  5  1  1
  2  6  1  0
  2  7  1  0
  2  8  1  6
  3 10  2  0
  4 11  1  0
  4 12  1  6
  5 13  2  0
  6 13  1  0
  6 14  1  6
  7 15  1  0
  7 16  1  1
  9  3  1  0
  9 17  1  0
  9 18  1  6
 19 11  1  1
 13 20  1  0
 14 21  1  0
 15 18  2  0
 15 22  1  0
 17 19  1  0
 17 23  1  1
 19 23  1  0
 21 24  1  0
 21 25  2  0
 22 26  1  0
 23 27  1  0
 23 28  1  0
 24 29  2  0
 24 30  1  0
 29 31  1  0
M  END
>  <DRUGBANK_ID>  (1) 
DB05013

>  <COMMON_NAME>  (1) 
Ingenol mebutate

>  <CAS_NUMBER>  (1) 
75567-37-2

>  <UNII>  (1) 
7686S50JAH

>  <SYNONYMS>  (1) 
3-Angeloylingenol; 3-Ingenyl angelate; Ingenol 3-angelate; Ingenol mebutate; Ingenol mebutato; Ingenoli mebutas; Mébutate d'ingénol; Mebutato de ingenol

$$$$
