208
     RDKit          3D

 31 34  0  0  0  0  0  0  0  0999 V2000
    2.9043    0.7037    1.6553 C   0  0  0  0  0  0  0  0  0  0  0  0
    2.3640    2.0937    1.3868 C   0  0  0  0  0  0  0  0  0  0  0  0
    2.7580    2.7014    0.1521 O   0  0  0  0  0  0  0  0  0  0  0  0
    2.2285    2.1149   -1.0499 C   0  0  2  0  0  0  0  0  0  0  0  0
    0.6644    2.1330   -1.0904 C   0  0  0  0  0  0  0  0  0  0  0  0
    0.1170    3.1174   -0.3231 O   0  0  0  0  0  0  0  0  0  0  0  0
   -0.0450    1.3983   -1.7323 O   0  0  0  0  0  0  0  0  0  0  0  0
    2.8315    0.7123   -1.2709 C   0  0  0  0  0  0  0  0  0  0  0  0
    2.5328   -0.0586   -2.5016 C   0  0  0  0  0  0  0  0  0  0  0  0
    2.6770   -1.4581   -2.5153 C   0  0  0  0  0  0  0  0  0  0  0  0
    1.9717    0.6016   -3.5656 C   0  0  0  0  0  0  0  0  0  0  0  0
    1.5321   -0.1417   -4.6355 C   0  0  0  0  0  0  0  0  0  0  0  0
    0.9181    0.3096   -5.7913 C   0  0  0  0  0  0  0  0  0  0  0  0
    0.8625   -0.7800   -6.5975 C   0  0  0  0  0  0  0  0  0  0  0  0
    1.6865   -1.5330   -4.6807 C   0  0  0  0  0  0  0  0  0  0  0  0
    2.2735   -2.2251   -3.6132 C   0  0  0  0  0  0  0  0  0  0  0  0
    1.1557   -1.9313   -5.9005 N   0  0  0  0  0  0  0  0  0  0  0  0
    1.0925   -3.3245   -6.4169 C   0  0  0  0  0  0  0  0  0  0  0  0
   -0.3086   -3.7787   -6.8411 C   0  0  0  0  0  0  0  0  0  0  0  0
   -1.0366   -3.2306   -7.8761 C   0  0  0  0  0  0  0  0  0  0  0  0
   -0.7692   -2.1311   -8.8097 C   0  0  0  0  0  0  0  0  0  0  0  0
   -2.2235   -3.8786   -7.9981 O   0  0  0  0  0  0  0  0  0  0  0  0
   -1.0636   -4.8773   -6.3448 N   0  0  0  0  0  0  0  0  0  0  0  0
   -2.1909   -4.8962   -7.0726 C   0  0  0  0  0  0  0  0  0  0  0  0
   -3.4417   -5.7314   -7.0735 C   0  0  0  0  0  0  0  0  0  0  0  0
   -3.9448   -6.3738   -8.2333 C   0  0  0  0  0  0  0  0  0  0  0  0
   -3.1154   -6.3247   -9.7541 Cl  0  0  0  0  0  0  0  0  0  0  0  0
   -5.1758   -7.0805   -8.2369 C   0  0  0  0  0  0  0  0  0  0  0  0
   -6.0090   -7.0592   -7.1258 C   0  0  0  0  0  0  0  0  0  0  0  0
   -5.5555   -6.4227   -5.9766 C   0  0  0  0  0  0  0  0  0  0  0  0
   -4.2696   -5.8227   -5.9332 C   0  0  0  0  0  0  0  0  0  0  0  0
  1  2  1  0
  2  3  1  0
  4  8  1  1
  4  5  1  0
  4  3  1  0
  5  6  1  0
  5  7  2  0
  8  9  1  0
  9 10  2  0
  9 11  1  0
 10 16  1  0
 11 12  2  0
 12 13  1  0
 12 15  1  0
 13 14  2  0
 14 17  1  0
 15 16  2  0
 15 17  1  0
 17 18  1  0
 18 19  1  0
 19 20  2  0
 19 23  1  0
 20 21  1  0
 20 22  1  0
 22 24  1  0
 23 24  2  0
 24 25  1  0
 25 26  2  0
 25 31  1  0
 26 27  1  0
 26 28  1  0
 28 29  2  0
 29 30  1  0
 30 31  2  0
M  END
>  <DRUGBANK_ID>  (1) 
DB06908

>  <COMMON_NAME>  (1) 
(2S)-3-(1-{[2-(2-CHLOROPHENYL)-5-METHYL-1,3-OXAZOL-4-YL]METHYL}-1H-INDOL-5-YL)-2-ETHOXYPROPANOIC ACID

$$$$
