
     RDKit          3D

 19 20  0  0  0  0  0  0  0  0999 V2000
    2.0913    0.0651    0.7130 C   0  0  0  0  0  0  0  0  0  0  0  0
    1.4436    1.1584    0.3623 N   0  0  0  0  0  0  0  0  0  0  0  0
    0.1761    0.7150    0.1188 C   0  0  0  0  0  0  0  0  0  0  0  0
   -1.0339    1.4009   -0.0361 C   0  0  0  0  0  0  0  0  0  0  0  0
   -2.1691    0.6756   -0.0783 N   0  0  0  0  0  0  0  0  0  0  0  0
   -2.0962   -0.6795   -0.0563 C   0  0  0  0  0  0  0  0  0  0  0  0
   -0.9683   -1.4275   -0.0086 N   0  0  0  0  0  0  0  0  0  0  0  0
    0.1185   -0.6772    0.1113 C   0  0  0  0  0  0  0  0  0  0  0  0
    1.4160   -1.0744    0.3135 N   0  0  0  0  0  0  0  0  0  0  0  0
    1.9619   -2.4198    0.1799 C   0  0  0  0  0  0  0  0  0  0  0  0
    2.6919   -2.8184   -1.1392 C   0  0  0  0  0  0  0  0  0  0  0  0
    3.8968   -2.1322   -1.5010 O   0  0  0  0  0  0  0  0  0  0  0  0
    3.7391   -0.7213   -1.7051 C   0  0  0  0  0  0  0  0  0  0  0  0
    3.0345   -0.2737   -3.2802 P   0  0  0  0  0  0  0  0  0  0  0  0
    3.5544    1.0229   -3.7989 O   0  0  0  0  0  0  0  0  0  0  0  0
    3.4927   -1.5795   -4.0913 O   0  0  0  0  0  0  0  0  0  0  0  0
    1.4317   -0.4417   -3.2797 O   0  0  0  0  0  0  0  0  0  0  0  0
   -3.2623   -1.3652   -0.0721 N   0  0  0  0  0  0  0  0  0  0  0  0
   -1.0769    2.7827   -0.0868 N   0  0  0  0  0  0  0  0  0  0  0  0
  1  2  2  0
  1  9  1  0
  2  3  1  0
  3  4  2  0
  3  8  1  0
  4  5  1  0
  4 19  1  0
  5  6  2  0
  6  7  1  0
  6 18  1  0
  7  8  2  0
  8  9  1  0
  9 10  1  0
 10 11  1  0
 11 12  1  0
 12 13  1  0
 13 14  1  0
 14 15  2  0
 14 16  1  0
 14 17  1  0
M  END
>  <DRUGBANK_ID>  (1) 
DB08843

>  <COMMON_NAME>  (1) 
GS 0573

>  <CAS_NUMBER>  (1) 
113852-41-8

>  <UNII>  (1) 
5EX1YUR4DH

>  <SYNONYMS>  (1) 
9-(2-phosphonylmethoxyethyl)-2,6-diaminopurine

$$$$
