
     RDKit          3D

 32 34  0  0  0  0  0  0  0  0999 V2000
   -0.1355   -1.1244    0.3548 N   0  0  0  0  0  0  0  0  0  0  0  0
    0.7146   -0.0370    0.3139 C   0  0  0  0  0  0  0  0  0  0  0  0
   -1.5155   -0.7533    0.1361 C   0  0  1  0  0  0  0  0  0  0  0  0
   -0.1213    1.2325    0.4017 C   0  0  1  0  0  0  0  0  0  0  0  0
   -1.5187    0.7703   -0.0664 C   0  0  0  0  0  0  0  0  0  0  0  0
    1.2402    2.1959    2.2535 C   0  0  0  0  0  0  0  0  0  0  0  0
    1.4759    3.3614    2.5370 O   0  0  0  0  0  0  0  0  0  0  0  0
    2.1430    1.1853    2.2937 O   0  0  0  0  0  0  0  0  0  0  0  0
   -0.1267    1.7033    1.8331 C   0  0  0  0  0  0  0  0  0  0  0  0
   -2.2141   -1.5203   -1.0213 C   0  0  0  0  0  0  0  0  0  0  0  0
   -1.3925   -1.9904   -2.1290 O   0  0  0  0  0  0  0  0  0  0  0  0
   -0.1773    0.0003   -2.5890 C   0  0  0  0  0  0  0  0  0  0  0  0
   -0.9615   -1.0423   -3.0073 C   0  0  0  0  0  0  0  0  0  0  0  0
   -1.1349   -1.1401   -4.3671 C   0  0  0  0  0  0  0  0  0  0  0  0
   -0.7487   -0.0675   -5.1880 C   0  0  0  0  0  0  0  0  0  0  0  0
   -0.1445    1.0738   -4.6526 C   0  0  0  0  0  0  0  0  0  0  0  0
    0.1441    1.1099   -3.3125 C   0  0  0  0  0  0  0  0  0  0  0  0
    2.0433    3.7493   -5.8103 C   0  0  0  0  0  0  0  0  0  0  0  0
    1.3521    4.3633   -6.8255 C   0  0  0  0  0  0  0  0  0  0  0  0
   -0.0088    4.0738   -6.8933 C   0  0  0  0  0  0  0  0  0  0  0  0
   -0.5237    2.9832   -6.1880 C   0  0  0  0  0  0  0  0  0  0  0  0
    0.3294    2.1692   -5.4502 C   0  0  0  0  0  0  0  0  0  0  0  0
    1.6501    2.5418   -5.2925 C   0  0  0  0  0  0  0  0  0  0  0  0
    2.0661    5.2826   -7.7585 C   0  0  0  0  0  0  0  0  0  0  0  0
    1.4442    6.0252   -8.6139 N   0  0  0  0  0  0  0  0  0  0  0  0
    3.4705    5.3780   -7.8289 N   0  0  0  0  0  0  0  0  0  0  0  0
    4.6185    4.7934   -7.2399 C   0  0  0  0  0  0  0  0  0  0  0  0
    5.7015    5.3378   -7.2428 O   0  0  0  0  0  0  0  0  0  0  0  0
    4.3855    3.5830   -6.6660 O   0  0  0  0  0  0  0  0  0  0  0  0
    5.1260    3.1366   -5.5073 C   0  0  0  0  0  0  0  0  0  0  0  0
    1.9031   -0.1002    0.0430 O   0  0  0  0  0  0  0  0  0  0  0  0
    3.4951    1.5610    2.5603 C   0  0  0  0  0  0  0  0  0  0  0  0
  2  1  1  0
  3  1  1  0
  3 10  1  6
  4  2  1  0
  4  9  1  1
  5  3  1  0
  5  4  1  0
  7  6  2  0
  8  6  1  0
  9  6  1  0
 11 10  1  0
 13 11  1  0
 13 12  2  0
 14 13  1  0
 15 14  2  0
 16 15  1  0
 17 12  1  0
 17 16  2  0
 19 18  2  0
 20 19  1  0
 21 20  2  0
 22 16  1  0
 22 21  1  0
 23 18  1  0
 23 22  2  0
 24 19  1  0
 25 24  2  0
 26 24  1  0
 27 26  1  0
 28 27  2  0
 29 27  1  0
 30 29  1  0
 31  2  2  0
 32  8  1  0
M  END
>  <DRUGBANK_ID>  (1) 
DB04863

>  <COMMON_NAME>  (1) 
Lefradafiban

>  <CAS_NUMBER>  (1) 
149503-79-7

>  <UNII>  (1) 
0R4888YXR5

>  <SYNONYMS>  (1) 
Léfradafiban; Lefradafiban; Lefradafibán; Lefradafibanum

$$$$
