
     RDKit          3D

 30 34  0  0  0  0  0  0  0  0999 V2000
   -0.0129    1.0856    1.6662 C   0  0  0  0  0  0  0  0  0  0  0  0
   -2.5773    7.2753   -3.3792 C   0  0  0  0  0  0  0  0  0  0  0  0
    0.2240    5.1995    0.6759 C   0  0  0  0  0  0  0  0  0  0  0  0
    0.5877    5.8874   -0.6184 C   0  0  0  0  0  0  0  0  0  0  0  0
    0.7040    7.1595   -3.4589 C   0  0  0  0  0  0  0  0  0  0  0  0
    0.5855    6.8418   -4.9705 C   0  0  0  0  0  0  0  0  0  0  0  0
   -1.6161    2.1158   -0.9339 C   0  0  0  0  0  0  0  0  0  0  0  0
   -2.1779    4.3289   -2.9388 C   0  0  0  0  0  0  0  0  0  0  0  0
   -0.3547    1.2901   -1.0359 C   0  0  0  0  0  0  0  0  0  0  0  0
   -1.8135    5.0345   -4.2609 C   0  0  0  0  0  0  0  0  0  0  0  0
    0.9992    2.8031    0.3309 C   0  0  0  0  0  0  0  0  0  0  0  0
    4.2194    8.7264   -1.0970 C   0  0  0  0  0  0  0  0  0  0  0  0
    3.5611    9.0996   -3.5477 C   0  0  0  0  0  0  0  0  0  0  0  0
    1.9472    9.3421   -2.0719 C   0  0  0  0  0  0  0  0  0  0  0  0
    0.0295    9.6955   -3.8430 C   0  0  0  0  0  0  0  0  0  0  0  0
    3.2940    9.0421   -2.1734 C   0  0  0  0  0  0  0  0  0  0  0  0
   -0.2326    3.7595    0.4632 C   0  0  2  0  0  0  0  0  0  0  0  0
   -1.3347    3.5865   -0.6141 C   0  0  1  0  0  0  0  0  0  0  0  0
   -1.0075    4.3199   -1.8916 C   0  0  2  0  0  0  0  0  0  0  0  0
   -0.5600    5.7643   -1.6092 C   0  0  2  0  0  0  0  0  0  0  0  0
   -0.1612    6.1131   -3.0070 C   0  0  1  0  0  0  0  0  0  0  0  0
   -0.8085    7.3037   -5.1053 C   0  0  2  0  0  0  0  0  0  0  0  0
   -0.3591    8.9040   -5.1481 C   0  0  0  0  0  0  0  0  0  0  0  0
    0.5041    1.3402    0.2396 C   0  0  1  0  0  0  0  0  0  0  0  0
   -1.3929    6.4684   -3.9252 C   0  0  2  0  0  0  0  0  0  0  0  0
    4.9515    8.5631   -0.2473 N   0  0  0  0  0  0  0  0  0  0  0  0
    2.5004    9.5125   -4.2649 N   0  0  0  0  0  0  0  0  0  0  0  0
    1.4757    9.6660   -3.3667 N   0  0  0  0  0  0  0  0  0  0  0  0
   -0.0920    9.3895   -6.2596 O   0  0  0  0  0  0  0  0  0  0  0  0
    1.4855    0.3213    0.0421 O   0  0  0  0  0  0  0  0  0  0  0  0
  4  3  1  0
  6  5  1  0
  9  7  1  0
 10  8  1  0
 16 12  1  0
 16 13  1  0
 16 14  2  0
 17  3  1  6
 17 11  1  0
 18  7  1  6
 18 17  1  0
 18 19  1  0
 19  8  1  6
 19 20  1  0
 20  4  1  1
 20 21  1  0
 21  5  1  1
 21 25  1  0
 22  6  1  0
 22 23  1  1
 23 15  1  0
 24  9  1  0
 24 11  1  0
 24 30  1  0
 24  1  1  1
 25  2  1  1
 25 10  1  0
 25 22  1  0
 26 12  3  0
 27 13  2  0
 28 14  1  0
 28 15  1  0
 28 27  1  0
 29 23  2  0
M  END
>  <DRUGBANK_ID>  (1) 
DB15490

>  <COMMON_NAME>  (1) 
Zuranolone

>  <CAS_NUMBER>  (1) 
1632051-40-1

>  <UNII>  (1) 
7ZW49N180B

>  <SYNONYMS>  (1) 
Zuranolone

$$$$
