
     RDKit          3D

 29 33  0  0  0  0  0  0  0  0999 V2000
   -0.9610    1.4237    0.6662 N   0  0  0  0  0  0  0  0  0  0  0  0
   -1.8999    0.8922   -0.3163 C   0  0  0  0  0  0  0  0  0  0  0  0
   -2.0688   -0.6240   -0.2407 C   0  0  0  0  0  0  0  0  0  0  0  0
   -0.7420   -1.3742   -0.1996 C   0  0  0  0  0  0  0  0  0  0  0  0
    0.3172   -0.7529    0.7196 C   0  0  2  0  0  0  0  0  0  0  0  0
    0.3477    0.7756    0.5844 C   0  0  1  0  0  0  0  0  0  0  0  0
    1.0831    0.9472   -0.7567 C   0  0  0  0  0  0  0  0  0  0  0  0
    1.7242   -1.1812    0.2151 C   0  0  0  0  0  0  0  0  0  0  0  0
    2.0989   -0.1044   -0.7088 N   0  0  0  0  0  0  0  0  0  0  0  0
    3.2724   -0.0282   -1.4248 C   0  0  0  0  0  0  0  0  0  0  0  0
    4.7880   -0.9305   -3.1135 C   0  0  0  0  0  0  0  0  0  0  0  0
    3.6223   -1.0102   -2.3635 C   0  0  0  0  0  0  0  0  0  0  0  0
    4.1620    1.0695   -1.2615 C   0  0  0  0  0  0  0  0  0  0  0  0
    5.3791    1.1724   -2.0004 C   0  0  0  0  0  0  0  0  0  0  0  0
    5.6619    0.1452   -2.9281 C   0  0  0  0  0  0  0  0  0  0  0  0
    7.8731    1.2832   -3.5410 C   0  0  0  0  0  0  0  0  0  0  0  0
    6.9103    0.1664   -3.7369 C   0  0  0  0  0  0  0  0  0  0  0  0
    6.3467    2.2265   -1.8662 N   0  0  0  0  0  0  0  0  0  0  0  0
    7.5016    2.1958   -2.6324 C   0  0  0  0  0  0  0  0  0  0  0  0
    2.7922   -2.0369   -2.6040 F   0  0  0  0  0  0  0  0  0  0  0  0
    7.1062   -0.7411   -4.5365 O   0  0  0  0  0  0  0  0  0  0  0  0
    9.1393    1.3454   -4.3195 C   0  0  0  0  0  0  0  0  0  0  0  0
    9.9651    2.3890   -4.0777 O   0  0  0  0  0  0  0  0  0  0  0  0
    9.4590    0.5126   -5.1526 O   0  0  0  0  0  0  0  0  0  0  0  0
    6.2007    3.2879   -0.8459 C   0  0  0  0  0  0  0  0  0  0  0  0
    5.9098    4.7160   -1.2419 C   0  0  0  0  0  0  0  0  0  0  0  0
    7.1671    4.3707   -0.4922 C   0  0  0  0  0  0  0  0  0  0  0  0
    3.7783    2.0412   -0.2726 C   0  0  0  0  0  0  0  0  0  0  0  0
    3.4575    2.8229    0.5334 N   0  0  0  0  0  0  0  0  0  0  0  0
  1  2  1  0
  1  6  1  0
  2  3  1  0
  3  4  1  0
  5  4  1  6
  5  8  1  0
  6  5  1  0
  6  7  1  6
  7  9  1  0
  8  9  1  0
  9 10  1  0
 10 13  2  0
 11 12  2  0
 11 15  1  0
 12 10  1  0
 12 20  1  0
 13 14  1  0
 13 28  1  0
 14 18  1  0
 15 14  2  0
 16 17  1  0
 16 19  2  0
 16 22  1  0
 17 15  1  0
 17 21  2  0
 18 19  1  0
 18 25  1  0
 22 23  1  0
 22 24  2  0
 25 26  1  0
 25 27  1  0
 26 27  1  0
 28 29  3  0
M  END
>  <DRUGBANK_ID>  (1) 
DB11453

>  <COMMON_NAME>  (1) 
Pradofloxacin

>  <CAS_NUMBER>  (1) 
195532-12-8

>  <UNII>  (1) 
6O0T5E048I

>  <SYNONYMS>  (1) 
Pradofloxacin

$$$$
