
     RDKit          3D

 27 28  0  0  0  0  0  0  0  0999 V2000
    1.0453   -0.1151   -0.0195 N   0  0  0  0  0  0  0  0  0  0  0  0
    0.3084   -0.7747   -0.9729 C   0  0  0  0  0  0  0  0  0  0  0  0
    1.0458   -1.3682   -1.9662 N   0  0  0  0  0  0  0  0  0  0  0  0
   -0.9171   -0.7981   -0.9469 O   0  0  0  0  0  0  0  0  0  0  0  0
    0.4207   -2.1619   -3.0035 C   0  0  0  0  0  0  0  0  0  0  0  0
    0.8712   -1.7461   -4.3200 N   0  0  0  0  0  0  0  0  0  0  0  0
    1.3795   -2.6600   -5.1976 C   0  0  0  0  0  0  0  0  0  0  0  0
    1.5863   -2.2156   -6.4761 N   0  0  0  0  0  0  0  0  0  0  0  0
    1.5957   -3.8198   -4.8593 O   0  0  0  0  0  0  0  0  0  0  0  0
    2.1831   -3.0697   -7.4980 C   0  0  0  0  0  0  0  0  0  0  0  0
    1.8124   -4.4637   -7.4694 N   0  0  0  0  0  0  0  0  0  0  0  0
    3.7145   -3.2033   -7.3080 C   0  0  0  0  0  0  0  0  0  0  0  0
    2.8869   -5.2744   -7.1620 C   0  0  0  0  0  0  0  0  0  0  0  0
    0.4838   -4.9547   -7.6831 C   0  0  0  0  0  0  0  0  0  0  0  0
    4.0020   -4.5101   -7.0631 N   0  0  0  0  0  0  0  0  0  0  0  0
    4.5340   -2.2952   -7.3293 O   0  0  0  0  0  0  0  0  0  0  0  0
    2.8702   -6.4905   -7.0327 O   0  0  0  0  0  0  0  0  0  0  0  0
   -0.3996   -4.3439   -6.7694 O   0  0  0  0  0  0  0  0  0  0  0  0
    0.3744    0.7151    0.9653 C   0  0  0  0  0  0  0  0  0  0  0  0
    0.3823    2.1276    0.6300 N   0  0  0  0  0  0  0  0  0  0  0  0
    1.0819    0.7994    2.3485 C   0  0  0  0  0  0  0  0  0  0  0  0
    0.8468    2.9112    1.6643 C   0  0  0  0  0  0  0  0  0  0  0  0
   -0.3308    2.6702   -0.4877 C   0  0  0  0  0  0  0  0  0  0  0  0
    1.3094    2.1093    2.6469 N   0  0  0  0  0  0  0  0  0  0  0  0
    1.4021   -0.1312    3.0731 O   0  0  0  0  0  0  0  0  0  0  0  0
    0.8604    4.1342    1.7042 O   0  0  0  0  0  0  0  0  0  0  0  0
    0.3285    2.2474   -1.6595 O   0  0  0  0  0  0  0  0  0  0  0  0
  1 19  1  0
  2  1  1  0
  3  2  1  0
  4  2  2  0
  5  3  1  0
  6  5  1  0
  7  6  1  0
  8  7  1  0
  9  7  2  0
 10  8  1  0
 11 10  1  0
 12 10  1  0
 13 11  1  0
 14 11  1  0
 15 12  1  0
 15 13  1  0
 16 12  2  0
 17 13  2  0
 18 14  1  0
 20 19  1  0
 21 19  1  0
 22 20  1  0
 23 20  1  0
 24 21  1  0
 24 22  1  0
 25 21  2  0
 26 22  2  0
 27 23  1  0
M  END
>  <DRUGBANK_ID>  (1) 
DB14075

>  <COMMON_NAME>  (1) 
Imidurea

>  <CAS_NUMBER>  (1) 
39236-46-9

>  <UNII>  (1) 
M629807ATL

>  <SYNONYMS>  (1) 
Imidazolidinyl urea

$$$$
