
     RDKit          3D

 30 33  0  0  0  0  0  0  0  0999 V2000
   -1.0887   -1.3396    0.0215 C   0  0  0  0  0  0  0  0  0  0  0  0
   -1.8326   -0.1946   -0.1321 C   0  0  0  0  0  0  0  0  0  0  0  0
   -1.1658    0.9989   -0.3502 C   0  0  0  0  0  0  0  0  0  0  0  0
    0.2045    1.1646   -0.1488 C   0  0  0  0  0  0  0  0  0  0  0  0
    0.9769   -0.0048   -0.0224 C   0  0  0  0  0  0  0  0  0  0  0  0
    0.3071   -1.2489    0.0206 C   0  0  0  0  0  0  0  0  0  0  0  0
    2.3656   -0.0024    0.0029 N   0  0  0  0  0  0  0  0  0  0  0  0
    0.7882    2.4604   -0.0921 N   0  0  0  0  0  0  0  0  0  0  0  0
    0.2139    3.7328   -0.0463 C   0  0  0  0  0  0  0  0  0  0  0  0
    0.9191    4.7259   -0.1557 O   0  0  0  0  0  0  0  0  0  0  0  0
   -1.2534    3.9327    0.1512 C   0  0  0  0  0  0  0  0  0  0  0  0
   -1.9415    3.2521    1.1665 C   0  0  0  0  0  0  0  0  0  0  0  0
   -3.3418    3.1951    1.1502 C   0  0  0  0  0  0  0  0  0  0  0  0
   -4.0771    3.9764    0.2486 C   0  0  0  0  0  0  0  0  0  0  0  0
   -3.3742    4.7834   -0.6634 C   0  0  0  0  0  0  0  0  0  0  0  0
   -1.9750    4.7122   -0.7605 C   0  0  0  0  0  0  0  0  0  0  0  0
   -5.5950    3.9106    0.2244 C   0  0  0  0  0  0  0  0  0  0  0  0
   -6.1817    5.1502    0.6819 N   0  0  0  0  0  0  0  0  0  0  0  0
   -6.9664    5.8487   -0.2072 C   0  0  0  0  0  0  0  0  0  0  0  0
   -6.7811    7.1732   -0.3048 N   0  0  0  0  0  0  0  0  0  0  0  0
   -7.6171    7.8515   -1.1171 C   0  0  0  0  0  0  0  0  0  0  0  0
   -8.6546    7.2645   -1.7923 C   0  0  0  0  0  0  0  0  0  0  0  0
   -8.7869    5.9050   -1.6135 C   0  0  0  0  0  0  0  0  0  0  0  0
   -7.9372    5.1870   -0.8519 N   0  0  0  0  0  0  0  0  0  0  0  0
   -9.8764    5.1646   -2.2421 C   0  0  0  0  0  0  0  0  0  0  0  0
  -10.0404    5.1513   -3.6321 C   0  0  0  0  0  0  0  0  0  0  0  0
  -11.1171    4.4816   -4.2050 C   0  0  0  0  0  0  0  0  0  0  0  0
  -12.0095    3.8378   -3.3656 C   0  0  0  0  0  0  0  0  0  0  0  0
  -11.8962    3.8242   -2.0207 N   0  0  0  0  0  0  0  0  0  0  0  0
  -10.8313    4.4795   -1.4923 C   0  0  0  0  0  0  0  0  0  0  0  0
  1  2  2  0
  1  6  1  0
  2  3  1  0
  3  4  2  0
  4  5  1  0
  4  8  1  0
  5  6  2  0
  5  7  1  0
  8  9  1  0
  9 10  2  0
  9 11  1  0
 11 12  2  0
 11 16  1  0
 12 13  1  0
 13 14  2  0
 14 15  1  0
 14 17  1  0
 15 16  2  0
 17 18  1  0
 18 19  1  0
 19 20  2  0
 19 24  1  0
 20 21  1  0
 21 22  2  0
 22 23  1  0
 23 24  2  0
 23 25  1  0
 25 26  2  0
 25 30  1  0
 26 27  1  0
 27 28  2  0
 28 29  1  0
 29 30  2  0
M  END
>  <DRUGBANK_ID>  (1) 
DB11830

>  <SECONDARY_ACCESSION_NUMBERS>  (1) 
DB05651

>  <COMMON_NAME>  (1) 
Mocetinostat

>  <CAS_NUMBER>  (1) 
726169-73-9

>  <UNII>  (1) 
A6GWB8T96J

>  <SYNONYMS>  (1) 
Mocetinostat

$$$$
