W91
     RDKit          3D

 23 25  0  0  0  0  0  0  0  0999 V2000
    0.9866   -0.0191   -0.0009 C   0  0  0  0  0  0  0  0  0  0  0  0
    2.4422    0.1009   -0.0372 C   0  0  0  0  0  0  0  0  0  0  0  0
    0.2815   -1.2150    0.1273 C   0  0  0  0  0  0  0  0  0  0  0  0
   -0.9856   -0.8008    0.3946 C   0  0  0  0  0  0  0  0  0  0  0  0
   -1.0843    0.5398    0.1950 O   0  0  0  0  0  0  0  0  0  0  0  0
    0.1841    1.0508   -0.0164 N   0  0  0  0  0  0  0  0  0  0  0  0
   -2.1915   -1.6038    0.4941 C   0  0  0  0  0  0  0  0  0  0  0  0
   -3.3079   -1.2095    1.4241 C   0  0  0  0  0  0  0  0  0  0  0  0
   -3.9088    0.1581    1.0639 C   0  0  0  0  0  0  0  0  0  0  0  0
   -4.7799    0.1768   -0.1159 O   0  0  0  0  0  0  0  0  0  0  0  0
   -4.2450    0.0721   -1.3839 C   0  0  0  0  0  0  0  0  0  0  0  0
   -3.9119   -1.1642   -1.9633 C   0  0  0  0  0  0  0  0  0  0  0  0
   -4.4860   -2.6902   -1.3557 Cl  0  0  0  0  0  0  0  0  0  0  0  0
   -3.0436   -1.2363   -3.0541 C   0  0  0  0  0  0  0  0  0  0  0  0
   -2.9329   -0.1366   -3.8869 C   0  0  0  0  0  0  0  0  0  0  0  0
   -3.5810    1.0465   -3.5299 C   0  0  0  0  0  0  0  0  0  0  0  0
   -4.1755    1.1681   -2.2552 C   0  0  0  0  0  0  0  0  0  0  0  0
   -4.9450    2.6649   -1.8709 Cl  0  0  0  0  0  0  0  0  0  0  0  0
   -2.2677   -0.2973   -5.1724 C   0  0  0  0  0  0  0  0  0  0  0  0
   -1.4302    0.5438   -5.7253 N   0  0  0  0  0  0  0  0  0  0  0  0
   -1.1895   -0.0551   -7.0423 C   0  0  0  0  0  0  0  0  0  0  0  0
   -1.7820   -1.4471   -6.9835 C   0  0  0  0  0  0  0  0  0  0  0  0
   -2.6151   -1.4229   -5.8335 O   0  0  0  0  0  0  0  0  0  0  0  0
  1  2  1  0
  1  3  1  0
  1  6  2  0
  3  4  2  0
  4  5  1  0
  4  7  1  0
  5  6  1  0
  7  8  1  0
  8  9  1  0
  9 10  1  0
 10 11  1  0
 11 12  2  0
 11 17  1  0
 12 13  1  0
 12 14  1  0
 14 15  2  0
 15 16  1  0
 15 19  1  0
 16 17  2  0
 17 18  1  0
 19 20  2  0
 19 23  1  0
 20 21  1  0
 21 22  1  0
 22 23  1  0
M  END
>  <DRUGBANK_ID>  (1) 
DB08728

>  <COMMON_NAME>  (1) 
5-(3-(2,6-dichloro-4-(4,5-dihydro-2-oxazolyl)phenoxy)propyl)-3-methyl isoxazole

>  <UNII>  (1) 
TVM6INF0BB

$$$$
