
     RDKit          3D

 43 46  0  0  0  0  0  0  0  0999 V2000
   -0.1064   -1.0875    0.2217 C   0  0  0  0  0  0  0  0  0  0  0  0
    0.7808   -0.0508    0.1068 C   0  0  0  0  0  0  0  0  0  0  0  0
    0.1653   -2.4613    0.3717 C   0  0  0  0  0  0  0  0  0  0  0  0
   -1.3954   -0.5621    0.0888 N   0  0  0  0  0  0  0  0  0  0  0  0
   -0.0183    1.0673    0.3192 C   0  0  0  0  0  0  0  0  0  0  0  0
    2.2759    0.0209   -0.0415 C   0  0  0  0  0  0  0  0  0  0  0  0
   -0.7096   -3.4438    0.1730 C   0  0  0  0  0  0  0  0  0  0  0  0
   -1.3669    0.8300    0.1376 C   0  0  0  0  0  0  0  0  0  0  0  0
    0.5570    2.3587    0.4748 C   0  0  0  0  0  0  0  0  0  0  0  0
   -0.3964   -4.8564    0.0916 C   0  0  0  0  0  0  0  0  0  0  0  0
   -2.0565   -3.2556    0.0317 N   0  0  0  0  0  0  0  0  0  0  0  0
   -2.5207    1.7293   -0.0089 C   0  0  0  0  0  0  0  0  0  0  0  0
   -1.5531   -5.5463    0.0562 C   0  0  0  0  0  0  0  0  0  0  0  0
    1.0324   -5.3793    0.0516 C   0  0  0  0  0  0  0  0  0  0  0  0
   -2.5679   -4.4490   -0.0003 C   0  0  0  0  0  0  0  0  0  0  0  0
   -2.5199    3.1050   -0.0345 C   0  0  0  0  0  0  0  0  0  0  0  0
   -1.7558   -7.0121    0.0478 C   0  0  0  0  0  0  0  0  0  0  0  0
    1.8653   -5.0602   -1.2132 C   0  0  0  0  0  0  0  0  0  0  0  0
   -4.0351   -4.6729   -0.0836 C   0  0  0  0  0  0  0  0  0  0  0  0
   -3.6412    4.0856   -0.2195 C   0  0  0  0  0  0  0  0  0  0  0  0
   -1.4820    3.9778    0.1182 N   0  0  0  0  0  0  0  0  0  0  0  0
    2.0856   -3.6116   -1.5862 C   0  0  0  0  0  0  0  0  0  0  0  0
   -4.9575   -3.6902   -0.0582 C   0  0  0  0  0  0  0  0  0  0  0  0
   -3.1776    5.3535   -0.0265 C   0  0  0  0  0  0  0  0  0  0  0  0
   -4.9756    3.7898   -0.7068 C   0  0  0  0  0  0  0  0  0  0  0  0
   -1.7885    5.2455    0.3329 C   0  0  0  0  0  0  0  0  0  0  0  0
    3.2890   -3.0919   -1.2649 O   0  0  0  0  0  0  0  0  0  0  0  0
    1.2453   -2.9384   -2.1631 O   0  0  0  0  0  0  0  0  0  0  0  0
   -6.4042   -3.8020   -0.0356 C   0  0  0  0  0  0  0  0  0  0  0  0
   -4.7335   -2.3486    0.0442 N   0  0  0  0  0  0  0  0  0  0  0  0
   -3.5938    6.7578   -0.1886 C   0  0  0  0  0  0  0  0  0  0  0  0
   -5.9437    4.6628   -1.0173 C   0  0  0  0  0  0  0  0  0  0  0  0
   -0.9896    6.1153    0.6805 O   0  0  0  0  0  0  0  0  0  0  0  0
   -6.9860   -2.6216    0.2711 C   0  0  0  0  0  0  0  0  0  0  0  0
   -7.1434   -5.0354   -0.4140 C   0  0  0  0  0  0  0  0  0  0  0  0
   -5.8578   -1.6582    0.4382 C   0  0  0  0  0  0  0  0  0  0  0  0
   -8.3962   -2.3239    0.3282 C   0  0  0  0  0  0  0  0  0  0  0  0
   -5.9026   -0.5162    0.8569 O   0  0  0  0  0  0  0  0  0  0  0  0
   -8.9341   -1.1376    0.6350 C   0  0  0  0  0  0  0  0  0  0  0  0
    2.7919    0.6814   -1.3447 C   0  0  0  0  0  0  0  0  0  0  0  0
    2.5508    2.1557   -1.6026 C   0  0  0  0  0  0  0  0  0  0  0  0
    3.2449    3.0799   -1.2037 O   0  0  0  0  0  0  0  0  0  0  0  0
    1.4089    2.4244   -2.2654 O   0  0  0  0  0  0  0  0  0  0  0  0
  1  2  2  0
  1  3  1  0
  1  4  1  0
  2  5  1  0
  2  6  1  0
  3  7  2  0
  4  8  1  0
  5  9  1  0
  5  8  2  0
  6 40  1  0
  7 10  1  0
  7 11  1  0
  8 12  1  0
 10 13  2  0
 10 14  1  0
 11 15  2  0
 12 16  2  0
 13 17  1  0
 13 15  1  0
 14 18  1  0
 15 19  1  0
 16 20  1  0
 16 21  1  0
 18 22  1  0
 19 23  2  0
 20 24  2  0
 20 25  1  0
 21 26  1  0
 22 27  1  0
 22 28  2  0
 23 29  1  0
 23 30  1  0
 24 31  1  0
 24 26  1  0
 25 32  2  0
 26 33  2  0
 29 34  2  0
 29 35  1  0
 30 36  1  0
 34 37  1  0
 34 36  1  0
 36 38  2  0
 37 39  2  0
 40 41  1  0
 41 42  2  0
 41 43  1  0
M  END
>  <DRUGBANK_ID>  (1) 
DB02073

>  <SECONDARY_ACCESSION_NUMBERS>  (1) 
EXPT00714

>  <COMMON_NAME>  (1) 
Biliverdine IX Alpha

>  <CAS_NUMBER>  (1) 
114-25-0

>  <UNII>  (1) 
O9MIA842K9

$$$$
