
     RDKit          3D

 31 35  0  0  0  0  0  0  0  0999 V2000
    0.9179    0.0482    0.0397 C   0  0  0  0  0  0  0  0  0  0  0  0
    0.5338   -1.0446   -0.8818 C   0  0  0  0  0  0  0  0  0  0  0  0
    1.2040   -2.2090   -0.8804 C   0  0  0  0  0  0  0  0  0  0  0  0
    0.8071   -3.3079   -1.7043 C   0  0  0  0  0  0  0  0  0  0  0  0
   -0.3867   -3.2404   -2.2892 C   0  0  0  0  0  0  0  0  0  0  0  0
   -1.0404   -2.0184   -2.4207 N   0  0  0  0  0  0  0  0  0  0  0  0
   -0.6106   -0.8545   -1.8261 C   0  0  0  0  0  0  0  0  0  0  0  0
   -1.1554    0.3088   -2.0377 N   0  0  0  0  0  0  0  0  0  0  0  0
   -2.1774    0.4037   -2.9600 C   0  0  0  0  0  0  0  0  0  0  0  0
   -2.6722   -0.6504   -3.6237 C   0  0  0  0  0  0  0  0  0  0  0  0
   -2.1352   -1.9687   -3.2208 C   0  0  0  0  0  0  0  0  0  0  0  0
   -2.6992   -3.0068   -3.5276 O   0  0  0  0  0  0  0  0  0  0  0  0
   -3.7605   -0.6215   -4.6688 C   0  0  0  0  0  0  0  0  0  0  0  0
   -3.2743   -1.0440   -6.0613 C   0  0  0  0  0  0  0  0  0  0  0  0
   -2.8388   -2.4339   -6.0857 N   0  0  0  0  0  0  0  0  0  0  0  0
   -3.8818   -3.4323   -5.8250 C   0  0  0  0  0  0  0  0  0  0  0  0
   -3.2857   -4.8139   -5.4362 C   0  0  0  0  0  0  0  0  0  0  0  0
   -2.0664   -5.2665   -6.1925 C   0  0  0  0  0  0  0  0  0  0  0  0
   -1.3391   -4.1029   -6.9810 C   0  0  0  0  0  0  0  0  0  0  0  0
   -2.0783   -2.7842   -7.2556 C   0  0  0  0  0  0  0  0  0  0  0  0
   -0.8733   -6.2777   -5.3758 C   0  0  0  0  0  0  0  0  0  0  0  0
   -0.0466   -6.7768   -3.9703 C   0  0  0  0  0  0  0  0  0  0  0  0
    0.7813   -7.2969   -2.7205 C   0  0  0  0  0  0  0  0  0  0  0  0
    1.9666   -8.2110   -2.4800 C   0  0  0  0  0  0  0  0  0  0  0  0
    2.6013   -8.6901   -3.5654 C   0  0  0  0  0  0  0  0  0  0  0  0
    1.9383   -8.4501   -4.7140 C   0  0  0  0  0  0  0  0  0  0  0  0
    0.7231   -7.6981   -4.8391 C   0  0  0  0  0  0  0  0  0  0  0  0
    0.2746   -7.8319   -6.0763 O   0  0  0  0  0  0  0  0  0  0  0  0
   -0.2232   -6.6769   -6.4545 N   0  0  0  0  0  0  0  0  0  0  0  0
    3.7799   -9.3305   -3.5705 F   0  0  0  0  0  0  0  0  0  0  0  0
   -2.7352    1.7887   -3.1745 C   0  0  0  0  0  0  0  0  0  0  0  0
  1  2  1  0
  2  3  2  0
  2  7  1  0
  3  4  1  0
  4  5  2  0
  5  6  1  0
  6  7  1  0
  6 11  1  0
  7  8  2  0
  8  9  1  0
  9 10  2  0
  9 31  1  0
 10 11  1  0
 10 13  1  0
 11 12  2  0
 13 14  1  0
 14 15  1  0
 15 16  1  0
 15 20  1  0
 16 17  1  0
 17 18  1  0
 18 19  1  0
 18 21  1  0
 19 20  1  0
 21 22  1  0
 21 29  2  0
 22 23  2  0
 22 27  1  0
 23 24  1  0
 24 25  2  0
 25 26  1  0
 25 30  1  0
 26 27  2  0
 27 28  1  0
 28 29  1  0
M  END
>  <DRUGBANK_ID>  (1) 
DB06229

>  <COMMON_NAME>  (1) 
Ocaperidone

>  <CAS_NUMBER>  (1) 
129029-23-8

>  <UNII>  (1) 
26HUS7139V

>  <SYNONYMS>  (1) 
Ocaperidona; Ocaperidone; Ocaperidonum

$$$$
