
     RDKit          3D

 16 17  0  0  0  0  0  0  0  0999 V2000
    0.6516   -0.0732    0.0562 C   0  0  0  0  0  0  0  0  0  0  0  0
    0.3341    1.2207    0.6532 O   0  0  0  0  0  0  0  0  0  0  0  0
    0.7502    1.6722    1.8834 C   0  0  0  0  0  0  0  0  0  0  0  0
   -0.1106    2.3141    2.6597 N   0  0  0  0  0  0  0  0  0  0  0  0
    0.3679    2.7919    3.8707 C   0  0  0  0  0  0  0  0  0  0  0  0
   -0.2658    3.4954    4.9208 N   0  0  0  0  0  0  0  0  0  0  0  0
   -1.6312    3.9525    5.1085 C   0  0  0  0  0  0  0  0  0  0  0  0
    0.7140    3.7564    5.9522 C   0  0  0  0  0  0  0  0  0  0  0  0
    0.5706    4.3308    7.0114 O   0  0  0  0  0  0  0  0  0  0  0  0
    1.9046    3.1907    5.4633 N   0  0  0  0  0  0  0  0  0  0  0  0
    3.1807    3.2137    6.1333 C   0  0  0  0  0  0  0  0  0  0  0  0
    1.6431    2.6339    4.2471 C   0  0  0  0  0  0  0  0  0  0  0  0
    2.5921    1.9380    3.3946 C   0  0  0  0  0  0  0  0  0  0  0  0
    3.7626    1.7769    3.7140 O   0  0  0  0  0  0  0  0  0  0  0  0
    2.0896    1.4861    2.1967 N   0  0  0  0  0  0  0  0  0  0  0  0
    3.1526    0.9373    1.3719 C   0  0  0  0  0  0  0  0  0  0  0  0
  1  2  1  0
  2  3  1  0
  3  4  2  0
  3 15  1  0
  4  5  1  0
  5  6  1  0
  5 12  2  0
  6  7  1  0
  6  8  1  0
  8  9  2  0
  8 10  1  0
 10 11  1  0
 10 12  1  0
 12 13  1  0
 13 14  2  0
 13 15  1  0
 15 16  1  0
M  END
>  <DRUGBANK_ID>  (1) 
DB17930

>  <COMMON_NAME>  (1) 
Methylliberine

>  <CAS_NUMBER>  (1) 
51168-26-4

>  <UNII>  (1) 
RY9AJC5PA7

$$$$
