42647297
     RDKit          3D

 33 37  0  0  0  0  0  0  0  0999 V2000
    2.3576    0.9560   -0.1138 F   0  0  0  0  0  0  0  0  0  0  0  0
   -2.3428    0.8634   -0.0003 F   0  0  0  0  0  0  0  0  0  0  0  0
    5.6221   -4.4238   -4.7941 O   0  0  0  0  0  0  0  0  0  0  0  0
    4.9333   -0.5827    4.1013 O   0  0  0  0  0  0  0  0  0  0  0  0
    6.2772   -2.4083   -4.0058 N   0  0  0  0  0  0  0  0  0  0  0  0
    6.7987   -3.5788    0.9765 N   0  0  0  0  0  0  0  0  0  0  0  0
    3.5951   -0.9890    2.2503 N   0  0  0  0  0  0  0  0  0  0  0  0
    2.4810   -1.8133    0.1280 N   0  0  0  0  0  0  0  0  0  0  0  0
    2.7181   -2.7878   -0.7783 N   0  0  0  0  0  0  0  0  0  0  0  0
    6.5612   -1.4695   -2.9784 C   0  0  0  0  0  0  0  0  0  0  0  0
    6.7003    0.0102   -2.9828 C   0  0  0  0  0  0  0  0  0  0  0  0
    7.9378   -0.8214   -3.0032 C   0  0  0  0  0  0  0  0  0  0  0  0
    6.0654   -3.7820   -3.8488 C   0  0  0  0  0  0  0  0  0  0  0  0
    6.3590   -4.4945   -2.5435 C   0  0  0  0  0  0  0  0  0  0  0  0
    6.8449   -3.8576   -1.4010 C   0  0  0  0  0  0  0  0  0  0  0  0
    6.8183   -4.4378   -0.1362 C   0  0  0  0  0  0  0  0  0  0  0  0
    3.5220   -1.7160    1.0576 C   0  0  0  0  0  0  0  0  0  0  0  0
    4.5021   -2.5964    0.6371 C   0  0  0  0  0  0  0  0  0  0  0  0
    6.0785   -5.8581   -2.4131 C   0  0  0  0  0  0  0  0  0  0  0  0
    5.7304   -2.7587    1.3796 C   0  0  0  0  0  0  0  0  0  0  0  0
    6.7125   -5.8179   -0.0513 C   0  0  0  0  0  0  0  0  0  0  0  0
    6.4189   -6.5336   -1.2259 C   0  0  0  0  0  0  0  0  0  0  0  0
    5.8191   -2.0685    2.5358 C   0  0  0  0  0  0  0  0  0  0  0  0
    4.7456   -1.1493    3.0323 C   0  0  0  0  0  0  0  0  0  0  0  0
    3.9366   -3.2274   -0.4761 C   0  0  0  0  0  0  0  0  0  0  0  0
    1.2491   -1.1362    0.0414 C   0  0  0  0  0  0  0  0  0  0  0  0
    2.5487   -0.1309    2.7648 C   0  0  0  0  0  0  0  0  0  0  0  0
    6.8565   -6.5262    1.2606 C   0  0  0  0  0  0  0  0  0  0  0  0
    1.2199    0.2521   -0.0293 C   0  0  0  0  0  0  0  0  0  0  0  0
    0.0519   -1.8675   -0.0166 C   0  0  0  0  0  0  0  0  0  0  0  0
    0.0105    0.9354   -0.0276 C   0  0  0  0  0  0  0  0  0  0  0  0
   -1.1662   -1.1825   -0.0312 C   0  0  0  0  0  0  0  0  0  0  0  0
   -1.1739    0.2105   -0.0173 C   0  0  0  0  0  0  0  0  0  0  0  0
  1 29  1  0
  2 33  1  0
  3 13  2  0
  4 24  2  0
  5 10  1  0
  5 13  1  0
  6 16  1  0
  6 20  1  0
  7 17  1  0
  7 24  1  0
  7 27  1  0
  8  9  1  0
  8 17  1  0
  8 26  1  0
  9 25  2  0
 10 11  1  0
 10 12  1  0
 11 12  1  0
 13 14  1  0
 14 15  2  0
 14 19  1  0
 15 16  1  0
 16 21  2  0
 17 18  2  0
 18 20  1  0
 18 25  1  0
 19 22  2  0
 20 23  2  0
 21 22  1  0
 21 28  1  0
 23 24  1  0
 26 29  2  0
 26 30  1  0
 29 31  1  0
 30 32  2  0
 31 33  2  0
 32 33  1  0
M  END
>  <DRUGBANK_ID>  (1) 
DB08349

>  <COMMON_NAME>  (1) 
N-cyclopropyl-3-{[1-(2,4-difluorophenyl)-7-methyl-6-oxo-6,7-dihydro-1H-pyrazolo[3,4-b]pyridin-4-yl]amino}-4-methylbenzamide

$$$$
