
     RDKit          3D

 12 12  0  0  1  0  0  0  0  0999 V2000
    0.7172    1.2963   -0.2382 C   0  0  2  0  0  0  0  0  0  0  0  0
    1.4527   -0.0010    0.1550 C   0  0  2  0  0  0  0  0  0  0  0  0
    0.7163   -1.2981   -0.2370 C   0  0  1  0  0  0  0  0  0  0  0  0
   -0.7624    1.2668    0.1966 C   0  0  2  0  0  0  0  0  0  0  0  0
   -0.7634   -1.2672    0.1973 C   0  0  1  0  0  0  0  0  0  0  0  0
   -1.5053   -0.0000   -0.2799 C   0  0  1  0  0  0  0  0  0  0  0  0
    0.9002   -1.6245   -1.9978 Cl  0  0  0  0  0  0  0  0  0  0  0  0
   -3.1880    0.0008    0.3831 Cl  0  0  0  0  0  0  0  0  0  0  0  0
    0.9004    1.6204   -1.9995 Cl  0  0  0  0  0  0  0  0  0  0  0  0
    1.6862   -0.0002    1.9529 Cl  0  0  0  0  0  0  0  0  0  0  0  0
   -1.6015    2.7834   -0.2974 Cl  0  0  0  0  0  0  0  0  0  0  0  0
   -1.6037   -2.7833   -0.2963 Cl  0  0  0  0  0  0  0  0  0  0  0  0
  1  9  1  6
  2  1  1  0
  2 10  1  1
  3  2  1  0
  3  7  1  6
  4  1  1  0
  4 11  1  6
  5  3  1  0
  5  6  1  0
  5 12  1  6
  6  4  1  0
  6  8  1  1
M  END
>  <DRUGBANK_ID>  (1) 
DB00431

>  <SECONDARY_ACCESSION_NUMBERS>  (1) 
APRD01072

>  <COMMON_NAME>  (1) 
Lindane

>  <CAS_NUMBER>  (1) 
58-89-9

>  <UNII>  (1) 
59NEE7PCAB

>  <SYNONYMS>  (1) 
(1r,2c,3t,4c,5c,6t)-1,2,3,4,5,6-hexachlorocyclohexane; (1α,2α,3β,4α,5α,6β)-1,2,3,4,5,6-hexachlorocyclohexane; 1,2,3,4,5,6-hexachlorocyclohexane; Benzene hexachloride; gamma-1,2,3,4,5,6-hexachlorocyclohexane; gamma-benzene hexachloride; gamma-BHC; gamma-HCH; gamma-Hexachlorocyclohexane; gamma-Lindane; Gammallin; Gammaxene; Lindan; Lindane; Lindano; Lindanum; γ-hexachlorocyclohexane; γ-Hexachlorzyklohexan; γ-lindane

$$$$
