
     RDKit          3D

 13 13  0  0  0  0  0  0  0  0999 V2000
    0.9469   -0.2031    0.0381 C   0  0  0  0  0  0  0  0  0  0  0  0
   -1.5166   -0.4194    2.9427 C   0  0  0  0  0  0  0  0  0  0  0  0
    3.5566    4.2877    2.2647 C   0  0  0  0  0  0  0  0  0  0  0  0
   -1.1985    3.8519    0.7228 C   0  0  0  0  0  0  0  0  0  0  0  0
   -0.3870    4.9500    0.9489 C   0  0  0  0  0  0  0  0  0  0  0  0
   -0.7276    2.5876    1.0451 C   0  0  0  0  0  0  0  0  0  0  0  0
    0.8984    4.7643    1.4582 C   0  0  0  0  0  0  0  0  0  0  0  0
    0.9715    1.0305    2.2040 C   0  0  0  0  0  0  0  0  0  0  0  0
    0.4702   -0.2505    1.5000 C   0  0  0  0  0  0  0  0  0  0  0  0
    0.5252    2.3768    1.6476 C   0  0  0  0  0  0  0  0  0  0  0  0
    1.3662    3.4914    1.8007 C   0  0  0  0  0  0  0  0  0  0  0  0
   -0.9692   -0.5500    1.5976 N   0  0  0  0  0  0  0  0  0  0  0  0
    2.6220    3.2217    2.2768 O   0  0  0  0  0  0  0  0  0  0  0  0
  5  4  2  0
  6  4  1  0
  7  5  1  0
  9  1  1  0
  9  8  1  0
 10  6  2  0
 10  8  1  0
 11  7  2  0
 11 10  1  0
 12  2  1  0
 12  9  1  0
 13  3  1  0
 13 11  1  0
M  END
>  <DRUGBANK_ID>  (1) 
DB13624

>  <COMMON_NAME>  (1) 
Methoxyphenamine

>  <CAS_NUMBER>  (1) 
93-30-1

>  <UNII>  (1) 
J3Z5SRI26Z

>  <SYNONYMS>  (1) 
2-Methoxymethamphetamine; Méthoxyphénamine; Methoxyphenamine; Methoxyphenaminum; Metoxifenamina

$$$$
