33A
     RDKit          3D

 27 30  0  0  0  0  0  0  0  0999 V2000
   -0.3747   -0.0023   -0.0004 C   0  0  0  0  0  0  0  0  0  0  0  0
    0.3251   -1.2094   -0.0070 C   0  0  0  0  0  0  0  0  0  0  0  0
    1.7196   -1.2044    0.0098 C   0  0  0  0  0  0  0  0  0  0  0  0
    2.4065    0.0090    0.0270 C   0  0  0  0  0  0  0  0  0  0  0  0
    1.6986    1.2199    0.0235 C   0  0  0  0  0  0  0  0  0  0  0  0
    0.3035    1.2130    0.0109 C   0  0  0  0  0  0  0  0  0  0  0  0
    2.4118    2.4714   -0.0382 C   0  0  0  0  0  0  0  0  0  0  0  0
   -2.0948   -0.0113   -0.0126 Cl  0  0  0  0  0  0  0  0  0  0  0  0
    2.3604    3.4631    0.9161 C   0  0  0  0  0  0  0  0  0  0  0  0
    3.2208    4.4358    0.4930 N   0  0  0  0  0  0  0  0  0  0  0  0
    3.8380    4.1413   -0.6632 N   0  0  0  0  0  0  0  0  0  0  0  0
    3.2885    2.9728   -1.0208 C   0  0  0  0  0  0  0  0  0  0  0  0
    3.6229    2.2853   -2.2598 C   0  0  0  0  0  0  0  0  0  0  0  0
    2.8278    1.7758   -3.2504 C   0  0  0  0  0  0  0  0  0  0  0  0
    3.6571    1.2680   -4.2227 N   0  0  0  0  0  0  0  0  0  0  0  0
    4.9948    1.3912   -3.8530 C   0  0  0  0  0  0  0  0  0  0  0  0
    4.9488    1.9937   -2.6059 C   0  0  0  0  0  0  0  0  0  0  0  0
    6.0671    0.9332   -4.7350 C   0  0  0  0  0  0  0  0  0  0  0  0
    5.8222    0.4011   -5.8146 O   0  0  0  0  0  0  0  0  0  0  0  0
    7.3979    1.0834   -4.4074 N   0  0  0  0  0  0  0  0  0  0  0  0
    8.0077    1.5709   -3.1962 C   0  0  0  0  0  0  0  0  0  0  0  0
    8.5931    0.5156   -2.3018 C   0  0  0  0  0  0  0  0  0  0  0  0
    9.2748    0.9274   -1.1441 C   0  0  0  0  0  0  0  0  0  0  0  0
    9.6968   -0.0076   -0.2012 C   0  0  0  0  0  0  0  0  0  0  0  0
    9.4137   -1.3584   -0.3903 C   0  0  0  0  0  0  0  0  0  0  0  0
    8.6994   -1.7728   -1.5118 C   0  0  0  0  0  0  0  0  0  0  0  0
    8.3212   -0.8463   -2.4798 C   0  0  0  0  0  0  0  0  0  0  0  0
  1  8  1  0
  1  6  2  0
  1  2  1  0
  2  3  2  0
  3  4  1  0
  4  5  2  0
  5  6  1  0
  5  7  1  0
  7 12  1  0
  7  9  2  0
  9 10  1  0
 10 11  1  0
 11 12  2  0
 12 13  1  0
 13 14  2  0
 13 17  1  0
 14 15  1  0
 15 16  1  0
 16 18  1  0
 16 17  2  0
 18 19  2  0
 18 20  1  0
 20 21  1  0
 21 22  1  0
 22 23  2  0
 22 27  1  0
 23 24  1  0
 24 25  2  0
 25 26  1  0
 26 27  2  0
M  END
>  <DRUGBANK_ID>  (1) 
DB07010

>  <COMMON_NAME>  (1) 
N-BENZYL-4-[4-(3-CHLOROPHENYL)-1H-PYRAZOL-3-YL]-1H-PYRROLE-2-CARBOXAMIDE

$$$$
