
     RDKit          3D

 31 34  0  0  0  0  0  0  0  0999 V2000
    2.5513   -0.2727   -0.5050 C   0  0  0  0  0  0  0  0  0  0  0  0
    2.4539    1.0216   -0.1048 C   0  0  0  0  0  0  0  0  0  0  0  0
    1.1752    1.5919   -0.0724 C   0  0  0  0  0  0  0  0  0  0  0  0
    1.3548   -0.9173   -0.8964 C   0  0  0  0  0  0  0  0  0  0  0  0
   -0.0386   -0.4511   -0.5602 C   0  0  0  0  0  0  0  0  0  0  0  0
   -0.0425    0.9019   -0.2387 C   0  0  0  0  0  0  0  0  0  0  0  0
   -1.1756    1.6076   -0.0199 N   0  0  0  0  0  0  0  0  0  0  0  0
   -2.3917    1.0150   -0.0221 C   0  0  0  0  0  0  0  0  0  0  0  0
   -2.5789   -0.3119   -0.1616 C   0  0  0  0  0  0  0  0  0  0  0  0
   -1.4385   -1.0597   -0.3861 C   0  0  0  0  0  0  0  0  0  0  0  0
   -1.7868   -2.5097   -0.2059 C   0  0  0  0  0  0  0  0  0  0  0  0
   -2.7476   -2.8835    0.8385 N   0  0  0  0  0  0  0  0  0  0  0  0
   -3.4338   -4.0570    0.8376 C   0  0  0  0  0  0  0  0  0  0  0  0
   -3.2492   -5.2340    0.1278 C   0  0  0  0  0  0  0  0  0  0  0  0
   -4.7358   -6.1485    0.2451 S   0  0  0  0  0  0  0  0  0  0  0  0
   -5.3804   -5.1209    1.4515 C   0  0  0  0  0  0  0  0  0  0  0  0
   -4.4949   -4.1303    1.7797 C   0  0  0  0  0  0  0  0  0  0  0  0
   -2.1749   -5.7981   -0.7332 C   0  0  0  0  0  0  0  0  0  0  0  0
   -2.3888   -6.6105   -1.6101 O   0  0  0  0  0  0  0  0  0  0  0  0
   -0.8297   -5.3675   -0.6235 N   0  0  0  0  0  0  0  0  0  0  0  0
   -0.1233   -4.7373    0.4452 C   0  0  0  0  0  0  0  0  0  0  0  0
   -0.5646   -4.7414    1.7713 C   0  0  0  0  0  0  0  0  0  0  0  0
   -0.2992   -3.6760    2.6978 C   0  0  0  0  0  0  0  0  0  0  0  0
    0.5190   -2.6277    2.3552 C   0  0  0  0  0  0  0  0  0  0  0  0
    1.2004   -2.7913    1.1586 C   0  0  0  0  0  0  0  0  0  0  0  0
    0.8329   -3.7707    0.1493 C   0  0  0  0  0  0  0  0  0  0  0  0
    0.6197   -1.3773    2.9100 O   0  0  0  0  0  0  0  0  0  0  0  0
    0.0916   -1.1508    4.2060 C   0  0  0  0  0  0  0  0  0  0  0  0
   -1.2584   -1.1076    4.1878 F   0  0  0  0  0  0  0  0  0  0  0  0
    0.5004   -2.1267    5.0393 F   0  0  0  0  0  0  0  0  0  0  0  0
    0.5438    0.0306    4.6896 F   0  0  0  0  0  0  0  0  0  0  0  0
  1  2  2  0
  2  3  1  0
  3  6  2  0
  4  1  1  0
  5  4  2  0
  5  6  1  0
  6  7  1  0
  7  8  2  0
  8  9  1  0
  9 10  2  0
 10  5  1  0
 10 11  1  0
 11 12  1  0
 12 13  1  0
 13 14  2  0
 14 18  1  0
 14 15  1  0
 15 16  1  0
 16 17  2  0
 17 13  1  0
 18 19  2  0
 18 20  1  0
 20 21  1  0
 21 22  2  0
 22 23  1  0
 23 24  2  0
 24 25  1  0
 24 27  1  0
 25 26  2  0
 26 21  1  0
 27 28  1  0
 28 29  1  0
 28 30  1  0
 28 31  1  0
M  END
>  <DRUGBANK_ID>  (1) 
DB05913

>  <COMMON_NAME>  (1) 
OSI-930

>  <CAS_NUMBER>  (1) 
728033-96-3

>  <UNII>  (1) 
G1PEG5Q9Y2

$$$$
