J67
     RDKit          3D

 32 36  0  0  0  0  0  0  0  0999 V2000
    0.7125   -0.4776    0.1025 O   0  0  0  0  0  0  0  0  0  0  0  0
    0.1442    0.7564    0.3161 N   0  0  0  0  0  0  0  0  0  0  0  0
   -1.1016    0.9718    0.1093 C   0  0  0  0  0  0  0  0  0  0  0  0
   -2.2263   -0.0322    0.0518 C   0  0  0  0  0  0  0  0  0  0  0  0
   -2.0628   -1.2218    0.0671 O   0  0  0  0  0  0  0  0  0  0  0  0
   -3.4075    0.7306    0.0463 N   0  0  0  0  0  0  0  0  0  0  0  0
   -4.7314    0.0292    0.1189 C   0  0  0  0  0  0  0  0  0  0  0  0
   -5.5995    0.3389    1.3382 C   0  0  0  0  0  0  0  0  0  0  0  0
   -5.9708    1.6661    1.5183 C   0  0  0  0  0  0  0  0  0  0  0  0
   -6.5471    2.1566    2.6758 C   0  0  0  0  0  0  0  0  0  0  0  0
   -6.8903    3.4469    2.7347 F   0  0  0  0  0  0  0  0  0  0  0  0
   -6.7652    1.3255    3.7452 C   0  0  0  0  0  0  0  0  0  0  0  0
   -6.4837   -0.0243    3.5945 C   0  0  0  0  0  0  0  0  0  0  0  0
   -6.8565   -1.0192    4.6529 C   0  0  0  0  0  0  0  0  0  0  0  0
   -7.7868   -1.9750    4.1575 O   0  0  0  0  0  0  0  0  0  0  0  0
   -8.0742   -1.7100    2.7843 C   0  0  0  0  0  0  0  0  0  0  0  0
   -6.8526   -1.6786    1.9660 O   0  0  0  0  0  0  0  0  0  0  0  0
   -6.1328   -0.5188    2.3167 C   0  0  0  0  0  0  0  0  0  0  0  0
   -3.0578    2.1399   -0.0593 C   0  0  0  0  0  0  0  0  0  0  0  0
   -3.8264    3.2925   -0.2099 C   0  0  0  0  0  0  0  0  0  0  0  0
   -3.2432    4.5751   -0.1978 C   0  0  0  0  0  0  0  0  0  0  0  0
   -1.8621    4.7309   -0.1621 C   0  0  0  0  0  0  0  0  0  0  0  0
   -1.0208    3.6101   -0.1023 C   0  0  0  0  0  0  0  0  0  0  0  0
    0.4232    3.9650   -0.1216 C   0  0  0  0  0  0  0  0  0  0  0  0
    1.4198    3.0850   -0.1771 C   0  0  0  0  0  0  0  0  0  0  0  0
    2.8506    3.1658   -0.1324 C   0  0  0  0  0  0  0  0  0  0  0  0
    3.4644    4.0582    0.7176 C   0  0  0  0  0  0  0  0  0  0  0  0
    4.8230    4.2372    0.5754 C   0  0  0  0  0  0  0  0  0  0  0  0
    5.5623    3.3804   -0.2495 C   0  0  0  0  0  0  0  0  0  0  0  0
    4.9603    2.3002   -0.8895 C   0  0  0  0  0  0  0  0  0  0  0  0
    3.5843    2.2170   -0.8682 C   0  0  0  0  0  0  0  0  0  0  0  0
   -1.6599    2.3322   -0.0108 C   0  0  0  0  0  0  0  0  0  0  0  0
  2  1  1  0
  3  2  2  0
  4  3  1  0
  5  4  2  0
  6  4  1  0
  6 19  1  0
  7  6  1  0
  7  8  1  0
  8  9  2  0
  9 10  1  0
 10 11  1  0
 12 10  2  0
 13 12  1  0
 14 13  1  0
 15 14  1  0
 16 15  1  0
 16 17  1  0
 17 18  1  0
 18  8  1  0
 18 13  2  0
 19 32  2  0
 20 19  1  0
 20 21  2  0
 21 22  1  0
 22 23  2  0
 23 24  1  0
 24 25  2  0
 25 26  1  0
 26 27  2  0
 27 28  1  0
 29 28  2  0
 30 29  1  0
 31 26  1  0
 31 30  2  0
 32  3  1  0
 32 23  1  0
M  END
>  <DRUGBANK_ID>  (1) 
DB08010

>  <COMMON_NAME>  (1) 
(3Z)-1-[(6-fluoro-4H-1,3-benzodioxin-8-yl)methyl]-4-[(E)-2-phenylethenyl]-1H-indole-2,3-dione 3-oxime

$$$$
