
     RDKit          3D

 26 27  0  0  1  0  0  0  0  0999 V2000
    1.1548   -2.5585    0.5452 C   0  0  0  0  0  0  0  0  0  0  0  0
    0.5548   -1.4449   -0.3253 C   0  0  2  0  0  0  0  0  0  0  0  0
    1.1580   -0.0293   -0.0043 C   0  0  0  0  0  0  0  0  0  0  0  0
    2.3197   -0.1169    0.9673 C   0  0  0  0  0  0  0  0  0  0  0  0
    3.6073   -0.1722    0.4544 C   0  0  0  0  0  0  0  0  0  0  0  0
    4.6376   -0.7169    1.2233 C   0  0  0  0  0  0  0  0  0  0  0  0
    4.3669   -1.2747    2.4844 C   0  0  0  0  0  0  0  0  0  0  0  0
    3.0828   -1.1743    3.0281 C   0  0  0  0  0  0  0  0  0  0  0  0
    2.0819   -0.5090    2.3029 C   0  0  0  0  0  0  0  0  0  0  0  0
    2.6101   -1.7837    4.1707 O   0  0  0  0  0  0  0  0  0  0  0  0
    3.5822   -2.0904    5.1614 C   0  0  0  0  0  0  0  0  0  0  0  0
    5.2999   -1.9986    3.1781 O   0  0  0  0  0  0  0  0  0  0  0  0
    6.6518   -1.8615    2.7875 C   0  0  0  0  0  0  0  0  0  0  0  0
   -1.0077   -1.4061   -0.2377 C   0  0  1  0  0  0  0  0  0  0  0  0
   -1.5670   -0.5952   -1.4161 C   0  0  0  0  0  0  0  0  0  0  0  0
   -1.6661   -2.8222   -0.1758 C   0  0  0  0  0  0  0  0  0  0  0  0
   -1.4660   -3.6044    1.1226 C   0  0  0  0  0  0  0  0  0  0  0  0
   -1.2866   -2.9419    2.3485 C   0  0  0  0  0  0  0  0  0  0  0  0
   -0.7807   -3.6193    3.4600 C   0  0  0  0  0  0  0  0  0  0  0  0
   -0.6734   -4.9984    3.4588 C   0  0  0  0  0  0  0  0  0  0  0  0
   -1.0452   -5.7060    2.2972 C   0  0  0  0  0  0  0  0  0  0  0  0
   -1.3285   -4.9988    1.1116 C   0  0  0  0  0  0  0  0  0  0  0  0
   -1.1771   -7.0706    2.1908 O   0  0  0  0  0  0  0  0  0  0  0  0
   -1.3822   -7.7514    3.4296 C   0  0  0  0  0  0  0  0  0  0  0  0
   -0.2045   -5.7092    4.5317 O   0  0  0  0  0  0  0  0  0  0  0  0
    0.1306   -5.0066    5.7170 C   0  0  0  0  0  0  0  0  0  0  0  0
  2 14  1  0
  2  3  1  0
  2  1  1  1
  3  4  1  0
  4  5  2  0
  4  9  1  0
  5  6  1  0
  6  7  2  0
  7  8  1  0
  7 12  1  0
  8  9  2  0
  8 10  1  0
 10 11  1  0
 12 13  1  0
 14 15  1  6
 14 16  1  0
 16 17  1  0
 17 18  2  0
 17 22  1  0
 18 19  1  0
 19 20  2  0
 20 21  1  0
 20 25  1  0
 21 22  2  0
 21 23  1  0
 23 24  1  0
 25 26  1  0
M  END
>  <DRUGBANK_ID>  (1) 
DB12226

>  <COMMON_NAME>  (1) 
Terameprocol

>  <CAS_NUMBER>  (1) 
24150-24-1

>  <UNII>  (1) 
53YET703F2

>  <SYNONYMS>  (1) 
meso-Tetra-O-methylnordihydroguaiaretic acid; meso-Tetramethoxy-4,4'-(2,3-dimethyltetramethylene)dipyrocatechol; Terameprocol

$$$$
