
     RDKit          3D

  5  4  0  0  0  0  0  0  0  0999 V2000
    1.0331   -0.0088   -0.0528 C   0  0  0  0  0  0  0  0  0  0  0  0
   -0.9370    1.0603   -0.4946 O   0  0  0  0  0  0  0  0  0  0  0  0
    0.3921   -0.9731    0.3456 O   0  0  0  0  0  0  0  0  0  0  0  0
    0.5214    1.1677   -0.5390 O   0  0  0  0  0  0  0  0  0  0  0  0
    2.5325    0.0402   -0.0731 C   0  0  0  0  0  0  0  0  0  0  0  0
  1  3  2  0
  1  4  1  0
  1  5  1  0
  2  4  1  0
M  END
>  <DRUGBANK_ID>  (1) 
DB14556

>  <COMMON_NAME>  (1) 
Peracetic acid

>  <CAS_NUMBER>  (1) 
79-21-0

>  <UNII>  (1) 
I6KPI2E1HD

>  <SYNONYMS>  (1) 
Acide peracetique; Acido peroxiacetico; Ethaneperoxic acid; Ethaneperoxoic acid; PAA; Peroxoacetic acid; Peroxyacetic acid

$$$$
