
     RDKit          3D

 33 36  0  0  0  0  0  0  0  0999 V2000
    0.8435   -0.3965    0.1204 C   0  0  0  0  0  0  0  0  0  0  0  0
    0.4320    0.1392    1.3892 N   0  0  0  0  0  0  0  0  0  0  0  0
   -0.2677    1.2858    1.7033 C   0  0  0  0  0  0  0  0  0  0  0  0
   -0.5818    1.4423    2.8707 O   0  0  0  0  0  0  0  0  0  0  0  0
   -0.7239    2.3155    0.6270 C   0  0  0  0  0  0  0  0  0  0  0  0
    0.4114    3.0448    0.0279 N   0  0  0  0  0  0  0  0  0  0  0  0
    0.7666    2.3485   -1.1731 C   0  0  0  0  0  0  0  0  0  0  0  0
    1.9908    2.9125   -1.7300 C   0  0  0  0  0  0  0  0  0  0  0  0
    2.0452    4.3706   -2.0453 C   0  0  0  0  0  0  0  0  0  0  0  0
    1.4241    5.1372   -0.8912 C   0  0  0  0  0  0  0  0  0  0  0  0
    0.1391    4.4375   -0.3722 C   0  0  0  0  0  0  0  0  0  0  0  0
    3.3629    4.8374   -2.4447 O   0  0  0  0  0  0  0  0  0  0  0  0
    4.4168    4.7251   -1.5699 C   0  0  0  0  0  0  0  0  0  0  0  0
    4.9672    5.9555   -1.1997 C   0  0  0  0  0  0  0  0  0  0  0  0
    6.0332    6.0482   -0.2668 C   0  0  0  0  0  0  0  0  0  0  0  0
    6.5205    4.8740    0.3217 C   0  0  0  0  0  0  0  0  0  0  0  0
    6.0001    3.6609   -0.0887 C   0  0  0  0  0  0  0  0  0  0  0  0
    5.0487    3.5608   -1.1142 C   0  0  0  0  0  0  0  0  0  0  0  0
    4.9399    2.2653   -1.5544 O   0  0  0  0  0  0  0  0  0  0  0  0
    4.3200    2.0218   -2.8004 C   0  0  0  0  0  0  0  0  0  0  0  0
    7.5052    4.8557    1.2215 N   0  0  0  0  0  0  0  0  0  0  0  0
    8.0408    6.0349    1.5384 C   0  0  0  0  0  0  0  0  0  0  0  0
    7.6587    7.2211    1.0631 N   0  0  0  0  0  0  0  0  0  0  0  0
    6.6589    7.2359    0.1582 C   0  0  0  0  0  0  0  0  0  0  0  0
    6.2926    8.4844   -0.3993 N   0  0  0  0  0  0  0  0  0  0  0  0
    6.8152    9.7271    0.0167 C   0  0  0  0  0  0  0  0  0  0  0  0
    6.0049   10.6617    0.6809 C   0  0  0  0  0  0  0  0  0  0  0  0
    6.5507   11.8568    1.1662 C   0  0  0  0  0  0  0  0  0  0  0  0
    7.9089   12.1288    0.9904 C   0  0  0  0  0  0  0  0  0  0  0  0
    8.7210   11.2044    0.3347 C   0  0  0  0  0  0  0  0  0  0  0  0
    8.1797   10.0127   -0.1384 C   0  0  0  0  0  0  0  0  0  0  0  0
    8.9605    9.1410   -0.8001 F   0  0  0  0  0  0  0  0  0  0  0  0
   10.3932   11.5504    0.1140 Cl  0  0  0  0  0  0  0  0  0  0  0  0
  1  2  1  0
  2  3  1  0
  3  4  2  0
  3  5  1  0
  5  6  1  0
  6  7  1  0
  6 11  1  0
  7  8  1  0
  8  9  1  0
  9 10  1  0
  9 12  1  0
 10 11  1  0
 12 13  1  0
 13 14  2  0
 13 18  1  0
 14 15  1  0
 15 16  2  0
 15 24  1  0
 16 17  1  0
 16 21  1  0
 17 18  2  0
 18 19  1  0
 19 20  1  0
 21 22  2  0
 22 23  1  0
 23 24  2  0
 24 25  1  0
 25 26  1  0
 26 27  2  0
 26 31  1  0
 27 28  1  0
 28 29  2  0
 29 30  1  0
 30 31  2  0
 30 33  1  0
 31 32  1  0
M  END
>  <DRUGBANK_ID>  (1) 
DB12183

>  <COMMON_NAME>  (1) 
Sapitinib

>  <CAS_NUMBER>  (1) 
848942-61-0

>  <UNII>  (1) 
3499328002

>  <SYNONYMS>  (1) 
Sapitinib

$$$$
