
     RDKit          3D

 41 43  0  0  0  0  0  0  0  0999 V2000
    0.9047   -0.0156   -0.0045 C   0  0  0  0  0  0  0  0  0  0  0  0
    0.3953    1.4058   -0.0756 C   0  0  0  0  0  0  0  0  0  0  0  0
    0.8900    2.0320   -1.2672 O   0  0  0  0  0  0  0  0  0  0  0  0
    0.6961    3.3913   -1.3503 C   0  0  0  0  0  0  0  0  0  0  0  0
    0.1724    4.1666   -0.3174 C   0  0  0  0  0  0  0  0  0  0  0  0
    0.1000    5.5599   -0.4028 C   0  0  0  0  0  0  0  0  0  0  0  0
    0.5002    6.1524   -1.6039 C   0  0  0  0  0  0  0  0  0  0  0  0
    0.9067    5.4025   -2.7060 C   0  0  0  0  0  0  0  0  0  0  0  0
    1.1327    5.9495   -3.9414 O   0  0  0  0  0  0  0  0  0  0  0  0
    0.9118    7.3558   -4.1054 C   0  0  0  0  0  0  0  0  0  0  0  0
   -0.5620    7.7606   -4.0431 C   0  0  0  0  0  0  0  0  0  0  0  0
    1.0508    4.0201   -2.5506 C   0  0  0  0  0  0  0  0  0  0  0  0
    1.5364    3.2634   -3.5869 O   0  0  0  0  0  0  0  0  0  0  0  0
   -0.4706    6.4551    0.7264 C   0  0  0  0  0  0  0  0  0  0  0  0
    0.6140    7.5151    1.0896 C   0  0  0  0  0  0  0  0  0  0  0  0
   -1.7589    7.1442    0.1720 C   0  0  0  0  0  0  0  0  0  0  0  0
   -2.8764    6.3857   -0.2036 C   0  0  0  0  0  0  0  0  0  0  0  0
   -4.0939    6.9545   -0.5719 C   0  0  0  0  0  0  0  0  0  0  0  0
   -5.2068    6.2306   -0.9162 O   0  0  0  0  0  0  0  0  0  0  0  0
   -5.1243    4.7969   -0.8538 C   0  0  0  0  0  0  0  0  0  0  0  0
   -4.1854    4.1774   -1.8862 C   0  0  0  0  0  0  0  0  0  0  0  0
   -4.1992    8.3495   -0.5716 C   0  0  0  0  0  0  0  0  0  0  0  0
   -5.3943    8.9399   -0.8960 O   0  0  0  0  0  0  0  0  0  0  0  0
   -3.0964    9.1454   -0.2423 C   0  0  0  0  0  0  0  0  0  0  0  0
   -3.2586   10.5058   -0.1758 O   0  0  0  0  0  0  0  0  0  0  0  0
   -2.1220   11.2930    0.2058 C   0  0  0  0  0  0  0  0  0  0  0  0
   -1.7411   11.1425    1.6810 C   0  0  0  0  0  0  0  0  0  0  0  0
   -1.8826    8.5215    0.0557 C   0  0  0  0  0  0  0  0  0  0  0  0
   -0.7432    5.6393    2.0298 C   0  0  0  0  0  0  0  0  0  0  0  0
    0.2769    5.0218    2.7450 C   0  0  0  0  0  0  0  0  0  0  0  0
   -0.0008    4.0391    3.7067 C   0  0  0  0  0  0  0  0  0  0  0  0
    0.9506    3.2247    4.2659 O   0  0  0  0  0  0  0  0  0  0  0  0
    2.3175    3.4337    3.8790 C   0  0  0  0  0  0  0  0  0  0  0  0
    2.6317    2.9489    2.4674 C   0  0  0  0  0  0  0  0  0  0  0  0
   -1.3379    3.8014    4.0838 C   0  0  0  0  0  0  0  0  0  0  0  0
   -1.6211    2.8492    5.0305 O   0  0  0  0  0  0  0  0  0  0  0  0
   -2.3723    4.5047    3.4967 C   0  0  0  0  0  0  0  0  0  0  0  0
   -3.6662    4.3512    3.9233 O   0  0  0  0  0  0  0  0  0  0  0  0
   -4.6964    5.1096    3.2621 C   0  0  0  0  0  0  0  0  0  0  0  0
   -4.6276    6.6244    3.4902 C   0  0  0  0  0  0  0  0  0  0  0  0
   -2.0424    5.3650    2.4583 C   0  0  0  0  0  0  0  0  0  0  0  0
  1  2  1  0
  2  3  1  0
  3  4  1  0
  4  5  2  0
  4 12  1  0
  5  6  1  0
  6  7  2  0
  6 14  1  0
  7  8  1  0
  8  9  1  0
  8 12  2  0
  9 10  1  0
 10 11  1  0
 12 13  1  0
 14 15  1  0
 14 16  1  0
 14 29  1  0
 16 17  2  0
 16 28  1  0
 17 18  1  0
 18 19  1  0
 18 22  2  0
 19 20  1  0
 20 21  1  0
 22 23  1  0
 22 24  1  0
 24 25  1  0
 24 28  2  0
 25 26  1  0
 26 27  1  0
 29 30  2  0
 29 41  1  0
 30 31  1  0
 31 32  1  0
 31 35  2  0
 32 33  1  0
 33 34  1  0
 35 36  1  0
 35 37  1  0
 37 38  1  0
 37 41  2  0
 38 39  1  0
 39 40  1  0
M  END
>  <DRUGBANK_ID>  (1) 
DB18058

>  <COMMON_NAME>  (1) 
AGS-499

>  <CAS_NUMBER>  (1) 
1092372-02-5

>  <UNII>  (1) 
UDG33RMP94

>  <SYNONYMS>  (1) 
4,4',4''-(Ethane-1,1,1- triyl)tris(2,6-diethoxyphenol); Phenol, 4,4′,4′′-ethylidynetris[2,6-diethoxy-

$$$$
