Untitled Document-1
     RDKit          3D

 15 15  0  0  0  0  0  0  0  0999 V2000
    0.6201    1.2335   -0.3053 C   0  0  2  0  0  0  0  0  0  0  0  0
    1.4518    0.0213    0.1503 C   0  0  1  0  0  0  0  0  0  0  0  0
    0.7499   -1.2842   -0.2676 C   0  0  1  0  0  0  0  0  0  0  0  0
   -0.6701   -1.3015    0.3565 C   0  0  2  0  0  0  0  0  0  0  0  0
   -1.4354   -0.0286   -0.0936 C   0  0  2  0  0  0  0  0  0  0  0  0
   -0.7162    1.1612    0.2193 O   0  0  0  0  0  0  0  0  0  0  0  0
    0.7039    1.4829   -1.8356 C   0  0  0  0  0  0  0  0  0  0  0  0
    2.7985    0.1001   -0.3105 O   0  0  0  0  0  0  0  0  0  0  0  0
    0.7384   -1.4945   -1.6877 O   0  0  0  0  0  0  0  0  0  0  0  0
   -0.6645   -1.3655    1.8293 N   0  0  0  0  0  0  0  0  0  0  0  0
   -2.7234    0.0365    0.5127 O   0  0  0  0  0  0  0  0  0  0  0  0
    0.2159   -2.1552    2.5283 C   0  0  0  0  0  0  0  0  0  0  0  0
    0.1703   -2.0290    4.0162 C   0  0  0  0  0  0  0  0  0  0  0  0
    1.0249   -2.9028    2.0063 O   0  0  0  0  0  0  0  0  0  0  0  0
   -0.5420    1.4780   -2.5201 O   0  0  0  0  0  0  0  0  0  0  0  0
  1  2  1  0
  1  7  1  6
  2  3  1  0
  2  8  1  6
  3  4  1  0
  3  9  1  6
  4  5  1  0
  4 10  1  1
  5  6  1  0
  5 11  1  1
  6  1  1  0
  7 15  1  0
 10 12  1  0
 12 13  1  0
 12 14  2  0
M  END
>  <DRUGBANK_ID>  (1) 
DB03567

>  <SECONDARY_ACCESSION_NUMBERS>  (1) 
EXPT00365

>  <COMMON_NAME>  (1) 
alpha-N-Acetyl-D-galactosamine

>  <CAS_NUMBER>  (1) 
14215-68-0

>  <UNII>  (1) 
00C01APN10

>  <SYNONYMS>  (1) 
GalNAc-α; N-acetyl-2-deoxy-2-amino-galactose; N-acetyl-alpha-D-galactosamine; N-acetyl-α-D-galactosamine; Tn antigen saccharide; Tn antigen saccharide component; Tn saccharide; Tn saccharide component; α-GalNAc; α-GalpNAc

$$$$
