
     RDKit          3D

 24 24  0  0  0  0  0  0  0  0999 V2000
    3.8990    0.9351   -0.6056 O   0  0  0  0  0  0  0  0  0  0  0  0
    4.7840   -1.6446   -0.7289 O   0  0  0  0  0  0  0  0  0  0  0  0
    1.3522   -2.8906   -0.0123 O   0  0  0  0  0  0  0  0  0  0  0  0
    4.1696    4.4403   -1.5900 O   0  0  0  0  0  0  0  0  0  0  0  0
    5.7117    2.8498   -1.3463 O   0  0  0  0  0  0  0  0  0  0  0  0
   -0.6922   -2.0698    1.4462 O   0  0  0  0  0  0  0  0  0  0  0  0
    2.2035   -5.1036   -0.8936 O   0  0  0  0  0  0  0  0  0  0  0  0
    0.5777   -0.5603    0.3720 N   0  0  0  0  0  0  0  0  0  0  0  0
    0.1988    2.3598    0.5180 N   0  0  0  0  0  0  0  0  0  0  0  0
   -1.8779    2.8052    1.4789 N   0  0  0  0  0  0  0  0  0  0  0  0
   -1.7885    1.6576   -0.4420 N   0  0  0  0  0  0  0  0  0  0  0  0
    2.8596   -0.0954   -0.6602 C   0  0  2  0  0  0  0  0  0  0  0  0
    1.6681    0.3896    0.2172 C   0  0  1  0  0  0  0  0  0  0  0  0
    3.4370   -1.5103   -0.2169 C   0  0  1  0  0  0  0  0  0  0  0  0
    1.0993    1.6834   -0.4049 C   0  0  2  0  0  0  0  0  0  0  0  0
    3.4675    2.2316   -0.8911 C   0  0  0  0  0  0  0  0  0  0  0  0
    2.1802    2.6133   -0.8164 C   0  0  0  0  0  0  0  0  0  0  0  0
    2.5414   -2.6928   -0.7541 C   0  0  1  0  0  0  0  0  0  0  0  0
    4.4416    3.2932   -1.3081 C   0  0  0  0  0  0  0  0  0  0  0  0
    0.1886   -1.2139    1.5129 C   0  0  0  0  0  0  0  0  0  0  0  0
    3.1486   -4.0761   -0.5941 C   0  0  0  0  0  0  0  0  0  0  0  0
   -1.1520    2.2823    0.5542 C   0  0  0  0  0  0  0  0  0  0  0  0
    5.6072   -2.5977   -0.0529 C   0  0  0  0  0  0  0  0  0  0  0  0
    0.9127   -0.8905    2.7859 C   0  0  0  0  0  0  0  0  0  0  0  0
 12  1  1  1
  1 16  1  0
  2 23  1  0
  4 19  2  0
  5 19  1  0
  6 20  2  0
  7 21  1  0
  8 20  1  0
  9 22  1  0
 10 22  2  0
 11 22  1  0
 12 13  1  0
 13  8  1  6
 13 15  1  0
 14 12  1  0
 14  2  1  6
 15 17  1  0
 15  9  1  1
 16 17  2  0
 16 19  1  0
 18 21  1  0
 18 14  1  0
 18  3  1  1
 20 24  1  0
M  END
>  <DRUGBANK_ID>  (1) 
DB12791

>  <COMMON_NAME>  (1) 
Laninamivir

>  <CAS_NUMBER>  (1) 
203120-17-6

>  <UNII>  (1) 
B408IW3GL5

>  <SYNONYMS>  (1) 
Laninamivir; Laninamivirum

$$$$
