
     RDKit          3D

 38 41  0  0  1  0  0  0  0  0999 V2000
    0.9381   -0.2000   -0.6728 C   0  0  0  0  0  0  0  0  0  0  0  0
    0.5743   -1.5629   -1.1669 C   0  0  1  0  0  0  0  0  0  0  0  0
    1.0604   -2.4863   -0.0814 O   0  0  0  0  0  0  0  0  0  0  0  0
    2.4254   -2.6569    0.1911 C   0  0  0  0  0  0  0  0  0  0  0  0
    3.3201   -1.6245    0.4727 C   0  0  0  0  0  0  0  0  0  0  0  0
    4.6527   -1.7504    0.8114 C   0  0  0  0  0  0  0  0  0  0  0  0
    5.1431   -2.9961    0.8605 N   0  0  0  0  0  0  0  0  0  0  0  0
    4.2666   -4.0979    0.6358 N   0  0  0  0  0  0  0  0  0  0  0  0
    2.9444   -3.9310    0.3480 C   0  0  0  0  0  0  0  0  0  0  0  0
    2.1355   -5.0240    0.0761 N   0  0  0  0  0  0  0  0  0  0  0  0
    5.5468   -0.5312    1.0726 C   0  0  0  0  0  0  0  0  0  0  0  0
    6.7626   -0.6950    1.2151 O   0  0  0  0  0  0  0  0  0  0  0  0
    5.0921    0.8157    1.0462 N   0  0  0  0  0  0  0  0  0  0  0  0
    3.8036    1.3988    1.1423 C   0  0  0  0  0  0  0  0  0  0  0  0
    2.8892    0.9277    2.0565 C   0  0  0  0  0  0  0  0  0  0  0  0
    1.5618    1.3628    1.9856 C   0  0  0  0  0  0  0  0  0  0  0  0
    1.0032    2.1822    1.0154 C   0  0  0  0  0  0  0  0  0  0  0  0
    1.9381    2.6209    0.0591 C   0  0  0  0  0  0  0  0  0  0  0  0
    3.3474    2.3495    0.2085 C   0  0  0  0  0  0  0  0  0  0  0  0
   -0.5557    2.1590    0.8856 C   0  0  0  0  0  0  0  0  0  0  0  0
   -1.0768    2.7919   -0.0540 O   0  0  0  0  0  0  0  0  0  0  0  0
   -1.3068    1.2685    1.7231 N   0  0  0  0  0  0  0  0  0  0  0  0
   -1.3497    1.3893    3.1569 C   0  0  0  0  0  0  0  0  0  0  0  0
   -1.3620   -0.0210    3.8464 C   0  0  2  0  0  0  0  0  0  0  0  0
   -0.0122   -0.8003    3.7937 C   0  0  0  0  0  0  0  0  0  0  0  0
   -2.5158   -0.8573    3.4149 N   0  0  0  0  0  0  0  0  0  0  0  0
   -2.5139   -0.9919    1.9616 C   0  0  2  0  0  0  0  0  0  0  0  0
   -1.3180   -1.8328    1.6148 C   0  0  0  0  0  0  0  0  0  0  0  0
   -2.4249    0.4323    1.2744 C   0  0  0  0  0  0  0  0  0  0  0  0
   -1.0079   -1.5698   -1.5227 C   0  0  0  0  0  0  0  0  0  0  0  0
   -1.7924   -2.7277   -1.3063 C   0  0  0  0  0  0  0  0  0  0  0  0
   -1.0820   -4.2857   -1.0190 Cl  0  0  0  0  0  0  0  0  0  0  0  0
   -3.1772   -2.6296   -0.9792 C   0  0  0  0  0  0  0  0  0  0  0  0
   -3.8217   -1.4001   -0.9184 C   0  0  0  0  0  0  0  0  0  0  0  0
   -3.1734   -0.3124   -1.4660 C   0  0  0  0  0  0  0  0  0  0  0  0
   -3.7421    0.8967   -1.2612 F   0  0  0  0  0  0  0  0  0  0  0  0
   -1.7948   -0.4013   -1.8345 C   0  0  0  0  0  0  0  0  0  0  0  0
   -1.1982    1.0388   -2.5974 Cl  0  0  0  0  0  0  0  0  0  0  0  0
  2  1  1  1
  2  3  1  0
  2 30  1  0
  3  4  1  0
  4  5  2  0
  4  9  1  0
  5  6  1  0
  6  7  2  0
  6 11  1  0
  7  8  1  0
  8  9  2  0
  9 10  1  0
 11 12  2  0
 11 13  1  0
 13 14  1  0
 14 15  2  0
 14 19  1  0
 15 16  1  0
 16 17  2  0
 17 18  1  0
 17 20  1  0
 18 19  2  0
 20 21  2  0
 20 22  1  0
 22 23  1  0
 22 29  1  0
 24 23  1  0
 24 25  1  6
 24 26  1  0
 27 26  1  0
 27 28  1  1
 27 29  1  0
 30 31  2  0
 30 37  1  0
 31 32  1  0
 31 33  1  0
 33 34  2  0
 34 35  1  0
 35 36  1  0
 35 37  2  0
 37 38  1  0
M  END
>  <DRUGBANK_ID>  (1) 
DB14860

>  <COMMON_NAME>  (1) 
Ensartinib

>  <CAS_NUMBER>  (1) 
1370651-20-9

>  <UNII>  (1) 
SMA5ZS5B22

>  <SYNONYMS>  (1) 
Ensartinib

$$$$
