PLB
     RDKit          3D

 27 29  0  0  0  0  0  0  0  0999 V2000
   -2.7036    0.9407   -0.0673 Cl  0  0  0  0  0  0  0  0  0  0  0  0
   -1.2217    0.0777   -0.0226 C   0  0  0  0  0  0  0  0  0  0  0  0
    0.0055    0.7346   -0.0354 C   0  0  0  0  0  0  0  0  0  0  0  0
    1.2192    0.0102   -0.0136 C   0  0  0  0  0  0  0  0  0  0  0  0
    2.6543    0.9741   -0.0571 Cl  0  0  0  0  0  0  0  0  0  0  0  0
   -1.2533   -1.2876    0.1258 C   0  0  0  0  0  0  0  0  0  0  0  0
   -0.0518   -1.9567    0.3343 C   0  0  0  0  0  0  0  0  0  0  0  0
    1.2102   -1.3884    0.1049 C   0  0  0  0  0  0  0  0  0  0  0  0
    2.4623   -2.2514    0.0223 C   0  0  0  0  0  0  0  0  0  0  0  0
    3.5800   -1.7370    0.0562 O   0  0  0  0  0  0  0  0  0  0  0  0
    2.4397   -3.6446   -0.0414 N   0  0  0  0  0  0  0  0  0  0  0  0
    1.3605   -4.5372   -0.1602 C   0  0  0  0  0  0  0  0  0  0  0  0
    0.4114   -4.2756   -1.1556 C   0  0  0  0  0  0  0  0  0  0  0  0
   -0.8303   -4.9010   -1.1352 C   0  0  0  0  0  0  0  0  0  0  0  0
   -1.0768   -5.9598   -0.2686 C   0  0  0  0  0  0  0  0  0  0  0  0
   -0.0523   -6.3525    0.6190 C   0  0  0  0  0  0  0  0  0  0  0  0
    1.1490   -5.6040    0.7358 C   0  0  0  0  0  0  0  0  0  0  0  0
    2.0192   -5.8872    1.9304 C   0  0  0  0  0  0  0  0  0  0  0  0
    1.8367   -6.7698    2.7393 O   0  0  0  0  0  0  0  0  0  0  0  0
    3.0406   -5.0153    2.0868 O   0  0  0  0  0  0  0  0  0  0  0  0
   -2.2977   -6.6065   -0.1695 O   0  0  0  0  0  0  0  0  0  0  0  0
   -3.3390   -6.2017   -1.0097 C   0  0  0  0  0  0  0  0  0  0  0  0
   -4.4900   -5.8470   -0.4106 N   0  0  0  0  0  0  0  0  0  0  0  0
   -5.4841   -5.4389   -1.2298 C   0  0  0  0  0  0  0  0  0  0  0  0
   -5.3664   -5.3636   -2.5984 C   0  0  0  0  0  0  0  0  0  0  0  0
   -4.1543   -5.7627   -3.1062 C   0  0  0  0  0  0  0  0  0  0  0  0
   -3.1343   -6.2028   -2.3427 N   0  0  0  0  0  0  0  0  0  0  0  0
  1  2  1  0
  2  3  2  0
  2  6  1  0
  3  4  1  0
  4  5  1  0
  4  8  2  0
  6  7  2  0
  7  8  1  0
  8  9  1  0
  9 10  2  0
  9 11  1  0
 11 12  1  0
 12 13  2  0
 12 17  1  0
 13 14  1  0
 14 15  2  0
 15 16  1  0
 15 21  1  0
 16 17  2  0
 17 18  1  0
 18 19  2  0
 18 20  1  0
 21 22  1  0
 22 23  2  0
 22 27  1  0
 23 24  1  0
 24 25  2  0
 25 26  1  0
 26 27  2  0
M  END
>  <DRUGBANK_ID>  (1) 
DB08402

>  <COMMON_NAME>  (1) 
2-[(2,4-DICHLOROBENZOYL)AMINO]-5-(PYRIMIDIN-2-YLOXY)BENZOIC ACID

$$$$
