
     RDKit          3D

 21 20  0  0  0  0  0  0  0  0999 V2000
   -0.3052   -0.8883   -4.5055 C   0  0  0  0  0  0  0  0  0  0  0  0
   -0.6882   -2.1694   -5.1789 C   0  0  0  0  0  0  0  0  0  0  0  0
    0.4949   -2.8750   -5.8211 C   0  0  1  0  0  0  0  0  0  0  0  0
    1.4424   -3.5175   -4.7949 C   0  0  0  0  0  0  0  0  0  0  0  0
    0.3752   -1.0190   -3.3208 N   0  0  0  0  0  0  0  0  0  0  0  0
   -0.0312   -3.9290   -6.6989 N   0  0  0  0  0  0  0  0  0  0  0  0
    0.2430    0.0478   -1.1668 C   0  0  0  0  0  0  0  0  0  0  0  0
    0.9366    0.0728   -2.5262 C   0  0  2  0  0  0  0  0  0  0  0  0
    0.1848   -4.0985   -8.0327 C   0  0  0  0  0  0  0  0  0  0  0  0
    2.6933    2.6498   -2.1696 C   0  0  0  0  0  0  0  0  0  0  0  0
   -0.6158    0.1702   -5.0397 O   0  0  0  0  0  0  0  0  0  0  0  0
    1.5283   -4.7008   -4.5082 O   0  0  0  0  0  0  0  0  0  0  0  0
   -0.8712    0.4751   -0.9099 O   0  0  0  0  0  0  0  0  0  0  0  0
   -0.2852   -5.0753   -8.6093 O   0  0  0  0  0  0  0  0  0  0  0  0
    3.4776    3.4906   -2.5853 O   0  0  0  0  0  0  0  0  0  0  0  0
    0.7778    1.4339   -3.1971 C   0  0  0  0  0  0  0  0  0  0  0  0
    1.2167    2.6338   -2.3936 C   0  0  0  0  0  0  0  0  0  0  0  0
    2.1820   -2.6139   -4.1143 O   0  0  0  0  0  0  0  0  0  0  0  0
    0.9512   -0.5999   -0.2162 O   0  0  0  0  0  0  0  0  0  0  0  0
    3.1218    1.6101   -1.4320 O   0  0  0  0  0  0  0  0  0  0  0  0
    0.9915   -3.0533   -8.7490 C   0  0  0  0  0  0  0  0  0  0  0  0
  2  1  1  0
  3  2  1  1
  3  6  1  0
  4  3  1  0
  5  1  1  0
  8  5  1  0
  8  7  1  0
  9  6  1  0
 10 17  1  0
 11  1  2  0
 12  4  2  0
 13  7  2  0
 14  9  2  0
 15 10  2  0
  8 16  1  6
 17 16  1  0
 18  4  1  0
 19  7  1  0
 20 10  1  0
 21  9  1  0
M  END
>  <DRUGBANK_ID>  (1) 
DB08835

>  <COMMON_NAME>  (1) 
Spaglumic acid

>  <CAS_NUMBER>  (1) 
4910-46-7

>  <UNII>  (1) 
X81L78B3RB

>  <SYNONYMS>  (1) 
N-Acetyl-L-Î²-aspartyl-L-glutamic acid; Spaglumic acid

$$$$
