
     RDKit          3D

 28 31  0  0  0  0  0  0  0  0999 V2000
    0.9108   -1.4160    0.0023 C   0  0  0  0  0  0  0  0  0  0  0  0
    2.1241   -0.6927   -0.0035 N   0  0  0  0  0  0  0  0  0  0  0  0
    2.1557    0.7092    0.0084 C   0  0  0  0  0  0  0  0  0  0  0  0
    0.8488    1.4225   -0.0077 C   0  0  0  0  0  0  0  0  0  0  0  0
   -0.2804    0.7146   -0.0411 C   0  0  0  0  0  0  0  0  0  0  0  0
   -0.2471   -0.7328    0.0168 C   0  0  0  0  0  0  0  0  0  0  0  0
   -1.5976    1.0839   -0.1179 N   0  0  0  0  0  0  0  0  0  0  0  0
   -2.4220   -0.0102    0.1352 N   0  0  0  0  0  0  0  0  0  0  0  0
   -1.6704   -1.1961    0.0965 C   0  0  0  0  0  0  0  0  0  0  0  0
   -3.8263    0.0271    0.0538 C   0  0  0  0  0  0  0  0  0  0  0  0
   -6.6232   -0.2491   -0.0911 C   0  0  0  0  0  0  0  0  0  0  0  0
   -5.9202   -0.8628    0.9387 C   0  0  0  0  0  0  0  0  0  0  0  0
   -4.5387   -0.6899    1.0319 C   0  0  0  0  0  0  0  0  0  0  0  0
   -4.5453    0.6549   -0.9722 C   0  0  0  0  0  0  0  0  0  0  0  0
   -5.9440    0.5492   -1.0139 C   0  0  0  0  0  0  0  0  0  0  0  0
    0.9167   -2.8980    0.0216 C   0  0  0  0  0  0  0  0  0  0  0  0
    1.4967   -3.5796    1.0907 C   0  0  0  0  0  0  0  0  0  0  0  0
    1.5131   -4.9643    1.1045 C   0  0  0  0  0  0  0  0  0  0  0  0
    1.0213   -5.6792    0.0117 C   0  0  0  0  0  0  0  0  0  0  0  0
    0.4277   -5.0556   -1.0954 C   0  0  0  0  0  0  0  0  0  0  0  0
    0.3401   -3.6499   -1.0246 C   0  0  0  0  0  0  0  0  0  0  0  0
   -0.0444   -5.7724   -2.1874 N   0  0  0  0  0  0  0  0  0  0  0  0
    0.1292   -7.2127   -2.3399 C   0  0  0  0  0  0  0  0  0  0  0  0
   -0.6617   -5.0799   -3.3159 C   0  0  0  0  0  0  0  0  0  0  0  0
    3.4163   -1.3779   -0.0384 C   0  0  0  0  0  0  0  0  0  0  0  0
    3.1817    1.3869    0.0190 O   0  0  0  0  0  0  0  0  0  0  0  0
   -2.0770   -2.3511    0.0910 O   0  0  0  0  0  0  0  0  0  0  0  0
   -3.7762    1.4330   -2.3112 Cl  0  0  0  0  0  0  0  0  0  0  0  0
  1  2  1  0
  1  6  2  0
  1 16  1  0
  2  3  1  0
  2 25  1  0
  3  4  1  0
  3 26  2  0
  4  5  2  0
  5  7  1  0
  6  5  1  0
  6  9  1  0
  7  8  1  0
  8  9  1  0
  8 10  1  0
  9 27  2  0
 10 14  1  0
 11 12  2  0
 11 15  1  0
 12 13  1  0
 13 10  2  0
 14 15  2  0
 14 28  1  0
 16 17  2  0
 16 21  1  0
 17 18  1  0
 18 19  2  0
 19 20  1  0
 20 21  2  0
 20 22  1  0
 22 23  1  0
 22 24  1  0
M  END
>  <DRUGBANK_ID>  (1) 
DB16869

>  <COMMON_NAME>  (1) 
Setanaxib

>  <CAS_NUMBER>  (1) 
1218942-37-0

>  <UNII>  (1) 
45II35329V

>  <SYNONYMS>  (1) 
2-(2-chlorophenyl)-4-[3-(dimethylamino)phenyl]-5-methyl-1H-pyrazolo[4,3-C]pyridine-3,6(2H,5H)-dione; Setanaxib

$$$$
