
     RDKit          3D

 27 30  0  0  1  0  0  0  0  0999 V2000
    0.8339    0.1472   -0.0987 F   0  0  0  0  0  0  0  0  0  0  0  0
    2.1713    0.0586   -0.1149 C   0  0  0  0  0  0  0  0  0  0  0  0
    2.7891   -1.1814   -0.1142 C   0  0  0  0  0  0  0  0  0  0  0  0
    4.2132   -1.1589   -0.1582 C   0  0  0  0  0  0  0  0  0  0  0  0
    4.8167   -2.6739   -0.5495 Cl  0  0  0  0  0  0  0  0  0  0  0  0
    5.0524   -0.0282   -0.1001 C   0  0  0  0  0  0  0  0  0  0  0  0
    4.3415    1.1905   -0.0825 C   0  0  0  0  0  0  0  0  0  0  0  0
    2.9265    1.2326   -0.1005 C   0  0  0  0  0  0  0  0  0  0  0  0
    5.0618    2.4888   -0.0792 C   0  0  0  0  0  0  0  0  0  0  0  0
    4.4176    3.5322   -0.0728 O   0  0  0  0  0  0  0  0  0  0  0  0
    6.5411    2.4743   -0.0940 C   0  0  0  0  0  0  0  0  0  0  0  0
    7.3187    3.7339   -0.0865 C   0  0  0  0  0  0  0  0  0  0  0  0
    6.8725    4.8769   -0.0776 O   0  0  0  0  0  0  0  0  0  0  0  0
    8.6543    3.5647   -0.0798 O   0  0  0  0  0  0  0  0  0  0  0  0
    7.1170    1.2589   -0.1065 C   0  0  0  0  0  0  0  0  0  0  0  0
    6.4983   -0.0063   -0.0841 N   0  0  0  0  0  0  0  0  0  0  0  0
    7.5140   -1.1480   -0.0612 C   0  0  0  0  0  0  0  0  0  0  0  0
    7.5519   -2.2019   -1.1522 C   0  0  0  0  0  0  0  0  0  0  0  0
    7.5209   -2.6073    0.3074 C   0  0  0  0  0  0  0  0  0  0  0  0
    2.1033   -2.4072   -0.0342 N   0  0  0  0  0  0  0  0  0  0  0  0
    1.2302   -2.9097   -1.0978 C   0  0  0  0  0  0  0  0  0  0  0  0
    1.7912   -4.1728   -1.7798 C   0  0  0  0  0  0  0  0  0  0  0  0
    1.4305   -5.4953   -1.0718 C   0  0  0  0  0  0  0  0  0  0  0  0
    1.4744   -5.4741    0.4635 C   0  0  0  0  0  0  0  0  0  0  0  0
    2.6591   -4.7045    1.0358 C   0  0  1  0  0  0  0  0  0  0  0  0
    3.8184   -5.0515    0.2310 N   0  0  0  0  0  0  0  0  0  0  0  0
    2.2668   -3.1869    1.2068 C   0  0  0  0  0  0  0  0  0  0  0  0
  1  2  1  0
  2  3  2  0
  2  8  1  0
  3  4  1  0
  3 20  1  0
  4  5  1  0
  4  6  2  0
  6  7  1  0
  6 16  1  0
  7  8  2  0
  7  9  1  0
  9 10  2  0
  9 11  1  0
 11 12  1  0
 11 15  2  0
 12 13  2  0
 12 14  1  0
 15 16  1  0
 16 17  1  0
 17 18  1  0
 17 19  1  0
 18 19  1  0
 20 21  1  0
 20 27  1  0
 21 22  1  0
 22 23  1  0
 23 24  1  0
 24 25  1  0
 25 27  1  0
 25 26  1  6
M  END
>  <DRUGBANK_ID>  (1) 
DB06771

>  <SECONDARY_ACCESSION_NUMBERS>  (1) 
DB05862

>  <COMMON_NAME>  (1) 
Besifloxacin

>  <CAS_NUMBER>  (1) 
141388-76-3

>  <UNII>  (1) 
BFE2NBZ7NX

>  <SYNONYMS>  (1) 
Besifloxacin

$$$$
