
     RDKit          3D

 10 10  0  0  0  0  0  0  0  0999 V2000
   -0.7425   -1.4020   -0.0099 C   0  0  0  0  0  0  0  0  0  0  0  0
    0.4672   -0.7066   -0.0012 C   0  0  0  0  0  0  0  0  0  0  0  0
    0.4798    0.6889    0.0063 C   0  0  0  0  0  0  0  0  0  0  0  0
   -0.7051    1.4102    0.0159 C   0  0  0  0  0  0  0  0  0  0  0  0
   -1.9405   -0.6717   -0.0125 C   0  0  0  0  0  0  0  0  0  0  0  0
   -1.9216    0.7289    0.0050 C   0  0  0  0  0  0  0  0  0  0  0  0
   -4.3091   -0.7677   -0.0466 O   0  0  0  0  0  0  0  0  0  0  0  0
    1.6760   -1.3481   -0.0014 O   0  0  0  0  0  0  0  0  0  0  0  0
    1.6571    1.3809    0.0008 O   0  0  0  0  0  0  0  0  0  0  0  0
   -3.2422   -1.3741   -0.0395 C   0  0  0  0  0  0  0  0  0  0  0  0
  1  2  2  0
  3  2  1  0
  4  3  2  0
  5  1  1  0
  6  5  2  0
  6  4  1  0
  8  2  1  0
  9  3  1  0
 10  5  1  0
 10  7  2  0
M  END
>  <DRUGBANK_ID>  (1) 
DB11268

>  <COMMON_NAME>  (1) 
Protocatechualdehyde

>  <CAS_NUMBER>  (1) 
139-85-5

>  <UNII>  (1) 
4PVP2HCH4T

>  <SYNONYMS>  (1) 
3,4-dihydroxybenzaldehyde; Protocatechuic aldehyde; Rancinamycin IV

$$$$
