
     RDKit          3D

 16 16  0  0  0  0  0  0  0  0999 V2000
    1.3940   -0.2081   -0.0286 C   0  0  0  0  0  0  0  0  0  0  0  0
    0.5019   -1.2764   -0.1096 C   0  0  0  0  0  0  0  0  0  0  0  0
   -0.8682   -1.0085   -0.2372 C   0  0  0  0  0  0  0  0  0  0  0  0
   -1.3627    0.2757   -0.0905 C   0  0  0  0  0  0  0  0  0  0  0  0
   -0.4724    1.3317    0.0749 C   0  0  0  0  0  0  0  0  0  0  0  0
    0.9088    1.0927    0.0023 C   0  0  0  0  0  0  0  0  0  0  0  0
    1.0056   -2.6941   -0.0635 C   0  0  0  0  0  0  0  0  0  0  0  0
    0.5418   -3.4914    1.1772 C   0  0  0  0  0  0  0  0  0  0  0  0
   -0.9789   -3.6232    1.2923 C   0  0  0  0  0  0  0  0  0  0  0  0
    1.1327   -4.8982    1.1162 C   0  0  0  0  0  0  0  0  0  0  0  0
   -1.0027    2.7097    0.3890 C   0  0  0  0  0  0  0  0  0  0  0  0
   -0.4651    3.1805    1.7506 C   0  0  0  0  0  0  0  0  0  0  0  0
    0.2883    4.3230    1.7435 N   0  0  0  0  0  0  0  0  0  0  0  0
   -0.6651    2.5635    2.8051 O   0  0  0  0  0  0  0  0  0  0  0  0
   -0.7048    3.6299   -0.7892 C   0  0  0  0  0  0  0  0  0  0  0  0
    0.8363    4.7536    2.9687 O   0  0  0  0  0  0  0  0  0  0  0  0
  1  2  2  0
  1  6  1  0
  2  3  1  0
  2  7  1  0
  3  4  2  0
  4  5  1  0
  5  6  2  0
  5 11  1  0
  7  8  1  0
  8  9  1  0
  8 10  1  0
 11 12  1  0
 11 15  1  0
 12 13  1  0
 12 14  2  0
 13 16  1  0
M  END
>  <DRUGBANK_ID>  (1) 
DB08955

>  <COMMON_NAME>  (1) 
Ibuproxam

>  <CAS_NUMBER>  (1) 
53648-05-8

>  <UNII>  (1) 
O3LD16O96Z

>  <SYNONYMS>  (1) 
Ibuproxam; Ibuproxamum; p-Isobutylhydratropohydroxamic acid

$$$$
