
     RDKit          3D

 25 26  0  0  0  0  0  0  0  0999 V2000
    1.6720    0.2669   -1.2736 C   0  0  0  0  0  0  0  0  0  0  0  0
    0.8246    1.3040    1.4779 C   0  0  0  0  0  0  0  0  0  0  0  0
   -0.4069    1.3701    0.6605 C   0  0  0  0  0  0  0  0  0  0  0  0
    1.3503    0.1396    1.9353 C   0  0  0  0  0  0  0  0  0  0  0  0
   -0.2124   -3.5617    2.7387 C   0  0  0  0  0  0  0  0  0  0  0  0
    0.0062   -2.9363    1.5690 C   0  0  0  0  0  0  0  0  0  0  0  0
   -1.2799    0.3076    0.3258 C   0  0  0  0  0  0  0  0  0  0  0  0
    0.7774   -0.8540    1.2065 C   0  0  0  0  0  0  0  0  0  0  0  0
    0.0326   -4.8236    2.4565 C   0  0  0  0  0  0  0  0  0  0  0  0
   -1.4180   -1.2592   -3.1795 C   0  0  0  0  0  0  0  0  0  0  0  0
   -1.2200   -2.7185   -2.8880 C   0  0  0  0  0  0  0  0  0  0  0  0
    1.2441   -2.2603   -1.2508 C   0  0  0  0  0  0  0  0  0  0  0  0
    0.8323   -4.5232   -0.0549 C   0  0  0  0  0  0  0  0  0  0  0  0
    0.8417   -0.7978   -2.0207 C   0  0  0  0  0  0  0  0  0  0  0  0
    0.6537   -3.2155    0.0930 C   0  0  0  0  0  0  0  0  0  0  0  0
   -0.6899   -0.9043    0.4294 C   0  0  0  0  0  0  0  0  0  0  0  0
    0.5592   -5.2476    1.1346 C   0  0  0  0  0  0  0  0  0  0  0  0
   -1.6762   -2.3430   -0.1887 C   0  0  0  0  0  0  0  0  0  0  0  0
    1.0621   -6.6173    1.1738 C   0  0  0  0  0  0  0  0  0  0  0  0
    2.0355   -6.6901    2.1163 F   0  0  0  0  0  0  0  0  0  0  0  0
    0.0788   -7.4751    1.5061 F   0  0  0  0  0  0  0  0  0  0  0  0
    1.6092   -7.0171    0.0036 F   0  0  0  0  0  0  0  0  0  0  0  0
   -0.6054   -0.4889   -2.2457 N   0  0  0  0  0  0  0  0  0  0  0  0
   -2.3834   -2.9429    0.5750 O   0  0  0  0  0  0  0  0  0  0  0  0
   -1.6257   -2.9525   -1.4700 O   0  0  0  0  0  0  0  0  0  0  0  0
  3  2  2  0
  4  2  1  0
  6  5  2  0
  7  3  1  0
  8  4  2  0
  9  5  1  0
 11 10  1  0
 14  1  1  0
 14 12  1  0
 15  6  1  0
 15 12  1  0
 15 13  2  0
 16  7  2  0
 16  8  1  0
 17  9  2  0
 17 13  1  0
 18 16  1  0
 19 17  1  0
 20 19  1  0
 21 19  1  0
 22 19  1  0
 23 10  1  0
 23 14  1  0
 24 18  2  0
 25 11  1  0
 25 18  1  0
M  END
>  <DRUGBANK_ID>  (1) 
DB09022

>  <COMMON_NAME>  (1) 
Benfluorex

>  <CAS_NUMBER>  (1) 
23602-78-0

>  <UNII>  (1) 
403FO0NQG3

>  <SYNONYMS>  (1) 
Benfluorex; Benfluorexum

$$$$
