
     RDKit          3D

 27 30  0  0  0  0  0  0  0  0999 V2000
    2.2814    0.8535    0.7024 F   0  0  0  0  0  0  0  0  0  0  0  0
   -2.4063    0.8189    0.6343 F   0  0  0  0  0  0  0  0  0  0  0  0
   -2.4775   -2.5165   -3.8099 O   0  0  0  0  0  0  0  0  0  0  0  0
    2.2056    0.3683   -2.0659 O   0  0  0  0  0  0  0  0  0  0  0  0
   -1.1977   -5.9760   -1.9273 N   0  0  0  0  0  0  0  0  0  0  0  0
    0.0363   -6.2141    0.0795 N   0  0  0  0  0  0  0  0  0  0  0  0
   -0.6112   -4.0417   -0.9237 C   0  0  0  0  0  0  0  0  0  0  0  0
   -1.3172   -3.7425   -2.1613 C   0  0  0  0  0  0  0  0  0  0  0  0
   -0.0119   -3.3668    0.1841 C   0  0  0  0  0  0  0  0  0  0  0  0
   -0.5406   -5.4423   -0.8599 C   0  0  0  0  0  0  0  0  0  0  0  0
   -1.6774   -4.9730   -2.7123 C   0  0  0  0  0  0  0  0  0  0  0  0
   -0.0520   -1.9286    0.4366 C   0  0  0  0  0  0  0  0  0  0  0  0
   -1.7030   -2.5072   -2.8680 C   0  0  0  0  0  0  0  0  0  0  0  0
    0.6260   -4.1479    1.1622 C   0  0  0  0  0  0  0  0  0  0  0  0
   -1.1020   -1.1981   -2.5576 C   0  0  0  0  0  0  0  0  0  0  0  0
    0.6133   -5.5199    1.0704 C   0  0  0  0  0  0  0  0  0  0  0  0
   -1.2575   -1.2320    0.5321 C   0  0  0  0  0  0  0  0  0  0  0  0
    1.1427   -1.2101    0.6361 C   0  0  0  0  0  0  0  0  0  0  0  0
    0.2874   -1.0708   -2.5285 C   0  0  0  0  0  0  0  0  0  0  0  0
   -1.9306   -0.0889   -2.3294 C   0  0  0  0  0  0  0  0  0  0  0  0
    1.1307    0.1719    0.8038 C   0  0  0  0  0  0  0  0  0  0  0  0
   -1.2528    0.1460    0.7540 C   0  0  0  0  0  0  0  0  0  0  0  0
    0.8677    0.1721   -2.2933 C   0  0  0  0  0  0  0  0  0  0  0  0
   -0.0663    0.8606    0.8702 C   0  0  0  0  0  0  0  0  0  0  0  0
   -1.3544    1.1657   -2.1180 C   0  0  0  0  0  0  0  0  0  0  0  0
    0.0415    1.2944   -2.1162 C   0  0  0  0  0  0  0  0  0  0  0  0
    3.0593   -0.7758   -2.0989 C   0  0  0  0  0  0  0  0  0  0  0  0
  1 21  1  0
  2 22  1  0
  3 13  2  0
  4 23  1  0
  4 27  1  0
  5 10  1  0
  5 11  1  0
  6 10  2  0
  6 16  1  0
  7  8  1  0
  7  9  2  0
  7 10  1  0
  8 11  2  0
  8 13  1  0
  9 12  1  0
  9 14  1  0
 12 17  2  0
 12 18  1  0
 13 15  1  0
 14 16  2  0
 15 19  2  0
 15 20  1  0
 17 22  1  0
 18 21  2  0
 19 23  1  0
 20 25  2  0
 21 24  1  0
 22 24  2  0
 23 26  2  0
 25 26  1  0
M  END
>  <DRUGBANK_ID>  (1) 
DB07840

>  <COMMON_NAME>  (1) 
(E)-[4-(3,5-Difluorophenyl)-3H-pyrrolo[2,3-b]pyridin-3-ylidene](3-methoxyphenyl)methanol

$$$$
