344
     RDKit          3D

 15 17  0  0  0  0  0  0  0  0999 V2000
    2.8343   -1.0507   -0.1188 N   0  0  0  0  0  0  0  0  0  0  0  0
    3.5098    0.0803   -0.1737 C   0  0  0  0  0  0  0  0  0  0  0  0
    2.6929    1.1565    0.0098 N   0  0  0  0  0  0  0  0  0  0  0  0
    1.4136    0.6912    0.1407 C   0  0  0  0  0  0  0  0  0  0  0  0
    0.2170    1.3748    0.3001 C   0  0  0  0  0  0  0  0  0  0  0  0
   -0.9620    0.6456    0.1781 C   0  0  0  0  0  0  0  0  0  0  0  0
   -2.1441    1.3963    0.1025 N   0  0  0  0  0  0  0  0  0  0  0  0
   -3.2615    0.7821   -0.0930 C   0  0  0  0  0  0  0  0  0  0  0  0
   -4.4028    1.4955   -0.2149 N   0  0  0  0  0  0  0  0  0  0  0  0
   -3.3274   -0.5776   -0.1808 N   0  0  0  0  0  0  0  0  0  0  0  0
   -2.2309   -1.4134   -0.0802 C   0  0  0  0  0  0  0  0  0  0  0  0
   -2.3491   -2.6361   -0.1437 O   0  0  0  0  0  0  0  0  0  0  0  0
   -0.9146   -0.7496    0.0826 C   0  0  0  0  0  0  0  0  0  0  0  0
    0.3181   -1.4533    0.0925 C   0  0  0  0  0  0  0  0  0  0  0  0
    1.5077   -0.6906    0.0407 C   0  0  0  0  0  0  0  0  0  0  0  0
  1  2  2  0
  1 15  1  0
  2  3  1  0
  3  4  1  0
  4  5  1  0
  4 15  2  0
  5  6  2  0
  6  7  1  0
  6 13  1  0
  7  8  2  0
  8  9  1  0
  8 10  1  0
 10 11  1  0
 11 12  2  0
 11 13  1  0
 13 14  2  0
 14 15  1  0
M  END
>  <DRUGBANK_ID>  (1) 
DB07012

>  <COMMON_NAME>  (1) 
6-AMINO-3,7-DIHYDRO-IMIDAZO[4,5-G]QUINAZOLIN-8-ONE

$$$$
