
     RDKit          3D

 25 27  0  0  0  0  0  0  0  0999 V2000
   -2.0703    0.2508    0.3057 C   0  0  0  0  0  0  0  0  0  0  0  0
   -0.6521    0.0052    0.2090 N   0  0  0  0  0  0  0  0  0  0  0  0
    0.0702   -1.1719    0.0788 C   0  0  0  0  0  0  0  0  0  0  0  0
    1.3913   -0.7326   -0.0082 C   0  0  0  0  0  0  0  0  0  0  0  0
    1.3473    0.6663   -0.0061 C   0  0  0  0  0  0  0  0  0  0  0  0
    0.1039    1.1185    0.0928 N   0  0  0  0  0  0  0  0  0  0  0  0
   -0.3461   -2.5782    0.0856 C   0  0  0  0  0  0  0  0  0  0  0  0
    0.4842   -3.4861    0.2312 O   0  0  0  0  0  0  0  0  0  0  0  0
   -1.6692   -2.9486   -0.0038 N   0  0  0  0  0  0  0  0  0  0  0  0
   -2.6261   -2.5142   -0.9320 C   0  0  0  0  0  0  0  0  0  0  0  0
   -2.2664   -1.6229   -1.9243 C   0  0  0  0  0  0  0  0  0  0  0  0
   -3.2622   -0.8417   -2.4806 C   0  0  0  0  0  0  0  0  0  0  0  0
   -4.6088   -1.0873   -2.1979 C   0  0  0  0  0  0  0  0  0  0  0  0
   -4.8897   -2.1600   -1.3357 C   0  0  0  0  0  0  0  0  0  0  0  0
   -3.9163   -2.8460   -0.6805 N   0  0  0  0  0  0  0  0  0  0  0  0
   -6.2133   -2.4637   -1.0056 N   0  0  0  0  0  0  0  0  0  0  0  0
   -5.6378   -0.2759   -2.8761 C   0  0  0  0  0  0  0  0  0  0  0  0
   -6.6141    0.4349   -2.1402 C   0  0  0  0  0  0  0  0  0  0  0  0
   -7.6000    1.1982   -2.7821 C   0  0  0  0  0  0  0  0  0  0  0  0
   -7.5988    1.2789   -4.1728 C   0  0  0  0  0  0  0  0  0  0  0  0
   -6.6431    0.5942   -4.9175 C   0  0  0  0  0  0  0  0  0  0  0  0
   -5.6814   -0.1851   -4.2823 C   0  0  0  0  0  0  0  0  0  0  0  0
   -4.5945   -1.0537   -5.3198 Cl  0  0  0  0  0  0  0  0  0  0  0  0
   -8.5114    1.8129   -1.9651 O   0  0  0  0  0  0  0  0  0  0  0  0
   -9.5199    2.5865   -2.6146 C   0  0  0  0  0  0  0  0  0  0  0  0
  1  2  1  0
  2  3  1  0
  2  6  1  0
  3  4  2  0
  3  7  1  0
  4  5  1  0
  5  6  2  0
  7  8  2  0
  7  9  1  0
  9 10  1  0
 10 11  2  0
 10 15  1  0
 11 12  1  0
 12 13  2  0
 13 14  1  0
 13 17  1  0
 14 15  2  0
 14 16  1  0
 17 18  2  0
 17 22  1  0
 18 19  1  0
 19 20  2  0
 19 24  1  0
 20 21  1  0
 21 22  2  0
 22 23  1  0
 24 25  1  0
M  END
>  <DRUGBANK_ID>  (1) 
DB12468

>  <COMMON_NAME>  (1) 
Pf-04531083

>  <CAS_NUMBER>  (1) 
1079400-07-9

>  <UNII>  (1) 
40497CY7Y3

$$$$
