3UN
     RDKit          3D

 33 33  0  0  0  0  0  0  0  0999 V2000
    0.9327    0.0685   -0.1342 N   0  0  0  0  0  0  0  0  0  0  0  0
   -4.9189    1.3425    4.6322 O   0  0  0  0  0  0  0  0  0  0  0  0
   -4.1048    1.7105    3.7933 C   0  0  0  0  0  0  0  0  0  0  0  0
   -3.8583    1.0290    2.6440 O   0  0  0  0  0  0  0  0  0  0  0  0
   -4.3687   -0.3218    2.4858 C   0  0  0  0  0  0  0  0  0  0  0  0
   -4.1407   -1.2791    3.6658 C   0  0  0  0  0  0  0  0  0  0  0  0
   -3.1483    2.9257    3.9833 C   0  0  0  0  0  0  0  0  0  0  0  0
   -3.8072    3.6946    5.2278 C   0  0  0  0  0  0  0  0  0  0  0  0
   -3.2891    5.0717    5.6513 C   0  0  0  0  0  0  0  0  0  0  0  0
   -3.3304    6.0288    4.5666 N   0  0  0  0  0  0  0  0  0  0  0  0
   -3.9247    7.2268    4.5181 C   0  0  0  0  0  0  0  0  0  0  0  0
   -3.9222    7.8592    3.4569 O   0  0  0  0  0  0  0  0  0  0  0  0
   -4.4379    7.6094    5.6970 O   0  0  0  0  0  0  0  0  0  0  0  0
   -5.0704    8.8977    5.7723 C   0  0  0  0  0  0  0  0  0  0  0  0
   -4.0722   10.0126    5.4465 C   0  0  0  0  0  0  0  0  0  0  0  0
   -6.3022    8.9408    4.8657 C   0  0  0  0  0  0  0  0  0  0  0  0
   -5.5271    9.0659    7.2272 C   0  0  0  0  0  0  0  0  0  0  0  0
   -3.4113    3.8696    2.7596 C   0  0  0  0  0  0  0  0  0  0  0  0
   -2.4883    4.7984    2.3454 O   0  0  0  0  0  0  0  0  0  0  0  0
   -1.0983    4.5407    2.4781 C   0  0  0  0  0  0  0  0  0  0  0  0
   -0.5722    5.0064    3.8282 C   0  0  0  0  0  0  0  0  0  0  0  0
   -4.5568    4.0001    2.3193 O   0  0  0  0  0  0  0  0  0  0  0  0
   -1.7082    2.2997    4.4153 C   0  0  0  0  0  0  0  0  0  0  0  0
   -0.7821    1.6164    3.3932 C   0  0  0  0  0  0  0  0  0  0  0  0
    0.4004    2.1438    2.8307 C   0  0  0  0  0  0  0  0  0  0  0  0
    0.8674    1.7018    1.5906 C   0  0  0  0  0  0  0  0  0  0  0  0
   -1.1970    0.4182    2.8701 C   0  0  0  0  0  0  0  0  0  0  0  0
   -0.6405   -0.1407    1.7320 C   0  0  0  0  0  0  0  0  0  0  0  0
    0.3343    0.5511    1.0401 C   0  0  0  0  0  0  0  0  0  0  0  0
    0.1080   -0.7210   -1.3299 S   0  0  0  0  0  0  0  0  0  0  0  0
    0.3799   -0.0124   -2.5567 O   0  0  0  0  0  0  0  0  0  0  0  0
    0.3818   -2.1330   -1.2114 O   0  0  0  0  0  0  0  0  0  0  0  0
   -1.4588   -0.5309   -1.0278 O   0  0  0  0  0  0  0  0  0  0  0  0
  1 29  1  0
  1 30  1  0
  2  3  2  0
  3  4  1  0
  3  7  1  0
  4  5  1  0
  5  6  1  0
  7  8  1  0
  7 18  1  0
  7 23  1  0
  8  9  1  0
  9 10  1  0
 10 11  1  0
 11 12  2  0
 11 13  1  0
 13 14  1  0
 14 15  1  0
 14 16  1  0
 14 17  1  0
 18 19  1  0
 18 22  2  0
 19 20  1  0
 20 21  1  0
 23 24  1  0
 24 25  2  0
 24 27  1  0
 25 26  1  0
 26 29  2  0
 27 28  2  0
 28 29  1  0
 30 31  2  0
 30 32  2  0
 30 33  1  0
M  END
>  <DRUGBANK_ID>  (1) 
DB07068

>  <COMMON_NAME>  (1) 
(4-{4-[(TERT-BUTOXYCARBONYL)AMINO]-2,2-BIS(ETHOXYCARBONYL)BUTYL}PHENYL)SULFAMIC ACID

$$$$
