
     RDKit          3D

 25 27  0  0  1  0  0  0  0  0999 V2000
    0.9434    0.1200    0.0035 C   0  0  0  0  0  0  0  0  0  0  0  0
    0.4477   -0.3667   -1.3574 C   0  0  0  0  0  0  0  0  0  0  0  0
    0.9344   -1.7841   -1.7203 C   0  0  1  0  0  0  0  0  0  0  0  0
    0.4306   -2.7957   -0.6842 C   0  0  0  0  0  0  0  0  0  0  0  0
    0.4967   -2.1062   -3.0972 N   0  0  0  0  0  0  0  0  0  0  0  0
    1.3886   -2.4374   -4.1159 C   0  0  0  0  0  0  0  0  0  0  0  0
    2.4408   -3.1705   -3.8005 N   0  0  0  0  0  0  0  0  0  0  0  0
    3.3400   -3.5349   -4.7735 C   0  0  0  0  0  0  0  0  0  0  0  0
    3.2718   -3.1728   -6.0190 N   0  0  0  0  0  0  0  0  0  0  0  0
    2.2327   -2.4007   -6.3749 C   0  0  0  0  0  0  0  0  0  0  0  0
    1.2458   -2.0236   -5.4986 N   0  0  0  0  0  0  0  0  0  0  0  0
    0.2837   -1.2178   -6.1190 N   0  0  0  0  0  0  0  0  0  0  0  0
    0.7246   -1.1278   -7.4111 C   0  0  0  0  0  0  0  0  0  0  0  0
    1.9316   -1.8361   -7.5828 C   0  0  0  0  0  0  0  0  0  0  0  0
    2.7803   -2.0072   -8.7287 C   0  0  0  0  0  0  0  0  0  0  0  0
    2.9836   -3.3040   -9.1962 C   0  0  0  0  0  0  0  0  0  0  0  0
    3.8016   -3.5123  -10.2883 C   0  0  0  0  0  0  0  0  0  0  0  0
    4.3857   -2.4127  -10.8997 C   0  0  0  0  0  0  0  0  0  0  0  0
    4.1929   -1.1410  -10.4683 N   0  0  0  0  0  0  0  0  0  0  0  0
    3.4067   -0.9408   -9.3787 C   0  0  0  0  0  0  0  0  0  0  0  0
    3.2368    0.4902   -8.9338 C   0  0  0  0  0  0  0  0  0  0  0  0
    5.2072   -2.4969  -11.9909 O   0  0  0  0  0  0  0  0  0  0  0  0
    5.4664   -3.8087  -12.4746 C   0  0  0  0  0  0  0  0  0  0  0  0
    0.1039   -0.3706   -8.5730 C   0  0  0  0  0  0  0  0  0  0  0  0
    4.5023   -4.4176   -4.4084 C   0  0  0  0  0  0  0  0  0  0  0  0
  1  2  1  0
  2  3  1  0
  3  4  1  1
  3  5  1  0
  5  6  1  0
  6  7  2  0
  6 11  1  0
  7  8  1  0
  8  9  2  0
  8 25  1  0
  9 10  1  0
 10 11  1  0
 10 14  2  0
 11 12  1  0
 12 13  2  0
 13 14  1  0
 13 24  1  0
 14 15  1  0
 15 16  2  0
 15 20  1  0
 16 17  1  0
 17 18  2  0
 18 19  1  0
 18 22  1  0
 19 20  2  0
 20 21  1  0
 22 23  1  0
M  END
>  <DRUGBANK_ID>  (1) 
DB12572

>  <COMMON_NAME>  (1) 
Pexacerfont

>  <CAS_NUMBER>  (1) 
459856-18-9

>  <UNII>  (1) 
LF1VBG4ZUK

>  <SYNONYMS>  (1) 
Pexacerfont

$$$$
