1121
     RDKit          3D

 13 13  0  0  0  0  0  0  0  0999 V2000
    1.0272    0.3905    0.1461 O   0  0  0  0  0  0  0  0  0  0  0  0
    4.9189    1.4001    2.0343 O   0  0  0  0  0  0  0  0  0  0  0  0
    3.1297    0.6627    0.8865 N   0  0  0  0  0  0  0  0  0  0  0  0
    5.3507    0.2642    0.1791 N   0  0  0  0  0  0  0  0  0  0  0  0
    2.7093   -0.6489   -1.2219 C   0  0  0  0  0  0  0  0  0  0  0  0
    2.4566   -2.1292   -1.0978 C   0  0  0  0  0  0  0  0  0  0  0  0
    3.4002   -3.0534   -1.5783 C   0  0  0  0  0  0  0  0  0  0  0  0
    1.2854   -2.6087   -0.5023 C   0  0  0  0  0  0  0  0  0  0  0  0
    2.2284    0.1647   -0.0374 C   0  0  0  0  0  0  0  0  0  0  0  0
    3.1743   -4.4240   -1.4473 C   0  0  0  0  0  0  0  0  0  0  0  0
    1.0952   -3.9717   -0.3100 C   0  0  0  0  0  0  0  0  0  0  0  0
    2.0211   -4.8802   -0.8122 C   0  0  0  0  0  0  0  0  0  0  0  0
    4.4801    0.7712    1.0648 C   0  0  0  0  0  0  0  0  0  0  0  0
  1  9  2  0
  2 13  2  0
  3  9  1  0
  3 13  1  0
  4 13  1  0
  5  6  1  0
  5  9  1  0
  6  7  2  0
  6  8  1  0
  7 10  1  0
  8 11  2  0
 10 12  2  0
 11 12  1  0
M  END
>  <DRUGBANK_ID>  (1) 
DB01121

>  <SECONDARY_ACCESSION_NUMBERS>  (1) 
APRD00089

>  <COMMON_NAME>  (1) 
Phenacemide

>  <CAS_NUMBER>  (1) 
63-98-9

>  <UNII>  (1) 
PAI7J52V09

>  <SYNONYMS>  (1) 
Phenacemide

$$$$
