287
     RDKit          3D

 35 36  0  0  1  0  0  0  0  0999 V2000
    2.6476    0.6841    0.5092 F   0  0  0  0  0  0  0  0  0  0  0  0
    3.4421    0.5602   -1.4690 F   0  0  0  0  0  0  0  0  0  0  0  0
    4.2019    1.8805   -0.0138 F   0  0  0  0  0  0  0  0  0  0  0  0
    2.1285    2.6387    1.0774 O   0  0  0  0  0  0  0  0  0  0  0  0
    2.8913   -1.3702   -1.2182 O   0  0  0  0  0  0  0  0  0  0  0  0
    0.1490   -5.0777    0.1336 O   0  0  0  0  0  0  0  0  0  0  0  0
    2.9167   -3.9805    2.5157 O   0  0  0  0  0  0  0  0  0  0  0  0
    4.0962   -2.8744    8.8330 O   0  0  0  0  0  0  0  0  0  0  0  0
    2.5489   -2.9013    7.2959 O   0  0  0  0  0  0  0  0  0  0  0  0
    0.8842    0.6975    1.9030 C   0  0  2  0  0  0  0  0  0  0  0  0
    1.2944   -0.7971    1.2712 C   0  0  2  0  0  0  0  0  0  0  0  0
    0.9677    1.7825    0.7132 C   0  0  2  0  0  0  0  0  0  0  0  0
    1.5771   -0.7780   -0.5345 C   0  0  1  0  0  0  0  0  0  0  0  0
    0.9478    0.8215   -0.7881 C   0  0  0  0  0  0  0  0  0  0  0  0
    1.7124    1.2284    3.2247 C   0  0  0  0  0  0  0  0  0  0  0  0
    0.6465   -2.0008    1.8556 C   0  0  0  0  0  0  0  0  0  0  0  0
    1.1400    0.7825    4.5268 C   0  0  0  0  0  0  0  0  0  0  0  0
    0.3734   -2.9941    0.9403 C   0  0  0  0  0  0  0  0  0  0  0  0
    0.6243   -4.3822    1.2929 C   0  0  2  0  0  0  0  0  0  0  0  0
    1.6678    0.0207    5.4909 C   0  0  0  0  0  0  0  0  0  0  0  0
    2.9352   -0.7104    5.6197 C   0  0  0  0  0  0  0  0  0  0  0  0
    2.1325   -4.7496    1.5631 C   0  0  0  0  0  0  0  0  0  0  0  0
    3.9436   -0.2311    6.6076 C   0  0  0  0  0  0  0  0  0  0  0  0
    3.3753   -0.6880    7.8966 C   0  0  0  0  0  0  0  0  0  0  0  0
    3.6923   -2.8709    2.1761 C   0  0  0  0  0  0  0  0  0  0  0  0
    3.2737   -2.2437    7.9564 C   0  0  0  0  0  0  0  0  0  0  0  0
    3.8343   -2.1729    0.9514 C   0  0  0  0  0  0  0  0  0  0  0  0
    4.1743   -2.1410    3.2362 C   0  0  0  0  0  0  0  0  0  0  0  0
    4.8611   -2.1816    9.8033 C   0  0  0  0  0  0  0  0  0  0  0  0
    4.3160   -0.6598    0.7796 C   0  0  0  0  0  0  0  0  0  0  0  0
    4.5878   -0.7435    3.0900 C   0  0  0  0  0  0  0  0  0  0  0  0
    4.6150   -0.0082    1.9388 C   0  0  0  0  0  0  0  0  0  0  0  0
    6.0678   -1.5179    9.1409 C   0  0  0  0  0  0  0  0  0  0  0  0
    3.9710   -1.3131   10.7023 C   0  0  0  0  0  0  0  0  0  0  0  0
    3.7763    0.5872   -0.1351 C   0  0  0  0  0  0  0  0  0  0  0  0
  1 35  1  0
  2 35  1  0
  3 35  1  0
  7 22  1  0
  7 25  1  0
  8 26  1  0
  8 29  1  0
  9 26  2  0
 10 11  1  0
 10 12  1  0
 10 15  1  1
 11 13  1  0
 11 16  1  6
 12 14  1  0
 12  4  1  1
 13  5  1  1
 13 14  1  0
 15 17  1  0
 16 18  2  0
 17 20  2  0
 19 22  1  0
 19 18  1  0
 19  6  1  6
 20 21  1  0
 21 23  1  0
 23 24  1  0
 24 26  1  0
 25 27  2  0
 25 28  1  0
 27 30  1  0
 28 31  2  0
 29 33  1  0
 29 34  1  0
 30 32  2  0
 30 35  1  0
 31 32  1  0
M  END
>  <DRUGBANK_ID>  (1) 
DB00287

>  <SECONDARY_ACCESSION_NUMBERS>  (1) 
APRD01271

>  <COMMON_NAME>  (1) 
Travoprost

>  <CAS_NUMBER>  (1) 
157283-68-6

>  <UNII>  (1) 
WJ68R08KX9

>  <SYNONYMS>  (1) 
(1R-(1.ALPHA.(Z),2.BETA.(1E,3R*),3.ALPHA.,5.ALPHA.))-7-(3,5-DIHYDROXY-2-(3-HYDROXY-4-(3-(TRIFLUOROMETHYL)PHENOXY)-1-BUTENYL)CYCLOPENTYL)-5-HEPTENOIC ACID, 1-METHYLETHYL ESTER; ISOPROPYL (Z)-7-((1R,2R,3R,5S)-3,5-DIHYDROXY-2-((1E,3R)-3-HYDROXY-4-((.ALPHA.,.ALPHA.,.ALPHA.-TRIFLUORO-M-TOLYL)OXY)-1-BUTENYL)CYCLOPENTYL)-5-HEPTENOATE; isopropyl (Z)-7-((1R,2R,3R,5S)-3,5-dihydroxy-2-{(1E,3R)-3-hydroxy-4-[(α,α,α-trifluoro-m-tolyl)oxy]-1-butenyl}cyclopentyl)-5-heptenoate; OTX-TP; Travoprost; TRAVOPROST COMPONENT OF DUOTRAV; Travoprostum

$$$$
