
     RDKit          3D

 20 22  0  0  1  0  0  0  0  0999 V2000
    0.9719    0.0299   -0.0113 C   0  0  0  0  0  0  0  0  0  0  0  0
    2.2448    5.6790    0.3883 C   0  0  0  0  0  0  0  0  0  0  0  0
    0.2284    1.3574    0.2252 C   0  0  2  0  0  0  0  0  0  0  0  0
    3.8611    5.2136    1.6987 C   0  0  0  0  0  0  0  0  0  0  0  0
   -0.1333    2.1359   -1.0424 C   0  0  2  0  0  0  0  0  0  0  0  0
    0.6912    3.4091   -0.9614 C   0  0  2  0  0  0  0  0  0  0  0  0
    5.0189    5.1451    2.4870 C   0  0  0  0  0  0  0  0  0  0  0  0
    3.0160    4.1138    1.7468 C   0  0  0  0  0  0  0  0  0  0  0  0
    0.8458    3.6017    0.5392 C   0  0  2  0  0  0  0  0  0  0  0  0
    4.3222    3.0513    3.1984 C   0  0  0  0  0  0  0  0  0  0  0  0
    4.5742    1.9794    3.9609 F   0  0  0  0  0  0  0  0  0  0  0  0
    5.9451    6.1637    2.5157 N   0  0  0  0  0  0  0  0  0  0  0  0
    3.3707    6.1805    0.8527 N   0  0  0  0  0  0  0  0  0  0  0  0
    5.2350    4.0468    3.2372 N   0  0  0  0  0  0  0  0  0  0  0  0
    3.1877    3.0081    2.4747 N   0  0  0  0  0  0  0  0  0  0  0  0
    1.9980    4.4192    0.8847 N   0  0  0  0  0  0  0  0  0  0  0  0
    0.5408   -0.6218   -1.2035 O   0  0  0  0  0  0  0  0  0  0  0  0
   -1.5276    2.4802   -1.0662 O   0  0  0  0  0  0  0  0  0  0  0  0
    0.0442    4.5068   -1.6026 O   0  0  0  0  0  0  0  0  0  0  0  0
    0.9630    2.2639    1.0716 O   0  0  0  0  0  0  0  0  0  0  0  0
  3  1  1  6
  5  3  1  0
  5 18  1  1
  6  5  1  0
  6 19  1  1
  7  4  2  0
  8  4  1  0
  9  6  1  0
  9 16  1  6
 11 10  1  0
 12  7  1  0
 13  2  2  0
 13  4  1  0
 14  7  1  0
 14 10  2  0
 15  8  2  0
 15 10  1  0
 16  2  1  0
 16  8  1  0
 17  1  1  0
 20  3  1  0
 20  9  1  0
M  END
>  <DRUGBANK_ID>  (1) 
DB04441

>  <SECONDARY_ACCESSION_NUMBERS>  (1) 
EXPT00114

>  <COMMON_NAME>  (1) 
2-Fluoroadenosine

>  <CAS_NUMBER>  (1) 
146-78-1

>  <UNII>  (1) 
0S67290CRJ

>  <SYNONYMS>  (1) 
2-(6-amino-2-fluoro-purin-9-yl)-5-hydroxymethyl-tetrahydro-furan-3,4-diol; 6-amino-2-fluoro-9-Î²-D-ribofuranosylpurine

$$$$
