6JZ
     RDKit          3D

 17 16  0  0  0  0  0  0  0  0999 V2000
    0.8756   -0.4301    0.0244 C   0  0  0  0  0  0  0  0  0  0  0  0
    0.3363    0.3020   -1.1852 C   0  0  0  0  0  0  0  0  0  0  0  0
    1.0833    0.2614   -2.3735 O   0  0  0  0  0  0  0  0  0  0  0  0
    2.4735    0.5415   -2.0601 C   0  0  0  0  0  0  0  0  0  0  0  0
    2.8973    1.6889   -0.9877 C   0  0  0  0  0  0  0  0  0  0  0  0
    2.2811    2.0461    0.2709 O   0  0  0  0  0  0  0  0  0  0  0  0
    0.9187    2.6743    0.2130 C   0  0  0  0  0  0  0  0  0  0  0  0
    0.1465    3.2151   -1.2697 C   0  0  0  0  0  0  0  0  0  0  0  0
    0.8557    3.3328   -2.5785 O   0  0  0  0  0  0  0  0  0  0  0  0
    2.3006    3.5874   -2.8558 C   0  0  0  0  0  0  0  0  0  0  0  0
    3.3620    4.4693   -1.7683 C   0  0  0  0  0  0  0  0  0  0  0  0
    2.8841    5.2622   -0.5863 O   0  0  0  0  0  0  0  0  0  0  0  0
    1.4581    5.4687   -0.4628 C   0  0  0  0  0  0  0  0  0  0  0  0
    0.4547    6.3505   -1.3912 C   0  0  0  0  0  0  0  0  0  0  0  0
    0.5905    6.3971   -2.8364 O   0  0  0  0  0  0  0  0  0  0  0  0
    1.9552    6.4716   -3.1589 C   0  0  0  0  0  0  0  0  0  0  0  0
    2.8151    7.4641   -2.4069 C   0  0  0  0  0  0  0  0  0  0  0  0
  1  2  1  0
  2  3  1  0
  3  4  1  0
  4  5  1  0
  5  6  1  0
  6  7  1  0
  7  8  1  0
  8  9  1  0
  9 10  1  0
 10 11  1  0
 11 12  1  0
 12 13  1  0
 13 14  1  0
 14 15  1  0
 15 16  1  0
 16 17  1  0
M  END
>  <DRUGBANK_ID>  (1) 
DB02343

>  <SECONDARY_ACCESSION_NUMBERS>  (1) 
EXPT02478

>  <COMMON_NAME>  (1) 
3,6,9,12,15-Pentaoxaheptadecane

>  <CAS_NUMBER>  (1) 
4353-28-0

>  <UNII>  (1) 
XO8API468S

$$$$
