
     RDKit          3D

 16 15  0  0  1  0  0  0  0  0999 V2000
    0.9534   -2.4429    0.8374 C   0  0  0  0  0  0  0  0  0  0  0  0
    0.4491   -1.4637   -0.2064 C   0  0  2  0  0  0  0  0  0  0  0  0
    1.0760   -0.1515    0.0296 N   0  0  0  0  0  0  0  0  0  0  0  0
   -1.1163   -1.4567   -0.2229 C   0  0  1  0  0  0  0  0  0  0  0  0
   -1.6019   -0.4815   -1.3223 C   0  0  0  0  0  0  0  0  0  0  0  0
   -1.1005   -0.8438   -2.7313 C   0  0  0  0  0  0  0  0  0  0  0  0
   -1.5945   -2.2112   -3.2029 C   0  0  0  0  0  0  0  0  0  0  0  0
   -3.1273   -2.2903   -3.1966 C   0  0  0  0  0  0  0  0  0  0  0  0
   -3.7116   -1.3138   -4.2161 C   0  0  0  0  0  0  0  0  0  0  0  0
   -3.1966   -1.6164   -5.6115 C   0  0  0  0  0  0  0  0  0  0  0  0
   -4.1489   -1.9674   -6.4925 O   0  0  0  0  0  0  0  0  0  0  0  0
   -2.0226   -1.5652   -5.9464 O   0  0  0  0  0  0  0  0  0  0  0  0
   -1.6835   -2.8252   -0.3786 N   0  0  0  0  0  0  0  0  0  0  0  0
   -2.5037   -3.4448    0.5048 C   0  0  0  0  0  0  0  0  0  0  0  0
   -2.8475   -4.6834    0.1001 O   0  0  0  0  0  0  0  0  0  0  0  0
   -2.8917   -2.9734    1.5640 O   0  0  0  0  0  0  0  0  0  0  0  0
  2  4  1  0
  2  3  1  0
  2  1  1  1
  4  5  1  6
  4 13  1  0
  5  6  1  0
  6  7  1  0
  7  8  1  0
  8  9  1  0
  9 10  1  0
 10 11  1  0
 10 12  2  0
 13 14  1  0
 14 15  1  0
 14 16  2  0
M  END
>  <DRUGBANK_ID>  (1) 
DB03624

>  <SECONDARY_ACCESSION_NUMBERS>  (1) 
EXPT01273

>  <COMMON_NAME>  (1) 
7-(Carboxyamino)-8-Amino-Nonanoic Acid

$$$$
