AVE
     RDKit          3D

 29 30  0  0  0  0  0  0  0  0999 V2000
   -0.5430   -1.3630   -0.0776 C   0  0  0  0  0  0  0  0  0  0  0  0
   -1.3158   -0.2396    0.0513 C   0  0  0  0  0  0  0  0  0  0  0  0
   -0.6958    0.9681    0.3159 C   0  0  0  0  0  0  0  0  0  0  0  0
    1.1710    2.6173   -0.1062 C   0  0  0  0  0  0  0  0  0  0  0  0
   -1.0428    3.8424   -0.2524 C   0  0  0  0  0  0  0  0  0  0  0  0
   -3.0829    4.9536    0.2767 C   0  0  0  0  0  0  0  0  0  0  0  0
   -3.6906    4.0257    1.1428 C   0  0  0  0  0  0  0  0  0  0  0  0
   -5.3068    5.4889   -0.5370 C   0  0  0  0  0  0  0  0  0  0  0  0
   -3.8978    5.6920   -0.5962 C   0  0  0  0  0  0  0  0  0  0  0  0
   -7.3737    4.2279    0.1684 C   0  0  0  0  0  0  0  0  0  0  0  0
    2.3638    2.8420   -0.3039 O   0  0  0  0  0  0  0  0  0  0  0  0
   -2.1442    6.6592   -1.9349 C   0  0  0  0  0  0  0  0  0  0  0  0
    3.1643    0.0381   -0.1871 Cl  0  0  0  0  0  0  0  0  0  0  0  0
    1.4412    0.0371   -0.0715 C   0  0  0  0  0  0  0  0  0  0  0  0
    0.8383   -1.2394   -0.0206 C   0  0  0  0  0  0  0  0  0  0  0  0
   -1.1192   -2.5685   -0.1464 F   0  0  0  0  0  0  0  0  0  0  0  0
   -2.6532   -0.2977    0.0142 F   0  0  0  0  0  0  0  0  0  0  0  0
    0.6525    1.1960    0.0375 C   0  0  0  0  0  0  0  0  0  0  0  0
    0.3194    3.7397   -0.0439 N   0  0  0  0  0  0  0  0  0  0  0  0
   -1.7106    3.0067   -0.8646 O   0  0  0  0  0  0  0  0  0  0  0  0
   -1.6493    4.9608    0.3082 N   0  0  0  0  0  0  0  0  0  0  0  0
   -5.0631    3.7583    1.1123 C   0  0  0  0  0  0  0  0  0  0  0  0
   -5.8960    4.4854    0.2691 C   0  0  0  0  0  0  0  0  0  0  0  0
   -7.8802    3.2127    0.9044 O   0  0  0  0  0  0  0  0  0  0  0  0
   -8.0958    4.8989   -0.5515 O   0  0  0  0  0  0  0  0  0  0  0  0
   -3.5164    6.5504   -1.5977 O   0  0  0  0  0  0  0  0  0  0  0  0
   -1.6131    5.4754   -2.3037 F   0  0  0  0  0  0  0  0  0  0  0  0
   -1.9748    7.5200   -2.9584 F   0  0  0  0  0  0  0  0  0  0  0  0
   -1.4392    7.1380   -0.8790 F   0  0  0  0  0  0  0  0  0  0  0  0
  1  2  2  0
  1 15  1  0
  2  3  1  0
  3 18  2  0
  4 11  2  0
  5 21  1  0
  6  9  1  0
  7  6  2  0
  7 22  1  0
  9  8  2  0
  9 26  1  0
 10 24  1  0
 12 29  1  0
 12 27  1  0
 14 13  1  0
 14 15  2  0
 14 18  1  0
 16  1  1  0
 17  2  1  0
 18  4  1  0
 19  4  1  0
 19  5  1  0
 20  5  2  0
 21  6  1  0
 22 23  2  0
 23  8  1  0
 23 10  1  0
 25 10  2  0
 26 12  1  0
 28 12  1  0
M  END
>  <DRUGBANK_ID>  (1) 
DB07395

>  <COMMON_NAME>  (1) 
4-[3-(2-Chloro-4,5-difluoro-benzoyl)ureido]-3-trifluoromethoxybenzoic acid

$$$$
