
     RDKit          3D

 10 12  0  0  0  0  0  0  0  0999 V2000
   -0.7303    0.9744    1.1539 C   0  0  0  0  0  0  0  0  0  0  0  0
   -1.1861   -1.1635    0.2318 C   0  0  0  0  0  0  0  0  0  0  0  0
   -0.9350    0.7150   -1.1954 C   0  0  0  0  0  0  0  0  0  0  0  0
    0.9350   -0.7149    1.1954 C   0  0  0  0  0  0  0  0  0  0  0  0
    1.1862    1.1635   -0.2318 C   0  0  0  0  0  0  0  0  0  0  0  0
    0.7302   -0.9744   -1.1540 C   0  0  0  0  0  0  0  0  0  0  0  0
   -1.4357    0.2648    0.0958 N   0  0  0  0  0  0  0  0  0  0  0  0
    0.7003    0.7165    1.0662 N   0  0  0  0  0  0  0  0  0  0  0  0
    0.2413   -1.4364    0.1376 N   0  0  0  0  0  0  0  0  0  0  0  0
    0.4941    0.4552   -1.2997 N   0  0  0  0  0  0  0  0  0  0  0  0
  7  1  1  0
  7  3  1  0
  7  2  1  0
  8  1  1  0
  8  5  1  0
  8  4  1  0
  9  2  1  0
  9  4  1  0
  9  6  1  0
 10  5  1  0
 10  3  1  0
 10  6  1  0
M  END
>  <DRUGBANK_ID>  (1) 
DB06799

>  <SECONDARY_ACCESSION_NUMBERS>  (1) 
DB06146

>  <COMMON_NAME>  (1) 
Methenamine

>  <CAS_NUMBER>  (1) 
100-97-0

>  <UNII>  (1) 
J50OIX95QV

>  <SYNONYMS>  (1) 
1,3,5,7-tetraazatricyclo[3.3.1.13,7]decane; Hexamethylenamine; Hexamethylene tetramine; Hexamethylenetetramine; Hexamethylentetramin; Hexamethylentetraminum; Hexamine; Hexaminum; HMT; HMTA; metenamina; méthénamine; Methenamine; methenaminum

$$$$
