
     RDKit          3D

 22 17  0  0  0  0  0  0  0  0999 V2000
    1.0679   -0.0717    0.0156 C   0  0  0  0  0  0  0  0  0  0  0  0
    0.5613   -0.5960   -1.3182 C   0  0  0  0  0  0  0  0  0  0  0  0
    1.0513   -1.9666   -1.5239 N   0  0  0  0  0  0  0  0  0  0  0  0
    0.5613   -2.4737   -2.8138 C   0  0  0  0  0  0  0  0  0  0  0  0
    1.0679   -1.5808   -3.9347 C   0  0  0  0  0  0  0  0  0  0  0  0
    2.5879   -1.5808   -3.9347 C   0  0  0  0  0  0  0  0  0  0  0  0
    3.0779   -2.9514   -4.1405 N   0  0  0  0  0  0  0  0  0  0  0  0
    4.5479   -2.9514   -4.1405 C   0  0  0  0  0  0  0  0  0  0  0  0
    5.0546   -2.4271   -2.8068 C   0  0  0  0  0  0  0  0  0  0  0  0
    5.8367   -3.2138   -2.0194 C   0  0  0  0  0  0  0  0  0  0  0  0
    6.2039   -4.6172   -2.4733 C   0  0  0  0  0  0  0  0  0  0  0  0
    7.6657   -4.7313   -2.5791 N   0  0  0  0  0  0  0  0  0  0  0  0
    8.0208   -6.0885   -3.0181 C   0  0  0  0  0  0  0  0  0  0  0  0
    7.3917   -6.3632   -4.3743 C   0  0  0  0  0  0  0  0  0  0  0  0
    7.9069   -5.3524   -5.3859 C   0  0  0  0  0  0  0  0  0  0  0  0
    9.3686   -5.4665   -5.4916 N   0  0  0  0  0  0  0  0  0  0  0  0
    9.8669   -4.4889   -6.4700 C   0  0  0  0  0  0  0  0  0  0  0  0
    9.4997   -3.0855   -6.0160 C   0  0  0  0  0  0  0  0  0  0  0  0
    0.9640   -0.0074   -0.0930 Cl  0  0  0  0  0  0  0  0  0  0  0  0
    0.9338    0.0745   -0.0084 Cl  0  0  0  0  0  0  0  0  0  0  0  0
    0.9069    0.0208   -0.0299 Cl  0  0  0  0  0  0  0  0  0  0  0  0
    0.9016   -0.0170   -0.0050 Cl  0  0  0  0  0  0  0  0  0  0  0  0
  1  2  1  0
  2  3  1  0
  3  4  1  0
  4  5  1  0
  5  6  1  0
  6  7  1  0
  7  8  1  0
  8  9  1  0
  9 10  2  0
 10 11  1  0
 11 12  1  0
 12 13  1  0
 13 14  1  0
 14 15  1  0
 15 16  1  0
 16 17  1  0
 17 18  1  0
M  END
>  <DRUGBANK_ID>  (1) 
DB05722

>  <COMMON_NAME>  (1) 
CGC-11047

>  <CAS_NUMBER>  (1) 
206991-64-2

>  <UNII>  (1) 
HU43305R7O

$$$$
