
     RDKit          3D

 22 25  0  0  1  0  0  0  0  0999 V2000
    2.5384   -1.4708    0.1587 C   0  0  1  0  0  0  0  0  0  0  0  0
    2.7957   -2.9799    1.1231 C   0  0  2  0  0  0  0  0  0  0  0  0
    2.4682   -2.2130    2.3816 C   0  0  0  0  0  0  0  0  0  0  0  0
    1.0529   -1.7103    1.9824 C   0  0  0  0  0  0  0  0  0  0  0  0
    1.0166   -1.6877    0.3742 C   0  0  1  0  0  0  0  0  0  0  0  0
   -0.0265   -0.7546   -0.2171 C   0  0  2  0  0  0  0  0  0  0  0  0
    0.1388    0.6592    0.2894 C   0  0  2  0  0  0  0  0  0  0  0  0
   -0.8990    1.6134   -0.3375 C   0  0  2  0  0  0  0  0  0  0  0  0
   -2.3564    1.5847   -0.5782 C   0  0  2  0  0  0  0  0  0  0  0  0
   -2.5316   -0.1008   -0.6560 C   0  0  0  0  0  0  0  0  0  0  0  0
   -1.4808   -1.1223    0.0631 C   0  0  0  0  0  0  0  0  0  0  0  0
   -2.0209    3.1698   -1.5835 C   0  0  0  0  0  0  0  0  0  0  0  0
   -0.3265    3.4919   -2.0246 C   0  0  2  0  0  0  0  0  0  0  0  0
    0.1567    2.2487   -2.7149 C   0  0  0  0  0  0  0  0  0  0  0  0
   -0.7814    1.3030   -2.0878 C   0  0  0  0  0  0  0  0  0  0  0  0
    0.6491    3.7877   -1.0383 O   0  0  0  0  0  0  0  0  0  0  0  0
   -1.1082    2.8876    0.7608 C   0  0  0  0  0  0  0  0  0  0  0  0
    1.6347    1.0054    0.0365 C   0  0  0  0  0  0  0  0  0  0  0  0
    2.6582    0.0910    0.7623 C   0  0  0  0  0  0  0  0  0  0  0  0
    4.0478   -3.6256    1.2727 O   0  0  0  0  0  0  0  0  0  0  0  0
    1.7001   -4.2712    1.2282 C   0  0  0  0  0  0  0  0  0  0  0  0
    3.2344   -1.1645   -1.2372 C   0  0  0  0  0  0  0  0  0  0  0  0
  1 22  1  6
  2  1  1  0
  2 20  1  0
  2 21  1  6
  3  2  1  0
  3  4  1  0
  5  4  1  1
  5  1  1  0
  6  5  1  0
  6  7  1  0
  7 18  1  6
  8  7  1  0
  8 17  1  6
  9  8  1  0
  9 10  1  6
 10 11  1  0
  6 11  1  1
 12  9  1  0
 13 12  1  0
 13 14  1  0
 13 16  1  1
 14 15  1  0
 15  8  1  0
 18 19  1  0
 19  1  1  0
M  END
>  <DRUGBANK_ID>  (1) 
DB01513

>  <COMMON_NAME>  (1) 
17Alpha-methyl-3beta,17beta-dihydroxy-5alpha-androstane

>  <CAS_NUMBER>  (1) 
641-83-8

>  <UNII>  (1) 
ZA9UE4Q47V

$$$$
