
     RDKit          3D

 21 24  0  0  0  0  0  0  0  0999 V2000
   -1.5703    0.0000   -0.0151 Br  0  0  0  0  0  0  0  0  0  0  0  0
    4.2626   -9.4150   -1.0320 O   0  0  0  0  0  0  0  0  0  0  0  0
    5.2012   -9.2714   -3.2486 O   0  0  0  0  0  0  0  0  0  0  0  0
    4.3686   -4.1271    0.4958 N   0  0  0  0  0  0  0  0  0  0  0  0
    3.9786   -2.9032    0.9024 N   0  0  0  0  0  0  0  0  0  0  0  0
    4.1475   -5.7586   -1.3827 C   0  0  0  0  0  0  0  0  0  0  0  0
    3.8105   -4.5227   -0.6930 C   0  0  0  0  0  0  0  0  0  0  0  0
    4.3532   -8.1307   -1.4727 C   0  0  0  0  0  0  0  0  0  0  0  0
    3.9810   -7.0048   -0.7641 C   0  0  0  0  0  0  0  0  0  0  0  0
    4.8776   -8.0520   -2.7422 C   0  0  0  0  0  0  0  0  0  0  0  0
    3.1084   -2.5072   -0.0366 C   0  0  0  0  0  0  0  0  0  0  0  0
    2.9880   -3.4817   -1.0586 C   0  0  0  0  0  0  0  0  0  0  0  0
    4.6535   -5.6909   -2.7007 C   0  0  0  0  0  0  0  0  0  0  0  0
    5.0359   -6.8470   -3.3873 C   0  0  0  0  0  0  0  0  0  0  0  0
    2.4041   -1.2351    0.0221 C   0  0  0  0  0  0  0  0  0  0  0  0
    4.7364  -10.1345   -2.1909 C   0  0  0  0  0  0  0  0  0  0  0  0
    1.0036   -1.2221    0.0003 C   0  0  0  0  0  0  0  0  0  0  0  0
    3.1066   -0.0240    0.0412 C   0  0  0  0  0  0  0  0  0  0  0  0
    0.3204   -0.0075   -0.0029 C   0  0  0  0  0  0  0  0  0  0  0  0
    2.4137    1.1902    0.0182 C   0  0  0  0  0  0  0  0  0  0  0  0
    1.0180    1.1989   -0.0017 C   0  0  0  0  0  0  0  0  0  0  0  0
  1 19  1  0
  2  8  1  0
  2 16  1  0
  3 10  1  0
  3 16  1  0
  4  5  1  0
  4  7  1  0
  5 11  2  0
  6  7  1  0
  6  9  1  0
  6 13  2  0
  7 12  2  0
  8  9  2  0
  8 10  1  0
 10 14  2  0
 11 12  1  0
 11 15  1  0
 13 14  1  0
 15 17  2  0
 15 18  1  0
 17 19  1  0
 18 20  2  0
 19 21  2  0
 20 21  1  0
M  END
>  <DRUGBANK_ID>  (1) 
DB13927

>  <COMMON_NAME>  (1) 
Emrusolmin

>  <CAS_NUMBER>  (1) 
882697-00-9

>  <UNII>  (1) 
E7WRA77JET

>  <SYNONYMS>  (1) 
1H-PYRAZOLE, 3-(1,3-BENZODIOXOL-5-YL)-5-(3-BROMOPHENYL)-; 3-(1,3-BENZODIOXOL-5-YL)-5-(3-BROMOPHENYL)-1H-PYRAZOLE

$$$$
