PNP
     RDKit          3D

 14 14  0  0  0  0  0  0  0  0999 V2000
    1.4854   -3.9143    1.3797 C   0  0  0  0  0  0  0  0  0  0  0  0
    1.9698   -5.0254    0.6858 C   0  0  0  0  0  0  0  0  0  0  0  0
    1.9462   -6.3140    1.1866 C   0  0  0  0  0  0  0  0  0  0  0  0
    1.0666   -6.5825    2.2125 C   0  0  0  0  0  0  0  0  0  0  0  0
    0.3720   -5.5275    2.8305 C   0  0  0  0  0  0  0  0  0  0  0  0
    0.6096   -4.1844    2.4333 C   0  0  0  0  0  0  0  0  0  0  0  0
    2.7005   -0.3765    0.1826 C   0  0  0  0  0  0  0  0  0  0  0  0
    0.7480   -7.9924    2.4519 N   0  0  0  0  0  0  0  0  0  0  0  0
   -0.1772   -8.2451    3.2413 O   0  0  0  0  0  0  0  0  0  0  0  0
    1.3788   -8.8458    1.8153 O   0  0  0  0  0  0  0  0  0  0  0  0
    3.3163   -2.0939    0.3243 P   0  0  2  0  0  0  0  0  0  0  0  0
    1.8441   -2.6024    1.0512 O   0  0  0  0  0  0  0  0  0  0  0  0
    3.1694   -2.3206   -1.1858 O   0  0  0  0  0  0  0  0  0  0  0  0
    3.8985   -3.7175    0.4582 O   0  0  0  0  0  0  0  0  0  0  0  0
  1  2  2  0
  1  6  1  0
  1 12  1  0
  2  3  1  0
  3  4  2  0
  4  5  1  0
  4  8  1  0
  5  6  2  0
  8  9  2  0
  8 10  1  0
 11 13  2  0
 11 14  1  0
 11 12  1  0
 11  7  1  0
M  CHG  2   8   1  10  -1
M  END
>  <DRUGBANK_ID>  (1) 
DB08413

>  <COMMON_NAME>  (1) 
METHYL-PHOSPHONIC ACID MONO-(4-NITRO-PHENYL) ESTER

$$$$
