
     RDKit          3D

 13 12  0  0  0  0  0  0  0  0999 V2000
    1.5505    0.5488   -0.2780 S   0  0  0  0  0  0  0  0  0  0  0  0
   -2.7749   -2.3801   -2.5277 S   0  0  0  0  0  0  0  0  0  0  0  0
    2.0529    1.5479   -3.8388 O   0  0  0  0  0  0  0  0  0  0  0  0
    1.2574   -2.3852   -3.8654 O   0  0  0  0  0  0  0  0  0  0  0  0
    0.1463   -3.1764   -2.1046 O   0  0  0  0  0  0  0  0  0  0  0  0
    0.3874    0.1745   -3.3883 N   0  0  0  0  0  0  0  0  0  0  0  0
    2.4741    0.2064   -1.8352 C   0  0  0  0  0  0  0  0  0  0  0  0
    1.6249    0.6759   -3.0708 C   0  0  0  0  0  0  0  0  0  0  0  0
   -0.3758   -0.9235   -2.7661 C   0  0  2  0  0  0  0  0  0  0  0  0
    0.4178   -2.1996   -2.9910 C   0  0  0  0  0  0  0  0  0  0  0  0
   -1.7175   -1.2014   -3.4574 C   0  0  0  0  0  0  0  0  0  0  0  0
    3.7967    0.9880   -1.7888 C   0  0  0  0  0  0  0  0  0  0  0  0
    2.9073   -1.2598   -1.8170 C   0  0  0  0  0  0  0  0  0  0  0  0
  1  7  1  0
  2 11  1  0
  3  8  2  0
  4 10  2  0
  5 10  1  0
  6  8  1  0
  7  8  1  0
  7 12  1  0
  7 13  1  0
  9 11  1  6
  9 10  1  0
  9  6  1  0
M  END
>  <DRUGBANK_ID>  (1) 
DB12160

>  <COMMON_NAME>  (1) 
Bucillamine

>  <CAS_NUMBER>  (1) 
65002-17-7

>  <UNII>  (1) 
R80LRA5WTF

>  <SYNONYMS>  (1) 
Bucilamina; Bucillamine; Bucillaminum

$$$$
