
     RDKit          3D

 32 35  0  0  0  0  0  0  0  0999 V2000
    1.0424    0.0746   -0.1334 C   0  0  0  0  0  0  0  0  0  0  0  0
    0.5498    0.9410    1.0384 C   0  0  0  0  0  0  0  0  0  0  0  0
    1.0205    2.3888    0.7836 C   0  0  0  0  0  0  0  0  0  0  0  0
   -0.9216    0.9260    1.0298 N   0  0  0  0  0  0  0  0  0  0  0  0
    1.0111    0.4011    2.3926 C   0  0  0  0  0  0  0  0  0  0  0  0
    1.3498    1.2730    3.4382 C   0  0  0  0  0  0  0  0  0  0  0  0
    1.6050    0.7970    4.7165 C   0  0  0  0  0  0  0  0  0  0  0  0
    1.5029   -0.5653    5.0071 C   0  0  0  0  0  0  0  0  0  0  0  0
    1.2054   -1.4537    3.9686 C   0  0  0  0  0  0  0  0  0  0  0  0
    0.9866   -0.9776    2.6738 C   0  0  0  0  0  0  0  0  0  0  0  0
    1.7525   -1.0235    6.3693 C   0  0  0  0  0  0  0  0  0  0  0  0
    2.8544   -1.7692    6.4848 N   0  0  0  0  0  0  0  0  0  0  0  0
    3.2750   -2.1070    7.7162 C   0  0  0  0  0  0  0  0  0  0  0  0
    4.4275   -2.8206    7.8441 N   0  0  0  0  0  0  0  0  0  0  0  0
    5.2596   -3.2019    6.8047 C   0  0  0  0  0  0  0  0  0  0  0  0
    5.7711   -2.2679    5.8894 C   0  0  0  0  0  0  0  0  0  0  0  0
    6.5653   -2.6601    4.8231 C   0  0  0  0  0  0  0  0  0  0  0  0
    6.9351   -3.9863    4.7274 C   0  0  0  0  0  0  0  0  0  0  0  0
    7.6150   -4.4296    3.4490 C   0  0  0  0  0  0  0  0  0  0  0  0
    8.6676   -5.5329    3.6360 C   0  0  0  0  0  0  0  0  0  0  0  0
    8.1270   -6.7848    4.2133 N   0  0  0  0  0  0  0  0  0  0  0  0
    8.8890   -7.9909    3.8560 C   0  0  0  0  0  0  0  0  0  0  0  0
    8.6318   -8.4083    2.3906 C   0  0  0  0  0  0  0  0  0  0  0  0
    7.2324   -8.5643    2.0803 O   0  0  0  0  0  0  0  0  0  0  0  0
    6.5534   -7.3523    2.3689 C   0  0  0  0  0  0  0  0  0  0  0  0
    6.7139   -7.0641    3.8398 C   0  0  0  0  0  0  0  0  0  0  0  0
    6.4986   -4.8734    5.7402 C   0  0  0  0  0  0  0  0  0  0  0  0
    5.5412   -4.5320    6.6604 C   0  0  0  0  0  0  0  0  0  0  0  0
    2.6277   -1.7775    8.8394 N   0  0  0  0  0  0  0  0  0  0  0  0
    1.5145   -1.0466    8.6859 C   0  0  0  0  0  0  0  0  0  0  0  0
    1.0166   -0.6324    7.4702 C   0  0  0  0  0  0  0  0  0  0  0  0
   -0.4096    0.3126    7.3948 Cl  0  0  0  0  0  0  0  0  0  0  0  0
  1  2  1  0
  2  3  1  0
  2  4  1  0
  2  5  1  0
  5  6  2  0
  5 10  1  0
  6  7  1  0
  7  8  2  0
  8  9  1  0
  8 11  1  0
  9 10  2  0
 11 12  2  0
 11 31  1  0
 12 13  1  0
 13 14  1  0
 13 29  2  0
 14 15  1  0
 15 16  2  0
 15 28  1  0
 16 17  1  0
 17 18  2  0
 18 19  1  0
 18 27  1  0
 19 20  1  0
 20 21  1  0
 21 22  1  0
 21 26  1  0
 22 23  1  0
 23 24  1  0
 24 25  1  0
 25 26  1  0
 27 28  2  0
 29 30  1  0
 30 31  2  0
 31 32  1  0
M  END
>  <DRUGBANK_ID>  (1) 
DB02491

>  <SECONDARY_ACCESSION_NUMBERS>  (1) 
EXPT00378

>  <COMMON_NAME>  (1) 
4-[4-(1-Amino-1-Methylethyl)Phenyl]-5-Chloro-N-[4-(2-Morpholin-4-Ylethyl)Phenyl]Pyrimidin-2-Amine

$$$$
