
     RDKit          3D

 40 42  0  0  0  0  0  0  0  0999 V2000
   -1.1491    0.3462    1.0381 N   0  0  0  0  0  0  0  0  0  0  0  0
   -0.7646   -1.2546    0.5542 C   0  0  1  0  0  0  0  0  0  0  0  0
   -2.3559    0.0448    0.1566 C   0  0  0  0  0  0  0  0  0  0  0  0
   -2.0771   -1.3992   -0.1198 C   0  0  1  0  0  0  0  0  0  0  0  0
    0.3415    1.6405    1.1377 C   0  0  2  0  0  0  0  0  0  0  0  0
    1.5251   -1.7961    0.4472 S   0  0  0  0  0  0  0  0  0  0  0  0
    1.9634    0.7860    0.9445 C   0  0  0  0  0  0  0  0  0  0  0  0
   -2.0817   -2.0974   -1.3690 N   0  0  0  0  0  0  0  0  0  0  0  0
    0.4612    2.9454    1.7540 C   0  0  0  0  0  0  0  0  0  0  0  0
   -2.1989   -3.4732   -1.3898 C   0  0  0  0  0  0  0  0  0  0  0  0
    0.7548   -0.0041    0.0450 C   0  0  0  0  0  0  0  0  0  0  0  0
   -3.2209    0.7091   -0.4013 O   0  0  0  0  0  0  0  0  0  0  0  0
   -0.4591    1.2170   -0.8416 C   0  0  0  0  0  0  0  0  0  0  0  0
   -0.1329    3.9764    1.5198 O   0  0  0  0  0  0  0  0  0  0  0  0
   -2.1910   -4.0384   -2.4819 O   0  0  0  0  0  0  0  0  0  0  0  0
    0.6129   -0.2795    1.5500 O   0  0  0  0  0  0  0  0  0  0  0  0
   -2.4267   -4.2565   -0.0540 C   0  0  0  0  0  0  0  0  0  0  0  0
   -1.3693    2.1638   -0.1633 C   0  0  0  0  0  0  0  0  0  0  0  0
   -0.4336    1.7074   -2.0793 C   0  0  0  0  0  0  0  0  0  0  0  0
    2.7405   -0.3048   -0.1229 O   0  0  0  0  0  0  0  0  0  0  0  0
    1.4800    2.7711    2.5593 O   0  0  0  0  0  0  0  0  0  0  0  0
   -1.4246    3.6428   -1.8500 C   0  0  0  0  0  0  0  0  0  0  0  0
    2.0989    1.3540   -0.7780 C   0  0  0  0  0  0  0  0  0  0  0  0
    2.7965    0.6689    2.0318 C   0  0  0  0  0  0  0  0  0  0  0  0
    1.7272    1.1169   -3.0379 N   0  0  0  0  0  0  0  0  0  0  0  0
   -1.8639    4.7856   -2.4036 N   0  0  0  0  0  0  0  0  0  0  0  0
   -1.9006    3.2685   -0.6514 C   0  0  0  0  0  0  0  0  0  0  0  0
   -0.4715    2.9773   -2.4872 C   0  0  0  0  0  0  0  0  0  0  0  0
   -1.2919   -4.2854    0.9447 C   0  0  0  0  0  0  0  0  0  0  0  0
    4.0236    1.0276   -0.6224 C   0  0  0  0  0  0  0  0  0  0  0  0
    3.5089    1.2512   -2.5477 C   0  0  0  0  0  0  0  0  0  0  0  0
    1.2497    1.3750   -4.3630 C   0  0  0  0  0  0  0  0  0  0  0  0
    0.7748   -0.3148   -2.5062 C   0  0  0  0  0  0  0  0  0  0  0  0
   -0.4409   -5.3148    1.2238 C   0  0  0  0  0  0  0  0  0  0  0  0
   -1.1250   -3.2950    1.8611 C   0  0  0  0  0  0  0  0  0  0  0  0
    1.5051    0.0168   -4.8401 C   0  0  0  0  0  0  0  0  0  0  0  0
    1.0492   -1.7124   -2.5911 C   0  0  0  0  0  0  0  0  0  0  0  0
    0.1013   -3.0163    2.5221 C   0  0  0  0  0  0  0  0  0  0  0  0
    0.6888   -5.1548    2.0784 C   0  0  0  0  0  0  0  0  0  0  0  0
    1.0385   -3.9603    2.6441 C   0  0  0  0  0  0  0  0  0  0  0  0
  2  1  1  0
  3  1  1  0
  4  3  1  0
  4  2  1  0
  4  8  1  6
  5  1  1  0
  5  9  1  1
  2  6  1  6
  6  7  1  0
  7  5  1  0
 10  8  1  0
 12  3  2  0
 13 11  1  0
 14  9  2  0
 15 10  2  0
 16 11  2  0
 17 10  1  0
 18 13  2  0
 19 13  1  0
 20 11  1  0
 21  9  1  0
 22 28  1  0
 22 27  2  0
 23  7  1  0
 24  7  1  0
 25 31  1  0
 26 22  1  0
 27 18  1  0
 28 19  2  0
 29 17  1  0
 30 20  1  0
 31 30  1  0
 32 25  1  0
 33 25  1  0
 34 29  2  0
 35 29  1  0
 36 32  1  0
 37 33  1  0
 38 35  2  0
 39 34  1  0
 40 38  1  0
 40 39  2  0
M  END
>  <DRUGBANK_ID>  (1) 
DB09320

>  <COMMON_NAME>  (1) 
Procaine benzylpenicillin

>  <CAS_NUMBER>  (1) 
54-35-3

>  <UNII>  (1) 
1LW5K9CIR1

>  <SYNONYMS>  (1) 
Bencilpenicilina proca√≠na; Penicillin G procaine

$$$$
