BIE
     RDKit          3D

 19 20  0  0  0  0  0  0  0  0999 V2000
    1.1029   -0.3851    0.2182 O   0  0  0  0  0  0  0  0  0  0  0  0
    2.2808   -0.1283   -0.0240 C   0  0  0  0  0  0  0  0  0  0  0  0
    2.9767   -0.9040   -1.0807 C   0  0  0  0  0  0  0  0  0  0  0  0
    4.1445   -1.6013   -0.6838 C   0  0  0  0  0  0  0  0  0  0  0  0
    4.8824   -2.3521   -1.5990 C   0  0  0  0  0  0  0  0  0  0  0  0
    2.5128   -1.0328   -2.4040 C   0  0  0  0  0  0  0  0  0  0  0  0
    1.2945   -0.3605   -2.8864 N   0  0  0  0  0  0  0  0  0  0  0  0
    0.7039    0.4512   -2.1744 O   0  0  0  0  0  0  0  0  0  0  0  0
    0.9544   -0.6038   -4.0582 O   0  0  0  0  0  0  0  0  0  0  0  0
    3.2757   -1.7902   -3.3227 C   0  0  0  0  0  0  0  0  0  0  0  0
    2.9813   -1.9592   -4.6570 O   0  0  0  0  0  0  0  0  0  0  0  0
    4.4520   -2.4246   -2.9111 C   0  0  0  0  0  0  0  0  0  0  0  0
    5.2187   -3.1274   -3.7982 O   0  0  0  0  0  0  0  0  0  0  0  0
    3.0319    0.7882    0.8746 C   0  0  0  0  0  0  0  0  0  0  0  0
    2.5680    0.8944    2.1907 C   0  0  0  0  0  0  0  0  0  0  0  0
    4.2242    1.4203    0.5006 C   0  0  0  0  0  0  0  0  0  0  0  0
    5.0115    2.0302    1.4811 C   0  0  0  0  0  0  0  0  0  0  0  0
    4.5655    2.0914    2.8033 C   0  0  0  0  0  0  0  0  0  0  0  0
    3.3350    1.5409    3.1546 C   0  0  0  0  0  0  0  0  0  0  0  0
  1  2  2  0
  2  3  1  0
  2 14  1  0
  3  4  2  0
  3  6  1  0
  4  5  1  0
  5 12  2  0
  6  7  1  0
  6 10  2  0
  7  8  2  0
  7  9  1  0
 10 11  1  0
 10 12  1  0
 12 13  1  0
 14 15  2  0
 14 16  1  0
 15 19  1  0
 16 17  2  0
 17 18  1  0
 18 19  2  0
M  CHG  2   7   1   9  -1
M  END
>  <DRUGBANK_ID>  (1) 
DB07462

>  <COMMON_NAME>  (1) 
(3,4-DIHYDROXY-2-NITROPHENYL)(PHENYL)METHANONE

$$$$
