AO1
     RDKit          3D

 24 25  0  0  0  0  0  0  0  0999 V2000
   10.7225   -3.3242   -6.8131 C   0  0  0  0  0  0  0  0  0  0  0  0
   11.1894   -2.2104   -7.7271 C   0  0  0  0  0  0  0  0  0  0  0  0
   12.6086   -1.2129   -7.1028 S   0  0  0  0  0  0  0  0  0  0  0  0
   12.0584   -0.4119   -5.5288 C   0  0  0  0  0  0  0  0  0  0  0  0
   10.9502    0.6453   -5.6691 C   0  0  0  0  0  0  0  0  0  0  0  0
    9.5907    0.0312   -6.0030 C   0  0  1  0  0  0  0  0  0  0  0  0
    9.1559   -1.0599   -4.9922 C   0  0  1  0  0  0  0  0  0  0  0  0
    8.9503   -0.4862   -3.5960 C   0  0  0  0  0  0  0  0  0  0  0  0
    7.7045   -0.6977   -3.1123 N   0  0  0  0  0  0  0  0  0  0  0  0
    7.0813    0.0054   -2.0202 C   0  0  2  0  0  0  0  0  0  0  0  0
    5.5406   -0.0465   -2.1098 C   0  0  0  0  0  0  0  0  0  0  0  0
    9.8482    0.0990   -2.9863 O   0  0  0  0  0  0  0  0  0  0  0  0
    7.5448    1.4668   -1.9249 C   0  0  0  0  0  0  0  0  0  0  0  0
    4.8463    0.4418   -0.9846 C   0  0  0  0  0  0  0  0  0  0  0  0
    3.4582    0.4259   -0.9365 C   0  0  0  0  0  0  0  0  0  0  0  0
    2.7304   -0.1110   -1.9958 C   0  0  0  0  0  0  0  0  0  0  0  0
    3.3663   -0.6001   -3.1449 C   0  0  0  0  0  0  0  0  0  0  0  0
    4.7718   -0.5448   -3.2297 C   0  0  0  0  0  0  0  0  0  0  0  0
    2.6085   -1.1141   -4.2255 C   0  0  0  0  0  0  0  0  0  0  0  0
    3.2063   -1.6218   -5.3814 C   0  0  0  0  0  0  0  0  0  0  0  0
    4.5710   -1.5712   -5.4986 C   0  0  0  0  0  0  0  0  0  0  0  0
    5.2923   -0.9768   -4.4713 C   0  0  0  0  0  0  0  0  0  0  0  0
    8.1342   -1.8681   -5.5668 O   0  0  0  0  0  0  0  0  0  0  0  0
    8.5469    1.0250   -6.2913 N   0  0  0  0  0  0  0  0  0  0  0  0
  1  2  1  0
  2  3  1  0
  3  4  1  0
  4  5  1  0
  5  6  1  0
  6  7  1  0
  6 24  1  1
  7  8  1  0
  7 23  1  6
  8  9  1  0
  8 12  2  0
 10 13  1  6
 10 11  1  0
 10  9  1  0
 11 14  2  0
 11 18  1  0
 14 15  1  0
 15 16  2  0
 16 17  1  0
 17 18  2  0
 17 19  1  0
 18 22  1  0
 19 20  2  0
 20 21  1  0
 21 22  2  0
M  END
>  <DRUGBANK_ID>  (1) 
DB04108

>  <SECONDARY_ACCESSION_NUMBERS>  (1) 
EXPT00526

>  <COMMON_NAME>  (1) 
(2s,3r)-3-Amino-2-Hydroxy-5-(Ethylsulfanyl)Pentanoyl-((S)-(-)-(1-Naphthyl)Ethyl)Amide

$$$$
