
     RDKit          3D

 23 25  0  0  0  0  0  0  0  0999 V2000
    0.8156    0.0446    0.0811 C   0  0  0  0  0  0  0  0  0  0  0  0
    0.5377   -4.9601    2.1239 N   0  0  0  0  0  0  0  0  0  0  0  0
    1.0680   -2.6263    0.2349 N   0  0  0  0  0  0  0  0  0  0  0  0
    0.4542   -1.4464   -0.4878 C   0  0  0  0  0  0  0  0  0  0  0  0
    0.2438    0.4686    1.4828 C   0  0  0  0  0  0  0  0  0  0  0  0
    0.4313    1.0863   -1.0018 C   0  0  0  0  0  0  0  0  0  0  0  0
    0.8631   -3.5980    2.6622 C   0  0  0  0  0  0  0  0  0  0  0  0
    1.1086   -5.0800    0.6671 C   0  0  0  0  0  0  0  0  0  0  0  0
    2.2616    0.0518    0.1598 O   0  0  0  0  0  0  0  0  0  0  0  0
    0.6129   -2.5741    1.6077 C   0  0  0  0  0  0  0  0  0  0  0  0
    0.6334   -3.9329   -0.2942 C   0  0  0  0  0  0  0  0  0  0  0  0
   -0.9641   -5.2384    2.1580 C   0  0  0  0  0  0  0  0  0  0  0  0
    1.2539   -5.8931    3.0763 C   0  0  0  0  0  0  0  0  0  0  0  0
   -0.5781   -0.3239    2.2401 C   0  0  0  0  0  0  0  0  0  0  0  0
    0.3671    1.7129    2.1064 C   0  0  0  0  0  0  0  0  0  0  0  0
    1.2159    2.4101   -0.8470 C   0  0  0  0  0  0  0  0  0  0  0  0
   -1.1003    1.2147   -1.0575 C   0  0  0  0  0  0  0  0  0  0  0  0
    0.2017    1.8834    3.4838 C   0  0  0  0  0  0  0  0  0  0  0  0
   -0.4997   -0.3493    3.6337 C   0  0  0  0  0  0  0  0  0  0  0  0
    0.6328    3.5738   -1.6133 C   0  0  0  0  0  0  0  0  0  0  0  0
   -1.5558    2.3691   -1.9188 C   0  0  0  0  0  0  0  0  0  0  0  0
   -0.8835    3.6606   -1.4823 C   0  0  0  0  0  0  0  0  0  0  0  0
   -0.1059    0.8121    4.2752 C   0  0  0  0  0  0  0  0  0  0  0  0
  2  8  1  0
  3  4  1  0
  4  1  1  0
  5  1  1  0
  6  1  1  0
  7 10  1  0
  7  2  1  0
  8 11  1  0
  9  1  1  0
 10  3  1  0
 11  3  1  0
 12  2  1  0
 13  2  1  0
 14  5  2  0
 15  5  1  0
 16  6  1  0
 17  6  1  0
 18 15  2  0
 19 14  1  0
 19 23  2  0
 20 16  1  0
 20 22  1  0
 21 17  1  0
 22 21  1  0
 23 18  1  0
M  CHG  1   2   1
M  END
>  <DRUGBANK_ID>  (1) 
DB06787

>  <COMMON_NAME>  (1) 
Hexocyclium

>  <CAS_NUMBER>  (1) 
6004-98-4

>  <UNII>  (1) 
LL3147PI1T

$$$$
