P55
     RDKit          3D

 26 29  0  0  0  0  0  0  0  0999 V2000
    1.5347   -1.0560   -0.0837 N   0  0  0  0  0  0  0  0  0  0  0  0
    2.2950    0.0316   -0.0220 C   0  0  0  0  0  0  0  0  0  0  0  0
    1.5226    1.2022   -0.0048 C   0  0  0  0  0  0  0  0  0  0  0  0
    0.2059    0.7857   -0.0149 C   0  0  0  0  0  0  0  0  0  0  0  0
    0.2694   -0.5848   -0.0205 N   0  0  0  0  0  0  0  0  0  0  0  0
   -1.0051    1.4015   -0.0304 N   0  0  0  0  0  0  0  0  0  0  0  0
   -2.0780    0.6481    0.0258 C   0  0  0  0  0  0  0  0  0  0  0  0
   -2.0485   -0.7329    0.0869 N   0  0  0  0  0  0  0  0  0  0  0  0
   -0.9043   -1.3665    0.0370 C   0  0  0  0  0  0  0  0  0  0  0  0
   -0.8915   -2.7523    0.0167 N   0  0  0  0  0  0  0  0  0  0  0  0
    0.2273   -3.5981    0.0401 C   0  0  0  0  0  0  0  0  0  0  0  0
    1.1576   -3.5245    1.0859 C   0  0  0  0  0  0  0  0  0  0  0  0
    2.3552   -4.2365    1.0359 C   0  0  0  0  0  0  0  0  0  0  0  0
    2.6126   -5.0800   -0.0391 C   0  0  0  0  0  0  0  0  0  0  0  0
    1.6727   -5.2083   -1.0609 C   0  0  0  0  0  0  0  0  0  0  0  0
    0.4823   -4.4735   -1.0215 C   0  0  0  0  0  0  0  0  0  0  0  0
   -3.3188    1.2246   -0.0559 N   0  0  0  0  0  0  0  0  0  0  0  0
   -3.6243    2.1344   -1.1651 C   0  0  0  0  0  0  0  0  0  0  0  0
   -5.0480    1.8866   -1.7108 C   0  0  0  0  0  0  0  0  0  0  0  0
   -6.1123    1.8593   -0.6871 N   0  0  0  0  0  0  0  0  0  0  0  0
   -5.7532    0.8485    0.3310 C   0  0  0  0  0  0  0  0  0  0  0  0
   -4.3538    1.0143    0.9660 C   0  0  0  0  0  0  0  0  0  0  0  0
   -6.4513    3.1876   -0.1398 C   0  0  0  0  0  0  0  0  0  0  0  0
   -5.4023    3.9870    0.6307 C   0  0  0  0  0  0  0  0  0  0  0  0
    2.0243    2.5344    0.0038 C   0  0  0  0  0  0  0  0  0  0  0  0
    2.4955    3.5881    0.0041 N   0  0  0  0  0  0  0  0  0  0  0  0
  1  2  2  0
  1  5  1  0
  2  3  1  0
  3 25  1  0
  3  4  2  0
  4  6  1  0
  4  5  1  0
  5  9  1  0
  6  7  2  0
  7 17  1  0
  7  8  1  0
  8  9  2  0
  9 10  1  0
 10 11  1  0
 11 12  2  0
 11 16  1  0
 12 13  1  0
 13 14  2  0
 14 15  1  0
 15 16  2  0
 17 22  1  0
 17 18  1  0
 18 19  1  0
 19 20  1  0
 20 21  1  0
 20 23  1  0
 21 22  1  0
 23 24  1  0
 25 26  3  0
M  END
>  <DRUGBANK_ID>  (1) 
DB08360

>  <COMMON_NAME>  (1) 
2-(4-ETHYLPIPERAZIN-1-YL)-4-(PHENYLAMINO)PYRAZOLO[1,5-A][1,3,5]TRIAZINE-8-CARBONITRILE

$$$$
