1161
     RDKit          3D

 18 18  0  0  0  0  0  0  0  0999 V2000
    1.7176   -1.1383   -1.6028 Cl  0  0  0  0  0  0  0  0  0  0  0  0
    2.6952    2.2120   -0.4199 O   0  0  0  0  0  0  0  0  0  0  0  0
    1.0558    3.5436   -1.0264 O   0  0  0  0  0  0  0  0  0  0  0  0
    1.3837    0.3920    1.6787 N   0  0  0  0  0  0  0  0  0  0  0  0
   -2.7911   -1.3947    0.3054 N   0  0  0  0  0  0  0  0  0  0  0  0
    2.8041    0.2927    1.2948 C   0  0  0  0  0  0  0  0  0  0  0  0
    0.8554   -0.5498    2.6645 C   0  0  0  0  0  0  0  0  0  0  0  0
    0.8751    1.7334    1.9517 C   0  0  0  0  0  0  0  0  0  0  0  0
    3.2851    0.9660   -0.0460 C   0  0  0  0  0  0  0  0  0  0  0  0
    1.3052   -0.1566    4.0546 C   0  0  0  0  0  0  0  0  0  0  0  0
    1.5761    2.7411    2.8190 C   0  0  0  0  0  0  0  0  0  0  0  0
    1.4187    2.3992   -0.9252 C   0  0  0  0  0  0  0  0  0  0  0  0
    0.3271    1.2671   -0.9462 C   0  0  0  0  0  0  0  0  0  0  0  0
    0.4516   -0.1366   -0.9785 C   0  0  0  0  0  0  0  0  0  0  0  0
   -0.9682    1.7425   -0.5549 C   0  0  0  0  0  0  0  0  0  0  0  0
   -1.8428   -0.4960   -0.1900 C   0  0  0  0  0  0  0  0  0  0  0  0
   -0.5736   -0.9613   -0.4739 C   0  0  0  0  0  0  0  0  0  0  0  0
   -2.0333    0.8753   -0.2073 C   0  0  0  0  0  0  0  0  0  0  0  0
  1 14  1  0
  2  9  1  0
  2 12  1  0
  3 12  2  0
  4  6  1  0
  4  7  1  0
  4  8  1  0
  5 16  1  0
  6  9  1  0
  7 10  1  0
  8 11  1  0
 12 13  1  0
 13 14  2  0
 13 15  1  0
 14 17  1  0
 15 18  2  0
 16 17  2  0
 16 18  1  0
M  END
>  <DRUGBANK_ID>  (1) 
DB01161

>  <SECONDARY_ACCESSION_NUMBERS>  (1) 
APRD00404

>  <COMMON_NAME>  (1) 
Chloroprocaine

>  <CAS_NUMBER>  (1) 
133-16-4

>  <UNII>  (1) 
5YVB0POT2H

>  <SYNONYMS>  (1) 
2-(Diethylamino)ethyl 4-amino-2-chlorobenzoate; 2-chloroprocaine; 4-amino-2-chlorobenzoic acid 2-(diethylamino)ethyl ester; Chloroprocain; Chloroprocaine; Chloroprocainum; Chlorprocaine; Cloroprocaina

$$$$
