1342
     RDKit          3D

 31 34  0  0  0  0  0  0  0  0999 V2000
   -0.2854   -1.2037    0.0347 N   0  0  0  0  0  0  0  0  0  0  0  0
   -0.4019    0.9753   -0.0307 N   0  0  0  0  0  0  0  0  0  0  0  0
    1.0059   -0.7880    0.0123 N   0  0  0  0  0  0  0  0  0  0  0  0
   -1.2988   -4.5368    3.2392 N   0  0  0  0  0  0  0  0  0  0  0  0
   -4.6037   -5.7597    1.7932 N   0  0  0  0  0  0  0  0  0  0  0  0
   -6.3846   -4.6551    2.6401 N   0  0  0  0  0  0  0  0  0  0  0  0
   -5.4847   -5.3569    0.8673 N   0  0  0  0  0  0  0  0  0  0  0  0
   -6.5538   -4.6956    1.3248 N   0  0  0  0  0  0  0  0  0  0  0  0
   -2.6492   -0.0528   -0.1219 C   0  0  0  0  0  0  0  0  0  0  0  0
   -1.1446   -0.1167   -0.0323 C   0  0  0  0  0  0  0  0  0  0  0  0
   -3.3026    0.5902    1.1303 C   0  0  0  0  0  0  0  0  0  0  0  0
    2.0642    1.4511   -0.0308 C   0  0  0  0  0  0  0  0  0  0  0  0
   -0.4898   -2.6534    0.0267 C   0  0  0  0  0  0  0  0  0  0  0  0
    0.8870    0.5376   -0.0166 C   0  0  0  0  0  0  0  0  0  0  0  0
    2.1009    2.4090   -1.2293 C   0  0  0  0  0  0  0  0  0  0  0  0
   -3.0181    2.0950    1.2383 C   0  0  0  0  0  0  0  0  0  0  0  0
   -1.1803   -3.1655    1.2522 C   0  0  0  0  0  0  0  0  0  0  0  0
    0.9480    3.4173   -1.2657 C   0  0  0  0  0  0  0  0  0  0  0  0
   -3.5460    2.8596    0.0325 C   0  0  0  0  0  0  0  0  0  0  0  0
   -2.4740   -2.7662    1.5271 C   0  0  0  0  0  0  0  0  0  0  0  0
   -0.6344   -4.0758    2.1483 C   0  0  0  0  0  0  0  0  0  0  0  0
    0.9240    4.3139   -0.0372 C   0  0  0  0  0  0  0  0  0  0  0  0
   -2.5493   -4.0581    3.4716 C   0  0  0  0  0  0  0  0  0  0  0  0
   -3.1359   -3.1041    2.6709 C   0  0  0  0  0  0  0  0  0  0  0  0
   -3.3435   -4.6882    4.5160 C   0  0  0  0  0  0  0  0  0  0  0  0
   -4.5964   -5.3021    4.2436 C   0  0  0  0  0  0  0  0  0  0  0  0
   -2.8645   -4.6621    5.8354 C   0  0  0  0  0  0  0  0  0  0  0  0
   -5.3052   -5.9092    5.2840 C   0  0  0  0  0  0  0  0  0  0  0  0
   -3.5585   -5.3101    6.8499 C   0  0  0  0  0  0  0  0  0  0  0  0
   -5.1915   -5.2933    2.9074 C   0  0  0  0  0  0  0  0  0  0  0  0
   -4.7751   -5.9323    6.5761 C   0  0  0  0  0  0  0  0  0  0  0  0
  1  3  1  0
  1 10  1  0
  1 13  1  0
  2 10  2  0
  2 14  1  0
  3 14  2  0
  4 21  2  0
  4 23  1  0
  5  7  1  0
  5 30  2  0
  6  8  2  0
  6 30  1  0
  7  8  1  0
  9 10  1  0
  9 11  1  0
 11 16  1  0
 12 14  1  0
 12 15  1  0
 13 17  1  0
 15 18  1  0
 16 19  1  0
 17 20  2  0
 17 21  1  0
 18 22  1  0
 20 24  1  0
 23 24  2  0
 23 25  1  0
 25 26  1  0
 25 27  2  0
 26 28  2  0
 26 30  1  0
 27 29  1  0
 28 31  1  0
 29 31  2  0
M  END
>  <DRUGBANK_ID>  (1) 
DB01342

>  <COMMON_NAME>  (1) 
Forasartan

>  <CAS_NUMBER>  (1) 
145216-43-9

>  <UNII>  (1) 
065F7WPT0B

>  <SYNONYMS>  (1) 
forasartÃ¡n; Forasartan

$$$$
