
     RDKit          3D

 30 32  0  0  1  0  0  0  0  0999 V2000
   -0.3903    8.8439   -1.9295 C   0  0  0  0  0  0  0  0  0  0  0  0
    1.1153    8.5386   -1.9540 C   0  0  0  0  0  0  0  0  0  0  0  0
    1.6752    9.0565   -0.6388 C   0  0  0  0  0  0  0  0  0  0  0  0
    1.4107    7.0554   -2.0765 C   0  0  0  0  0  0  0  0  0  0  0  0
    0.9907    6.4522   -3.4236 C   0  0  2  0  0  0  0  0  0  0  0  0
    0.4245    7.3678   -4.4920 C   0  0  0  0  0  0  0  0  0  0  0  0
   -0.0987    6.5489   -5.5587 N   0  0  0  0  0  0  0  0  0  0  0  0
   -0.0524    7.2729   -6.7906 C   0  0  0  0  0  0  0  0  0  0  0  0
   -0.6245    6.5473   -7.9723 C   0  0  0  0  0  0  0  0  0  0  0  0
   -1.4923    5.3692   -7.6811 C   0  0  0  0  0  0  0  0  0  0  0  0
   -1.9498    4.6710   -8.7893 C   0  0  0  0  0  0  0  0  0  0  0  0
   -2.7703    3.5611   -8.6648 C   0  0  0  0  0  0  0  0  0  0  0  0
   -3.1434    3.1274   -7.3832 C   0  0  0  0  0  0  0  0  0  0  0  0
   -2.6818    3.8360   -6.2595 C   0  0  0  0  0  0  0  0  0  0  0  0
   -1.8339    4.9576   -6.3985 C   0  0  0  0  0  0  0  0  0  0  0  0
   -1.2429    5.6921   -5.2136 C   0  0  1  0  0  0  0  0  0  0  0  0
   -0.5736    4.6475   -4.3342 C   0  0  0  0  0  0  0  0  0  0  0  0
    0.0647    5.2902   -3.1291 C   0  0  1  0  0  0  0  0  0  0  0  0
    0.7933    4.3172   -2.3717 O   0  0  0  0  0  0  0  0  0  0  0  0
    1.7729    3.5668   -2.9462 C   0  0  0  0  0  0  0  0  0  0  0  0
    2.2621    3.7413   -4.0415 O   0  0  0  0  0  0  0  0  0  0  0  0
    2.3012    2.5335   -1.9434 C   0  0  2  0  0  0  0  0  0  0  0  0
    1.2137    1.8258   -1.0841 C   0  0  0  0  0  0  0  0  0  0  0  0
    1.8709    1.0503    0.0633 C   0  0  0  0  0  0  0  0  0  0  0  0
    0.1463    2.7384   -0.4669 C   0  0  0  0  0  0  0  0  0  0  0  0
    3.3511    3.1665   -1.1151 N   0  0  0  0  0  0  0  0  0  0  0  0
   -3.9365    2.0444   -7.0792 O   0  0  0  0  0  0  0  0  0  0  0  0
   -4.4490    1.3081   -8.1864 C   0  0  0  0  0  0  0  0  0  0  0  0
   -3.2271    2.8939   -9.7633 O   0  0  0  0  0  0  0  0  0  0  0  0
   -2.8531    3.3676  -11.0446 C   0  0  0  0  0  0  0  0  0  0  0  0
  1  2  1  0
  2  3  1  0
  2  4  1  0
  5  6  1  0
  5 18  1  0
  5  4  1  1
  6  7  1  0
  7  8  1  0
  8  9  1  0
  9 10  1  0
 10 11  2  0
 10 15  1  0
 11 12  1  0
 12 13  2  0
 12 29  1  0
 13 14  1  0
 13 27  1  0
 14 15  2  0
 15 16  1  0
 16  7  1  0
 16 17  1  1
 17 18  1  0
 18 19  1  6
 19 20  1  0
 20 21  2  0
 22 26  1  1
 22 23  1  0
 22 20  1  0
 23 24  1  0
 23 25  1  0
 27 28  1  0
 29 30  1  0
M  END
>  <DRUGBANK_ID>  (1) 
DB11915

>  <COMMON_NAME>  (1) 
Valbenazine

>  <CAS_NUMBER>  (1) 
1025504-45-3

>  <UNII>  (1) 
54K37P50KH

>  <SYNONYMS>  (1) 
Valbenazine

$$$$
