CK6
     RDKit          3D

 22 24  0  0  0  0  0  0  0  0999 V2000
   -2.5820   -0.3671    0.0071 C   0  0  0  0  0  0  0  0  0  0  0  0
   -1.1155   -0.1354    0.0111 C   0  0  0  0  0  0  0  0  0  0  0  0
   -0.6719    1.1748    0.0031 N   0  0  0  0  0  0  0  0  0  0  0  0
    0.6353    1.2289    0.0162 C   0  0  0  0  0  0  0  0  0  0  0  0
    1.3520    2.3774   -0.0040 N   0  0  0  0  0  0  0  0  0  0  0  0
    0.7010    3.6672    0.0114 C   0  0  0  0  0  0  0  0  0  0  0  0
   -0.1184   -1.0956    0.0082 C   0  0  0  0  0  0  0  0  0  0  0  0
    1.4120   -0.3172    0.0446 S   0  0  0  0  0  0  0  0  0  0  0  0
   -0.2638   -2.5490   -0.0532 C   0  0  0  0  0  0  0  0  0  0  0  0
   -0.9789   -3.1441   -1.0676 C   0  0  0  0  0  0  0  0  0  0  0  0
    0.2004   -3.2358    1.0013 N   0  0  0  0  0  0  0  0  0  0  0  0
   -0.0359   -4.5603    1.0421 C   0  0  0  0  0  0  0  0  0  0  0  0
   -0.7035   -5.2241    0.0845 N   0  0  0  0  0  0  0  0  0  0  0  0
   -1.1740   -4.4958   -0.9449 C   0  0  0  0  0  0  0  0  0  0  0  0
    0.4193   -5.3097    2.1308 N   0  0  0  0  0  0  0  0  0  0  0  0
    1.2063   -4.8012    3.1703 C   0  0  0  0  0  0  0  0  0  0  0  0
    0.6734   -3.8154    4.0144 C   0  0  0  0  0  0  0  0  0  0  0  0
    1.4572   -3.1894    4.9824 C   0  0  0  0  0  0  0  0  0  0  0  0
    2.5567   -5.1394    3.2994 C   0  0  0  0  0  0  0  0  0  0  0  0
    3.3522   -4.5012    4.2574 C   0  0  0  0  0  0  0  0  0  0  0  0
    2.7964   -3.5381    5.0932 C   0  0  0  0  0  0  0  0  0  0  0  0
    3.6118   -2.9456    6.0115 O   0  0  0  0  0  0  0  0  0  0  0  0
  1  2  1  0
  2  3  1  0
  2  7  2  0
  3  4  2  0
  4  5  1  0
  4  8  1  0
  5  6  1  0
  7  8  1  0
  7  9  1  0
  9 10  2  0
  9 11  1  0
 10 14  1  0
 11 12  2  0
 12 13  1  0
 12 15  1  0
 13 14  2  0
 15 16  1  0
 16 17  2  0
 16 19  1  0
 17 18  1  0
 18 21  2  0
 19 20  2  0
 20 21  1  0
 21 22  1  0
M  END
>  <DRUGBANK_ID>  (1) 
DB04407

>  <SECONDARY_ACCESSION_NUMBERS>  (1) 
EXPT00929

>  <COMMON_NAME>  (1) 
4-[4-(4-Methyl-2-Methylamino-Thiazol-5-Yl)-Pyrimidin-2-Ylamino]-Phenol

$$$$
