
     RDKit          3D

 37 40  0  0  0  0  0  0  0  0999 V2000
    1.0918    0.3248    0.1358 O   0  0  0  0  0  0  0  0  0  0  0  0
    2.3179    0.3570    0.1886 C   0  0  0  0  0  0  0  0  0  0  0  0
    3.0000   -0.2188    1.2221 N   0  0  0  0  0  0  0  0  0  0  0  0
    3.0760    1.0102   -0.8977 C   0  0  0  0  0  0  0  0  0  0  0  0
    2.6346    2.2940   -1.1496 C   0  0  0  0  0  0  0  0  0  0  0  0
    3.1289    3.0923   -2.1115 N   0  0  0  0  0  0  0  0  0  0  0  0
    4.0938    2.6202   -2.9061 C   0  0  0  0  0  0  0  0  0  0  0  0
    4.6244    1.3015   -2.7773 C   0  0  0  0  0  0  0  0  0  0  0  0
    5.6413    0.9205   -3.7046 C   0  0  0  0  0  0  0  0  0  0  0  0
    6.0946    1.8013   -4.6967 C   0  0  0  0  0  0  0  0  0  0  0  0
    7.3872    1.2724   -5.8052 S   0  0  0  0  0  0  0  0  0  0  0  0
    8.5599    1.0197   -5.0003 O   0  0  0  0  0  0  0  0  0  0  0  0
    7.8069    2.6140   -6.8944 C   0  0  0  0  0  0  0  0  0  0  0  0
    8.3451    3.7903   -6.3357 C   0  0  0  0  0  0  0  0  0  0  0  0
    8.6463    4.8904   -7.1516 C   0  0  0  0  0  0  0  0  0  0  0  0
    9.1925    6.1383   -6.4925 C   0  0  0  0  0  0  0  0  0  0  0  0
    9.5756    7.2746   -7.2212 N   0  0  0  0  0  0  0  0  0  0  0  0
    9.4815    7.4502   -8.6534 C   0  0  0  0  0  0  0  0  0  0  0  0
   10.1320    8.4190   -6.5203 C   0  0  0  0  0  0  0  0  0  0  0  0
    9.2944    6.1096   -5.2628 O   0  0  0  0  0  0  0  0  0  0  0  0
    8.4238    4.7245   -8.5223 C   0  0  0  0  0  0  0  0  0  0  0  0
    7.9649    3.5377   -9.0863 C   0  0  0  0  0  0  0  0  0  0  0  0
    7.6060    2.4867   -8.2688 C   0  0  0  0  0  0  0  0  0  0  0  0
    6.8031    0.2187   -6.6251 O   0  0  0  0  0  0  0  0  0  0  0  0
    5.5554    3.0760   -4.7939 C   0  0  0  0  0  0  0  0  0  0  0  0
    4.5708    3.4877   -3.8935 C   0  0  0  0  0  0  0  0  0  0  0  0
    4.0345    4.8959   -4.0089 C   0  0  0  0  0  0  0  0  0  0  0  0
    4.0855    0.4618   -1.7267 C   0  0  0  0  0  0  0  0  0  0  0  0
    4.6241   -0.8466   -1.5207 N   0  0  0  0  0  0  0  0  0  0  0  0
    4.0620   -1.9349   -0.8193 C   0  0  0  0  0  0  0  0  0  0  0  0
    2.7061   -2.2588   -0.9534 C   0  0  0  0  0  0  0  0  0  0  0  0
    4.8342   -2.6212    0.1237 C   0  0  0  0  0  0  0  0  0  0  0  0
    4.2439   -3.5907    0.9380 C   0  0  0  0  0  0  0  0  0  0  0  0
    2.8686   -3.8352    0.8539 C   0  0  0  0  0  0  0  0  0  0  0  0
    2.0880   -3.1622   -0.0883 C   0  0  0  0  0  0  0  0  0  0  0  0
    0.7395   -3.4028   -0.0504 O   0  0  0  0  0  0  0  0  0  0  0  0
   -0.0581   -2.6553   -0.9719 C   0  0  0  0  0  0  0  0  0  0  0  0
  2  1  2  0
  2  3  1  0
  2  4  1  0
  4  5  2  0
  5  6  1  0
  7  6  2  0
  7  8  1  0
  7 26  1  0
  8 28  2  0
  9  8  1  0
 10  9  2  0
 10 11  1  0
 12 11  2  0
 13 11  1  0
 13 14  2  0
 13 23  1  0
 15 14  1  0
 15 16  1  0
 16 17  1  0
 16 20  2  0
 18 17  1  0
 19 17  1  0
 21 15  2  0
 22 21  1  0
 23 22  2  0
 24 11  2  0
 25 10  1  0
 26 25  2  0
 26 27  1  0
 28  4  1  0
 28 29  1  0
 30 29  1  0
 31 30  2  0
 32 30  1  0
 33 32  2  0
 34 33  1  0
 35 31  1  0
 35 34  2  0
 35 36  1  0
 37 36  1  0
M  END
>  <DRUGBANK_ID>  (1) 
DB12137

>  <COMMON_NAME>  (1) 
GSK-256066

>  <CAS_NUMBER>  (1) 
801312-28-7

>  <UNII>  (1) 
2D6GK059SR

$$$$
