
     RDKit          3D

  8  7  0  0  0  0  0  0  0  0999 V2000
    0.9886    1.9240    1.8302 C   0  0  0  0  0  0  0  0  0  0  0  0
    0.5215    1.5526    0.4586 C   0  0  0  0  0  0  0  0  0  0  0  0
   -0.2525    2.2870   -0.3593 C   0  0  0  0  0  0  0  0  0  0  0  0
   -0.7928    3.6400   -0.0242 C   0  0  0  0  0  0  0  0  0  0  0  0
   -1.6581    4.3504   -1.0578 C   0  0  0  0  0  0  0  0  0  0  0  0
   -0.6077    4.2537    1.0221 O   0  0  0  0  0  0  0  0  0  0  0  0
   -2.0626    5.5542   -0.6012 O   0  0  0  0  0  0  0  0  0  0  0  0
   -1.9341    3.8756   -2.1436 O   0  0  0  0  0  0  0  0  0  0  0  0
  2  1  1  0
  3  2  2  0
  4  3  1  0
  5  4  1  0
  6  4  2  0
  7  5  1  0
  8  5  2  0
M  END
>  <DRUGBANK_ID>  (1) 
DB02005

>  <SECONDARY_ACCESSION_NUMBERS>  (1) 
EXPT02462

>  <COMMON_NAME>  (1) 
2-Oxo-3-Pentenoic Acid

$$$$
