
     RDKit          3D

 26 29  0  0  0  0  0  0  0  0999 V2000
    1.1969   -0.2903    0.0046 C   0  0  0  0  0  0  0  0  0  0  0  0
    1.2208    1.1088   -0.0055 C   0  0  0  0  0  0  0  0  0  0  0  0
   -0.0188    1.7871    0.0169 C   0  0  0  0  0  0  0  0  0  0  0  0
   -1.2437    1.0993    0.0218 C   0  0  0  0  0  0  0  0  0  0  0  0
   -1.2211   -0.2982    0.0305 C   0  0  0  0  0  0  0  0  0  0  0  0
   -0.0119   -0.9870    0.0206 C   0  0  0  0  0  0  0  0  0  0  0  0
    2.3128   -1.0778   -0.0075 O   0  0  0  0  0  0  0  0  0  0  0  0
   -2.3554   -1.0650    0.0345 O   0  0  0  0  0  0  0  0  0  0  0  0
   -4.5386    2.5049    0.7526 N   0  0  0  0  0  0  0  0  0  0  0  0
   -3.4343    1.7771    0.9828 N   0  0  0  0  0  0  0  0  0  0  0  0
   -3.0107    2.7613   -0.9253 C   0  0  0  0  0  0  0  0  0  0  0  0
   -2.4939    1.8550   -0.0156 C   0  0  0  0  0  0  0  0  0  0  0  0
   -4.2796    3.1326   -0.4010 C   0  0  0  0  0  0  0  0  0  0  0  0
   -1.2808    6.3481   -3.6220 O   0  0  0  0  0  0  0  0  0  0  0  0
   -1.0609    6.7483   -4.9783 C   0  0  0  0  0  0  0  0  0  0  0  0
   -0.1316    5.7802   -5.6917 C   0  0  0  0  0  0  0  0  0  0  0  0
   -0.6991    4.4670   -5.7536 O   0  0  0  0  0  0  0  0  0  0  0  0
   -1.2400    4.0948   -4.5501 C   0  0  0  0  0  0  0  0  0  0  0  0
   -1.5179    5.0016   -3.5243 C   0  0  0  0  0  0  0  0  0  0  0  0
   -2.0642    4.5527   -2.3232 C   0  0  0  0  0  0  0  0  0  0  0  0
   -2.3616    3.1959   -2.1483 C   0  0  0  0  0  0  0  0  0  0  0  0
   -2.0860    2.2897   -3.1799 C   0  0  0  0  0  0  0  0  0  0  0  0
   -1.5298    2.7418   -4.3813 C   0  0  0  0  0  0  0  0  0  0  0  0
   -5.2796    4.0662   -0.9797 C   0  0  0  0  0  0  0  0  0  0  0  0
    2.4887    1.9305   -0.0536 C   0  0  0  0  0  0  0  0  0  0  0  0
    2.5748    2.7846   -1.3125 C   0  0  0  0  0  0  0  0  0  0  0  0
  2  1  2  0
  3  2  1  0
  4  3  2  0
  5  4  1  0
  6  1  1  0
  6  5  2  0
  7  1  1  0
  8  5  1  0
 10  9  1  0
 12  4  1  0
 12 10  1  0
 12 11  2  0
 13  9  2  0
 13 11  1  0
 15 14  1  0
 16 15  1  0
 17 16  1  0
 18 17  1  0
 19 14  1  0
 19 18  2  0
 20 19  1  0
 21 11  1  0
 21 20  2  0
 22 21  1  0
 23 18  1  0
 23 22  2  0
 24 13  1  0
 25  2  1  0
 26 25  1  0
M  END
>  <DRUGBANK_ID>  (1) 
DB07594

>  <COMMON_NAME>  (1) 
CCT-018159

>  <CAS_NUMBER>  (1) 
171009-07-7

>  <UNII>  (1) 
55H1ZOI1NL

$$$$
