
     RDKit          3D

 15 15  0  0  0  0  0  0  0  0999 V2000
    1.2756    0.2504    0.9184 S   0  0  0  0  0  0  0  0  0  0  0  0
    0.8049    1.6104   -0.5592 C   0  0  0  0  0  0  0  0  0  0  0  0
    0.9475   -1.3569    0.8057 O   0  0  0  0  0  0  0  0  0  0  0  0
    0.4675    0.6135    2.0964 O   0  0  0  0  0  0  0  0  0  0  0  0
    2.7019    0.2477    0.9729 O   0  0  0  0  0  0  0  0  0  0  0  0
    1.2392    1.5034   -2.0632 C   0  0  0  0  0  0  0  0  0  0  0  0
    0.5313    0.6127   -3.0027 N   0  0  0  0  0  0  0  0  0  0  0  0
   -0.9083    0.6379   -2.6338 C   0  0  0  0  0  0  0  0  0  0  0  0
    1.1749   -0.7043   -3.0147 C   0  0  0  0  0  0  0  0  0  0  0  0
   -1.2576    0.0523   -1.2515 C   0  0  0  0  0  0  0  0  0  0  0  0
    0.9233   -1.3217   -1.6577 C   0  0  0  0  0  0  0  0  0  0  0  0
   -0.5360   -1.2166   -1.0451 N   0  0  0  0  0  0  0  0  0  0  0  0
   -1.5880   -2.2604   -1.1797 C   0  0  0  0  0  0  0  0  0  0  0  0
   -1.9103   -2.5561   -2.6367 C   0  0  0  0  0  0  0  0  0  0  0  0
   -0.7140   -3.0312   -3.1965 O   0  0  0  0  0  0  0  0  0  0  0  0
  1  2  1  0
  1  3  1  0
  1  4  2  0
  1  5  2  0
  2  6  1  0
  6  7  1  0
  7  8  1  0
  7  9  1  0
  8 10  1  0
  9 11  1  0
 10 12  1  0
 11 12  1  0
 12 13  1  0
 13 14  1  0
 14 15  1  0
M  END
>  <DRUGBANK_ID>  (1) 
DB16872

>  <COMMON_NAME>  (1) 
HEPES

>  <CAS_NUMBER>  (1) 
7365-45-9

>  <UNII>  (1) 
RWW266YE9I

>  <SYNONYMS>  (1) 
4-(2-Hydroxyethyl)-1-piperazineethane sulfonic acid; 4-(2-Hydroxyethyl)-1-piperazineethane sulphonic acid

$$$$
