
     RDKit          3D

 23 25  0  0  0  0  0  0  0  0999 V2000
    1.4210   -1.4288   -0.0507 C   0  0  0  0  0  0  0  0  0  0  0  0
    2.6928   -0.8182   -0.0413 C   0  0  0  0  0  0  0  0  0  0  0  0
    2.8343    0.5810    0.0156 C   0  0  0  0  0  0  0  0  0  0  0  0
    1.7092    1.3968    0.0462 C   0  0  0  0  0  0  0  0  0  0  0  0
    0.2986   -0.6149   -0.0175 C   0  0  0  0  0  0  0  0  0  0  0  0
    0.4764    0.7756    0.0234 C   0  0  0  0  0  0  0  0  0  0  0  0
   -1.7935    0.5537   -0.0230 C   0  0  0  0  0  0  0  0  0  0  0  0
   -1.1686   -0.8218   -0.0368 C   0  0  0  0  0  0  0  0  0  0  0  0
   -0.7416    1.4336    0.0194 N   0  0  0  0  0  0  0  0  0  0  0  0
   -2.9680    0.8872   -0.0747 O   0  0  0  0  0  0  0  0  0  0  0  0
   -1.8733   -1.9664   -0.0200 C   0  0  0  0  0  0  0  0  0  0  0  0
   -3.2958   -1.9886    0.0691 C   0  0  0  0  0  0  0  0  0  0  0  0
   -5.4049   -1.5612   -0.6286 C   0  0  0  0  0  0  0  0  0  0  0  0
   -5.4975   -2.1693    0.6215 C   0  0  0  0  0  0  0  0  0  0  0  0
   -4.1424   -2.3722    1.0954 C   0  0  0  0  0  0  0  0  0  0  0  0
   -4.0692   -1.5029   -0.9578 N   0  0  0  0  0  0  0  0  0  0  0  0
   -3.6580   -2.8249    2.4402 C   0  0  0  0  0  0  0  0  0  0  0  0
   -6.4461   -0.9991   -1.5434 C   0  0  0  0  0  0  0  0  0  0  0  0
   -6.7724   -2.4923    1.3505 C   0  0  0  0  0  0  0  0  0  0  0  0
   -7.0422   -3.9906    1.5122 C   0  0  0  0  0  0  0  0  0  0  0  0
   -5.9395   -4.8206    2.1101 C   0  0  0  0  0  0  0  0  0  0  0  0
   -5.0144   -5.2746    1.4492 O   0  0  0  0  0  0  0  0  0  0  0  0
   -6.0406   -5.0801    3.4323 O   0  0  0  0  0  0  0  0  0  0  0  0
  1  2  2  0
  1  5  1  0
  2  3  1  0
  3  4  2  0
  4  6  1  0
  5  8  1  0
  5  6  2  0
  6  9  1  0
  7  9  1  0
  7  8  1  0
  7 10  2  0
  8 11  2  0
 11 12  1  0
 12 15  2  0
 12 16  1  0
 13 16  1  0
 13 14  2  0
 13 18  1  0
 14 15  1  0
 14 19  1  0
 15 17  1  0
 19 20  1  0
 20 21  1  0
 21 23  1  0
 21 22  2  0
M  END
>  <DRUGBANK_ID>  (1) 
DB12072

>  <COMMON_NAME>  (1) 
Orantinib

>  <CAS_NUMBER>  (1) 
252916-29-3

>  <UNII>  (1) 
9RL37ZZ665

>  <SYNONYMS>  (1) 
Orantinib; Orantinibum

$$$$
