
     RDKit          3D

 15 14  0  0  1  0  0  0  0  0999 V2000
    5.6227    7.0508    3.1631 C   0  0  0  0  0  0  0  0  0  0  0  0
    5.3255    5.9700    2.1507 C   0  0  1  0  0  0  0  0  0  0  0  0
    5.5672    6.5005    0.7951 N   0  0  0  0  0  0  0  0  0  0  0  0
    5.2193    5.5155   -0.2182 C   0  0  0  0  0  0  0  0  0  0  0  0
    3.7466    5.1435   -0.0846 C   0  0  0  0  0  0  0  0  0  0  0  0
    2.8067    6.3158   -0.4257 C   0  0  0  0  0  0  0  0  0  0  0  0
    3.0066    6.8839   -1.8350 C   0  0  0  0  0  0  0  0  0  0  0  0
    2.5236    5.9325   -2.9443 C   0  0  2  0  0  0  0  0  0  0  0  0
    2.8320    4.5195   -2.7071 N   0  0  0  0  0  0  0  0  0  0  0  0
    3.1335    6.3562   -4.2899 C   0  0  0  0  0  0  0  0  0  0  0  0
    2.1951    6.6038   -5.2383 O   0  0  0  0  0  0  0  0  0  0  0  0
    4.3247    6.4340   -4.5251 O   0  0  0  0  0  0  0  0  0  0  0  0
    6.2010    4.7217    2.3893 C   0  0  0  0  0  0  0  0  0  0  0  0
    5.5004    3.5725    2.5812 O   0  0  0  0  0  0  0  0  0  0  0  0
    7.4208    4.7183    2.3578 O   0  0  0  0  0  0  0  0  0  0  0  0
  2  1  1  1
  2  3  1  0
  2 13  1  0
  3  4  1  0
  4  5  1  0
  5  6  1  0
  6  7  1  0
  8 10  1  0
  8  9  1  1
  8  7  1  0
 10 11  1  0
 10 12  2  0
 13 14  1  0
 13 15  2  0
M  END
>  <DRUGBANK_ID>  (1) 
DB02370

>  <SECONDARY_ACCESSION_NUMBERS>  (1) 
EXPT02135

>  <COMMON_NAME>  (1) 
Nz-(1-Carboxyethyl)-Lysine

$$$$
