
     RDKit          3D

 40 42  0  0  0  0  0  0  0  0999 V2000
   -0.5556    1.4448   -4.3857 C   0  0  1  0  0  0  0  0  0  0  0  0
   -0.8318    2.1951   -3.1302 C   0  0  1  0  0  0  0  0  0  0  0  0
    1.9761    0.9832   -4.2163 O   0  0  0  0  0  0  0  0  0  0  0  0
    0.6646    0.4466   -4.2868 C   0  0  1  0  0  0  0  0  0  0  0  0
    0.5142    2.6569   -2.6344 C   0  0  2  0  0  0  0  0  0  0  0  0
    2.2130    1.7136   -3.0176 C   0  0  2  0  0  0  0  0  0  0  0  0
   -0.1859   -1.7549   -0.0114 C   0  0  2  0  0  0  0  0  0  0  0  0
   -0.8476   -2.7572    0.8696 C   0  0  0  0  0  0  0  0  0  0  0  0
   -1.1655   -0.7592   -0.2211 O   0  0  0  0  0  0  0  0  0  0  0  0
   -0.7688   -0.0009   -1.3345 C   0  0  2  0  0  0  0  0  0  0  0  0
    0.4078   -0.6605   -2.0582 C   0  0  2  0  0  0  0  0  0  0  0  0
   -0.5435    1.3893   -0.8713 O   0  0  0  0  0  0  0  0  0  0  0  0
    1.8709    1.0475    1.8755 C   0  0  1  0  0  0  0  0  0  0  0  0
    1.7836   -0.1240    2.6957 O   0  0  0  0  0  0  0  0  0  0  0  0
    0.5581    2.0126   -0.0854 C   0  0  2  0  0  0  0  0  0  0  0  0
    3.3419    2.1719    0.1428 C   0  0  1  0  0  0  0  0  0  0  0  0
    4.5940    1.7482   -0.4444 O   0  0  0  0  0  0  0  0  0  0  0  0
    2.1019    2.4767   -0.8046 C   0  0  2  0  0  0  0  0  0  0  0  0
    3.1258    0.9657    1.0527 C   0  0  1  0  0  0  0  0  0  0  0  0
    0.7044    1.0126    0.9783 C   0  0  2  0  0  0  0  0  0  0  0  0
   -0.5251    0.9446    1.6907 O   0  0  0  0  0  0  0  0  0  0  0  0
    2.2614    3.8280   -2.1805 N   0  0  0  0  0  0  0  0  0  0  0  0
    1.6485    4.6877   -4.6081 N   0  0  0  0  0  0  0  0  0  0  0  0
    2.3702    3.7939   -3.8900 C   0  0  0  0  0  0  0  0  0  0  0  0
    2.9199    3.0616   -4.8255 N   0  0  0  0  0  0  0  0  0  0  0  0
    0.4498   -0.7276   -3.4837 O   0  0  0  0  0  0  0  0  0  0  0  0
    0.1520    3.8182   -1.5282 O   0  0  0  0  0  0  0  0  0  0  0  0
   -1.7608    3.3140   -3.2072 O   0  0  0  0  0  0  0  0  0  0  0  0
    3.9948    2.4804   -2.7702 C   0  0  0  0  0  0  0  0  0  0  0  0
    4.3727    3.5246   -1.7315 O   0  0  0  0  0  0  0  0  0  0  0  0
   -1.7153    0.0524   -5.8995 C   0  0  0  0  0  0  0  0  0  0  0  0
   -1.7804    0.6756   -4.6087 N   0  0  0  0  0  0  0  0  0  0  0  0
    4.2506    0.9043    1.9686 N   0  0  0  0  0  0  0  0  0  0  0  0
    6.3284    0.3265    2.5085 N   0  0  0  0  0  0  0  0  0  0  0  0
    5.2464    0.0033    1.7487 C   0  0  0  0  0  0  0  0  0  0  0  0
    5.1601   -0.9802    0.9813 N   0  0  0  0  0  0  0  0  0  0  0  0
    1.9313   -2.4737   -1.2027 C   0  0  0  0  0  0  0  0  0  0  0  0
    1.9740   -3.6296   -0.3739 O   0  0  0  0  0  0  0  0  0  0  0  0
    0.4673   -2.0281   -1.3710 C   0  0  1  0  0  0  0  0  0  0  0  0
   -0.2902   -2.9866   -2.0890 O   0  0  0  0  0  0  0  0  0  0  0  0
  1  4  1  0
  1 32  1  1
  2  1  1  0
  2 28  1  6
  3  4  1  0
  3  6  1  0
  4 26  1  1
  5  2  1  0
  5 27  1  1
  6  5  1  0
  6 29  1  6
  7 39  1  0
  7  8  1  6
  9  7  1  0
  9 10  1  0
 10 12  1  1
 11 10  1  0
 11 26  1  6
 13 14  1  1
 15 12  1  6
 15 20  1  0
 16 18  1  0
 16 17  1  6
 18 15  1  0
 18 22  1  1
 19 13  1  0
 19 16  1  0
 19 33  1  1
 20 13  1  0
 20 21  1  1
 22 24  1  0
 24 23  1  0
 24 25  2  0
 29 30  1  0
 32 31  1  0
 34 35  1  0
 35 33  1  0
 35 36  2  0
 37 38  1  0
 39 11  1  0
 39 37  1  0
 39 40  1  6
M  END
>  <DRUGBANK_ID>  (1) 
DB11512

>  <COMMON_NAME>  (1) 
Dihydrostreptomycin

>  <CAS_NUMBER>  (1) 
128-46-1

>  <UNII>  (1) 
P2I6R8W6UA

>  <SYNONYMS>  (1) 
DHMS; Dihidroestreptomicina; Dihydrostreptomycin; Dihydrostreptomycine; Dihydrostreptomycinum; DST; N,N'''-[(1R,2R,3S,4R,5R,6S)-4-({5-deoxy-2-O-[2-deoxy-2-(methylamino)-a-L-glucopyranosyl]-3-C-(hydroxymethyl)-a-L-lyxofuranosyl}oxy)-2,5,6-trihydroxycyclohexane-1,3-diyl]diguanidine; N,N'''-[(1R,2R,3S,4R,5R,6S)-4-({5-deoxy-2-O-[2-deoxy-2-(methylamino)-alpha-L-glucopyranosyl]-3-C-(hydroxymethyl)-alpha-L-lyxofuranosyl}oxy)-2,5,6-trihydroxycyclohexane-1,3-diyl]diguanidine; N,N'''-[(1R,2R,3S,4R,5R,6S)-4-({5-deoxy-2-O-[2-deoxy-2-(methylamino)-α-L-glucopyranosyl]-3-C-(hydroxymethyl)-α-L-lyxofuranosyl}oxy)-2,5,6-trihydroxycyclohexane-1,3-diyl]diguanidine

$$$$
