
     RDKit          3D

 30 33  0  0  0  0  0  0  0  0999 V2000
   -1.2552   -1.4052    0.8924 C   0  0  0  0  0  0  0  0  0  0  0  0
   -0.3126   -0.3923    0.7947 C   0  0  0  0  0  0  0  0  0  0  0  0
   -0.6085    0.9927    0.9269 C   0  0  0  0  0  0  0  0  0  0  0  0
   -1.8475    1.5600    1.1128 C   0  0  0  0  0  0  0  0  0  0  0  0
   -2.6851    0.6366    0.6894 C   0  0  0  0  0  0  0  0  0  0  0  0
   -2.4258   -0.7651    0.5973 C   0  0  0  0  0  0  0  0  0  0  0  0
    1.0296   -0.4434    0.3698 C   0  0  0  0  0  0  0  0  0  0  0  0
    1.4721    0.8734    0.2639 C   0  0  0  0  0  0  0  0  0  0  0  0
    0.4399    1.6882    0.4779 N   0  0  0  0  0  0  0  0  0  0  0  0
    3.2040   -1.1897   -0.0859 C   0  0  0  0  0  0  0  0  0  0  0  0
    3.6409    0.1432   -0.0666 C   0  0  0  0  0  0  0  0  0  0  0  0
    2.7722    1.2147   -0.0014 C   0  0  0  0  0  0  0  0  0  0  0  0
    1.8601   -1.5016    0.0432 C   0  0  0  0  0  0  0  0  0  0  0  0
   -1.0718   -2.7625    0.7407 O   0  0  0  0  0  0  0  0  0  0  0  0
   -2.1564   -3.7314    0.6815 C   0  0  0  0  0  0  0  0  0  0  0  0
   -3.2612   -3.7828    1.7540 C   0  0  0  0  0  0  0  0  0  0  0  0
   -4.2848   -2.5826    1.7543 C   0  0  0  0  0  0  0  0  0  0  0  0
   -5.1056   -2.5874    0.4855 N   0  0  0  0  0  0  0  0  0  0  0  0
   -5.8520   -1.3914    0.0158 C   0  0  0  0  0  0  0  0  0  0  0  0
   -4.9958   -0.2525   -0.5110 C   0  0  0  0  0  0  0  0  0  0  0  0
   -4.0171   -0.2851   -1.6950 O   0  0  0  0  0  0  0  0  0  0  0  0
   -3.1049   -1.2672   -2.1347 C   0  0  0  0  0  0  0  0  0  0  0  0
   -3.5678   -2.5832   -2.2760 C   0  0  0  0  0  0  0  0  0  0  0  0
   -1.6910   -1.0948   -2.3762 C   0  0  0  0  0  0  0  0  0  0  0  0
   -0.8339   -2.2449   -2.5049 C   0  0  0  0  0  0  0  0  0  0  0  0
   -1.3216   -3.5387   -2.4068 C   0  0  0  0  0  0  0  0  0  0  0  0
   -2.6975   -3.7012   -2.3701 C   0  0  0  0  0  0  0  0  0  0  0  0
   -0.8795    0.0122   -2.4290 O   0  0  0  0  0  0  0  0  0  0  0  0
   -1.3509    1.3122   -2.2032 C   0  0  0  0  0  0  0  0  0  0  0  0
   -4.0585   -4.9581    1.4840 O   0  0  0  0  0  0  0  0  0  0  0  0
  1  2  2  0
  1  6  1  0
  1 14  1  0
  2  3  1  0
  3  4  2  0
  4  5  1  0
  5  6  2  0
  7  2  1  0
  7 13  2  0
  8  9  1  0
  8  7  1  0
  9  3  1  0
 10 11  2  0
 10 13  1  0
 11 12  1  0
 12  8  2  0
 14 15  1  0
 15 16  1  0
 16 17  1  0
 16 30  1  0
 17 18  1  0
 18 19  1  0
 19 20  1  0
 20 21  1  0
 21 22  1  0
 22 24  1  0
 23 22  2  0
 23 27  1  0
 24 25  2  0
 24 28  1  0
 25 26  1  0
 26 27  2  0
 28 29  1  0
M  END
>  <DRUGBANK_ID>  (1) 
DB01136

>  <SECONDARY_ACCESSION_NUMBERS>  (1) 
APRD00091

>  <COMMON_NAME>  (1) 
Carvedilol

>  <CAS_NUMBER>  (1) 
72956-09-3

>  <UNII>  (1) 
0K47UL67F2

>  <SYNONYMS>  (1) 
(+-)-1-(Carbazol-4-yloxy)-3-((2-(o-methoxyphenoxy)ethyl)amino)-2-propanol; Carv√©dilol; Carvedilol; Carvedilolum

$$$$
