
     RDKit          3D

 30 34  0  0  0  0  0  0  0  0999 V2000
    1.3636   -0.2132    0.0150 C   0  0  0  0  0  0  0  0  0  0  0  0
    0.4848   -1.2927    0.0179 C   0  0  0  0  0  0  0  0  0  0  0  0
   -0.8974   -1.0710   -0.0163 C   0  0  0  0  0  0  0  0  0  0  0  0
   -1.4277    0.2336   -0.0484 C   0  0  0  0  0  0  0  0  0  0  0  0
   -0.5217    1.3057   -0.0051 C   0  0  0  0  0  0  0  0  0  0  0  0
    0.8609    1.0856   -0.0012 C   0  0  0  0  0  0  0  0  0  0  0  0
   -2.8761    0.4674   -0.1522 C   0  0  0  0  0  0  0  0  0  0  0  0
   -3.7838   -0.0235    0.7664 C   0  0  0  0  0  0  0  0  0  0  0  0
   -5.1695    0.1718    0.5793 C   0  0  0  0  0  0  0  0  0  0  0  0
   -5.6258    0.8816   -0.5536 C   0  0  0  0  0  0  0  0  0  0  0  0
   -4.7046    1.3299   -1.4337 N   0  0  0  0  0  0  0  0  0  0  0  0
   -3.3267    1.1414   -1.2269 N   0  0  0  0  0  0  0  0  0  0  0  0
   -6.9664    1.1034   -0.7968 N   0  0  0  0  0  0  0  0  0  0  0  0
   -7.8304    1.8666    0.1189 C   0  0  0  0  0  0  0  0  0  0  0  0
   -9.1073    1.0618    0.4529 C   0  0  0  0  0  0  0  0  0  0  0  0
   -9.7246    0.5296   -0.7551 N   0  0  0  0  0  0  0  0  0  0  0  0
   -8.8772   -0.1828   -1.7045 C   0  0  0  0  0  0  0  0  0  0  0  0
   -7.6183    0.6812   -2.0457 C   0  0  0  0  0  0  0  0  0  0  0  0
  -11.0598    0.7210   -0.9803 C   0  0  0  0  0  0  0  0  0  0  0  0
  -11.8420   -0.3486   -1.1848 N   0  0  0  0  0  0  0  0  0  0  0  0
  -13.1644   -0.1203   -1.3518 C   0  0  0  0  0  0  0  0  0  0  0  0
  -13.7192    1.1320   -1.3958 C   0  0  0  0  0  0  0  0  0  0  0  0
  -12.8340    2.1615   -1.2182 C   0  0  0  0  0  0  0  0  0  0  0  0
  -11.5185    1.9813   -0.9749 N   0  0  0  0  0  0  0  0  0  0  0  0
   -6.0820   -0.4809    1.5306 C   0  0  0  0  0  0  0  0  0  0  0  0
   -6.1413   -0.0947    2.8722 C   0  0  0  0  0  0  0  0  0  0  0  0
   -7.0807   -0.6970    3.6935 C   0  0  0  0  0  0  0  0  0  0  0  0
   -7.9510   -1.6413    3.2771 N   0  0  0  0  0  0  0  0  0  0  0  0
   -7.8575   -2.0284    1.9892 C   0  0  0  0  0  0  0  0  0  0  0  0
   -6.9334   -1.5050    1.1016 C   0  0  0  0  0  0  0  0  0  0  0  0
  1  2  2  0
  1  6  1  0
  2  3  1  0
  3  4  2  0
  4  5  1  0
  4  7  1  0
  5  6  2  0
  7  8  2  0
  7 12  1  0
  8  9  1  0
  9 10  2  0
  9 25  1  0
 10 11  1  0
 10 13  1  0
 11 12  2  0
 13 14  1  0
 13 18  1  0
 14 15  1  0
 15 16  1  0
 16 17  1  0
 16 19  1  0
 17 18  1  0
 19 20  2  0
 19 24  1  0
 20 21  1  0
 21 22  2  0
 22 23  1  0
 23 24  2  0
 25 26  2  0
 25 30  1  0
 26 27  1  0
 27 28  2  0
 28 29  1  0
 29 30  2  0
M  END
>  <DRUGBANK_ID>  (1) 
DB12899

>  <COMMON_NAME>  (1) 
TT-301

>  <CAS_NUMBER>  (1) 
886208-76-0

>  <UNII>  (1) 
CY416F5NSK

$$$$
