44112
     RDKit          3D

 28 30  0  0  1  0  0  0  0  0999 V2000
    1.5023    0.5550   -0.1867 O   0  0  0  0  0  0  0  0  0  0  0  0
    0.1895   -1.7626   -1.9528 O   0  0  0  0  0  0  0  0  0  0  0  0
    3.3189   -0.2345    1.0056 O   0  0  0  0  0  0  0  0  0  0  0  0
    1.5324    2.5134   -1.8218 N   0  0  0  0  0  0  0  0  0  0  0  0
    1.4380   -1.8335    2.6733 N   0  0  0  0  0  0  0  0  0  0  0  0
    2.1962    3.8402   -1.9012 C   0  0  0  0  0  0  0  0  0  0  0  0
    0.1783    2.1246   -1.5455 C   0  0  0  0  0  0  0  0  0  0  0  0
    0.3575    0.5974   -1.2679 C   0  0  0  0  0  0  0  0  0  0  0  0
    1.9232    4.5507   -0.5991 C   0  0  0  0  0  0  0  0  0  0  0  0
    3.8833    4.1110   -2.0163 C   0  0  0  0  0  0  0  0  0  0  0  0
    1.5437    4.3204   -3.1764 C   0  0  0  0  0  0  0  0  0  0  0  0
    0.6358   -0.4302   -2.3428 C   0  0  0  0  0  0  0  0  0  0  0  0
    0.6578   -1.9189    0.5524 C   0  0  0  0  0  0  0  0  0  0  0  0
    0.7147   -2.3821   -0.8096 C   0  0  0  0  0  0  0  0  0  0  0  0
    1.3261   -2.6452    1.5465 C   0  0  0  0  0  0  0  0  0  0  0  0
    0.1104   -0.8115    1.2847 C   0  0  0  0  0  0  0  0  0  0  0  0
    0.8312   -0.6291    2.4423 C   0  0  0  0  0  0  0  0  0  0  0  0
    1.1885   -3.6897   -1.0273 C   0  0  0  0  0  0  0  0  0  0  0  0
    1.7801   -3.9470    1.3242 C   0  0  0  0  0  0  0  0  0  0  0  0
    2.7827    0.0092   -0.0402 C   0  0  0  0  0  0  0  0  0  0  0  0
    1.6551   -4.4719    0.0328 C   0  0  0  0  0  0  0  0  0  0  0  0
    0.9886    0.6362    3.2147 C   0  0  0  0  0  0  0  0  0  0  0  0
    3.6356    0.1686   -1.2158 C   0  0  0  0  0  0  0  0  0  0  0  0
    3.7591    1.4310   -1.5991 C   0  0  0  0  0  0  0  0  0  0  0  0
    4.5865   -0.6045   -1.7887 C   0  0  0  0  0  0  0  0  0  0  0  0
    3.7481    1.5927   -2.9684 C   0  0  0  0  0  0  0  0  0  0  0  0
    5.3255   -0.0333   -2.8583 C   0  0  0  0  0  0  0  0  0  0  0  0
    4.8198    1.0493   -3.5444 C   0  0  0  0  0  0  0  0  0  0  0  0
  1  8  1  0
  1 20  1  0
  2 12  1  0
  2 14  1  0
  3 20  2  0
  4  6  1  0
  4  7  1  0
  5 15  1  0
  5 17  1  0
  6  9  1  0
  6 10  1  0
  6 11  1  0
  7  8  1  0
  8 12  1  0
 13 14  1  0
 13 15  2  0
 13 16  1  0
 14 18  2  0
 15 19  1  0
 16 17  2  0
 17 22  1  0
 18 21  1  0
 19 21  2  0
 20 23  1  0
 23 24  2  0
 23 25  1  0
 24 26  1  0
 25 27  2  0
 26 28  2  0
 27 28  1  0
M  END
>  <DRUGBANK_ID>  (1) 
DB08807

>  <COMMON_NAME>  (1) 
Bopindolol

>  <CAS_NUMBER>  (1) 
62658-63-3

>  <UNII>  (1) 
KT304VZO57

>  <SYNONYMS>  (1) 
Bopindolol; Bopindololum

$$$$
