
     RDKit          3D

 11 11  0  0  0  0  0  0  0  0999 V2000
    1.3886   -0.2228    0.0132 C   0  0  0  0  0  0  0  0  0  0  0  0
    0.5044   -1.3007    0.0146 C   0  0  0  0  0  0  0  0  0  0  0  0
    0.8990    1.0804    0.0057 C   0  0  0  0  0  0  0  0  0  0  0  0
   -0.8734   -1.0766   -0.0156 C   0  0  0  0  0  0  0  0  0  0  0  0
   -0.4750    1.3068    0.0337 C   0  0  0  0  0  0  0  0  0  0  0  0
   -1.3778    0.2323   -0.0244 C   0  0  0  0  0  0  0  0  0  0  0  0
   -2.8642    0.4891   -0.1524 C   0  0  0  0  0  0  0  0  0  0  0  0
   -3.4249    1.2747    1.0382 C   0  0  0  0  0  0  0  0  0  0  0  0
   -3.0833    1.1618   -1.3950 O   0  0  0  0  0  0  0  0  0  0  0  0
   -3.9273    2.3924    0.9922 O   0  0  0  0  0  0  0  0  0  0  0  0
   -3.3006    0.6334    2.2189 O   0  0  0  0  0  0  0  0  0  0  0  0
  2  1  2  0
  3  1  1  0
  4  2  1  0
  5  3  2  0
  6  4  2  0
  6  5  1  0
  7  6  1  0
  8  7  1  0
  9  7  1  0
 10  8  2  0
 11  8  1  0
M  END
>  <DRUGBANK_ID>  (1) 
DB13218

>  <COMMON_NAME>  (1) 
Mandelic acid

>  <CAS_NUMBER>  (1) 
90-64-2

>  <UNII>  (1) 
NH496X0UJX

$$$$
