
     RDKit          3D

 20 21  0  0  0  0  0  0  0  0999 V2000
    6.4822    3.0137   -5.0583 Br  0  0  0  0  0  0  0  0  0  0  0  0
    2.8355   -2.5200    5.5824 F   0  0  0  0  0  0  0  0  0  0  0  0
    1.1664   -0.3595    1.0999 O   0  0  0  0  0  0  0  0  0  0  0  0
    3.8123    1.8501    2.5713 O   0  0  0  0  0  0  0  0  0  0  0  0
    3.2075    0.0873    0.2317 N   0  0  0  0  0  0  0  0  0  0  0  0
    4.6688   -0.0763   -0.0098 C   0  0  1  0  0  0  0  0  0  0  0  0
    5.0453    0.6520   -1.2873 C   0  0  0  0  0  0  0  0  0  0  0  0
    5.6277    0.4924    1.0285 C   0  0  0  0  0  0  0  0  0  0  0  0
    4.8203    2.0397   -1.3964 C   0  0  0  0  0  0  0  0  0  0  0  0
    5.7325   -0.0139   -2.3064 C   0  0  0  0  0  0  0  0  0  0  0  0
    2.3624   -0.2571    1.2854 C   0  0  0  0  0  0  0  0  0  0  0  0
    2.8936   -0.3737    2.6651 C   0  0  0  0  0  0  0  0  0  0  0  0
    5.2653    2.7474   -2.5057 C   0  0  0  0  0  0  0  0  0  0  0  0
    6.1615    0.6934   -3.4291 C   0  0  0  0  0  0  0  0  0  0  0  0
    3.7124    0.6288    3.1770 C   0  0  0  0  0  0  0  0  0  0  0  0
    5.9216    2.0658   -3.5246 C   0  0  0  0  0  0  0  0  0  0  0  0
    2.5464   -1.4314    3.5019 C   0  0  0  0  0  0  0  0  0  0  0  0
    4.5080    0.4030    4.2956 C   0  0  0  0  0  0  0  0  0  0  0  0
    3.2017   -1.5547    4.7305 C   0  0  0  0  0  0  0  0  0  0  0  0
    4.2409   -0.6994    5.0919 C   0  0  0  0  0  0  0  0  0  0  0  0
  1 16  1  0
  2 19  1  0
  3 11  2  0
  4 15  1  0
  5 11  1  0
  6  8  1  1
  6  7  1  0
  6  5  1  0
  7  9  2  0
  7 10  1  0
  9 13  1  0
 10 14  2  0
 11 12  1  0
 12 15  2  0
 12 17  1  0
 13 16  2  0
 14 16  1  0
 15 18  1  0
 17 19  2  0
 18 20  2  0
 19 20  1  0
M  END
>  <DRUGBANK_ID>  (1) 
DB02880

>  <SECONDARY_ACCESSION_NUMBERS>  (1) 
EXPT00680

>  <COMMON_NAME>  (1) 
N-[(1R)-1-(4-Bromophenyl)ethyl]-5-fluoro-2-hydroxybenzamide

>  <CAS_NUMBER>  (1) 
163669-81-6

$$$$
