916
     RDKit          3D

 12 12  0  0  0  0  0  0  0  0999 V2000
    0.5372    0.2728    0.1160 O   0  0  0  0  0  0  0  0  0  0  0  0
    2.0989   -1.0525   -1.6197 O   0  0  0  0  0  0  0  0  0  0  0  0
    4.2527   -1.2405   -1.4497 O   0  0  0  0  0  0  0  0  0  0  0  0
    2.5050    1.9304   -1.4415 N   0  0  0  0  0  0  0  0  0  0  0  0
    4.5787    2.7879   -1.3802 N   0  0  0  0  0  0  0  0  0  0  0  0
    3.2307   -0.5654   -1.5312 N   0  0  0  0  0  0  0  0  0  0  0  0
    1.0502    2.0617   -1.3886 C   0  0  0  0  0  0  0  0  0  0  0  0
    3.2990    3.0884   -1.4078 C   0  0  0  0  0  0  0  0  0  0  0  0
    3.3933    0.8649   -1.4804 C   0  0  0  0  0  0  0  0  0  0  0  0
    0.2495    0.8038   -1.1736 C   0  0  0  0  0  0  0  0  0  0  0  0
    4.6460    1.4324   -1.4178 C   0  0  0  0  0  0  0  0  0  0  0  0
    2.7775    4.4892   -1.3994 C   0  0  0  0  0  0  0  0  0  0  0  0
  1 10  1  0
  2  6  1  0
  3  6  2  0
  4  7  1  0
  4  8  1  0
  4  9  1  0
  5  8  2  0
  5 11  1  0
  6  9  1  0
  7 10  1  0
  8 12  1  0
  9 11  2  0
M  CHG  2   2  -1   6   1
M  END
>  <DRUGBANK_ID>  (1) 
DB00916

>  <SECONDARY_ACCESSION_NUMBERS>  (1) 
APRD00631

>  <COMMON_NAME>  (1) 
Metronidazole

>  <CAS_NUMBER>  (1) 
443-48-1

>  <UNII>  (1) 
140QMO216E

>  <SYNONYMS>  (1) 
1-(2-hydroxy-1-ethyl)-2-methyl-5-nitroimidazole; 1-(2-hydroxyethyl)-2-methyl-5-nitroimidazole; 1-(β-ethylol)-2-methyl-5-nitro-3-azapyrrole; 1-(β-hydroxyethyl)-2-methyl-5-nitroimidazole; 1-(β-oxyethyl)-2-methyl-5-nitroimidazole; 2-methyl-1-(2-hydroxyethyl)-5-nitroimidazole; 2-methyl-3-(2-hydroxyethyl)-4-nitroimidazole; 2-methyl-5-nitroimidazole-1-ethanol; Metronidazol; Métronidazole; Metronidazole; Metronidazolum

$$$$
