
     RDKit          3D

 40 41  0  0  0  0  0  0  0  0999 V2000
    1.3419    0.1053    0.2448 C   0  0  0  0  0  0  0  0  0  0  0  0
    0.2716   -0.7722    0.0673 C   0  0  0  0  0  0  0  0  0  0  0  0
    2.6758   -0.4795    0.1649 O   0  0  0  0  0  0  0  0  0  0  0  0
    0.9955    1.4220    0.1638 C   0  0  0  0  0  0  0  0  0  0  0  0
   -1.1007   -0.7070    0.3657 C   0  0  0  0  0  0  0  0  0  0  0  0
    3.3244   -1.8290    0.2864 C   0  0  0  0  0  0  0  0  0  0  0  0
   -0.3944    1.6784    0.2294 C   0  0  0  0  0  0  0  0  0  0  0  0
   -1.3986    0.6446    0.3732 C   0  0  0  0  0  0  0  0  0  0  0  0
   -2.2072   -1.8721   -0.1384 N   0  0  0  0  0  0  0  0  0  0  0  0
    2.5626   -3.0035    0.2183 N   0  0  0  0  0  0  0  0  0  0  0  0
    4.5394   -1.8911    0.4479 O   0  0  0  0  0  0  0  0  0  0  0  0
    3.0366   -4.3573    0.4624 C   0  0  0  0  0  0  0  0  0  0  0  0
    1.2158   -3.0190   -0.0521 C   0  0  0  0  0  0  0  0  0  0  0  0
    2.3177   -5.0193    1.6847 C   0  0  0  0  0  0  0  0  0  0  0  0
    0.7800   -5.1945    1.5925 C   0  0  0  0  0  0  0  0  0  0  0  0
    0.3576   -5.9268    0.2755 C   0  0  0  0  0  0  0  0  0  0  0  0
    0.8781   -7.3301    0.3484 C   0  0  0  0  0  0  0  0  0  0  0  0
    0.2204   -7.9732    1.5494 C   0  0  0  0  0  0  0  0  0  0  0  0
   -1.2854   -7.9235    1.3566 C   0  0  0  0  0  0  0  0  0  0  0  0
   -1.6062   -8.6784    0.0695 C   0  0  0  0  0  0  0  0  0  0  0  0
   -1.2690  -10.1584    0.1900 C   0  0  0  0  0  0  0  0  0  0  0  0
   -1.8972  -10.8193    1.4272 C   0  0  0  0  0  0  0  0  0  0  0  0
   -3.3660  -10.7987    1.4266 N   0  0  0  0  0  0  0  0  0  0  0  0
   -4.0454  -12.0025    1.3108 C   0  0  0  0  0  0  0  0  0  0  0  0
   -4.0146   -9.5200    1.6576 C   0  0  0  0  0  0  0  0  0  0  0  0
   -5.4488  -12.0268    1.1486 O   0  0  0  0  0  0  0  0  0  0  0  0
   -6.3478  -10.9725    0.7921 C   0  0  0  0  0  0  0  0  0  0  0  0
   -5.9898  -10.0275   -0.2052 C   0  0  0  0  0  0  0  0  0  0  0  0
   -7.4485  -10.8125    1.6287 C   0  0  0  0  0  0  0  0  0  0  0  0
   -6.5556   -8.7255   -0.1562 C   0  0  0  0  0  0  0  0  0  0  0  0
   -8.2006   -9.6788    1.4810 C   0  0  0  0  0  0  0  0  0  0  0  0
   -7.6880   -8.6427    0.7100 C   0  0  0  0  0  0  0  0  0  0  0  0
   -6.2268   -7.5666   -1.2360 N   0  0  0  0  0  0  0  0  0  0  0  0
   -3.4324  -13.1133    1.3260 O   0  0  0  0  0  0  0  0  0  0  0  0
   -2.7649   -1.1548   -1.3308 C   0  0  0  0  0  0  0  0  0  0  0  0
   -3.5499   -2.2224    0.5656 C   0  0  0  0  0  0  0  0  0  0  0  0
   -1.6142   -3.2836   -0.1415 C   0  0  0  0  0  0  0  0  0  0  0  0
   -7.7244   -7.1929   -1.3478 C   0  0  0  0  0  0  0  0  0  0  0  0
   -6.1051   -6.0679   -1.6085 C   0  0  0  0  0  0  0  0  0  0  0  0
   -4.9160   -8.0083   -1.9485 C   0  0  0  0  0  0  0  0  0  0  0  0
  1  2  2  0
  1  3  1  0
  1  4  1  0
  2  5  1  0
  3  6  1  0
  4  7  2  0
  5  8  2  0
  5  9  1  0
  6 10  1  0
  6 11  2  0
  7  8  1  0
  9 35  1  0
  9 36  1  0
  9 37  1  0
 10 12  1  0
 10 13  1  0
 12 14  1  0
 14 15  1  0
 15 16  1  0
 16 17  1  0
 17 18  1  0
 18 19  1  0
 19 20  1  0
 20 21  1  0
 21 22  1  0
 22 23  1  0
 23 24  1  0
 23 25  1  0
 24 26  1  0
 24 34  2  0
 26 27  1  0
 27 28  2  0
 27 29  1  0
 28 30  1  0
 29 31  2  0
 30 32  2  0
 30 33  1  0
 31 32  1  0
 33 38  1  0
 33 39  1  0
 33 40  1  0
M  CHG  2   9   1  33   1
M  END
>  <DRUGBANK_ID>  (1) 
DB00944

>  <SECONDARY_ACCESSION_NUMBERS>  (1) 
APRD00905

>  <COMMON_NAME>  (1) 
Demecarium

>  <CAS_NUMBER>  (1) 
16505-84-3

>  <UNII>  (1) 
ILP8XJ8R5K

>  <SYNONYMS>  (1) 
Demecarium; Demecarium cation; Demecarium ion

$$$$
