730
     RDKit          3D

 14 16  0  0  0  0  0  0  0  0999 V2000
   -1.1147   -0.0368    0.0545 S   0  0  0  0  0  0  0  0  0  0  0  0
    3.4754    1.5783   -0.9477 N   0  0  0  0  0  0  0  0  0  0  0  0
    2.7076    2.6278    0.8493 N   0  0  0  0  0  0  0  0  0  0  0  0
    1.3970   -0.6002   -0.1769 N   0  0  0  0  0  0  0  0  0  0  0  0
    4.4043    2.5458   -0.6705 C   0  0  0  0  0  0  0  0  0  0  0  0
    3.9315    3.1426    0.4950 C   0  0  0  0  0  0  0  0  0  0  0  0
    2.4794    1.6568   -0.0146 C   0  0  0  0  0  0  0  0  0  0  0  0
    1.2875    0.7707   -0.0170 C   0  0  0  0  0  0  0  0  0  0  0  0
    5.5805    2.9386   -1.3107 C   0  0  0  0  0  0  0  0  0  0  0  0
    4.6981    4.1444    1.1087 C   0  0  0  0  0  0  0  0  0  0  0  0
    6.3162    3.9609   -0.6999 C   0  0  0  0  0  0  0  0  0  0  0  0
    5.8917    4.5477    0.4953 C   0  0  0  0  0  0  0  0  0  0  0  0
    0.0038    1.2622    0.0861 C   0  0  0  0  0  0  0  0  0  0  0  0
    0.2008   -1.1356   -0.0528 C   0  0  0  0  0  0  0  0  0  0  0  0
  1 13  1  0
  1 14  1  0
  2  5  1  0
  2  7  1  0
  3  6  1  0
  3  7  2  0
  4  8  1  0
  4 14  2  0
  5  6  2  0
  5  9  1  0
  6 10  1  0
  7  8  1  0
  8 13  2  0
  9 11  2  0
 10 12  2  0
 11 12  1  0
M  END
>  <DRUGBANK_ID>  (1) 
DB00730

>  <SECONDARY_ACCESSION_NUMBERS>  (1) 
APRD01252; DB08630

>  <COMMON_NAME>  (1) 
Thiabendazole

>  <CAS_NUMBER>  (1) 
148-79-8

>  <UNII>  (1) 
N1Q45E87DT

>  <SYNONYMS>  (1) 
2-(1,3-thiazole-4-yl)-1H-benzimidazole; 2-(4-thiazolyl)-1H-benzimidazole; 2-(thiazol-4-yl)benzimidazole; 4-(2-benzimidazolyl)thiazole; TBDZ; Thiabendazole; Tiabendazol; Tiabendazole; Tiabendazolum

$$$$
