
     RDKit          3D

 27 28  0  0  1  0  0  0  0  0999 V2000
    2.8572    0.3382    0.1013 C   0  0  0  0  0  0  0  0  0  0  0  0
    1.3943    0.0757    0.1243 C   0  0  0  0  0  0  0  0  0  0  0  0
    0.6055    1.2341    0.0906 C   0  0  0  0  0  0  0  0  0  0  0  0
   -0.7856    1.1858    0.1061 C   0  0  0  0  0  0  0  0  0  0  0  0
   -1.4009   -0.0799    0.2067 C   0  0  0  0  0  0  0  0  0  0  0  0
   -0.6105   -1.2422    0.0995 C   0  0  0  0  0  0  0  0  0  0  0  0
    0.7906   -1.1858    0.0571 C   0  0  0  0  0  0  0  0  0  0  0  0
    1.3784   -2.4171   -0.0736 O   0  0  0  0  0  0  0  0  0  0  0  0
    2.7895   -2.5777   -0.1126 C   0  0  0  0  0  0  0  0  0  0  0  0
    3.5393   -2.1151   -1.3612 C   0  0  0  0  0  0  0  0  0  0  0  0
    4.6288   -1.5321   -1.3780 O   0  0  0  0  0  0  0  0  0  0  0  0
    2.8877   -2.3427   -2.5133 O   0  0  0  0  0  0  0  0  0  0  0  0
   -2.8867   -0.2741    0.3789 C   0  0  0  0  0  0  0  0  0  0  0  0
   -1.5159    2.5176    0.0104 C   0  0  0  0  0  0  0  0  0  0  0  0
   -2.2908    2.7496   -1.3081 C   0  0  0  0  0  0  0  0  0  0  0  0
   -3.2295    1.6681   -1.5147 N   0  0  0  0  0  0  0  0  0  0  0  0
   -4.1363    1.6714   -2.6424 C   0  0  1  0  0  0  0  0  0  0  0  0
   -3.2901    1.4859   -3.8942 C   0  0  0  0  0  0  0  0  0  0  0  0
   -5.1659    0.4848   -2.4816 C   0  0  1  0  0  0  0  0  0  0  0  0
   -6.0308    0.5300   -1.2259 C   0  0  0  0  0  0  0  0  0  0  0  0
   -6.4010    1.7504   -0.6378 C   0  0  0  0  0  0  0  0  0  0  0  0
   -7.1910    1.7949    0.5114 C   0  0  0  0  0  0  0  0  0  0  0  0
   -7.6334    0.6089    1.0796 C   0  0  0  0  0  0  0  0  0  0  0  0
   -7.2790   -0.6157    0.5277 C   0  0  0  0  0  0  0  0  0  0  0  0
   -6.4834   -0.6583   -0.6233 C   0  0  0  0  0  0  0  0  0  0  0  0
   -8.4274    0.6055    2.1878 O   0  0  0  0  0  0  0  0  0  0  0  0
   -6.0368    0.4601   -3.6129 O   0  0  0  0  0  0  0  0  0  0  0  0
  1  2  1  0
  2  3  2  0
  2  7  1  0
  3  4  1  0
  4  5  2  0
  4 14  1  0
  5  6  1  0
  5 13  1  0
  6  7  2  0
  7  8  1  0
  8  9  1  0
  9 10  1  0
 10 11  2  0
 10 12  1  0
 14 15  1  0
 15 16  1  0
 16 17  1  0
 17 18  1  6
 17 19  1  0
 19 20  1  0
 19 27  1  6
 20 21  2  0
 20 25  1  0
 21 22  1  0
 22 23  2  0
 23 24  1  0
 23 26  1  0
 24 25  2  0
M  END
>  <DRUGBANK_ID>  (1) 
DB12080

>  <COMMON_NAME>  (1) 
Ritobegron

>  <CAS_NUMBER>  (1) 
255734-04-4

>  <UNII>  (1) 
LD86RKR53M

>  <SYNONYMS>  (1) 
Ritobegron

$$$$
