
     RDKit          3D

 24 25  0  0  0  0  0  0  0  0999 V2000
    1.1368    0.0965   -0.1427 C   0  0  0  0  0  0  0  0  0  0  0  0
   -3.7865   -0.3729   -5.3669 C   0  0  0  0  0  0  0  0  0  0  0  0
   -3.4546    1.1772   -3.8282 C   0  0  0  0  0  0  0  0  0  0  0  0
    0.6350   -1.2471   -0.6498 C   0  0  0  0  0  0  0  0  0  0  0  0
    0.9298   -2.3896    0.3204 C   0  0  0  0  0  0  0  0  0  0  0  0
   -0.6286    2.0490   -5.9081 C   0  0  0  0  0  0  0  0  0  0  0  0
   -0.7825    0.9077   -5.1450 C   0  0  0  0  0  0  0  0  0  0  0  0
   -0.4384    3.2311   -5.2135 C   0  0  0  0  0  0  0  0  0  0  0  0
   -0.8756    1.0116   -3.7190 C   0  0  0  0  0  0  0  0  0  0  0  0
   -0.7346    3.3647   -3.8192 C   0  0  0  0  0  0  0  0  0  0  0  0
   -1.7960    1.5126    0.5596 C   0  0  0  0  0  0  0  0  0  0  0  0
   -3.0486    0.1105   -0.8976 C   0  0  0  0  0  0  0  0  0  0  0  0
   -1.6009    0.4155    1.4318 C   0  0  0  0  0  0  0  0  0  0  0  0
   -2.8105   -0.9951   -0.0655 C   0  0  0  0  0  0  0  0  0  0  0  0
   -5.5814    1.0224   -4.1377 C   0  0  0  0  0  0  0  0  0  0  0  0
    0.3480   -2.2392    1.7365 C   0  0  0  0  0  0  0  0  0  0  0  0
   -5.7141    1.6915   -2.6322 C   0  0  0  0  0  0  0  0  0  0  0  0
   -1.2025    2.2709   -3.0704 C   0  0  0  0  0  0  0  0  0  0  0  0
   -2.4122    1.3651   -0.6612 C   0  0  0  0  0  0  0  0  0  0  0  0
   -2.0375   -0.8744    1.0466 C   0  0  0  0  0  0  0  0  0  0  0  0
   -2.3081    2.4943   -1.7274 C   0  0  0  0  0  0  0  0  0  0  0  0
   -4.3860    0.2119   -4.1961 N   0  0  0  0  0  0  0  0  0  0  0  0
   -1.4853   -2.3524    1.8812 S   0  0  0  0  0  0  0  0  0  0  0  0
   -4.3587    3.2810   -1.9846 S   0  0  0  0  0  0  0  0  0  0  0  0
  4  1  1  0
  5  4  1  0
  7  6  2  0
  8  6  1  0
  9  7  1  0
 10  8  2  0
 13 11  2  0
 14 12  1  0
 16  5  1  0
 17 15  1  0
 18  9  2  0
 18 10  1  0
 19 11  1  0
 19 12  2  0
 20 13  1  0
 20 14  2  0
 21 18  1  0
 21 19  1  0
 22  2  1  0
 22  3  1  0
 22 15  1  0
 23 16  1  0
 23 20  1  0
 24 17  1  0
 24 21  1  0
M  END
>  <DRUGBANK_ID>  (1) 
DB09014

>  <COMMON_NAME>  (1) 
Captodiame

>  <CAS_NUMBER>  (1) 
486-17-9

>  <UNII>  (1) 
H93K9455DD

>  <SYNONYMS>  (1) 
2-[(4-butylsulfanylphenyl)-phenyl-methyl]sulfanyl-N,N-dimethylethanamine; Captodiame

$$$$
