
     RDKit          3D

 22 23  0  0  1  0  0  0  0  0999 V2000
    0.8907    1.5220    0.9298 C   0  0  0  0  0  0  0  0  0  0  0  0
   -2.2597    0.9166   -4.2735 C   0  0  0  0  0  0  0  0  0  0  0  0
   -0.8302   -1.4675    1.9680 C   0  0  0  0  0  0  0  0  0  0  0  0
    1.5917    0.1397    0.5805 C   0  0  2  0  0  0  0  0  0  0  0  0
   -2.0126    1.0602   -2.7860 C   0  0  2  0  0  0  0  0  0  0  0  0
   -0.7214   -1.0393    0.4923 C   0  0  2  0  0  0  0  0  0  0  0  0
   -0.6093    1.2690    1.2483 C   0  0  1  0  0  0  0  0  0  0  0  0
   -1.3133    2.4426   -2.5756 C   0  0  2  0  0  0  0  0  0  0  0  0
    0.1972    2.3342   -2.9361 C   0  0  1  0  0  0  0  0  0  0  0  0
    0.7649    0.9998   -2.4871 C   0  0  2  0  0  0  0  0  0  0  0  0
    0.7013   -1.0474   -0.1216 C   0  0  1  0  0  0  0  0  0  0  0  0
    0.0578   -0.3249   -2.5984 C   0  0  2  0  0  0  0  0  0  0  0  0
   -2.6651   -0.4045   -4.5793 O   0  0  0  0  0  0  0  0  0  0  0  0
   -0.9890   -2.8623    2.1438 O   0  0  0  0  0  0  0  0  0  0  0  0
    1.9745   -0.3145    1.8919 O   0  0  0  0  0  0  0  0  0  0  0  0
   -1.4236    2.4318    1.2357 O   0  0  0  0  0  0  0  0  0  0  0  0
   -1.4849    2.9334   -1.2297 O   0  0  0  0  0  0  0  0  0  0  0  0
    0.4695    2.5937   -4.3003 O   0  0  0  0  0  0  0  0  0  0  0  0
    0.3659    1.1889   -1.1599 O   0  0  0  0  0  0  0  0  0  0  0  0
   -1.2655    0.3008    0.3968 O   0  0  0  0  0  0  0  0  0  0  0  0
   -1.3404   -0.1523   -2.3142 O   0  0  0  0  0  0  0  0  0  0  0  0
    0.6873   -1.2491   -1.6223 O   0  0  0  0  0  0  0  0  0  0  0  0
  4  1  1  0
  4 15  1  1
  5  2  1  6
  6  3  1  1
  7  1  1  0
  7 16  1  6
  8  5  1  0
  8 17  1  1
  9  8  1  0
  9 18  1  6
 10  9  1  0
 10 19  1  1
 11  4  1  0
 11  6  1  0
 11 22  1  6
 12 10  1  0
 12 22  1  1
 13  2  1  0
 14  3  1  0
 20  6  1  0
 20  7  1  0
 21  5  1  0
 21 12  1  0
M  END
>  <DRUGBANK_ID>  (1) 
DB03281

>  <SECONDARY_ACCESSION_NUMBERS>  (1) 
EXPT01247

>  <COMMON_NAME>  (1) 
2'-Deoxymaltose

$$$$
