
     RDKit          3D

 26 27  0  0  0  0  0  0  0  0999 V2000
    1.3299    0.0901    0.0876 C   0  0  0  0  0  0  0  0  0  0  0  0
    0.7183    0.8226   -1.1343 C   0  0  0  0  0  0  0  0  0  0  0  0
    4.0673    1.6833    3.5995 C   0  0  0  0  0  0  0  0  0  0  0  0
    4.9594    0.6136    3.5173 C   0  0  0  0  0  0  0  0  0  0  0  0
    2.7172    1.4430    3.7984 C   0  0  0  0  0  0  0  0  0  0  0  0
    1.2321   -1.4269    0.0251 C   0  0  0  0  0  0  0  0  0  0  0  0
    1.0703    0.2498   -2.5180 C   0  0  0  0  0  0  0  0  0  0  0  0
    4.4977   -0.7032    3.5916 C   0  0  0  0  0  0  0  0  0  0  0  0
    2.2797    0.1385    3.9873 C   0  0  0  0  0  0  0  0  0  0  0  0
   -2.3709   -3.4677    0.8720 C   0  0  0  0  0  0  0  0  0  0  0  0
   -2.8130   -2.8378    2.0544 C   0  0  0  0  0  0  0  0  0  0  0  0
    2.6415   -2.3944    3.8087 C   0  0  0  0  0  0  0  0  0  0  0  0
   -1.2005   -3.3296   -1.4039 C   0  0  0  0  0  0  0  0  0  0  0  0
    1.3509   -2.3080    1.2417 C   0  0  0  0  0  0  0  0  0  0  0  0
    0.5182   -1.1357   -2.9361 C   0  0  0  0  0  0  0  0  0  0  0  0
    1.1143   -2.5224    3.6203 C   0  0  0  0  0  0  0  0  0  0  0  0
   -1.4623   -2.6040   -2.7513 C   0  0  0  0  0  0  0  0  0  0  0  0
   -1.8489   -1.3143    0.0388 C   0  0  0  0  0  0  0  0  0  0  0  0
    3.1426   -0.9600    3.8187 C   0  0  0  0  0  0  0  0  0  0  0  0
   -1.8711   -2.6995   -0.1817 C   0  0  0  0  0  0  0  0  0  0  0  0
   -2.6629   -1.4622    2.2499 C   0  0  0  0  0  0  0  0  0  0  0  0
   -2.1448   -0.6960    1.2282 C   0  0  0  0  0  0  0  0  0  0  0  0
    0.6254   -1.8565    2.4103 N   0  0  0  0  0  0  0  0  0  0  0  0
   -0.9338   -1.2476   -2.9825 N   0  0  0  0  0  0  0  0  0  0  0  0
   -2.9719   -0.8218    3.4078 O   0  0  0  0  0  0  0  0  0  0  0  0
   -1.8274    0.6233    1.3604 O   0  0  0  0  0  0  0  0  0  0  0  0
  2  1  1  0
  4  3  2  0
  5  3  1  0
  6  1  1  0
  7  2  1  0
  8  4  1  0
  9  5  2  0
 11 10  2  0
 14  6  1  0
 15  7  1  0
 16 12  1  0
 17 13  1  0
 19  8  2  0
 19  9  1  0
 19 12  1  0
 20 10  1  0
 20 13  1  0
 20 18  2  0
 21 11  1  0
 22 18  1  0
 22 21  2  0
 23 14  1  0
 23 16  1  0
 24 15  1  0
 24 17  1  0
 25 21  1  0
 26 22  1  0
M  END
>  <DRUGBANK_ID>  (1) 
DB12313

>  <COMMON_NAME>  (1) 
Dopexamine

>  <CAS_NUMBER>  (1) 
86197-47-9

>  <UNII>  (1) 
398E7Z7JB5

>  <SYNONYMS>  (1) 
Dopexamine

$$$$
