
     RDKit          3D

 44 48  0  0  0  0  0  0  0  0999 V2000
    0.9192    0.0936   -0.2052 C   0  0  0  0  0  0  0  0  0  0  0  0
    0.2100   -8.0525    7.4297 C   0  0  0  0  0  0  0  0  0  0  0  0
   -1.0323   -7.3281    5.4744 C   0  0  0  0  0  0  0  0  0  0  0  0
   -7.3780    0.2269    0.5464 C   0  0  0  0  0  0  0  0  0  0  0  0
   -5.8934   -1.6203    0.2941 C   0  0  0  0  0  0  0  0  0  0  0  0
   -3.8132   -5.1393    3.4726 C   0  0  0  0  0  0  0  0  0  0  0  0
   -4.1766   -6.0848    2.3606 C   0  0  0  0  0  0  0  0  0  0  0  0
   -0.7590   -3.7656    2.3077 C   0  0  0  0  0  0  0  0  0  0  0  0
   -1.5097   -2.8748    1.4255 C   0  0  0  0  0  0  0  0  0  0  0  0
    1.8682   -3.7683    5.3923 C   0  0  0  0  0  0  0  0  0  0  0  0
   -2.7738    0.8145    2.2711 C   0  0  0  0  0  0  0  0  0  0  0  0
    1.7981   -2.7097    4.4336 C   0  0  0  0  0  0  0  0  0  0  0  0
   -1.4498    0.3906    2.5494 C   0  0  0  0  0  0  0  0  0  0  0  0
   -2.4128   -5.1431    3.0493 C   0  0  0  0  0  0  0  0  0  0  0  0
    0.1858   -4.7958    4.3293 C   0  0  0  0  0  0  0  0  0  0  0  0
   -3.2819   -1.2580    1.5056 C   0  0  0  0  0  0  0  0  0  0  0  0
    1.1333   -2.0630    0.8845 C   0  0  0  0  0  0  0  0  0  0  0  0
   -4.5117   -4.6634    0.3376 C   0  0  0  0  0  0  0  0  0  0  0  0
   -1.5693   -3.1418   -1.0520 C   0  0  0  0  0  0  0  0  0  0  0  0
    0.5461   -1.3907   -0.4027 C   0  0  1  0  0  0  0  0  0  0  0  0
    0.1243   -3.7094    3.4161 C   0  0  0  0  0  0  0  0  0  0  0  0
   -1.9748   -1.6231    1.8977 C   0  0  0  0  0  0  0  0  0  0  0  0
    1.0069   -4.8436    5.3876 C   0  0  0  0  0  0  0  0  0  0  0  0
   -3.7277   -0.0041    1.7066 C   0  0  0  0  0  0  0  0  0  0  0  0
   -3.6575   -5.6025    0.9659 C   0  0  1  0  0  0  0  0  0  0  0  0
    0.8557   -2.5971    3.4389 C   0  0  0  0  0  0  0  0  0  0  0  0
   -0.9517   -0.8801    2.3778 C   0  0  0  0  0  0  0  0  0  0  0  0
   -1.3299   -4.6941   -0.0064 C   0  0  0  0  0  0  0  0  0  0  0  0
    0.9957   -5.9623    6.3868 C   0  0  0  0  0  0  0  0  0  0  0  0
   -5.0807    0.5067    1.3752 C   0  0  0  0  0  0  0  0  0  0  0  0
    1.4373   -0.4298    2.8512 C   0  0  0  0  0  0  0  0  0  0  0  0
    0.5851   -1.5093    2.3523 C   0  0  0  0  0  0  0  0  0  0  0  0
   -5.1785   -4.0039   -0.3921 N   0  0  0  0  0  0  0  0  0  0  0  0
   -0.8903   -1.5992   -0.7905 N   0  0  0  0  0  0  0  0  0  0  0  0
    0.9532    0.6144    3.5122 N   0  0  0  0  0  0  0  0  0  0  0  0
    2.8021   -0.4612    2.8656 N   0  0  0  0  0  0  0  0  0  0  0  0
    2.0400    1.2730    3.7738 N   0  0  0  0  0  0  0  0  0  0  0  0
    3.1753    0.6191    3.5403 N   0  0  0  0  0  0  0  0  0  0  0  0
    0.0723   -7.0509    6.3865 N   0  0  0  0  0  0  0  0  0  0  0  0
   -6.0513   -0.2789    0.7519 N   0  0  0  0  0  0  0  0  0  0  0  0
   -2.3890   -5.0956    1.2709 N   0  0  0  0  0  0  0  0  0  0  0  0
   -0.1599   -5.1303    0.0047 O   0  0  0  0  0  0  0  0  0  0  0  0
    1.8667   -5.8691    7.2551 O   0  0  0  0  0  0  0  0  0  0  0  0
   -5.3058    1.6666    1.7217 O   0  0  0  0  0  0  0  0  0  0  0  0
  7  6  1  0
  9  8  1  0
 12 10  1  0
 13 11  1  0
 14  6  1  0
 20  1  1  1
 20 17  1  0
 20 34  1  0
 21  8  1  0
 21 15  2  0
 22  9  1  0
 22 16  2  0
 23 10  2  0
 23 15  1  0
 24 11  2  0
 24 16  1  0
 25  7  1  0
 25 18  1  1
 25 41  1  0
 26 12  2  0
 26 21  1  0
 27 13  2  0
 27 22  1  0
 28 19  1  0
 29 23  1  0
 30 24  1  0
 32 17  1  0
 32 26  1  0
 32 27  1  0
 32 31  1  0
 33 18  3  0
 34 19  1  0
 35 31  2  0
 36 31  1  0
 37 35  1  0
 38 36  2  0
 38 37  1  0
 39  2  1  0
 39  3  1  0
 39 29  1  0
 40  4  1  0
 40  5  1  0
 40 30  1  0
 41 14  1  0
 41 28  1  0
 42 28  2  0
 43 29  2  0
 44 30  2  0
M  END
>  <DRUGBANK_ID>  (1) 
DB06011

>  <COMMON_NAME>  (1) 
AMG-222

>  <CAS_NUMBER>  (1) 
913978-37-7

>  <UNII>  (1) 
GH23A7L3EL

$$$$
