
     RDKit          3D

 12 12  0  0  0  0  0  0  0  0999 V2000
    2.3056   -0.0430    0.0379 O   0  0  0  0  0  0  0  0  0  0  0  0
   -3.9047    0.8917    1.2124 C   0  0  0  0  0  0  0  0  0  0  0  0
   -3.3609    0.1658   -0.0337 C   0  0  0  0  0  0  0  0  0  0  0  0
   -1.8555    0.0396   -0.0951 C   0  0  0  0  0  0  0  0  0  0  0  0
   -1.1946   -1.1943   -0.0093 C   0  0  0  0  0  0  0  0  0  0  0  0
    0.2087   -1.2466    0.0108 C   0  0  0  0  0  0  0  0  0  0  0  0
    0.9441   -0.0639   -0.0081 C   0  0  0  0  0  0  0  0  0  0  0  0
    0.3048    1.1574   -0.1014 C   0  0  0  0  0  0  0  0  0  0  0  0
   -1.0783    1.1965   -0.2235 C   0  0  0  0  0  0  0  0  0  0  0  0
   -3.4456    2.3238    1.4292 C   0  0  0  0  0  0  0  0  0  0  0  0
   -4.3713    3.2720    1.1789 O   0  0  0  0  0  0  0  0  0  0  0  0
   -2.3347    2.6400    1.8365 O   0  0  0  0  0  0  0  0  0  0  0  0
  1  7  1  0
  2  3  1  0
  2 10  1  0
  3  4  1  0
  4  5  2  0
  4  9  1  0
  5  6  1  0
  6  7  2  0
  7  8  1  0
  8  9  2  0
 10 11  1  0
 10 12  2  0
M  END
>  <DRUGBANK_ID>  (1) 
DB03897

>  <SECONDARY_ACCESSION_NUMBERS>  (1) 
EXPT01773

>  <COMMON_NAME>  (1) 
Phloretic acid

>  <CAS_NUMBER>  (1) 
501-97-3

>  <UNII>  (1) 
6QNC6P18SR

>  <SYNONYMS>  (1) 
3-(4-Hydroxyphenyl)propionic acid; 3-(p-hydroxyphenyl)propionic acid; 4-Hydroxyphenylpropionic acid; Desaminotyrosine; Dihydro-p-coumaric acid; Hydroxyphenyl propionic acid; p-Hydroxyhydrocinnamic acid; p-hydroxyphenylpropionic acid; Phloretic acid; Phloretinic acid; Î²-(p-hydroxyphenyl)propionic acid

$$$$
