
     RDKit          3D

  7  4  0  0  0  0  0  0  0  0999 V2000
    1.0225   -0.0251    0.0941 N   0  0  0  0  0  0  0  0  0  0  0  0
    1.0564    0.0519   -0.0642 N   0  0  0  0  0  0  0  0  0  0  0  0
    1.0739   -0.0366   -0.0566 S   0  0  0  0  0  0  0  0  0  0  0  0
    3.6639   -0.0366   -0.0566 Mo  0  0  0  0  0  6  0  0  0  0  0  0
    4.5272    0.6880    2.2753 S   0  0  0  0  0  0  0  0  0  0  0  0
    4.4366   -2.1682   -0.5385 S   0  0  0  0  0  0  0  0  0  0  0  0
    4.4366    1.4466   -1.6617 S   0  0  0  0  0  0  0  0  0  0  0  0
  3  4  1  0
  4  5  1  0
  4  6  2  0
  4  7  2  0
M  CHG  4   1   1   2   1   3  -1   5  -1
M  END
>  <DRUGBANK_ID>  (1) 
DB17641

>  <COMMON_NAME>  (1) 
Ammonium tetrathiomolybdate

>  <CAS_NUMBER>  (1) 
15060-55-6

>  <UNII>  (1) 
4V6I63LW1E

>  <SYNONYMS>  (1) 
Ammonium molybdenum sulfide ((nh4)2mos4); Coprexa; Diammonium tetrathiomolybdate; Molybdate(2-), tetrathioxo-, ammonium (1:2), (t-4)-; Molybdate(2-), tetrathioxo-, diammonium, (t-4)-; Tiomolibdate diammonium

$$$$
