CAH
     RDKit          3D

 12 13  0  0  0  0  0  0  0  0999 V2000
   -0.0482    1.0709   -0.3993 C   0  0  2  0  0  0  0  0  0  0  0  0
    1.0490    0.6070    0.5418 C   0  0  0  0  0  0  0  0  0  0  0  0
    1.5682    1.3034    1.4285 O   0  0  0  0  0  0  0  0  0  0  0  0
    1.1549   -0.8959    0.4706 C   0  0  0  0  0  0  0  0  0  0  0  0
   -0.1899   -1.1791   -0.3767 C   0  0  1  0  0  0  0  0  0  0  0  0
   -1.2770   -0.7622    0.6897 C   0  0  2  0  0  0  0  0  0  0  0  0
   -2.5902   -1.2551    0.8336 O   0  0  0  0  0  0  0  0  0  0  0  0
   -1.2845    0.7783    0.5450 C   0  0  0  0  0  0  0  0  0  0  0  0
   -0.1590   -0.0546   -1.5019 C   0  0  0  0  0  0  0  0  0  0  0  0
    0.8556   -0.3925   -2.6542 C   0  0  0  0  0  0  0  0  0  0  0  0
   -1.3512    0.3122   -2.4226 C   0  0  0  0  0  0  0  0  0  0  0  0
    0.0318    2.5075   -0.8737 C   0  0  0  0  0  0  0  0  0  0  0  0
  1  2  1  0
  1  8  1  0
  1  9  1  0
  1 12  1  6
  2  4  1  0
  2  3  2  0
  5  4  1  1
  5  6  1  0
  5  9  1  0
  6  8  1  0
  6  7  1  6
  9 10  1  0
  9 11  1  0
M  END
>  <DRUGBANK_ID>  (1) 
DB02817

>  <SECONDARY_ACCESSION_NUMBERS>  (1) 
EXPT00826

>  <COMMON_NAME>  (1) 
5-Exo-Hydroxycamphor

$$$$
