
     RDKit          3D

 16 17  0  0  0  0  0  0  0  0999 V2000
    1.5786    0.4217   -0.7024 C   0  0  0  0  0  0  0  0  0  0  0  0
    0.8437   -0.2147   -1.7755 C   0  0  0  0  0  0  0  0  0  0  0  0
    0.6201   -1.5453   -1.8280 C   0  0  0  0  0  0  0  0  0  0  0  0
   -0.0743   -2.2092   -3.2851 S   0  0  0  0  0  0  0  0  0  0  0  0
   -0.4369   -0.7396   -4.2709 C   0  0  0  0  0  0  0  0  0  0  0  0
   -0.2828    0.6533   -3.7092 C   0  0  0  0  0  0  0  0  0  0  0  0
    0.1792    0.7789   -2.4093 O   0  0  0  0  0  0  0  0  0  0  0  0
    0.9971   -2.6423   -0.7509 C   0  0  0  0  0  0  0  0  0  0  0  0
    1.1010   -3.8061   -1.1139 O   0  0  0  0  0  0  0  0  0  0  0  0
    1.2666   -2.4440    0.6137 N   0  0  0  0  0  0  0  0  0  0  0  0
    1.1363   -1.3788    1.5623 C   0  0  0  0  0  0  0  0  0  0  0  0
   -0.0100   -0.5441    1.6129 C   0  0  0  0  0  0  0  0  0  0  0  0
    0.1201    0.8073    2.0189 C   0  0  0  0  0  0  0  0  0  0  0  0
    1.3228    1.2798    2.5472 C   0  0  0  0  0  0  0  0  0  0  0  0
    2.4028    0.4057    2.6766 C   0  0  0  0  0  0  0  0  0  0  0  0
    2.3296   -0.9020    2.1518 C   0  0  0  0  0  0  0  0  0  0  0  0
  1  2  1  0
  2  3  2  0
  2  7  1  0
  3  4  1  0
  3  8  1  0
  4  5  1  0
  5  6  1  0
  6  7  1  0
  8  9  2  0
  8 10  1  0
 10 11  1  0
 11 12  2  0
 11 16  1  0
 12 13  1  0
 13 14  2  0
 14 15  1  0
 15 16  2  0
M  END
>  <DRUGBANK_ID>  (1) 
DB04657

>  <COMMON_NAME>  (1) 
Carboxin

>  <CAS_NUMBER>  (1) 
5234-68-4

>  <UNII>  (1) 
5A8K850HDE

>  <SYNONYMS>  (1) 
2,3-Dihydro-5-carboxanilido-6-methyl-1,4-oxathiin; 2,3-Dihydro-6-methyl-1,4-oxathiin-5-carboxanilide; 2,3-Dihydro-6-methyl-5-phenylcarbamoyl-1,4-oxathiin; 5-Carboxanilido-2,3-dihydro-6-methyl-1,4-oxathiin; 5,6-Dihydro-2-methyl-1,4-oxathiin-3-carboxanilide; 5,6-Dihydro-2-methyl-3-carboxanilido-1,4-oxathiin; 5,6-Dihydro-2-methyl-N-phenyl-1,4-oxathiin-3-carboxamide; Carbathiin; Carboxine; Oxatin

$$$$
