
     RDKit          3D

 30 33  0  0  0  0  0  0  0  0999 V2000
    7.7706   -4.0227   -4.9258 F   0  0  0  0  0  0  0  0  0  0  0  0
    4.5874   -7.2667   -6.5113 O   0  0  0  0  0  0  0  0  0  0  0  0
    5.9351   -4.7072   -2.2186 O   0  0  0  0  0  0  0  0  0  0  0  0
    6.5498   -4.2839   -6.9313 O   0  0  0  0  0  0  0  0  0  0  0  0
    3.8136   -4.7056   -8.2110 O   0  0  0  0  0  0  0  0  0  0  0  0
    6.9237    0.0544   -4.1019 O   0  0  0  0  0  0  0  0  0  0  0  0
    5.5321   -3.2336   -8.8101 O   0  0  0  0  0  0  0  0  0  0  0  0
    8.1024   -4.7144   -3.7448 C   0  0  1  0  0  0  0  0  0  0  0  0
    6.6587   -6.5574   -5.2767 C   0  0  2  0  0  0  0  0  0  0  0  0
    9.0576   -5.6830   -4.5387 C   0  0  1  0  0  0  0  0  0  0  0  0
    8.1286   -6.1682   -5.8309 C   0  0  1  0  0  0  0  0  0  0  0  0
    8.4361   -3.5154   -2.8394 C   0  0  1  0  0  0  0  0  0  0  0  0
    5.8678   -6.6591   -6.5851 C   0  0  1  0  0  0  0  0  0  0  0  0
    6.8161   -5.3944   -3.1258 C   0  0  2  0  0  0  0  0  0  0  0  0
    5.9535   -5.5905   -4.3166 C   0  0  0  0  0  0  0  0  0  0  0  0
    9.5333   -2.6716   -3.5317 C   0  0  0  0  0  0  0  0  0  0  0  0
    8.2645   -7.0718   -7.1299 C   0  0  0  0  0  0  0  0  0  0  0  0
    6.8414   -7.6511   -7.3125 C   0  0  0  0  0  0  0  0  0  0  0  0
   10.2689   -4.7678   -4.9648 C   0  0  0  0  0  0  0  0  0  0  0  0
    5.6406   -5.1122   -6.8651 C   0  0  0  0  0  0  0  0  0  0  0  0
    7.1476   -2.7131   -3.0920 C   0  0  0  0  0  0  0  0  0  0  0  0
   10.7105   -3.7513   -3.8365 C   0  0  0  0  0  0  0  0  0  0  0  0
    6.7777   -7.8561   -4.4469 C   0  0  0  0  0  0  0  0  0  0  0  0
    8.5519   -3.8893   -1.3425 C   0  0  0  0  0  0  0  0  0  0  0  0
    9.0496   -1.4408   -4.0236 C   0  0  0  0  0  0  0  0  0  0  0  0
    6.9586   -1.5745   -2.4463 C   0  0  0  0  0  0  0  0  0  0  0  0
    7.6041   -0.7812   -3.5143 C   0  0  0  0  0  0  0  0  0  0  0  0
    4.2211   -4.5592   -6.8515 C   0  0  0  0  0  0  0  0  0  0  0  0
    4.6300   -4.0594   -9.0873 C   0  0  0  0  0  0  0  0  0  0  0  0
    4.3911   -4.4529  -10.4762 C   0  0  0  0  0  0  0  0  0  0  0  0
  4 20  2  0
  5 28  1  0
  5 29  1  0
  6 27  2  0
  7 29  2  0
  8 10  1  0
  8 12  1  0
  8 14  1  0
  8  1  1  6
  9 11  1  0
  9 13  1  0
  9 15  1  0
  9 23  1  1
 10 11  1  0
 10 19  1  6
 11 17  1  1
 12 16  1  0
 12 21  1  0
 12 24  1  1
 13 18  1  0
 13  2  1  1
 13 20  1  0
 14 15  1  0
 14  3  1  1
 16 22  1  0
 16 25  2  0
 17 18  1  0
 19 22  1  0
 20 28  1  0
 21 26  2  0
 25 27  1  0
 26 27  1  0
 29 30  1  0
M  END
>  <DRUGBANK_ID>  (1) 
DB14640

>  <SECONDARY_ACCESSION_NUMBERS>  (1) 
DBSALT001685

>  <COMMON_NAME>  (1) 
Isoflupredone acetate

>  <CAS_NUMBER>  (1) 
338-98-7

>  <UNII>  (1) 
55P9TUL75S

>  <SYNONYMS>  (1) 
Isoflupredone 21-acetate; Isoflupredone acetate

$$$$
