
     RDKit          3D

 23 24  0  0  0  0  0  0  0  0999 V2000
    0.9542   -0.6606   -0.2553 C   0  0  0  0  0  0  0  0  0  0  0  0
    0.3846    0.2649   -1.2933 C   0  0  0  0  0  0  0  0  0  0  0  0
    1.0425    0.4180   -2.6170 N   0  0  0  0  0  0  0  0  0  0  0  0
    0.5918   -0.9285   -3.1658 C   0  0  0  0  0  0  0  0  0  0  0  0
    0.4490    1.5890   -3.5208 C   0  0  0  0  0  0  0  0  0  0  0  0
    0.9602    3.0605   -3.4972 C   0  0  0  0  0  0  0  0  0  0  0  0
    2.5601    0.5822   -2.4464 C   0  0  0  0  0  0  0  0  0  0  0  0
    3.0082    1.9005   -1.7113 C   0  0  0  0  0  0  0  0  0  0  0  0
    2.3599    2.2316   -0.4004 O   0  0  0  0  0  0  0  0  0  0  0  0
    1.0696    2.6976   -0.1493 C   0  0  0  0  0  0  0  0  0  0  0  0
    0.1978    2.9243   -1.0342 O   0  0  0  0  0  0  0  0  0  0  0  0
    0.6550    2.8762    1.2792 C   0  0  0  0  0  0  0  0  0  0  0  0
    1.0812    1.8367    2.3115 C   0  0  0  0  0  0  0  0  0  0  0  0
    1.9601    1.9864    3.3717 C   0  0  0  0  0  0  0  0  0  0  0  0
    2.1287    0.8065    4.1534 C   0  0  0  0  0  0  0  0  0  0  0  0
    1.4405   -0.2572    3.6198 C   0  0  0  0  0  0  0  0  0  0  0  0
    0.1297    0.4190    2.7428 S   0  0  0  0  0  0  0  0  0  0  0  0
    1.1880    4.3023    1.4818 C   0  0  0  0  0  0  0  0  0  0  0  0
    0.2103    5.4021    1.0939 C   0  0  0  0  0  0  0  0  0  0  0  0
    1.1055    6.6323    0.9377 C   0  0  0  0  0  0  0  0  0  0  0  0
    2.5424    6.1582    0.7234 C   0  0  0  0  0  0  0  0  0  0  0  0
    2.4191    4.6760    0.6005 C   0  0  0  0  0  0  0  0  0  0  0  0
   -0.7863    2.8074    1.2611 O   0  0  0  0  0  0  0  0  0  0  0  0
  1  2  1  0
  2  3  1  0
  3  4  1  0
  3  5  1  0
  3  7  1  0
  5  6  1  0
  7  8  1  0
  8  9  1  0
  9 10  1  0
 10 11  2  0
 10 12  1  0
 12 13  1  0
 12 18  1  0
 12 23  1  0
 13 14  2  0
 13 17  1  0
 14 15  1  0
 15 16  2  0
 16 17  1  0
 18 19  1  0
 18 22  1  0
 19 20  1  0
 20 21  1  0
 21 22  1  0
M  CHG  1   3   1
M  END
>  <DRUGBANK_ID>  (1) 
DB13695

>  <COMMON_NAME>  (1) 
Penthienate

>  <CAS_NUMBER>  (1) 
22064-27-3

>  <UNII>  (1) 
6LCT38OJV9

$$$$
