
     RDKit          3D

 28 31  0  0  0  0  0  0  0  0999 V2000
   -3.6930    0.0589    0.0075 C   0  0  0  0  0  0  0  0  0  0  0  0
    5.1377   -0.7030   -0.2081 C   0  0  0  0  0  0  0  0  0  0  0  0
    3.8615    2.9123   -0.2725 C   0  0  0  0  0  0  0  0  0  0  0  0
    3.1710    2.3450    2.4556 C   0  0  0  0  0  0  0  0  0  0  0  0
    3.7018    1.0460    2.4475 C   0  0  0  0  0  0  0  0  0  0  0  0
    1.8752    2.6340    2.0608 C   0  0  0  0  0  0  0  0  0  0  0  0
    2.8906   -0.0172    2.1661 C   0  0  0  0  0  0  0  0  0  0  0  0
    1.0353    1.5836    1.9864 C   0  0  0  0  0  0  0  0  0  0  0  0
   -1.9550   -2.6940   -0.0012 C   0  0  0  0  0  0  0  0  0  0  0  0
   -1.2332   -3.3959   -1.1715 C   0  0  0  0  0  0  0  0  0  0  0  0
    0.6913   -3.5907    0.4022 C   0  0  0  0  0  0  0  0  0  0  0  0
    0.8232   -2.2873   -2.0725 C   0  0  0  0  0  0  0  0  0  0  0  0
    0.5707   -2.0930    1.5051 C   0  0  0  0  0  0  0  0  0  0  0  0
    0.8117   -0.4948   -1.4305 C   0  0  0  0  0  0  0  0  0  0  0  0
    1.5856   -1.6688   -0.2997 C   0  0  0  0  0  0  0  0  0  0  0  0
    1.2422    1.5506   -0.6384 C   0  0  0  0  0  0  0  0  0  0  0  0
   -2.2600   -0.0385    0.0071 C   0  0  0  0  0  0  0  0  0  0  0  0
    1.5987    0.3278    1.7930 C   0  0  0  0  0  0  0  0  0  0  0  0
   -1.6157   -1.2758    0.0174 C   0  0  0  0  0  0  0  0  0  0  0  0
   -0.3064   -1.0347   -0.1459 C   0  0  0  0  0  0  0  0  0  0  0  0
   -0.2789    0.7683   -0.3503 C   0  0  0  0  0  0  0  0  0  0  0  0
    2.8593   -0.6767   -0.5656 C   0  0  0  0  0  0  0  0  0  0  0  0
    2.6887    0.8257   -0.6676 C   0  0  0  0  0  0  0  0  0  0  0  0
   -1.5269    1.1267   -0.0813 N   0  0  0  0  0  0  0  0  0  0  0  0
    0.2400   -3.4873   -1.1527 N   0  0  0  0  0  0  0  0  0  0  0  0
    1.0491   -0.3680    0.7476 N   0  0  0  0  0  0  0  0  0  0  0  0
    3.9662   -1.4472   -0.3149 O   0  0  0  0  0  0  0  0  0  0  0  0
    3.8434    1.5172   -0.3622 O   0  0  0  0  0  0  0  0  0  0  0  0
  5  4  2  0
  6  4  1  0
  7  5  1  0
  8  6  2  0
 10  9  1  0
 13 11  1  0
 14 12  1  0
 17  1  1  0
 18  7  2  0
 18  8  1  0
 19  9  1  0
 19 17  2  0
 20 15  2  0
 20 19  1  0
 21 16  2  0
 21 20  1  0
 22 15  1  0
 23 16  1  0
 23 22  2  0
 24 17  1  0
 24 21  1  0
 25 10  1  0
 25 11  1  0
 25 12  1  0
 26 13  1  0
 26 14  1  0
 26 18  1  0
 27  2  1  0
 27 22  1  0
 28  3  1  0
 28 23  1  0
M  END
>  <DRUGBANK_ID>  (1) 
DB13403

>  <COMMON_NAME>  (1) 
Oxypertine

>  <CAS_NUMBER>  (1) 
153-87-7

>  <UNII>  (1) 
5JGL4G25R7

>  <SYNONYMS>  (1) 
Oxypertine

$$$$
