
     RDKit          3D

 24 25  0  0  1  0  0  0  0  0999 V2000
    1.4925    0.3159   -0.0763 C   0  0  0  0  0  0  0  0  0  0  0  0
    0.8863   -1.0253    0.2705 C   0  0  0  0  0  0  0  0  0  0  0  0
   -0.4670   -0.8329   -0.3249 C   0  0  1  0  0  0  0  0  0  0  0  0
   -0.8625    0.5400    0.0502 N   0  0  0  0  0  0  0  0  0  0  0  0
    0.3409    1.3373    0.0393 C   0  0  0  0  0  0  0  0  0  0  0  0
   -2.0738    1.0846    0.4892 C   0  0  0  0  0  0  0  0  0  0  0  0
   -2.1461    2.2548    0.8848 O   0  0  0  0  0  0  0  0  0  0  0  0
   -3.3770    0.2671    0.5006 C   0  0  0  0  0  0  0  0  0  0  0  0
   -3.7781   -0.1637   -0.9310 C   0  0  0  0  0  0  0  0  0  0  0  0
   -3.0049   -1.3340   -1.3733 C   0  0  0  0  0  0  0  0  0  0  0  0
   -2.8885   -2.4708   -0.3520 C   0  0  0  0  0  0  0  0  0  0  0  0
   -4.1347   -3.2684   -0.1460 C   0  0  0  0  0  0  0  0  0  0  0  0
   -4.0707   -4.4931   -0.2579 O   0  0  0  0  0  0  0  0  0  0  0  0
   -5.1463   -2.6025    0.5408 N   0  0  0  0  0  0  0  0  0  0  0  0
   -5.9594   -1.4467    0.1837 C   0  0  0  0  0  0  0  0  0  0  0  0
   -6.5411   -1.0416    1.4886 C   0  0  0  0  0  0  0  0  0  0  0  0
   -7.0110   -2.3803    1.9684 C   0  0  0  0  0  0  0  0  0  0  0  0
   -5.9537   -3.3895    1.4535 C   0  0  2  0  0  0  0  0  0  0  0  0
   -5.1339   -3.9476    2.6024 C   0  0  0  0  0  0  0  0  0  0  0  0
   -5.2302   -5.0966    3.0569 O   0  0  0  0  0  0  0  0  0  0  0  0
   -4.3457   -3.0494    3.2249 O   0  0  0  0  0  0  0  0  0  0  0  0
   -0.3224   -1.2314   -1.8755 C   0  0  0  0  0  0  0  0  0  0  0  0
   -0.5674   -2.3236   -2.3719 O   0  0  0  0  0  0  0  0  0  0  0  0
   -0.0387   -0.1993   -2.6996 O   0  0  0  0  0  0  0  0  0  0  0  0
  1  2  1  0
  1  5  1  0
  2  3  1  0
  3  4  1  0
  3 22  1  6
  4  5  1  0
  4  6  1  0
  6  7  2  0
  6  8  1  0
  8  9  1  0
  9 10  1  0
 10 11  1  0
 11 12  1  0
 12 13  2  0
 12 14  1  0
 14 15  1  0
 14 18  1  0
 15 16  1  0
 16 17  1  0
 17 18  1  0
 18 19  1  1
 19 20  2  0
 19 21  1  0
 22 23  2  0
 22 24  1  0
M  END
>  <DRUGBANK_ID>  (1) 
DB13087

>  <COMMON_NAME>  (1) 
Miridesap

>  <CAS_NUMBER>  (1) 
224624-80-0

>  <UNII>  (1) 
WO97N24A47

>  <SYNONYMS>  (1) 
1,1'-hexanedioyldi-D-proline; CPHPC; Miridesap

$$$$
