
     RDKit          3D

 16 16  0  0  1  0  0  0  0  0999 V2000
    0.7667    1.4381   -0.1083 C   0  0  1  0  0  0  0  0  0  0  0  0
    1.4599    0.1341    0.3458 C   0  0  1  0  0  0  0  0  0  0  0  0
   -0.7151    1.4163    0.2944 C   0  0  2  0  0  0  0  0  0  0  0  0
    0.7514   -1.0758   -0.2764 C   0  0  1  0  0  0  0  0  0  0  0  0
   -1.4626    0.1605   -0.2020 C   0  0  1  0  0  0  0  0  0  0  0  0
   -0.7364   -1.1471    0.2083 C   0  0  1  0  0  0  0  0  0  0  0  0
    1.4276    2.5870    0.4625 O   0  0  0  0  0  0  0  0  0  0  0  0
    2.8304    0.1471   -0.1004 O   0  0  0  0  0  0  0  0  0  0  0  0
   -1.3648    2.6054   -0.2045 O   0  0  0  0  0  0  0  0  0  0  0  0
    0.9198   -0.8397   -1.6953 O   0  0  0  0  0  0  0  0  0  0  0  0
   -2.7986    0.2608    0.3321 O   0  0  0  0  0  0  0  0  0  0  0  0
   -0.1383   -3.1138   -1.8591 O   0  0  0  0  0  0  0  0  0  0  0  0
   -2.8483   -2.9053   -1.8347 O   0  0  0  0  0  0  0  0  0  0  0  0
   -1.4343   -2.2776   -3.5248 O   0  0  0  0  0  0  0  0  0  0  0  0
   -1.4544   -2.3244   -0.2468 O   0  0  0  0  0  0  0  0  0  0  0  0
   -1.4438   -2.2997   -1.9766 P   0  0  0  0  0  0  0  0  0  0  0  0
  1  7  1  1
  2  1  1  0
  2  8  1  6
  3  1  1  0
  3  9  1  6
  4  2  1  0
  4 10  1  6
  5  3  1  0
  5 11  1  1
  6  4  1  0
  6  5  1  0
  6 15  1  6
 16 12  1  0
 16 13  1  0
 16 14  2  0
 16 15  1  0
M  CHG  2  12  -1  13  -1
M  END
>  <DRUGBANK_ID>  (1) 
DB03542

>  <SECONDARY_ACCESSION_NUMBERS>  (1) 
EXPT02036

>  <COMMON_NAME>  (1) 
L-Myo-Inositol-1-Phosphate

$$$$
