
     RDKit          3D

 20 20  0  0  0  0  0  0  0  0999 V2000
    1.4110   -0.6927   -0.4274 C   0  0  0  0  0  0  0  0  0  0  0  0
    0.4603   -1.6767   -0.0737 C   0  0  0  0  0  0  0  0  0  0  0  0
   -0.9727   -1.4728   -0.1294 C   0  0  0  0  0  0  0  0  0  0  0  0
   -1.5154   -0.2757   -0.6044 C   0  0  0  0  0  0  0  0  0  0  0  0
   -0.6022    0.4997   -1.2893 C   0  0  0  0  0  0  0  0  0  0  0  0
    0.8347    0.3148   -1.1888 C   0  0  0  0  0  0  0  0  0  0  0  0
    2.7307   -0.6697    0.0382 N   0  0  0  0  0  0  0  0  0  0  0  0
   -2.9356    0.2312   -0.3703 C   0  0  0  0  0  0  0  0  0  0  0  0
   -3.2913    1.5465   -0.2239 O   0  0  0  0  0  0  0  0  0  0  0  0
   -3.8510   -0.6250   -0.2792 O   0  0  0  0  0  0  0  0  0  0  0  0
    3.7015    0.4473    0.1146 C   0  0  0  0  0  0  0  0  0  0  0  0
    3.3381   -1.9606    0.3099 C   0  0  0  0  0  0  0  0  0  0  0  0
   -2.5922    2.8326   -0.0192 C   0  0  0  0  0  0  0  0  0  0  0  0
   -1.9493    3.0017    1.3868 C   0  0  0  0  0  0  0  0  0  0  0  0
   -0.9401    1.9150    1.6840 C   0  0  0  0  0  0  0  0  0  0  0  0
    0.2560    2.0588    0.7511 C   0  0  0  0  0  0  0  0  0  0  0  0
    1.4094    3.0286    0.6568 C   0  0  0  0  0  0  0  0  0  0  0  0
   -1.1275    4.2776    1.5065 C   0  0  0  0  0  0  0  0  0  0  0  0
   -1.8116    5.5840    1.3968 C   0  0  0  0  0  0  0  0  0  0  0  0
    2.1017    2.8647    1.9573 C   0  0  0  0  0  0  0  0  0  0  0  0
  1  2  2  0
  1  6  1  0
  1  7  1  0
  2  3  1  0
  3  4  2  0
  4  5  1  0
  4  8  1  0
  5  6  2  0
  7 11  1  0
  7 12  1  0
  8  9  1  0
  8 10  2  0
  9 13  1  0
 13 14  1  0
 14 15  1  0
 14 18  1  0
 15 16  1  0
 16 17  1  0
 17 20  1  0
 18 19  1  0
M  END
>  <DRUGBANK_ID>  (1) 
DB11570

>  <COMMON_NAME>  (1) 
Padimate O

>  <CAS_NUMBER>  (1) 
21245-02-3

>  <UNII>  (1) 
Z11006CMUZ

>  <SYNONYMS>  (1) 
Padimate O; Padimate-O

$$$$
