GB4
     RDKit          3D

 14 14  0  0  0  0  0  0  0  0999 V2000
    0.9979   -0.1060   -0.0656 O   0  0  0  0  0  0  0  0  0  0  0  0
    2.2285   -0.1354   -0.0634 C   0  0  0  0  0  0  0  0  0  0  0  0
    2.9428   -1.1137    0.5586 N   0  0  0  0  0  0  0  0  0  0  0  0
    2.2246   -2.1419    1.2035 O   0  0  0  0  0  0  0  0  0  0  0  0
    3.0054    0.9232   -0.7524 C   0  0  0  0  0  0  0  0  0  0  0  0
    4.3434    1.0547   -0.7793 C   0  0  0  0  0  0  0  0  0  0  0  0
    4.9974    2.2185   -1.4068 C   0  0  0  0  0  0  0  0  0  0  0  0
    4.6255    3.5519   -1.1361 C   0  0  0  0  0  0  0  0  0  0  0  0
    3.4333    3.9743    0.0497 Cl  0  0  0  0  0  0  0  0  0  0  0  0
    5.2409    4.6147   -1.7977 C   0  0  0  0  0  0  0  0  0  0  0  0
    6.0648    1.9903   -2.2946 C   0  0  0  0  0  0  0  0  0  0  0  0
    6.6938    3.0616   -2.9415 C   0  0  0  0  0  0  0  0  0  0  0  0
    6.2663    4.3652   -2.7012 C   0  0  0  0  0  0  0  0  0  0  0  0
    7.0147    5.6815   -3.5157 Cl  0  0  0  0  0  0  0  0  0  0  0  0
  1  2  2  0
  2  5  1  0
  2  3  1  0
  3  4  1  0
  5  6  2  0
  6  7  1  0
  7  8  2  0
  7 11  1  0
  8  9  1  0
  8 10  1  0
 10 13  2  0
 11 12  2  0
 12 13  1  0
 13 14  1  0
M  END
>  <DRUGBANK_ID>  (1) 
DB07818

>  <COMMON_NAME>  (1) 
(2E)-3-(2,4-DICHLOROPHENYL)-N-HYDROXYACRYLAMIDE

>  <UNII>  (1) 
ZQ9995YM49

$$$$
