
     RDKit          3D

 24 26  0  0  0  0  0  0  0  0999 V2000
    1.0404    0.1176    0.0678 C   0  0  0  0  0  0  0  0  0  0  0  0
    0.5062   -0.3302    1.3508 N   0  0  0  0  0  0  0  0  0  0  0  0
   -0.9606   -0.3417    1.3669 C   0  0  0  0  0  0  0  0  0  0  0  0
   -1.4451   -1.2784    0.3114 C   0  0  0  0  0  0  0  0  0  0  0  0
   -1.2338   -2.6803    0.2794 C   0  0  0  0  0  0  0  0  0  0  0  0
   -1.6619   -3.1625   -0.9461 C   0  0  0  0  0  0  0  0  0  0  0  0
   -2.1822   -2.0820   -1.6340 N   0  0  0  0  0  0  0  0  0  0  0  0
   -2.0872   -0.9480   -0.8689 C   0  0  0  0  0  0  0  0  0  0  0  0
   -2.8620   -2.1546   -3.2020 S   0  0  0  0  0  0  0  0  0  0  0  0
   -1.7616   -2.4642   -4.0986 O   0  0  0  0  0  0  0  0  0  0  0  0
   -4.0148   -3.0194   -3.0610 O   0  0  0  0  0  0  0  0  0  0  0  0
   -3.4158   -0.5475   -3.6374 C   0  0  0  0  0  0  0  0  0  0  0  0
   -2.5332    0.5224   -3.8041 C   0  0  0  0  0  0  0  0  0  0  0  0
   -3.0506    1.7673   -4.1525 C   0  0  0  0  0  0  0  0  0  0  0  0
   -4.4175    1.8769   -4.3592 C   0  0  0  0  0  0  0  0  0  0  0  0
   -5.2810    0.8448   -4.2349 N   0  0  0  0  0  0  0  0  0  0  0  0
   -4.7619   -0.3537   -3.8814 C   0  0  0  0  0  0  0  0  0  0  0  0
   -1.6250   -4.5441   -1.4014 C   0  0  0  0  0  0  0  0  0  0  0  0
   -0.9168   -4.9107   -2.5495 C   0  0  0  0  0  0  0  0  0  0  0  0
   -0.9144   -6.2362   -2.9802 C   0  0  0  0  0  0  0  0  0  0  0  0
   -1.5841   -7.2116   -2.2421 C   0  0  0  0  0  0  0  0  0  0  0  0
   -2.2576   -6.8634   -1.0727 C   0  0  0  0  0  0  0  0  0  0  0  0
   -2.2718   -5.5380   -0.6592 C   0  0  0  0  0  0  0  0  0  0  0  0
   -2.9209   -5.2253    0.4739 F   0  0  0  0  0  0  0  0  0  0  0  0
  1  2  1  0
  2  3  1  0
  3  4  1  0
  4  5  1  0
  4  8  2  0
  5  6  2  0
  6  7  1  0
  6 18  1  0
  7  8  1  0
  7  9  1  0
  9 10  2  0
  9 11  2  0
  9 12  1  0
 12 13  2  0
 12 17  1  0
 13 14  1  0
 14 15  2  0
 15 16  1  0
 16 17  2  0
 18 19  2  0
 18 23  1  0
 19 20  1  0
 20 21  2  0
 21 22  1  0
 22 23  2  0
 23 24  1  0
M  END
>  <DRUGBANK_ID>  (1) 
DB11739

>  <COMMON_NAME>  (1) 
Vonoprazan

>  <CAS_NUMBER>  (1) 
881681-00-1

>  <UNII>  (1) 
1R5L3J156G

>  <SYNONYMS>  (1) 
1-[5-(2-fluorophenyl)-1-pyridin-3-ylsulfonylpyrrol-3-yl]-N-methylmethanamine; Vonoprazan

$$$$
