
     RDKit          3D

 12 12  0  0  0  0  0  0  0  0999 V2000
    0.4561    1.5123    0.0215 C   0  0  0  0  0  0  0  0  0  0  0  0
    1.7571    0.9541    0.0198 C   0  0  0  0  0  0  0  0  0  0  0  0
   -0.6390    0.6261    0.0030 C   0  0  0  0  0  0  0  0  0  0  0  0
    0.2887    3.0126    0.0416 C   0  0  0  0  0  0  0  0  0  0  0  0
    1.8748   -0.4360   -0.0047 C   0  0  0  0  0  0  0  0  0  0  0  0
    3.0261    1.7663    0.0528 C   0  0  0  0  0  0  0  0  0  0  0  0
   -0.4107   -0.7578   -0.0071 C   0  0  0  0  0  0  0  0  0  0  0  0
   -1.9440    1.0339   -0.0006 O   0  0  0  0  0  0  0  0  0  0  0  0
    0.8415    3.5897    1.2616 N   0  0  0  0  0  0  0  0  0  0  0  0
    0.8325   -1.2930   -0.0189 N   0  0  0  0  0  0  0  0  0  0  0  0
    3.7515    1.4795    1.2422 O   0  0  0  0  0  0  0  0  0  0  0  0
   -1.5399   -1.7481    0.0102 C   0  0  0  0  0  0  0  0  0  0  0  0
  1  2  2  0
  1  3  1  0
  1  4  1  0
  2  5  1  0
  2  6  1  0
  3  7  2  0
  3  8  1  0
  4  9  1  0
  5 10  2  0
  6 11  1  0
  7 12  1  0
  7 10  1  0
M  END
>  <DRUGBANK_ID>  (1) 
DB11673

>  <COMMON_NAME>  (1) 
Pyridoxamine

>  <CAS_NUMBER>  (1) 
85-87-0

>  <UNII>  (1) 
6466NM3W93

$$$$
