
     RDKit          3D

  9  9  0  0  1  0  0  0  0  0999 V2000
   -0.2715    0.0557    0.4956 C   0  0  0  0  0  0  0  0  0  0  0  0
    0.2829    2.4980   -0.5820 C   0  0  0  0  0  0  0  0  0  0  0  0
    0.6372    1.1655    0.0498 C   0  0  1  0  0  0  0  0  0  0  0  0
   -1.6912    0.0222   -0.0701 C   0  0  1  0  0  0  0  0  0  0  0  0
   -2.3449   -1.3399    0.2477 C   0  0  0  0  0  0  0  0  0  0  0  0
   -2.5034    1.1125    0.5139 N   0  0  0  0  0  0  0  0  0  0  0  0
   -3.3704   -1.5213    0.8931 O   0  0  0  0  0  0  0  0  0  0  0  0
   -1.6933   -2.3910   -0.2919 O   0  0  0  0  0  0  0  0  0  0  0  0
    0.5274    2.3728    0.8233 O   0  0  0  0  0  0  0  0  0  0  0  0
  3  2  1  0
  3  1  1  1
  4  1  1  0
  4  6  1  1
  5  4  1  0
  7  5  2  0
  8  5  1  0
  9  2  1  0
  9  3  1  0
M  END
>  <DRUGBANK_ID>  (1) 
DB03191

>  <SECONDARY_ACCESSION_NUMBERS>  (1) 
EXPT02037

>  <COMMON_NAME>  (1) 
3-Oxiran-2ylalanine

$$$$
