
     RDKit          3D

 33 35  0  0  0  0  0  0  0  0999 V2000
    1.0354   -0.0231   -0.0616 C   0  0  0  0  0  0  0  0  0  0  0  0
    0.5033   -0.6606   -1.3605 C   0  0  0  0  0  0  0  0  0  0  0  0
    1.0088   -2.1074   -1.4404 C   0  0  0  0  0  0  0  0  0  0  0  0
   -1.0351   -0.6585   -1.3585 C   0  0  0  0  0  0  0  0  0  0  0  0
    0.9714    0.1573   -2.5487 C   0  0  0  0  0  0  0  0  0  0  0  0
    0.6030    1.5071   -2.5971 C   0  0  0  0  0  0  0  0  0  0  0  0
    1.0048    2.2758   -3.6529 C   0  0  0  0  0  0  0  0  0  0  0  0
    1.8118    1.7044   -4.6523 C   0  0  0  0  0  0  0  0  0  0  0  0
    2.2294    0.3928   -4.6052 C   0  0  0  0  0  0  0  0  0  0  0  0
    1.7643   -0.3917   -3.5776 C   0  0  0  0  0  0  0  0  0  0  0  0
    2.2231    2.5552   -5.7805 C   0  0  0  0  0  0  0  0  0  0  0  0
    3.6463    2.9261   -5.9229 N   0  0  0  0  0  0  0  0  0  0  0  0
    3.8252    3.7290   -7.1966 C   0  0  0  0  0  0  0  0  0  0  0  0
    3.1680    5.1006   -7.2003 C   0  0  0  0  0  0  0  0  0  0  0  0
    1.8378    5.2731   -6.7777 C   0  0  0  0  0  0  0  0  0  0  0  0
    1.3807    6.4586   -6.2584 C   0  0  0  0  0  0  0  0  0  0  0  0
    2.1519    7.5715   -6.4444 C   0  0  0  0  0  0  0  0  0  0  0  0
    3.3902    7.4953   -7.0951 C   0  0  0  0  0  0  0  0  0  0  0  0
    3.9011    6.2521   -7.4841 C   0  0  0  0  0  0  0  0  0  0  0  0
    4.1825    8.5869   -7.3402 O   0  0  0  0  0  0  0  0  0  0  0  0
    3.6596    9.8207   -6.8486 C   0  0  0  0  0  0  0  0  0  0  0  0
    2.4053   10.3007   -7.5765 C   0  0  0  0  0  0  0  0  0  0  0  0
    1.3411   10.6050   -7.0567 O   0  0  0  0  0  0  0  0  0  0  0  0
    2.5364   10.3098   -8.9169 O   0  0  0  0  0  0  0  0  0  0  0  0
    4.2677    3.6285   -4.4692 S   0  0  0  0  0  0  0  0  0  0  0  0
    3.6905    4.9531   -4.3064 O   0  0  0  0  0  0  0  0  0  0  0  0
    4.1834    2.6810   -3.3882 O   0  0  0  0  0  0  0  0  0  0  0  0
    5.9765    3.8229   -4.7772 C   0  0  0  0  0  0  0  0  0  0  0  0
    6.5614    5.0829   -4.8297 C   0  0  0  0  0  0  0  0  0  0  0  0
    7.9430    5.1678   -4.9352 C   0  0  0  0  0  0  0  0  0  0  0  0
    8.6733    3.9885   -4.9805 C   0  0  0  0  0  0  0  0  0  0  0  0
    8.1208    2.7537   -4.9414 N   0  0  0  0  0  0  0  0  0  0  0  0
    6.7735    2.6937   -4.8243 C   0  0  0  0  0  0  0  0  0  0  0  0
  1  2  1  0
  2  3  1  0
  2  4  1  0
  2  5  1  0
  5  6  2  0
  5 10  1  0
  6  7  1  0
  7  8  2  0
  8  9  1  0
  8 11  1  0
  9 10  2  0
 11 12  1  0
 12 13  1  0
 12 25  1  0
 13 14  1  0
 14 15  2  0
 14 19  1  0
 15 16  1  0
 16 17  2  0
 17 18  1  0
 18 19  2  0
 18 20  1  0
 20 21  1  0
 21 22  1  0
 22 23  2  0
 22 24  1  0
 25 26  2  0
 25 27  2  0
 25 28  1  0
 28 29  2  0
 28 33  1  0
 29 30  1  0
 30 31  2  0
 31 32  1  0
 32 33  2  0
M  END
>  <DRUGBANK_ID>  (1) 
DB12022

>  <COMMON_NAME>  (1) 
Evatanepag

>  <CAS_NUMBER>  (1) 
223488-57-1

>  <UNII>  (1) 
L266R6E31E

>  <SYNONYMS>  (1) 
Evatanepag

$$$$
