
     RDKit          3D

  9  9  0  0  0  0  0  0  0  0999 V2000
    0.3101    1.0380   -0.0838 C   0  0  0  0  0  0  0  0  0  0  0  0
   -1.0738    0.3590    0.0783 C   0  0  1  0  0  0  0  0  0  0  0  0
   -0.3532   -0.9924   -0.1602 C   0  0  0  0  0  0  0  0  0  0  0  0
    0.9807   -0.3191    0.2266 C   0  0  1  0  0  0  0  0  0  0  0  0
    2.0505   -0.6471   -0.5321 F   0  0  0  0  0  0  0  0  0  0  0  0
   -1.5078    0.4460    1.4936 N   0  0  0  0  0  0  0  0  0  0  0  0
   -2.2317    0.7577   -0.9114 C   0  0  0  0  0  0  0  0  0  0  0  0
   -2.6881    0.1140   -1.8512 O   0  0  0  0  0  0  0  0  0  0  0  0
   -2.8162    1.9409   -0.5898 O   0  0  0  0  0  0  0  0  0  0  0  0
  1  2  1  0
  1  4  1  0
  2  3  1  0
  2  6  1  1
  2  7  1  0
  3  4  1  0
  4  5  1  6
  7  8  2  0
  7  9  1  0
M  ISO  1   5  18
M  END
>  <DRUGBANK_ID>  (1) 
DB13146

>  <COMMON_NAME>  (1) 
Fluciclovine (18F)

>  <CAS_NUMBER>  (1) 
222727-39-1

>  <UNII>  (1) 
38R1Q0L1ZE

>  <SYNONYMS>  (1) 
(18F)FACBC; (1R,3R)-1-amino-3(18F)fluorocyclobutane-1-carboxylic acid; Anti-1-amino-3-(18F)fluorocyclobutane-1-carboxylic acid; FACBC F-18; Fluciclovine (18F); Fluciclovine F 18; Fluciclovine F-18

$$$$
