
     RDKit          3D

 25 25  0  0  0  0  0  0  0  0999 V2000
   -6.2723    7.5360   -7.5028 N   0  0  0  0  0  0  0  0  0  0  0  0
   -6.1846    6.2257   -7.1637 C   0  0  0  0  0  0  0  0  0  0  0  0
   -5.5184    5.7300   -6.0486 C   0  0  0  0  0  0  0  0  0  0  0  0
   -4.9309    6.7110   -5.2034 C   0  0  0  0  0  0  0  0  0  0  0  0
   -5.0129    8.0838   -5.5173 C   0  0  0  0  0  0  0  0  0  0  0  0
   -5.6925    8.4478   -6.6790 C   0  0  0  0  0  0  0  0  0  0  0  0
   -5.8293    9.8843   -7.1002 C   0  0  0  0  0  0  0  0  0  0  0  0
   -4.5130    9.1004   -4.7429 O   0  0  0  0  0  0  0  0  0  0  0  0
   -4.4985    6.3182   -3.8437 C   0  0  0  0  0  0  0  0  0  0  0  0
   -4.2655    5.0988   -3.5400 N   0  0  0  0  0  0  0  0  0  0  0  0
   -3.6639    4.7018   -2.2961 C   0  0  0  0  0  0  0  0  0  0  0  0
   -2.1809    5.0255   -2.4753 C   0  0  0  0  0  0  0  0  0  0  0  0
   -1.9126    6.5412   -2.4043 C   0  0  0  0  0  0  0  0  0  0  0  0
   -2.5967    7.2502   -1.2165 C   0  0  0  0  0  0  0  0  0  0  0  0
   -1.9603    6.9101    0.1388 C   0  0  2  0  0  0  0  0  0  0  0  0
   -1.7155    5.4819    0.3912 N   0  0  0  0  0  0  0  0  0  0  0  0
   -2.8282    7.4064    1.2968 C   0  0  0  0  0  0  0  0  0  0  0  0
   -2.4784    8.1655    2.1736 O   0  0  0  0  0  0  0  0  0  0  0  0
   -4.0492    6.8124    1.3289 O   0  0  0  0  0  0  0  0  0  0  0  0
   -5.7639    4.2772   -5.6449 C   0  0  0  0  0  0  0  0  0  0  0  0
   -7.1284    3.9416   -5.3550 O   0  0  0  0  0  0  0  0  0  0  0  0
   -7.9039    4.8936   -4.1363 P   0  0  0  0  0  0  0  0  0  0  0  0
   -7.2785    3.9816   -2.9501 O   0  0  0  0  0  0  0  0  0  0  0  0
   -7.1631    6.1878   -4.3010 O   0  0  0  0  0  0  0  0  0  0  0  0
   -8.6795    5.8456   -2.9177 O   0  0  0  0  0  0  0  0  0  0  0  0
  1  2  2  0
  2  3  1  0
  3  4  2  0
  3 20  1  0
  4  5  1  0
  4  9  1  0
  5  6  2  0
  5  8  1  0
  6  1  1  0
  6  7  1  0
  9 10  2  0
 10 11  1  0
 11 12  1  0
 12 13  1  0
 13 14  1  0
 15 17  1  0
 15 16  1  1
 15 14  1  0
 17 18  2  0
 17 19  1  0
 20 21  1  0
 21 22  1  0
 22 23  1  0
 22 24  2  0
 22 25  1  0
M  END
>  <DRUGBANK_ID>  (1) 
DB04083

>  <SECONDARY_ACCESSION_NUMBERS>  (1) 
EXPT02040

>  <COMMON_NAME>  (1) 
N(6)-(pyridoxal phosphate)-L-lysine

>  <CAS_NUMBER>  (1) 
2440-59-7

>  <UNII>  (1) 
QM00M3504A

>  <SYNONYMS>  (1) 
(S)-2-amino-6-[(3-hydroxy-2-methyl-5-phosphonooxymethyl-4-pyridine)methyleneamino]hexanoic acid; N6-((3-Hydroxy-2-methyl-5-((phosphonooxy)methyl)-4-pyridinyl)methylene)-L-lysine

$$$$
