
     RDKit          3D

 19 20  0  0  0  0  0  0  0  0999 V2000
    0.1687    1.2106    0.0007 C   0  0  0  0  0  0  0  0  0  0  0  0
    0.8603    0.0061    0.0035 C   0  0  0  0  0  0  0  0  0  0  0  0
    0.1884   -1.2085    0.0057 C   0  0  0  0  0  0  0  0  0  0  0  0
   -1.2021   -1.2268   -0.0060 C   0  0  0  0  0  0  0  0  0  0  0  0
   -1.9172   -0.0260   -0.0188 C   0  0  0  0  0  0  0  0  0  0  0  0
   -1.2240    1.1968   -0.0038 C   0  0  0  0  0  0  0  0  0  0  0  0
   -3.3964    0.0123   -0.0733 C   0  0  0  0  0  0  0  0  0  0  0  0
   -4.2049   -1.2754   -0.0252 C   0  0  0  0  0  0  0  0  0  0  0  0
   -5.0528   -1.3533    1.2373 C   0  0  0  0  0  0  0  0  0  0  0  0
   -6.0774   -0.2301    1.2895 C   0  0  0  0  0  0  0  0  0  0  0  0
   -6.9443   -0.2915    0.1021 N   0  0  0  0  0  0  0  0  0  0  0  0
   -7.5218    1.0248   -0.1925 C   0  0  0  0  0  0  0  0  0  0  0  0
   -8.4785    1.4769    0.9061 C   0  0  0  0  0  0  0  0  0  0  0  0
   -9.5638    0.4204    1.1634 C   0  0  0  0  0  0  0  0  0  0  0  0
   -8.9635   -0.9762    1.3685 C   0  0  0  0  0  0  0  0  0  0  0  0
   -7.9886   -1.3117    0.2426 C   0  0  0  0  0  0  0  0  0  0  0  0
    2.1978    0.0109    0.0018 F   0  0  0  0  0  0  0  0  0  0  0  0
   -3.9283    1.1246   -0.1568 O   0  0  0  0  0  0  0  0  0  0  0  0
  -10.4055    0.8144    2.3674 C   0  0  0  0  0  0  0  0  0  0  0  0
  1  2  2  0
  1  6  1  0
  2  3  1  0
  2 17  1  0
  3  4  2  0
  4  5  1  0
  5  6  2  0
  5  7  1  0
  7  8  1  0
  7 18  2  0
  8  9  1  0
  9 10  1  0
 10 11  1  0
 11 12  1  0
 11 16  1  0
 12 13  1  0
 13 14  1  0
 14 15  1  0
 14 19  1  0
 15 16  1  0
M  END
>  <DRUGBANK_ID>  (1) 
DB09224

>  <COMMON_NAME>  (1) 
Melperone

>  <CAS_NUMBER>  (1) 
3575-80-2

>  <UNII>  (1) 
J8WA3K39B7

>  <SYNONYMS>  (1) 
Melperone

$$$$
