
     RDKit          3D

 28 29  0  0  0  0  0  0  0  0999 V2000
    3.0368    6.9964    3.3845 C   0  0  0  0  0  0  0  0  0  0  0  0
    3.1837    4.8217    4.0022 C   0  0  0  0  0  0  0  0  0  0  0  0
    3.8949    5.6958    4.8122 C   0  0  0  0  0  0  0  0  0  0  0  0
    3.7831    7.0149    4.4450 N   0  0  0  0  0  0  0  0  0  0  0  0
    2.7225    5.7097    3.0555 N   0  0  0  0  0  0  0  0  0  0  0  0
    2.3266    5.5792    1.7025 C   0  0  0  0  0  0  0  0  0  0  0  0
    3.6149    5.3258    0.7800 C   0  0  0  0  0  0  0  0  0  0  0  0
    5.2086    2.6024    0.3067 C   0  0  0  0  0  0  0  0  0  0  0  0
    5.0574    2.7524   -1.3507 C   0  0  0  0  0  0  0  0  0  0  0  0
    4.3229    4.1794   -2.0820 C   0  0  0  0  0  0  0  0  0  0  0  0
    3.6045    5.5323   -1.0752 C   0  0  0  0  0  0  0  0  0  0  0  0
    4.5939    3.8738    1.3850 C   0  0  0  0  0  0  0  0  0  0  0  0
    3.2081    3.2784    4.0892 C   0  0  0  0  0  0  0  0  0  0  0  0
    1.9271    2.3823    3.6741 C   0  0  2  0  0  0  0  0  0  0  0  0
   -0.0937    3.1450    4.8432 O   0  0  0  0  0  0  0  0  0  0  0  0
    1.7911    1.3811    2.4790 N   0  0  0  0  0  0  0  0  0  0  0  0
    1.5156    1.9427    1.0987 C   0  0  2  0  0  0  0  0  0  0  0  0
    1.7214    1.0724   -0.1421 C   0  0  0  0  0  0  0  0  0  0  0  0
    2.6585    0.3154   -0.3531 O   0  0  0  0  0  0  0  0  0  0  0  0
    0.9103    1.4766   -1.1577 O   0  0  0  0  0  0  0  0  0  0  0  0
    5.6376    1.0064    0.9427 Cl  0  0  0  0  0  0  0  0  0  0  0  0
    4.2999    4.1542   -3.7936 Cl  0  0  0  0  0  0  0  0  0  0  0  0
    0.6126    3.1600    3.8514 C   0  0  0  0  0  0  0  0  0  0  0  0
    2.7195    2.7413    0.9578 C   0  0  0  0  0  0  0  0  0  0  0  0
    3.2505    3.7135   -0.3079 C   0  0  0  0  0  0  0  0  0  0  0  0
    1.5871    4.6789   -0.6100 C   0  0  0  0  0  0  0  0  0  0  0  0
    5.1702    4.6920   -0.2963 C   0  0  0  0  0  0  0  0  0  0  0  0
    0.2455    3.8818    2.7701 O   0  0  0  0  0  0  0  0  0  0  0  0
  1  4  2  0
  1  5  1  0
  2  5  1  0
  2  3  2  0
  2 13  1  0
  3  4  1  0
  5  6  1  0
  6  7  1  0
  7 11  1  0
  7 12  2  0
  8  9  2  0
  8 12  1  0
  8 21  1  0
  9 10  1  0
 10 11  2  0
 10 22  1  0
 14 23  1  0
 14 16  1  0
 14 13  1  6
 15 23  2  0
 17 24  1  6
 17 18  1  0
 17 16  1  0
 18 20  1  0
 18 19  2  0
 23 28  1  0
 24 25  1  0
 25 26  1  0
 25 27  1  0
M  END
>  <DRUGBANK_ID>  (1) 
DB12271

>  <SECONDARY_ACCESSION_NUMBERS>  (1) 
DB06387

>  <COMMON_NAME>  (1) 
ORE-1001

>  <CAS_NUMBER>  (1) 
305335-31-3

>  <UNII>  (1) 
4LD0ZHV25K

$$$$
