
     RDKit          3D

 34 36  0  0  0  0  0  0  0  0999 V2000
   -0.8825   -1.4305   -0.0439 N   0  0  0  0  0  0  0  0  0  0  0  0
    0.3326   -0.7904    0.0168 C   0  0  0  0  0  0  0  0  0  0  0  0
    0.4629    0.5629    0.0980 C   0  0  0  0  0  0  0  0  0  0  0  0
    1.4666   -1.5858   -0.0175 N   0  0  0  0  0  0  0  0  0  0  0  0
   -1.9434    0.6301    0.0929 N   0  0  0  0  0  0  0  0  0  0  0  0
    2.7994   -1.0604    0.1679 C   0  0  0  0  0  0  0  0  0  0  0  0
    2.8653    0.3935   -0.3619 C   0  0  2  0  0  0  0  0  0  0  0  0
    4.2415    0.9894   -0.0380 C   0  0  0  0  0  0  0  0  0  0  0  0
    6.2525    0.8646   -1.4402 C   0  0  0  0  0  0  0  0  0  0  0  0
    7.6807    2.7563   -1.9746 C   0  0  0  0  0  0  0  0  0  0  0  0
    6.7408    2.1382   -1.1443 C   0  0  0  0  0  0  0  0  0  0  0  0
    6.7318    0.2199   -2.5800 C   0  0  0  0  0  0  0  0  0  0  0  0
    7.7057    0.8121   -3.3916 C   0  0  0  0  0  0  0  0  0  0  0  0
    8.1554    2.1092   -3.1237 C   0  0  0  0  0  0  0  0  0  0  0  0
    9.0768    2.8691   -4.0299 C   0  0  0  0  0  0  0  0  0  0  0  0
    9.4093    4.0170   -3.7496 O   0  0  0  0  0  0  0  0  0  0  0  0
    9.5065    2.2553   -5.1881 N   0  0  0  0  0  0  0  0  0  0  0  0
   11.6787    0.4944   -9.3286 O   0  0  0  0  0  0  0  0  0  0  0  0
   10.3440    2.9444   -6.1761 C   0  0  2  0  0  0  0  0  0  0  0  0
    9.7270    4.4936   -7.9953 O   0  0  0  0  0  0  0  0  0  0  0  0
    9.5144    3.2774   -7.4450 C   0  0  0  0  0  0  0  0  0  0  0  0
    8.7287    2.5206   -7.9742 O   0  0  0  0  0  0  0  0  0  0  0  0
   11.6122    2.1006   -6.4323 C   0  0  0  0  0  0  0  0  0  0  0  0
   11.4080    0.6557   -6.9213 C   0  0  0  0  0  0  0  0  0  0  0  0
   10.9512    0.4931   -8.3483 C   0  0  0  0  0  0  0  0  0  0  0  0
    9.6166    0.3869   -8.4349 O   0  0  0  0  0  0  0  0  0  0  0  0
   -0.7997    1.3520    0.0183 C   0  0  0  0  0  0  0  0  0  0  0  0
   -0.8723    2.5501   -0.2350 O   0  0  0  0  0  0  0  0  0  0  0  0
   -1.9578   -0.7162   -0.0188 C   0  0  0  0  0  0  0  0  0  0  0  0
   -3.1832   -1.2674   -0.1135 N   0  0  0  0  0  0  0  0  0  0  0  0
    5.2892    0.2282   -0.6824 N   0  0  0  0  0  0  0  0  0  0  0  0
    1.7138    1.1974    0.1483 N   0  0  0  0  0  0  0  0  0  0  0  0
    1.0704    3.1410    1.3176 O   0  0  0  0  0  0  0  0  0  0  0  0
    1.8588    2.4867    0.6479 C   0  0  0  0  0  0  0  0  0  0  0  0
  1  2  1  0
  2  3  2  0
  2  4  1  0
  3 32  1  0
  3 27  1  0
  6  4  1  0
  6  7  1  0
  7  8  1  1
  8 31  1  0
  9 12  2  0
 10 11  2  0
 10 14  1  0
 11  9  1  0
 12 13  1  0
 13 14  2  0
 14 15  1  0
 15 17  1  0
 15 16  2  0
 19 17  1  0
 19 23  1  6
 19 21  1  0
 21 20  1  0
 21 22  2  0
 23 24  1  0
 24 25  1  0
 25 18  2  0
 25 26  1  0
 27  5  1  0
 27 28  2  0
 29  1  2  0
 29  5  1  0
 29 30  1  0
 31  9  1  0
 32  7  1  0
 32 34  1  0
 34 33  2  0
M  END
>  <DRUGBANK_ID>  (1) 
DB00650

>  <SECONDARY_ACCESSION_NUMBERS>  (1) 
APRD00698

>  <COMMON_NAME>  (1) 
Leucovorin

>  <CAS_NUMBER>  (1) 
58-05-9

>  <UNII>  (1) 
Q573I9DVLP

>  <SYNONYMS>  (1) 
(5-formyl-5,6,7,8-tetrahydropteroyl)glutamate; 10-Formyl-7,8-dihydrofolic acid; 5-Formyl-5,6,7,8-tetrahydrofolic acid; 5-Formyl-5,6,7,8-tetrahydropteroyl-L-glutamic acid; 5-Formyltetrahydrofolate; 5-formyltetrahydrofolic acid; Acide folinique; Acido folinico; Folinate; Folinic acid; L(-)-5-Formyl-5,6,7,8-tetrahydrofolic acid; Leucovorinum; N-(5-formyl-5,6,7,8-tetrahydropteroyl)-L-glutamic acid; N5-Formyl-5,6,7,8-tetrahydrofolic acid; N5-Formyltetrahydrofolic acid

$$$$
