
     RDKit          3D

 12 12  0  0  1  0  0  0  0  0999 V2000
    1.4476   -0.2921    0.5276 C   0  0  0  0  0  0  0  0  0  0  0  0
    0.2600   -1.2485    0.2944 C   0  0  2  0  0  0  0  0  0  0  0  0
   -0.8388   -0.9074   -2.4172 C   0  0  2  0  0  0  0  0  0  0  0  0
    0.3642   -2.3861   -0.7569 C   0  0  1  0  0  0  0  0  0  0  0  0
    0.3348   -1.8720   -2.2077 C   0  0  2  0  0  0  0  0  0  0  0  0
   -0.8744    0.1647   -1.3292 C   0  0  2  0  0  0  0  0  0  0  0  0
   -2.0063   -1.6081   -2.3798 F   0  0  0  0  0  0  0  0  0  0  0  0
    1.1346    0.7232    1.5003 O   0  0  0  0  0  0  0  0  0  0  0  0
    1.4490   -3.2767   -0.5012 O   0  0  0  0  0  0  0  0  0  0  0  0
    1.5699   -1.2476   -2.5935 O   0  0  0  0  0  0  0  0  0  0  0  0
    0.1208    1.1620   -1.5517 O   0  0  0  0  0  0  0  0  0  0  0  0
   -0.8734   -0.4243   -0.0159 O   0  0  0  0  0  0  0  0  0  0  0  0
  2  1  1  6
  3  7  1  1
  4  2  1  0
  4  9  1  1
  5  3  1  0
  5  4  1  0
  5 10  1  1
  6  3  1  0
  6 11  1  1
  8  1  1  0
 12  2  1  0
 12  6  1  0
M  END
>  <DRUGBANK_ID>  (1) 
DB02228

>  <SECONDARY_ACCESSION_NUMBERS>  (1) 
EXPT00116

>  <COMMON_NAME>  (1) 
2-deoxy-2-fluoro-Î²-D-galactose

>  <UNII>  (1) 
HT1OC0UBM2

>  <SYNONYMS>  (1) 
2-deoxy-2-fluoro-beta-D-galactose; 2-FLUORO-2-DEOXY-BETA-D-GALACTOPYRANOSE

$$$$
