
     RDKit          3D

 20 22  0  0  0  0  0  0  0  0999 V2000
    1.0344    0.1539    0.0020 C   0  0  0  0  0  0  0  0  0  0  0  0
    0.4915    0.3980   -1.4013 C   0  0  0  0  0  0  0  0  0  0  0  0
    0.9134   -0.5851   -2.3996 N   0  0  0  0  0  0  0  0  0  0  0  0
    0.5452   -1.9484   -2.2096 C   0  0  0  0  0  0  0  0  0  0  0  0
    0.8893   -2.8712   -3.1777 C   0  0  0  0  0  0  0  0  0  0  0  0
    1.5754   -2.4528   -4.3980 C   0  0  0  0  0  0  0  0  0  0  0  0
    1.9064   -1.1689   -4.5937 C   0  0  0  0  0  0  0  0  0  0  0  0
    1.5817   -0.1456   -3.5381 C   0  0  0  0  0  0  0  0  0  0  0  0
    1.9000    1.0334   -3.7209 O   0  0  0  0  0  0  0  0  0  0  0  0
    2.6602   -0.8082   -5.7423 C   0  0  0  0  0  0  0  0  0  0  0  0
    3.8813   -0.1911   -5.9092 C   0  0  0  0  0  0  0  0  0  0  0  0
    4.0690   -0.1148   -7.2991 C   0  0  0  0  0  0  0  0  0  0  0  0
    3.0433   -0.6346   -7.9773 N   0  0  0  0  0  0  0  0  0  0  0  0
    2.1840   -1.0155   -7.0123 N   0  0  0  0  0  0  0  0  0  0  0  0
    0.5363   -4.1843   -2.8966 C   0  0  0  0  0  0  0  0  0  0  0  0
   -0.0888   -4.5503   -1.7506 N   0  0  0  0  0  0  0  0  0  0  0  0
   -0.3865   -3.5841   -0.8812 C   0  0  0  0  0  0  0  0  0  0  0  0
   -0.1155   -2.2964   -1.0847 N   0  0  0  0  0  0  0  0  0  0  0  0
   -0.9989   -3.9232    0.2917 N   0  0  0  0  0  0  0  0  0  0  0  0
    0.8344   -5.2784   -3.8822 C   0  0  0  0  0  0  0  0  0  0  0  0
  1  2  1  0
  2  3  1  0
  3  4  1  0
  3  8  1  0
  4  5  2  0
  4 18  1  0
  5  6  1  0
  5 15  1  0
  6  7  2  0
  7  8  1  0
  7 10  1  0
  8  9  2  0
 10 11  2  0
 10 14  1  0
 11 12  1  0
 12 13  2  0
 13 14  1  0
 15 16  2  0
 15 20  1  0
 16 17  1  0
 17 18  2  0
 17 19  1  0
M  END
>  <DRUGBANK_ID>  (1) 
DB12400

>  <COMMON_NAME>  (1) 
Voxtalisib

>  <CAS_NUMBER>  (1) 
934493-76-2

>  <UNII>  (1) 
CVL1685GPH

>  <SYNONYMS>  (1) 
Voxtalisib

$$$$
