
     RDKit          3D

 27 30  0  0  0  0  0  0  0  0999 V2000
   -2.3826    0.0223   -0.1119 C   0  0  0  0  0  0  0  0  0  0  0  0
   -0.9746    0.0317    0.2953 N   0  0  0  0  0  0  0  0  0  0  0  0
   -0.3067   -1.1747   -0.1965 C   0  0  0  0  0  0  0  0  0  0  0  0
    1.1798   -1.1834    0.1713 C   0  0  0  0  0  0  0  0  0  0  0  0
    1.9035    0.0730   -0.3393 C   0  0  0  0  0  0  0  0  0  0  0  0
    1.1619    1.2904    0.1976 C   0  0  0  0  0  0  0  0  0  0  0  0
   -0.3091    1.2424   -0.2066 C   0  0  0  0  0  0  0  0  0  0  0  0
    3.2975    0.1637    0.1044 N   0  0  0  0  0  0  0  0  0  0  0  0
    4.3017    0.1196   -0.8463 C   0  0  0  0  0  0  0  0  0  0  0  0
    4.3713    1.0317   -1.8052 N   0  0  0  0  0  0  0  0  0  0  0  0
    5.4543    0.9640   -2.6314 C   0  0  0  0  0  0  0  0  0  0  0  0
    6.4191   -0.0266   -2.6396 C   0  0  0  0  0  0  0  0  0  0  0  0
    6.2232   -0.9579   -1.6492 C   0  0  0  0  0  0  0  0  0  0  0  0
    5.2275   -0.8226   -0.7140 N   0  0  0  0  0  0  0  0  0  0  0  0
    7.1301   -2.0424   -1.7015 C   0  0  0  0  0  0  0  0  0  0  0  0
    8.1473   -2.1231   -2.5990 N   0  0  0  0  0  0  0  0  0  0  0  0
    8.2510   -1.1154   -3.4709 C   0  0  0  0  0  0  0  0  0  0  0  0
    7.4274   -0.0641   -3.5489 N   0  0  0  0  0  0  0  0  0  0  0  0
    7.0247   -3.1344   -0.8060 N   0  0  0  0  0  0  0  0  0  0  0  0
    6.0404   -3.3564    0.1693 C   0  0  0  0  0  0  0  0  0  0  0  0
    4.6906   -3.4583   -0.2003 C   0  0  0  0  0  0  0  0  0  0  0  0
    3.6881   -3.4608    0.7652 C   0  0  0  0  0  0  0  0  0  0  0  0
    4.0163   -3.3528    2.1053 C   0  0  0  0  0  0  0  0  0  0  0  0
    5.3500   -3.3220    2.4953 C   0  0  0  0  0  0  0  0  0  0  0  0
    6.3653   -3.3398    1.5311 C   0  0  0  0  0  0  0  0  0  0  0  0
    5.7565   -3.2484    4.1662 Cl  0  0  0  0  0  0  0  0  0  0  0  0
    3.0230   -3.2721    3.0030 F   0  0  0  0  0  0  0  0  0  0  0  0
  1  2  1  0
  2  3  1  0
  2  7  1  0
  3  4  1  0
  4  5  1  0
  5  6  1  0
  5  8  1  0
  6  7  1  0
  8  9  1  0
  9 10  2  0
  9 14  1  0
 10 11  1  0
 11 12  2  0
 12 13  1  0
 12 18  1  0
 13 14  2  0
 13 15  1  0
 15 16  2  0
 15 19  1  0
 16 17  1  0
 17 18  2  0
 19 20  1  0
 20 21  2  0
 20 25  1  0
 21 22  1  0
 22 23  2  0
 23 24  1  0
 23 27  1  0
 24 25  2  0
 24 26  1  0
M  END
>  <DRUGBANK_ID>  (1) 
DB12966

>  <COMMON_NAME>  (1) 
Falnidamol

>  <CAS_NUMBER>  (1) 
196612-93-8

>  <UNII>  (1) 
0MU316797D

>  <SYNONYMS>  (1) 
Falnidamol

$$$$
