
     RDKit          3D

 35 38  0  0  0  0  0  0  0  0999 V2000
    2.4435   -0.0745    0.0017 C   0  0  0  0  0  0  0  0  0  0  0  0
    0.9459   -0.0524   -0.0120 C   0  0  0  0  0  0  0  0  0  0  0  0
    0.2444   -1.2464   -0.0774 C   0  0  0  0  0  0  0  0  0  0  0  0
   -1.1384   -1.2033   -0.1705 C   0  0  0  0  0  0  0  0  0  0  0  0
   -1.8091    0.0131   -0.0833 C   0  0  0  0  0  0  0  0  0  0  0  0
   -1.0295    1.1603   -0.0181 C   0  0  0  0  0  0  0  0  0  0  0  0
    0.3299    1.1553    0.0053 N   0  0  0  0  0  0  0  0  0  0  0  0
   -3.1750    0.1544   -0.0034 O   0  0  0  0  0  0  0  0  0  0  0  0
   -3.9525   -0.9837    0.0257 C   0  0  0  0  0  0  0  0  0  0  0  0
   -4.8174   -1.1504   -1.0398 C   0  0  0  0  0  0  0  0  0  0  0  0
   -5.6683   -2.2540   -1.0758 C   0  0  0  0  0  0  0  0  0  0  0  0
   -5.7100   -3.2389   -0.0755 C   0  0  0  0  0  0  0  0  0  0  0  0
   -4.8152   -3.0555    0.9975 C   0  0  0  0  0  0  0  0  0  0  0  0
   -3.9574   -1.9196    1.0776 C   0  0  0  0  0  0  0  0  0  0  0  0
   -3.0980   -1.7060    2.2964 C   0  0  0  0  0  0  0  0  0  0  0  0
   -6.7118   -4.2679   -0.0397 N   0  0  0  0  0  0  0  0  0  0  0  0
   -7.6434   -4.6017   -1.0725 C   0  0  0  0  0  0  0  0  0  0  0  0
   -8.4204   -5.7794   -1.0410 C   0  0  0  0  0  0  0  0  0  0  0  0
   -8.6543   -6.6790    0.0471 C   0  0  0  0  0  0  0  0  0  0  0  0
   -8.9222   -8.0338   -0.2074 C   0  0  0  0  0  0  0  0  0  0  0  0
   -9.0644   -8.4176   -1.5415 C   0  0  0  0  0  0  0  0  0  0  0  0
   -9.1335   -7.4688   -2.5554 C   0  0  0  0  0  0  0  0  0  0  0  0
   -8.8875   -6.1426   -2.3111 C   0  0  0  0  0  0  0  0  0  0  0  0
   -8.9690   -5.3335   -3.3638 N   0  0  0  0  0  0  0  0  0  0  0  0
   -8.3927   -4.1572   -3.2163 C   0  0  0  0  0  0  0  0  0  0  0  0
   -7.6913   -3.7990   -2.1505 N   0  0  0  0  0  0  0  0  0  0  0  0
   -8.9299   -9.0281    0.8851 C   0  0  0  0  0  0  0  0  0  0  0  0
   -8.8956  -10.3628    0.7054 C   0  0  0  0  0  0  0  0  0  0  0  0
   -8.7697  -11.3685    1.8017 C   0  0  0  0  0  0  0  0  0  0  0  0
   -9.8647  -12.3080    1.7003 N   0  0  0  0  0  0  0  0  0  0  0  0
   -9.7693  -13.6645    1.5674 C   0  0  0  0  0  0  0  0  0  0  0  0
  -10.7993  -14.3574    1.5569 O   0  0  0  0  0  0  0  0  0  0  0  0
   -8.3848  -14.2873    1.3748 C   0  0  0  0  0  0  0  0  0  0  0  0
   -7.6970  -13.7799    0.2337 O   0  0  0  0  0  0  0  0  0  0  0  0
   -8.4164  -14.0476   -0.9661 C   0  0  0  0  0  0  0  0  0  0  0  0
  1  2  1  0
  2  3  2  0
  2  7  1  0
  3  4  1  0
  4  5  2  0
  5  6  1  0
  5  8  1  0
  6  7  2  0
  8  9  1  0
  9 10  2  0
  9 14  1  0
 10 11  1  0
 11 12  2  0
 12 13  1  0
 12 16  1  0
 13 14  2  0
 14 15  1  0
 16 17  1  0
 17 18  1  0
 17 26  2  0
 18 19  2  0
 18 23  1  0
 19 20  1  0
 20 21  2  0
 20 27  1  0
 21 22  1  0
 22 23  2  0
 23 24  1  0
 24 25  2  0
 25 26  1  0
 27 28  2  0
 28 29  1  0
 29 30  1  0
 30 31  1  0
 31 32  2  0
 31 33  1  0
 33 34  1  0
 34 35  1  0
M  END
>  <DRUGBANK_ID>  (1) 
DB12302

>  <COMMON_NAME>  (1) 
CP-724714

>  <CAS_NUMBER>  (1) 
537705-08-1

>  <UNII>  (1) 
I05QZ0S4V3

$$$$
