1274
     RDKit          3D

 25 26  0  0  1  0  0  0  0  0999 V2000
    1.0332    0.0534    0.0653 O   0  0  0  0  0  0  0  0  0  0  0  0
    3.9145    5.1753   -0.8400 O   0  0  0  0  0  0  0  0  0  0  0  0
    2.2225   -6.0885    1.3348 O   0  0  0  0  0  0  0  0  0  0  0  0
   -1.4317   -7.0089   -1.9987 O   0  0  0  0  0  0  0  0  0  0  0  0
    2.5441   -1.0320   -2.2595 N   0  0  0  0  0  0  0  0  0  0  0  0
    0.1128   -5.9555   -0.6899 N   0  0  0  0  0  0  0  0  0  0  0  0
    3.0836   -0.7189   -3.5941 C   0  0  1  0  0  0  0  0  0  0  0  0
    2.6595    0.6766   -4.1009 C   0  0  0  0  0  0  0  0  0  0  0  0
    1.0738   -0.9285   -2.1751 C   0  0  0  0  0  0  0  0  0  0  0  0
    0.5968   -1.0647   -0.7086 C   0  0  1  0  0  0  0  0  0  0  0  0
    4.6222   -0.8475   -3.6477 C   0  0  0  0  0  0  0  0  0  0  0  0
    3.0516    1.8451   -3.2147 C   0  0  0  0  0  0  0  0  0  0  0  0
    1.0433   -2.3839   -0.1234 C   0  0  0  0  0  0  0  0  0  0  0  0
    0.4357   -3.5427   -0.6306 C   0  0  0  0  0  0  0  0  0  0  0  0
    3.8249    1.7242   -2.0474 C   0  0  0  0  0  0  0  0  0  0  0  0
    2.6017    3.1180   -3.5562 C   0  0  0  0  0  0  0  0  0  0  0  0
    2.0542   -2.5092    0.8295 C   0  0  0  0  0  0  0  0  0  0  0  0
    0.7778   -4.8176   -0.1825 C   0  0  0  0  0  0  0  0  0  0  0  0
    2.4188   -3.7709    1.2870 C   0  0  0  0  0  0  0  0  0  0  0  0
    4.1165    2.7931   -1.2270 C   0  0  0  0  0  0  0  0  0  0  0  0
    2.9087    4.2096   -2.7374 C   0  0  0  0  0  0  0  0  0  0  0  0
    1.7837   -4.9133    0.7919 C   0  0  0  0  0  0  0  0  0  0  0  0
    3.6646    4.0502   -1.5717 C   0  0  0  0  0  0  0  0  0  0  0  0
   -0.8828   -5.9710   -1.6278 C   0  0  0  0  0  0  0  0  0  0  0  0
    4.7095    4.9719    0.3267 C   0  0  0  0  0  0  0  0  0  0  0  0
  2 23  1  0
  2 25  1  0
  3 22  1  0
  4 24  2  0
  5  9  1  0
  6 18  1  0
  6 24  1  0
  7  5  1  0
  7  8  1  0
  7 11  1  1
  8 12  1  0
  9 10  1  0
 10  1  1  1
 10 13  1  0
 12 15  2  0
 12 16  1  0
 13 14  2  0
 13 17  1  0
 14 18  1  0
 15 20  1  0
 16 21  2  0
 17 19  2  0
 18 22  2  0
 19 22  1  0
 20 23  2  0
 21 23  1  0
M  END
>  <DRUGBANK_ID>  (1) 
DB01274

>  <COMMON_NAME>  (1) 
Arformoterol

>  <CAS_NUMBER>  (1) 
67346-49-0

>  <UNII>  (1) 
F91H02EBWT

>  <SYNONYMS>  (1) 
(-)-formoterol; (R,R)-formoterol; Arformoterol

$$$$
