
     RDKit          3D

  7  7  0  0  0  0  0  0  0  0999 V2000
    2.2855   -0.0503    0.1208 O   0  0  0  0  0  0  0  0  0  0  0  0
    0.9365   -0.0394   -0.3293 C   0  0  0  0  0  0  0  0  0  0  0  0
    0.2057   -1.2796    0.1826 C   0  0  0  0  0  0  0  0  0  0  0  0
   -1.2666   -1.2491   -0.2163 C   0  0  0  0  0  0  0  0  0  0  0  0
   -1.9511    0.0277    0.2676 C   0  0  0  0  0  0  0  0  0  0  0  0
   -1.2127    1.2798   -0.2010 C   0  0  0  0  0  0  0  0  0  0  0  0
    0.2646    1.2356    0.1758 C   0  0  0  0  0  0  0  0  0  0  0  0
  1  2  1  0
  2  3  1  0
  2  7  1  0
  3  4  1  0
  4  5  1  0
  5  6  1  0
  6  7  1  0
M  END
>  <DRUGBANK_ID>  (1) 
DB03703

>  <SECONDARY_ACCESSION_NUMBERS>  (1) 
EXPT01066

>  <COMMON_NAME>  (1) 
Cyclohexanol

>  <CAS_NUMBER>  (1) 
108-93-0

>  <UNII>  (1) 
8E7S519M3P

$$$$
