
     RDKit          3D

 28 30  0  0  0  0  0  0  0  0999 V2000
    8.9965    7.7513   -0.7497 C   0  0  0  0  0  0  0  0  0  0  0  0
    9.7549    8.0216   -1.8784 C   0  0  0  0  0  0  0  0  0  0  0  0
   10.3864    9.2589   -2.0013 C   0  0  0  0  0  0  0  0  0  0  0  0
   10.2160   10.2577   -1.0249 C   0  0  0  0  0  0  0  0  0  0  0  0
    9.4339   10.0240    0.1078 C   0  0  0  0  0  0  0  0  0  0  0  0
    8.8829    8.7375    0.2379 C   0  0  0  0  0  0  0  0  0  0  0  0
    8.0633    8.4215    1.4102 C   0  0  0  0  0  0  0  0  0  0  0  0
    7.0376    7.3632    1.4257 C   0  0  2  0  0  0  0  0  0  0  0  0
    7.6216    6.1739    0.7447 C   0  0  2  0  0  0  0  0  0  0  0  0
    8.1778    6.4899   -0.6602 C   0  0  0  0  0  0  0  0  0  0  0  0
    6.3690    5.3453    0.6400 C   0  0  2  0  0  0  0  0  0  0  0  0
    5.7349    7.6700    0.6658 C   0  0  0  0  0  0  0  0  0  0  0  0
    5.1575    6.2876    0.4894 C   0  0  1  0  0  0  0  0  0  0  0  0
    9.2486   11.0987    0.9563 O   0  0  0  0  0  0  0  0  0  0  0  0
    8.3700   11.0801    2.0978 C   0  0  0  0  0  0  0  0  0  0  0  0
    6.8167   11.0847    1.9000 C   0  0  0  0  0  0  0  0  0  0  0  0
    6.2369    4.4747    1.8788 C   0  0  0  0  0  0  0  0  0  0  0  0
    5.0923    3.5378    1.6409 C   0  0  0  0  0  0  0  0  0  0  0  0
    5.3383    2.5621    0.4655 C   0  0  2  0  0  0  0  0  0  0  0  0
    5.4720    1.1216    0.9047 C   0  0  0  0  0  0  0  0  0  0  0  0
    4.6314    0.7374    2.1073 C   0  0  0  0  0  0  0  0  0  0  0  0
    3.1380    0.9323    1.8410 C   0  0  0  0  0  0  0  0  0  0  0  0
    2.6604    0.0396    0.6980 C   0  0  0  0  0  0  0  0  0  0  0  0
    2.9585   -1.4203    1.0004 C   0  0  0  0  0  0  0  0  0  0  0  0
    6.1125   10.2079    2.6793 O   0  0  0  0  0  0  0  0  0  0  0  0
    6.2267   11.7547    1.0474 O   0  0  0  0  0  0  0  0  0  0  0  0
    4.5847    6.1046   -0.7930 O   0  0  0  0  0  0  0  0  0  0  0  0
    6.5492    2.7597   -0.2742 O   0  0  0  0  0  0  0  0  0  0  0  0
  1  2  2  0
  1  6  1  0
  1 10  1  0
  2  3  1  0
  3  4  2  0
  4  5  1  0
  5  6  2  0
  5 14  1  0
  6  7  1  0
  8  7  1  6
  8 12  1  0
  9 10  1  6
  9  8  1  0
 11  9  1  0
 11 13  1  0
 11 17  1  1
 12 13  1  0
 13 27  1  6
 14 15  1  0
 15 16  1  0
 16 25  1  0
 16 26  2  0
 17 18  1  0
 19 28  1  1
 19 20  1  0
 19 18  1  0
 20 21  1  0
 21 22  1  0
 22 23  1  0
 23 24  1  0
M  END
>  <DRUGBANK_ID>  (1) 
DB00374

>  <SECONDARY_ACCESSION_NUMBERS>  (1) 
APRD01272

>  <COMMON_NAME>  (1) 
Treprostinil

>  <CAS_NUMBER>  (1) 
81846-19-7

>  <UNII>  (1) 
RUM6K67ESG

>  <SYNONYMS>  (1) 
Tr√©prostinil; Treprostinil; Treprostinilo; Treprostinilum

$$$$
