BZC
     RDKit          3D

 20 22  0  0  0  0  0  0  0  0999 V2000
   -0.2645    0.6965   -0.0204 C   0  0  0  0  0  0  0  0  0  0  0  0
   -1.5816    1.0993   -0.0562 N   0  0  0  0  0  0  0  0  0  0  0  0
   -2.2990   -0.0042   -0.0601 C   0  0  0  0  0  0  0  0  0  0  0  0
   -1.4919   -1.1129   -0.0298 N   0  0  0  0  0  0  0  0  0  0  0  0
   -0.1869   -0.6950   -0.0085 C   0  0  0  0  0  0  0  0  0  0  0  0
    1.0150   -1.4019    0.0108 C   0  0  0  0  0  0  0  0  0  0  0  0
    0.9203    1.4537   -0.0069 C   0  0  0  0  0  0  0  0  0  0  0  0
   -3.7472   -0.0613   -0.0301 C   0  0  0  0  0  0  0  0  0  0  0  0
    2.1443    0.7588   -0.0091 C   0  0  0  0  0  0  0  0  0  0  0  0
    2.1864   -0.6401    0.0015 C   0  0  0  0  0  0  0  0  0  0  0  0
    0.9090    2.9369   -0.0008 C   0  0  0  0  0  0  0  0  0  0  0  0
   -0.2994    3.5720    0.0229 N   0  0  0  0  0  0  0  0  0  0  0  0
    1.9556    3.5810   -0.0112 O   0  0  0  0  0  0  0  0  0  0  0  0
   -4.3860   -0.6860    1.0440 C   0  0  0  0  0  0  0  0  0  0  0  0
   -4.5000    0.6083   -0.9958 C   0  0  0  0  0  0  0  0  0  0  0  0
   -5.7713   -0.6229    1.1773 C   0  0  0  0  0  0  0  0  0  0  0  0
   -6.4776   -1.1658    2.2174 O   0  0  0  0  0  0  0  0  0  0  0  0
   -6.5175    0.0672    0.2183 C   0  0  0  0  0  0  0  0  0  0  0  0
   -5.8826    0.7014   -0.8533 C   0  0  0  0  0  0  0  0  0  0  0  0
   -5.6976   -1.7857    3.2383 C   0  0  0  0  0  0  0  0  0  0  0  0
  1  2  1  0
  1  5  2  0
  1  7  1  0
  2  3  2  0
  3  4  1  0
  3  8  1  0
  4  5  1  0
  5  6  1  0
  6 10  2  0
  7  9  2  0
  7 11  1  0
  8 14  2  0
  8 15  1  0
  9 10  1  0
 11 12  1  0
 11 13  2  0
 14 16  1  0
 15 19  2  0
 16 17  1  0
 16 18  2  0
 17 20  1  0
 18 19  1  0
M  END
>  <DRUGBANK_ID>  (1) 
DB04010

>  <SECONDARY_ACCESSION_NUMBERS>  (1) 
EXPT00788

>  <COMMON_NAME>  (1) 
2-(3'-Methoxyphenyl) Benzimidazole-4-Carboxamide

$$$$
