
     RDKit          3D

 41 45  0  0  0  0  0  0  0  0999 V2000
    0.9150   -0.0156   -0.0029 C   0  0  0  0  0  0  0  0  0  0  0  0
    0.4372    0.3775   -1.3939 C   0  0  0  0  0  0  0  0  0  0  0  0
    0.9433   -0.5883   -2.4627 C   0  0  0  0  0  0  0  0  0  0  0  0
   -1.0741    0.4958   -1.4472 C   0  0  0  0  0  0  0  0  0  0  0  0
   -1.7417   -0.6992   -1.4164 N   0  0  0  0  0  0  0  0  0  0  0  0
   -3.0861   -0.6743   -1.3845 C   0  0  0  0  0  0  0  0  0  0  0  0
   -3.8195    0.4945   -1.3577 C   0  0  0  0  0  0  0  0  0  0  0  0
   -3.1445    1.7260   -1.3874 C   0  0  0  0  0  0  0  0  0  0  0  0
   -3.9637    2.9848   -1.4283 C   0  0  0  0  0  0  0  0  0  0  0  0
   -1.7315    1.7457   -1.4437 C   0  0  0  0  0  0  0  0  0  0  0  0
   -1.0157    2.9940   -1.4652 N   0  0  0  0  0  0  0  0  0  0  0  0
   -1.0653    3.8659   -0.3677 C   0  0  0  0  0  0  0  0  0  0  0  0
   -1.7153    3.6062    0.6367 O   0  0  0  0  0  0  0  0  0  0  0  0
   -0.3273    5.0367   -0.4080 N   0  0  0  0  0  0  0  0  0  0  0  0
    0.4341    5.3602   -1.4071 C   0  0  0  0  0  0  0  0  0  0  0  0
    1.1843    6.5406   -1.3604 N   0  0  0  0  0  0  0  0  0  0  0  0
    1.3974    7.5026   -2.4815 C   0  0  0  0  0  0  0  0  0  0  0  0
    1.4702    8.9793   -2.0347 C   0  0  0  0  0  0  0  0  0  0  0  0
    2.3576    9.1341   -0.8726 N   0  0  0  0  0  0  0  0  0  0  0  0
    1.9198    8.2549    0.2045 C   0  0  0  0  0  0  0  0  0  0  0  0
    2.0393    6.7764   -0.1826 C   0  0  2  0  0  0  0  0  0  0  0  0
    3.4815    6.3267   -0.4677 C   0  0  0  0  0  0  0  0  0  0  0  0
    3.4628    9.9592   -0.9366 C   0  0  0  0  0  0  0  0  0  0  0  0
    3.7163   10.6194   -1.9497 O   0  0  0  0  0  0  0  0  0  0  0  0
    4.4257   10.1238    0.2089 C   0  0  0  0  0  0  0  0  0  0  0  0
    4.5361    9.5491    1.4134 C   0  0  0  0  0  0  0  0  0  0  0  0
    0.5679    4.4474   -2.5484 C   0  0  0  0  0  0  0  0  0  0  0  0
    1.4908    4.6913   -3.5549 C   0  0  0  0  0  0  0  0  0  0  0  0
    1.6015    3.8291   -4.6064 C   0  0  0  0  0  0  0  0  0  0  0  0
    2.4924    4.1045   -5.5659 F   0  0  0  0  0  0  0  0  0  0  0  0
    0.8527    2.6730   -4.5997 C   0  0  0  0  0  0  0  0  0  0  0  0
   -0.0450    2.4022   -3.6064 N   0  0  0  0  0  0  0  0  0  0  0  0
   -0.1778    3.2812   -2.5711 C   0  0  0  0  0  0  0  0  0  0  0  0
    1.0597    1.6647   -5.6303 C   0  0  0  0  0  0  0  0  0  0  0  0
    2.3241    1.1259   -5.9476 C   0  0  0  0  0  0  0  0  0  0  0  0
    3.4954    1.4550   -5.3135 O   0  0  0  0  0  0  0  0  0  0  0  0
    2.4699    0.1808   -6.9629 C   0  0  0  0  0  0  0  0  0  0  0  0
    1.3585   -0.2466   -7.6835 C   0  0  0  0  0  0  0  0  0  0  0  0
    0.1043    0.2835   -7.3981 C   0  0  0  0  0  0  0  0  0  0  0  0
   -0.0340    1.2291   -6.3867 C   0  0  0  0  0  0  0  0  0  0  0  0
   -1.2508    1.7554   -6.1754 F   0  0  0  0  0  0  0  0  0  0  0  0
  1  2  1  0
  2  3  1  0
  2  4  1  0
  4  5  2  0
  4 10  1  0
  5  6  1  0
  6  7  2  0
  7  8  1  0
  8  9  1  0
  8 10  2  0
 10 11  1  0
 11 12  1  0
 11 33  1  0
 12 13  2  0
 12 14  1  0
 14 15  2  0
 15 16  1  0
 15 27  1  0
 16 17  1  0
 17 18  1  0
 18 19  1  0
 19 20  1  0
 19 23  1  0
 21 20  1  0
 21 16  1  0
 21 22  1  6
 23 24  2  0
 23 25  1  0
 25 26  2  0
 27 28  1  0
 27 33  2  0
 28 29  2  0
 29 30  1  0
 29 31  1  0
 31 32  2  0
 31 34  1  0
 32 33  1  0
 34 35  2  0
 34 40  1  0
 35 36  1  0
 35 37  1  0
 37 38  2  0
 38 39  1  0
 39 40  2  0
 40 41  1  0
M  END
>  <DRUGBANK_ID>  (1) 
DB15569

>  <COMMON_NAME>  (1) 
Sotorasib

>  <CAS_NUMBER>  (1) 
2252403-56-6

>  <UNII>  (1) 
2B2VM6UC8G

>  <SYNONYMS>  (1) 
6-fluoro-7-(2-fluoro-6-hydroxyphenyl)-(1M)-1-[4-methyl-2-(propan-2-yl)pyridin-3-yl]-4-[(2S)-2- methyl-4-(prop-2-enoyl)piperazin-1-yl]pyrido[2,3-d]pyrimidin-2(1H)-one; Kras G12C inhibitor 9; Sotorasib

$$$$
