208
     RDKit          3D

 17 19  0  0  1  0  0  0  0  0999 V2000
   -2.1117   -0.1765    0.0006 Cl  0  0  0  0  0  0  0  0  0  0  0  0
    1.8465    4.4780    5.0669 S   0  0  0  0  0  0  0  0  0  0  0  0
   -0.0431    3.2638    1.1396 N   0  0  0  0  0  0  0  0  0  0  0  0
    1.3742    3.6751    1.1499 C   0  0  0  0  0  0  0  0  0  0  0  0
   -0.4163    2.5235    2.3678 C   0  0  0  0  0  0  0  0  0  0  0  0
    1.7542    4.6416    2.2734 C   0  0  0  0  0  0  0  0  0  0  0  0
    0.2151    3.1304    3.5935 C   0  0  0  0  0  0  0  0  0  0  0  0
    1.2221    4.0761    3.5438 C   0  0  0  0  0  0  0  0  0  0  0  0
   -0.3843    2.4808   -0.0768 C   0  0  0  0  0  0  0  0  0  0  0  0
    0.3017    1.1231   -0.1980 C   0  0  0  0  0  0  0  0  0  0  0  0
   -0.0525    2.7473    4.9425 C   0  0  0  0  0  0  0  0  0  0  0  0
    0.7632    3.4016    5.8400 C   0  0  0  0  0  0  0  0  0  0  0  0
   -0.3887   -0.0908   -0.0940 C   0  0  0  0  0  0  0  0  0  0  0  0
    1.7067    1.0622   -0.3221 C   0  0  0  0  0  0  0  0  0  0  0  0
    0.3128   -1.3036   -0.0366 C   0  0  0  0  0  0  0  0  0  0  0  0
    2.4068   -0.1309   -0.1536 C   0  0  0  0  0  0  0  0  0  0  0  0
    1.7080   -1.3167   -0.0257 C   0  0  0  0  0  0  0  0  0  0  0  0
  1 13  1  0
  2  8  1  0
  2 12  1  0
  3  4  1  0
  3  5  1  0
  3  9  1  0
  4  6  1  0
  5  7  1  0
  6  8  1  0
  7  8  2  0
  7 11  1  0
  9 10  1  0
 10 13  2  0
 10 14  1  0
 11 12  2  0
 13 15  1  0
 14 16  2  0
 15 17  2  0
 16 17  1  0
M  END
>  <DRUGBANK_ID>  (1) 
DB00208

>  <SECONDARY_ACCESSION_NUMBERS>  (1) 
APRD01257

>  <COMMON_NAME>  (1) 
Ticlopidine

>  <CAS_NUMBER>  (1) 
55142-85-3

>  <UNII>  (1) 
OM90ZUW7M1

>  <SYNONYMS>  (1) 
Ticlopidina; Ticlopidine; Ticlopidinum

$$$$
