
     RDKit          3D

 12 12  0  0  0  0  0  0  0  0999 V2000
    1.0635   -0.1868    0.0128 N   0  0  0  0  0  0  0  0  0  0  0  0
    0.2894   -0.8959   -0.8864 C   0  0  0  0  0  0  0  0  0  0  0  0
   -1.0662   -0.8846   -0.8712 C   0  0  0  0  0  0  0  0  0  0  0  0
   -1.8629   -0.0336    0.0388 C   0  0  0  0  0  0  0  0  0  0  0  0
   -1.5222    1.3224    0.1658 C   0  0  0  0  0  0  0  0  0  0  0  0
   -2.1485    2.1441    1.0962 C   0  0  0  0  0  0  0  0  0  0  0  0
   -3.2128    1.6504    1.8384 C   0  0  0  0  0  0  0  0  0  0  0  0
   -3.6446    0.3371    1.6436 C   0  0  0  0  0  0  0  0  0  0  0  0
   -2.9475   -0.5195    0.7781 C   0  0  0  0  0  0  0  0  0  0  0  0
    0.9245   -1.7449   -1.9715 C   0  0  0  0  0  0  0  0  0  0  0  0
    2.2752   -1.7122   -1.9717 O   0  0  0  0  0  0  0  0  0  0  0  0
    0.2993   -2.4027   -2.7947 O   0  0  0  0  0  0  0  0  0  0  0  0
  1  2  1  0
  2  3  2  0
  2 10  1  0
  3  4  1  0
  4  5  2  0
  4  9  1  0
  5  6  1  0
  6  7  2  0
  7  8  1  0
  8  9  2  0
 10 11  1  0
 10 12  2  0
M  END
>  <DRUGBANK_ID>  (1) 
DB04584

>  <COMMON_NAME>  (1) 
Phenyldehydroalanine

>  <CAS_NUMBER>  (1) 
7060-39-1

>  <SYNONYMS>  (1) 
2,3-Didehydrophenylalanine; alpha-Aminocinnamate

$$$$
