
     RDKit          3D

 30 34  0  0  1  0  0  0  0  0999 V2000
    1.0244   -0.0631   -0.0736 C   0  0  0  0  0  0  0  0  0  0  0  0
   -0.4956   -0.0631   -0.0736 C   0  0  0  0  0  0  0  0  0  0  0  0
   -0.9454   -1.4986   -0.3672 C   0  0  0  0  0  0  0  0  0  0  0  0
   -0.4905   -2.5306    0.5979 N   0  0  0  0  0  0  0  0  0  0  0  0
    0.8383   -3.1310    0.3748 C   0  0  1  0  0  0  0  0  0  0  0  0
    1.9465   -2.1238    0.4382 C   0  0  0  0  0  0  0  0  0  0  0  0
    1.8208   -1.0039    1.9521 C   0  0  2  0  0  0  0  0  0  0  0  0
    0.3288   -0.9431    2.4481 C   0  0  0  0  0  0  0  0  0  0  0  0
   -0.4645   -2.1628    2.0203 C   0  0  2  0  0  0  0  0  0  0  0  0
    0.3166   -3.3135    2.6607 C   0  0  0  0  0  0  0  0  0  0  0  0
    1.1987   -3.9193    1.5864 C   0  0  0  0  0  0  0  0  0  0  0  0
    2.0593    0.5688    2.0653 N   0  0  0  0  0  0  0  0  0  0  0  0
    3.2145    1.3234    1.9969 C   0  0  0  0  0  0  0  0  0  0  0  0
    3.0514    2.6844    2.3846 C   0  0  0  0  0  0  0  0  0  0  0  0
    1.7656    3.2782    2.5573 C   0  0  0  0  0  0  0  0  0  0  0  0
    1.6443    4.2860    3.4920 C   0  0  0  0  0  0  0  0  0  0  0  0
    2.8056    4.8552    3.9434 C   0  0  0  0  0  0  0  0  0  0  0  0
    4.0559    4.4624    3.5792 N   0  0  0  0  0  0  0  0  0  0  0  0
    4.1500    3.3256    2.8363 C   0  0  0  0  0  0  0  0  0  0  0  0
    5.3868    2.7125    2.6277 C   0  0  0  0  0  0  0  0  0  0  0  0
    5.4705    1.4586    1.9974 C   0  0  0  0  0  0  0  0  0  0  0  0
    4.3933    0.7572    1.7083 N   0  0  0  0  0  0  0  0  0  0  0  0
    6.7036    0.8410    1.7654 N   0  0  0  0  0  0  0  0  0  0  0  0
    7.8867    1.2609    2.2215 C   0  0  0  0  0  0  0  0  0  0  0  0
    8.9455    1.6005    1.4878 N   0  0  0  0  0  0  0  0  0  0  0  0
    9.7917    2.1419    2.3807 N   0  0  0  0  0  0  0  0  0  0  0  0
    9.3521    2.0708    3.6740 C   0  0  0  0  0  0  0  0  0  0  0  0
    8.1219    1.4699    3.6019 C   0  0  0  0  0  0  0  0  0  0  0  0
   10.1243    2.5762    4.8242 C   0  0  0  0  0  0  0  0  0  0  0  0
    2.2854   -0.0631   -0.0736 N   0  0  0  0  0  0  0  0  0  0  0  0
  1  2  1  0
  1 30  3  0
  2  3  1  0
  3  4  1  0
  5  4  1  0
  5  6  1  1
  5 11  1  0
  6  7  1  0
  7  8  1  0
  7 12  1  6
  9  8  1  6
  9 10  1  0
  9  4  1  0
 10 11  1  0
 12 13  1  0
 13 22  2  0
 14 13  1  0
 14 19  1  0
 15 14  2  0
 16 15  1  0
 17 16  2  0
 18 17  1  0
 18 19  2  0
 20 19  1  0
 21 20  2  0
 21 23  1  0
 22 21  1  0
 23 24  1  0
 24 28  1  0
 25 24  2  0
 26 25  1  0
 26 27  1  0
 27 29  1  0
 28 27  2  0
M  END
>  <DRUGBANK_ID>  (1) 
DB16660

>  <COMMON_NAME>  (1) 
Izencitinib

>  <CAS_NUMBER>  (1) 
2051918-33-1

>  <UNII>  (1) 
2ZT81PV5UM

>  <SYNONYMS>  (1) 
3-((1r,3s,5s)-3-((7-((5-methyl-1h-pyrazol-3-yl)amino)-1,6-naphthyridin-5-yl)amino)-8-azabicyclo(3.2.1)octan-8-yl)propanenitrile; 8-azabicyclo(3.2.1)octane-8-propanenitrile, 3-((7-((5-methyl-1h-pyrazol-3-yl)amino)-1,6-naphthyridin-5-yl)amino)-, (3-exo)-

$$$$
