
     RDKit          3D

 29 32  0  0  0  0  0  0  0  0999 V2000
    0.8043   -0.0311   -0.0482 O   0  0  0  0  0  0  0  0  0  0  0  0
    0.2446    0.7411    0.9135 C   0  0  0  0  0  0  0  0  0  0  0  0
    0.9244    1.2853    1.7457 O   0  0  0  0  0  0  0  0  0  0  0  0
   -1.2560    0.7906    0.8095 C   0  0  0  0  0  0  0  0  0  0  0  0
   -1.7038    1.3649   -0.5370 C   0  0  0  0  0  0  0  0  0  0  0  0
   -1.5009    2.6370   -0.8132 N   0  0  0  0  0  0  0  0  0  0  0  0
   -1.8155    3.1427   -2.1073 N   0  0  0  0  0  0  0  0  0  0  0  0
   -1.4821    4.6485   -2.4501 C   0  0  0  0  0  0  0  0  0  0  0  0
   -0.1714    4.8470   -3.3876 C   0  0  0  0  0  0  0  0  0  0  0  0
    0.3069    5.7631   -4.2894 N   0  0  0  0  0  0  0  0  0  0  0  0
    1.5377    5.2620   -4.9761 C   0  0  0  0  0  0  0  0  0  0  0  0
    1.8545    4.0172   -4.4568 C   0  0  0  0  0  0  0  0  0  0  0  0
    1.0370    3.6892   -3.0087 S   0  0  0  0  0  0  0  0  0  0  0  0
    2.7360    3.1166   -5.0413 C   0  0  0  0  0  0  0  0  0  0  0  0
    3.2798    3.4066   -6.2706 C   0  0  0  0  0  0  0  0  0  0  0  0
    3.3165    4.7247   -6.7124 C   0  0  0  0  0  0  0  0  0  0  0  0
    2.4649    5.6998   -6.0462 C   0  0  0  0  0  0  0  0  0  0  0  0
    4.3132    4.9486   -7.8602 C   0  0  0  0  0  0  0  0  0  0  0  0
    5.5602    4.4542   -7.5611 F   0  0  0  0  0  0  0  0  0  0  0  0
    3.9611    4.2842   -9.0032 F   0  0  0  0  0  0  0  0  0  0  0  0
    4.5170    6.2407   -8.2208 F   0  0  0  0  0  0  0  0  0  0  0  0
   -2.4480    2.3317   -3.0635 C   0  0  0  0  0  0  0  0  0  0  0  0
   -2.8235    2.7666   -4.1457 O   0  0  0  0  0  0  0  0  0  0  0  0
   -2.6392    0.8887   -2.7323 C   0  0  0  0  0  0  0  0  0  0  0  0
   -2.2843    0.4088   -1.4964 C   0  0  0  0  0  0  0  0  0  0  0  0
   -2.4146   -0.9127   -1.1455 N   0  0  0  0  0  0  0  0  0  0  0  0
   -2.8964   -1.7339   -2.1150 C   0  0  0  0  0  0  0  0  0  0  0  0
   -3.2461   -1.2575   -3.3666 C   0  0  0  0  0  0  0  0  0  0  0  0
   -3.1358    0.0539   -3.6981 N   0  0  0  0  0  0  0  0  0  0  0  0
  1  2  1  0
  2  3  2  0
  2  4  1  0
  4  5  1  0
  5  6  2  0
  5 25  1  0
  6  7  1  0
  7  8  1  0
  7 22  1  0
  8  9  1  0
  9 10  2  0
  9 13  1  0
 10 11  1  0
 11 12  2  0
 11 17  1  0
 12 13  1  0
 12 14  1  0
 14 15  2  0
 15 16  1  0
 16 17  2  0
 16 18  1  0
 18 19  1  0
 18 20  1  0
 18 21  1  0
 22 23  2  0
 22 24  1  0
 24 25  2  0
 24 29  1  0
 25 26  1  0
 26 27  2  0
 27 28  1  0
 28 29  2  0
M  END
>  <DRUGBANK_ID>  (1) 
DB15121

>  <COMMON_NAME>  (1) 
AT-001

>  <CAS_NUMBER>  (1) 
1355612-71-3

>  <UNII>  (1) 
E8I3O45DDU

$$$$
