GAX
     RDKit          3D

 30 33  0  0  0  0  0  0  0  0999 V2000
   -1.3393    0.0547    0.1198 N   0  0  0  0  0  0  0  0  0  0  0  0
   -4.7482   -0.0237   -0.4288 N   0  0  0  0  0  0  0  0  0  0  0  0
   -4.7235    1.1443   -1.3026 C   0  0  0  0  0  0  0  0  0  0  0  0
   -4.8458   -2.3459    0.0672 N   0  0  0  0  0  0  0  0  0  0  0  0
   -4.4790   -4.1939   -1.4603 N   0  0  0  0  0  0  0  0  0  0  0  0
   -4.2794    3.5636   -1.6056 C   0  0  0  0  0  0  0  0  0  0  0  0
   -2.2941    5.0569   -0.0280 N   0  0  0  0  0  0  0  0  0  0  0  0
   -4.1209    3.3847   -2.9794 C   0  0  0  0  0  0  0  0  0  0  0  0
   -4.2915    2.1171   -3.5119 C   0  0  0  0  0  0  0  0  0  0  0  0
   -3.4198    6.0133   -2.0823 O   0  0  0  0  0  0  0  0  0  0  0  0
   -4.8087    5.5971   -0.0248 O   0  0  0  0  0  0  0  0  0  0  0  0
   -4.9159   -1.6244   -2.0902 O   0  0  0  0  0  0  0  0  0  0  0  0
   -4.8008   -1.3480   -0.8993 C   0  0  0  0  0  0  0  0  0  0  0  0
   -5.0055   -3.6546   -0.3849 C   0  0  0  0  0  0  0  0  0  0  0  0
   -4.8637   -5.5131   -1.5835 C   0  0  0  0  0  0  0  0  0  0  0  0
   -5.7284   -5.9681   -0.6120 C   0  0  0  0  0  0  0  0  0  0  0  0
   -5.9906   -4.7080    0.5431 S   0  0  0  0  0  0  0  0  0  0  0  0
   -4.7324    2.4658   -0.8022 C   0  0  0  0  0  0  0  0  0  0  0  0
   -4.5978    1.0291   -2.6868 C   0  0  0  0  0  0  0  0  0  0  0  0
   -3.7708    5.1869   -0.9254 S   0  0  0  0  0  0  0  0  0  0  0  0
   -2.3234    4.3004    1.2752 C   0  0  0  0  0  0  0  0  0  0  0  0
   -2.2739    2.8005    0.9691 C   0  0  0  0  0  0  0  0  0  0  0  0
   -1.1625    2.4639    0.1034 N   0  0  0  0  0  0  0  0  0  0  0  0
   -1.0555    3.2233   -1.1587 C   0  0  0  0  0  0  0  0  0  0  0  0
   -1.0414    4.7088   -0.7886 C   0  0  0  0  0  0  0  0  0  0  0  0
   -0.6192    1.1942    0.0711 C   0  0  0  0  0  0  0  0  0  0  0  0
    0.7715    1.1873    0.0155 C   0  0  0  0  0  0  0  0  0  0  0  0
    1.4708    0.0002   -0.0050 C   0  0  0  0  0  0  0  0  0  0  0  0
    0.7564   -1.1825   -0.0021 C   0  0  0  0  0  0  0  0  0  0  0  0
   -0.6317   -1.1091    0.0452 C   0  0  0  0  0  0  0  0  0  0  0  0
  2  3  1  0
  3 18  2  0
  3 19  1  0
  4 13  1  0
  5 14  2  0
  6 20  1  0
  6  8  2  0
  7 25  1  0
  7 20  1  0
  9  8  1  0
 12 13  2  0
 13  2  1  0
 14  4  1  0
 15 16  2  0
 15  5  1  0
 16 17  1  0
 17 14  1  0
 18  6  1  0
 19  9  2  0
 20 11  2  0
 20 10  2  0
 21  7  1  0
 22 23  1  0
 22 21  1  0
 23 24  1  0
 24 25  1  0
 26  1  2  0
 26 23  1  0
 27 26  1  0
 28 29  1  0
 28 27  2  0
 29 30  2  0
 30  1  1  0
M  END
>  <DRUGBANK_ID>  (1) 
DB07817

>  <COMMON_NAME>  (1) 
1-{3-[(4-pyridin-2-ylpiperazin-1-yl)sulfonyl]phenyl}-3-(1,3-thiazol-2-yl)urea

$$$$
