872
     RDKit          3D

 38 43  0  0  0  0  0  0  0  0999 V2000
    1.1246   -0.1039   -0.0677 O   0  0  0  0  0  0  0  0  0  0  0  0
    4.6680   -6.3084   -3.8192 O   0  0  0  0  0  0  0  0  0  0  0  0
    3.0189    0.9752    0.7987 N   0  0  0  0  0  0  0  0  0  0  0  0
    6.7560    2.4771    2.2225 N   0  0  0  0  0  0  0  0  0  0  0  0
    5.7631    1.5762    3.9919 N   0  0  0  0  0  0  0  0  0  0  0  0
    4.5741   -4.6072   -2.3275 N   0  0  0  0  0  0  0  0  0  0  0  0
    4.7625    2.8738    0.6993 C   0  0  0  0  0  0  0  0  0  0  0  0
    4.1125    1.6408    0.0878 C   0  0  0  0  0  0  0  0  0  0  0  0
    5.4181    2.4533    1.9476 C   0  0  0  0  0  0  0  0  0  0  0  0
    4.8260    1.8806    3.0419 C   0  0  0  0  0  0  0  0  0  0  0  0
    2.5397    1.3651    2.1014 C   0  0  0  0  0  0  0  0  0  0  0  0
    3.3942    1.7206    3.1738 C   0  0  0  0  0  0  0  0  0  0  0  0
    6.9225    1.9290    3.4732 C   0  0  0  0  0  0  0  0  0  0  0  0
    2.3333    0.0080    0.0626 C   0  0  0  0  0  0  0  0  0  0  0  0
    1.1615    1.2814    2.3813 C   0  0  0  0  0  0  0  0  0  0  0  0
    2.8578    1.9458    4.4564 C   0  0  0  0  0  0  0  0  0  0  0  0
    3.1670   -1.0236   -0.5970 C   0  0  0  0  0  0  0  0  0  0  0  0
    0.6394    1.5308    3.6504 C   0  0  0  0  0  0  0  0  0  0  0  0
    1.4895    1.8553    4.6931 C   0  0  0  0  0  0  0  0  0  0  0  0
    8.2440    1.7821    4.1233 C   0  0  0  0  0  0  0  0  0  0  0  0
    2.6767   -1.4658   -1.7945 C   0  0  0  0  0  0  0  0  0  0  0  0
    4.1970   -1.7359    0.0431 C   0  0  0  0  0  0  0  0  0  0  0  0
    4.1409   -3.4175   -1.6963 C   0  0  0  0  0  0  0  0  0  0  0  0
    3.0270   -2.7420   -2.1566 C   0  0  0  0  0  0  0  0  0  0  0  0
    4.7581   -2.8826   -0.5661 C   0  0  0  0  0  0  0  0  0  0  0  0
    3.0852   -4.6526   -4.4123 C   0  0  0  0  0  0  0  0  0  0  0  0
    1.8772   -5.3615   -4.6351 C   0  0  0  0  0  0  0  0  0  0  0  0
    4.1570   -5.2297   -3.5165 C   0  0  0  0  0  0  0  0  0  0  0  0
    1.7018   -6.7685   -4.2434 C   0  0  0  0  0  0  0  0  0  0  0  0
    3.1940   -3.3174   -4.8564 C   0  0  0  0  0  0  0  0  0  0  0  0
    0.7915   -4.6699   -5.2174 C   0  0  0  0  0  0  0  0  0  0  0  0
    2.0326   -2.6102   -5.2096 C   0  0  0  0  0  0  0  0  0  0  0  0
    0.8323   -3.2865   -5.3918 C   0  0  0  0  0  0  0  0  0  0  0  0
    1.8038   -7.1788   -2.9028 C   0  0  0  0  0  0  0  0  0  0  0  0
    1.5033   -7.7479   -5.2257 C   0  0  0  0  0  0  0  0  0  0  0  0
    1.8984   -8.5339   -2.5829 C   0  0  0  0  0  0  0  0  0  0  0  0
    1.4744   -9.1002   -4.8873 C   0  0  0  0  0  0  0  0  0  0  0  0
    1.7411   -9.4939   -3.5784 C   0  0  0  0  0  0  0  0  0  0  0  0
  1 14  2  0
  2 28  2  0
  3  8  1  0
  3 11  1  0
  3 14  1  0
  4  9  1  0
  4 13  1  0
  5 10  1  0
  5 13  2  0
  6 23  1  0
  6 28  1  0
  7  8  1  0
  7  9  1  0
  9 10  2  0
 10 12  1  0
 11 12  2  0
 11 15  1  0
 12 16  1  0
 13 20  1  0
 14 17  1  0
 15 18  2  0
 16 19  2  0
 17 21  2  0
 17 22  1  0
 18 19  1  0
 21 24  1  0
 22 25  2  0
 23 24  2  0
 23 25  1  0
 26 27  1  0
 26 28  1  0
 26 30  2  0
 27 29  1  0
 27 31  2  0
 29 34  2  0
 29 35  1  0
 30 32  1  0
 31 33  1  0
 32 33  2  0
 34 36  1  0
 35 37  2  0
 36 38  2  0
 37 38  1  0
M  END
>  <DRUGBANK_ID>  (1) 
DB00872

>  <SECONDARY_ACCESSION_NUMBERS>  (1) 
APRD01302

>  <COMMON_NAME>  (1) 
Conivaptan

>  <CAS_NUMBER>  (1) 
210101-16-9

>  <UNII>  (1) 
0NJ98Y462X

>  <SYNONYMS>  (1) 
4'-((4,5-dihydro-2-methylimidazo(4,5-d)(1)benzazepin-6(1H)-yl)carbonyl)-2-biphenylcarboxanilide; Conivaptan

$$$$
