
     RDKit          3D

  8  7  0  0  0  0  0  0  0  0999 V2000
    1.1232    0.0875    0.0554 C   0  0  0  0  0  0  0  0  0  0  0  0
    0.5714    0.4907   -1.2917 N   0  0  0  0  0  0  0  0  0  0  0  0
    1.0483   -0.4713   -2.3384 C   0  0  0  0  0  0  0  0  0  0  0  0
    0.5508   -1.7719   -2.1549 O   0  0  0  0  0  0  0  0  0  0  0  0
   -0.9266    0.4830   -1.2941 C   0  0  0  0  0  0  0  0  0  0  0  0
   -1.4812    1.4277   -0.4059 O   0  0  0  0  0  0  0  0  0  0  0  0
    1.0550    1.8722   -1.6317 C   0  0  0  0  0  0  0  0  0  0  0  0
    0.7069    2.8501   -0.6827 O   0  0  0  0  0  0  0  0  0  0  0  0
  1  2  1  0
  2  3  1  0
  2  5  1  0
  2  7  1  0
  3  4  1  0
  5  6  1  0
  7  8  1  0
M  CHG  1   2   1
M  END
>  <DRUGBANK_ID>  (1) 
DB03570

>  <SECONDARY_ACCESSION_NUMBERS>  (1) 
EXPT00030

>  <COMMON_NAME>  (1) 
Tris-Hydroxymethyl-Methyl-Ammonium

>  <UNII>  (1) 
89W2RM9EWB

$$$$
