
     RDKit          3D

  1  0  0  0  0  0  0  0  0  0999 V2000
    1.0658    0.0428   -0.0620 Mg  0  0  0  0  0 15  0  0  0  0  0  0
M  CHG  1   1   2
M  END
>  <DRUGBANK_ID>  (1) 
DB01378

>  <COMMON_NAME>  (1) 
Magnesium cation

>  <CAS_NUMBER>  (1) 
22537-22-0

>  <UNII>  (1) 
T6V3LHY838

>  <SYNONYMS>  (1) 
Magnesium ion; Magnesium, ion(Mg2+)

$$$$
