
     RDKit          3D

 20 22  0  0  0  0  0  0  0  0999 V2000
   -0.5457    1.1267   -0.1405 C   0  0  0  0  0  0  0  0  0  0  0  0
   -1.2234   -0.0251   -0.2726 N   0  0  0  0  0  0  0  0  0  0  0  0
   -0.5626   -1.1864   -0.1435 C   0  0  0  0  0  0  0  0  0  0  0  0
    0.7952   -1.2193   -0.0225 C   0  0  0  0  0  0  0  0  0  0  0  0
    1.4073    0.0054   -0.0048 C   0  0  0  0  0  0  0  0  0  0  0  0
    0.7803    1.1879   -0.0246 N   0  0  0  0  0  0  0  0  0  0  0  0
   -1.2973   -2.3464    0.0506 N   0  0  0  0  0  0  0  0  0  0  0  0
   -1.3904    2.6917   -0.0645 S   0  0  0  0  0  0  0  0  0  0  0  0
   -3.1817    2.2853    0.0301 C   0  0  1  0  0  0  0  0  0  0  0  0
   -3.7057    1.6520   -1.2548 C   0  0  0  0  0  0  0  0  0  0  0  0
   -4.7233    1.9206    3.3467 C   0  0  0  0  0  0  0  0  0  0  0  0
   -4.6527    0.5576    3.5546 C   0  0  0  0  0  0  0  0  0  0  0  0
   -3.9619   -0.3235    2.7697 C   0  0  0  0  0  0  0  0  0  0  0  0
   -3.4489    0.2135    1.5670 C   0  0  0  0  0  0  0  0  0  0  0  0
   -3.6054    1.6006    1.3233 C   0  0  0  0  0  0  0  0  0  0  0  0
   -4.1938    2.4297    2.2223 N   0  0  0  0  0  0  0  0  0  0  0  0
   -5.2641   -0.0447    4.5889 O   0  0  0  0  0  0  0  0  0  0  0  0
   -4.0159   -1.5647    3.4979 C   0  0  0  0  0  0  0  0  0  0  0  0
   -4.7902   -1.3050    4.6151 C   0  0  0  0  0  0  0  0  0  0  0  0
    3.1183    0.1064    0.0439 Cl  0  0  0  0  0  0  0  0  0  0  0  0
  1  2  2  0
  1  6  1  0
  1  8  1  0
  2  3  1  0
  3  4  2  0
  3  7  1  0
  4  5  1  0
  5  6  2  0
  5 20  1  0
  8  9  1  0
  9 10  1  6
  9 15  1  0
 11 12  2  0
 11 16  1  0
 12 13  1  0
 13 14  2  0
 14 15  1  0
 15 16  2  0
 17 19  1  0
 17 12  1  0
 18 19  2  0
 18 13  1  0
M  END
>  <DRUGBANK_ID>  (1) 
DB08414

>  <COMMON_NAME>  (1) 
PNU-142721

>  <CAS_NUMBER>  (1) 
185220-03-5

>  <UNII>  (1) 
U3D0LYB7P0

$$$$
