
     RDKit          3D

  5  4  0  0  0  0  0  0  0  0999 V2000
    0.9078    0.0369    0.0118 Se  0  0  0  0  0  6  0  0  0  0  0  0
    0.2878   -1.2642   -1.1639 O   0  0  0  0  0  0  0  0  0  0  0  0
    0.2878   -0.3308    1.7265 O   0  0  0  0  0  0  0  0  0  0  0  0
    0.3529    1.5305   -0.4704 O   0  0  0  0  0  0  0  0  0  0  0  0
    2.5725    0.0369    0.0118 O   0  0  0  0  0  0  0  0  0  0  0  0
  2  1  1  0
  3  1  1  0
  4  1  2  0
  5  1  2  0
M  END
>  <DRUGBANK_ID>  (1) 
DB11068

>  <COMMON_NAME>  (1) 
Selenic acid

>  <CAS_NUMBER>  (1) 
7783-08-6

>  <UNII>  (1) 
HV0Y51NC4J

$$$$
