
     RDKit          3D

 29 31  0  0  0  0  0  0  0  0999 V2000
    1.4218   -0.3328    0.0007 C   0  0  0  0  0  0  0  0  0  0  0  0
    0.6052   -1.4451   -0.0018 C   0  0  0  0  0  0  0  0  0  0  0  0
   -0.7722   -1.2790   -0.0818 C   0  0  0  0  0  0  0  0  0  0  0  0
   -1.3138   -0.0007   -0.1246 C   0  0  0  0  0  0  0  0  0  0  0  0
   -0.5456    1.1444    0.0291 C   0  0  0  0  0  0  0  0  0  0  0  0
    0.8600    0.9419    0.0121 C   0  0  0  0  0  0  0  0  0  0  0  0
    0.7520    4.0671   -0.5308 C   0  0  0  0  0  0  0  0  0  0  0  0
   -0.0578    3.6012    0.5255 C   0  0  0  0  0  0  0  0  0  0  0  0
   -1.0949    2.5324    0.3052 C   0  0  0  0  0  0  0  0  0  0  0  0
    1.8197    4.9476   -0.2801 C   0  0  0  0  0  0  0  0  0  0  0  0
    2.1318    5.3319    1.0416 C   0  0  0  0  0  0  0  0  0  0  0  0
    1.3706    4.7947    2.0987 C   0  0  0  0  0  0  0  0  0  0  0  0
    0.2486    3.9961    1.8317 C   0  0  0  0  0  0  0  0  0  0  0  0
   -2.4207    2.8441    0.5269 C   0  0  0  0  0  0  0  0  0  0  0  0
    2.8258    6.5349    1.1468 O   0  0  0  0  0  0  0  0  0  0  0  0
    2.7134    7.2983    2.3747 C   0  0  0  0  0  0  0  0  0  0  0  0
    1.4456    8.2201    2.6335 C   0  0  0  0  0  0  0  0  0  0  0  0
    0.1162    7.6000    2.5728 N   0  0  0  0  0  0  0  0  0  0  0  0
   -1.0198    8.2930    3.1687 C   0  0  0  0  0  0  0  0  0  0  0  0
   -1.4748    9.4587    2.3105 C   0  0  0  0  0  0  0  0  0  0  0  0
   -0.2469    7.1635    1.2349 C   0  0  0  0  0  0  0  0  0  0  0  0
   -0.1879    7.9567   -0.0557 C   0  0  0  0  0  0  0  0  0  0  0  0
   -3.7695    1.7121    0.4496 Cl  0  0  0  0  0  0  0  0  0  0  0  0
   -2.9859    4.1846    0.8175 C   0  0  0  0  0  0  0  0  0  0  0  0
   -2.6717    5.2737    0.0074 C   0  0  0  0  0  0  0  0  0  0  0  0
   -3.2861    6.5083    0.2087 C   0  0  0  0  0  0  0  0  0  0  0  0
   -4.2685    6.6607    1.1818 C   0  0  0  0  0  0  0  0  0  0  0  0
   -4.6541    5.5682    1.9450 C   0  0  0  0  0  0  0  0  0  0  0  0
   -3.9871    4.3546    1.8003 C   0  0  0  0  0  0  0  0  0  0  0  0
  1  2  2  0
  1  6  1  0
  2  3  1  0
  3  4  2  0
  4  5  1  0
  5  6  2  0
  5  9  1  0
  7  8  2  0
  7 10  1  0
  8  9  1  0
  8 13  1  0
  9 14  2  3
 10 11  2  0
 11 12  1  0
 11 15  1  0
 12 13  2  0
 14 23  1  0
 14 24  1  0
 15 16  1  0
 16 17  1  0
 17 18  1  0
 18 19  1  0
 18 21  1  0
 19 20  1  0
 21 22  1  0
 24 25  2  0
 24 29  1  0
 25 26  1  0
 26 27  2  0
 27 28  1  0
 28 29  2  0
M  END
>  <DRUGBANK_ID>  (1) 
DB00882

>  <SECONDARY_ACCESSION_NUMBERS>  (1) 
APRD00880

>  <COMMON_NAME>  (1) 
Clomifene

>  <CAS_NUMBER>  (1) 
911-45-5

>  <UNII>  (1) 
1HRS458QU2

>  <SYNONYMS>  (1) 
2-(4-(2-chloro-1,2-diphenylethenyl)phenoxy)-N,N-diethylethanamine; 2-(p-(2-chloro-1,2-diphenylvinyl)phenoxy)triethylamine; 2-(p-(β-chloro-α-phenylstyryl)phenoxy)triethylamine; Clomifene; Clomifeno; Clomifenum; Clomiphene

$$$$
