F1L
     RDKit          3D

 25 26  0  0  0  0  0  0  0  0999 V2000
    1.0767   -0.0853   -0.0186 C   0  0  0  0  0  0  0  0  0  0  0  0
   -1.7922   -1.3254   -1.8225 C   0  0  0  0  0  0  0  0  0  0  0  0
   -0.0686   -0.5557   -3.2987 C   0  0  0  0  0  0  0  0  0  0  0  0
    0.9422   -0.5670   -2.3115 C   0  0  0  0  0  0  0  0  0  0  0  0
    2.2668   -0.2477   -2.6343 C   0  0  0  0  0  0  0  0  0  0  0  0
   -1.3968   -0.8505   -3.1037 O   0  0  0  0  0  0  0  0  0  0  0  0
    1.6423    0.0007   -4.9272 C   0  0  0  0  0  0  0  0  0  0  0  0
    0.9325    9.2410   -4.8995 C   0  0  0  0  0  0  0  0  0  0  0  0
   -0.1600    9.0173   -5.9520 C   0  0  0  0  0  0  0  0  0  0  0  0
    0.1810    7.9849   -7.0317 C   0  0  0  0  0  0  0  0  0  0  0  0
    0.4930    6.6322   -6.4278 C   0  0  0  0  0  0  0  0  0  0  0  0
   -1.2547    2.3389   -5.0890 C   0  0  0  0  0  0  0  0  0  0  0  0
   -1.4153    3.7767   -5.5790 C   0  0  0  0  0  0  0  0  0  0  0  0
   -0.1505    4.2657   -6.2811 C   0  0  0  0  0  0  0  0  0  0  0  0
    0.3532    1.9132   -6.8425 C   0  0  0  0  0  0  0  0  0  0  0  0
    0.2590    3.3168   -7.4008 C   0  0  0  0  0  0  0  0  0  0  0  0
    4.3745    0.5568   -4.3722 Br  0  0  0  0  0  0  0  0  0  0  0  0
    2.6079    0.0512   -3.9375 C   0  0  0  0  0  0  0  0  0  0  0  0
    0.6703   -0.9932   -1.0376 O   0  0  0  0  0  0  0  0  0  0  0  0
    0.2806   -0.2063   -4.6215 C   0  0  0  0  0  0  0  0  0  0  0  0
   -0.7612    0.0340   -5.7128 C   0  0  0  0  0  0  0  0  0  0  0  0
   -0.8729    1.4427   -6.1897 N   0  0  0  0  0  0  0  0  0  0  0  0
   -0.3346    5.6097   -6.8038 N   0  0  0  0  0  0  0  0  0  0  0  0
    1.4287    6.4684   -5.6425 O   0  0  0  0  0  0  0  0  0  0  0  0
    2.4783    9.8917   -5.6126 S   0  0  0  0  0  0  0  0  0  0  0  0
  1 19  1  0
  2  6  1  0
  3  4  2  0
  3  6  1  0
  3 20  1  0
  4  5  1  0
  4 19  1  0
  5 18  2  0
  7 18  1  0
  7 20  2  0
  8  9  1  0
  8 25  1  0
  9 10  1  0
 10 11  1  0
 11 23  1  0
 11 24  2  0
 12 13  1  0
 12 22  1  0
 13 14  1  0
 14 16  1  0
 14 23  1  0
 15 16  1  0
 15 22  1  0
 17 18  1  0
 20 21  1  0
 21 22  1  0
M  END
>  <DRUGBANK_ID>  (1) 
DB07738

>  <COMMON_NAME>  (1) 
N-[1-(5-bromo-2,3-dimethoxybenzyl)piperidin-4-yl]-4-sulfanylbutanamide

$$$$
