
     RDKit          3D

 21 21  0  0  1  0  0  0  0  0999 V2000
    0.9376   -0.1992    0.0780 C   0  0  0  0  0  0  0  0  0  0  0  0
    0.3887    0.5709   -1.0058 O   0  0  0  0  0  0  0  0  0  0  0  0
    1.2432    1.6724   -1.3325 C   0  0  2  0  0  0  0  0  0  0  0  0
    1.1409    2.8487   -0.3333 C   0  0  1  0  0  0  0  0  0  0  0  0
    0.0180    3.8329   -0.6549 C   0  0  2  0  0  0  0  0  0  0  0  0
    0.0947    4.2577   -2.1093 C   0  0  1  0  0  0  0  0  0  0  0  0
    0.1073    3.0272   -3.0222 C   0  0  2  0  0  0  0  0  0  0  0  0
    1.1250    2.0821   -2.6955 O   0  0  0  0  0  0  0  0  0  0  0  0
    0.4340    3.5381   -4.4380 C   0  0  0  0  0  0  0  0  0  0  0  0
    0.0756    2.5931   -5.4696 N   0  0  0  0  0  0  0  0  0  0  0  0
   -0.8967    2.4885   -6.4085 C   0  0  0  0  0  0  0  0  0  0  0  0
   -0.7969    1.4824   -7.1067 O   0  0  0  0  0  0  0  0  0  0  0  0
   -1.9129    3.4205   -6.5550 N   0  0  0  0  0  0  0  0  0  0  0  0
   -2.2079    4.6553   -5.8027 C   0  0  0  0  0  0  0  0  0  0  0  0
   -1.7971    5.9566   -6.5008 C   0  0  0  0  0  0  0  0  0  0  0  0
   -3.0047    6.5889   -7.6441 Cl  0  0  0  0  0  0  0  0  0  0  0  0
   -2.8239    3.0644   -7.5781 N   0  0  0  0  0  0  0  0  0  0  0  0
   -3.8607    3.7348   -7.5988 O   0  0  0  0  0  0  0  0  0  0  0  0
   -0.9920    5.1270   -2.4587 O   0  0  0  0  0  0  0  0  0  0  0  0
    0.1310    4.9898    0.1905 O   0  0  0  0  0  0  0  0  0  0  0  0
    0.9992    2.4377    1.0278 O   0  0  0  0  0  0  0  0  0  0  0  0
  1  2  1  0
  3  2  1  1
  3  4  1  0
  3  8  1  0
  4  5  1  0
  4 21  1  1
  5  6  1  0
  5 20  1  1
  6  7  1  0
  6 19  1  6
  7  8  1  0
  7  9  1  6
  9 10  1  0
 10 11  1  0
 11 12  2  0
 11 13  1  0
 13 14  1  0
 13 17  1  0
 14 15  1  0
 15 16  1  0
 17 18  2  0
M  END
>  <DRUGBANK_ID>  (1) 
DB13832

>  <COMMON_NAME>  (1) 
Ranimustine

>  <CAS_NUMBER>  (1) 
58994-96-0

>  <UNII>  (1) 
RYH2T97J77

>  <SYNONYMS>  (1) 
Ranimustine

$$$$
