
     RDKit          3D

 30 35  0  0  0  0  0  0  0  0999 V2000
    2.6871   -0.7297    0.2954 C   0  0  0  0  0  0  0  0  0  0  0  0
    1.4515    1.5007    0.2279 C   0  0  0  0  0  0  0  0  0  0  0  0
   -1.1829    1.2678    0.9220 C   0  0  0  0  0  0  0  0  0  0  0  0
   -2.4203    0.4149    0.5288 C   0  0  0  0  0  0  0  0  0  0  0  0
   -3.2898   -2.8633   -2.0269 C   0  0  0  0  0  0  0  0  0  0  0  0
   -1.6342   -2.8390   -1.5874 C   0  0  0  0  0  0  0  0  0  0  0  0
   -5.0044   -0.6326    0.2358 C   0  0  0  0  0  0  0  0  0  0  0  0
    1.5038   -1.6896    0.1398 C   0  0  0  0  0  0  0  0  0  0  0  0
    2.5828    0.6515   -0.3676 C   0  0  1  0  0  0  0  0  0  0  0  0
    3.8416    1.3080   -0.2235 O   0  0  0  0  0  0  0  0  0  0  0  0
   -5.2245    0.3801   -0.9165 C   0  0  1  0  0  0  0  0  0  0  0  0
   -4.6626    1.7158   -0.7327 O   0  0  0  0  0  0  0  0  0  0  0  0
   -1.2603   -2.0053   -0.1884 C   0  0  2  0  0  0  0  0  0  0  0  0
   -3.8190   -1.4961   -0.2020 C   0  0  1  0  0  0  0  0  0  0  0  0
   -4.6454   -0.2506   -2.2096 C   0  0  2  0  0  0  0  0  0  0  0  0
   -3.6788   -1.4062   -1.7541 C   0  0  2  0  0  0  0  0  0  0  0  0
   -2.5788   -0.8731   -2.6376 C   0  0  0  0  0  0  0  0  0  0  0  0
   -2.5284   -1.1600    0.4967 C   0  0  2  0  0  0  0  0  0  0  0  0
    0.1511   -0.9906    0.0089 C   0  0  1  0  0  0  0  0  0  0  0  0
    0.1017   -0.8638    1.5238 C   0  0  0  0  0  0  0  0  0  0  0  0
    0.0830    0.7856   -0.1500 C   0  0  2  0  0  0  0  0  0  0  0  0
   -4.0079    1.1106   -2.9587 C   0  0  2  0  0  0  0  0  0  0  0  0
   -2.6937    1.1395   -3.8793 C   0  0  0  0  0  0  0  0  0  0  0  0
   -3.9329    3.6032   -2.2222 C   0  0  0  0  0  0  0  0  0  0  0  0
   -3.3304    4.5257   -1.1143 C   0  0  0  0  0  0  0  0  0  0  0  0
   -1.6880    3.1016   -0.8967 C   0  0  0  0  0  0  0  0  0  0  0  0
   -3.7997    2.1392   -1.8166 C   0  0  1  0  0  0  0  0  0  0  0  0
   -2.4094    2.0810   -1.5448 O   0  0  0  0  0  0  0  0  0  0  0  0
   -1.7811    4.4930   -1.3893 C   0  0  2  0  0  0  0  0  0  0  0  0
   -1.1967    5.8744   -1.0000 C   0  0  0  0  0  0  0  0  0  0  0  0
  1  9  1  0
  3  4  1  0
  5  6  1  0
  8  1  1  0
  9  2  1  0
  9 10  1  1
 11  7  1  1
 11 12  1  0
 13  6  1  6
 13 19  1  0
 14  7  1  1
 14 18  1  0
 14 16  1  0
 15 11  1  1
 15 22  1  0
 16  5  1  0
 16 15  1  0
 16 17  1  1
 18  4  1  6
 18 13  1  0
 19  8  1  0
 19 21  1  0
 19 20  1  1
 21  2  1  1
 21  3  1  0
 22 27  1  0
 22 23  1  1
 24 25  1  0
 25 29  1  0
 26 28  1  0
 27 12  1  0
 27 24  1  6
 27 28  1  0
 29 26  1  0
 29 30  1  1
M  END
>  <DRUGBANK_ID>  (1) 
DB05450

>  <COMMON_NAME>  (1) 
Smilagenin

>  <CAS_NUMBER>  (1) 
126-18-1

>  <UNII>  (1) 
GQE3Q7YMVZ

>  <SYNONYMS>  (1) 
(25R)-5beta-Spirostan-3beta-ol; (25R)-Spirostan-3beta-ol; Isosarsapogenin; Smilagenin

$$$$
