1408
     RDKit          3D

 26 26  0  0  1  0  0  0  0  0999 V2000
    1.0452   -0.0410   -0.0403 O   0  0  0  0  0  0  0  0  0  0  0  0
    3.0853    0.9076   -4.6235 O   0  0  0  0  0  0  0  0  0  0  0  0
    1.0843    5.1579   -3.2885 O   0  0  0  0  0  0  0  0  0  0  0  0
    3.6714    2.6693   -6.0502 O   0  0  0  0  0  0  0  0  0  0  0  0
    0.0861    5.6750   -1.2309 O   0  0  0  0  0  0  0  0  0  0  0  0
    2.5432    2.2986    0.9025 N   0  0  0  0  0  0  0  0  0  0  0  0
    4.6694    0.6695   -6.3620 N   0  0  0  0  0  0  0  0  0  0  0  0
    0.4461    7.3465   -2.7011 N   0  0  0  0  0  0  0  0  0  0  0  0
    3.0309    3.2207    1.9418 C   0  0  0  0  0  0  0  0  0  0  0  0
    1.0674    2.2055    0.8364 C   0  0  0  0  0  0  0  0  0  0  0  0
    0.5787    1.2776   -0.3116 C   0  0  0  0  0  0  0  0  0  0  0  0
    2.5696    2.7355    3.3232 C   0  0  0  0  0  0  0  0  0  0  0  0
    4.5699    3.1972    1.8995 C   0  0  0  0  0  0  0  0  0  0  0  0
    2.5641    4.6626    1.6846 C   0  0  0  0  0  0  0  0  0  0  0  0
    1.0391    1.7755   -1.6674 C   0  0  0  0  0  0  0  0  0  0  0  0
    0.7908    3.1279   -1.9286 C   0  0  0  0  0  0  0  0  0  0  0  0
    1.7299    1.0220   -2.6242 C   0  0  0  0  0  0  0  0  0  0  0  0
    2.2219    1.6656   -3.7722 C   0  0  0  0  0  0  0  0  0  0  0  0
    1.2457    3.7674   -3.0593 C   0  0  0  0  0  0  0  0  0  0  0  0
    1.9227    3.0189   -4.0063 C   0  0  0  0  0  0  0  0  0  0  0  0
    3.7912    1.4982   -5.6864 C   0  0  0  0  0  0  0  0  0  0  0  0
    0.5193    6.0174   -2.3331 C   0  0  0  0  0  0  0  0  0  0  0  0
    4.9845   -0.6932   -5.9968 C   0  0  0  0  0  0  0  0  0  0  0  0
    5.3268    1.2475   -7.5216 C   0  0  0  0  0  0  0  0  0  0  0  0
    0.9494    7.8993   -3.9385 C   0  0  0  0  0  0  0  0  0  0  0  0
   -0.1903    8.2343   -1.7463 C   0  0  0  0  0  0  0  0  0  0  0  0
  1 11  1  0
  2 18  1  0
  2 21  1  0
  3 19  1  0
  3 22  1  0
  4 21  2  0
  5 22  2  0
  6  9  1  0
  6 10  1  0
  7 21  1  0
  7 23  1  0
  7 24  1  0
  8 22  1  0
  8 25  1  0
  8 26  1  0
  9 12  1  0
  9 13  1  0
  9 14  1  0
 10 11  1  0
 11 15  1  0
 15 16  2  0
 15 17  1  0
 16 19  1  0
 17 18  2  0
 18 20  1  0
 19 20  2  0
M  END
>  <DRUGBANK_ID>  (1) 
DB01408

>  <COMMON_NAME>  (1) 
Bambuterol

>  <CAS_NUMBER>  (1) 
81732-65-2

>  <UNII>  (1) 
Y1850G1OVC

>  <SYNONYMS>  (1) 
(±)-5-(2-(tert-butylamino)-1-hydroxyethyl)-m-phenylene bis(dimethylcarbamate); bambutérol; Bambuterol; Bambuterolum

$$$$
