
     RDKit          3D

 30 28  0  0  0  0  0  0  0  0999 V2000
    1.0481    0.0672   -0.0563 C   0  0  0  0  0  0  0  0  0  0  0  0
    0.5414   -1.3048   -0.4704 C   0  0  0  0  0  0  0  0  0  0  0  0
   -0.3037   -2.0836    0.4462 N   0  0  0  0  0  0  0  0  0  0  0  0
   -0.7937   -3.4104    0.0458 C   0  0  0  0  0  0  0  0  0  0  0  0
    0.8485   -1.7786   -1.6090 O   0  0  0  0  0  0  0  0  0  0  0  0
    0.5581    0.3838    1.2929 N   0  0  0  0  0  0  0  0  0  0  0  0
   -0.9119    0.3838    1.2929 C   0  0  0  0  0  0  0  0  0  0  0  0
   -1.4186   -0.9881    0.8789 C   0  0  0  0  0  0  0  0  0  0  0  0
   -2.1492   -1.6615    1.6713 O   0  0  0  0  0  0  0  0  0  0  0  0
   -1.0755   -1.5175   -0.3933 O   0  0  0  0  0  0  0  0  0  0  0  0
    1.0481   -0.6264    2.2418 C   0  0  0  0  0  0  0  0  0  0  0  0
    0.5414   -1.9983    1.8278 C   0  0  0  0  0  0  0  0  0  0  0  0
    1.0314   -2.3150    0.4785 N   0  0  0  0  0  0  0  0  0  0  0  0
    0.5414   -3.6418    0.0781 C   0  0  0  0  0  0  0  0  0  0  0  0
   -0.9786   -3.6418    0.0781 C   0  0  0  0  0  0  0  0  0  0  0  0
   -1.6140   -3.8932   -0.9935 O   0  0  0  0  0  0  0  0  0  0  0  0
   -1.6886   -3.3608    1.2753 O   0  0  0  0  0  0  0  0  0  0  0  0
    0.5414   -1.3048   -0.4704 C   0  0  0  0  0  0  0  0  0  0  0  0
   -0.9786   -1.3048   -0.4704 C   0  0  0  0  0  0  0  0  0  0  0  0
   -1.4686   -0.9881    0.8789 N   0  0  0  0  0  0  0  0  0  0  0  0
   -2.9386   -0.9881    0.8789 C   0  0  0  0  0  0  0  0  0  0  0  0
   -3.4452   -2.3601    0.4649 C   0  0  0  0  0  0  0  0  0  0  0  0
   -4.1759   -3.0334    1.2573 O   0  0  0  0  0  0  0  0  0  0  0  0
   -3.1022   -2.8894   -0.8073 O   0  0  0  0  0  0  0  0  0  0  0  0
   -0.9786   -1.9983    1.8278 C   0  0  0  0  0  0  0  0  0  0  0  0
   -1.4852   -3.3703    1.4137 C   0  0  0  0  0  0  0  0  0  0  0  0
   -0.5300   -4.4399    1.0909 N   0  0  0  0  0  0  0  0  0  0  0  0
   -1.0200   -5.7668    0.6905 C   0  0  0  0  0  0  0  0  0  0  0  0
   -2.7347   -3.5926    1.3466 O   0  0  0  0  0  0  0  0  0  0  0  0
    0.9144    0.0004   -0.0516 Gd  0  0  0  0  0 15  0  0  0  0  0  0
  2  1  1  0
  2  3  1  0
  3  4  1  0
  5  2  2  0
  6  1  1  0
  6  7  1  0
  7  8  1  0
  8  9  2  0
 10  8  1  0
 11  6  1  0
 11 12  1  0
 13 12  1  0
 13 14  1  0
 14 15  1  0
 15 16  2  0
 15 17  1  0
 18 13  1  0
 18 19  1  0
 19 20  1  0
 20 21  1  0
 20 25  1  0
 21 22  1  0
 22 23  2  0
 24 22  1  0
 25 26  1  0
 26 27  1  0
 26 29  2  0
 27 28  1  0
M  CHG  4  10  -1  17  -1  24  -1  30   3
M  END
>  <DRUGBANK_ID>  (1) 
DB00225

>  <SECONDARY_ACCESSION_NUMBERS>  (1) 
APRD00990

>  <COMMON_NAME>  (1) 
Gadodiamide

>  <CAS_NUMBER>  (1) 
131410-48-5

>  <UNII>  (1) 
84F6U3J2R6

>  <SYNONYMS>  (1) 
Gadodiamida; Gadodiamide; Gadodiamide anhydrous

$$$$
