
     RDKit          3D

 21 23  0  0  0  0  0  0  0  0999 V2000
   -0.0658    3.1845   -0.0097 O   0  0  0  0  0  0  0  0  0  0  0  0
   -3.3235    0.1440    1.1402 O   0  0  0  0  0  0  0  0  0  0  0  0
   -1.8086    1.6866    0.2525 N   0  0  0  0  0  0  0  0  0  0  0  0
   -4.3222    1.3044   -1.6460 N   0  0  0  0  0  0  0  0  0  0  0  0
    4.1587    0.4752   -0.1402 N   0  0  0  0  0  0  0  0  0  0  0  0
    0.0723   -0.4032    0.1699 C   0  0  0  0  0  0  0  0  0  0  0  0
   -2.8341    2.7085   -0.0403 C   0  0  0  0  0  0  0  0  0  0  0  0
    0.5119    0.9199    0.1093 C   0  0  0  0  0  0  0  0  0  0  0  0
   -1.2714   -0.7033    0.3751 C   0  0  0  0  0  0  0  0  0  0  0  0
   -0.4664    2.0389    0.1093 C   0  0  0  0  0  0  0  0  0  0  0  0
    1.0000   -1.4600    0.0424 C   0  0  0  0  0  0  0  0  0  0  0  0
   -2.2149    0.4151    0.6753 C   0  0  0  0  0  0  0  0  0  0  0  0
   -3.5800    2.5631   -1.4257 C   0  0  0  0  0  0  0  0  0  0  0  0
    1.8737    1.2071   -0.0006 C   0  0  0  0  0  0  0  0  0  0  0  0
   -1.7357   -2.0220    0.2342 C   0  0  0  0  0  0  0  0  0  0  0  0
    2.3671   -1.1478   -0.0375 C   0  0  0  0  0  0  0  0  0  0  0  0
    2.8127    0.1781   -0.0213 C   0  0  0  0  0  0  0  0  0  0  0  0
    0.5376   -2.7892    0.0287 C   0  0  0  0  0  0  0  0  0  0  0  0
   -0.8285   -3.0672    0.0750 C   0  0  0  0  0  0  0  0  0  0  0  0
   -5.2208    1.3353   -2.7964 C   0  0  0  0  0  0  0  0  0  0  0  0
   -3.4327    0.1863   -1.9213 C   0  0  0  0  0  0  0  0  0  0  0  0
  1 10  2  0
  2 12  2  0
  3  7  1  0
  3 10  1  0
  3 12  1  0
  4 13  1  0
  4 20  1  0
  4 21  1  0
  5 17  1  0
  6  8  1  0
  6  9  2  0
  6 11  1  0
  7 13  1  0
  8 10  1  0
  8 14  2  0
  9 12  1  0
  9 15  1  0
 11 16  1  0
 11 18  2  0
 14 17  1  0
 15 19  2  0
 16 17  2  0
 18 19  1  0
M  END
>  <DRUGBANK_ID>  (1) 
DB05022

>  <COMMON_NAME>  (1) 
Amonafide

>  <CAS_NUMBER>  (1) 
69408-81-7

>  <UNII>  (1) 
1Q8D39N37L

>  <SYNONYMS>  (1) 
Amonafide

$$$$
