
     RDKit          3D

 42 47  0  0  1  0  0  0  0  0999 V2000
    1.0503   -0.0752   -0.0711 C   0  0  0  0  0  0  0  0  0  0  0  0
    0.6518    0.7986    1.0187 N   0  0  0  0  0  0  0  0  0  0  0  0
    0.9474    2.1475    0.8356 C   0  0  0  0  0  0  0  0  0  0  0  0
    1.4756    2.5281   -0.2165 O   0  0  0  0  0  0  0  0  0  0  0  0
    0.6218    3.0095    1.8872 N   0  0  0  0  0  0  0  0  0  0  0  0
    0.0672    2.6325    3.1047 C   0  0  0  0  0  0  0  0  0  0  0  0
   -0.2232    3.3860    4.0157 O   0  0  0  0  0  0  0  0  0  0  0  0
   -0.2521    1.2061    3.2339 C   0  0  0  0  0  0  0  0  0  0  0  0
    0.0462    0.3137    2.2051 C   0  0  0  0  0  0  0  0  0  0  0  0
   -0.3023   -1.0235    2.4200 C   0  0  0  0  0  0  0  0  0  0  0  0
    0.1020   -2.0133    1.6162 F   0  0  0  0  0  0  0  0  0  0  0  0
   -1.1118   -1.3984    3.4864 C   0  0  0  0  0  0  0  0  0  0  0  0
   -1.5050   -0.4597    4.4257 C   0  0  0  0  0  0  0  0  0  0  0  0
   -0.9409    0.8035    4.3839 C   0  0  0  0  0  0  0  0  0  0  0  0
    0.8489    4.3963    1.7100 C   0  0  0  0  0  0  0  0  0  0  0  0
    0.1631    5.1159    0.7181 C   0  0  0  0  0  0  0  0  0  0  0  0
   -0.7691    4.4365   -0.2580 C   0  0  0  0  0  0  0  0  0  0  0  0
    0.4069    6.4958    0.5840 C   0  0  0  0  0  0  0  0  0  0  0  0
    1.5578    7.0187    1.2317 C   0  0  0  0  0  0  0  0  0  0  0  0
    2.3028    6.2512    2.1313 C   0  0  0  0  0  0  0  0  0  0  0  0
    1.8175    5.0130    2.5069 C   0  0  0  0  0  0  0  0  0  0  0  0
   -0.2971    7.2072   -0.4956 C   0  0  0  0  0  0  0  0  0  0  0  0
   -1.7329    7.5539   -0.5457 C   0  0  0  0  0  0  0  0  0  0  0  0
   -2.1637    8.8890   -0.9835 C   0  0  0  0  0  0  0  0  0  0  0  0
   -3.5601    9.0391   -1.2568 C   0  0  0  0  0  0  0  0  0  0  0  0
   -4.2402   10.1515   -2.0057 C   0  0  0  0  0  0  0  0  0  0  0  0
   -3.0694   11.3279   -1.8018 C   0  0  2  0  0  0  0  0  0  0  0  0
   -1.6511   11.0184   -1.0930 C   0  0  0  0  0  0  0  0  0  0  0  0
   -1.1353    9.7984   -1.5751 C   0  0  0  0  0  0  0  0  0  0  0  0
   -3.6383   12.2508   -0.7516 C   0  0  0  0  0  0  0  0  0  0  0  0
   -3.6103   11.5981    0.6661 C   0  0  0  0  0  0  0  0  0  0  0  0
   -2.7830   13.5002   -0.8320 C   0  0  0  0  0  0  0  0  0  0  0  0
   -4.9592   12.5682   -1.1495 O   0  0  0  0  0  0  0  0  0  0  0  0
   -3.8365    7.7023   -1.1451 N   0  0  0  0  0  0  0  0  0  0  0  0
   -2.4767    7.2041   -1.7377 C   0  0  0  0  0  0  0  0  0  0  0  0
   -1.6592    7.5685   -3.0574 C   0  0  0  0  0  0  0  0  0  0  0  0
   -0.2151    7.5983   -2.8887 C   0  0  0  0  0  0  0  0  0  0  0  0
    0.4393    7.3808   -1.6707 C   0  0  0  0  0  0  0  0  0  0  0  0
    1.7606    7.6498   -1.5768 F   0  0  0  0  0  0  0  0  0  0  0  0
   -2.1961    8.7494   -4.0546 C   0  0  0  0  0  0  0  0  0  0  0  0
   -1.5650    9.7269   -4.8250 N   0  0  0  0  0  0  0  0  0  0  0  0
   -3.1616    9.3493   -3.8996 O   0  0  0  0  0  0  0  0  0  0  0  0
  1  2  1  0
  2  3  1  0
  2  9  1  0
  3  4  2  0
  3  5  1  0
  5  6  1  0
  5 15  1  0
  6  7  2  0
  6  8  1  0
  8  9  2  0
  8 14  1  0
  9 10  1  0
 10 11  1  0
 10 12  2  0
 12 13  1  0
 13 14  2  0
 15 16  2  0
 15 21  1  0
 16 17  1  0
 16 18  1  0
 18 19  2  0
 18 22  1  0
 19 20  1  0
 20 21  2  0
 22 23  2  0
 22 38  1  0
 23 24  1  0
 23 35  1  0
 24 25  2  0
 24 29  1  0
 25 26  1  0
 25 34  1  0
 27 26  1  0
 27 28  1  0
 27 30  1  1
 28 29  1  0
 30 31  1  0
 30 32  1  0
 30 33  1  0
 34 35  1  0
 35 36  2  0
 36 37  1  0
 36 40  1  0
 37 38  2  0
 38 39  1  0
 40 41  1  0
 40 42  2  0
M  END
>  <DRUGBANK_ID>  (1) 
DB15291

>  <COMMON_NAME>  (1) 
BMS-986142

>  <CAS_NUMBER>  (1) 
1643368-58-4

>  <UNII>  (1) 
PJX9GH268R

$$$$
