[NO NAME]
     RDKit          3D

 38 40  0  0  1  0  0  0  0  0999 V2000
   -1.1969   -2.4789    0.2129 C   0  0  0  0  0  0  0  0  0  0  0  0
   -2.8376   -4.2431    0.7174 N   0  0  0  0  0  0  0  0  0  0  0  0
    0.3103   -1.4271   -0.2054 C   0  0  0  0  0  0  0  0  0  0  0  0
    0.3435   -0.4917   -0.0204 C   0  0  0  0  0  0  0  0  0  0  0  0
   -4.2783   -6.2150    1.1151 C   0  0  0  0  0  0  0  0  0  0  0  0
   -2.2798   -2.0939    0.0590 C   0  0  0  0  0  0  0  0  0  0  0  0
   -0.9273   -1.5878    0.0887 C   0  0  0  0  0  0  0  0  0  0  0  0
    2.2575    0.3276   -0.2573 O   0  0  0  0  0  0  0  0  0  0  0  0
    1.0577    1.1089   -0.0800 O   0  0  0  0  0  0  0  0  0  0  0  0
   -5.9241   -8.2247    1.2888 C   0  0  0  0  0  0  0  0  0  0  0  0
   -4.7103   -7.5741    2.0409 O   0  0  0  0  0  0  0  0  0  0  0  0
    3.5554   -0.5303   -0.3995 C   0  0  1  0  0  0  0  0  0  0  0  0
   -7.6586   -9.3074    1.8020 N   0  0  0  0  0  0  0  0  0  0  0  0
   -7.1655  -10.1087    1.2883 C   0  0  0  0  0  0  0  0  0  0  0  0
    3.2167   -1.0895    0.9556 C   0  0  1  0  0  0  0  0  0  0  0  0
    2.8724   -1.0923   -1.6180 C   0  0  0  0  0  0  0  0  0  0  0  0
   -8.8052   -9.4920    0.8636 C   0  0  0  0  0  0  0  0  0  0  0  0
   -8.9343  -10.6855    0.5003 O   0  0  0  0  0  0  0  0  0  0  0  0
    1.9216   -0.6769    1.5417 C   0  0  0  0  0  0  0  0  0  0  0  0
    3.3434   -2.5628    0.9931 C   0  0  0  0  0  0  0  0  0  0  0  0
    3.3182   -0.5131   -2.8828 C   0  0  0  0  0  0  0  0  0  0  0  0
    2.9577   -2.5618   -1.6859 C   0  0  0  0  0  0  0  0  0  0  0  0
   -9.2640   -8.3535    0.1923 C   0  0  0  0  0  0  0  0  0  0  0  0
    1.0419   -1.6172    1.8116 C   0  0  0  0  0  0  0  0  0  0  0  0
   -8.0969   -7.3898    0.1985 C   0  0  0  0  0  0  0  0  0  0  0  0
   -0.7666   -0.9918    2.1375 C   0  0  0  0  0  0  0  0  0  0  0  0
   -7.5892   -6.8410   -1.1027 C   0  0  0  0  0  0  0  0  0  0  0  0
   -7.5819   -7.0132    1.2553 O   0  0  0  0  0  0  0  0  0  0  0  0
   -1.8439   -2.3167    2.1367 N   0  0  0  0  0  0  0  0  0  0  0  0
   -1.0640    0.1269    1.6438 O   0  0  0  0  0  0  0  0  0  0  0  0
   -7.6705   -5.3234   -1.0327 C   0  0  1  0  0  0  0  0  0  0  0  0
   -3.2476   -1.8928    1.8735 C   0  0  0  0  0  0  0  0  0  0  0  0
   -6.8440   -4.7299    0.0138 C   0  0  0  0  0  0  0  0  0  0  0  0
   -7.3542   -4.9132   -2.3089 O   0  0  0  0  0  0  0  0  0  0  0  0
   -4.1313   -2.4226    0.6777 C   0  0  0  0  0  0  0  0  0  0  0  0
   -5.8414   -3.8819   -0.2268 C   0  0  0  0  0  0  0  0  0  0  0  0
   -5.0726   -3.3220    0.8713 C   0  0  0  0  0  0  0  0  0  0  0  0
   -5.5138   -3.4608   -1.6332 C   0  0  0  0  0  0  0  0  0  0  0  0
  1  2  1  0
  1  3  2  0
  1  4  1  0
  2  5  1  0
  2  6  1  0
  3  7  1  0
  4  8  1  0
  4  9  2  0
  5 10  1  0
  5 11  2  0
  6  7  1  0
  8 12  1  0
 10 13  1  0
 10 14  2  0
 12 15  1  0
 12 16  1  6
 13 17  2  0
 14 18  1  0
 15 19  1  0
 15 20  1  6
 16 21  1  0
 16 22  1  0
 17 23  1  0
 17 18  1  0
 19 24  2  0
 23 25  1  0
 24 26  1  0
 25 27  1  0
 25 28  2  0
 26 29  1  0
 26 30  2  0
 27 31  1  0
 29 32  1  0
 31 33  1  0
 31 34  1  6
 32 35  1  0
 33 36  2  0
 35 37  2  0
 36 38  1  0
 36 37  1  0
M  END
>  <DRUGBANK_ID>  (1) 
DB01669

>  <SECONDARY_ACCESSION_NUMBERS>  (1) 
EXPT03225

>  <COMMON_NAME>  (1) 
Virginiamycin M1

>  <CAS_NUMBER>  (1) 
21411-53-0

>  <UNII>  (1) 
8W4UOL59AZ

>  <SYNONYMS>  (1) 
Mikamycin A; Ostreogrycin A; Pristinamycin IIA; Streptogramin A; Virginiamycin factor M1; Virginiamycin M1

$$$$
