
     RDKit          3D

 24 26  0  0  1  0  0  0  0  0999 V2000
   -0.8725    1.3601   -0.3371 C   0  0  0  0  0  0  0  0  0  0  0  0
    0.3394    1.3317    0.6014 C   0  0  0  0  0  0  0  0  0  0  0  0
   -1.7638    0.1290   -0.1911 C   0  0  0  0  0  0  0  0  0  0  0  0
   -0.5088   -1.1813    2.1212 C   0  0  0  0  0  0  0  0  0  0  0  0
   -0.4013   -5.5564    6.7863 C   0  0  0  0  0  0  0  0  0  0  0  0
   -1.0653   -3.9162    8.9410 C   0  0  0  0  0  0  0  0  0  0  0  0
    0.9177   -1.5745    4.2629 C   0  0  0  0  0  0  0  0  0  0  0  0
    0.0147   -1.4510    6.5624 C   0  0  0  0  0  0  0  0  0  0  0  0
    0.3107   -2.1028    2.9579 C   0  0  0  0  0  0  0  0  0  0  0  0
   -0.2858   -4.1665    6.7079 C   0  0  0  0  0  0  0  0  0  0  0  0
   -1.0461   -5.3160    9.0864 C   0  0  0  0  0  0  0  0  0  0  0  0
   -0.7131   -6.1378    8.0034 C   0  0  0  0  0  0  0  0  0  0  0  0
   -0.6194   -3.3244    7.7596 C   0  0  0  0  0  0  0  0  0  0  0  0
    0.0798   -1.1818    0.6946 C   0  0  2  0  0  0  0  0  0  0  0  0
    1.0734   -0.0097    0.5117 C   0  0  1  0  0  0  0  0  0  0  0  0
    0.3193   -3.5732    5.5266 C   0  0  0  0  0  0  0  0  0  0  0  0
   -1.4191   -6.0288   10.8058 Br  0  0  0  0  0  0  0  0  0  0  0  0
   -0.6004   -7.8562    8.1060 Cl  0  0  0  0  0  0  0  0  0  0  0  0
   -1.0016   -1.1070   -0.3074 N   0  0  0  0  0  0  0  0  0  0  0  0
   -0.4483   -1.9322    7.6719 N   0  0  0  0  0  0  0  0  0  0  0  0
    0.3219   -2.1948    5.4431 N   0  0  0  0  0  0  0  0  0  0  0  0
    0.4390   -3.2610    2.5623 O   0  0  0  0  0  0  0  0  0  0  0  0
    1.7327   -0.1026   -0.7536 O   0  0  0  0  0  0  0  0  0  0  0  0
    0.8424   -4.3483    4.7280 O   0  0  0  0  0  0  0  0  0  0  0  0
  2  1  1  0
  3  1  1  0
  9  4  1  0
  9  7  1  0
 10  5  2  0
 11  6  1  0
 12  5  1  0
 12 11  2  0
 13  6  2  0
 13 10  1  0
 14  4  1  1
 15  2  1  0
 15 14  1  0
 15 23  1  6
 16 10  1  0
 17 11  1  0
 18 12  1  0
 19  3  1  0
 19 14  1  0
 20  8  2  0
 20 13  1  0
 21  7  1  0
 21  8  1  0
 21 16  1  0
 22  9  2  0
 24 16  2  0
M  END
>  <DRUGBANK_ID>  (1) 
DB04866

>  <COMMON_NAME>  (1) 
Halofuginone

>  <CAS_NUMBER>  (1) 
55837-20-2

>  <UNII>  (1) 
L31MM1385E

>  <SYNONYMS>  (1) 
(+/-)-trans-7-bromo-6-chloro-3-(3-(3-hydroxy-2-piperidyl)-acetonyl)-4(3H)-quinazolinone; Halofuginone

$$$$
