
     RDKit          3D

 19 21  0  0  0  0  0  0  0  0999 V2000
    1.9798   -0.2407   -0.0219 C   0  0  0  0  0  0  0  0  0  0  0  0
    1.3868   -1.4607    0.0366 C   0  0  0  0  0  0  0  0  0  0  0  0
   -0.0765   -1.5007    0.0293 C   0  0  0  0  0  0  0  0  0  0  0  0
   -0.8362   -0.3923    0.0067 C   0  0  0  0  0  0  0  0  0  0  0  0
   -0.1662    0.9314    0.0026 C   0  0  0  0  0  0  0  0  0  0  0  0
    1.2054    0.9033   -0.0357 N   0  0  0  0  0  0  0  0  0  0  0  0
    3.8477   -4.0341    1.3828 C   0  0  0  0  0  0  0  0  0  0  0  0
    3.0788   -2.9366    1.2856 C   0  0  0  0  0  0  0  0  0  0  0  0
    2.1837   -2.6928    0.1425 C   0  0  0  0  0  0  0  0  0  0  0  0
    2.1151   -3.6609   -0.8016 C   0  0  0  0  0  0  0  0  0  0  0  0
    3.7811   -5.0294    0.3763 C   0  0  0  0  0  0  0  0  0  0  0  0
    2.9012   -4.8111   -0.6786 N   0  0  0  0  0  0  0  0  0  0  0  0
    3.0008   -5.9141   -1.4933 C   0  0  0  0  0  0  0  0  0  0  0  0
    3.9380   -6.7305   -0.8993 C   0  0  0  0  0  0  0  0  0  0  0  0
    4.4183   -6.1725    0.2543 N   0  0  0  0  0  0  0  0  0  0  0  0
    3.4605    0.0213   -0.0855 C   0  0  0  0  0  0  0  0  0  0  0  0
   -0.7821    1.9906    0.0257 O   0  0  0  0  0  0  0  0  0  0  0  0
   -2.2527   -0.4534   -0.0162 C   0  0  0  0  0  0  0  0  0  0  0  0
   -3.4066   -0.5608   -0.0418 N   0  0  0  0  0  0  0  0  0  0  0  0
  1  2  2  0
  1  6  1  0
  1 16  1  0
  2  3  1  0
  3  4  2  0
  4  5  1  0
  4 18  1  0
  5  6  1  0
  5 17  2  0
  7  8  2  0
  8  9  1  0
  9 10  2  0
  9  2  1  0
 11 12  1  0
 11  7  1  0
 12 13  1  0
 12 10  1  0
 13 14  2  0
 14 15  1  0
 15 11  2  0
 18 19  3  0
M  END
>  <DRUGBANK_ID>  (1) 
DB16847

>  <COMMON_NAME>  (1) 
Olprinone

>  <CAS_NUMBER>  (1) 
106730-54-5

>  <UNII>  (1) 
4Y8BMI9YGC

>  <SYNONYMS>  (1) 
Loprinone; Olprinone

$$$$
