
     RDKit          3D

 23 24  0  0  1  0  0  0  0  0999 V2000
    1.0006   -0.3337   -0.1947 C   0  0  0  0  0  0  0  0  0  0  0  0
    0.4362    0.4582    0.9319 C   0  0  2  0  0  0  0  0  0  0  0  0
   -1.0947    0.7879    0.8802 C   0  0  0  0  0  0  0  0  0  0  0  0
   -1.4129    1.9115   -0.1080 C   0  0  0  0  0  0  0  0  0  0  0  0
   -0.5974    3.2132    0.1348 C   0  0  2  0  0  0  0  0  0  0  0  0
    0.8801    2.8227    0.0087 C   0  0  0  0  0  0  0  0  0  0  0  0
    1.2768    1.7161    1.0006 C   0  0  1  0  0  0  0  0  0  0  0  0
    0.9009    1.9574    2.3055 O   0  0  0  0  0  0  0  0  0  0  0  0
   -0.8965    4.1157    1.3329 N   0  0  0  0  0  0  0  0  0  0  0  0
   -0.8888    3.9182    2.7255 C   0  0  0  0  0  0  0  0  0  0  0  0
   -2.0511    3.4459    3.2207 N   0  0  0  0  0  0  0  0  0  0  0  0
   -2.1302    2.8120    4.4088 C   0  0  0  0  0  0  0  0  0  0  0  0
   -3.3447    2.4322    4.9327 N   0  0  0  0  0  0  0  0  0  0  0  0
   -4.6633    2.7999    4.4069 C   0  0  0  0  0  0  0  0  0  0  0  0
   -5.5302    1.5312    4.3782 C   0  0  0  0  0  0  0  0  0  0  0  0
   -5.3314    3.8420    5.3157 C   0  0  0  0  0  0  0  0  0  0  0  0
   -4.6279    3.3660    2.9823 C   0  0  0  0  0  0  0  0  0  0  0  0
   -1.0443    2.4828    5.0973 N   0  0  0  0  0  0  0  0  0  0  0  0
    0.1253    2.9871    4.6220 C   0  0  0  0  0  0  0  0  0  0  0  0
    0.2687    3.8494    3.5263 C   0  0  0  0  0  0  0  0  0  0  0  0
    1.6418    4.1619    2.9625 C   0  0  0  0  0  0  0  0  0  0  0  0
    2.7529    3.4273    3.3624 N   0  0  0  0  0  0  0  0  0  0  0  0
    1.7920    4.9557    2.0230 O   0  0  0  0  0  0  0  0  0  0  0  0
  2  1  1  6
  2  3  1  0
  2  7  1  0
  3  4  1  0
  5  4  1  0
  5  6  1  0
  5  9  1  1
  7  6  1  0
  7  8  1  1
  9 10  1  0
 10 11  2  0
 10 20  1  0
 11 12  1  0
 12 13  1  0
 12 18  2  0
 13 14  1  0
 14 15  1  0
 14 16  1  0
 14 17  1  0
 18 19  1  0
 19 20  2  0
 20 21  1  0
 21 22  1  0
 21 23  2  0
M  END
>  <DRUGBANK_ID>  (1) 
DB18445

>  <COMMON_NAME>  (1) 
CC-90001

>  <CAS_NUMBER>  (1) 
1403859-14-2

>  <UNII>  (1) 
JD5ZWE631K

>  <SYNONYMS>  (1) 
2-((1,1-DIMETHYLETHYL)AMINO)-4-(((1R,3R,4R)-3-HYDROXY-4-METHYLCYCLOHEXYL)AMINO)-5-PYRIMIDINECARBOXAMIDE; 2-(TERT-BUTYLAMINO)-4-((1R,3R,4R)-3-HYDROXY-4-METHYLCYCLOHEXYLAMINO)-PYRIMIDINE-5-CARBOXAMIDE; 5-PYRIMIDINECARBOXAMIDE, 2-((1,1-DIMETHYLETHYL)AMINO)-4-(((1R,3R,4R)-3-HYDROXY-4-METHYLCYCLOHEXYL)AMINO)-

$$$$
