
     RDKit          3D

 22 24  0  0  1  0  0  0  0  0999 V2000
   -2.3058    0.5163    0.0355 Cl  0  0  0  0  0  0  0  0  0  0  0  0
    2.6773    3.9238   -0.0306 O   0  0  0  0  0  0  0  0  0  0  0  0
   -0.5396    2.8181   -0.0129 O   0  0  0  0  0  0  0  0  0  0  0  0
    4.3056   -1.5465    0.4508 N   0  0  0  0  0  0  0  0  0  0  0  0
    4.1542    2.4134    0.0005 N   0  0  0  0  0  0  0  0  0  0  0  0
   -0.6698   -2.0877    0.1287 N   0  0  0  0  0  0  0  0  0  0  0  0
    4.9315    0.5752    1.4538 C   0  0  0  0  0  0  0  0  0  0  0  0
    5.0075    1.2273    0.0473 C   0  0  0  0  0  0  0  0  0  0  0  0
    4.0043   -0.6149    1.5718 C   0  0  0  0  0  0  0  0  0  0  0  0
    6.2925    0.0608    1.8786 C   0  0  0  0  0  0  0  0  0  0  0  0
    4.8003    0.3942   -1.2207 C   0  0  0  0  0  0  0  0  0  0  0  0
    4.4196   -1.0652   -0.9616 C   0  0  0  0  0  0  0  0  0  0  0  0
    6.6019   -1.3806    1.4521 C   0  0  0  0  0  0  0  0  0  0  0  0
    5.5283   -2.2412    0.7839 C   0  0  0  0  0  0  0  0  0  0  0  0
    2.8020    2.6849   -0.0357 C   0  0  0  0  0  0  0  0  0  0  0  0
    1.6101    1.6321   -0.0898 C   0  0  0  0  0  0  0  0  0  0  0  0
    0.2216    1.6769   -0.0446 C   0  0  0  0  0  0  0  0  0  0  0  0
    1.9934    0.3297   -0.1786 C   0  0  0  0  0  0  0  0  0  0  0  0
   -0.5736    0.4281   -0.0262 C   0  0  0  0  0  0  0  0  0  0  0  0
    1.3147   -0.8959   -0.1328 C   0  0  0  0  0  0  0  0  0  0  0  0
   -0.0265   -0.8728   -0.0751 C   0  0  0  0  0  0  0  0  0  0  0  0
    0.1979    4.0205   -0.0582 C   0  0  0  0  0  0  0  0  0  0  0  0
  1 19  1  0
  2 15  2  0
  3 17  1  0
  3 22  1  0
  4  9  1  0
  4 12  1  0
  4 14  1  0
  5  8  1  0
  5 15  1  0
  6 21  1  0
  7  8  1  0
  7  9  1  0
  7 10  1  0
  8 11  1  0
 10 13  1  0
 11 12  1  0
 13 14  1  0
 15 16  1  0
 16 17  2  0
 16 18  1  0
 17 19  1  0
 18 20  2  0
 19 21  2  0
 20 21  1  0
M  END
>  <DRUGBANK_ID>  (1) 
DB04917

>  <COMMON_NAME>  (1) 
Renzapride

>  <CAS_NUMBER>  (1) 
112727-80-7

>  <UNII>  (1) 
9073C0W4E9

>  <SYNONYMS>  (1) 
Renzapride

$$$$
