
     RDKit          3D

 32 34  0  0  0  0  0  0  0  0999 V2000
   -1.0142    1.4883    0.0102 C   0  0  0  0  0  0  0  0  0  0  0  0
   -2.1193    0.6410    0.0000 N   0  0  0  0  0  0  0  0  0  0  0  0
   -0.9591   -1.3895   -0.0125 N   0  0  0  0  0  0  0  0  0  0  0  0
    0.0978   -0.5325   -0.0089 C   0  0  0  0  0  0  0  0  0  0  0  0
    0.2112    0.8091    0.0114 C   0  0  0  0  0  0  0  0  0  0  0  0
    1.5041    1.3036   -0.0062 N   0  0  0  0  0  0  0  0  0  0  0  0
    2.2209    0.2327    0.0057 C   0  0  0  0  0  0  0  0  0  0  0  0
    1.3802   -0.7763   -0.1608 N   0  0  0  0  0  0  0  0  0  0  0  0
    1.7279   -2.0444   -0.1843 C   0  0  2  0  0  0  0  0  0  0  0  0
    2.6226   -2.0565    1.4100 O   0  0  0  0  0  0  0  0  0  0  0  0
    3.0293   -3.8355    1.7286 C   0  0  1  0  0  0  0  0  0  0  0  0
    3.0459   -4.0638   -0.5968 C   0  0  1  0  0  0  0  0  0  0  0  0
    3.0090   -5.2024   -1.4282 O   0  0  0  0  0  0  0  0  0  0  0  0
    2.2172   -2.7707   -1.4637 C   0  0  1  0  0  0  0  0  0  0  0  0
    1.7987   -3.3612   -2.6403 O   0  0  0  0  0  0  0  0  0  0  0  0
    5.1851   -1.1835    0.7032 O   0  0  0  0  0  0  0  0  0  0  0  0
    6.1888   -1.1526   -1.3667 O   0  0  0  0  0  0  0  0  0  0  0  0
    4.7256   -1.1117   -0.9631 P   0  0  2  0  0  0  0  0  0  0  0  0
    4.2661   -1.0398   -2.6294 O   0  0  0  0  0  0  0  0  0  0  0  0
    3.9697   -2.6613   -0.8215 O   0  0  0  0  0  0  0  0  0  0  0  0
    2.0751   -3.5949    0.6067 O   0  0  0  0  0  0  0  0  0  0  0  0
    4.1509   -3.2456    0.7967 P   0  0  2  0  0  0  0  0  0  0  0  0
    4.3322   -3.8299    2.4150 O   0  0  0  0  0  0  0  0  0  0  0  0
    3.1439   -6.0334    2.3728 O   0  0  0  0  0  0  0  0  0  0  0  0
    1.6489   -5.7152   -0.0951 O   0  0  0  0  0  0  0  0  0  0  0  0
    3.2669   -6.0147    0.7930 P   0  0  0  0  0  0  0  0  0  0  0  0
    2.0817   -7.1199    1.3986 O   0  0  0  0  0  0  0  0  0  0  0  0
    4.9588   -2.4009    1.9758 C   0  0  0  0  0  0  0  0  0  0  0  0
   -2.0906   -0.7486   -0.0004 C   0  0  0  0  0  0  0  0  0  0  0  0
   -3.2887   -1.3911    0.0018 N   0  0  0  0  0  0  0  0  0  0  0  0
   -1.0714    2.7045    0.0040 O   0  0  0  0  0  0  0  0  0  0  0  0
    4.4864   -4.8775    0.1699 N   0  0  0  0  0  0  0  0  0  0  0  0
  1  2  1  0
  1  5  1  0
  2 29  1  0
  3  4  1  0
  4  5  2  0
  4  8  1  0
  5  6  1  0
  6  7  2  0
  7  8  1  0
  9  8  1  6
  9 10  1  0
  9 14  1  0
 10 11  1  0
 11 12  1  0
 11 28  1  1
 12 13  1  1
 12 14  1  0
 14 15  1  6
 16 18  1  0
 18 17  2  0
 18 20  1  0
 18 19  1  1
 20 22  1  0
 22 21  2  0
 22 32  1  0
 22 23  1  1
 26 24  2  0
 26 25  1  0
 26 27  1  0
 28 16  1  0
 29  3  2  0
 29 30  1  0
 31  1  2  0
 32 26  1  0
M  END
>  <DRUGBANK_ID>  (1) 
DB02082

>  <SECONDARY_ACCESSION_NUMBERS>  (1) 
EXPT01658

>  <COMMON_NAME>  (1) 
Phosphoaminophosphonic acid guanylate ester

>  <CAS_NUMBER>  (1) 
34273-04-6

>  <UNII>  (1) 
9L7GM5N7EG

>  <SYNONYMS>  (1) 
5'-guanylylimidodiphosphate; GMP-PNP; Gpp(NH)p; Guanosine 5'-[beta,gamma-imido]triphosphate; Guanylyl imidodiphosphate

$$$$
