
     RDKit          3D

  7  6  0  0  0  0  0  0  0  0999 V2000
    1.0551   -0.0588    0.2707 C   0  0  0  0  0  0  0  0  0  0  0  0
    0.5595   -1.0686   -0.7508 N   0  0  0  0  0  0  0  0  0  0  0  0
    1.0912   -2.4394   -0.3003 C   0  0  0  0  0  0  0  0  0  0  0  0
   -0.9615   -1.1201   -0.7412 C   0  0  0  0  0  0  0  0  0  0  0  0
    1.1014   -0.7711   -2.1745 C   0  0  0  0  0  0  0  0  0  0  0  0
    0.6451    0.5546   -2.8243 C   0  0  0  0  0  0  0  0  0  0  0  0
    1.4413    2.0751   -2.2062 S   0  0  0  0  0  0  0  0  0  0  0  0
  1  2  1  0
  2  3  1  0
  2  4  1  0
  2  5  1  0
  5  6  1  0
  6  7  1  0
M  CHG  1   2   1
M  END
>  <DRUGBANK_ID>  (1) 
DB01803

>  <SECONDARY_ACCESSION_NUMBERS>  (1) 
EXPT01369

>  <COMMON_NAME>  (1) 
2-(Trimethylammonium)Ethyl Thiol

$$$$
