
     RDKit          3D

 10  9  0  0  0  0  0  0  0  0999 V2000
    1.0641   -0.0987   -0.1182 O   0  0  0  0  0  0  0  0  0  0  0  0
    0.5421   -1.4207    0.2194 C   0  0  0  0  0  0  0  0  0  0  0  0
    1.1521   -2.4994   -1.1271 P   0  0  0  0  0  0  0  0  0  0  0  0
    0.1737   -3.6488   -0.4615 O   0  0  0  0  0  0  0  0  0  0  0  0
    0.0638   -1.7301   -2.1002 O   0  0  0  0  0  0  0  0  0  0  0  0
    1.6682   -3.4121   -2.2664 O   0  0  0  0  0  0  0  0  0  0  0  0
    1.1521   -2.0475    1.8269 P   0  0  0  0  0  0  0  0  0  0  0  0
    0.5838   -0.6126    2.4053 O   0  0  0  0  0  0  0  0  0  0  0  0
   -0.2571   -2.9048    1.9597 O   0  0  0  0  0  0  0  0  0  0  0  0
    1.6682   -2.5778    3.1870 O   0  0  0  0  0  0  0  0  0  0  0  0
  1  2  1  0
  2  3  1  0
  2  7  1  0
  3  4  1  0
  3  5  1  0
  3  6  2  0
  7  8  1  0
  7  9  1  0
  7 10  2  0
M  END
>  <DRUGBANK_ID>  (1) 
DB14159

>  <COMMON_NAME>  (1) 
Oxidronic acid

>  <CAS_NUMBER>  (1) 
15468-10-7

>  <UNII>  (1) 
71MR4V32TI

>  <SYNONYMS>  (1) 
(Hydroxymethylene)diphosphonic acid; Acido oxidronico; Acidum oxidronicum; HMD-P; HMDP; Hydroxymethanediphosphonic acid; Oxidronate; Oxidronic acid

$$$$
