
     RDKit          3D

 15 15  0  0  1  0  0  0  0  0999 V2000
    1.1466    0.0468   -0.0867 C   0  0  0  0  0  0  0  0  0  0  0  0
    0.5986   -1.1557   -0.8201 N   0  0  1  0  0  0  0  0  0  0  0  0
    1.0852   -2.4373   -0.1338 C   0  0  0  0  0  0  0  0  0  0  0  0
    0.5955   -2.5908    1.3324 C   0  0  0  0  0  0  0  0  0  0  0  0
   -0.9006   -2.6592    1.5525 C   0  0  0  0  0  0  0  0  0  0  0  0
   -1.6259   -3.7322    1.8703 C   0  0  0  0  0  0  0  0  0  0  0  0
   -3.1353   -3.6965    1.8119 C   0  0  0  0  0  0  0  0  0  0  0  0
   -0.9522   -4.9774    2.3423 C   0  0  0  0  0  0  0  0  0  0  0  0
   -0.9086   -1.1141   -1.0147 C   0  0  1  0  0  0  0  0  0  0  0  0
   -1.3954    0.0902   -1.8015 C   0  0  0  0  0  0  0  0  0  0  0  0
   -2.9297    0.1128   -1.7553 C   0  0  0  0  0  0  0  0  0  0  0  0
   -3.5866   -1.2288   -1.9508 C   0  0  0  0  0  0  0  0  0  0  0  0
   -5.0591   -1.1826   -2.2214 C   0  0  0  0  0  0  0  0  0  0  0  0
   -2.9095   -2.3852   -1.8942 C   0  0  0  0  0  0  0  0  0  0  0  0
   -1.4486   -2.4395   -1.6022 C   0  0  0  0  0  0  0  0  0  0  0  0
  2  1  1  1
  2  3  1  0
  3  4  1  0
  4  5  1  0
  5  6  2  3
  6  7  1  0
  6  8  1  0
  9  2  1  0
  9 10  1  6
  9 15  1  0
 10 11  1  0
 11 12  1  0
 12 13  1  0
 12 14  2  0
 14 15  1  0
M  CHG  1   2   1
M  END
>  <DRUGBANK_ID>  (1) 
DB03985

>  <SECONDARY_ACCESSION_NUMBERS>  (1) 
EXPT02759

>  <COMMON_NAME>  (1) 
R-azabisabolene

$$$$
