
     RDKit          3D

 21 24  0  0  1  0  0  0  0  0999 V2000
    3.4062   -3.0362    5.5392 C   0  0  0  0  0  0  0  0  0  0  0  0
    2.1263   -2.8312    0.6542 C   0  0  0  0  0  0  0  0  0  0  0  0
    2.7427   -2.4952    2.0024 C   0  0  0  0  0  0  0  0  0  0  0  0
    2.1792   -1.5385    2.7885 C   0  0  0  0  0  0  0  0  0  0  0  0
    2.6896   -1.0981    4.1639 C   0  0  2  0  0  0  0  0  0  0  0  0
    3.8798   -1.9337    4.6061 C   0  0  0  0  0  0  0  0  0  0  0  0
    0.9800   -0.7562    2.4593 C   0  0  0  0  0  0  0  0  0  0  0  0
   -0.1310   -0.7311    3.4201 C   0  0  0  0  0  0  0  0  0  0  0  0
    0.3996   -0.3087    4.7863 C   0  0  2  0  0  0  0  0  0  0  0  0
    1.5595   -1.2232    5.1891 C   0  0  2  0  0  0  0  0  0  0  0  0
   -0.7221   -0.4200    5.8220 C   0  0  1  0  0  0  0  0  0  0  0  0
   -0.1963   -0.0061    7.1965 C   0  0  2  0  0  0  0  0  0  0  0  0
    0.9580   -0.9274    7.5978 C   0  0  0  0  0  0  0  0  0  0  0  0
    2.0827   -0.8114    6.5673 C   0  0  0  0  0  0  0  0  0  0  0  0
   -0.2946    1.7315    9.5294 C   0  0  0  0  0  0  0  0  0  0  0  0
   -0.7894    0.2955    9.5878 C   0  0  0  0  0  0  0  0  0  0  0  0
   -1.3133   -0.1158    8.2215 C   0  0  1  0  0  0  0  0  0  0  0  0
    1.0845   -2.2184    0.2614 O   0  0  0  0  0  0  0  0  0  0  0  0
    0.2978    1.4302    7.1389 C   0  0  0  0  0  0  0  0  0  0  0  0
   -2.3840    0.7389    7.8481 O   0  0  0  0  0  0  0  0  0  0  0  0
    3.1437    0.3492    4.0654 C   0  0  0  0  0  0  0  0  0  0  0  0
  1  2  1  0
  2  3  1  0
  2 18  2  0
  3  4  2  0
  4  5  1  0
  4  7  1  0
  5  6  1  0
  5 21  1  6
  6  1  1  0
  7  8  1  0
  9  8  1  6
  9 10  1  0
  9 11  1  0
 10  5  1  0
 11 12  1  0
 11 15  1  6
 12 13  1  0
 12 19  1  6
 13 14  1  0
 10 14  1  1
 15 16  1  0
 16 17  1  0
 17 12  1  0
 17 20  1  6
M  END
>  <DRUGBANK_ID>  (1) 
DB07768

>  <COMMON_NAME>  (1) 
Epitestosterone

>  <CAS_NUMBER>  (1) 
481-30-1

>  <UNII>  (1) 
48L726977Z

>  <SYNONYMS>  (1) 
(17-alpha)-17-Hydroxyandrost-4-en-3-one; 17-alpha-Hydroxyandrost-4-en-3-one; 17-alpha-Testosterone; 17-Epitestosterone; 17alpha-cis-Testosterone; cis-Testosterone; Isotestosterone

$$$$
