
     RDKit          3D

 41 45  0  0  1  0  0  0  0  0999 V2000
    0.9040   -0.0425   -0.0753 C   0  0  0  0  0  0  0  0  0  0  0  0
    0.3948   -0.9569    1.0190 C   0  0  0  0  0  0  0  0  0  0  0  0
    0.8812   -0.4781    2.3629 C   0  0  0  0  0  0  0  0  0  0  0  0
    0.4608    0.9453    2.6896 C   0  0  1  0  0  0  0  0  0  0  0  0
   -1.0507    1.0558    2.8039 N   0  0  0  0  0  0  0  0  0  0  0  0
   -1.9341    1.2876    3.8262 C   0  0  0  0  0  0  0  0  0  0  0  0
   -3.1499    1.2905    3.6484 O   0  0  0  0  0  0  0  0  0  0  0  0
   -1.5306    1.7088    5.0329 N   0  0  0  0  0  0  0  0  0  0  0  0
   -0.7052    2.7768    5.3353 C   0  0  1  0  0  0  0  0  0  0  0  0
   -0.5713    4.0691    4.6319 O   0  0  0  0  0  0  0  0  0  0  0  0
   -0.9762    5.3306    5.0092 C   0  0  0  0  0  0  0  0  0  0  0  0
   -0.8158    6.0290    6.2541 C   0  0  0  0  0  0  0  0  0  0  0  0
   -1.9338    6.6673    6.7901 C   0  0  0  0  0  0  0  0  0  0  0  0
   -2.8721    7.0387    5.8776 C   0  0  0  0  0  0  0  0  0  0  0  0
   -2.6833    6.7589    4.5173 C   0  0  0  0  0  0  0  0  0  0  0  0
   -1.8443    5.7711    4.0797 C   0  0  0  0  0  0  0  0  0  0  0  0
   -3.9749    7.8717    6.3264 C   0  0  0  0  0  0  0  0  0  0  0  0
   -5.1138    7.5718    5.9946 O   0  0  0  0  0  0  0  0  0  0  0  0
   -3.6339    8.9964    7.0775 N   0  0  0  0  0  0  0  0  0  0  0  0
   -2.5883    9.8432    6.5170 C   0  0  0  0  0  0  0  0  0  0  0  0
   -2.2071   10.9945    7.4485 C   0  0  0  0  0  0  0  0  0  0  0  0
   -3.3525   11.8077    7.9027 N   0  0  0  0  0  0  0  0  0  0  0  0
   -3.8609   12.5963    6.7809 C   0  0  0  0  0  0  0  0  0  0  0  0
   -4.4308   10.9326    8.4139 C   0  0  0  0  0  0  0  0  0  0  0  0
   -4.7855    9.7667    7.4891 C   0  0  0  0  0  0  0  0  0  0  0  0
   -0.5858    2.2990    6.8689 C   0  0  0  0  0  0  0  0  0  0  0  0
    0.9561    1.8425    7.7053 C   0  0  0  0  0  0  0  0  0  0  0  0
    3.0346    2.4308    7.5383 C   0  0  0  0  0  0  0  0  0  0  0  0
   -1.1696    3.1813    7.9698 C   0  0  0  0  0  0  0  0  0  0  0  0
   -2.0721    4.0322    7.3227 C   0  0  0  0  0  0  0  0  0  0  0  0
   -1.5606    1.2472    6.3393 C   0  0  0  0  0  0  0  0  0  0  0  0
   -2.1871    0.4219    6.9512 O   0  0  0  0  0  0  0  0  0  0  0  0
    1.4479    1.4004    3.8776 C   0  0  0  0  0  0  0  0  0  0  0  0
    1.5951    2.9789    3.9374 C   0  0  0  0  0  0  0  0  0  0  0  0
    1.7230    3.7217    5.1458 C   0  0  0  0  0  0  0  0  0  0  0  0
    1.4939    2.8198    6.0876 C   0  0  0  0  0  0  0  0  0  0  0  0
    0.9225    3.6238    7.4804 O   0  0  0  0  0  0  0  0  0  0  0  0
    1.7623    3.1238    8.5956 C   0  0  0  0  0  0  0  0  0  0  0  0
    2.1999    1.1452    8.2047 O   0  0  0  0  0  0  0  0  0  0  0  0
    1.6387    0.9778    6.3321 C   0  0  0  0  0  0  0  0  0  0  0  0
    1.7493    0.3796    5.0617 C   0  0  0  0  0  0  0  0  0  0  0  0
  1  2  1  0
  2  3  1  0
  4  3  1  1
  4  5  1  0
  4 33  1  0
  5  6  1  0
  6  7  2  0
  6  8  1  0
  8 31  1  0
  9  8  1  0
  9 10  1  1
  9 26  1  0
 10 11  1  0
 11 12  2  0
 11 16  1  0
 12 13  1  0
 13 14  2  0
 14 15  1  0
 14 17  1  0
 15 16  2  0
 17 18  2  0
 17 19  1  0
 19 20  1  0
 19 25  1  0
 20 21  1  0
 21 22  1  0
 22 23  1  0
 22 24  1  0
 24 25  1  0
 26 27  1  0
 26 29  1  0
 26 31  1  0
 27 28  1  0
 29 30  1  0
 31 32  2  0
 33 34  2  0
 33 41  1  0
 34 35  1  0
 35 36  2  0
 36 37  1  0
 36 40  1  0
 37 38  1  0
 38 39  1  0
 39 40  1  0
 40 41  2  0
M  END
>  <DRUGBANK_ID>  (1) 
DB18488

>  <COMMON_NAME>  (1) 
DMP-777

>  <CAS_NUMBER>  (1) 
157341-41-8

>  <UNII>  (1) 
3Q0469283P

>  <SYNONYMS>  (1) 
1-AZETIDINECARBOXAMIDE, N-((1R)-1-(1,3-BENZODIOXOL-5-YL)BUTYL)-3,3-DIETHYL-2-(4-((4-METHYL-1-PIPERAZINYL)CARBONYL)PHENOXY)-4-OXO-, (2S)-

$$$$
