CYK
     RDKit          3D

 15 14  0  0  0  0  0  0  0  0999 V2000
    0.8461    0.0793   -0.2127 C   0  0  0  0  0  0  0  0  0  0  0  0
   -1.8658   -0.2998    2.1846 C   0  0  0  0  0  0  0  0  0  0  0  0
    0.8235    2.1902    1.4064 C   0  0  0  0  0  0  0  0  0  0  0  0
   -3.1021   -0.3117    2.1807 O   0  0  0  0  0  0  0  0  0  0  0  0
   -1.2760    0.5638    1.2651 N   0  0  0  0  0  0  0  0  0  0  0  0
    0.1492    0.8400    1.0459 C   0  0  1  0  0  0  0  0  0  0  0  0
   -0.0650    3.1078    1.8643 O   0  0  0  0  0  0  0  0  0  0  0  0
    2.0177    2.3605    1.4439 O   0  0  0  0  0  0  0  0  0  0  0  0
    0.3986   -1.3802   -0.7651 C   0  0  0  0  0  0  0  0  0  0  0  0
    0.9794   -3.1780   -0.4886 S   0  0  0  0  0  0  0  0  0  0  0  0
   -1.1100   -1.1889    3.2466 C   0  0  0  0  0  0  0  0  0  0  0  0
   -0.1642   -2.2906    2.7470 C   0  0  0  0  0  0  0  0  0  0  0  0
    1.0431   -1.6271    2.1655 C   0  0  0  0  0  0  0  0  0  0  0  0
    1.9317   -0.6924    2.9552 C   0  0  0  0  0  0  0  0  0  0  0  0
    2.7541   -1.5949    3.8038 C   0  0  0  0  0  0  0  0  0  0  0  0
  1  9  1  0
  2  5  1  0
  3  6  1  0
  3  7  1  0
  4  2  2  0
  6  5  1  0
  6  1  1  6
  8  3  2  0
  9 10  1  0
 11  2  1  0
 12 11  1  0
 12 13  1  0
 14 13  1  0
 15 14  1  0
M  END
>  <DRUGBANK_ID>  (1) 
DB07603

>  <COMMON_NAME>  (1) 
N-hexanoyl-L-homocysteine

$$$$
