
     RDKit          3D

 12 12  0  0  0  0  0  0  0  0999 V2000
    0.7881    1.1279    0.0527 O   0  0  0  0  0  0  0  0  0  0  0  0
   -1.3260   -0.0496   -1.7962 O   0  0  0  0  0  0  0  0  0  0  0  0
   -0.9961   -1.3614    1.6816 O   0  0  0  0  0  0  0  0  0  0  0  0
    1.3633   -2.5763    0.6171 O   0  0  0  0  0  0  0  0  0  0  0  0
   -0.9042    1.3270    1.6716 O   0  0  0  0  0  0  0  0  0  0  0  0
   -0.7360   -1.3406    0.2612 C   0  0  2  0  0  0  0  0  0  0  0  0
    0.7817   -1.4032    0.0491 C   0  0  1  0  0  0  0  0  0  0  0  0
   -1.3141   -0.0469   -0.3525 C   0  0  1  0  0  0  0  0  0  0  0  0
    1.4655   -0.0692    0.4636 C   0  0  2  0  0  0  0  0  0  0  0  0
   -0.6193    1.1721    0.2868 C   0  0  2  0  0  0  0  0  0  0  0  0
    1.7811    0.0398    1.9522 C   0  0  0  0  0  0  0  0  0  0  0  0
   -0.1333    0.2780   -2.5043 C   0  0  0  0  0  0  0  0  0  0  0  0
  1  9  1  0
  1 10  1  0
  2 12  1  0
  6  7  1  0
  6  8  1  0
  6  3  1  1
  7  9  1  0
  7  4  1  1
  8  2  1  6
  8 10  1  0
  9 11  1  1
 10  5  1  1
M  END
>  <DRUGBANK_ID>  (1) 
DB03863

>  <SECONDARY_ACCESSION_NUMBERS>  (1) 
EXPT02262

>  <COMMON_NAME>  (1) 
2-O-Methyl-beta-L-fucopyranose

>  <CAS_NUMBER>  (1) 
108266-96-2

>  <UNII>  (1) 
4PLV4YP7CJ

>  <SYNONYMS>  (1) 
6-Deoxy-2-O-methyl-beta-L-galactopyranose; 6-Deoxy-2-O-methyl-Î²-L-galactopyranose

$$$$
