
     RDKit          3D

 16 16  0  0  0  0  0  0  0  0999 V2000
    0.8918    0.0913   -0.0049 C   0  0  0  0  0  0  0  0  0  0  0  0
    2.2395    0.1078   -0.0198 N   0  0  0  0  0  0  0  0  0  0  0  0
    5.9715    0.3102   -0.1330 C   0  0  2  0  0  0  0  0  0  0  0  0
    3.9417    1.8311    0.3391 C   0  0  0  0  0  0  0  0  0  0  0  0
    3.0631    1.1035   -0.6776 C   0  0  0  0  0  0  0  0  0  0  0  0
    5.0461    0.9372    0.9289 C   0  0  0  0  0  0  0  0  0  0  0  0
    6.9046   -0.6576    0.4068 N   0  0  0  0  0  0  0  0  0  0  0  0
    6.7474    1.3676   -0.9546 C   0  0  0  0  0  0  0  0  0  0  0  0
    5.9436    2.2100   -1.6430 O   0  0  0  0  0  0  0  0  0  0  0  0
    0.3345   -0.9152    0.6761 N   0  0  0  0  0  0  0  0  0  0  0  0
    7.9550    1.4930   -1.0692 O   0  0  0  0  0  0  0  0  0  0  0  0
    0.1017    0.9269   -0.5737 N   0  0  0  0  0  0  0  0  0  0  0  0
    8.4803    0.4958    1.6944 O   0  0  0  0  0  0  0  0  0  0  0  0
    6.7646   -2.0928    0.6231 C   0  0  0  0  0  0  0  0  0  0  0  0
    7.9405   -0.4941    1.2570 C   0  0  0  0  0  0  0  0  0  0  0  0
    8.0965   -2.0180    1.4034 C   0  0  0  0  0  0  0  0  0  0  0  0
  1  2  1  0
  2  5  1  0
  3  8  1  0
  3  6  1  1
  3  7  1  0
  4  5  1  0
  6  4  1  0
  7 14  1  0
  9  8  1  0
 10  1  1  0
 11  8  2  0
 12  1  2  0
 13 15  2  0
 15  7  1  0
 16 14  1  0
 16 15  1  0
M  END
>  <DRUGBANK_ID>  (1) 
DB02475

>  <SECONDARY_ACCESSION_NUMBERS>  (1) 
EXPT02527

>  <COMMON_NAME>  (1) 
Deoxyamidinoproclavaminic acid

>  <SYNONYMS>  (1) 
Deoxyamidinoproclavaminate; Deoxyguanidinoproclavaminate; Deoxyguanidinoproclavaminic acid

$$$$
