
     RDKit          3D

 29 30  0  0  0  0  0  0  0  0999 V2000
    1.3791   -2.2976    0.0839 C   0  0  0  0  0  0  0  0  0  0  0  0
    0.6859   -1.1570    0.4771 N   0  0  0  0  0  0  0  0  0  0  0  0
    1.6690    0.0906    0.0483 C   0  0  0  0  0  0  0  0  0  0  0  0
    2.8811    0.1914   -0.0778 O   0  0  0  0  0  0  0  0  0  0  0  0
    0.7716    1.4199   -0.1499 C   0  0  0  0  0  0  0  0  0  0  0  0
   -1.0525    1.7049    0.1158 C   0  0  0  0  0  0  0  0  0  0  0  0
   -1.7331    3.2036    0.7271 N   0  0  0  0  0  0  0  0  0  0  0  0
   -0.8793    4.8600    0.5919 C   0  0  0  0  0  0  0  0  0  0  0  0
   -1.0115    5.5516   -0.8998 C   0  0  0  0  0  0  0  0  0  0  0  0
   -2.3910    5.5614   -1.3472 N   0  0  0  0  0  0  0  0  0  0  0  0
   -2.5855    6.4484   -2.4850 C   0  0  0  0  0  0  0  0  0  0  0  0
   -2.1243    5.9234   -3.8537 C   0  0  0  0  0  0  0  0  0  0  0  0
   -2.9429    4.8506   -4.1880 O   0  0  0  0  0  0  0  0  0  0  0  0
   -3.2046    4.3240   -1.3477 C   0  0  0  0  0  0  0  0  0  0  0  0
   -2.8049    3.0129   -2.2569 C   0  0  0  0  0  0  0  0  0  0  0  0
   -1.2762    2.9146   -2.7746 C   0  0  0  0  0  0  0  0  0  0  0  0
   -0.2038    2.3180   -1.8765 C   0  0  0  0  0  0  0  0  0  0  0  0
    0.1903    3.2187   -0.3501 C   0  0  0  0  0  0  0  0  0  0  0  0
    0.2346    2.4401    1.4328 C   0  0  0  0  0  0  0  0  0  0  0  0
   -0.1064    0.6092    1.3017 C   0  0  0  0  0  0  0  0  0  0  0  0
   -0.4347    0.0337   -0.6098 C   0  0  0  0  0  0  0  0  0  0  0  0
   -0.3668    0.8161   -1.9979 C   0  0  0  0  0  0  0  0  0  0  0  0
   -0.5083   -0.0843    2.6965 N   0  0  0  0  0  0  0  0  0  0  0  0
   -0.5825   -1.3238    2.7967 O   0  0  0  0  0  0  0  0  0  0  0  0
   -0.6841    0.6612    3.6598 O   0  0  0  0  0  0  0  0  0  0  0  0
   -1.9681    0.2554    0.5891 N   0  0  0  0  0  0  0  0  0  0  0  0
   -3.2974    0.3908    0.0672 C   0  0  0  0  0  0  0  0  0  0  0  0
   -1.1289   -1.4045    0.6291 C   0  0  0  0  0  0  0  0  0  0  0  0
   -1.6545   -2.4575    0.2646 O   0  0  0  0  0  0  0  0  0  0  0  0
  1  2  1  0
  2  3  1  0
  2 28  1  0
  3  4  2  0
  3  5  1  0
  5  6  2  0
  6  7  1  0
  6 26  1  0
  7  8  1  0
  8  9  1  0
  9 10  1  0
 10 11  1  0
 10 14  1  0
 11 12  1  0
 12 13  1  0
 14 15  1  0
 15 16  1  0
 16 17  1  0
 17 18  2  0
 17 22  1  0
 18 19  1  0
 19 20  2  0
 20 21  1  0
 20 23  1  0
 21 22  2  0
 23 24  1  0
 23 25  2  0
 26 27  1  0
 26 28  1  0
 28 29  2  0
M  CHG  2  23   1  24  -1
M  END
>  <DRUGBANK_ID>  (1) 
DB16008

>  <COMMON_NAME>  (1) 
Nifekalant

>  <CAS_NUMBER>  (1) 
130636-43-0

>  <UNII>  (1) 
5VZ7GZM43E

>  <SYNONYMS>  (1) 
6-((2-((2-Hydroxyethyl)(3-(p-nitrophenyl)propyl)amino)ethyl)amino)-1,3-dimethyluracil; Nifekalant

$$$$
