
     RDKit          3D

 25 29  0  0  0  0  0  0  0  0999 V2000
    3.4392    7.1790    2.3151 C   0  0  2  0  0  0  0  0  0  0  0  0
    4.6436    1.2864    2.0863 C   0  0  2  0  0  0  0  0  0  0  0  0
    4.0148    2.5976    2.5290 C   0  0  0  0  0  0  0  0  0  0  0  0
    3.0344    3.1692    1.7789 C   0  0  0  0  0  0  0  0  0  0  0  0
    2.9365   10.4575    0.7293 C   0  0  0  0  0  0  0  0  0  0  0  0
    2.8999    9.1744    1.5434 C   0  0  0  0  0  0  0  0  0  0  0  0
    1.4568    8.8145    1.8573 C   0  0  1  0  0  0  0  0  0  0  0  0
    0.5895    8.5384    0.6022 C   0  0  0  0  0  0  0  0  0  0  0  0
    0.8024    7.1086    0.3024 C   0  0  0  0  0  0  0  0  0  0  0  0
    2.4056    4.4804    2.2216 C   0  0  2  0  0  0  0  0  0  0  0  0
    1.2955    7.4884    2.6488 C   0  0  0  0  0  0  0  0  0  0  0  0
    0.9582    4.2368    2.2766 C   0  0  2  0  0  0  0  0  0  0  0  0
    2.5812    5.7452    1.3498 C   0  0  1  0  0  0  0  0  0  0  0  0
    0.2648    5.3291    1.9040 C   0  0  1  0  0  0  0  0  0  0  0  0
    1.2150    6.4354    1.5335 C   0  0  2  0  0  0  0  0  0  0  0  0
    4.4360    0.3004    3.0868 O   0  0  0  0  0  0  0  0  0  0  0  0
    4.0562    8.5218    2.6708 C   0  0  0  0  0  0  0  0  0  0  0  0
   -0.6056    4.9893    0.7051 C   0  0  0  0  0  0  0  0  0  0  0  0
   -0.2400    4.0822   -0.1065 O   0  0  0  0  0  0  0  0  0  0  0  0
   -1.8248    5.6848    0.4903 O   0  0  0  0  0  0  0  0  0  0  0  0
   -0.1954    9.4200   -0.0741 C   0  0  0  0  0  0  0  0  0  0  0  0
    0.9615    9.9217    2.5956 O   0  0  0  0  0  0  0  0  0  0  0  0
    2.9796    4.9393    3.4366 O   0  0  0  0  0  0  0  0  0  0  0  0
    3.4983    6.2583    3.5231 C   0  0  0  0  0  0  0  0  0  0  0  0
    4.0119    6.6691    4.6106 O   0  0  0  0  0  0  0  0  0  0  0  0
  1 12  1  0
  1 17  1  1
  1 24  1  0
  2  1  1  0
  2  3  1  0
  2 16  1  1
  3  4  2  0
 10  4  1  6
 13  5  1  1
  6  5  1  0
  7  6  1  0
  7 11  1  0
  7 22  1  1
  8  7  1  0
  8  9  1  0
 15  9  1  6
 10 23  1  0
 12 10  1  0
 13 10  1  0
 12 14  1  6
 14 18  1  6
 15 13  1  0
 15 14  1  0
 15 11  1  0
 19 18  2  0
 20 18  1  0
 21  8  2  0
 23 24  1  0
 25 24  2  0
M  END
>  <DRUGBANK_ID>  (1) 
DB07814

>  <COMMON_NAME>  (1) 
Gibberellic acid

>  <CAS_NUMBER>  (1) 
77-06-5

>  <UNII>  (1) 
BU0A7MWB6L

>  <SYNONYMS>  (1) 
(+)-gibberellic acid; GA3; Gibberellic acid GA3; Gibberellin; Gibberellin 3; Gibberellin A3

$$$$
