789
     RDKit          3D

 19 21  0  0  0  0  0  0  0  0999 V2000
    2.1387   -0.6956    0.0019 C   0  0  0  0  0  0  0  0  0  0  0  0
    0.9505   -1.4182    0.0036 C   0  0  0  0  0  0  0  0  0  0  0  0
   -0.2320   -0.6976    0.0012 C   0  0  0  0  0  0  0  0  0  0  0  0
   -0.2789    0.6885   -0.0036 C   0  0  0  0  0  0  0  0  0  0  0  0
    0.9137    1.4070    0.0001 C   0  0  0  0  0  0  0  0  0  0  0  0
    2.1333    0.7061    0.0014 C   0  0  0  0  0  0  0  0  0  0  0  0
   -1.6104   -1.1766   -0.0037 C   0  0  0  0  0  0  0  0  0  0  0  0
   -2.4963    0.0198   -0.0421 C   0  0  0  0  0  0  0  0  0  0  0  0
   -1.6839    1.0994   -0.0201 C   0  0  0  0  0  0  0  0  0  0  0  0
   -3.9671   -0.0059   -0.0538 C   0  0  0  0  0  0  0  0  0  0  0  0
   -4.6784    0.6502   -1.0694 C   0  0  0  0  0  0  0  0  0  0  0  0
   -6.0632    0.8204   -0.9784 C   0  0  0  0  0  0  0  0  0  0  0  0
   -6.7651    0.2283    0.0613 C   0  0  0  0  0  0  0  0  0  0  0  0
   -6.1016   -0.5571    0.9968 C   0  0  0  0  0  0  0  0  0  0  0  0
   -4.6993   -0.6338    0.9655 C   0  0  0  0  0  0  0  0  0  0  0  0
   -8.1087    0.4530    0.1219 O   0  0  0  0  0  0  0  0  0  0  0  0
   -1.9501   -2.3465    0.0212 O   0  0  0  0  0  0  0  0  0  0  0  0
    3.3024   -1.4082   -0.0009 O   0  0  0  0  0  0  0  0  0  0  0  0
   -2.1756    2.8829    0.0193 Br  0  0  0  0  0  0  0  0  0  0  0  0
  1  2  2  0
  1  6  1  0
  1 18  1  0
  2  3  1  0
  3  4  2  0
  3  7  1  0
  4  5  1  0
  4  9  1  0
  5  6  2  0
  7  8  1  0
  7 17  2  0
  8  9  2  0
  8 10  1  0
  9 19  1  0
 10 11  2  0
 10 15  1  0
 11 12  1  0
 12 13  2  0
 13 14  1  0
 13 16  1  0
 14 15  2  0
M  END
>  <DRUGBANK_ID>  (1) 
DB07230

>  <COMMON_NAME>  (1) 
3-BROMO-6-HYDROXY-2-(4-HYDROXYPHENYL)-1H-INDEN-1-ONE

$$$$
