
     RDKit          3D

 38 42  0  0  1  0  0  0  0  0999 V2000
   -7.7433   -0.5089   -4.1541 C   0  0  0  0  0  0  0  0  0  0  0  0
   -6.4840   -0.7107   -3.4623 N   0  0  0  0  0  0  0  0  0  0  0  0
   -6.5994   -0.1698   -2.1120 C   0  0  0  0  0  0  0  0  0  0  0  0
   -5.2489   -0.3244   -1.4685 C   0  0  0  0  0  0  0  0  0  0  0  0
   -4.6825   -1.6426   -1.3884 N   0  0  0  0  0  0  0  0  0  0  0  0
   -4.7165   -2.3353   -2.6720 C   0  0  0  0  0  0  0  0  0  0  0  0
   -6.0959   -2.1387   -3.3584 C   0  0  0  0  0  0  0  0  0  0  0  0
   -3.9847   -2.1469   -0.2947 C   0  0  0  0  0  0  0  0  0  0  0  0
   -3.5724   -3.3122   -0.3097 O   0  0  0  0  0  0  0  0  0  0  0  0
   -3.7750   -1.2491    0.9953 C   0  0  2  0  0  0  0  0  0  0  0  0
   -2.8478   -0.0332    0.8355 C   0  0  0  0  0  0  0  0  0  0  0  0
   -3.2419    1.1617   -0.0300 C   0  0  0  0  0  0  0  0  0  0  0  0
   -4.4949    1.9543    0.3798 C   0  0  0  0  0  0  0  0  0  0  0  0
   -4.2298    2.6370    1.6270 N   0  0  0  0  0  0  0  0  0  0  0  0
   -5.3781    3.4186    2.0917 C   0  0  2  0  0  0  0  0  0  0  0  0
   -6.0331    4.4408    1.2069 C   0  0  0  0  0  0  0  0  0  0  0  0
   -5.1007    4.8829    2.3035 C   0  0  1  0  0  0  0  0  0  0  0  0
   -5.5544    5.6517    3.5088 C   0  0  0  0  0  0  0  0  0  0  0  0
   -4.9919    5.4028    4.7754 C   0  0  0  0  0  0  0  0  0  0  0  0
   -5.2369    6.2511    5.8592 C   0  0  0  0  0  0  0  0  0  0  0  0
   -6.0533    7.3594    5.6863 C   0  0  0  0  0  0  0  0  0  0  0  0
   -6.2653    8.1929    6.7131 F   0  0  0  0  0  0  0  0  0  0  0  0
   -6.6344    7.6279    4.4554 C   0  0  0  0  0  0  0  0  0  0  0  0
   -6.3904    6.7739    3.3775 C   0  0  0  0  0  0  0  0  0  0  0  0
   -3.1265   -2.0931    2.0435 N   0  0  0  0  0  0  0  0  0  0  0  0
   -3.5291   -2.4459    3.3015 C   0  0  0  0  0  0  0  0  0  0  0  0
   -2.7547   -3.0275    4.0703 O   0  0  0  0  0  0  0  0  0  0  0  0
   -4.9003   -2.1426    3.7549 C   0  0  0  0  0  0  0  0  0  0  0  0
   -5.9823   -2.4161    2.9087 C   0  0  0  0  0  0  0  0  0  0  0  0
   -7.2858   -2.1460    3.3147 C   0  0  0  0  0  0  0  0  0  0  0  0
   -7.5054   -1.6440    4.5988 C   0  0  0  0  0  0  0  0  0  0  0  0
   -6.4372   -1.4307    5.4808 C   0  0  0  0  0  0  0  0  0  0  0  0
   -5.1273   -1.6647    5.0513 C   0  0  0  0  0  0  0  0  0  0  0  0
   -8.8124   -1.3255    5.0048 N   0  0  0  0  0  0  0  0  0  0  0  0
   -9.9439   -2.0930    4.8926 C   0  0  0  0  0  0  0  0  0  0  0  0
  -10.9428   -1.2964    5.3960 C   0  0  0  0  0  0  0  0  0  0  0  0
  -10.4267   -0.0814    5.7389 N   0  0  0  0  0  0  0  0  0  0  0  0
   -9.1148   -0.1228    5.5397 N   0  0  0  0  0  0  0  0  0  0  0  0
  1  2  1  0
  2  3  1  0
  2  7  1  0
  3  4  1  0
  4  5  1  0
  5  6  1  0
  5  8  1  0
  6  7  1  0
  8  9  2  0
 10 25  1  0
 10 11  1  6
 10  8  1  0
 11 12  1  0
 12 13  1  0
 13 14  1  0
 15 14  1  6
 15 16  1  0
 15 17  1  0
 17 16  1  0
 17 18  1  1
 18 19  2  0
 18 24  1  0
 19 20  1  0
 20 21  2  0
 21 22  1  0
 21 23  1  0
 23 24  2  0
 25 26  1  0
 26 27  2  0
 26 28  1  0
 28 29  2  0
 28 33  1  0
 29 30  1  0
 30 31  2  0
 31 32  1  0
 31 34  1  0
 32 33  2  0
 34 35  1  0
 34 38  1  0
 35 36  2  0
 36 37  1  0
 37 38  2  0
M  END
>  <DRUGBANK_ID>  (1) 
DB15126

>  <COMMON_NAME>  (1) 
IMG-7289

>  <CAS_NUMBER>  (1) 
1990504-34-1

$$$$
