L0H
     RDKit          3D

 23 26  0  0  0  0  0  0  0  0999 V2000
    1.0238   -0.0555    0.0501 O   0  0  0  0  0  0  0  0  0  0  0  0
    2.2556   -0.0882    0.0024 C   0  0  0  0  0  0  0  0  0  0  0  0
    3.0010   -0.2480    1.1548 N   0  0  0  0  0  0  0  0  0  0  0  0
    4.3814   -0.2039    1.2546 C   0  0  0  0  0  0  0  0  0  0  0  0
    5.2275    0.6687    0.6104 C   0  0  0  0  0  0  0  0  0  0  0  0
    6.4914    0.2802    0.9333 N   0  0  0  0  0  0  0  0  0  0  0  0
    6.5311   -0.7367    1.8077 N   0  0  0  0  0  0  0  0  0  0  0  0
    5.2400   -1.0159    2.0368 C   0  0  0  0  0  0  0  0  0  0  0  0
    4.8008   -2.1110    2.9449 C   0  0  0  0  0  0  0  0  0  0  0  0
    5.0276   -2.1121    4.2406 N   0  0  0  0  0  0  0  0  0  0  0  0
    4.2913   -3.1515    4.7373 C   0  0  0  0  0  0  0  0  0  0  0  0
    4.1129   -3.5488    6.0670 C   0  0  0  0  0  0  0  0  0  0  0  0
    3.3157   -4.6667    6.3291 C   0  0  0  0  0  0  0  0  0  0  0  0
    2.7010   -5.3666    5.2870 C   0  0  0  0  0  0  0  0  0  0  0  0
    2.8547   -4.9741    3.9501 C   0  0  0  0  0  0  0  0  0  0  0  0
    3.6555   -3.8530    3.7185 C   0  0  0  0  0  0  0  0  0  0  0  0
    4.0121   -3.1757    2.5788 N   0  0  0  0  0  0  0  0  0  0  0  0
    2.9391   -0.0093   -1.3190 C   0  0  0  0  0  0  0  0  0  0  0  0
    2.5402    0.9798   -2.2191 C   0  0  0  0  0  0  0  0  0  0  0  0
    3.2916    1.2037   -3.3747 C   0  0  0  0  0  0  0  0  0  0  0  0
    4.4505    0.4621   -3.6165 C   0  0  0  0  0  0  0  0  0  0  0  0
    4.8380   -0.5375   -2.7296 C   0  0  0  0  0  0  0  0  0  0  0  0
    4.0362   -0.8296   -1.6288 C   0  0  0  0  0  0  0  0  0  0  0  0
  1  2  2  0
  2  3  1  0
  2 18  1  0
  3  4  1  0
  4  5  2  0
  4  8  1  0
  5  6  1  0
  6  7  1  0
  7  8  2  0
  8  9  1  0
  9 10  2  0
  9 17  1  0
 10 11  1  0
 11 12  2  0
 11 16  1  0
 12 13  1  0
 13 14  2  0
 14 15  1  0
 15 16  2  0
 16 17  1  0
 18 19  2  0
 18 23  1  0
 19 20  1  0
 20 21  2  0
 21 22  1  0
 22 23  2  0
M  END
>  <DRUGBANK_ID>  (1) 
DB08066

>  <COMMON_NAME>  (1) 
N-[3-(1H-BENZIMIDAZOL-2-YL)-1H-PYRAZOL-4-YL]BENZAMIDE

>  <UNII>  (1) 
XX88F9S4A4

$$$$
