
     RDKit          3D

  8  8  0  0  0  0  0  0  0  0999 V2000
    0.2915    1.3568    0.0000 O   0  0  0  0  0  0  0  0  0  0  0  0
    1.3710    0.3961    0.0090 C   0  0  2  0  0  0  0  0  0  0  0  0
   -1.0180    1.0511    0.0006 C   0  0  0  0  0  0  0  0  0  0  0  0
    0.9853   -1.0851   -0.0557 C   0  0  0  0  0  0  0  0  0  0  0  0
    2.2180    0.6690    1.2489 C   0  0  0  0  0  0  0  0  0  0  0  0
   -1.3821   -0.3666    0.0050 C   0  0  0  0  0  0  0  0  0  0  0  0
   -1.8916    1.9129   -0.0031 O   0  0  0  0  0  0  0  0  0  0  0  0
   -0.4751   -1.3450   -0.0198 C   0  0  0  0  0  0  0  0  0  0  0  0
  1  2  1  0
  1  3  1  0
  2  4  1  0
  2  5  1  1
  3  6  1  0
  3  7  2  0
  4  8  1  0
  6  8  2  0
M  END
>  <DRUGBANK_ID>  (1) 
DB14121

>  <COMMON_NAME>  (1) 
Parasorbic acid

>  <CAS_NUMBER>  (1) 
10048-32-5

>  <UNII>  (1) 
DCN48OUK3T

>  <SYNONYMS>  (1) 
(+)-Parasorbinsaeure; (S)-(+)-5,6-Dihydro-6-methyl-2H-pyran-2-one; 2-Hexen-5,1-olide; 5-Hydroxy-2-hexenoic acid lactone; gamma-Hexenolactone; Parascorbic acid; Sorbic oil

$$$$
