
     RDKit          3D

 25 28  0  0  1  0  0  0  0  0999 V2000
    0.4213   -2.0444    0.0020 S   0  0  0  0  0  0  0  0  0  0  0  0
   -4.1130    1.7210    9.9657 O   0  0  0  0  0  0  0  0  0  0  0  0
    1.4165   -1.7195    1.2787 O   0  0  0  0  0  0  0  0  0  0  0  0
    0.1729   -0.5718   -0.5933 O   0  0  0  0  0  0  0  0  0  0  0  0
   -0.8666   -2.5329    0.4228 O   0  0  0  0  0  0  0  0  0  0  0  0
    1.1903   -2.7625   -0.9922 O   0  0  0  0  0  0  0  0  0  0  0  0
   -1.0062    0.1029    6.1535 C   0  0  1  0  0  0  0  0  0  0  0  0
   -0.2836    1.1392    7.0441 C   0  0  2  0  0  0  0  0  0  0  0  0
   -1.3650    1.8706    7.8493 C   0  0  1  0  0  0  0  0  0  0  0  0
   -2.1751    0.9131    8.7476 C   0  0  2  0  0  0  0  0  0  0  0  0
   -0.0092   -0.6847    5.2448 C   0  0  2  0  0  0  0  0  0  0  0  0
   -1.9509   -0.8257    6.9657 C   0  0  0  0  0  0  0  0  0  0  0  0
   -2.9309   -0.0692    7.8635 C   0  0  0  0  0  0  0  0  0  0  0  0
   -0.9894    3.0185    8.7770 C   0  0  0  0  0  0  0  0  0  0  0  0
    0.5264    2.1124    6.1720 C   0  0  0  0  0  0  0  0  0  0  0  0
    1.0591    0.2121    4.5967 C   0  0  0  0  0  0  0  0  0  0  0  0
   -0.8713   -1.2952    4.1346 C   0  0  0  0  0  0  0  0  0  0  0  0
   -3.0173    1.9421    9.4682 C   0  0  0  0  0  0  0  0  0  0  0  0
   -2.2990    3.2774    9.5441 C   0  0  0  0  0  0  0  0  0  0  0  0
    1.2725    1.4668    5.0359 C   0  0  0  0  0  0  0  0  0  0  0  0
   -1.3607    0.1884    9.8323 C   0  0  0  0  0  0  0  0  0  0  0  0
    0.7168   -1.8033    6.0216 C   0  0  0  0  0  0  0  0  0  0  0  0
    1.8315   -0.3837    3.4033 C   0  0  0  0  0  0  0  0  0  0  0  0
   -0.0388   -2.0026    3.1128 C   0  0  0  0  0  0  0  0  0  0  0  0
    0.8444   -1.0099    2.3752 C   0  0  2  0  0  0  0  0  0  0  0  0
  1  3  1  0
  1  4  1  0
  1  5  2  0
  1  6  2  0
  2 18  2  0
  7  8  1  0
  7 11  1  0
  7 12  1  1
  8  9  1  0
  8 15  1  6
  9 10  1  0
  9 14  1  1
 10 13  1  0
 10 18  1  0
 10 21  1  1
 11 16  1  0
 11 17  1  0
 11 22  1  1
 12 13  1  0
 14 19  1  0
 15 20  1  0
 16 20  2  0
 16 23  1  0
 17 24  1  0
 18 19  1  0
 23 25  1  0
 24 25  1  0
 25  3  1  6
M  END
>  <DRUGBANK_ID>  (1) 
DB05804

>  <COMMON_NAME>  (1) 
Prasterone sulfate

>  <CAS_NUMBER>  (1) 
651-48-9

>  <UNII>  (1) 
57B09Q7FJR

>  <SYNONYMS>  (1) 
(3-beta)-3-(Sulfooxy)androst-5-en-17-one; 17-Ketoandrost-5-en-3beta-yl sulfate; 17-oxoandrost-5-en-3Î²-yl hydrogen sulphate; 3-O-Sulfodehydroepiandrosterone; 3beta-Hydroxyandrost-5-en-17-one 3-sulfate; Androst-5-en-17-on-3beta-yl sulfuric acid; Dehydroepiandrosterone 3-sulfate; Dehydroepiandrosterone monosulfate; Dehydroepiandrosterone sulfate; Dehydroepiandrosterone sulphate; Dehydroisoandrosterone sulfate; Dehydroisoandrosterone-3-sulfate; DHEA sulfate; DHEA sulphate; DHEA-S; Prasterone sulphate

$$$$
