
     RDKit          3D

 32 34  0  0  0  0  0  0  0  0999 V2000
   -0.2852    0.6959    0.0156 C   0  0  0  0  0  0  0  0  0  0  0  0
   -0.3430   -0.6925    0.0139 C   0  0  0  0  0  0  0  0  0  0  0  0
    1.0221   -1.1468   -0.0784 C   0  0  0  0  0  0  0  0  0  0  0  0
    1.8553   -0.0602    0.0258 N   0  0  0  0  0  0  0  0  0  0  0  0
    1.1227    1.1007    0.0291 C   0  0  0  0  0  0  0  0  0  0  0  0
    1.5203    2.2447    0.0146 O   0  0  0  0  0  0  0  0  0  0  0  0
    1.2437   -2.3303   -0.2961 O   0  0  0  0  0  0  0  0  0  0  0  0
   -1.4215    1.4683   -0.0130 C   0  0  0  0  0  0  0  0  0  0  0  0
   -2.6327    0.7856   -0.0084 C   0  0  0  0  0  0  0  0  0  0  0  0
   -2.6798   -0.6228    0.0281 C   0  0  0  0  0  0  0  0  0  0  0  0
   -1.5308   -1.4142    0.0385 C   0  0  0  0  0  0  0  0  0  0  0  0
   -1.5753   -2.8449    0.0823 N   0  0  0  0  0  0  0  0  0  0  0  0
   -2.7440   -3.5947    0.1290 C   0  0  0  0  0  0  0  0  0  0  0  0
   -2.6071   -5.0923    0.1812 C   0  0  0  0  0  0  0  0  0  0  0  0
   -3.8878   -3.1413    0.1404 O   0  0  0  0  0  0  0  0  0  0  0  0
    3.3160   -0.0497   -0.1366 C   0  0  1  0  0  0  0  0  0  0  0  0
    4.0017   -0.7683    1.0246 C   0  0  0  0  0  0  0  0  0  0  0  0
    3.7730   -0.6811   -1.4615 C   0  0  0  0  0  0  0  0  0  0  0  0
    3.1093    0.1172   -2.9134 S   0  0  0  0  0  0  0  0  0  0  0  0
    3.6895   -2.1099    1.2630 C   0  0  0  0  0  0  0  0  0  0  0  0
    4.3590   -2.8982    2.1637 C   0  0  0  0  0  0  0  0  0  0  0  0
    5.4603   -2.3907    2.8040 C   0  0  0  0  0  0  0  0  0  0  0  0
    5.8102   -1.0304    2.6266 C   0  0  0  0  0  0  0  0  0  0  0  0
    5.0301   -0.2022    1.7880 C   0  0  0  0  0  0  0  0  0  0  0  0
    6.2618   -3.2478    3.4994 O   0  0  0  0  0  0  0  0  0  0  0  0
    6.9048   -0.4007    3.1771 O   0  0  0  0  0  0  0  0  0  0  0  0
    7.7961   -1.2189    3.9423 C   0  0  0  0  0  0  0  0  0  0  0  0
    7.1982   -1.5418    5.3132 C   0  0  0  0  0  0  0  0  0  0  0  0
    5.6783   -4.3920    4.1077 C   0  0  0  0  0  0  0  0  0  0  0  0
    3.7466    1.7783   -2.8876 C   0  0  0  0  0  0  0  0  0  0  0  0
    3.6925   -0.5435   -4.0665 O   0  0  0  0  0  0  0  0  0  0  0  0
    1.6661    0.1929   -2.7864 O   0  0  0  0  0  0  0  0  0  0  0  0
  1  2  2  0
  1  5  1  0
  1  8  1  0
  2  3  1  0
  2 11  1  0
  3  4  1  0
  3  7  2  0
  4  5  1  0
  4 16  1  0
  5  6  2  0
  8  9  2  0
  9 10  1  0
 10 11  2  0
 11 12  1  0
 12 13  1  0
 13 14  1  0
 13 15  2  0
 16 17  1  0
 16 18  1  6
 17 20  2  0
 17 24  1  0
 18 19  1  0
 19 30  1  0
 20 21  1  0
 21 22  2  0
 22 23  1  0
 22 25  1  0
 23 24  2  0
 23 26  1  0
 25 29  1  0
 26 27  1  0
 27 28  1  0
 31 19  2  0
 32 19  2  0
M  END
>  <DRUGBANK_ID>  (1) 
DB05676

>  <COMMON_NAME>  (1) 
Apremilast

>  <CAS_NUMBER>  (1) 
608141-41-9

>  <UNII>  (1) 
UP7QBP99PN

>  <SYNONYMS>  (1) 
Apremilast; Apr√©milast; Apremilastum; N-{2-[(1S)-1-(3-Ethoxy-4-methoxyphenyl)-2-(methylsulfonyl)ethyl]-1,3-dioxo-2,3-dihydro-1H-isoindol-4-yl}acetamide

$$$$
