324
     RDKit          3D

 27 30  0  0  1  0  0  0  0  0999 V2000
    6.1041   -2.0290    7.4324 F   0  0  0  0  0  0  0  0  0  0  0  0
    3.0542    1.9551    7.2255 O   0  0  0  0  0  0  0  0  0  0  0  0
    3.8167   -2.2994    5.6865 O   0  0  0  0  0  0  0  0  0  0  0  0
    2.3747    2.7622    9.3146 O   0  0  0  0  0  0  0  0  0  0  0  0
    5.4517   -2.7232    1.1628 O   0  0  0  0  0  0  0  0  0  0  0  0
    4.9660    0.7317    7.2434 C   0  0  2  0  0  0  0  0  0  0  0  0
    6.4286    0.4683    7.7881 C   0  0  1  0  0  0  0  0  0  0  0  0
    7.2359   -0.3563    6.4968 C   0  0  2  0  0  0  0  0  0  0  0  0
    6.2004   -1.5032    6.1203 C   0  0  2  0  0  0  0  0  0  0  0  0
    4.1841    1.6808    8.1316 C   0  0  1  0  0  0  0  0  0  0  0  0
    4.1464   -0.5273    7.0166 C   0  0  0  0  0  0  0  0  0  0  0  0
    4.7251   -1.2035    5.8586 C   0  0  2  0  0  0  0  0  0  0  0  0
    6.6159    1.8688    8.5413 C   0  0  0  0  0  0  0  0  0  0  0  0
    6.6447   -2.7246    5.2017 C   0  0  1  0  0  0  0  0  0  0  0  0
    5.2968    2.7432    8.3348 C   0  0  0  0  0  0  0  0  0  0  0  0
    8.5714   -1.2465    6.6332 C   0  0  0  0  0  0  0  0  0  0  0  0
    8.9865   -1.8327    5.0729 C   0  0  2  0  0  0  0  0  0  0  0  0
    5.1896    1.5976    5.8444 C   0  0  0  0  0  0  0  0  0  0  0  0
    7.7678   -2.3271    4.1875 C   0  0  0  0  0  0  0  0  0  0  0  0
    3.2085    1.8342    9.3124 C   0  0  0  0  0  0  0  0  0  0  0  0
    6.6844   -3.8868    6.2754 C   0  0  0  0  0  0  0  0  0  0  0  0
    5.6207   -3.1723    4.1809 C   0  0  0  0  0  0  0  0  0  0  0  0
   10.1065   -2.7714    4.5912 C   0  0  0  0  0  0  0  0  0  0  0  0
    7.5631   -2.4675    2.7546 C   0  0  0  0  0  0  0  0  0  0  0  0
    5.2191   -2.1730    3.3569 C   0  0  0  0  0  0  0  0  0  0  0  0
    3.3176    1.0765   10.5799 C   0  0  0  0  0  0  0  0  0  0  0  0
    6.0058   -2.4284    2.1842 C   0  0  0  0  0  0  0  0  0  0  0  0
  4 20  2  0
  5 27  2  0
  6  7  1  0
  6 10  1  0
  6 11  1  0
  6 18  1  6
  7  8  1  0
  7 13  1  6
  8  9  1  0
  8 16  1  1
  9 12  1  0
  9 14  1  0
  9  1  1  1
 10 15  1  0
 10 20  1  0
 10  2  1  6
 11 12  1  0
 12  3  1  1
 13 15  1  0
 14 19  1  0
 14 22  1  0
 14 21  1  1
 16 17  1  0
 17 19  1  0
 17 23  1  1
 19 24  2  0
 20 26  1  0
 22 25  2  0
 24 27  1  0
 25 27  1  0
M  END
>  <DRUGBANK_ID>  (1) 
DB00324

>  <SECONDARY_ACCESSION_NUMBERS>  (1) 
APRD00980

>  <COMMON_NAME>  (1) 
Fluorometholone

>  <CAS_NUMBER>  (1) 
426-13-1

>  <UNII>  (1) 
SV0CSG527L

>  <SYNONYMS>  (1) 
(1R,2S,8S,10S,11S,14R,15S,17S)-14-acetyl-1-fluoro-14,17-dihydroxy-2,8,15-trimethyltetracyclo[8.7.0.02,7.011,15]heptadeca-3,6-dien-5-one; 9-Fluoro-11beta,17-dihydroxy-6alpha-methylpregna-1,4-diene-3,20-dione; Fluorometholon; Fluorom√©tholone; Fluorometholone; Fluorometholonum; Fluorometolona

$$$$
