
     RDKit          3D

 24 27  0  0  1  0  0  0  0  0999 V2000
    0.9178   -0.0718   -0.0071 C   0  0  0  0  0  0  0  0  0  0  0  0
   -6.6672   -2.4302   -3.5022 C   0  0  0  0  0  0  0  0  0  0  0  0
   -8.8371   -6.0569   -0.4871 C   0  0  0  0  0  0  0  0  0  0  0  0
   -8.6822   -4.9943    0.3965 C   0  0  0  0  0  0  0  0  0  0  0  0
   -7.9835   -6.1764   -1.5825 C   0  0  0  0  0  0  0  0  0  0  0  0
   -7.7004   -4.0305    0.1571 C   0  0  0  0  0  0  0  0  0  0  0  0
   -6.9467   -5.2577   -1.7690 C   0  0  0  0  0  0  0  0  0  0  0  0
   -2.8405    0.0732   -2.9980 C   0  0  0  0  0  0  0  0  0  0  0  0
   -0.2045    1.6281   -1.7480 C   0  0  0  0  0  0  0  0  0  0  0  0
   -4.4383   -3.2360    0.9675 C   0  0  0  0  0  0  0  0  0  0  0  0
    0.3200    0.2250   -1.3469 C   0  0  2  0  0  0  0  0  0  0  0  0
   -6.8308   -4.1391   -0.9365 C   0  0  0  0  0  0  0  0  0  0  0  0
   -4.7710   -2.6826   -0.3854 C   0  0  0  0  0  0  0  0  0  0  0  0
   -2.1695   -0.0891   -1.8350 C   0  0  0  0  0  0  0  0  0  0  0  0
   -4.1906   -0.5380   -3.2796 C   0  0  0  0  0  0  0  0  0  0  0  0
   -4.0323   -1.6846   -1.1037 C   0  0  0  0  0  0  0  0  0  0  0  0
   -5.8208   -3.1004   -1.2074 C   0  0  0  0  0  0  0  0  0  0  0  0
   -4.6673   -1.4914   -2.3129 C   0  0  0  0  0  0  0  0  0  0  0  0
   -2.8396   -0.9343   -0.7271 C   0  0  0  0  0  0  0  0  0  0  0  0
   -5.7562   -2.3433   -2.3726 N   0  0  0  0  0  0  0  0  0  0  0  0
   -1.0757    0.5856   -1.3344 N   0  0  0  0  0  0  0  0  0  0  0  0
   -5.4706   -3.0026    1.9206 O   0  0  0  0  0  0  0  0  0  0  0  0
   -4.8211   -0.1964   -4.2841 O   0  0  0  0  0  0  0  0  0  0  0  0
   -2.4024   -0.9473    0.4240 O   0  0  0  0  0  0  0  0  0  0  0  0
  4  3  2  0
  5  3  1  0
  6  4  1  0
  7  5  2  0
 11  1  1  1
 11  9  1  0
 12  6  2  0
 12  7  1  0
 13 10  1  0
 14  8  2  0
 15  8  1  0
 16 13  1  0
 17 12  1  0
 17 13  2  0
 18 15  1  0
 18 16  2  0
 19 14  1  0
 19 16  1  0
 20  2  1  0
 20 17  1  0
 20 18  1  0
 21  9  1  0
 21 11  1  0
 21 14  1  0
 22 10  1  0
 23 15  2  0
 24 19  2  0
M  END
>  <DRUGBANK_ID>  (1) 
DB07385

>  <COMMON_NAME>  (1) 
3-(HYDROXYMETHYL)-1-METHYL-5-(2-METHYLAZIRIDIN-1-YL)-2-PHENYL-1H-INDOLE-4,7-DIONE

$$$$
