NU1
     RDKit          3D

 13 14  0  0  0  0  0  0  0  0999 V2000
   -1.1654   -1.4251    0.1225 C   0  0  0  0  0  0  0  0  0  0  0  0
   -1.1409   -2.7857    0.2793 O   0  0  0  0  0  0  0  0  0  0  0  0
    0.0404   -0.7121    0.1062 C   0  0  0  0  0  0  0  0  0  0  0  0
    1.2763   -1.3866    0.0384 N   0  0  0  0  0  0  0  0  0  0  0  0
    2.3515   -0.6782   -0.0515 C   0  0  0  0  0  0  0  0  0  0  0  0
    3.6880   -1.3443   -0.1754 C   0  0  0  0  0  0  0  0  0  0  0  0
    2.3613    0.6893   -0.0365 N   0  0  0  0  0  0  0  0  0  0  0  0
    1.2241    1.4380    0.0661 C   0  0  0  0  0  0  0  0  0  0  0  0
    1.2506    2.6688    0.0789 O   0  0  0  0  0  0  0  0  0  0  0  0
   -0.0340    0.6842    0.1127 C   0  0  0  0  0  0  0  0  0  0  0  0
   -1.2546    1.3581    0.0658 C   0  0  0  0  0  0  0  0  0  0  0  0
   -2.4171    0.6262   -0.1408 C   0  0  0  0  0  0  0  0  0  0  0  0
   -2.3862   -0.7658   -0.0443 C   0  0  0  0  0  0  0  0  0  0  0  0
  1  2  1  0
  1  3  2  0
  1 13  1  0
  3  4  1  0
  3 10  1  0
  4  5  2  0
  5  6  1  0
  5  7  1  0
  7  8  1  0
  8  9  2  0
  8 10  1  0
 10 11  2  0
 11 12  1  0
 12 13  2  0
M  END
>  <DRUGBANK_ID>  (1) 
DB02690

>  <SECONDARY_ACCESSION_NUMBERS>  (1) 
EXPT02396

>  <COMMON_NAME>  (1) 
NU1025

>  <CAS_NUMBER>  (1) 
90417-38-2

>  <UNII>  (1) 
X5ZL2C7V9B

$$$$
