CO4
     RDKit          3D

 28 30  0  0  0  0  0  0  0  0999 V2000
    0.9157   -0.0812    0.1138 N   0  0  0  0  0  0  0  0  0  0  0  0
    0.2873    0.5506    1.1605 C   0  0  0  0  0  0  0  0  0  0  0  0
    0.8133    1.6969    1.5582 N   0  0  0  0  0  0  0  0  0  0  0  0
    0.2183    2.3237    2.5832 C   0  0  0  0  0  0  0  0  0  0  0  0
    0.6829    3.6252    2.7417 N   0  0  0  0  0  0  0  0  0  0  0  0
   -0.8454    1.7576    3.3200 C   0  0  0  0  0  0  0  0  0  0  0  0
   -1.5108    2.2842    4.4893 C   0  0  0  0  0  0  0  0  0  0  0  0
   -2.5315    1.5357    5.1070 C   0  0  0  0  0  0  0  0  0  0  0  0
   -2.8582    0.3240    4.5299 C   0  0  0  0  0  0  0  0  0  0  0  0
   -2.2619   -0.1667    3.4160 N   0  0  0  0  0  0  0  0  0  0  0  0
   -1.2820    0.5269    2.8187 C   0  0  0  0  0  0  0  0  0  0  0  0
   -0.7608   -0.0339    1.7232 N   0  0  0  0  0  0  0  0  0  0  0  0
   -3.2540    2.0350    6.3429 C   0  0  0  0  0  0  0  0  0  0  0  0
   -4.6655    2.2634    6.0828 N   0  0  0  0  0  0  0  0  0  0  0  0
   -5.5973    1.6227    6.8757 C   0  0  0  0  0  0  0  0  0  0  0  0
   -5.4652    1.5899    8.2714 C   0  0  0  0  0  0  0  0  0  0  0  0
   -6.3674    0.8905    9.0785 C   0  0  0  0  0  0  0  0  0  0  0  0
   -6.2676    0.8386   10.4391 O   0  0  0  0  0  0  0  0  0  0  0  0
   -5.2250    1.5155   11.1101 C   0  0  0  0  0  0  0  0  0  0  0  0
   -7.4380    0.1947    8.4841 C   0  0  0  0  0  0  0  0  0  0  0  0
   -8.3712   -0.5351    9.1680 O   0  0  0  0  0  0  0  0  0  0  0  0
   -8.3364   -0.6464   10.5756 C   0  0  0  0  0  0  0  0  0  0  0  0
   -7.5897    0.2289    7.0823 C   0  0  0  0  0  0  0  0  0  0  0  0
   -8.5577   -0.3897    6.3232 O   0  0  0  0  0  0  0  0  0  0  0  0
   -9.5447   -1.1534    7.0048 C   0  0  0  0  0  0  0  0  0  0  0  0
   -6.6755    0.9484    6.3034 C   0  0  0  0  0  0  0  0  0  0  0  0
   -5.0786    3.1545    5.0052 C   0  0  0  0  0  0  0  0  0  0  0  0
   -1.1943    3.5971    5.1449 C   0  0  0  0  0  0  0  0  0  0  0  0
  1  2  1  0
  2  3  2  0
  2 12  1  0
  3  4  1  0
  4  5  1  0
  4  6  2  0
  6  7  1  0
  6 11  1  0
  7  8  2  0
  7 28  1  0
  8  9  1  0
  8 13  1  0
  9 10  2  0
 10 11  1  0
 11 12  2  0
 13 14  1  0
 14 15  1  0
 14 27  1  0
 15 16  2  0
 15 26  1  0
 16 17  1  0
 17 18  1  0
 17 20  2  0
 18 19  1  0
 20 21  1  0
 20 23  1  0
 21 22  1  0
 23 24  1  0
 23 26  2  0
 24 25  1  0
M  END
>  <DRUGBANK_ID>  (1) 
DB02104

>  <SECONDARY_ACCESSION_NUMBERS>  (1) 
EXPT00976

>  <COMMON_NAME>  (1) 
2,4-Diamino-5-Methyl-6-[(3,4,5-Trimethoxy-N-Methylanilino)Methyl]Pyrido[2,3-D]Pyrimidine

$$$$
