HXP
     RDKit          3D

 21 23  0  0  0  0  0  0  0  0999 V2000
    2.4576    1.3256    0.0690 C   0  0  0  0  0  0  0  0  0  0  0  0
    3.6700    0.6729    0.0339 C   0  0  0  0  0  0  0  0  0  0  0  0
    3.6526   -0.7147    0.0129 C   0  0  0  0  0  0  0  0  0  0  0  0
    4.8385   -1.3948   -0.0074 O   0  0  0  0  0  0  0  0  0  0  0  0
    2.4442   -1.4489    0.0110 C   0  0  0  0  0  0  0  0  0  0  0  0
    1.2075   -0.7905    0.0249 C   0  0  0  0  0  0  0  0  0  0  0  0
    0.0098   -1.5081   -0.0117 O   0  0  0  0  0  0  0  0  0  0  0  0
   -1.2052   -0.8225    0.0551 C   0  0  0  0  0  0  0  0  0  0  0  0
   -2.4361   -1.5155    0.0177 C   0  0  0  0  0  0  0  0  0  0  0  0
   -3.6656   -0.8143    0.0220 C   0  0  0  0  0  0  0  0  0  0  0  0
   -4.8918   -1.4039   -0.0499 O   0  0  0  0  0  0  0  0  0  0  0  0
   -3.7075    0.5527    0.1207 C   0  0  0  0  0  0  0  0  0  0  0  0
   -2.5121    1.2073    0.2656 C   0  0  0  0  0  0  0  0  0  0  0  0
   -1.2624    0.5595    0.1425 C   0  0  0  0  0  0  0  0  0  0  0  0
   -0.0211    1.3811   -0.0248 C   0  0  0  0  0  0  0  0  0  0  0  0
    1.2435    0.5976    0.0470 C   0  0  0  0  0  0  0  0  0  0  0  0
   -0.0227    2.0771   -1.4063 C   0  0  0  0  0  0  0  0  0  0  0  0
   -1.1621    3.0574   -1.6280 C   0  0  0  0  0  0  0  0  0  0  0  0
   -1.1792    4.1760   -0.6006 C   0  0  0  0  0  0  0  0  0  0  0  0
   -1.2685    5.3704   -0.8618 O   0  0  0  0  0  0  0  0  0  0  0  0
   -1.1423    3.7836    0.6845 O   0  0  0  0  0  0  0  0  0  0  0  0
  1  2  2  0
  1 16  1  0
  2  3  1  0
  3  4  1  0
  3  5  2  0
  5  6  1  0
  6  7  1  0
  6 16  2  0
  7  8  1  0
  8  9  2  0
  8 14  1  0
  9 10  1  0
 10 11  1  0
 10 12  2  0
 12 13  1  0
 13 14  2  0
 14 15  1  0
 15 16  1  0
 15 17  1  0
 17 18  1  0
 18 19  1  0
 19 20  2  0
 19 21  1  0
M  END
>  <DRUGBANK_ID>  (1) 
DB01644

>  <SECONDARY_ACCESSION_NUMBERS>  (1) 
EXPT01800

>  <COMMON_NAME>  (1) 
3,6-dihydroxy-xanthene-9-propionic acid

$$$$
