
     RDKit          3D

 30 31  0  0  0  0  0  0  0  0999 V2000
    1.0833    0.0056   -0.1953 C   0  0  0  0  0  0  0  0  0  0  0  0
   -4.0344   -3.6198    9.3907 C   0  0  0  0  0  0  0  0  0  0  0  0
    4.8204    2.9199    6.5309 C   0  0  0  0  0  0  0  0  0  0  0  0
    0.6463   -1.3683    0.2860 C   0  0  0  0  0  0  0  0  0  0  0  0
   -3.3343   -4.7970    8.6789 C   0  0  0  0  0  0  0  0  0  0  0  0
    4.1934    2.1250    5.3972 C   0  0  0  0  0  0  0  0  0  0  0  0
    1.1459   -1.6036    1.7108 C   0  0  0  0  0  0  0  0  0  0  0  0
    0.5692   -0.5442    2.6493 C   0  0  0  0  0  0  0  0  0  0  0  0
   -0.9681   -0.5559    2.5503 C   0  0  0  0  0  0  0  0  0  0  0  0
   -1.5233   -1.9506    2.8898 C   0  0  0  0  0  0  0  0  0  0  0  0
   -1.0580   -2.2785    4.2623 C   0  0  0  0  0  0  0  0  0  0  0  0
   -1.5990   -1.1540    5.1036 C   0  0  0  0  0  0  0  0  0  0  0  0
   -3.0701   -1.1349    5.4150 C   0  0  0  0  0  0  0  0  0  0  0  0
   -3.4348   -2.4782    5.9952 C   0  0  0  0  0  0  0  0  0  0  0  0
   -0.8091   -1.6002    7.8047 C   0  0  0  0  0  0  0  0  0  0  0  0
    0.2626   -3.9514    8.6282 C   0  0  0  0  0  0  0  0  0  0  0  0
    3.3126   -1.9639    7.8111 C   0  0  0  0  0  0  0  0  0  0  0  0
    0.5658   -1.7761    7.7030 C   0  0  0  0  0  0  0  0  0  0  0  0
    2.8825   -0.8972    7.1132 C   0  0  0  0  0  0  0  0  0  0  0  0
    1.1340   -2.9283    8.2162 C   0  0  0  0  0  0  0  0  0  0  0  0
   -1.6219   -2.7307    7.7422 C   0  0  0  0  0  0  0  0  0  0  0  0
   -1.1293   -3.8686    8.3657 C   0  0  0  0  0  0  0  0  0  0  0  0
    1.4132   -0.7892    6.9487 C   0  0  0  0  0  0  0  0  0  0  0  0
    3.8784    0.0820    6.5999 C   0  0  0  0  0  0  0  0  0  0  0  0
    2.5286   -3.0018    8.2813 N   0  0  0  0  0  0  0  0  0  0  0  0
    0.9039    0.0393    6.2168 O   0  0  0  0  0  0  0  0  0  0  0  0
    5.0672   -0.0331    6.8102 O   0  0  0  0  0  0  0  0  0  0  0  0
   -1.9082   -4.8857    8.8601 O   0  0  0  0  0  0  0  0  0  0  0  0
    3.3089    1.1031    5.8984 O   0  0  0  0  0  0  0  0  0  0  0  0
   -2.9193   -2.6382    7.3234 O   0  0  0  0  0  0  0  0  0  0  0  0
  4  1  1  0
  5  2  1  0
  6  3  1  0
  7  4  1  0
  8  7  1  0
  9  8  1  0
 10  9  1  0
 11 10  1  0
 12 11  1  0
 13 12  1  0
 14 13  1  0
 18 15  2  0
 19 17  2  0
 20 16  2  0
 20 18  1  0
 21 15  1  0
 22 16  1  0
 22 21  2  0
 23 18  1  0
 23 19  1  0
 24 19  1  0
 25 17  1  0
 25 20  1  0
 26 23  2  0
 27 24  2  0
 28  5  1  0
 28 22  1  0
 29  6  1  0
 29 24  1  0
 30 14  1  0
 30 21  1  0
M  END
>  <DRUGBANK_ID>  (1) 
DB11394

>  <COMMON_NAME>  (1) 
Decoquinate

>  <CAS_NUMBER>  (1) 
18507-89-6

>  <UNII>  (1) 
534I52PVWH

>  <SYNONYMS>  (1) 
Decoquinate; Decoquinato; Decoquinatum

$$$$
