
     RDKit          3D

 12 12  0  0  0  0  0  0  0  0999 V2000
    0.8057    0.0834    0.0499 O   0  0  0  0  0  0  0  0  0  0  0  0
    0.2852   -1.1159   -0.2650 C   0  0  0  0  0  0  0  0  0  0  0  0
    0.9826   -2.0373   -0.6543 O   0  0  0  0  0  0  0  0  0  0  0  0
   -1.1928   -1.1204   -0.2017 C   0  0  0  0  0  0  0  0  0  0  0  0
   -1.8689   -0.0845   -0.8761 C   0  0  0  0  0  0  0  0  0  0  0  0
   -3.2562   -0.1161   -1.0116 C   0  0  0  0  0  0  0  0  0  0  0  0
   -3.9714   -1.1984   -0.5135 C   0  0  0  0  0  0  0  0  0  0  0  0
   -3.3057   -2.2420    0.1385 C   0  0  0  0  0  0  0  0  0  0  0  0
   -1.9165   -2.1883    0.3675 C   0  0  0  0  0  0  0  0  0  0  0  0
   -1.2369   -3.1517    1.2967 C   0  0  0  0  0  0  0  0  0  0  0  0
   -2.0040   -4.1223    1.8392 O   0  0  0  0  0  0  0  0  0  0  0  0
   -0.0752   -3.0320    1.6509 O   0  0  0  0  0  0  0  0  0  0  0  0
  1  2  1  0
  2  3  2  0
  2  4  1  0
  4  5  2  0
  4  9  1  0
  5  6  1  0
  6  7  2  0
  7  8  1  0
  8  9  2  0
  9 10  1  0
 10 11  1  0
 10 12  2  0
M  END
>  <DRUGBANK_ID>  (1) 
DB02746

>  <SECONDARY_ACCESSION_NUMBERS>  (1) 
EXPT02595

>  <COMMON_NAME>  (1) 
Phthalic Acid

>  <CAS_NUMBER>  (1) 
88-99-3

>  <UNII>  (1) 
6O7F7IX66E

$$$$
