
     RDKit          3D

 30 33  0  0  1  0  0  0  0  0999 V2000
    2.3188   -6.5041   10.3851 C   0  0  0  0  0  0  0  0  0  0  0  0
    2.4348   -6.5909    8.8670 C   0  0  0  0  0  0  0  0  0  0  0  0
    2.3329   -5.2597    8.1531 C   0  0  0  0  0  0  0  0  0  0  0  0
    2.8519   -4.1202    8.7986 C   0  0  0  0  0  0  0  0  0  0  0  0
    2.8746   -2.8816    8.1868 C   0  0  0  0  0  0  0  0  0  0  0  0
    2.4370   -2.7449    6.8769 C   0  0  0  0  0  0  0  0  0  0  0  0
    2.0536   -3.8903    6.1795 C   0  0  0  0  0  0  0  0  0  0  0  0
    1.8547   -5.1257    6.8302 C   0  0  0  0  0  0  0  0  0  0  0  0
    1.0586   -6.2021    6.0937 C   0  0  0  0  0  0  0  0  0  0  0  0
   -0.3934   -5.8284    5.7756 C   0  0  0  0  0  0  0  0  0  0  0  0
   -0.7074   -4.7243    4.9605 C   0  0  0  0  0  0  0  0  0  0  0  0
   -2.0283   -4.3425    4.7426 C   0  0  0  0  0  0  0  0  0  0  0  0
   -3.0631   -5.1855    5.1144 C   0  0  0  0  0  0  0  0  0  0  0  0
   -4.3734   -4.9512    4.7721 O   0  0  0  0  0  0  0  0  0  0  0  0
   -4.4960   -3.8077    3.9078 C   0  0  0  0  0  0  0  0  0  0  0  0
   -3.5905   -2.6930    4.4003 C   0  0  0  0  0  0  0  0  0  0  0  0
   -2.2285   -3.0991    4.1850 O   0  0  0  0  0  0  0  0  0  0  0  0
   -2.7852   -6.3093    5.8919 C   0  0  0  0  0  0  0  0  0  0  0  0
   -1.4612   -6.5853    6.2763 C   0  0  0  0  0  0  0  0  0  0  0  0
    2.2480   -1.3665    6.2935 C   0  0  2  0  0  0  0  0  0  0  0  0
    3.5369   -0.7481    6.3077 O   0  0  0  0  0  0  0  0  0  0  0  0
    3.5159    0.5959    5.8188 C   0  0  2  0  0  0  0  0  0  0  0  0
    4.9555    1.1200    5.8450 C   0  0  0  0  0  0  0  0  0  0  0  0
    5.7943    0.2819    5.0508 O   0  0  0  0  0  0  0  0  0  0  0  0
    2.6124    1.4751    6.6892 C   0  0  1  0  0  0  0  0  0  0  0  0
    2.5993    2.8158    6.1987 O   0  0  0  0  0  0  0  0  0  0  0  0
    1.1912    0.8965    6.7453 C   0  0  2  0  0  0  0  0  0  0  0  0
    0.3904    1.6539    7.6651 O   0  0  0  0  0  0  0  0  0  0  0  0
    1.2188   -0.5799    7.1527 C   0  0  1  0  0  0  0  0  0  0  0  0
   -0.0994   -1.1383    7.0787 O   0  0  0  0  0  0  0  0  0  0  0  0
  1  2  1  0
  2  3  1  0
  3  4  2  0
  3  8  1  0
  4  5  1  0
  5  6  2  0
  6  7  1  0
  7  8  2  0
  8  9  1  0
  9 10  1  0
 10 11  2  0
 10 19  1  0
 11 12  1  0
 12 13  2  0
 12 17  1  0
 13 14  1  0
 13 18  1  0
 14 15  1  0
 15 16  1  0
 16 17  1  0
 18 19  2  0
 20 21  1  0
 20  6  1  1
 22 21  1  0
 22 23  1  1
 23 24  1  0
 25 22  1  0
 25 26  1  6
 25 27  1  0
 27 28  1  1
 27 29  1  0
 29 20  1  0
 29 30  1  6
M  END
>  <DRUGBANK_ID>  (1) 
DB15048

>  <COMMON_NAME>  (1) 
Licogliflozin

>  <CAS_NUMBER>  (1) 
1291094-73-9

>  <UNII>  (1) 
57J06X6EI0

>  <SYNONYMS>  (1) 
Licogliflozin

$$$$
