1425
     RDKit          3D

 23 25  0  0  1  0  0  0  0  0999 V2000
    1.3145   -0.2054    0.7136 O   0  0  0  0  0  0  0  0  0  0  0  0
    1.4761   -0.8201   -2.6165 O   0  0  0  0  0  0  0  0  0  0  0  0
    4.3193    3.6407    0.4630 N   0  0  0  0  0  0  0  0  0  0  0  0
    3.1838    0.9795    0.4759 N   0  0  0  0  0  0  0  0  0  0  0  0
    6.0172   -3.2751   -0.7595 N   0  0  0  0  0  0  0  0  0  0  0  0
    5.2416   -3.7782   -2.8710 N   0  0  0  0  0  0  0  0  0  0  0  0
    6.1607   -3.9414   -1.9096 N   0  0  0  0  0  0  0  0  0  0  0  0
    5.0686    2.4674   -0.0290 C   0  0  0  0  0  0  0  0  0  0  0  0
    6.5369    2.7911    0.2152 C   0  0  0  0  0  0  0  0  0  0  0  0
    6.5879    4.2753   -0.0934 C   0  0  0  0  0  0  0  0  0  0  0  0
    5.1662    4.7977    0.1315 C   0  0  0  0  0  0  0  0  0  0  0  0
    4.6310    1.1309    0.5385 C   0  0  0  0  0  0  0  0  0  0  0  0
    3.9440    3.6210    1.8868 C   0  0  0  0  0  0  0  0  0  0  0  0
    5.0731    3.4576    2.8523 C   0  0  0  0  0  0  0  0  0  0  0  0
    2.4479   -0.1313    0.2455 C   0  0  0  0  0  0  0  0  0  0  0  0
    3.0274   -1.1550   -0.6390 C   0  0  0  0  0  0  0  0  0  0  0  0
    5.4408    4.3892    3.7304 C   0  0  0  0  0  0  0  0  0  0  0  0
    2.5412   -1.4081   -1.9639 C   0  0  0  0  0  0  0  0  0  0  0  0
    4.1687   -1.7882   -0.0855 C   0  0  0  0  0  0  0  0  0  0  0  0
    4.8598   -2.6282   -0.9574 C   0  0  0  0  0  0  0  0  0  0  0  0
    3.2020   -2.3355   -2.8138 C   0  0  0  0  0  0  0  0  0  0  0  0
    4.3793   -2.9178   -2.3035 C   0  0  0  0  0  0  0  0  0  0  0  0
    0.6453    0.0979   -1.9174 C   0  0  0  0  0  0  0  0  0  0  0  0
  1 15  2  0
  2 18  1  0
  2 23  1  0
  3  8  1  0
  3 11  1  0
  3 13  1  0
  4 12  1  0
  4 15  1  0
  5  7  1  0
  5 20  2  0
  6  7  1  0
  6 22  2  0
  8  9  1  0
  8 12  1  0
  9 10  1  0
 10 11  1  0
 13 14  1  0
 14 17  2  0
 15 16  1  0
 16 18  1  0
 16 19  2  0
 18 21  2  0
 19 20  1  0
 20 22  1  0
 21 22  1  0
M  END
>  <DRUGBANK_ID>  (1) 
DB01425

>  <COMMON_NAME>  (1) 
Alizapride

>  <CAS_NUMBER>  (1) 
59338-93-1

>  <UNII>  (1) 
P55703ZRZY

>  <SYNONYMS>  (1) 
Alizaprida; Alizapride; Alizapridum

$$$$
