495
     RDKit          3D

 19 20  0  0  1  0  0  0  0  0999 V2000
    1.1333   -0.0340   -0.0406 O   0  0  0  0  0  0  0  0  0  0  0  0
    1.3169    3.3661    0.0850 O   0  0  0  0  0  0  0  0  0  0  0  0
   -1.0649   -3.4474    1.0658 O   0  0  0  0  0  0  0  0  0  0  0  0
    0.3446   -2.9936    5.3069 O   0  0  0  0  0  0  0  0  0  0  0  0
    0.4348   -1.7354    1.5071 N   0  0  0  0  0  0  0  0  0  0  0  0
   -2.1492    1.5317   -0.4943 N   0  0  0  0  0  0  0  0  0  0  0  0
   -0.1244   -3.3452    3.1120 N   0  0  0  0  0  0  0  0  0  0  0  0
   -2.1367    1.6104   -1.7403 N   0  0  0  0  0  0  0  0  0  0  0  0
   -2.1242    1.6780   -2.8746 N   0  0  0  0  0  0  0  0  0  0  0  0
   -1.1111    0.7377    0.1869 C   0  0  1  0  0  0  0  0  0  0  0  0
    0.2856   -1.1905    0.1479 C   0  0  1  0  0  0  0  0  0  0  0  0
   -1.1318   -0.7253   -0.1871 C   0  0  0  0  0  0  0  0  0  0  0  0
    0.3171    1.1577   -0.1376 C   0  0  1  0  0  0  0  0  0  0  0  0
    0.8512    2.2344    0.8184 C   0  0  0  0  0  0  0  0  0  0  0  0
    1.2629   -1.1375    2.4377 C   0  0  0  0  0  0  0  0  0  0  0  0
   -0.2931   -2.8781    1.8341 C   0  0  0  0  0  0  0  0  0  0  0  0
    1.2488   -1.4737    3.7322 C   0  0  0  0  0  0  0  0  0  0  0  0
    0.4572   -2.6548    4.1347 C   0  0  0  0  0  0  0  0  0  0  0  0
    1.9461   -0.7043    4.8017 C   0  0  0  0  0  0  0  0  0  0  0  0
  1 11  1  0
  1 13  1  0
  2 14  1  0
  3 16  2  0
  4 18  2  0
  5 15  1  0
  5 16  1  0
  6  8  2  0
  7 16  1  0
  7 18  1  0
  8  9  2  0
 10  6  1  6
 10 12  1  0
 10 13  1  0
 11  5  1  1
 11 12  1  0
 13 14  1  1
 15 17  2  0
 17 18  1  0
 17 19  1  0
M  CHG  2   8   1   9  -1
M  END
>  <DRUGBANK_ID>  (1) 
DB00495

>  <SECONDARY_ACCESSION_NUMBERS>  (1) 
APRD00449

>  <COMMON_NAME>  (1) 
Zidovudine

>  <CAS_NUMBER>  (1) 
30516-87-1

>  <UNII>  (1) 
4B9XT59T7S

>  <SYNONYMS>  (1) 
Azidothymidine; AZT; ZDV; Zidovudina; Zidovudine; Zidovudinum

$$$$
