
     RDKit          3D

 21 22  0  0  0  0  0  0  0  0999 V2000
    1.1010    0.0769   -0.0857 C   0  0  0  0  0  0  0  0  0  0  0  0
    0.5453   -0.9166    0.9387 C   0  0  0  0  0  0  0  0  0  0  0  0
    1.0598   -0.6008    2.3435 C   0  0  0  0  0  0  0  0  0  0  0  0
   -0.9741   -0.9577    0.9377 C   0  0  0  0  0  0  0  0  0  0  0  0
   -1.7274    0.2339    0.9616 C   0  0  0  0  0  0  0  0  0  0  0  0
   -3.1306    0.2251    0.9699 C   0  0  0  0  0  0  0  0  0  0  0  0
   -3.9449    1.8159    0.9946 S   0  0  0  0  0  0  0  0  0  0  0  0
   -5.6897    1.4781    1.0255 C   0  0  0  0  0  0  0  0  0  0  0  0
   -6.2962    0.8208    2.0972 C   0  0  0  0  0  0  0  0  0  0  0  0
   -7.6731    0.5826    2.0975 C   0  0  0  0  0  0  0  0  0  0  0  0
   -8.4551    1.0377    1.0359 C   0  0  0  0  0  0  0  0  0  0  0  0
   -9.8045    0.8240    1.0403 O   0  0  0  0  0  0  0  0  0  0  0  0
   -7.8797    1.7186   -0.0412 C   0  0  0  0  0  0  0  0  0  0  0  0
   -6.4874    1.9329   -0.0289 C   0  0  0  0  0  0  0  0  0  0  0  0
   -8.7180    2.2180   -1.2055 C   0  0  0  0  0  0  0  0  0  0  0  0
   -8.6401    3.7417   -1.3240 C   0  0  0  0  0  0  0  0  0  0  0  0
   -8.2898    1.5401   -2.5090 C   0  0  0  0  0  0  0  0  0  0  0  0
   -3.7795   -1.0092    0.9609 C   0  0  0  0  0  0  0  0  0  0  0  0
   -3.0548   -2.2049    0.9699 C   0  0  0  0  0  0  0  0  0  0  0  0
   -1.6625   -2.1725    0.9536 C   0  0  0  0  0  0  0  0  0  0  0  0
   -0.9539   -3.3405    0.9542 O   0  0  0  0  0  0  0  0  0  0  0  0
  1  2  1  0
  2  3  1  0
  2  4  1  0
  4  5  2  0
  4 20  1  0
  5  6  1  0
  6  7  1  0
  6 18  2  0
  7  8  1  0
  8  9  2  0
  8 14  1  0
  9 10  1  0
 10 11  2  0
 11 12  1  0
 11 13  1  0
 13 14  2  0
 13 15  1  0
 15 16  1  0
 15 17  1  0
 18 19  1  0
 19 20  2  0
 20 21  1  0
M  END
>  <DRUGBANK_ID>  (1) 
DB02881

>  <SECONDARY_ACCESSION_NUMBERS>  (1) 
EXPT00056

>  <COMMON_NAME>  (1) 
4-(4-Hydroxy-3-Isopropylphenylthio)-2-Isopropylphenol

$$$$
