
     RDKit          3D

 39 43  0  0  0  0  0  0  0  0999 V2000
    0.2500    0.0464   -0.4814 C   0  0  0  0  0  0  0  0  0  0  0  0
    2.3060    5.2116   -3.2620 C   0  0  0  0  0  0  0  0  0  0  0  0
    2.7059   -1.6332    0.0325 C   0  0  0  0  0  0  0  0  0  0  0  0
    1.9651   -0.9925   -0.8684 C   0  0  0  0  0  0  0  0  0  0  0  0
    3.9694   -1.5539   -0.4022 C   0  0  0  0  0  0  0  0  0  0  0  0
    2.4984    0.2023   -5.5810 C   0  0  0  0  0  0  0  0  0  0  0  0
    2.0495    1.6683   -5.8972 C   0  0  0  0  0  0  0  0  0  0  0  0
    0.8981   -2.5850   -2.8015 C   0  0  0  0  0  0  0  0  0  0  0  0
    0.3657    1.9418   -4.8244 C   0  0  0  0  0  0  0  0  0  0  0  0
   -0.2757   -1.5122   -2.7832 C   0  0  0  0  0  0  0  0  0  0  0  0
    2.0188    1.3212   -3.8237 C   0  0  0  0  0  0  0  0  0  0  0  0
    3.5201    0.2851   -1.8803 C   0  0  0  0  0  0  0  0  0  0  0  0
    2.3274   -1.8247   -4.5450 C   0  0  0  0  0  0  0  0  0  0  0  0
   -0.1934    4.1416   -2.2208 C   0  0  0  0  0  0  0  0  0  0  0  0
    1.3115    2.1336   -1.7991 C   0  0  0  0  0  0  0  0  0  0  0  0
    5.3838    2.1340   -2.3568 C   0  0  0  0  0  0  0  0  0  0  0  0
    2.2708    0.4888   -1.4379 C   0  0  0  0  0  0  0  0  0  0  0  0
    4.3703   -0.6111   -1.3641 C   0  0  0  0  0  0  0  0  0  0  0  0
    1.4353   -0.8242   -4.3344 C   0  0  0  0  0  0  0  0  0  0  0  0
    1.3717   -2.8048   -4.1742 C   0  0  0  0  0  0  0  0  0  0  0  0
    0.8846    2.2262   -4.3664 C   0  0  0  0  0  0  0  0  0  0  0  0
    0.5790    3.6834   -4.5820 C   0  0  0  0  0  0  0  0  0  0  0  0
   -0.5717    2.4843   -1.2335 C   0  0  0  0  0  0  0  0  0  0  0  0
    4.2949    2.5124   -3.4109 C   0  0  0  0  0  0  0  0  0  0  0  0
   -0.2025    1.1909   -2.8671 C   0  0  0  0  0  0  0  0  0  0  0  0
    5.5946   -0.4589   -2.1290 C   0  0  0  0  0  0  0  0  0  0  0  0
    0.4879   -0.2824   -2.5343 C   0  0  0  0  0  0  0  0  0  0  0  0
    1.4473    4.0419   -3.2841 C   0  0  0  0  0  0  0  0  0  0  0  0
    2.8715    2.7131   -2.9285 C   0  0  0  0  0  0  0  0  0  0  0  0
    1.7895    4.2896    0.0054 N   0  0  0  0  0  0  0  0  0  0  0  0
    0.7821   -3.4278   -5.0397 O   0  0  0  0  0  0  0  0  0  0  0  0
    0.6255    2.2035   -0.0171 O   0  0  0  0  0  0  0  0  0  0  0  0
    4.5391    2.3470   -4.6044 O   0  0  0  0  0  0  0  0  0  0  0  0
    6.0911   -1.5090   -2.5040 O   0  0  0  0  0  0  0  0  0  0  0  0
    3.3667    2.7306   -1.4006 O   0  0  0  0  0  0  0  0  0  0  0  0
    1.8286    3.6366    1.0357 O   0  0  0  0  0  0  0  0  0  0  0  0
    2.0133    5.4788   -0.1733 O   0  0  0  0  0  0  0  0  0  0  0  0
    5.9991    0.8050   -2.5746 O   0  0  0  0  0  0  0  0  0  0  0  0
    1.6566    3.6461   -1.2090 O   0  0  0  0  0  0  0  0  0  0  0  0
  4  3  2  0
  5  3  1  0
  7  6  1  0
 10  8  1  0
 11  9  1  0
 17  4  1  0
 17 12  2  0
 17 15  1  0
 18  5  2  0
 18 12  1  0
 19  6  1  0
 19 13  2  0
 20  8  1  0
 20 13  1  0
 21  7  1  0
 22  9  1  0
 22 21  1  0
 23 14  1  0
 24 16  1  0
 25 21  1  0
 25 23  1  0
 26 18  1  0
 27  1  1  0
 27 10  1  0
 27 19  1  0
 27 25  1  0
 28  2  1  0
 28 14  1  0
 28 22  1  0
 29 11  1  0
 29 24  1  0
 29 28  1  0
 31 20  2  0
 32 23  1  0
 33 24  2  0
 34 26  2  0
 35 29  1  0
 36 30  1  0
 37 30  2  0
 38 16  1  0
 38 26  1  0
 39 15  1  0
 39 30  1  0
M  CHG  2  30   1  36  -1
M  END
>  <DRUGBANK_ID>  (1) 
DB05410

>  <COMMON_NAME>  (1) 
NCX 1022

>  <CAS_NUMBER>  (1) 
571186-50-0

>  <UNII>  (1) 
XY2WH7X5M5

$$$$
