
     RDKit          3D

 16 17  0  0  1  0  0  0  0  0999 V2000
    1.1500   -0.8341   -0.3569 C   0  0  2  0  0  0  0  0  0  0  0  0
    2.3705   -1.6285   -0.2189 N   0  0  0  0  0  0  0  0  0  0  0  0
    1.3885    0.5627   -0.1865 O   0  0  0  0  0  0  0  0  0  0  0  0
   -0.0143   -1.2365    0.5329 C   0  0  0  0  0  0  0  0  0  0  0  0
    3.0910   -1.6846    0.9760 C   0  0  0  0  0  0  0  0  0  0  0  0
    2.6814   -2.4620   -1.2756 C   0  0  0  0  0  0  0  0  0  0  0  0
    0.2189    1.1395    0.4431 C   0  0  1  0  0  0  0  0  0  0  0  0
   -0.8369    0.0312    0.5408 C   0  0  1  0  0  0  0  0  0  0  0  0
    4.1487   -2.5758    0.9758 N   0  0  0  0  0  0  0  0  0  0  0  0
    2.8244   -1.0462    1.9908 O   0  0  0  0  0  0  0  0  0  0  0  0
    3.5641   -3.4535   -1.1717 C   0  0  0  0  0  0  0  0  0  0  0  0
    0.6258    1.6666    1.8223 C   0  0  0  0  0  0  0  0  0  0  0  0
   -1.7133    0.0303   -0.5924 O   0  0  0  0  0  0  0  0  0  0  0  0
    4.3265   -3.5824    0.0722 C   0  0  0  0  0  0  0  0  0  0  0  0
    0.0199    2.9378    2.0527 O   0  0  0  0  0  0  0  0  0  0  0  0
    5.0716   -4.5420    0.2542 O   0  0  0  0  0  0  0  0  0  0  0  0
  1  3  1  0
  1  4  1  0
  1  2  1  1
  2  5  1  0
  2  6  1  0
  3  7  1  0
  4  8  1  0
  5  9  1  0
  5 10  2  0
  6 11  2  0
  7  8  1  0
  7 12  1  1
  8 13  1  6
  9 14  1  0
 11 14  1  0
 12 15  1  0
 14 16  2  0
M  END
>  <DRUGBANK_ID>  (1) 
DB02256

>  <SECONDARY_ACCESSION_NUMBERS>  (1) 
EXPT01300

>  <COMMON_NAME>  (1) 
2'-Deoxyuridine

>  <CAS_NUMBER>  (1) 
951-78-0

>  <UNII>  (1) 
W78I7AY22C

$$$$
