BNI
     RDKit          3D

 25 27  0  0  0  0  0  0  0  0999 V2000
   -5.2979    2.3444    0.6985 C   0  0  0  0  0  0  0  0  0  0  0  0
   -3.9928    1.7284    0.2034 C   0  0  0  0  0  0  0  0  0  0  0  0
   -3.3412    0.8627    1.2655 C   0  0  0  0  0  0  0  0  0  0  0  0
   -4.1995   -0.3493    1.6058 C   0  0  0  0  0  0  0  0  0  0  0  0
   -4.5916   -1.1258    0.3409 C   0  0  0  0  0  0  0  0  0  0  0  0
   -3.3371   -1.7749   -0.2269 C   0  0  1  0  0  0  0  0  0  0  0  0
   -1.9723   -3.3533   -1.7264 C   0  0  0  0  0  0  0  0  0  0  0  0
   -2.9306   -3.0143    0.5763 C   0  0  2  0  0  0  0  0  0  0  0  0
   -2.1257   -3.9649   -0.3303 C   0  0  1  0  0  0  0  0  0  0  0  0
   -4.0892   -5.0329    0.3760 C   0  0  0  0  0  0  0  0  0  0  0  0
   -6.2676    1.6641    1.0335 O   0  0  0  0  0  0  0  0  0  0  0  0
   -4.9944   -5.8491    0.4590 O   0  0  0  0  0  0  0  0  0  0  0  0
   -2.9243   -5.1747   -0.3346 N   0  0  0  0  0  0  0  0  0  0  0  0
   -4.0585   -3.8197    1.0030 N   0  0  0  0  0  0  0  0  0  0  0  0
   -3.4210   -2.2919   -1.9496 S   0  0  0  0  0  0  0  0  0  0  0  0
   -5.3530    3.6966    0.8669 N   0  0  0  0  0  0  0  0  0  0  0  0
   -4.4645    4.6410    0.3539 C   0  0  0  0  0  0  0  0  0  0  0  0
   -3.8996    4.4750   -0.9169 C   0  0  0  0  0  0  0  0  0  0  0  0
   -2.9545    5.3687   -1.3973 C   0  0  0  0  0  0  0  0  0  0  0  0
   -2.6376    6.4886   -0.6292 C   0  0  0  0  0  0  0  0  0  0  0  0
   -3.2727    6.7181    0.6023 C   0  0  0  0  0  0  0  0  0  0  0  0
   -4.1631    5.7688    1.1115 C   0  0  0  0  0  0  0  0  0  0  0  0
   -1.5991    7.4055   -1.1052 N   0  0  0  0  0  0  0  0  0  0  0  0
   -1.3364    8.3904   -0.4025 O   0  0  0  0  0  0  0  0  0  0  0  0
   -1.0312    7.1268   -2.1712 O   0  0  0  0  0  0  0  0  0  0  0  0
  1  2  1  0
  1 11  2  0
  1 16  1  0
  2  3  1  0
  3  4  1  0
  4  5  1  0
  6  8  1  0
  6 15  1  0
  6  5  1  1
  9  7  1  6
  7 15  1  0
  8  9  1  0
  8 14  1  6
  9 13  1  0
 10 12  2  0
 10 13  1  0
 10 14  1  0
 16 17  1  0
 17 18  2  0
 17 22  1  0
 18 19  1  0
 19 20  2  0
 20 21  1  0
 20 23  1  0
 21 22  2  0
 23 24  2  0
 23 25  1  0
M  CHG  2  23   1  25  -1
M  END
>  <DRUGBANK_ID>  (1) 
DB03549

>  <SECONDARY_ACCESSION_NUMBERS>  (1) 
EXPT00731

>  <COMMON_NAME>  (1) 
Biotinyl P-Nitroaniline

$$$$
