
     RDKit          3D

 27 29  0  0  1  0  0  0  0  0999 V2000
    1.4680   -7.9933    1.2332 O   0  0  0  0  0  0  0  0  0  0  0  0
    2.1062   -8.7314    5.9462 O   0  0  0  0  0  0  0  0  0  0  0  0
    2.6735   -9.4737    3.2377 O   0  0  0  0  0  0  0  0  0  0  0  0
    0.1562   -4.5742    4.3691 N   0  0  0  0  0  0  0  0  0  0  0  0
   -2.6578   -7.3069    5.3773 N   0  0  0  0  0  0  0  0  0  0  0  0
   -2.8535   -6.1176    7.5129 N   0  0  0  0  0  0  0  0  0  0  0  0
   -3.0687   -3.8680    7.5380 N   0  0  0  0  0  0  0  0  0  0  0  0
   -1.6497   -8.0809    7.3804 N   0  0  0  0  0  0  0  0  0  0  0  0
   -2.0751   -3.7062    3.3019 C   0  0  1  0  0  0  0  0  0  0  0  0
   -2.7096   -4.8673    2.5187 C   0  0  0  0  0  0  0  0  0  0  0  0
   -2.7826   -3.6268    4.6545 C   0  0  0  0  0  0  0  0  0  0  0  0
   -2.4362   -6.2036    3.1918 C   0  0  0  0  0  0  0  0  0  0  0  0
   -0.5120   -3.7306    3.3524 C   0  0  0  0  0  0  0  0  0  0  0  0
   -2.8707   -4.9648    5.3256 C   0  0  0  0  0  0  0  0  0  0  0  0
   -2.6800   -6.1396    4.6805 C   0  0  0  0  0  0  0  0  0  0  0  0
   -2.9498   -5.0312    6.8198 C   0  0  0  0  0  0  0  0  0  0  0  0
   -2.7533   -7.3810    6.7935 C   0  0  2  0  0  0  0  0  0  0  0  0
    0.7993   -5.7835    4.0748 C   0  0  0  0  0  0  0  0  0  0  0  0
    0.0283   -4.2246    5.7900 C   0  0  0  0  0  0  0  0  0  0  0  0
    1.1853   -6.6533    5.1146 C   0  0  0  0  0  0  0  0  0  0  0  0
    1.0319   -6.2584    2.7761 C   0  0  0  0  0  0  0  0  0  0  0  0
    1.5060   -7.5621    2.5441 C   0  0  0  0  0  0  0  0  0  0  0  0
    1.7684   -7.9046    4.9119 C   0  0  0  0  0  0  0  0  0  0  0  0
    1.9832   -8.3475    3.6044 C   0  0  0  0  0  0  0  0  0  0  0  0
    0.8477   -9.2797    1.0828 C   0  0  0  0  0  0  0  0  0  0  0  0
    1.8922   -8.3238    7.2840 C   0  0  0  0  0  0  0  0  0  0  0  0
    3.2393  -10.2815    4.2544 C   0  0  0  0  0  0  0  0  0  0  0  0
  1 22  1  0
  1 25  1  0
  2 23  1  0
  2 26  1  0
  3 24  1  0
  3 27  1  0
  4 13  1  0
  4 18  1  0
  4 19  1  0
  5 15  1  0
  5 17  1  0
  6 16  2  0
  6 17  1  0
  7 16  1  0
  9 10  1  0
  9 11  1  0
  9 13  1  1
 10 12  1  0
 11 14  1  0
 12 15  1  0
 14 15  2  0
 14 16  1  0
 17  8  1  1
 18 20  2  0
 18 21  1  0
 20 23  1  0
 21 22  2  0
 22 24  1  0
 23 24  2  0
M  END
>  <DRUGBANK_ID>  (1) 
DB08642

>  <COMMON_NAME>  (1) 
(2R,6S)-6-{[methyl(3,4,5-trimethoxyphenyl)amino]methyl}-1,2,5,6,7,8-hexahydroquinazoline-2,4-diamine

$$$$
