
     RDKit          3D

 27 31  0  0  0  0  0  0  0  0999 V2000
    3.1081    0.1379   -1.3698 O   0  0  0  0  0  0  0  0  0  0  0  0
    4.7466   -0.2680   -2.8548 O   0  0  0  0  0  0  0  0  0  0  0  0
    4.9283   -1.5057   -0.9095 N   0  0  0  0  0  0  0  0  0  0  0  0
    3.3344   -0.9913    1.7463 N   0  0  0  0  0  0  0  0  0  0  0  0
    6.4639   -1.4606   -0.9069 C   0  0  2  0  0  0  0  0  0  0  0  0
    7.0318   -2.8430   -0.6110 C   0  0  0  0  0  0  0  0  0  0  0  0
    6.4197   -3.6737    0.3538 C   0  0  0  0  0  0  0  0  0  0  0  0
    7.1425   -0.4172    0.0859 C   0  0  0  0  0  0  0  0  0  0  0  0
    4.2518   -0.5790   -1.7505 C   0  0  0  0  0  0  0  0  0  0  0  0
    2.3092    0.2739   -0.0998 C   0  0  2  0  0  0  0  0  0  0  0  0
    4.3596   -2.8142   -0.3572 C   0  0  0  0  0  0  0  0  0  0  0  0
    2.7700    1.3751    0.8741 C   0  0  0  0  0  0  0  0  0  0  0  0
    5.0995   -3.2920    0.8785 C   0  0  0  0  0  0  0  0  0  0  0  0
    8.1637   -3.3048   -1.2531 C   0  0  0  0  0  0  0  0  0  0  0  0
    2.3869   -1.0246    0.6144 C   0  0  0  0  0  0  0  0  0  0  0  0
    6.9420   -4.8886    0.7439 C   0  0  0  0  0  0  0  0  0  0  0  0
    7.2205   -0.5828    1.5023 C   0  0  0  0  0  0  0  0  0  0  0  0
    7.5882    0.8124   -0.4032 C   0  0  0  0  0  0  0  0  0  0  0  0
    2.2502    1.0544    2.3414 C   0  0  0  0  0  0  0  0  0  0  0  0
    4.2692    1.2800    0.9339 C   0  0  0  0  0  0  0  0  0  0  0  0
    2.6714   -0.3468    2.8571 C   0  0  0  0  0  0  0  0  0  0  0  0
    4.4831   -0.0880    1.5473 C   0  0  0  0  0  0  0  0  0  0  0  0
    8.6689   -4.5547   -0.9013 C   0  0  0  0  0  0  0  0  0  0  0  0
    8.0734   -5.3323    0.1010 C   0  0  0  0  0  0  0  0  0  0  0  0
    7.4069    0.5128    2.3678 C   0  0  0  0  0  0  0  0  0  0  0  0
    7.9871    1.8387    0.4723 C   0  0  0  0  0  0  0  0  0  0  0  0
    7.7886    1.7320    1.8469 C   0  0  0  0  0  0  0  0  0  0  0  0
  1  9  1  0
  2  9  2  0
  3  5  1  0
  3  9  1  0
  3 11  1  0
  4 15  1  0
  4 21  1  0
  4 22  1  0
  5  6  1  0
  5  8  1  1
  6  7  2  0
  6 14  1  0
  7 13  1  0
  7 16  1  0
  8 17  2  0
  8 18  1  0
 10 12  1  0
 10 15  1  0
 10  1  1  6
 11 13  1  0
 12 19  1  0
 12 20  1  0
 14 23  2  0
 16 24  2  0
 17 25  1  0
 18 26  2  0
 19 21  1  0
 20 22  1  0
 23 24  1  0
 25 27  2  0
 26 27  1  0
M  END
>  <DRUGBANK_ID>  (1) 
DB01591

>  <SECONDARY_ACCESSION_NUMBERS>  (1) 
APRD00168

>  <COMMON_NAME>  (1) 
Solifenacin

>  <CAS_NUMBER>  (1) 
242478-37-1

>  <UNII>  (1) 
A8910SQJ1U

>  <SYNONYMS>  (1) 
Solifenacin; Solifenacina

$$$$
