
     RDKit          3D

 12 12  0  0  0  0  0  0  0  0999 V2000
    0.9386   -0.1212   -0.1918 S   0  0  0  0  0  0  0  0  0  0  0  0
    4.6388    0.8212    3.5411 N   0  0  0  0  0  0  0  0  0  0  0  0
    3.3486   -0.2778   -1.2091 N   0  0  0  0  0  0  0  0  0  0  0  0
    3.3542    0.1876    1.1748 C   0  0  0  0  0  0  0  0  0  0  0  0
    3.6563   -0.1075    3.5302 C   0  0  0  0  0  0  0  0  0  0  0  0
    2.9724   -0.4351    2.3689 C   0  0  0  0  0  0  0  0  0  0  0  0
    2.6045   -0.0760   -0.0759 C   0  0  0  0  0  0  0  0  0  0  0  0
    4.4192    1.0848    1.1670 C   0  0  0  0  0  0  0  0  0  0  0  0
    5.0222    1.3729    2.3724 C   0  0  0  0  0  0  0  0  0  0  0  0
    3.3425   -0.7925    4.8389 C   0  0  0  0  0  0  0  0  0  0  0  0
    4.5181   -1.6176    5.3823 C   0  0  0  0  0  0  0  0  0  0  0  0
    5.7414   -0.7828    5.7440 C   0  0  0  0  0  0  0  0  0  0  0  0
  1  7  2  0
  2  5  2  0
  2  9  1  0
  3  7  1  0
  4  6  2  0
  4  7  1  0
  4  8  1  0
  5  6  1  0
  5 10  1  0
  8  9  2  0
 10 11  1  0
 11 12  1  0
M  END
>  <DRUGBANK_ID>  (1) 
DB12667

>  <COMMON_NAME>  (1) 
Protionamide

>  <CAS_NUMBER>  (1) 
14222-60-7

>  <UNII>  (1) 
76YOO33643

>  <SYNONYMS>  (1) 
Prothionamide; Protionamida; Protionamide; Protionamidum

$$$$
