
     RDKit          3D

 14 15  0  0  0  0  0  0  0  0999 V2000
    1.3657   -0.3962    0.3446 C   0  0  0  0  0  0  0  0  0  0  0  0
    0.7581   -1.6006   -0.0749 O   0  0  0  0  0  0  0  0  0  0  0  0
    0.9815   -1.8932   -1.4606 C   0  0  0  0  0  0  0  0  0  0  0  0
    0.3430   -0.9303   -2.5416 C   0  0  0  0  0  0  0  0  0  0  0  0
    1.1306    0.3990   -2.6275 C   0  0  0  0  0  0  0  0  0  0  0  0
    2.3246    0.4566   -2.8841 O   0  0  0  0  0  0  0  0  0  0  0  0
    0.2727    1.6564   -2.4084 C   0  0  0  0  0  0  0  0  0  0  0  0
   -0.5590    1.5781   -1.1149 C   0  0  0  0  0  0  0  0  0  0  0  0
   -1.3327    0.2374   -1.0937 C   0  0  0  0  0  0  0  0  0  0  0  0
   -1.1179   -0.5435   -2.3446 N   0  0  0  0  0  0  0  0  0  0  0  0
   -1.5781    0.3430   -3.4510 C   0  0  0  0  0  0  0  0  0  0  0  0
   -0.7415    1.6376   -3.5458 C   0  0  0  0  0  0  0  0  0  0  0  0
    0.5633   -1.6568   -3.9174 C   0  0  0  0  0  0  0  0  0  0  0  0
    1.9227   -2.0349   -4.1552 O   0  0  0  0  0  0  0  0  0  0  0  0
  1  2  1  0
  2  3  1  0
  3  4  1  0
  4  5  1  0
  4 10  1  0
  4 13  1  0
  5  6  2  0
  5  7  1  0
  7  8  1  0
  7 12  1  0
  8  9  1  0
  9 10  1  0
 10 11  1  0
 11 12  1  0
 13 14  1  0
M  END
>  <DRUGBANK_ID>  (1) 
DB11684

>  <COMMON_NAME>  (1) 
Eprenetapopt

>  <CAS_NUMBER>  (1) 
5291-32-7

>  <UNII>  (1) 
Z41TGB4080

>  <SYNONYMS>  (1) 
1-Azabicyclo(2.2.2)octan-3-one, 2-(hydroxymethyl)-2-(methoxymethyl)-; 2-(hydroxymethyl)-2-(methoxymethyl)-1-azabicyclo[2.2.2]octan-3-one; 2-hydroxymethyl-2-methoxymethyl-1-azabicyclo[2,2,2]octan-3-one; 3-QUINUCLIDINONE, 2-(HYDROXYMETHYL)-2-(METHOXYMETHYL)-

$$$$
