FPH
     RDKit          3D

 23 26  0  0  0  0  0  0  0  0999 V2000
    0.8595    0.0524    0.0894 O   0  0  0  0  0  0  0  0  0  0  0  0
    0.2442    1.0368   -0.6830 N   0  0  0  0  0  0  0  0  0  0  0  0
   -0.8862    1.7015   -0.2898 C   0  0  0  0  0  0  0  0  0  0  0  0
   -1.6568    1.6488    0.8736 C   0  0  0  0  0  0  0  0  0  0  0  0
   -2.7849    2.4647    0.8974 C   0  0  0  0  0  0  0  0  0  0  0  0
   -3.0717    3.2612   -0.2024 C   0  0  0  0  0  0  0  0  0  0  0  0
   -2.3327    3.3355   -1.3275 N   0  0  0  0  0  0  0  0  0  0  0  0
   -1.2357    2.5399   -1.3466 C   0  0  0  0  0  0  0  0  0  0  0  0
   -0.2693    2.3716   -2.3747 C   0  0  0  0  0  0  0  0  0  0  0  0
   -0.2432    2.9958   -3.6917 C   0  0  0  0  0  0  0  0  0  0  0  0
   -0.1065    4.3824   -3.8084 C   0  0  0  0  0  0  0  0  0  0  0  0
   -0.1027    4.9801   -5.0744 C   0  0  0  0  0  0  0  0  0  0  0  0
   -0.3500    4.1986   -6.1951 C   0  0  0  0  0  0  0  0  0  0  0  0
   -0.4065    4.7808   -7.4047 F   0  0  0  0  0  0  0  0  0  0  0  0
   -0.5350    2.8292   -6.0918 C   0  0  0  0  0  0  0  0  0  0  0  0
   -0.4040    2.2128   -4.8433 C   0  0  0  0  0  0  0  0  0  0  0  0
    0.6634    1.4429   -1.9284 C   0  0  0  0  0  0  0  0  0  0  0  0
    1.8570    0.9507   -2.6096 C   0  0  0  0  0  0  0  0  0  0  0  0
    2.8447    1.8585   -2.9943 C   0  0  0  0  0  0  0  0  0  0  0  0
    3.8854    1.3971   -3.7780 C   0  0  0  0  0  0  0  0  0  0  0  0
    3.9455    0.1424   -4.2658 N   0  0  0  0  0  0  0  0  0  0  0  0
    2.9624   -0.7074   -3.8960 C   0  0  0  0  0  0  0  0  0  0  0  0
    1.9511   -0.3768   -3.0108 C   0  0  0  0  0  0  0  0  0  0  0  0
  1  2  1  0
  2  3  1  0
  2 17  1  0
  3  4  2  0
  3  8  1  0
  4  5  1  0
  5  6  2  0
  6  7  1  0
  7  8  2  0
  8  9  1  0
  9 10  1  0
  9 17  2  0
 10 11  2  0
 10 16  1  0
 11 12  1  0
 12 13  2  0
 13 14  1  0
 13 15  1  0
 15 16  2  0
 17 18  1  0
 18 19  2  0
 18 23  1  0
 19 20  1  0
 20 21  2  0
 21 22  1  0
 22 23  2  0
M  END
>  <DRUGBANK_ID>  (1) 
DB02195

>  <SECONDARY_ACCESSION_NUMBERS>  (1) 
EXPT01476

>  <COMMON_NAME>  (1) 
3-(4-Fluorophenyl)-1-Hydroxy-2-(Pyridin-4-Yl)-1h-Pyrrolo[3,2-B]Pyridine

$$$$
