
     RDKit          3D

 20 23  0  0  0  0  0  0  0  0999 V2000
    1.5249   -0.4075    0.0107 C   0  0  0  0  0  0  0  0  0  0  0  0
    0.5977   -1.4489    0.0259 C   0  0  0  0  0  0  0  0  0  0  0  0
   -0.7875   -1.2017    0.0053 C   0  0  0  0  0  0  0  0  0  0  0  0
   -1.2931    0.1005   -0.0123 C   0  0  0  0  0  0  0  0  0  0  0  0
   -0.2941    1.1069    0.0943 C   0  0  0  0  0  0  0  0  0  0  0  0
    1.0736    0.8878    0.0363 C   0  0  0  0  0  0  0  0  0  0  0  0
   -2.8175    0.4831   -0.2801 C   0  0  0  0  0  0  0  0  0  0  0  0
   -3.9128    0.0070    0.6617 C   0  0  0  0  0  0  0  0  0  0  0  0
   -3.7767   -0.6614   -0.6801 C   0  0  0  0  0  0  0  0  0  0  0  0
   -4.8538   -0.6640   -1.6897 C   0  0  0  0  0  0  0  0  0  0  0  0
   -6.0949   -0.9080   -1.3841 N   0  0  0  0  0  0  0  0  0  0  0  0
   -6.7419   -1.1657   -2.7206 C   0  0  0  0  0  0  0  0  0  0  0  0
   -5.7556   -0.6663   -3.7852 C   0  0  0  0  0  0  0  0  0  0  0  0
   -4.5423   -0.6104   -3.0163 N   0  0  0  0  0  0  0  0  0  0  0  0
   -2.9180    1.9487   -0.7741 C   0  0  0  0  0  0  0  0  0  0  0  0
   -2.6245    2.9888    0.1481 C   0  0  0  0  0  0  0  0  0  0  0  0
   -2.0035    4.1743   -0.2718 C   0  0  0  0  0  0  0  0  0  0  0  0
   -1.8166    4.4148   -1.6276 C   0  0  0  0  0  0  0  0  0  0  0  0
   -2.2398    3.4690   -2.5586 C   0  0  0  0  0  0  0  0  0  0  0  0
   -2.7953    2.2547   -2.1374 C   0  0  0  0  0  0  0  0  0  0  0  0
  1  2  2  0
  1  6  1  0
  2  3  1  0
  3  4  2  0
  4  5  1  0
  4  7  1  0
  5  6  2  0
  7  8  1  0
  7  9  1  0
  7 15  1  0
  8  9  1  0
  9 10  1  0
 10 11  2  0
 10 14  1  0
 11 12  1  0
 12 13  1  0
 13 14  1  0
 15 16  2  0
 15 20  1  0
 16 17  1  0
 17 18  2  0
 18 19  1  0
 19 20  2  0
M  END
>  <DRUGBANK_ID>  (1) 
DB13358

>  <COMMON_NAME>  (1) 
Cibenzoline

>  <CAS_NUMBER>  (1) 
53267-01-9

>  <UNII>  (1) 
Z7489237QT

>  <SYNONYMS>  (1) 
Cibenzoline; Cifenline

$$$$
