
     RDKit          3D

 12 13  0  0  0  0  0  0  0  0999 V2000
   -1.8090    1.3771    0.1839 S   0  0  0  0  0  0  0  0  0  0  0  0
    2.1300    0.6552    0.2893 O   0  0  0  0  0  0  0  0  0  0  0  0
    0.1190    1.5745   -2.4738 N   0  0  0  0  0  0  0  0  0  0  0  0
    0.9979    1.4880   -0.0802 C   0  0  2  0  0  0  0  0  0  0  0  0
   -0.2579    0.6717    0.1134 C   0  0  0  0  0  0  0  0  0  0  0  0
   -0.3011   -0.7107    0.1294 C   0  0  0  0  0  0  0  0  0  0  0  0
    0.9667   -1.5019    0.1182 C   0  0  0  0  0  0  0  0  0  0  0  0
    2.1334   -0.6267   -0.3623 C   0  0  0  0  0  0  0  0  0  0  0  0
    1.1695    2.0169   -1.5458 C   0  0  0  0  0  0  0  0  0  0  0  0
   -1.6431   -1.1884    0.1185 C   0  0  0  0  0  0  0  0  0  0  0  0
   -2.5570   -0.1598    0.0896 C   0  0  0  0  0  0  0  0  0  0  0  0
    0.2919    2.0387   -3.8273 C   0  0  0  0  0  0  0  0  0  0  0  0
  1  5  1  0
  1 11  1  0
  2  4  1  0
  2  8  1  0
  3  9  1  0
  3 12  1  0
  4  5  1  0
  4  9  1  6
  5  6  2  0
  6  7  1  0
  6 10  1  0
  7  8  1  0
 10 11  2  0
M  END
>  <DRUGBANK_ID>  (1) 
DB15665

>  <COMMON_NAME>  (1) 
SEP-363856

>  <CAS_NUMBER>  (1) 
1310426-33-5

>  <UNII>  (1) 
3K6270MG59

$$$$
