645
     RDKit          3D

 21 22  0  0  0  0  0  0  0  0999 V2000
    1.0768   -0.0099   -0.0017 O   0  0  0  0  0  0  0  0  0  0  0  0
    5.4385    1.7770    4.3957 O   0  0  0  0  0  0  0  0  0  0  0  0
    5.1319    0.9395   -1.2335 N   0  0  0  0  0  0  0  0  0  0  0  0
    6.3526    0.1680   -1.0695 C   0  0  0  0  0  0  0  0  0  0  0  0
    5.3258    2.3747   -1.4983 C   0  0  0  0  0  0  0  0  0  0  0  0
    7.2593    0.7525    0.0195 C   0  0  0  0  0  0  0  0  0  0  0  0
    6.1937    3.0690   -0.4286 C   0  0  0  0  0  0  0  0  0  0  0  0
    7.4592    2.2691   -0.1265 C   0  0  0  0  0  0  0  0  0  0  0  0
    4.0250    0.3029   -1.9467 C   0  0  0  0  0  0  0  0  0  0  0  0
    3.1562   -0.6393   -1.0926 C   0  0  0  0  0  0  0  0  0  0  0  0
    2.3262    0.0350    0.0004 C   0  0  0  0  0  0  0  0  0  0  0  0
    3.0227    0.5462    1.2022 C   0  0  0  0  0  0  0  0  0  0  0  0
    2.7976    0.0212    2.4298 C   0  0  0  0  0  0  0  0  0  0  0  0
    4.0459    1.4621    1.1473 C   0  0  0  0  0  0  0  0  0  0  0  0
    3.5269    2.4167    5.9648 C   0  0  0  0  0  0  0  0  0  0  0  0
    4.7650    1.1938    3.3731 C   0  0  0  0  0  0  0  0  0  0  0  0
    3.7728    0.2420    3.4216 C   0  0  0  0  0  0  0  0  0  0  0  0
    4.9926    1.7026    2.1529 C   0  0  0  0  0  0  0  0  0  0  0  0
    4.8796    1.7034    5.7123 C   0  0  0  0  0  0  0  0  0  0  0  0
    2.3042    1.8279    5.2599 C   0  0  0  0  0  0  0  0  0  0  0  0
    2.0332    0.3650    5.6702 C   0  0  0  0  0  0  0  0  0  0  0  0
  1 11  2  0
  2 16  1  0
  2 19  1  0
  3  4  1  0
  3  5  1  0
  3  9  1  0
  4  6  1  0
  5  7  1  0
  6  8  1  0
  7  8  1  0
  9 10  1  0
 10 11  1  0
 11 12  1  0
 12 13  2  0
 12 14  1  0
 13 17  1  0
 14 18  2  0
 15 19  1  0
 15 20  1  0
 16 17  2  0
 16 18  1  0
 20 21  1  0
M  END
>  <DRUGBANK_ID>  (1) 
DB00645

>  <SECONDARY_ACCESSION_NUMBERS>  (1) 
APRD00940

>  <COMMON_NAME>  (1) 
Dyclonine

>  <CAS_NUMBER>  (1) 
586-60-7

>  <UNII>  (1) 
078A24Q30O

>  <SYNONYMS>  (1) 
1-(4-Butoxyphenyl)-3-(1-piperidinyl)-1-propanone; 2-(1-piperidyl)ethyl p-butoxyphenyl ketone; 3-piperidino-4'-butoxypropiophenone; 4-butoxy-β-piperidinopropiophenone; 4-n-butoxy-β-(1-piperidyl)propiophenone; 4'-butoxy-3-piperidinopropiophenone; Diclonina; Dyclocaine; Dyclonin; Dyclonine; Dycloninum

$$$$
