SBN
     RDKit          3D

 20 21  0  0  0  0  0  0  0  0999 V2000
    1.6015   -1.0210   -0.0206 C   0  0  0  0  0  0  0  0  0  0  0  0
    0.2114   -0.9421    0.0015 C   0  0  0  0  0  0  0  0  0  0  0  0
   -0.4086    0.3261   -0.0342 C   0  0  0  0  0  0  0  0  0  0  0  0
    0.3556    1.4972    0.0292 C   0  0  0  0  0  0  0  0  0  0  0  0
    1.7605    1.3971    0.0207 C   0  0  0  0  0  0  0  0  0  0  0  0
    2.3747    0.1396   -0.0213 C   0  0  0  0  0  0  0  0  0  0  0  0
   -0.3473    3.1402    0.1364 S   0  0  0  0  0  0  0  0  0  0  0  0
    0.1024    3.6939    1.4010 O   0  0  0  0  0  0  0  0  0  0  0  0
    0.0127    3.7883   -1.1129 O   0  0  0  0  0  0  0  0  0  0  0  0
   -2.1276    3.1175    0.2267 C   0  0  0  0  0  0  0  0  0  0  0  0
   -2.7612    2.4954    1.3127 C   0  0  0  0  0  0  0  0  0  0  0  0
   -4.1511    2.2937    1.2922 C   0  0  0  0  0  0  0  0  0  0  0  0
   -4.9028    2.8130    0.2252 C   0  0  0  0  0  0  0  0  0  0  0  0
   -4.2734    3.4931   -0.8314 C   0  0  0  0  0  0  0  0  0  0  0  0
   -2.8790    3.6283   -0.8326 C   0  0  0  0  0  0  0  0  0  0  0  0
   -2.9518    0.0395   -0.3291 N   0  0  0  0  0  0  0  0  0  0  0  0
   -1.8262    0.2663   -0.2040 C   0  0  0  0  0  0  0  0  0  0  0  0
   -0.5440   -2.1117   -0.0074 N   0  0  0  0  0  0  0  0  0  0  0  0
   -4.8087    1.4388    2.3405 C   0  0  0  0  0  0  0  0  0  0  0  0
   -5.0736    4.0809   -1.9566 C   0  0  0  0  0  0  0  0  0  0  0  0
  1  2  2  0
  1  6  1  0
  2  3  1  0
  2 18  1  0
  3  4  2  0
  3 17  1  0
  4  5  1  0
  4  7  1  0
  5  6  2  0
  7  8  2  0
  7  9  2  0
  7 10  1  0
 10 11  2  0
 10 15  1  0
 11 12  1  0
 12 13  2  0
 12 19  1  0
 13 14  1  0
 14 15  2  0
 14 20  1  0
 16 17  3  0
M  END
>  <DRUGBANK_ID>  (1) 
DB08528

>  <COMMON_NAME>  (1) 
2-AMINO-6-(3,5-DIMETHYLPHENYL)SULFONYLBENZONITRILE

$$$$
