SOX
     RDKit          3D

 24 26  0  0  0  0  0  0  0  0999 V2000
    0.9408   -0.3120    0.0864 O   0  0  0  0  0  0  0  0  0  0  0  0
    2.1520   -0.1686    0.0809 C   0  0  0  0  0  0  0  0  0  0  0  0
    3.1555   -0.9381   -0.4253 N   0  0  0  0  0  0  0  0  0  0  0  0
    3.1729   -2.3805   -0.1968 C   0  0  1  0  0  0  0  0  0  0  0  0
    4.0329   -3.0289   -1.3059 C   0  0  0  0  0  0  0  0  0  0  0  0
    3.6794   -3.9514   -2.0241 O   0  0  0  0  0  0  0  0  0  0  0  0
    5.3041   -2.5665   -1.3929 O   0  0  0  0  0  0  0  0  0  0  0  0
    3.7642   -2.5527    1.2336 C   0  0  0  0  0  0  0  0  0  0  0  0
    4.2583   -3.9596    1.5052 C   0  0  0  0  0  0  0  0  0  0  0  0
    2.7438   -2.2244    2.3289 C   0  0  0  0  0  0  0  0  0  0  0  0
    5.0816   -1.3407    1.1237 S   0  0  1  0  0  0  0  0  0  0  0  0
    4.2366   -0.1145    0.1637 C   0  0  2  0  0  0  0  0  0  0  0  0
    3.1076    0.8288    0.6889 C   0  0  2  0  0  0  0  0  0  0  0  0
    3.1019    1.1415    2.1599 N   0  0  0  0  0  0  0  0  0  0  0  0
    3.2703    2.3910    2.7186 C   0  0  0  0  0  0  0  0  0  0  0  0
    3.3553    2.4877    3.9423 O   0  0  0  0  0  0  0  0  0  0  0  0
    3.3592    3.5974    1.7880 C   0  0  0  0  0  0  0  0  0  0  0  0
    4.6375    3.6715    0.9670 C   0  0  0  0  0  0  0  0  0  0  0  0
    5.1459    4.8612    0.4739 C   0  0  0  0  0  0  0  0  0  0  0  0
    6.3355    4.8530   -0.2815 C   0  0  0  0  0  0  0  0  0  0  0  0
    6.9755    3.6632   -0.6477 C   0  0  0  0  0  0  0  0  0  0  0  0
    6.4871    2.4786   -0.1696 C   0  0  0  0  0  0  0  0  0  0  0  0
    5.3966    2.5355    0.6794 C   0  0  0  0  0  0  0  0  0  0  0  0
    5.3985   -0.7935    2.6054 O   0  0  0  0  0  0  0  0  0  0  0  0
  1  2  2  0
  2 13  1  0
  3  2  1  0
  3  4  1  0
 12  3  1  6
  4  5  1  6
  4  8  1  0
  5  6  2  0
  5  7  1  0
  8  9  1  0
  8 10  1  0
  8 11  1  0
 11 12  1  0
 11 24  1  1
 12 13  1  0
 13 14  1  1
 14 15  1  0
 15 16  2  0
 15 17  1  0
 17 18  1  0
 18 19  2  0
 18 23  1  0
 19 20  1  0
 20 21  2  0
 21 22  1  0
 22 23  2  0
M  END
>  <DRUGBANK_ID>  (1) 
DB08559

>  <COMMON_NAME>  (1) 
N-[(2S,4S,6R)-2-(dihydroxymethyl)-4-hydroxy-3,3-dimethyl-7-oxo-4lambda~4~-thia-1-azabicyclo[3.2.0]hept-6-yl]-2-phenylacetamide

$$$$
