
     RDKit          3D

 11 11  0  0  0  0  0  0  0  0999 V2000
    1.0709   -0.0584    0.0394 C   0  0  0  0  0  0  0  0  0  0  0  0
   -0.1900   -0.0584    0.0394 N   0  0  0  0  0  0  0  0  0  0  0  0
    2.5909   -0.0584    0.0394 C   0  0  1  0  0  0  0  0  0  0  0  0
    3.1058    1.1544   -0.5259 O   0  0  0  0  0  0  0  0  0  0  0  0
    3.1178   -0.2483    1.4484 C   0  0  0  0  0  0  0  0  0  0  0  0
    3.1850   -1.5352    2.0132 C   0  0  0  0  0  0  0  0  0  0  0  0
    3.4873    0.8521    2.2395 C   0  0  0  0  0  0  0  0  0  0  0  0
    3.6315   -1.7172    3.3262 C   0  0  0  0  0  0  0  0  0  0  0  0
    3.9350    0.6695    3.5474 C   0  0  0  0  0  0  0  0  0  0  0  0
    4.0095   -0.6096    4.0789 C   0  0  0  0  0  0  0  0  0  0  0  0
    4.4623   -0.7340    5.3587 O   0  0  0  0  0  0  0  0  0  0  0  0
  2  1  3  0
  3  1  1  0
  3  4  1  1
  5  3  1  0
  6  5  2  0
  7  5  1  0
  8  6  1  0
  9  7  2  0
 10  8  2  0
 10  9  1  0
 11 10  1  0
M  END
>  <DRUGBANK_ID>  (1) 
DB03430

>  <SECONDARY_ACCESSION_NUMBERS>  (1) 
EXPT01197

>  <COMMON_NAME>  (1) 
(S)-4-hydroxymandelonitrile

>  <CAS_NUMBER>  (1) 
71807-09-5

>  <UNII>  (1) 
9BAR4IH1OD

>  <SYNONYMS>  (1) 
(2S)-Hydroxy(4-hydroxyphenyl)ethanenitrile; 4-Hydroxy-L-mandelonitrile

$$$$
