
     RDKit          3D

 10 10  0  0  0  0  0  0  0  0999 V2000
    0.7830    0.2546   -0.0632 N   0  0  0  0  0  0  0  0  0  0  0  0
    0.2086    1.0681    0.8982 C   0  0  0  0  0  0  0  0  0  0  0  0
    0.6825    2.3131    1.0025 N   0  0  0  0  0  0  0  0  0  0  0  0
    0.0285    3.1011    1.8742 C   0  0  0  0  0  0  0  0  0  0  0  0
    0.4613    4.4025    1.8952 O   0  0  0  0  0  0  0  0  0  0  0  0
   -0.9959    2.7237    2.7162 C   0  0  0  0  0  0  0  0  0  0  0  0
   -1.6389    3.6284    3.5559 N   0  0  0  0  0  0  0  0  0  0  0  0
   -1.3598    1.4084    2.5179 C   0  0  0  0  0  0  0  0  0  0  0  0
   -2.3525    0.8394    3.2738 O   0  0  0  0  0  0  0  0  0  0  0  0
   -0.7988    0.5715    1.6166 N   0  0  0  0  0  0  0  0  0  0  0  0
  1  2  1  0
  2  3  2  0
  2 10  1  0
  3  4  1  0
  4  5  1  0
  4  6  2  0
  6  7  1  0
  6  8  1  0
  8  9  1  0
  8 10  2  0
M  END
>  <DRUGBANK_ID>  (1) 
DB02037

>  <SECONDARY_ACCESSION_NUMBERS>  (1) 
EXPT01148

>  <COMMON_NAME>  (1) 
2,5-Diaminopyrimidin-4,6-diol

>  <CAS_NUMBER>  (1) 
102783-67-5

$$$$
