
     RDKit          3D

 25 28  0  0  0  0  0  0  0  0999 V2000
    3.1819    0.1171    0.0492 O   0  0  0  0  0  0  0  0  0  0  0  0
   11.6207   -4.1143   -0.1532 O   0  0  0  0  0  0  0  0  0  0  0  0
    6.8608   -4.0833   -1.3013 N   0  0  0  0  0  0  0  0  0  0  0  0
    9.3602   -4.5954   -0.0338 N   0  0  0  0  0  0  0  0  0  0  0  0
    1.0825    1.0750   -0.0100 N   0  0  0  0  0  0  0  0  0  0  0  0
    1.1298   -1.2915    0.0045 C   0  0  0  0  0  0  0  0  0  0  0  0
    7.2927   -5.4730   -1.1054 C   0  0  0  0  0  0  0  0  0  0  0  0
    7.9447   -3.0883   -1.4042 C   0  0  0  0  0  0  0  0  0  0  0  0
    1.4523   -2.1519   -1.2151 C   0  0  0  0  0  0  0  0  0  0  0  0
    8.2848   -5.5845    0.0751 C   0  0  0  0  0  0  0  0  0  0  0  0
    8.9019   -3.2149   -0.1967 C   0  0  0  0  0  0  0  0  0  0  0  0
   -0.2790   -0.7470   -0.0098 C   0  0  0  0  0  0  0  0  0  0  0  0
    5.5431   -3.6770   -1.2926 C   0  0  0  0  0  0  0  0  0  0  0  0
    2.8733   -2.6690   -1.2277 C   0  0  0  0  0  0  0  0  0  0  0  0
    1.9636    0.0071    0.0138 C   0  0  0  0  0  0  0  0  0  0  0  0
   -0.2321    0.6462   -0.0133 C   0  0  0  0  0  0  0  0  0  0  0  0
    4.6860   -3.9543   -0.2227 C   0  0  0  0  0  0  0  0  0  0  0  0
    5.0218   -2.9010   -2.3380 C   0  0  0  0  0  0  0  0  0  0  0  0
    3.3732   -3.4553   -0.1841 C   0  0  0  0  0  0  0  0  0  0  0  0
    3.7243   -2.3707   -2.2935 C   0  0  0  0  0  0  0  0  0  0  0  0
   -1.4955   -1.4068    0.0072 C   0  0  0  0  0  0  0  0  0  0  0  0
   -1.3636    1.4309   -0.0134 C   0  0  0  0  0  0  0  0  0  0  0  0
   10.6979   -4.9115   -0.0379 C   0  0  0  0  0  0  0  0  0  0  0  0
   -2.6608   -0.6320    0.0097 C   0  0  0  0  0  0  0  0  0  0  0  0
   -2.5950    0.7741   -0.0039 C   0  0  0  0  0  0  0  0  0  0  0  0
  1 15  2  0
  2 23  2  0
  3  7  1  0
  3  8  1  0
  3 13  1  0
  4 10  1  0
  4 11  1  0
  4 23  1  0
  5 15  1  0
  5 16  1  0
  6  9  1  0
  6 12  1  0
  6 15  1  0
  7 10  1  0
  8 11  1  0
  9 14  1  0
 12 16  2  0
 12 21  1  0
 13 17  2  0
 13 18  1  0
 14 19  2  0
 14 20  1  0
 16 22  1  0
 17 19  1  0
 18 20  2  0
 21 24  2  0
 22 25  2  0
 24 25  1  0
M  END
>  <DRUGBANK_ID>  (1) 
DB02058

>  <SECONDARY_ACCESSION_NUMBERS>  (1) 
EXPT02973

>  <COMMON_NAME>  (1) 
3-[4-(1-formylpiperazin-4-yl)-benzylidenyl]-2-indolinone

$$$$
