
     RDKit          3D

 12 12  0  0  0  0  0  0  0  0999 V2000
    0.9530   -0.1191   -0.0237 C   0  0  0  0  0  0  0  0  0  0  0  0
    0.2617    0.9889   -0.4851 N   0  0  0  0  0  0  0  0  0  0  0  0
   -1.1496    1.0791   -0.4425 C   0  0  0  0  0  0  0  0  0  0  0  0
   -1.8505    0.5669    0.6499 C   0  0  0  0  0  0  0  0  0  0  0  0
   -3.2388    0.6756    0.7337 C   0  0  0  0  0  0  0  0  0  0  0  0
   -3.9599    1.2868   -0.2866 C   0  0  0  0  0  0  0  0  0  0  0  0
   -3.2628    1.8342   -1.3701 C   0  0  0  0  0  0  0  0  0  0  0  0
   -1.8624    1.7221   -1.4575 C   0  0  0  0  0  0  0  0  0  0  0  0
   -5.3256    1.3892   -0.3261 O   0  0  0  0  0  0  0  0  0  0  0  0
   -6.0353    0.7236    0.7195 C   0  0  0  0  0  0  0  0  0  0  0  0
    0.4275   -1.1649    0.3728 O   0  0  0  0  0  0  0  0  0  0  0  0
    2.4542   -0.0232   -0.0621 C   0  0  0  0  0  0  0  0  0  0  0  0
  2  1  1  0
  3  2  1  0
  4  3  2  0
  5  4  1  0
  5  6  2  0
  6  7  1  0
  7  8  2  0
  8  3  1  0
  9  6  1  0
 10  9  1  0
 11  1  2  0
 12  1  1  0
M  ISO  1  10  13
M  END
>  <DRUGBANK_ID>  (1) 
DB15885

>  <COMMON_NAME>  (1) 
Methacetin methoxy-C-13

>  <CAS_NUMBER>  (1) 
72156-70-8

>  <UNII>  (1) 
6RR3G0X81D

>  <SYNONYMS>  (1) 
Methacetin C-13; Methacetin methoxy-C-13; Methacetin, C-13; p-Acetanisidine C-13

$$$$
