
     RDKit          3D

 16 16  0  0  1  0  0  0  0  0999 V2000
    0.3619    0.4997    2.4305 N   0  0  0  0  0  0  0  0  0  0  0  0
    0.2768    1.0607    1.0645 C   0  0  1  0  0  0  0  0  0  0  0  0
   -1.0922    1.2742    0.3638 C   0  0  2  0  0  0  0  0  0  0  0  0
   -1.7676    0.0431    0.1934 O   0  0  0  0  0  0  0  0  0  0  0  0
   -0.9438    1.8797   -0.9444 O   0  0  0  0  0  0  0  0  0  0  0  0
   -0.1848    3.1240   -0.9604 C   0  0  2  0  0  0  0  0  0  0  0  0
   -0.0559    3.6102   -2.4162 C   0  0  0  0  0  0  0  0  0  0  0  0
   -1.3448    3.8310   -2.9929 O   0  0  0  0  0  0  0  0  0  0  0  0
    1.1801    2.8268   -0.3038 C   0  0  1  0  0  0  0  0  0  0  0  0
    2.1578    3.8263   -0.2435 O   0  0  0  0  0  0  0  0  0  0  0  0
    3.6858    3.2895   -0.1120 P   0  0  0  0  0  0  0  0  0  0  0  0
    3.8875    2.6748   -1.5658 O   0  0  0  0  0  0  0  0  0  0  0  0
    4.3737    4.7211   -0.0703 O   0  0  0  0  0  0  0  0  0  0  0  0
    4.0671    2.3626    0.9697 O   0  0  0  0  0  0  0  0  0  0  0  0
    0.8649    2.4571    1.1364 C   0  0  2  0  0  0  0  0  0  0  0  0
    1.9408    2.4257    2.0642 O   0  0  0  0  0  0  0  0  0  0  0  0
  2  3  1  0
  2 15  1  0
  2  1  1  1
  3  4  1  6
  3  5  1  0
  5  6  1  0
  6  7  1  6
  6  9  1  0
  7  8  1  0
  9 15  1  0
  9 10  1  1
 10 11  1  0
 11 12  1  0
 11 13  1  0
 11 14  2  0
 15 16  1  1
M  END
>  <DRUGBANK_ID>  (1) 
DB02865

>  <SECONDARY_ACCESSION_NUMBERS>  (1) 
EXPT01634

>  <COMMON_NAME>  (1) 
Glucosamine 4-Phosphate

$$$$
