3IB
     RDKit          3D

 15 16  0  0  0  0  0  0  0  0999 V2000
   -1.5083    1.0727   -0.0212 N   0  0  0  0  0  0  0  0  0  0  0  0
   -2.3182   -0.0166   -0.1571 C   0  0  0  0  0  0  0  0  0  0  0  0
   -1.5537   -1.1621   -0.0275 C   0  0  0  0  0  0  0  0  0  0  0  0
    1.0322   -1.4059    0.0321 C   0  0  0  0  0  0  0  0  0  0  0  0
    2.2152   -0.6685   -0.0057 C   0  0  0  0  0  0  0  0  0  0  0  0
    2.1829    0.7245   -0.0200 C   0  0  0  0  0  0  0  0  0  0  0  0
    0.9740    1.4247    0.0086 C   0  0  0  0  0  0  0  0  0  0  0  0
   -0.1987    0.6688    0.0071 C   0  0  0  0  0  0  0  0  0  0  0  0
   -0.1982   -0.7262    0.0149 C   0  0  0  0  0  0  0  0  0  0  0  0
   -2.0185   -2.5869   -0.0071 C   0  0  0  0  0  0  0  0  0  0  0  0
   -2.9736   -2.8879    1.1559 C   0  0  0  0  0  0  0  0  0  0  0  0
   -4.2714   -2.0768    1.1358 C   0  0  0  0  0  0  0  0  0  0  0  0
   -5.0401   -2.2465   -0.1629 C   0  0  0  0  0  0  0  0  0  0  0  0
   -6.3128   -2.6551   -0.0018 O   0  0  0  0  0  0  0  0  0  0  0  0
   -4.5938   -2.0270   -1.2822 O   0  0  0  0  0  0  0  0  0  0  0  0
  1  2  1  0
  1  8  1  0
  2  3  2  0
  3  9  1  0
  3 10  1  0
  4  5  1  0
  4  9  2  0
  5  6  2  0
  6  7  1  0
  7  8  2  0
  8  9  1  0
 10 11  1  0
 11 12  1  0
 12 13  1  0
 13 14  1  0
 13 15  2  0
M  END
>  <DRUGBANK_ID>  (1) 
DB02740

>  <SECONDARY_ACCESSION_NUMBERS>  (1) 
EXPT00173

>  <COMMON_NAME>  (1) 
3-Indolebutyric Acid

>  <CAS_NUMBER>  (1) 
133-32-4

>  <UNII>  (1) 
061SKE27JP

$$$$
