
     RDKit          3D

 13 12  0  0  1  0  0  0  0  0999 V2000
    1.0528    0.0610    0.1742 N   0  0  0  0  0  0  0  0  0  0  0  0
    0.5372    1.4307   -0.0193 C   0  0  1  0  0  0  0  0  0  0  0  0
    1.0495    2.0592   -1.3184 C   0  0  0  0  0  0  0  0  0  0  0  0
    0.5443    1.3916   -2.5838 C   0  0  0  0  0  0  0  0  0  0  0  0
   -0.0597    1.9766   -3.4756 O   0  0  0  0  0  0  0  0  0  0  0  0
    0.9254    0.0855   -2.6547 O   0  0  0  0  0  0  0  0  0  0  0  0
    0.3934   -0.6157   -3.7796 C   0  0  0  0  0  0  0  0  0  0  0  0
   -1.1275   -0.7630   -3.7892 C   0  0  0  0  0  0  0  0  0  0  0  0
   -1.7407   -0.2671   -4.8881 O   0  0  0  0  0  0  0  0  0  0  0  0
   -1.7457   -1.3414   -2.9045 O   0  0  0  0  0  0  0  0  0  0  0  0
   -0.9999    1.4331   -0.0153 C   0  0  0  0  0  0  0  0  0  0  0  0
   -1.5814    2.1101    0.9975 O   0  0  0  0  0  0  0  0  0  0  0  0
   -1.6700    0.8948   -0.8884 O   0  0  0  0  0  0  0  0  0  0  0  0
  2  1  1  6
  2  3  1  0
  2 11  1  0
  3  4  1  0
  4  5  2  0
  4  6  1  0
  6  7  1  0
  7  8  1  0
  8  9  1  0
  8 10  2  0
 11 12  1  0
 11 13  2  0
M  END
>  <DRUGBANK_ID>  (1) 
DB03522

>  <SECONDARY_ACCESSION_NUMBERS>  (1) 
EXPT00567

>  <COMMON_NAME>  (1) 
Aspartic Acid-4-Carboxymethyl Ester

$$$$
