
     RDKit          3D

 33 37  0  0  0  0  0  0  0  0999 V2000
   -1.1612    0.7919    0.0150 C   0  0  0  0  0  0  0  0  0  0  0  0
    0.0448    1.5023    0.0261 N   0  0  0  0  0  0  0  0  0  0  0  0
   -1.0383   -0.6943    0.0129 C   0  0  0  0  0  0  0  0  0  0  0  0
   -2.3974    1.3197   -0.0282 C   0  0  0  0  0  0  0  0  0  0  0  0
    0.0639   -1.3770    0.0047 N   0  0  0  0  0  0  0  0  0  0  0  0
   -3.4833   -0.9579   -0.0056 C   0  0  0  0  0  0  0  0  0  0  0  0
   -3.6494    0.5463   -0.0040 C   0  0  0  0  0  0  0  0  0  0  0  0
   -2.2494   -1.4802   -0.0074 C   0  0  0  0  0  0  0  0  0  0  0  0
    1.2706    0.7602    0.0033 C   0  0  0  0  0  0  0  0  0  0  0  0
    1.2517   -0.6497   -0.0052 C   0  0  0  0  0  0  0  0  0  0  0  0
   -4.7209    1.2718    0.0081 N   0  0  0  0  0  0  0  0  0  0  0  0
   -4.5731   -1.7654   -0.1108 N   0  0  0  0  0  0  0  0  0  0  0  0
    0.0110    2.9277    0.0651 C   0  0  0  0  0  0  0  0  0  0  0  0
   -0.6478    3.5878    1.1150 C   0  0  0  0  0  0  0  0  0  0  0  0
    0.5836    3.6843   -0.9667 C   0  0  0  0  0  0  0  0  0  0  0  0
   -4.7341   -3.1222    0.0448 C   0  0  0  0  0  0  0  0  0  0  0  0
   -0.2885    5.6953    0.0205 C   0  0  0  0  0  0  0  0  0  0  0  0
   -4.8400   -5.8294    0.0685 C   0  0  0  0  0  0  0  0  0  0  0  0
    0.4987    5.0727   -0.9457 C   0  0  0  0  0  0  0  0  0  0  0  0
   -0.8678    4.9587    1.0499 C   0  0  0  0  0  0  0  0  0  0  0  0
   -6.0528    0.6886    0.0184 C   0  0  0  0  0  0  0  0  0  0  0  0
   -0.5768    7.3857   -0.0794 Cl  0  0  0  0  0  0  0  0  0  0  0  0
   -4.7153   -7.5343   -0.0465 Cl  0  0  0  0  0  0  0  0  0  0  0  0
   -4.1497   -3.7876    1.1065 C   0  0  0  0  0  0  0  0  0  0  0  0
   -5.5374   -3.7682   -0.8935 C   0  0  0  0  0  0  0  0  0  0  0  0
   -4.1243   -5.1615    1.0655 C   0  0  0  0  0  0  0  0  0  0  0  0
   -5.6216   -5.1406   -0.8589 C   0  0  0  0  0  0  0  0  0  0  0  0
    2.5123    1.4012    0.0290 C   0  0  0  0  0  0  0  0  0  0  0  0
    2.4438   -1.3756   -0.0063 C   0  0  0  0  0  0  0  0  0  0  0  0
   -6.2921   -0.0002   -1.3680 C   0  0  0  0  0  0  0  0  0  0  0  0
   -6.2530   -0.0458    1.3870 C   0  0  0  0  0  0  0  0  0  0  0  0
    3.6972    0.6773    0.0088 C   0  0  0  0  0  0  0  0  0  0  0  0
    3.6650   -0.7110   -0.0049 C   0  0  0  0  0  0  0  0  0  0  0  0
  2  1  1  0
  3  1  1  0
  4  1  2  0
  5  3  2  0
  7  4  1  0
  7  6  1  0
  8  3  1  0
  8  6  2  0
  9  2  1  0
 10  5  1  0
 10  9  2  0
 11  7  2  3
 11 21  1  0
 12  6  1  0
 13  2  1  0
 14 13  2  0
 15 13  1  0
 16 12  1  0
 19 15  2  0
 19 17  1  0
 20 14  1  0
 20 17  2  0
 22 17  1  0
 23 18  1  0
 24 16  2  0
 25 16  1  0
 26 18  2  0
 26 24  1  0
 27 18  1  0
 27 25  2  0
 28  9  1  0
 29 10  1  0
 30 21  1  0
 31 21  1  0
 32 28  2  0
 33 29  2  0
 33 32  1  0
M  END
>  <DRUGBANK_ID>  (1) 
DB00845

>  <SECONDARY_ACCESSION_NUMBERS>  (1) 
APRD00278

>  <COMMON_NAME>  (1) 
Clofazimine

>  <CAS_NUMBER>  (1) 
2030-63-9

>  <UNII>  (1) 
D959AE5USF

>  <SYNONYMS>  (1) 
Clofazimin; Clofazimina; Clofazimine; Clofaziminum; Riminophenazine

$$$$
