
     RDKit          3D

 19 20  0  0  0  0  0  0  0  0999 V2000
    1.4548   -0.2117    0.1355 C   0  0  0  0  0  0  0  0  0  0  0  0
    0.6590   -1.4091    0.6826 C   0  0  0  0  0  0  0  0  0  0  0  0
    1.0677   -1.5789    2.1433 C   0  0  0  0  0  0  0  0  0  0  0  0
   -0.8269   -1.3985    0.6187 N   0  0  0  0  0  0  0  0  0  0  0  0
   -1.3546   -2.2755   -0.4536 C   0  0  0  0  0  0  0  0  0  0  0  0
   -1.0436   -1.7239   -1.8497 C   0  0  0  0  0  0  0  0  0  0  0  0
   -1.6633   -0.4369   -2.0189 O   0  0  0  0  0  0  0  0  0  0  0  0
   -1.1987    0.4882   -1.0138 C   0  0  0  0  0  0  0  0  0  0  0  0
   -1.4327   -0.0651    0.4127 C   0  0  0  0  0  0  0  0  0  0  0  0
   -1.7002    1.8929   -1.1878 C   0  0  0  0  0  0  0  0  0  0  0  0
   -1.2359    2.9223   -0.3432 C   0  0  0  0  0  0  0  0  0  0  0  0
   -1.5452    4.2455   -0.6077 C   0  0  0  0  0  0  0  0  0  0  0  0
   -2.2652    4.5635   -1.7581 C   0  0  0  0  0  0  0  0  0  0  0  0
   -2.6578    3.5509   -2.6498 C   0  0  0  0  0  0  0  0  0  0  0  0
   -2.4289    2.2206   -2.3254 C   0  0  0  0  0  0  0  0  0  0  0  0
   -3.1985    3.8584   -4.0163 C   0  0  0  0  0  0  0  0  0  0  0  0
   -2.3666    3.4051   -4.9987 F   0  0  0  0  0  0  0  0  0  0  0  0
   -4.4046    3.2758   -4.2509 F   0  0  0  0  0  0  0  0  0  0  0  0
   -3.3588    5.1873   -4.2498 F   0  0  0  0  0  0  0  0  0  0  0  0
  1  2  1  0
  2  3  1  0
  2  4  1  0
  4  5  1  0
  4  9  1  0
  5  6  1  0
  6  7  1  0
  7  8  1  0
  8  9  1  0
  8 10  1  0
 10 11  2  0
 10 15  1  0
 11 12  1  0
 12 13  2  0
 13 14  1  0
 14 15  2  0
 14 16  1  0
 16 17  1  0
 16 18  1  0
 16 19  1  0
M  END
>  <DRUGBANK_ID>  (1) 
DB13457

>  <COMMON_NAME>  (1) 
Oxaflozane

>  <CAS_NUMBER>  (1) 
26629-87-8

>  <UNII>  (1) 
V4WLW77V5Q

>  <SYNONYMS>  (1) 
Oxaflozane

$$$$
