
     RDKit          3D

 17 17  0  0  0  0  0  0  0  0999 V2000
    1.2267   -0.0568    0.1289 C   0  0  0  0  0  0  0  0  0  0  0  0
    0.5521    1.0895    0.8673 C   0  0  0  0  0  0  0  0  0  0  0  0
    0.3719    2.5421   -1.2419 C   0  0  0  0  0  0  0  0  0  0  0  0
   -3.3356    1.4334   -1.4133 C   0  0  0  0  0  0  0  0  0  0  0  0
    0.8959    2.4282    0.2177 C   0  0  0  0  0  0  0  0  0  0  0  0
   -1.1430    2.5360   -1.3894 C   0  0  0  0  0  0  0  0  0  0  0  0
   -1.9415    1.3615   -1.4655 C   0  0  0  0  0  0  0  0  0  0  0  0
   -3.9813    2.6544   -1.3569 C   0  0  0  0  0  0  0  0  0  0  0  0
   -1.8486    3.7763   -1.3430 C   0  0  0  0  0  0  0  0  0  0  0  0
   -3.2600    3.8472   -1.2843 C   0  0  0  0  0  0  0  0  0  0  0  0
    0.4669    3.5669    1.1239 C   0  0  0  0  0  0  0  0  0  0  0  0
   -1.3999   -0.6571   -1.8377 I   0  0  0  0  0  0  0  0  0  0  0  0
   -6.0686    2.6086   -1.5370 I   0  0  0  0  0  0  0  0  0  0  0  0
   -0.8180    5.7155   -1.4172 I   0  0  0  0  0  0  0  0  0  0  0  0
   -3.9245    5.0614   -1.1762 N   0  0  0  0  0  0  0  0  0  0  0  0
    1.2090    4.4290    1.5878 O   0  0  0  0  0  0  0  0  0  0  0  0
   -0.8525    3.6005    1.3793 O   0  0  0  0  0  0  0  0  0  0  0  0
  2  1  1  0
  5  2  1  0
  5  3  1  0
  6  3  1  0
  7  4  2  0
  7  6  1  0
  8  4  1  0
  9  6  2  0
 10  8  2  0
 10  9  1  0
 11  5  1  0
 12  7  1  0
 13  8  1  0
 14  9  1  0
 15 10  1  0
 16 11  2  0
 17 11  1  0
M  END
>  <DRUGBANK_ID>  (1) 
DB08946

>  <COMMON_NAME>  (1) 
Iopanoic acid

>  <CAS_NUMBER>  (1) 
96-83-3

>  <UNII>  (1) 
FE9794P71J

>  <SYNONYMS>  (1) 
Acidum iopanoicum; Iodopanoic acid; Iopanoic acid

$$$$
