
     RDKit          3D

 28 30  0  0  0  0  0  0  0  0999 V2000
   -1.0870    0.7521    0.2070 C   0  0  0  0  0  0  0  0  0  0  0  0
   -1.1128   -0.7086   -0.1737 C   0  0  0  0  0  0  0  0  0  0  0  0
    0.3040   -1.1534    0.1164 C   0  0  0  0  0  0  0  0  0  0  0  0
    1.1524    0.0012    0.0341 O   0  0  0  0  0  0  0  0  0  0  0  0
    0.3357    1.1648   -0.1365 C   0  0  0  0  0  0  0  0  0  0  0  0
    0.3860    1.6609   -1.5937 C   0  0  0  0  0  0  0  0  0  0  0  0
    0.7428    2.9857   -1.7536 N   0  0  0  0  0  0  0  0  0  0  0  0
    0.8075    3.5579   -3.0844 C   0  0  0  0  0  0  0  0  0  0  0  0
    0.1294    4.9216   -3.1650 C   0  0  0  0  0  0  0  0  0  0  0  0
    0.6774    6.0002   -2.2141 C   0  0  0  0  0  0  0  0  0  0  0  0
    2.0286    6.4010   -2.5839 N   0  0  0  0  0  0  0  0  0  0  0  0
    2.3364    7.7245   -2.8245 C   0  0  0  0  0  0  0  0  0  0  0  0
    3.5961    9.2553   -4.0246 C   0  0  0  0  0  0  0  0  0  0  0  0
    3.2485    7.9830   -3.7804 N   0  0  0  0  0  0  0  0  0  0  0  0
    1.7581    8.6801   -2.0871 N   0  0  0  0  0  0  0  0  0  0  0  0
    2.1502    9.9467   -2.2950 C   0  0  0  0  0  0  0  0  0  0  0  0
    3.0775   10.3071   -3.2780 C   0  0  0  0  0  0  0  0  0  0  0  0
    3.5006   11.6350   -3.5333 C   0  0  0  0  0  0  0  0  0  0  0  0
    4.4154   11.9373   -4.5378 C   0  0  0  0  0  0  0  0  0  0  0  0
    4.9234   10.8866   -5.3130 C   0  0  0  0  0  0  0  0  0  0  0  0
    4.5044    9.5666   -5.0404 C   0  0  0  0  0  0  0  0  0  0  0  0
    5.8231   10.9850   -6.3503 O   0  0  0  0  0  0  0  0  0  0  0  0
    4.8314   13.2109   -4.7960 O   0  0  0  0  0  0  0  0  0  0  0  0
    0.0819    0.9470   -2.5402 O   0  0  0  0  0  0  0  0  0  0  0  0
    1.5227   10.8930   -1.5060 N   0  0  0  0  0  0  0  0  0  0  0  0
    6.3026   12.2861   -6.6848 C   0  0  0  0  0  0  0  0  0  0  0  0
    4.3346   14.2936   -4.0275 C   0  0  0  0  0  0  0  0  0  0  0  0
    3.1681    5.5207   -2.4272 C   0  0  0  0  0  0  0  0  0  0  0  0
  1  2  1  0
  1  5  1  0
  2  3  1  0
  3  4  1  0
  4  5  1  0
  5  6  1  0
  6  7  1  0
  6 24  2  0
  7  8  1  0
  8  9  1  0
  9 10  1  0
 10 11  1  0
 11 12  1  0
 11 28  1  0
 12 15  2  0
 13 14  2  0
 13 17  1  0
 13 21  1  0
 14 12  1  0
 15 16  1  0
 16 17  2  0
 16 25  1  0
 17 18  1  0
 18 19  2  0
 19 20  1  0
 19 23  1  0
 20 21  2  0
 20 22  1  0
 22 26  1  0
 23 27  1  0
M  END
>  <DRUGBANK_ID>  (1) 
DB00346

>  <SECONDARY_ACCESSION_NUMBERS>  (1) 
APRD00490

>  <COMMON_NAME>  (1) 
Alfuzosin

>  <CAS_NUMBER>  (1) 
81403-80-7

>  <UNII>  (1) 
90347YTW5F

>  <SYNONYMS>  (1) 
(Â±)-N-[3-[(4-amino-6,7-dimethoxy-2-quinazolinyl)methylamino]propyl]tetrahydro-2-furamide; Alfuzosin; Alfuzosina; Alfuzosine; Alfuzosinum; N-[3-[(4-amino-6,7-dimethoxy-quinazolin-2-yl)- methyl-amino]propyl] tetrahydrofuran- 2-carboxamide

$$$$
