M3C
     RDKit          3D

 14 14  0  0  0  0  0  0  0  0999 V2000
    1.5662    0.0706    0.1584 N   0  0  0  0  0  0  0  0  0  0  0  0
    0.9589    1.1639   -0.5951 C   0  0  1  0  0  0  0  0  0  0  0  0
    1.2513    1.3264   -2.1134 C   0  0  0  0  0  0  0  0  0  0  0  0
    0.3478    0.4639   -3.0169 C   0  0  0  0  0  0  0  0  0  0  0  0
   -1.6882    1.2857   -3.2698 S   0  0  0  0  0  0  0  0  0  0  0  0
   -2.9996    0.9122   -1.4594 C   0  0  0  0  0  0  0  0  0  0  0  0
   -0.5285    0.9390   -0.4187 C   0  0  0  0  0  0  0  0  0  0  0  0
   -0.9916    1.0588    0.9091 O   0  0  0  0  0  0  0  0  0  0  0  0
   -1.0646    2.1689   -0.9871 O   0  0  0  0  0  0  0  0  0  0  0  0
   -1.0099   -0.7096   -1.1099 C   0  0  0  0  0  0  0  0  0  0  0  0
   -1.8317   -0.8704   -2.1414 N   0  0  0  0  0  0  0  0  0  0  0  0
   -2.1220   -2.0743   -2.7009 C   0  0  0  0  0  0  0  0  0  0  0  0
   -1.4879   -3.0145   -2.0575 C   0  0  0  0  0  0  0  0  0  0  0  0
   -0.5073   -2.3335   -0.7137 S   0  0  0  0  0  0  0  0  0  0  0  0
  2  1  1  6
  2  3  1  0
  2  7  1  0
  3  4  1  0
  4  5  1  0
  5  6  1  0
  7  8  1  0
  7  9  1  0
  7 10  1  0
 10 11  2  0
 10 14  1  0
 11 12  1  0
 12 13  2  0
 13 14  1  0
M  END
>  <DRUGBANK_ID>  (1) 
DB08160

>  <COMMON_NAME>  (1) 
(2S)-2-AMINO-4-(METHYLSULFANYL)-1-(1,3-THIAZOL-2-YL)BUTANE-1,1-DIOL

$$$$
