
     RDKit          3D

 44 49  0  0  0  0  0  0  0  0999 V2000
    0.9956    0.0659    0.0750 O   0  0  0  0  0  0  0  0  0  0  0  0
    1.0711   -2.6500   -1.5784 O   0  0  0  0  0  0  0  0  0  0  0  0
    4.4432    1.9889   -3.0999 N   0  0  0  0  0  0  0  0  0  0  0  0
    2.9204    0.4451   -5.0134 N   0  0  0  0  0  0  0  0  0  0  0  0
    2.9199    0.8624   -0.7905 N   0  0  0  0  0  0  0  0  0  0  0  0
    2.4010   -1.9740   -3.2697 N   0  0  0  0  0  0  0  0  0  0  0  0
    4.3621    0.8113    1.7822 N   0  0  0  0  0  0  0  0  0  0  0  0
   -1.1261   -3.9156   -2.8772 N   0  0  0  0  0  0  0  0  0  0  0  0
    6.0489   -1.1075    2.8646 N   0  0  0  0  0  0  0  0  0  0  0  0
   -1.6091   -6.0903   -4.5461 N   0  0  0  0  0  0  0  0  0  0  0  0
    4.9086    1.7999   -4.4745 C   0  0  0  0  0  0  0  0  0  0  0  0
    4.3874    0.4949   -5.0816 C   0  0  0  0  0  0  0  0  0  0  0  0
    4.9081    0.8839   -2.2736 C   0  0  0  0  0  0  0  0  0  0  0  0
    2.4253   -0.8369   -5.4909 C   0  0  0  0  0  0  0  0  0  0  0  0
    4.3650    0.9996   -0.8875 C   0  0  0  0  0  0  0  0  0  0  0  0
    2.8929   -2.0108   -4.6384 C   0  0  0  0  0  0  0  0  0  0  0  0
    4.0560   -0.5057    1.6885 C   0  0  0  0  0  0  0  0  0  0  0  0
   -0.1022   -4.5361   -3.5102 C   0  0  0  0  0  0  0  0  0  0  0  0
    2.9631   -0.9363    0.9363 C   0  0  0  0  0  0  0  0  0  0  0  0
    1.2300   -4.1293   -3.3885 C   0  0  0  0  0  0  0  0  0  0  0  0
    4.9017   -1.4725    2.2646 C   0  0  0  0  0  0  0  0  0  0  0  0
   -0.3618   -5.6330   -4.3536 C   0  0  0  0  0  0  0  0  0  0  0  0
    5.5374    1.1860    2.2962 C   0  0  0  0  0  0  0  0  0  0  0  0
   -2.3769   -4.3836   -3.0292 C   0  0  0  0  0  0  0  0  0  0  0  0
    2.2221    0.0292    0.0698 C   0  0  0  0  0  0  0  0  0  0  0  0
    1.5453   -2.8752   -2.6869 C   0  0  0  0  0  0  0  0  0  0  0  0
    6.3698    0.2051    2.8738 C   0  0  0  0  0  0  0  0  0  0  0  0
   -2.6114   -5.4806   -3.8849 C   0  0  0  0  0  0  0  0  0  0  0  0
    5.9450    2.5305    2.2412 C   0  0  0  0  0  0  0  0  0  0  0  0
   -3.4536   -3.7940   -2.3506 C   0  0  0  0  0  0  0  0  0  0  0  0
    2.5955   -2.2852    0.9300 C   0  0  0  0  0  0  0  0  0  0  0  0
    2.2872   -4.8422   -3.9756 C   0  0  0  0  0  0  0  0  0  0  0  0
    4.5616   -2.8206    2.1875 C   0  0  0  0  0  0  0  0  0  0  0  0
    0.6855   -6.2564   -5.0292 C   0  0  0  0  0  0  0  0  0  0  0  0
    3.4010   -3.2353    1.5428 C   0  0  0  0  0  0  0  0  0  0  0  0
    2.0100   -5.8735   -4.8481 C   0  0  0  0  0  0  0  0  0  0  0  0
    7.5458    0.6129    3.4781 C   0  0  0  0  0  0  0  0  0  0  0  0
   -3.9081   -5.9439   -4.0539 C   0  0  0  0  0  0  0  0  0  0  0  0
    7.1451    2.9047    2.8481 C   0  0  0  0  0  0  0  0  0  0  0  0
   -4.7539   -4.2824   -2.5362 C   0  0  0  0  0  0  0  0  0  0  0  0
    7.9283    1.9537    3.4881 C   0  0  0  0  0  0  0  0  0  0  0  0
   -4.9810   -5.3537   -3.3898 C   0  0  0  0  0  0  0  0  0  0  0  0
    5.1365    3.5972    1.5415 C   0  0  0  0  0  0  0  0  0  0  0  0
   -3.2268   -2.6351   -1.4144 C   0  0  0  0  0  0  0  0  0  0  0  0
  1 25  2  0
  2 26  2  0
  3 11  1  0
  3 13  1  0
  4 12  1  0
  4 14  1  0
  5 15  1  0
  5 25  1  0
  6 16  1  0
  6 26  1  0
  7 17  2  0
  7 23  1  0
  8 18  2  0
  8 24  1  0
  9 21  2  0
  9 27  1  0
 10 22  2  0
 10 28  1  0
 11 12  1  0
 13 15  1  0
 14 16  1  0
 17 19  1  0
 17 21  1  0
 18 20  1  0
 18 22  1  0
 19 25  1  0
 19 31  2  0
 20 26  1  0
 20 32  2  0
 21 33  1  0
 22 34  1  0
 23 27  2  0
 23 29  1  0
 24 28  2  0
 24 30  1  0
 27 37  1  0
 28 38  1  0
 29 39  2  0
 29 43  1  0
 30 40  2  0
 30 44  1  0
 31 35  1  0
 32 36  1  0
 33 35  2  0
 34 36  2  0
 37 41  2  0
 38 42  2  0
 39 41  1  0
 40 42  1  0
M  END
>  <DRUGBANK_ID>  (1) 
DB06364

>  <COMMON_NAME>  (1) 
XR5944

>  <CAS_NUMBER>  (1) 
343247-32-5

>  <UNII>  (1) 
LJH9XG66Q9

$$$$
