
     RDKit          3D

 14 14  0  0  0  0  0  0  0  0999 V2000
    1.0669    0.0421   -0.0467 C   0  0  0  0  0  0  0  0  0  0  0  0
    0.6127   -0.6563   -1.2125 O   0  0  0  0  0  0  0  0  0  0  0  0
    0.9751   -0.0637   -2.3785 C   0  0  0  0  0  0  0  0  0  0  0  0
    1.5636    1.0031   -2.4933 O   0  0  0  0  0  0  0  0  0  0  0  0
    0.5097   -0.8689   -3.5311 C   0  0  0  0  0  0  0  0  0  0  0  0
   -0.8622   -1.1959   -3.5762 C   0  0  0  0  0  0  0  0  0  0  0  0
   -1.4093   -1.8493   -4.6834 C   0  0  0  0  0  0  0  0  0  0  0  0
   -0.6033   -2.1459   -5.7760 C   0  0  0  0  0  0  0  0  0  0  0  0
    0.7506   -1.7946   -5.7552 C   0  0  0  0  0  0  0  0  0  0  0  0
    1.3419   -1.2049   -4.6138 C   0  0  0  0  0  0  0  0  0  0  0  0
    2.8361   -1.0864   -4.6343 C   0  0  0  0  0  0  0  0  0  0  0  0
    3.5087   -1.4185   -5.6017 O   0  0  0  0  0  0  0  0  0  0  0  0
    3.3423   -0.6745   -3.4526 O   0  0  0  0  0  0  0  0  0  0  0  0
    4.7624   -0.5026   -3.3969 C   0  0  0  0  0  0  0  0  0  0  0  0
  1  2  1  0
  2  3  1  0
  3  4  2  0
  3  5  1  0
  5  6  2  0
  5 10  1  0
  6  7  1  0
  7  8  2  0
  8  9  1  0
  9 10  2  0
 10 11  1  0
 11 12  2  0
 11 13  1  0
 13 14  1  0
M  END
>  <DRUGBANK_ID>  (1) 
DB13336

>  <COMMON_NAME>  (1) 
Dimethylphthalate

>  <CAS_NUMBER>  (1) 
131-11-3

>  <UNII>  (1) 
08X7F5UDJM

>  <SYNONYMS>  (1) 
Dimethyl phthalate

$$$$
