
     RDKit          3D

 26 27  0  0  0  0  0  0  0  0999 V2000
    1.1537    5.2074    2.9429 C   0  0  0  0  0  0  0  0  0  0  0  0
    1.5232    6.4455    3.4374 C   0  0  0  0  0  0  0  0  0  0  0  0
    1.1425    7.6211    2.7748 C   0  0  0  0  0  0  0  0  0  0  0  0
    0.4215    7.5700    1.5790 C   0  0  0  0  0  0  0  0  0  0  0  0
    0.1293    6.3292    1.0624 C   0  0  0  0  0  0  0  0  0  0  0  0
    0.4363    5.1672    1.7545 C   0  0  0  0  0  0  0  0  0  0  0  0
    0.0182    3.9137    1.0971 C   0  0  0  0  0  0  0  0  0  0  0  0
   -1.5142    3.5150    1.1578 C   0  0  2  0  0  0  0  0  0  0  0  0
   -1.8296    2.5027    0.0057 C   0  0  1  0  0  0  0  0  0  0  0  0
   -0.6149    1.6041   -0.3181 C   0  0  0  0  0  0  0  0  0  0  0  0
   -0.1985    0.7100    0.8419 C   0  0  0  0  0  0  0  0  0  0  0  0
    0.3891   -1.4988    1.6105 C   0  0  0  0  0  0  0  0  0  0  0  0
    0.0286   -0.6348    0.5733 C   0  0  0  0  0  0  0  0  0  0  0  0
   -0.0459    1.1077    2.1844 C   0  0  0  0  0  0  0  0  0  0  0  0
    0.4043    0.3053    3.2018 C   0  0  0  0  0  0  0  0  0  0  0  0
    0.5984   -1.0222    2.9059 C   0  0  0  0  0  0  0  0  0  0  0  0
    0.5439   -2.8547    1.4667 O   0  0  0  0  0  0  0  0  0  0  0  0
    0.3110   -3.3339    0.1498 C   0  0  0  0  0  0  0  0  0  0  0  0
    0.9454   -1.8208    3.9460 O   0  0  0  0  0  0  0  0  0  0  0  0
   -3.0167    1.5367    0.2311 C   0  0  0  0  0  0  0  0  0  0  0  0
   -4.2405    2.1907    0.4821 O   0  0  0  0  0  0  0  0  0  0  0  0
   -2.4289    4.7469    1.1883 C   0  0  0  0  0  0  0  0  0  0  0  0
   -3.8006    4.4175    1.2777 O   0  0  0  0  0  0  0  0  0  0  0  0
   -0.0994    8.5193    0.7595 O   0  0  0  0  0  0  0  0  0  0  0  0
    0.1411    9.8647    1.0612 C   0  0  0  0  0  0  0  0  0  0  0  0
    1.5641    8.7397    3.4275 O   0  0  0  0  0  0  0  0  0  0  0  0
  1  2  2  0
  1  6  1  0
  2  3  1  0
  3  4  2  0
  3 26  1  0
  4  5  1  0
  4 24  1  0
  5  6  2  0
  6  7  1  0
  8 22  1  6
  8  9  1  0
  8  7  1  0
  9 10  1  1
  9 20  1  0
 10 11  1  0
 11 14  2  0
 12 13  2  0
 12 16  1  0
 12 17  1  0
 13 11  1  0
 14 15  1  0
 15 16  2  0
 16 19  1  0
 17 18  1  0
 20 21  1  0
 22 23  1  0
 24 25  1  0
M  END
>  <DRUGBANK_ID>  (1) 
DB12179

>  <COMMON_NAME>  (1) 
Secoisolariciresinol

>  <CAS_NUMBER>  (1) 
29388-59-8

>  <UNII>  (1) 
M8QRJ7JEJH

$$$$
