
     RDKit          3D

 18 21  0  0  0  0  0  0  0  0999 V2000
    2.4846    1.0353   -0.0397 C   0  0  0  0  0  0  0  0  0  0  0  0
   -5.3550   -1.7654   -0.9026 C   0  0  0  0  0  0  0  0  0  0  0  0
    3.1927   -0.2356    0.4076 C   0  0  0  0  0  0  0  0  0  0  0  0
   -6.3038   -2.6571   -0.4733 C   0  0  0  0  0  0  0  0  0  0  0  0
   -1.1038    1.9326   -0.0511 C   0  0  0  0  0  0  0  0  0  0  0  0
    1.3219   -1.6358    0.0539 C   0  0  0  0  0  0  0  0  0  0  0  0
    0.4364   -0.4273    0.0056 C   0  0  0  0  0  0  0  0  0  0  0  0
    0.9848    0.8621   -0.0108 C   0  0  0  0  0  0  0  0  0  0  0  0
   -4.3134   -1.8777    0.0498 C   0  0  0  0  0  0  0  0  0  0  0  0
   -1.7006    0.6863   -0.0279 C   0  0  0  0  0  0  0  0  0  0  0  0
   -0.9666   -0.4900    0.0333 C   0  0  0  0  0  0  0  0  0  0  0  0
   -3.0417   -1.0901    0.0449 C   0  0  0  0  0  0  0  0  0  0  0  0
    0.2463    2.0037   -0.0396 N   0  0  0  0  0  0  0  0  0  0  0  0
   -3.0075    0.2783   -0.0514 N   0  0  0  0  0  0  0  0  0  0  0  0
   -1.8154   -1.5766    0.1301 N   0  0  0  0  0  0  0  0  0  0  0  0
   -4.6159   -2.7774    0.9930 N   0  0  0  0  0  0  0  0  0  0  0  0
    2.6783   -1.3512   -0.3206 O   0  0  0  0  0  0  0  0  0  0  0  0
   -5.8845   -3.2418    0.6758 O   0  0  0  0  0  0  0  0  0  0  0  0
  3  1  1  0
  4  2  2  0
  7  6  1  0
  8  1  1  0
  8  7  2  0
  9  2  1  0
 10  5  1  0
 11  7  1  0
 11 10  2  0
 12  9  1  0
 13  5  2  0
 13  8  1  0
 14 10  1  0
 14 12  1  0
 15 11  1  0
 15 12  2  0
 16  9  2  0
 17  3  1  0
 17  6  1  0
 18  4  1  0
 18 16  1  0
M  END
>  <DRUGBANK_ID>  (1) 
DB06504

>  <COMMON_NAME>  (1) 
S-8510

>  <UNII>  (1) 
92SP8RX873

$$$$
