
     RDKit          3D

 16 15  0  0  0  0  0  0  0  0999 V2000
    0.9167   -0.0037   -0.0552 C   0  0  0  0  0  0  0  0  0  0  0  0
    0.3067   -1.7288   -0.0284 P   0  0  0  0  0  0  0  0  0  0  0  0
    0.3067    0.8821    1.4255 P   0  0  0  0  0  0  0  0  0  0  0  0
   -1.0334   -1.2348    0.5336 O   0  0  0  0  0  0  0  0  0  0  0  0
    1.0376   -0.0295    2.3869 O   0  0  0  0  0  0  0  0  0  0  0  0
    0.4124    0.6964   -1.2340 O   0  0  0  0  0  0  0  0  0  0  0  0
    5.2606   -3.7150    1.1192 N   0  0  0  0  0  0  0  0  0  0  0  0
    0.1074   -1.7222   -1.6618 O   0  0  0  0  0  0  0  0  0  0  0  0
    1.0392    2.2750    0.9997 O   0  0  0  0  0  0  0  0  0  0  0  0
   -0.2700    1.7194    2.8252 O   0  0  0  0  0  0  0  0  0  0  0  0
   -0.2700   -3.3597   -0.0032 O   0  0  0  0  0  0  0  0  0  0  0  0
    2.4830   -0.0548   -0.1094 C   0  0  0  0  0  0  0  0  0  0  0  0
    4.6531   -3.0946   -0.0480 C   0  0  0  0  0  0  0  0  0  0  0  0
    3.1783   -0.7168    1.1109 C   0  0  0  0  0  0  0  0  0  0  0  0
    3.1421   -3.0414    0.1390 C   0  0  0  0  0  0  0  0  0  0  0  0
    2.7803   -2.1815    1.3587 C   0  0  0  0  0  0  0  0  0  0  0  0
  2  1  1  0
  3  1  1  0
  4  2  2  0
  5  3  2  0
  6  1  1  0
  7 13  1  0
  8  2  1  0
  9  3  1  0
 10  3  1  0
 11  2  1  0
 12  1  1  0
 13 15  1  0
 14 12  1  0
 15 16  1  0
 16 14  1  0
M  END
>  <DRUGBANK_ID>  (1) 
DB11620

>  <COMMON_NAME>  (1) 
Neridronic Acid

>  <CAS_NUMBER>  (1) 
79778-41-9

>  <UNII>  (1) 
8U27U3RIN4

>  <SYNONYMS>  (1) 
(6-amino-1-hydroxyhexylidene)diphosphonic acid; Neridronate; Neridronic Acid

$$$$
