
     RDKit          3D

 29 32  0  0  0  0  0  0  0  0999 V2000
   -0.4040   -1.3196    0.0262 C   0  0  0  0  0  0  0  0  0  0  0  0
   -1.5240   -0.5621   -0.6328 C   0  0  2  0  0  0  0  0  0  0  0  0
   -1.4837    0.8038   -0.2338 N   0  0  0  0  0  0  0  0  0  0  0  0
   -0.3567    1.6055   -0.2991 C   0  0  0  0  0  0  0  0  0  0  0  0
    0.9357    0.8348   -0.1717 C   0  0  0  0  0  0  0  0  0  0  0  0
    0.8627   -0.5508   -0.0502 N   0  0  0  0  0  0  0  0  0  0  0  0
    2.0318   -1.2342    0.1191 C   0  0  0  0  0  0  0  0  0  0  0  0
    2.1180    1.4837   -0.1045 C   0  0  0  0  0  0  0  0  0  0  0  0
    3.3873    0.6819    0.0813 C   0  0  0  0  0  0  0  0  0  0  0  0
    3.2884   -0.8051    0.1941 C   0  0  0  0  0  0  0  0  0  0  0  0
   -2.6803    1.1971    0.4306 C   0  0  2  0  0  0  0  0  0  0  0  0
   -3.5166   -0.0720    0.4599 C   0  0  0  0  0  0  0  0  0  0  0  0
   -2.7883   -1.0952   -0.2326 O   0  0  0  0  0  0  0  0  0  0  0  0
   -3.3775    2.2962   -0.3309 C   0  0  0  0  0  0  0  0  0  0  0  0
   -0.4148    2.8145   -0.3492 O   0  0  0  0  0  0  0  0  0  0  0  0
    2.2746    2.8541   -0.1688 O   0  0  0  0  0  0  0  0  0  0  0  0
    4.4838   -1.6854    0.3619 C   0  0  0  0  0  0  0  0  0  0  0  0
    5.6205   -1.2177    0.3944 O   0  0  0  0  0  0  0  0  0  0  0  0
    4.4011   -3.0412    0.4950 N   0  0  0  0  0  0  0  0  0  0  0  0
    3.3089   -3.9898    0.4921 C   0  0  0  0  0  0  0  0  0  0  0  0
    3.2176   -4.8002   -0.7570 C   0  0  0  0  0  0  0  0  0  0  0  0
    2.0221   -4.9307   -1.4856 C   0  0  0  0  0  0  0  0  0  0  0  0
    4.3208   -5.5646   -1.1208 C   0  0  0  0  0  0  0  0  0  0  0  0
    4.1566   -6.5942   -2.0299 C   0  0  0  0  0  0  0  0  0  0  0  0
    2.9916   -6.6659   -2.7854 C   0  0  0  0  0  0  0  0  0  0  0  0
    1.9306   -5.8032   -2.5593 C   0  0  0  0  0  0  0  0  0  0  0  0
    0.9313   -4.2333   -1.1343 F   0  0  0  0  0  0  0  0  0  0  0  0
    2.9056   -7.5805   -3.7572 F   0  0  0  0  0  0  0  0  0  0  0  0
    4.4416    1.3073    0.1357 O   0  0  0  0  0  0  0  0  0  0  0  0
  2  1  1  1
  1  6  1  0
  2 13  1  0
  2  3  1  0
  3  4  1  0
  3 11  1  0
  4  5  1  0
  4 15  2  0
  5  8  2  0
  6  5  1  0
  7  6  1  0
  7 10  2  0
  8  9  1  0
  8 16  1  0
  9 10  1  0
  9 29  2  0
 10 17  1  0
 11 12  1  0
 11 14  1  6
 12 13  1  0
 17 18  2  0
 17 19  1  0
 19 20  1  0
 20 21  1  0
 21 23  1  0
 22 21  2  0
 22 26  1  0
 22 27  1  0
 23 24  2  0
 24 25  1  0
 25 26  2  0
 25 28  1  0
M  END
>  <DRUGBANK_ID>  (1) 
DB11751

>  <COMMON_NAME>  (1) 
Cabotegravir

>  <CAS_NUMBER>  (1) 
1051375-10-0

>  <UNII>  (1) 
HMH0132Z1Q

>  <SYNONYMS>  (1) 
Cabotegravir

$$$$
