
     RDKit          3D

 22 24  0  0  0  0  0  0  0  0999 V2000
   -2.3471   -0.4370    0.0784 O   0  0  0  0  0  0  0  0  0  0  0  0
   -4.5569    4.2205    0.1559 N   0  0  0  0  0  0  0  0  0  0  0  0
   -1.7981    0.9318    0.0964 C   0  0  0  0  0  0  0  0  0  0  0  0
   -1.2847   -1.4318   -0.0133 C   0  0  0  0  0  0  0  0  0  0  0  0
   -0.3088    0.7102   -0.0755 C   0  0  0  0  0  0  0  0  0  0  0  0
   -0.0262   -0.6444   -0.0406 C   0  0  0  0  0  0  0  0  0  0  0  0
   -2.5136    1.7341   -1.0915 C   0  0  0  0  0  0  0  0  0  0  0  0
   -1.9953    1.6357    1.4482 C   0  0  0  0  0  0  0  0  0  0  0  0
   -4.0732    1.9918   -1.0424 C   0  0  0  0  0  0  0  0  0  0  0  0
   -1.3407   -2.2185   -1.3287 C   0  0  0  0  0  0  0  0  0  0  0  0
   -1.3119   -2.3509    1.2102 C   0  0  0  0  0  0  0  0  0  0  0  0
    0.7458    1.6106   -0.0673 C   0  0  0  0  0  0  0  0  0  0  0  0
    1.2700   -1.1483   -0.0246 C   0  0  0  0  0  0  0  0  0  0  0  0
   -4.7717    2.7607    0.1241 C   0  0  0  0  0  0  0  0  0  0  0  0
   -1.9982    1.0388    2.7188 C   0  0  0  0  0  0  0  0  0  0  0  0
   -2.0642    3.0203    1.4540 C   0  0  0  0  0  0  0  0  0  0  0  0
    2.0615    1.1208   -0.0366 C   0  0  0  0  0  0  0  0  0  0  0  0
    2.3236   -0.2540   -0.0208 C   0  0  0  0  0  0  0  0  0  0  0  0
   -2.4767    1.7536    3.8296 C   0  0  0  0  0  0  0  0  0  0  0  0
   -2.4327    3.7576    2.5672 C   0  0  0  0  0  0  0  0  0  0  0  0
   -2.8086    3.0863    3.7219 C   0  0  0  0  0  0  0  0  0  0  0  0
   -4.9985    4.8342    1.4145 C   0  0  0  0  0  0  0  0  0  0  0  0
  1  3  1  0
  1  4  1  0
  2 14  1  0
  2 22  1  0
  3  5  1  0
  3  7  1  0
  3  8  1  0
  4  6  1  0
  4 10  1  0
  4 11  1  0
  5  6  2  0
  5 12  1  0
  6 13  1  0
  7  9  1  0
  8 15  2  0
  8 16  1  0
  9 14  1  0
 12 17  2  0
 13 18  2  0
 15 19  1  0
 16 20  2  0
 17 18  1  0
 19 21  2  0
 20 21  1  0
M  END
>  <DRUGBANK_ID>  (1) 
DB09190

>  <COMMON_NAME>  (1) 
Talopram

>  <CAS_NUMBER>  (1) 
7182-51-6

>  <UNII>  (1) 
5PY881HC79

>  <SYNONYMS>  (1) 
Phthalapromine; Talopram

$$$$
