PTB
     RDKit          3D

 16 17  0  0  0  0  0  0  0  0999 V2000
   -0.9975    0.6111    0.1128 N   0  0  0  0  0  0  0  0  0  0  0  0
   -0.8357   -0.8205   -0.2694 C   0  0  2  0  0  0  0  0  0  0  0  0
   -1.9157   -1.7117    0.3627 C   0  0  0  0  0  0  0  0  0  0  0  0
   -1.6459   -2.8253    0.8193 O   0  0  0  0  0  0  0  0  0  0  0  0
    0.5640   -1.1350    0.2264 C   0  0  0  0  0  0  0  0  0  0  0  0
    1.3379    0.1201   -0.1271 C   0  0  0  0  0  0  0  0  0  0  0  0
    0.3166    1.2421   -0.0460 C   0  0  0  0  0  0  0  0  0  0  0  0
   -3.2357   -1.1370    0.3573 C   0  0  0  0  0  0  0  0  0  0  0  0
   -4.0101   -0.9533    1.4064 N   0  0  0  0  0  0  0  0  0  0  0  0
   -5.0531   -0.1589    0.9762 N   0  0  0  0  0  0  0  0  0  0  0  0
   -4.8570    0.0581   -0.3097 C   0  0  0  0  0  0  0  0  0  0  0  0
   -3.7203   -0.5434   -0.7774 O   0  0  0  0  0  0  0  0  0  0  0  0
   -5.6977    0.8410   -1.2749 C   0  0  0  0  0  0  0  0  0  0  0  0
   -7.1419    0.3204   -1.1929 C   0  0  0  0  0  0  0  0  0  0  0  0
   -5.6631    2.3306   -0.8957 C   0  0  0  0  0  0  0  0  0  0  0  0
   -5.1956    0.6924   -2.7224 C   0  0  0  0  0  0  0  0  0  0  0  0
  1  2  1  0
  1  7  1  0
  2  5  1  0
  2  3  1  1
  3  4  2  0
  3  8  1  0
  5  6  1  0
  6  7  1  0
  8  9  2  0
  8 12  1  0
  9 10  1  0
 10 11  2  0
 11 12  1  0
 11 13  1  0
 13 14  1  0
 13 15  1  0
 13 16  1  0
M  END
>  <DRUGBANK_ID>  (1) 
DB03833

>  <SECONDARY_ACCESSION_NUMBERS>  (1) 
EXPT02680

>  <COMMON_NAME>  (1) 
2-Prolyl-5-Tert-Butyl-[1,3,4]Oxadiazole

$$$$
