L20
     RDKit          3D

 30 34  0  0  0  0  0  0  0  0999 V2000
   -2.4926    1.5212   -0.0039 C   0  0  0  0  0  0  0  0  0  0  0  0
   -1.5255    0.3954   -0.0015 C   0  0  0  0  0  0  0  0  0  0  0  0
   -1.9696   -0.8705    0.0027 N   0  0  0  0  0  0  0  0  0  0  0  0
   -0.8446   -1.6017    0.0026 N   0  0  0  0  0  0  0  0  0  0  0  0
    0.3090   -0.8688   -0.0059 C   0  0  0  0  0  0  0  0  0  0  0  0
    1.6504   -1.2502   -0.0134 C   0  0  0  0  0  0  0  0  0  0  0  0
    2.6087   -0.2336   -0.0198 C   0  0  0  0  0  0  0  0  0  0  0  0
    2.2550    1.1190   -0.0182 C   0  0  0  0  0  0  0  0  0  0  0  0
    0.8826    1.4691   -0.0147 C   0  0  0  0  0  0  0  0  0  0  0  0
   -0.1028    0.4590   -0.0069 C   0  0  0  0  0  0  0  0  0  0  0  0
    3.3181    2.1297   -0.0007 C   0  0  0  0  0  0  0  0  0  0  0  0
    4.1365    2.3769   -1.0983 C   0  0  0  0  0  0  0  0  0  0  0  0
    5.0694    3.3586   -1.1543 N   0  0  0  0  0  0  0  0  0  0  0  0
    5.1385    4.1830   -0.0818 C   0  0  0  0  0  0  0  0  0  0  0  0
    4.3606    4.0396    1.0573 C   0  0  0  0  0  0  0  0  0  0  0  0
    4.3706    5.0742    1.9476 O   0  0  0  0  0  0  0  0  0  0  0  0
    3.3922    5.0692    3.0010 C   0  0  0  0  0  0  0  0  0  0  0  0
    1.9220    5.3952    2.5657 C   0  0  1  0  0  0  0  0  0  0  0  0
    1.3337    4.4983    1.5595 N   0  0  0  0  0  0  0  0  0  0  0  0
    0.9855    5.3395    3.7826 C   0  0  0  0  0  0  0  0  0  0  0  0
    1.2282    6.4519    4.7364 C   0  0  0  0  0  0  0  0  0  0  0  0
    1.0238    7.7927    4.4795 C   0  0  0  0  0  0  0  0  0  0  0  0
    1.3074    8.4872    5.6199 N   0  0  0  0  0  0  0  0  0  0  0  0
    1.7614    7.6325    6.5969 C   0  0  0  0  0  0  0  0  0  0  0  0
    2.1883    7.8960    7.9015 C   0  0  0  0  0  0  0  0  0  0  0  0
    2.6365    6.8147    8.6669 C   0  0  0  0  0  0  0  0  0  0  0  0
    2.6454    5.5206    8.1520 C   0  0  0  0  0  0  0  0  0  0  0  0
    2.1913    5.2704    6.8544 C   0  0  0  0  0  0  0  0  0  0  0  0
    1.7404    6.3450    6.0617 C   0  0  0  0  0  0  0  0  0  0  0  0
    3.5425    2.9160    1.1304 C   0  0  0  0  0  0  0  0  0  0  0  0
  1  2  1  0
  2  3  2  0
  2 10  1  0
  3  4  1  0
  4  5  1  0
  5  6  1  0
  5 10  2  0
  6  7  2  0
  7  8  1  0
  8  9  2  0
  8 11  1  0
  9 10  1  0
 11 12  2  0
 11 30  1  0
 12 13  1  0
 13 14  2  0
 14 15  1  0
 15 16  1  0
 15 30  2  0
 16 17  1  0
 17 18  1  0
 18 19  1  6
 18 20  1  0
 20 21  1  0
 21 22  2  0
 21 29  1  0
 22 23  1  0
 23 24  1  0
 24 25  1  0
 24 29  2  0
 25 26  2  0
 26 27  1  0
 27 28  2  0
 28 29  1  0
M  END
>  <DRUGBANK_ID>  (1) 
DB08073

>  <COMMON_NAME>  (1) 
(2S)-1-(1H-INDOL-3-YL)-3-{[5-(3-METHYL-1H-INDAZOL-5-YL)PYRIDIN-3-YL]OXY}PROPAN-2-AMINE

>  <UNII>  (1) 
Q4UG565ZYH

$$$$
