
     RDKit          3D

  8  8  0  0  0  0  0  0  0  0999 V2000
    1.6994   -1.3359   -0.0028 O   0  0  0  0  0  0  0  0  0  0  0  0
    0.4921   -0.6935   -0.0019 C   0  0  0  0  0  0  0  0  0  0  0  0
   -0.7112   -1.3919   -0.0095 C   0  0  0  0  0  0  0  0  0  0  0  0
   -1.9142   -0.6797   -0.0099 C   0  0  0  0  0  0  0  0  0  0  0  0
   -1.9063    0.7190    0.0050 C   0  0  0  0  0  0  0  0  0  0  0  0
   -0.6957    1.4120    0.0144 C   0  0  0  0  0  0  0  0  0  0  0  0
    0.4950    0.7006    0.0059 C   0  0  0  0  0  0  0  0  0  0  0  0
    1.6737    1.3904    0.0020 O   0  0  0  0  0  0  0  0  0  0  0  0
  1  2  1  0
  2  3  2  0
  2  7  1  0
  3  4  1  0
  4  5  2  0
  5  6  1  0
  6  7  2  0
  7  8  1  0
M  END
>  <DRUGBANK_ID>  (1) 
DB02232

>  <SECONDARY_ACCESSION_NUMBERS>  (1) 
EXPT00830

>  <COMMON_NAME>  (1) 
1,2-Dihydroxybenzene

>  <CAS_NUMBER>  (1) 
120-80-9

>  <UNII>  (1) 
LF3AJ089DQ

$$$$
