
     RDKit          3D

 28 30  0  0  0  0  0  0  0  0999 V2000
   -1.8923    0.0098    0.0525 C   0  0  0  0  0  0  0  0  0  0  0  0
   -1.2129   -1.2085    0.0414 C   0  0  0  0  0  0  0  0  0  0  0  0
   -1.1736    1.1999    0.1079 C   0  0  0  0  0  0  0  0  0  0  0  0
    0.1849   -1.2433    0.0870 C   0  0  0  0  0  0  0  0  0  0  0  0
    0.5435    1.3811   -2.9126 C   0  0  0  0  0  0  0  0  0  0  0  0
    2.5796    7.7287   -2.7975 C   0  0  0  0  0  0  0  0  0  0  0  0
    0.7071    0.8702   -4.2061 C   0  0  0  0  0  0  0  0  0  0  0  0
    3.0847    6.4345   -2.7895 C   0  0  0  0  0  0  0  0  0  0  0  0
    0.7327    7.0057   -1.4203 C   0  0  0  0  0  0  0  0  0  0  0  0
    1.0161    3.5265   -3.7124 C   0  0  0  0  0  0  0  0  0  0  0  0
    0.9913    2.4701   -0.0681 C   0  0  0  0  0  0  0  0  0  0  0  0
    0.2235    4.6171   -1.0120 C   0  0  0  0  0  0  0  0  0  0  0  0
    0.2335    1.1800    0.1211 C   0  0  0  0  0  0  0  0  0  0  0  0
    1.2117    5.6843   -1.4382 C   0  0  0  0  0  0  0  0  0  0  0  0
    0.7036    2.7264   -2.5901 C   0  0  0  0  0  0  0  0  0  0  0  0
    1.4407    8.0166   -2.0563 C   0  0  0  0  0  0  0  0  0  0  0  0
    1.3728    3.0284   -4.9834 C   0  0  0  0  0  0  0  0  0  0  0  0
    0.9021   -0.0506    0.1354 C   0  0  0  0  0  0  0  0  0  0  0  0
    2.4780    5.4614   -2.0014 C   0  0  0  0  0  0  0  0  0  0  0  0
    1.1500    1.6872   -5.2351 C   0  0  0  0  0  0  0  0  0  0  0  0
    2.0070    3.9751   -5.9466 C   0  0  0  0  0  0  0  0  0  0  0  0
    0.5559    3.2147   -1.2862 N   0  0  0  0  0  0  0  0  0  0  0  0
    0.9578    9.2853   -1.9505 O   0  0  0  0  0  0  0  0  0  0  0  0
    2.2674   -0.0513    0.0899 O   0  0  0  0  0  0  0  0  0  0  0  0
    3.1155    4.2571   -1.9083 O   0  0  0  0  0  0  0  0  0  0  0  0
    1.3189    1.1611   -6.4775 O   0  0  0  0  0  0  0  0  0  0  0  0
    2.4154    5.0977   -5.6650 O   0  0  0  0  0  0  0  0  0  0  0  0
    2.1519    3.5036   -7.1924 O   0  0  0  0  0  0  0  0  0  0  0  0
  2  1  2  0
  3  1  1  0
  4  2  1  0
  7  5  2  0
  8  6  2  0
 13  3  2  0
 13 11  1  0
 14  9  1  0
 14 12  1  0
 15  5  1  0
 15 10  2  0
 16  6  1  0
 16  9  2  0
 17 10  1  0
 18  4  2  0
 18 13  1  0
 19  8  1  0
 19 14  2  0
 20  7  1  0
 20 17  2  0
 21 17  1  0
 22 11  1  0
 22 12  1  0
 22 15  1  0
 23 16  1  0
 24 18  1  0
 25 19  1  0
 26 20  1  0
 27 21  2  0
 28 21  1  0
M  END
>  <DRUGBANK_ID>  (1) 
DB16768

>  <COMMON_NAME>  (1) 
Lavendustin A

>  <CAS_NUMBER>  (1) 
125697-92-9

>  <UNII>  (1) 
3Y0G32G2RV

$$$$
