
     RDKit          3D

 21 21  0  0  0  0  0  0  0  0999 V2000
   -0.4924    1.0316    0.8192 C   0  0  0  0  0  0  0  0  0  0  0  0
   -2.1345    0.4025   -0.3674 C   0  0  0  0  0  0  0  0  0  0  0  0
   -2.0035   -0.7222    0.3474 C   0  0  2  0  0  0  0  0  0  0  0  0
   -0.3128   -0.9664    1.1197 N   0  0  0  0  0  0  0  0  0  0  0  0
    0.5455    0.0095    0.5955 C   0  0  0  0  0  0  0  0  0  0  0  0
   -2.7503   -1.4918   -1.3035 C   0  0  0  0  0  0  0  0  0  0  0  0
   -2.4156   -2.8936   -1.7634 O   0  0  0  0  0  0  0  0  0  0  0  0
   -3.7032   -0.9667   -1.8797 O   0  0  0  0  0  0  0  0  0  0  0  0
    1.2089   -0.0072   -0.7196 O   0  0  0  0  0  0  0  0  0  0  0  0
    2.5600   -0.7760    0.3032 C   0  0  0  0  0  0  0  0  0  0  0  0
    2.4071    1.0241    0.3330 C   0  0  0  0  0  0  0  0  0  0  0  0
    1.0691    1.8805   -0.4657 C   0  0  0  0  0  0  0  0  0  0  0  0
   -0.4522    0.9125   -1.0312 C   0  0  0  0  0  0  0  0  0  0  0  0
   -0.2705   -1.0943   -0.9666 C   0  0  0  0  0  0  0  0  0  0  0  0
    1.2891   -1.8316   -0.3711 N   0  0  0  0  0  0  0  0  0  0  0  0
   -1.3357   -2.4537    0.0558 C   0  0  0  0  0  0  0  0  0  0  0  0
   -1.7314    1.8404    0.1691 O   0  0  0  0  0  0  0  0  0  0  0  0
    0.6495    3.4453    0.0045 C   0  0  0  0  0  0  0  0  0  0  0  0
    1.0595    3.7502    1.3062 O   0  0  0  0  0  0  0  0  0  0  0  0
    3.4722    1.9718    0.2141 C   0  0  0  0  0  0  0  0  0  0  0  0
    4.0916    1.7201    1.4277 O   0  0  0  0  0  0  0  0  0  0  0  0
  1  2  1  0
  2  3  1  0
  3  4  1  0
  3  6  1  6
  4  5  1  0
  5  1  1  0
  5  9  2  0
  6  7  1  0
  6  8  2  0
 10 11  2  0
 11 12  1  0
 11 20  1  0
 12 13  2  0
 12 18  1  0
 13 14  1  0
 13 17  1  0
 14 15  2  0
 14 16  1  0
 15 10  1  0
 18 19  1  0
 20 21  1  0
M  END
>  <DRUGBANK_ID>  (1) 
DB16554

>  <COMMON_NAME>  (1) 
Metadoxine

>  <CAS_NUMBER>  (1) 
74536-44-0

>  <UNII>  (1) 
EJQ7M98H5J

>  <SYNONYMS>  (1) 
Pyridoxine mixture with Pyrrolidonecarboxylic Acid; Pyridoxine pyroglutamate

$$$$
