
     RDKit          3D

 27 29  0  0  0  0  0  0  0  0999 V2000
    1.4185   -0.7270    0.1947 C   0  0  0  0  0  0  0  0  0  0  0  0
    0.5094   -1.7806    0.0307 C   0  0  0  0  0  0  0  0  0  0  0  0
   -0.9110   -1.5376    0.0884 C   0  0  0  0  0  0  0  0  0  0  0  0
   -1.4768   -0.3269    0.4476 C   0  0  0  0  0  0  0  0  0  0  0  0
   -0.5335    0.5981    0.8873 C   0  0  0  0  0  0  0  0  0  0  0  0
    0.8577    0.4276    0.6381 C   0  0  0  0  0  0  0  0  0  0  0  0
    2.7548   -0.5268   -0.0394 O   0  0  0  0  0  0  0  0  0  0  0  0
    3.6757   -1.3957    0.5802 C   0  0  0  0  0  0  0  0  0  0  0  0
    0.7176   -3.1064   -0.1912 O   0  0  0  0  0  0  0  0  0  0  0  0
    2.0457   -3.4886   -0.3993 C   0  0  0  0  0  0  0  0  0  0  0  0
   -2.9730    0.0007    0.2646 C   0  0  0  0  0  0  0  0  0  0  0  0
   -3.5797    1.1530    1.2318 C   0  0  0  0  0  0  0  0  0  0  0  0
   -3.3684    2.5611    0.8801 N   0  0  0  0  0  0  0  0  0  0  0  0
   -2.9533    3.7847    1.6351 C   0  0  0  0  0  0  0  0  0  0  0  0
   -3.1499    5.0296    0.5970 C   0  0  0  0  0  0  0  0  0  0  0  0
   -2.6080    4.9596   -0.8099 N   0  0  0  0  0  0  0  0  0  0  0  0
   -3.0504    3.6913   -1.4031 C   0  0  0  0  0  0  0  0  0  0  0  0
   -2.7406    2.6471   -0.3954 C   0  0  0  0  0  0  0  0  0  0  0  0
   -1.1421    5.1849   -0.9478 C   0  0  0  0  0  0  0  0  0  0  0  0
   -0.0768    4.3822   -0.1949 C   0  0  0  0  0  0  0  0  0  0  0  0
    0.1572    2.9530   -0.6396 C   0  0  0  0  0  0  0  0  0  0  0  0
    0.4823    2.4520   -2.0015 C   0  0  0  0  0  0  0  0  0  0  0  0
    1.0155    3.3537   -2.8244 C   0  0  0  0  0  0  0  0  0  0  0  0
    1.3845    2.9556   -4.1047 C   0  0  0  0  0  0  0  0  0  0  0  0
    1.2889    1.6025   -4.4487 C   0  0  0  0  0  0  0  0  0  0  0  0
    0.7134    0.6696   -3.6280 C   0  0  0  0  0  0  0  0  0  0  0  0
    0.1863    1.1178   -2.4175 C   0  0  0  0  0  0  0  0  0  0  0  0
  1  2  2  0
  1  7  1  0
  2  9  1  0
  2  3  1  0
  3  4  2  0
  4  5  1  0
  4 11  1  0
  5  6  2  0
  6  1  1  0
  7  8  1  0
  9 10  1  0
 11 12  1  0
 12 13  1  0
 13 14  1  0
 13 18  1  0
 14 15  1  0
 15 16  1  0
 16 17  1  0
 16 19  1  0
 17 18  1  0
 19 20  1  0
 20 21  1  0
 21 22  1  0
 22 23  2  0
 23 24  1  0
 24 25  2  0
 25 26  1  0
 26 27  2  0
 27 22  1  0
M  END
>  <DRUGBANK_ID>  (1) 
DB06618

>  <COMMON_NAME>  (1) 
Cutamesine

>  <CAS_NUMBER>  (1) 
165377-43-5

>  <UNII>  (1) 
9J7A4144BX

>  <SYNONYMS>  (1) 
Cutamesine

$$$$
