870
     RDKit          3D

 18 19  0  0  1  0  0  0  0  0999 V2000
   -1.0438    0.0613   -0.0155 S   0  0  0  0  0  0  0  0  0  0  0  0
    6.1291    6.2780    0.9809 O   0  0  0  0  0  0  0  0  0  0  0  0
    4.3781    6.8112    2.2766 O   0  0  0  0  0  0  0  0  0  0  0  0
   -1.3408    3.1130    0.0491 O   0  0  0  0  0  0  0  0  0  0  0  0
    4.0046    6.7068   -0.1334 C   0  0  0  0  0  0  0  0  0  0  0  0
    2.8759    5.6847   -0.1410 C   0  0  0  0  0  0  0  0  0  0  0  0
    2.7994    4.7152   -1.1502 C   0  0  0  0  0  0  0  0  0  0  0  0
    1.9151    5.6679    0.8863 C   0  0  0  0  0  0  0  0  0  0  0  0
    0.8976    3.6917   -0.0455 C   0  0  0  0  0  0  0  0  0  0  0  0
    3.4568    8.1268   -0.2838 C   0  0  0  0  0  0  0  0  0  0  0  0
    1.8092    3.7289   -1.1087 C   0  0  0  0  0  0  0  0  0  0  0  0
    0.9631    4.6524    0.9633 C   0  0  0  0  0  0  0  0  0  0  0  0
    4.8292    6.6074    1.1530 C   0  0  0  0  0  0  0  0  0  0  0  0
   -0.1876    2.6781   -0.0011 C   0  0  0  0  0  0  0  0  0  0  0  0
    0.1778    1.2688   -0.0064 C   0  0  0  0  0  0  0  0  0  0  0  0
    1.4353    0.6931    0.0193 C   0  0  0  0  0  0  0  0  0  0  0  0
    1.3964   -0.7278    0.0048 C   0  0  0  0  0  0  0  0  0  0  0  0
    0.1070   -1.2057   -0.0091 C   0  0  0  0  0  0  0  0  0  0  0  0
  1 15  1  0
  1 18  1  0
  2 13  1  0
  3 13  2  0
  4 14  2  0
  5  6  1  0
  5 10  1  0
  5 13  1  0
  6  7  2  0
  6  8  1  0
  7 11  1  0
  8 12  2  0
  9 11  2  0
  9 12  1  0
  9 14  1  0
 14 15  1  0
 15 16  2  0
 16 17  1  0
 17 18  2  0
M  END
>  <DRUGBANK_ID>  (1) 
DB00870

>  <SECONDARY_ACCESSION_NUMBERS>  (1) 
APRD00230

>  <COMMON_NAME>  (1) 
Suprofen

>  <CAS_NUMBER>  (1) 
40828-46-4

>  <UNII>  (1) 
988GU2F9PE

>  <SYNONYMS>  (1) 
(±)-2-(p-(2-thenoyl)phenyl)propionic acid; 2-(4-(2-Thenoyl)phenyl)propionsäure; 2-[4-(Thiophene-2-carbonyl)-phenyl]-propionic acid; 4-(2-Thenoyl)hydratropsäure; p-2-thenoylhydratropic acid; Suprofen; Suprofene; Suprofeno; Suprofenum; Sutoprofen; α-methyl-4-(2-thienylcarbonyl)benzeneacetic acid

$$$$
