
     RDKit          3D

 10  9  0  0  0  0  0  0  0  0999 V2000
    0.9782   -0.0000   -0.1037 C   0  0  0  0  0  0  0  0  0  0  0  0
    0.4122    1.1502    0.3474 O   0  0  0  0  0  0  0  0  0  0  0  0
    0.3037   -0.9236   -0.5171 O   0  0  0  0  0  0  0  0  0  0  0  0
    2.5358    0.0230   -0.0698 C   0  0  1  0  0  0  0  0  0  0  0  0
    3.0043    1.3494    0.4612 N   0  0  0  0  0  0  0  0  0  0  0  0
    3.0654   -1.1198    0.8483 C   0  0  0  0  0  0  0  0  0  0  0  0
    2.6337   -2.5642    0.4663 C   0  0  0  0  0  0  0  0  0  0  0  0
    3.1179   -3.0388   -0.9025 C   0  0  0  0  0  0  0  0  0  0  0  0
    3.1332   -3.5826    1.4872 C   0  0  0  0  0  0  0  0  0  0  0  0
    3.0814   -0.0469   -1.4990 C   0  0  0  0  0  0  0  0  0  0  0  0
  2  1  1  0
  3  1  2  0
  4  1  1  0
  4  5  1  0
  4 10  1  6
  6  4  1  0
  7  6  1  0
  8  7  1  0
  9  7  1  0
M  END
>  <DRUGBANK_ID>  (1) 
DB04063

>  <SECONDARY_ACCESSION_NUMBERS>  (1) 
EXPT00130

>  <COMMON_NAME>  (1) 
alpha-Methylleucine

>  <CAS_NUMBER>  (1) 
105743-53-1

>  <UNII>  (1) 
83ASW57LTZ

>  <SYNONYMS>  (1) 
(S)-2-Methylleucine; 2-Methyl-L-leucine

$$$$
