
     RDKit          3D

 29 32  0  0  0  0  0  0  0  0999 V2000
    1.0524   -0.0712   -0.1068 C   0  0  0  0  0  0  0  0  0  0  0  0
    0.5463   -0.7724   -1.2447 O   0  0  0  0  0  0  0  0  0  0  0  0
    0.9105   -0.2093   -2.4400 C   0  0  0  0  0  0  0  0  0  0  0  0
   -0.0577   -0.0351   -3.4231 C   0  0  0  0  0  0  0  0  0  0  0  0
   -1.3248   -0.4075   -3.1818 F   0  0  0  0  0  0  0  0  0  0  0  0
    0.2631    0.5457   -4.6571 C   0  0  0  0  0  0  0  0  0  0  0  0
   -0.8162    0.7500   -5.6783 C   0  0  0  0  0  0  0  0  0  0  0  0
    1.5934    0.9343   -4.9078 C   0  0  0  0  0  0  0  0  0  0  0  0
    2.5931    0.7438   -3.9426 C   0  0  0  0  0  0  0  0  0  0  0  0
    3.9373    1.0736   -4.2174 N   0  0  0  0  0  0  0  0  0  0  0  0
    4.9932    0.9471   -3.3092 C   0  0  0  0  0  0  0  0  0  0  0  0
    5.2781   -0.2851   -2.8792 N   0  0  0  0  0  0  0  0  0  0  0  0
    6.2333   -0.4096   -1.9542 C   0  0  0  0  0  0  0  0  0  0  0  0
    6.9180    0.6502   -1.4024 C   0  0  0  0  0  0  0  0  0  0  0  0
    7.9612    0.3807   -0.3687 C   0  0  0  0  0  0  0  0  0  0  0  0
    6.5656    1.9016   -1.8932 C   0  0  0  0  0  0  0  0  0  0  0  0
    7.2169    3.0635   -1.4345 N   0  0  0  0  0  0  0  0  0  0  0  0
    6.8550    4.3916   -1.7310 C   0  0  0  0  0  0  0  0  0  0  0  0
    7.8301    5.2850   -2.2382 C   0  0  0  0  0  0  0  0  0  0  0  0
    7.4936    6.5932   -2.6178 C   0  0  0  0  0  0  0  0  0  0  0  0
    6.1855    6.9861   -2.4444 C   0  0  0  0  0  0  0  0  0  0  0  0
    5.6599    8.2324   -2.7417 O   0  0  0  0  0  0  0  0  0  0  0  0
    4.3192    8.0928   -2.3502 C   0  0  0  0  0  0  0  0  0  0  0  0
    3.4914    8.9822   -2.4246 O   0  0  0  0  0  0  0  0  0  0  0  0
    4.0750    6.8257   -1.8691 N   0  0  0  0  0  0  0  0  0  0  0  0
    5.2446    6.1259   -1.9243 C   0  0  0  0  0  0  0  0  0  0  0  0
    5.5333    4.8321   -1.5611 C   0  0  0  0  0  0  0  0  0  0  0  0
    5.6253    2.0401   -2.8639 N   0  0  0  0  0  0  0  0  0  0  0  0
    2.2283    0.1360   -2.7281 C   0  0  0  0  0  0  0  0  0  0  0  0
  1  2  1  0
  2  3  1  0
  3  4  2  0
  3 29  1  0
  4  5  1  0
  4  6  1  0
  6  7  1  0
  6  8  2  0
  8  9  1  0
  9 10  1  0
  9 29  2  0
 10 11  1  0
 11 12  2  0
 11 28  1  0
 12 13  1  0
 13 14  2  0
 14 15  1  0
 14 16  1  0
 16 17  1  0
 16 28  2  0
 17 18  1  0
 18 19  2  0
 18 27  1  0
 19 20  1  0
 20 21  2  0
 21 22  1  0
 21 26  1  0
 22 23  1  0
 23 24  2  0
 23 25  1  0
 25 26  1  0
 26 27  2  0
M  END
>  <DRUGBANK_ID>  (1) 
DB16191

>  <COMMON_NAME>  (1) 
Ifidancitinib

>  <CAS_NUMBER>  (1) 
1236667-40-5

>  <UNII>  (1) 
R105E71J13

>  <SYNONYMS>  (1) 
Ifidancitinib

$$$$
