
     RDKit          3D

 27 30  0  0  0  0  0  0  0  0999 V2000
    1.2878   -1.4209   -0.0589 C   0  0  0  0  0  0  0  0  0  0  0  0
    2.4725   -0.6850   -0.0276 C   0  0  0  0  0  0  0  0  0  0  0  0
    2.4515    0.7079    0.0450 C   0  0  0  0  0  0  0  0  0  0  0  0
    1.2291    1.3803    0.0825 C   0  0  0  0  0  0  0  0  0  0  0  0
    0.0389    0.6438    0.0258 C   0  0  0  0  0  0  0  0  0  0  0  0
    0.0542   -0.7657   -0.0381 C   0  0  0  0  0  0  0  0  0  0  0  0
   -1.2417   -1.4795   -0.0359 C   0  0  0  0  0  0  0  0  0  0  0  0
   -1.2681    1.3528   -0.0459 C   0  0  0  0  0  0  0  0  0  0  0  0
   -2.3377    0.5738   -0.4082 N   0  0  0  0  0  0  0  0  0  0  0  0
   -2.4445   -0.6388    0.2115 C   0  0  0  0  0  0  0  0  0  0  0  0
   -3.4016   -0.9863    0.8962 O   0  0  0  0  0  0  0  0  0  0  0  0
   -1.3823    2.5409    0.2232 O   0  0  0  0  0  0  0  0  0  0  0  0
    4.1206   -1.6086   -0.0758 Br  0  0  0  0  0  0  0  0  0  0  0  0
   -1.4282   -2.7685   -0.3885 C   0  0  0  0  0  0  0  0  0  0  0  0
   -2.6027   -3.4839   -0.5046 N   0  0  0  0  0  0  0  0  0  0  0  0
   -2.7497   -4.8463   -0.8170 C   0  0  0  0  0  0  0  0  0  0  0  0
   -1.8965   -5.8271   -0.3182 C   0  0  0  0  0  0  0  0  0  0  0  0
   -3.7460   -5.2491   -1.7168 C   0  0  0  0  0  0  0  0  0  0  0  0
   -3.7863   -6.5565   -2.2267 C   0  0  0  0  0  0  0  0  0  0  0  0
   -2.8067   -7.4813   -1.8605 C   0  0  0  0  0  0  0  0  0  0  0  0
   -1.9736   -7.1477   -0.7842 C   0  0  0  0  0  0  0  0  0  0  0  0
   -2.5439   -8.7216   -2.7056 C   0  0  0  0  0  0  0  0  0  0  0  0
   -1.3168   -8.7129   -3.5460 N   0  0  0  0  0  0  0  0  0  0  0  0
   -0.0652   -8.5929   -2.7908 C   0  0  0  0  0  0  0  0  0  0  0  0
   -1.2777   -7.6548   -4.5680 C   0  0  0  0  0  0  0  0  0  0  0  0
   -0.1988   -6.6493   -4.1613 C   0  0  0  0  0  0  0  0  0  0  0  0
    0.2819   -7.1121   -2.8072 C   0  0  0  0  0  0  0  0  0  0  0  0
  1  2  2  0
  1  6  1  0
  2  3  1  0
  2 13  1  0
  3  4  2  0
  4  5  1  0
  5  6  2  0
  5  8  1  0
  6  7  1  0
  7 10  1  0
  7 14  2  0
  8  9  1  0
  8 12  2  0
  9 10  1  0
 10 11  2  0
 14 15  1  0
 15 16  1  0
 16 17  2  0
 16 18  1  0
 17 21  1  0
 18 19  2  0
 19 20  1  0
 20 21  2  0
 20 22  1  0
 22 23  1  0
 23 24  1  0
 23 25  1  0
 24 27  1  0
 25 26  1  0
 26 27  1  0
M  END
>  <DRUGBANK_ID>  (1) 
DB07156

>  <COMMON_NAME>  (1) 
(4Z)-6-bromo-4-({[4-(pyrrolidin-1-ylmethyl)phenyl]amino}methylidene)isoquinoline-1,3(2H,4H)-dione

$$$$
