
     RDKit          3D

 26 29  0  0  0  0  0  0  0  0999 V2000
   -1.0871   -0.6761   -0.6618 N   0  0  0  0  0  0  0  0  0  0  0  0
   -1.4417    0.5904   -0.2600 C   0  0  0  0  0  0  0  0  0  0  0  0
   -0.3382    1.3735   -0.0698 C   0  0  0  0  0  0  0  0  0  0  0  0
    0.7828    0.5269   -0.1367 C   0  0  0  0  0  0  0  0  0  0  0  0
    0.2971   -0.7654   -0.3571 C   0  0  0  0  0  0  0  0  0  0  0  0
   -2.1606   -1.6685   -0.8822 C   0  0  0  0  0  0  0  0  0  0  0  0
   -3.5522   -1.2891   -1.3288 C   0  0  0  0  0  0  0  0  0  0  0  0
   -3.0067   -2.1753    1.0992 C   0  0  0  0  0  0  0  0  0  0  0  0
   -2.1549   -2.6184    0.0992 C   0  0  0  0  0  0  0  0  0  0  0  0
   -5.2575   -3.1426    1.0914 N   0  0  0  0  0  0  0  0  0  0  0  0
   -4.2579   -2.4063    0.5775 C   0  0  0  0  0  0  0  0  0  0  0  0
   -4.6808   -1.9250   -0.6404 C   0  0  0  0  0  0  0  0  0  0  0  0
   -6.1056   -2.1685   -0.6920 N   0  0  0  0  0  0  0  0  0  0  0  0
   -6.3763   -2.9972    0.3419 C   0  0  0  0  0  0  0  0  0  0  0  0
   -7.8250   -3.8183    0.9605 S   0  0  0  0  0  0  0  0  0  0  0  0
   -8.4439   -4.6908   -0.0910 O   0  0  0  0  0  0  0  0  0  0  0  0
   -7.1144   -4.9588    2.2938 C   0  0  0  0  0  0  0  0  0  0  0  0
   -6.1767   -6.0527    1.7741 C   0  0  0  0  0  0  0  0  0  0  0  0
   -5.0135   -5.6008    1.2400 N   0  0  0  0  0  0  0  0  0  0  0  0
   -4.1891   -6.4678    0.6308 C   0  0  0  0  0  0  0  0  0  0  0  0
   -4.4151   -7.8199    0.6283 C   0  0  0  0  0  0  0  0  0  0  0  0
   -5.5516   -8.3216    1.2802 C   0  0  0  0  0  0  0  0  0  0  0  0
   -6.4679   -7.4277    1.8764 C   0  0  0  0  0  0  0  0  0  0  0  0
   -7.7189   -7.7717    2.6314 C   0  0  0  0  0  0  0  0  0  0  0  0
   -5.5851   -9.6908    1.2105 O   0  0  0  0  0  0  0  0  0  0  0  0
   -6.6702  -10.3710    1.8053 C   0  0  0  0  0  0  0  0  0  0  0  0
  1  2  1  0
  1  6  1  0
  2  3  2  0
  3  4  1  0
  4  5  2  0
  5  1  1  0
  6  7  2  0
  7 12  1  0
  8  9  2  0
  9  6  1  0
 10 11  1  0
 11  8  1  0
 11 12  2  0
 12 13  1  0
 13 14  2  0
 14 10  1  0
 14 15  1  0
 15 16  2  0
 15 17  1  0
 17 18  1  0
 18 19  2  0
 19 20  1  0
 20 21  2  0
 21 22  1  0
 22 23  2  0
 22 25  1  0
 23 18  1  0
 23 24  1  0
 25 26  1  0
M  END
>  <DRUGBANK_ID>  (1) 
DB11964

>  <COMMON_NAME>  (1) 
Ilaprazole

>  <CAS_NUMBER>  (1) 
172152-36-2

>  <UNII>  (1) 
776Q6XX45J

>  <SYNONYMS>  (1) 
Ilaprazole; Ilaprazolum

$$$$
