
     RDKit          3D

 22 25  0  0  1  0  0  0  0  0999 V2000
    1.3544   -0.5152   -0.2619 C   0  0  0  0  0  0  0  0  0  0  0  0
    0.2375    0.7561   -1.1148 C   0  0  2  0  0  0  0  0  0  0  0  0
   -0.0720    0.2624   -2.4577 C   0  0  0  0  0  0  0  0  0  0  0  0
    1.1757   -0.1880   -3.1182 C   0  0  0  0  0  0  0  0  0  0  0  0
    2.0520    1.0230   -3.2179 C   0  0  2  0  0  0  0  0  0  0  0  0
    3.3419    0.6539   -3.9822 C   0  0  0  0  0  0  0  0  0  0  0  0
    3.3724   -0.4023   -4.9214 C   0  0  0  0  0  0  0  0  0  0  0  0
    4.5465   -0.8091   -5.5628 C   0  0  0  0  0  0  0  0  0  0  0  0
    5.7350   -0.1352   -5.3282 C   0  0  0  0  0  0  0  0  0  0  0  0
    5.7161    0.9565   -4.4512 C   0  0  0  0  0  0  0  0  0  0  0  0
    4.5275    1.3642   -3.7793 C   0  0  0  0  0  0  0  0  0  0  0  0
    4.5709    2.5280   -2.8108 C   0  0  0  0  0  0  0  0  0  0  0  0
    3.1705    2.9533   -2.1635 C   0  0  0  0  0  0  0  0  0  0  0  0
    2.2941    1.6413   -1.7294 C   0  0  1  0  0  0  0  0  0  0  0  0
    1.1209    1.4147   -0.2376 C   0  0  2  0  0  0  0  0  0  0  0  0
   -0.5211    0.3586    0.4389 C   0  0  0  0  0  0  0  0  0  0  0  0
   -1.8679    0.8802   -0.1434 C   0  0  2  0  0  0  0  0  0  0  0  0
   -0.9411    1.9289   -0.4786 C   0  0  1  0  0  0  0  0  0  0  0  0
   -0.7169    2.6174    0.8892 O   0  0  0  0  0  0  0  0  0  0  0  0
   -2.8926    1.1812    0.7685 O   0  0  0  0  0  0  0  0  0  0  0  0
    6.8256   -0.6232   -5.9985 O   0  0  0  0  0  0  0  0  0  0  0  0
    8.0593    0.0538   -5.7842 C   0  0  0  0  0  0  0  0  0  0  0  0
  2  1  1  1
  2  3  1  0
  2 15  1  0
  2 18  1  0
  3  4  1  0
  5  4  1  1
  5  6  1  0
  5 14  1  0
  6  7  2  0
  6 11  1  0
  7  8  1  0
  8  9  2  0
  9 10  1  0
  9 21  1  0
 10 11  2  0
 11 12  1  0
 12 13  1  0
 14 13  1  6
 14 15  1  0
 15 16  1  1
 16 17  1  0
 17 18  1  0
 17 20  1  1
 18 19  1  1
 21 22  1  0
M  END
>  <DRUGBANK_ID>  (1) 
DB13386

>  <COMMON_NAME>  (1) 
Epimestrol

>  <CAS_NUMBER>  (1) 
7004-98-0

>  <UNII>  (1) 
7IVE3SDZ38

>  <SYNONYMS>  (1) 
Epimestrol

$$$$
