W71
     RDKit          3D

 25 27  0  0  0  0  0  0  0  0999 V2000
   -1.2343    0.4694   -0.1670 O   0  0  0  0  0  0  0  0  0  0  0  0
    0.0492    0.9797   -0.0879 N   0  0  0  0  0  0  0  0  0  0  0  0
    0.8459   -0.0931   -0.0296 C   0  0  0  0  0  0  0  0  0  0  0  0
    2.3080    0.0474    0.0043 C   0  0  0  0  0  0  0  0  0  0  0  0
    0.1157   -1.2920   -0.0225 C   0  0  0  0  0  0  0  0  0  0  0  0
   -1.1837   -0.8869   -0.0703 C   0  0  0  0  0  0  0  0  0  0  0  0
   -2.4444   -1.6371    0.0348 C   0  0  0  0  0  0  0  0  0  0  0  0
   -3.1441   -1.2939    1.3573 C   0  0  0  0  0  0  0  0  0  0  0  0
   -3.6085    0.1742    1.4135 C   0  0  0  0  0  0  0  0  0  0  0  0
   -4.4394    0.4738    0.1929 C   0  0  0  0  0  0  0  0  0  0  0  0
   -5.5956   -0.5033    0.2295 C   0  0  0  0  0  0  0  0  0  0  0  0
   -6.7154   -0.0902    1.1771 C   0  0  0  0  0  0  0  0  0  0  0  0
   -7.1783    1.3640    1.0301 C   0  0  0  0  0  0  0  0  0  0  0  0
   -8.0259    1.6814   -0.1035 O   0  0  0  0  0  0  0  0  0  0  0  0
   -7.5668    1.4632   -1.3735 C   0  0  0  0  0  0  0  0  0  0  0  0
   -7.3372    0.1901   -1.8706 C   0  0  0  0  0  0  0  0  0  0  0  0
   -6.5438   -0.0078   -3.0146 C   0  0  0  0  0  0  0  0  0  0  0  0
   -6.4126    1.0279   -3.9094 C   0  0  0  0  0  0  0  0  0  0  0  0
   -7.0179    2.2477   -3.5983 C   0  0  0  0  0  0  0  0  0  0  0  0
   -7.5027    2.4943   -2.2950 C   0  0  0  0  0  0  0  0  0  0  0  0
   -5.6661    0.8645   -5.1743 C   0  0  0  0  0  0  0  0  0  0  0  0
   -4.8585    1.7203   -5.6741 N   0  0  0  0  0  0  0  0  0  0  0  0
   -4.5193    1.1524   -6.9871 C   0  0  0  0  0  0  0  0  0  0  0  0
   -5.0465   -0.2644   -6.9544 C   0  0  0  0  0  0  0  0  0  0  0  0
   -5.9279   -0.2968   -5.8361 O   0  0  0  0  0  0  0  0  0  0  0  0
  1  2  1  0
  1  6  1  0
  2  3  2  0
  3  4  1  0
  3  5  1  0
  5  6  2  0
  6  7  1  0
  7  8  1  0
  8  9  1  0
  9 10  1  0
 10 11  1  0
 11 12  1  0
 12 13  1  0
 13 14  1  0
 14 15  1  0
 15 16  2  0
 15 20  1  0
 16 17  1  0
 17 18  2  0
 18 19  1  0
 18 21  1  0
 19 20  2  0
 21 22  2  0
 21 25  1  0
 22 23  1  0
 23 24  1  0
 24 25  1  0
M  END
>  <DRUGBANK_ID>  (1) 
DB08726

>  <COMMON_NAME>  (1) 
5-(7-(4-(4,5-dihydro-2-oxazolyl)phenoxy)heptyl)-3-methyl isoxazole

>  <UNII>  (1) 
FX8Q9PI4VP

$$$$
