1064
     RDKit          3D

 15 15  0  0  1  0  0  0  0  0999 V2000
    1.0447    0.0155   -0.0303 O   0  0  0  0  0  0  0  0  0  0  0  0
    2.7937    1.4476    5.4389 O   0  0  0  0  0  0  0  0  0  0  0  0
    1.9761    3.9723    4.8251 O   0  0  0  0  0  0  0  0  0  0  0  0
    2.5539   -1.7690    1.6558 N   0  0  0  0  0  0  0  0  0  0  0  0
    0.6019   -0.2629    1.3049 C   0  0  0  0  0  0  0  0  0  0  0  0
    1.0799   -1.6763    1.6843 C   0  0  0  0  0  0  0  0  0  0  0  0
    3.0458   -3.0546    2.1423 C   0  0  0  0  0  0  0  0  0  0  0  0
    1.0367    0.8414    2.2508 C   0  0  0  0  0  0  0  0  0  0  0  0
    2.5816   -4.1853    1.2304 C   0  0  0  0  0  0  0  0  0  0  0  0
    4.5724   -2.9891    2.1759 C   0  0  0  0  0  0  0  0  0  0  0  0
    1.7675    0.6065    3.4326 C   0  0  0  0  0  0  0  0  0  0  0  0
    0.6450    2.1589    1.9567 C   0  0  0  0  0  0  0  0  0  0  0  0
    2.0883    1.6510    4.2858 C   0  0  0  0  0  0  0  0  0  0  0  0
    0.9600    3.2035    2.8239 C   0  0  0  0  0  0  0  0  0  0  0  0
    1.6775    2.9445    3.9805 C   0  0  0  0  0  0  0  0  0  0  0  0
  1  5  1  0
  2 13  1  0
  3 15  1  0
  4  6  1  0
  4  7  1  0
  5  6  1  0
  5  8  1  0
  7  9  1  0
  7 10  1  0
  8 11  2  0
  8 12  1  0
 11 13  1  0
 12 14  2  0
 13 15  2  0
 14 15  1  0
M  END
>  <DRUGBANK_ID>  (1) 
DB01064

>  <SECONDARY_ACCESSION_NUMBERS>  (1) 
APRD00182

>  <COMMON_NAME>  (1) 
Isoprenaline

>  <CAS_NUMBER>  (1) 
7683-59-2

>  <UNII>  (1) 
L628TT009W

>  <SYNONYMS>  (1) 
(±)-isoprenaline; (±)-isoproterenol; 1-(3,4-dihydroxyphenyl)-2-(isopropylamino)ethanol; 1-(3,4-dihydroxyphenyl)-2-isopropylaminoethanol; 3,4-dihydroxy-α-[(isopropylamino)methyl]benzyl alcohol; Isoprenalina; Isoprénaline; Isoprenaline; Isoprenalinum; Isopropyl noradrenaline; Isoproterenol; N-isopropyl-β-dihydroxyphenyl-β-hydroxyethylamine; N-Isopropylnoradrenaline; N-Isopropylnorepinephrine; α-(isopropylaminomethyl)protocatechuyl alcohol

$$$$
