
     RDKit          3D

  4  0  0  0  0  0  0  0  0  0999 V2000
    0.8288   -1.9987   -0.7123 Zn  0  0  0  0  0 15  0  0  0  0  0  0
    0.0669   -0.6645    0.7240 O   0  0  0  0  0  0  0  0  0  0  0  0
    2.4122   -0.7011   -0.6906 O   0  0  0  0  0  0  0  0  0  0  0  0
    0.9500    1.1872   -0.9210 O   0  0  0  0  0  0  0  0  0  0  0  0
M  END
>  <DRUGBANK_ID>  (1) 
DB02165

>  <SECONDARY_ACCESSION_NUMBERS>  (1) 
EXPT03289

>  <COMMON_NAME>  (1) 
Zinc trihydroxide

$$$$
