761
     RDKit          3D

 19 20  0  0  0  0  0  0  0  0999 V2000
    2.4279   -0.7267   -0.0263 C   0  0  0  0  0  0  0  0  0  0  0  0
    1.2034   -1.4194   -0.0106 C   0  0  0  0  0  0  0  0  0  0  0  0
   -0.0343   -0.7296   -0.0192 C   0  0  0  0  0  0  0  0  0  0  0  0
    0.0280    0.6793   -0.0123 C   0  0  0  0  0  0  0  0  0  0  0  0
    1.2513    1.3614   -0.0090 C   0  0  0  0  0  0  0  0  0  0  0  0
    2.4505    0.6636   -0.0256 C   0  0  0  0  0  0  0  0  0  0  0  0
   -1.3277   -1.3474   -0.0538 C   0  0  0  0  0  0  0  0  0  0  0  0
   -2.5232   -0.5792   -0.0559 C   0  0  0  0  0  0  0  0  0  0  0  0
   -2.3835    0.7910    0.1755 C   0  0  0  0  0  0  0  0  0  0  0  0
   -1.1435    1.4186    0.0583 C   0  0  0  0  0  0  0  0  0  0  0  0
   -3.4373    1.6462    0.7612 C   0  0  0  0  0  0  0  0  0  0  0  0
   -3.5388    2.8503    0.6407 O   0  0  0  0  0  0  0  0  0  0  0  0
   -4.3430    0.9015    1.4271 O   0  0  0  0  0  0  0  0  0  0  0  0
   -3.7753   -1.2300   -0.2674 N   0  0  0  0  0  0  0  0  0  0  0  0
   -5.0640   -0.7418   -0.5433 C   0  0  0  0  0  0  0  0  0  0  0  0
   -6.0303   -1.4905   -0.3879 O   0  0  0  0  0  0  0  0  0  0  0  0
   -5.3523    0.7464   -1.0087 C   0  0  0  0  0  0  0  0  0  0  0  0
   -4.6792    1.4243   -1.7293 O   0  0  0  0  0  0  0  0  0  0  0  0
   -6.3882    1.2835   -0.3037 O   0  0  0  0  0  0  0  0  0  0  0  0
  1  2  2  0
  1  6  1  0
  2  3  1  0
  3  4  2  0
  3  7  1  0
  4  5  1  0
  4 10  1  0
  5  6  2  0
  7  8  2  0
  8  9  1  0
  8 14  1  0
  9 10  2  0
  9 11  1  0
 11 12  2  0
 11 13  1  0
 14 15  1  0
 15 16  2  0
 15 17  1  0
 17 18  2  0
 17 19  1  0
M  END
>  <DRUGBANK_ID>  (1) 
DB01734

>  <SECONDARY_ACCESSION_NUMBERS>  (1) 
EXPT00298

>  <COMMON_NAME>  (1) 
3-(Oxalyl-Amino)-Naphthalene-2-Carboxylic Acid

$$$$
