Resveratrol
     RDKit          3D

 17 18  0  0  0  0  0  0  0  0999 V2000
    2.2776   -0.0207    0.0112 O   0  0  0  0  0  0  0  0  0  0  0  0
    0.9154   -0.0345    0.0123 C   0  0  0  0  0  0  0  0  0  0  0  0
    0.1806   -1.2150    0.0097 C   0  0  0  0  0  0  0  0  0  0  0  0
   -1.2221   -1.1570   -0.0024 C   0  0  0  0  0  0  0  0  0  0  0  0
   -1.8930    0.0783   -0.0111 C   0  0  0  0  0  0  0  0  0  0  0  0
   -3.3691    0.1169   -0.0373 C   0  0  0  0  0  0  0  0  0  0  0  0
   -4.1000    1.2483   -0.0572 C   0  0  0  0  0  0  0  0  0  0  0  0
   -5.5646    1.2854   -0.0967 C   0  0  0  0  0  0  0  0  0  0  0  0
   -6.3390    0.4840    0.7519 C   0  0  0  0  0  0  0  0  0  0  0  0
   -7.7273    0.5689    0.6988 C   0  0  0  0  0  0  0  0  0  0  0  0
   -8.5185   -0.1951    1.5059 O   0  0  0  0  0  0  0  0  0  0  0  0
   -8.3554    1.4411   -0.1817 C   0  0  0  0  0  0  0  0  0  0  0  0
   -7.5857    2.2535   -1.0041 C   0  0  0  0  0  0  0  0  0  0  0  0
   -8.2411    3.1021   -1.8479 O   0  0  0  0  0  0  0  0  0  0  0  0
   -6.1954    2.1938   -0.9621 C   0  0  0  0  0  0  0  0  0  0  0  0
   -1.1178    1.2466    0.0030 C   0  0  0  0  0  0  0  0  0  0  0  0
    0.2744    1.1926    0.0145 C   0  0  0  0  0  0  0  0  0  0  0  0
  1  2  1  0
  2  3  2  0
  2 17  1  0
  3  4  1  0
  4  5  2  0
  5  6  1  0
  5 16  1  0
  6  7  2  0
  7  8  1  0
  8  9  2  0
  8 15  1  0
  9 10  1  0
 10 11  1  0
 10 12  2  0
 12 13  1  0
 13 14  1  0
 13 15  2  0
 16 17  2  0
M  END
>  <DRUGBANK_ID>  (1) 
DB02709

>  <SECONDARY_ACCESSION_NUMBERS>  (1) 
EXPT02968; DB05073

>  <COMMON_NAME>  (1) 
Resveratrol

>  <CAS_NUMBER>  (1) 
501-36-0

>  <UNII>  (1) 
Q369O8926L

>  <SYNONYMS>  (1) 
(E)-5-(2-(4-hydroxyphenyl)ethenyl)-1,3-benzenediol(E)-5-(2-(4-hydroxyphenyl)ethenyl)-1,3-benzenediol; (E)-resveratrol; 3,4',5-trihydroxy-trans-stilbene; 3,4',5-trihydroxystilbene; 3,5,4'-trihydroxystilbene; 5-[(1E)-2-(4-hydroxyphenyl)ethenyl]benzene-1,3-diol; 5-[(E)-2-(4-Hydroxyphenyl)-Ethenyl] Benzene-1,3 Diol; 5-[(E)-2-(4-hydroxyphenyl)ethenyl]benzene-1,3-diol; 5-[(E)-2-(4-hydroxyphenyl)vinyl]benzene-1,3-diol; trans-resveratrol

$$$$
