I5S
     RDKit          3D

 28 30  0  0  0  0  0  0  0  0999 V2000
   -2.1405   -0.0134    0.0139 Cl  0  0  0  0  0  0  0  0  0  0  0  0
   -0.4234   -0.0377   -0.0296 C   0  0  0  0  0  0  0  0  0  0  0  0
    0.2818    1.1577   -0.0678 C   0  0  0  0  0  0  0  0  0  0  0  0
    1.6746    1.1249   -0.1461 C   0  0  0  0  0  0  0  0  0  0  0  0
    2.3724   -0.0987   -0.1349 C   0  0  0  0  0  0  0  0  0  0  0  0
    3.8732   -0.2351   -0.0788 C   0  0  0  0  0  0  0  0  0  0  0  0
    4.3537   -0.6700    1.1989 O   0  0  0  0  0  0  0  0  0  0  0  0
    3.8284    0.0019    2.3563 C   0  0  0  0  0  0  0  0  0  0  0  0
    4.3331    1.4351    2.4927 C   0  0  0  0  0  0  0  0  0  0  0  0
    3.8803    2.3255    1.4250 N   0  0  0  0  0  0  0  0  0  0  0  0
    4.4915    3.6327    1.4290 C   0  0  0  0  0  0  0  0  0  0  0  0
    6.0207    3.4929    1.4990 C   0  0  0  0  0  0  0  0  0  0  0  0
    6.5572    2.8364    0.2632 N   0  0  0  0  0  0  0  0  0  0  0  0
    8.2421    2.8633    0.0951 S   0  0  0  0  0  0  0  0  0  0  0  0
    8.7458    2.3218    1.3506 O   0  0  0  0  0  0  0  0  0  0  0  0
    8.5495    2.2379   -1.1602 O   0  0  0  0  0  0  0  0  0  0  0  0
    8.7486    4.5766   -0.0192 C   0  0  0  0  0  0  0  0  0  0  0  0
   10.1292    4.7945    0.1143 C   0  0  0  0  0  0  0  0  0  0  0  0
   10.6248    6.0945    0.1568 C   0  0  0  0  0  0  0  0  0  0  0  0
    9.7461    7.1777    0.1325 C   0  0  0  0  0  0  0  0  0  0  0  0
    8.3606    6.9810    0.0177 C   0  0  0  0  0  0  0  0  0  0  0  0
    7.4527    8.0522    0.0422 C   0  0  0  0  0  0  0  0  0  0  0  0
    6.1053    7.9354    0.0123 N   0  0  0  0  0  0  0  0  0  0  0  0
    5.6369    6.7072   -0.2075 C   0  0  0  0  0  0  0  0  0  0  0  0
    6.4653    5.6204   -0.4117 C   0  0  0  0  0  0  0  0  0  0  0  0
    7.8478    5.6814   -0.1412 C   0  0  0  0  0  0  0  0  0  0  0  0
    1.6407   -1.2845   -0.0665 C   0  0  0  0  0  0  0  0  0  0  0  0
    0.2511   -1.2565   -0.0349 C   0  0  0  0  0  0  0  0  0  0  0  0
  1  2  1  0
  2  3  2  0
  2 28  1  0
  3  4  1  0
  4  5  2  0
  5  6  1  0
  5 27  1  0
  6  7  1  0
  7  8  1  0
  8  9  1  0
  9 10  1  0
 10 11  1  0
 11 12  1  0
 12 13  1  0
 13 14  1  0
 14 15  2  0
 14 16  2  0
 14 17  1  0
 17 18  2  0
 17 26  1  0
 18 19  1  0
 19 20  2  0
 20 21  1  0
 21 22  1  0
 21 26  2  0
 22 23  2  0
 23 24  1  0
 24 25  2  0
 25 26  1  0
 27 28  2  0
M  END
>  <DRUGBANK_ID>  (1) 
DB07947

>  <COMMON_NAME>  (1) 
ISOQUINOLINE-5-SULFONIC ACID (2-(2-(4-CHLOROBENZYLOXY)ETHYLAMINO)ETHYL)AMIDE

$$$$
