
     RDKit          3D

 13 13  0  0  1  0  0  0  0  0999 V2000
    0.6821    1.2838   -0.1907 C   0  0  0  0  0  0  0  0  0  0  0  0
   -1.4914    0.0274   -0.2127 C   0  0  0  0  0  0  0  0  0  0  0  0
    1.4670    0.0022    0.1436 C   0  0  2  0  0  0  0  0  0  0  0  0
   -0.7182   -1.2125    0.1838 C   0  0  0  0  0  0  0  0  0  0  0  0
    0.7286   -1.2736   -0.2995 C   0  0  1  0  0  0  0  0  0  0  0  0
   -0.8895    1.2939    1.8646 C   0  0  0  0  0  0  0  0  0  0  0  0
   -0.7804    1.2718    0.3204 C   0  0  1  0  0  0  0  0  0  0  0  0
    1.8121   -0.0089    1.5226 O   0  0  0  0  0  0  0  0  0  0  0  0
   -1.2436   -2.1132    0.8342 O   0  0  0  0  0  0  0  0  0  0  0  0
    0.7489   -1.4017   -1.7222 O   0  0  0  0  0  0  0  0  0  0  0  0
   -1.4849    2.3861    2.3847 O   0  0  0  0  0  0  0  0  0  0  0  0
   -0.4547    0.3998    2.5837 O   0  0  0  0  0  0  0  0  0  0  0  0
   -1.4576    2.4315   -0.1975 O   0  0  0  0  0  0  0  0  0  0  0  0
  1  3  1  0
  1  7  1  0
  2  7  1  0
  2  4  1  0
  3  5  1  0
  3  8  1  1
  4  9  2  0
  4  5  1  0
  5 10  1  6
  6 11  1  0
  6 12  2  0
  7  6  1  0
  7 13  1  6
M  END
>  <DRUGBANK_ID>  (1) 
DB03868

>  <SECONDARY_ACCESSION_NUMBERS>  (1) 
EXPT01264

>  <COMMON_NAME>  (1) 
3-Dehydroquinic Acid

>  <UNII>  (1) 
Q8HL497GUU

$$$$
