
     RDKit          3D

 15 12  0  0  0  0  0  0  0  0999 V2000
    1.0538    0.2092    0.1553 C   0  0  0  0  0  0  0  0  0  0  0  0
    0.6383    1.6141    0.7201 C   0  0  0  0  0  0  0  0  0  0  0  0
   -0.0218    2.2786   -0.1925 O   0  0  0  0  0  0  0  0  0  0  0  0
    1.0897    1.9865    1.8040 O   0  0  0  0  0  0  0  0  0  0  0  0
    0.6026   -0.4050   -1.2607 C   0  0  0  0  0  0  0  0  0  0  0  0
    1.0064   -1.8730   -1.6660 C   0  0  0  0  0  0  0  0  0  0  0  0
    0.4486   -3.0948   -0.8356 C   0  0  0  0  0  0  0  0  0  0  0  0
   -0.2260   -3.9409   -1.4532 O   0  0  0  0  0  0  0  0  0  0  0  0
    0.9221   -3.1090    0.3503 O   0  0  0  0  0  0  0  0  0  0  0  0
   -1.0248   -0.5950   -1.3057 C   0  0  0  0  0  0  0  0  0  0  0  0
   -1.4537    0.3818   -2.0840 O   0  0  0  0  0  0  0  0  0  0  0  0
   -1.5704   -0.9969   -0.2773 O   0  0  0  0  0  0  0  0  0  0  0  0
    1.0868    0.4826   -2.1562 O   0  0  0  0  0  0  0  0  0  0  0  0
    2.3810   -1.8976    0.7129 Na  0  0  0  0  0 15  0  0  0  0  0  0
   -0.3358    1.7214   -1.8374 Fe  0  0  0  0  0 15  0  0  0  0  0  0
  1  2  1  0
  1  5  1  0
  2  3  2  0
  2  4  1  0
  5  6  1  0
  5 10  1  0
  5 13  1  0
  6  7  1  0
  7  8  2  0
  7  9  1  0
 10 11  2  0
 10 12  1  0
M  CHG  6   4  -1   9  -1  12  -1  13  -1  14   1  15   3
M  END
>  <DRUGBANK_ID>  (1) 
DB13771

>  <COMMON_NAME>  (1) 
Ferric sodium citrate

>  <CAS_NUMBER>  (1) 
52031-09-1

>  <UNII>  (1) 
434C3EI07T

$$$$
