
     RDKit          3D

 23 24  0  0  0  0  0  0  0  0999 V2000
    1.5721   -1.1685    0.0228 C   0  0  0  0  0  0  0  0  0  0  0  0
    2.5265   -0.1503    0.1199 C   0  0  0  0  0  0  0  0  0  0  0  0
    2.0152    1.1524    0.3058 C   0  0  0  0  0  0  0  0  0  0  0  0
    0.2053   -0.8463    0.0470 C   0  0  0  0  0  0  0  0  0  0  0  0
   -0.2054    0.4734    0.0554 C   0  0  0  0  0  0  0  0  0  0  0  0
    0.6803    1.5214    0.1491 C   0  0  0  0  0  0  0  0  0  0  0  0
   -1.5721    0.4266   -0.0027 N   0  0  0  0  0  0  0  0  0  0  0  0
   -1.9405   -0.8890    0.0301 C   0  0  0  0  0  0  0  0  0  0  0  0
   -0.8755   -1.6679    0.0647 N   0  0  0  0  0  0  0  0  0  0  0  0
   -3.3412   -1.3861   -0.0106 C   0  0  0  0  0  0  0  0  0  0  0  0
   -3.5465   -2.3156   -1.2083 C   0  0  0  0  0  0  0  0  0  0  0  0
   -2.6403   -3.5517   -1.2214 C   0  0  0  0  0  0  0  0  0  0  0  0
   -2.8389   -4.4490   -0.0286 C   0  0  0  0  0  0  0  0  0  0  0  0
   -3.2125   -5.6185   -0.0808 O   0  0  0  0  0  0  0  0  0  0  0  0
   -2.5864   -3.8784    1.1585 O   0  0  0  0  0  0  0  0  0  0  0  0
   -2.4141    1.5933   -0.0334 C   0  0  0  0  0  0  0  0  0  0  0  0
    3.9004   -0.3635   -0.0052 N   0  0  0  0  0  0  0  0  0  0  0  0
    4.5101   -1.7158    0.0046 C   0  0  0  0  0  0  0  0  0  0  0  0
    4.7954    0.8140    0.0002 C   0  0  0  0  0  0  0  0  0  0  0  0
    4.8585    1.5884   -1.3435 C   0  0  0  0  0  0  0  0  0  0  0  0
    3.4559    2.5297   -1.9280 Cl  0  0  0  0  0  0  0  0  0  0  0  0
    5.3166   -2.0612   -1.2577 C   0  0  0  0  0  0  0  0  0  0  0  0
    6.8939   -1.2380   -1.4023 Cl  0  0  0  0  0  0  0  0  0  0  0  0
  1  2  2  0
  1  4  1  0
  2  3  1  0
  2 17  1  0
  4  5  2  0
  5  6  1  0
  5  7  1  0
  6  3  2  0
  7  8  1  0
  7 16  1  0
  8  9  2  0
  8 10  1  0
  9  4  1  0
 10 11  1  0
 11 12  1  0
 12 13  1  0
 13 14  2  0
 13 15  1  0
 17 18  1  0
 17 19  1  0
 18 22  1  0
 19 20  1  0
 20 21  1  0
 22 23  1  0
M  END
>  <DRUGBANK_ID>  (1) 
DB06769

>  <COMMON_NAME>  (1) 
Bendamustine

>  <CAS_NUMBER>  (1) 
16506-27-7

>  <UNII>  (1) 
9266D9P3PQ

>  <SYNONYMS>  (1) 
Bendamustina; Bendamustine; Ribomustine

$$$$
