
     RDKit          3D

 29 30  0  0  0  0  0  0  0  0999 V2000
    0.9818    0.1050   -0.0543 C   0  0  0  0  0  0  0  0  0  0  0  0
    0.4575   -1.0956   -0.5934 O   0  0  0  0  0  0  0  0  0  0  0  0
    0.8567   -1.3273   -1.8759 C   0  0  0  0  0  0  0  0  0  0  0  0
    2.1788   -1.2382   -2.3140 C   0  0  0  0  0  0  0  0  0  0  0  0
    2.5313   -1.6053   -3.6101 C   0  0  0  0  0  0  0  0  0  0  0  0
    3.7983   -1.5781   -4.1268 O   0  0  0  0  0  0  0  0  0  0  0  0
    4.8072   -1.1447   -3.2192 C   0  0  0  0  0  0  0  0  0  0  0  0
    1.5426   -2.0960   -4.4471 C   0  0  0  0  0  0  0  0  0  0  0  0
    0.2235   -2.2462   -3.9685 C   0  0  0  0  0  0  0  0  0  0  0  0
   -0.7158   -2.9969   -4.7785 C   0  0  0  0  0  0  0  0  0  0  0  0
   -1.9630   -3.4036   -4.5290 C   0  0  0  0  0  0  0  0  0  0  0  0
   -2.8530   -4.2494   -5.3833 C   0  0  0  0  0  0  0  0  0  0  0  0
   -3.9845   -4.4828   -4.9714 O   0  0  0  0  0  0  0  0  0  0  0  0
   -2.4467   -4.8284   -6.7069 C   0  0  0  0  0  0  0  0  0  0  0  0
   -1.2678   -4.7313   -7.3179 C   0  0  0  0  0  0  0  0  0  0  0  0
   -0.8113   -5.2658   -8.5610 C   0  0  0  0  0  0  0  0  0  0  0  0
    0.4539   -5.0314   -8.9610 C   0  0  0  0  0  0  0  0  0  0  0  0
    0.9463   -5.5277  -10.2383 C   0  0  0  0  0  0  0  0  0  0  0  0
    0.1416   -5.3501  -11.3628 C   0  0  0  0  0  0  0  0  0  0  0  0
    0.5324   -5.8456  -12.5964 C   0  0  0  0  0  0  0  0  0  0  0  0
   -0.2134   -5.7472  -13.7443 O   0  0  0  0  0  0  0  0  0  0  0  0
   -1.4328   -5.0175  -13.6145 C   0  0  0  0  0  0  0  0  0  0  0  0
    1.7703   -6.4872  -12.7110 C   0  0  0  0  0  0  0  0  0  0  0  0
    2.0830   -7.0593  -13.9186 O   0  0  0  0  0  0  0  0  0  0  0  0
    2.6489   -6.5621  -11.6206 C   0  0  0  0  0  0  0  0  0  0  0  0
    3.9444   -7.0160  -11.6416 O   0  0  0  0  0  0  0  0  0  0  0  0
    4.4961   -7.2667  -12.9328 C   0  0  0  0  0  0  0  0  0  0  0  0
    2.2043   -6.1226  -10.3660 C   0  0  0  0  0  0  0  0  0  0  0  0
   -0.1291   -1.8045   -2.7107 C   0  0  0  0  0  0  0  0  0  0  0  0
  1  2  1  0
  2  3  1  0
  3  4  2  0
  3 29  1  0
  4  5  1  0
  5  6  1  0
  5  8  2  0
  6  7  1  0
  8  9  1  0
  9 10  1  0
  9 29  2  0
 10 11  2  0
 11 12  1  0
 12 13  2  0
 12 14  1  0
 14 15  2  0
 15 16  1  0
 16 17  2  0
 17 18  1  0
 18 19  2  0
 18 28  1  0
 19 20  1  0
 20 21  1  0
 20 23  2  0
 21 22  1  0
 23 24  1  0
 23 25  1  0
 25 26  1  0
 25 28  2  0
 26 27  1  0
M  END
>  <DRUGBANK_ID>  (1) 
DB18009

>  <COMMON_NAME>  (1) 
AB-001

>  <CAS_NUMBER>  (1) 
2663700-89-6

>  <UNII>  (1) 
TNM7KA4LB3

>  <SYNONYMS>  (1) 
(1E, 4E, 6E)-1-(3, 5-dimethoxyphenyl)- 7-(4-hydroxy-3, 5dimethoxyphenyl) hepta- 1, 4, 6-trien-3-one

$$$$
