
     RDKit          3D

 11 11  0  0  0  0  0  0  0  0999 V2000
    1.0855   -0.0399    0.0333 O   0  0  0  0  0  0  0  0  0  0  0  0
    0.4255    1.8125    0.2648 Hg  0  0  0  0  0  2  0  0  0  0  0  0
   -0.2678    3.7584    0.5081 C   0  0  0  0  0  0  0  0  0  0  0  0
   -1.6543    4.0179    0.6938 C   0  0  0  0  0  0  0  0  0  0  0  0
   -2.1338    5.3309    0.5572 C   0  0  0  0  0  0  0  0  0  0  0  0
   -1.3004    6.3291    0.5357 C   0  0  0  0  0  0  0  0  0  0  0  0
    0.0761    6.0977    0.6593 C   0  0  0  0  0  0  0  0  0  0  0  0
    0.5829    4.7859    0.4922 C   0  0  0  0  0  0  0  0  0  0  0  0
   -1.8200    7.7486    0.3763 C   0  0  0  0  0  0  0  0  0  0  0  0
   -3.0683    7.9595    0.2641 O   0  0  0  0  0  0  0  0  0  0  0  0
   -0.9108    8.8391    0.3527 O   0  0  0  0  0  0  0  0  0  0  0  0
  1  2  1  0
  2  3  1  0
  3  4  2  0
  3  8  1  0
  4  5  1  0
  5  6  2  0
  6  7  1  0
  6  9  1  0
  7  8  2  0
  9 10  2  0
  9 11  1  0
M  END
>  <DRUGBANK_ID>  (1) 
DB01671

>  <SECONDARY_ACCESSION_NUMBERS>  (1) 
EXPT01738

>  <COMMON_NAME>  (1) 
p-Hydroxymercuribenzoic acid

>  <CAS_NUMBER>  (1) 
1126-48-3

>  <UNII>  (1) 
848QN6RR3O

>  <SYNONYMS>  (1) 
(p-carboxyphenyl)hydroxymercury

$$$$
