
     RDKit          3D

 26 28  0  0  0  0  0  0  0  0999 V2000
    1.1425   -0.0592    0.1205 C   0  0  0  0  0  0  0  0  0  0  0  0
    0.4676    0.9449   -0.7964 C   0  0  0  0  0  0  0  0  0  0  0  0
    0.9610    0.9174   -2.2467 C   0  0  0  0  0  0  0  0  0  0  0  0
   -1.0073    0.9249   -0.7335 N   0  0  0  0  0  0  0  0  0  0  0  0
   -1.6035    2.1599   -0.9866 C   0  0  0  0  0  0  0  0  0  0  0  0
   -0.8527    3.0158   -1.3998 O   0  0  0  0  0  0  0  0  0  0  0  0
   -3.1202    2.3462   -0.8394 C   0  0  0  0  0  0  0  0  0  0  0  0
   -3.8464    1.1967   -0.8050 C   0  0  0  0  0  0  0  0  0  0  0  0
   -3.2216   -0.0964   -0.8223 C   0  0  0  0  0  0  0  0  0  0  0  0
   -1.8508   -0.1600   -0.8111 C   0  0  0  0  0  0  0  0  0  0  0  0
   -1.2625   -1.7271   -1.0124 S   0  0  0  0  0  0  0  0  0  0  0  0
   -2.8105   -2.3893   -0.8470 C   0  0  0  0  0  0  0  0  0  0  0  0
   -3.7851   -1.4111   -0.8176 C   0  0  0  0  0  0  0  0  0  0  0  0
   -5.2316    1.1278   -0.7840 O   0  0  0  0  0  0  0  0  0  0  0  0
   -3.8916    3.6627   -0.8183 C   0  0  0  0  0  0  0  0  0  0  0  0
   -5.1330    3.6416   -0.8028 O   0  0  0  0  0  0  0  0  0  0  0  0
   -3.3285    4.9017   -0.7875 N   0  0  0  0  0  0  0  0  0  0  0  0
   -1.9370    5.2161   -0.6866 C   0  0  0  0  0  0  0  0  0  0  0  0
   -1.3369    5.7033   -2.0108 C   0  0  0  0  0  0  0  0  0  0  0  0
   -1.6232    7.1893   -2.0931 C   0  0  0  0  0  0  0  0  0  0  0  0
   -1.1383    7.8692   -0.8826 N   0  0  0  0  0  0  0  0  0  0  0  0
    0.2360    7.5147   -0.4828 C   0  0  0  0  0  0  0  0  0  0  0  0
    0.5879    8.1509    0.8559 C   0  0  0  0  0  0  0  0  0  0  0  0
    0.4135    9.6568    0.7806 C   0  0  0  0  0  0  0  0  0  0  0  0
   -0.9807   10.0149    0.2751 C   0  0  0  0  0  0  0  0  0  0  0  0
   -1.3009    9.3072   -1.0341 C   0  0  0  0  0  0  0  0  0  0  0  0
  1  2  1  0
  2  3  1  0
  2  4  1  0
  4  5  1  0
  4 10  1  0
  5  6  2  0
  5  7  1  0
  7  8  2  0
  7 15  1  0
  8  9  1  0
  8 14  1  0
  9 10  2  0
  9 13  1  0
 10 11  1  0
 11 12  1  0
 12 13  2  0
 15 16  2  0
 15 17  1  0
 17 18  1  0
 18 19  1  0
 19 20  1  0
 20 21  1  0
 21 22  1  0
 21 26  1  0
 22 23  1  0
 23 24  1  0
 24 25  1  0
 25 26  1  0
M  END
>  <DRUGBANK_ID>  (1) 
DB05596

>  <COMMON_NAME>  (1) 
PRX-03140

>  <CAS_NUMBER>  (1) 
869493-21-0

>  <UNII>  (1) 
7QGN8QXG7I

$$$$
