GCA
     RDKit          3D

 24 25  0  0  0  0  0  0  0  0999 V2000
    0.0140   -1.6326   -0.2108 C   0  0  0  0  0  0  0  0  0  0  0  0
    1.2113   -0.9397   -0.3016 C   0  0  0  0  0  0  0  0  0  0  0  0
    1.2736    0.4611   -0.1263 C   0  0  0  0  0  0  0  0  0  0  0  0
    0.1086    1.2256   -0.0218 C   0  0  0  0  0  0  0  0  0  0  0  0
   -1.1022    0.5905   -0.1265 C   0  0  0  0  0  0  0  0  0  0  0  0
   -1.0884   -0.7927   -0.2899 C   0  0  0  0  0  0  0  0  0  0  0  0
    2.6003    1.1414   -0.0353 C   0  0  0  0  0  0  0  0  0  0  0  0
   -2.4213    1.3008   -0.0984 C   0  0  0  0  0  0  0  0  0  0  0  0
   -0.1156   -3.1679   -0.1017 C   0  0  0  0  0  0  0  0  0  0  0  0
   -0.7718   -3.7379    1.2181 C   0  0  0  0  0  0  0  0  0  0  0  0
   -2.0963   -3.5579    1.4763 C   0  0  0  0  0  0  0  0  0  0  0  0
   -3.0919   -2.8688    0.5892 C   0  0  0  0  0  0  0  0  0  0  0  0
   -4.2736   -3.6543    0.0693 C   0  0  0  0  0  0  0  0  0  0  0  0
   -3.5797   -1.5562    1.2337 C   0  0  0  0  0  0  0  0  0  0  0  0
   -2.6788   -3.9742    2.7794 C   0  0  0  0  0  0  0  0  0  0  0  0
   -3.8281   -3.7503    3.1049 O   0  0  0  0  0  0  0  0  0  0  0  0
   -0.0229   -4.5067    2.1505 N   0  0  0  0  0  0  0  0  0  0  0  0
   -0.5686   -4.9743    3.3530 C   0  0  0  0  0  0  0  0  0  0  0  0
    0.0206   -5.6669    4.1825 O   0  0  0  0  0  0  0  0  0  0  0  0
   -1.8463   -4.6226    3.6188 N   0  0  0  0  0  0  0  0  0  0  0  0
    1.3645   -4.9039    1.9816 C   0  0  0  0  0  0  0  0  0  0  0  0
    2.2014   -4.3133    2.9854 O   0  0  0  0  0  0  0  0  0  0  0  0
    2.1360   -2.8958    3.0668 C   0  0  0  0  0  0  0  0  0  0  0  0
    2.7214   -2.2993    1.8265 C   0  0  0  0  0  0  0  0  0  0  0  0
  1  2  2  0
  1  6  1  0
  1  9  1  0
  2  3  1  0
  3  4  2  0
  3  7  1  0
  4  5  1  0
  5  6  2  0
  5  8  1  0
  9 10  1  0
 10 11  2  0
 10 17  1  0
 11 12  1  0
 11 15  1  0
 12 13  1  0
 12 14  1  0
 15 16  2  0
 15 20  1  0
 17 18  1  0
 17 21  1  0
 18 19  2  0
 18 20  1  0
 21 22  1  0
 22 23  1  0
 23 24  1  0
M  END
>  <DRUGBANK_ID>  (1) 
DB07820

>  <COMMON_NAME>  (1) 
6-(3',5'-DIMETHYLBENZYL)-1-ETHOXYMETHYL-5-ISOPROPYLURACIL

$$$$
