
     RDKit          3D

 33 36  0  0  0  0  0  0  0  0999 V2000
    1.7668   -0.4957    0.0948 C   0  0  0  0  0  0  0  0  0  0  0  0
    1.3216    0.8154   -0.0019 C   0  0  0  0  0  0  0  0  0  0  0  0
    2.0619    2.0869   -0.1990 C   0  0  0  0  0  0  0  0  0  0  0  0
    1.9715    3.2405    0.6363 C   0  0  0  0  0  0  0  0  0  0  0  0
    1.3600    3.1691    1.9609 C   0  0  0  0  0  0  0  0  0  0  0  0
    0.3865    3.9930    2.4640 N   0  0  0  0  0  0  0  0  0  0  0  0
   -0.5286   -1.4332   -0.0141 C   0  0  0  0  0  0  0  0  0  0  0  0
    0.8388   -1.6149    0.1696 C   0  0  0  0  0  0  0  0  0  0  0  0
   -0.0022    0.8843   -0.2704 C   0  0  0  0  0  0  0  0  0  0  0  0
   -0.7484   -0.2504   -0.6401 C   0  0  0  0  0  0  0  0  0  0  0  0
    2.5754    4.4518    0.2261 C   0  0  0  0  0  0  0  0  0  0  0  0
    3.3188    4.5075   -0.9554 C   0  0  0  0  0  0  0  0  0  0  0  0
    3.3531    3.4085   -1.8040 C   0  0  0  0  0  0  0  0  0  0  0  0
    2.6931    2.2355   -1.4476 C   0  0  0  0  0  0  0  0  0  0  0  0
    0.0790    3.6338    3.7190 N   0  0  0  0  0  0  0  0  0  0  0  0
    0.8630    2.5998    3.9826 N   0  0  0  0  0  0  0  0  0  0  0  0
    1.6574    2.2999    2.9066 N   0  0  0  0  0  0  0  0  0  0  0  0
   -1.7872   -2.2920    0.1860 C   0  0  0  0  0  0  0  0  0  0  0  0
   -3.6096   -1.1049    1.8083 C   0  0  0  0  0  0  0  0  0  0  0  0
   -4.1507   -1.4551    2.9554 N   0  0  0  0  0  0  0  0  0  0  0  0
   -2.6207   -2.1201    1.4352 N   0  0  0  0  0  0  0  0  0  0  0  0
   -4.2948    0.1884    1.1976 C   0  0  0  0  0  0  0  0  0  0  0  0
   -3.5658    1.5412    1.2172 C   0  0  0  0  0  0  0  0  0  0  0  0
   -2.6762    1.3600    0.0929 C   0  0  0  0  0  0  0  0  0  0  0  0
   -2.7105   -3.1550    2.4477 C   0  0  0  0  0  0  0  0  0  0  0  0
   -2.0988   -4.4840    2.6602 C   0  0  0  0  0  0  0  0  0  0  0  0
   -2.3915   -5.2586    3.5875 O   0  0  0  0  0  0  0  0  0  0  0  0
   -1.1591   -4.9423    1.8247 O   0  0  0  0  0  0  0  0  0  0  0  0
   -3.6292   -2.6370    3.3730 C   0  0  0  0  0  0  0  0  0  0  0  0
   -4.1134   -3.1988    4.7117 C   0  0  0  0  0  0  0  0  0  0  0  0
   -2.9479   -3.3340    5.7044 C   0  0  0  0  0  0  0  0  0  0  0  0
   -5.1629   -2.2983    5.3891 C   0  0  0  0  0  0  0  0  0  0  0  0
   -4.7733   -4.4612    4.5426 O   0  0  0  0  0  0  0  0  0  0  0  0
  1  2  2  0
  2  9  1  0
  2  3  1  0
  3 14  2  0
  3  4  1  0
  4 11  2  0
  4  5  1  0
  5 17  2  0
  5  6  1  0
  6 15  1  0
  7  8  2  0
  7 10  1  0
  8  1  1  0
  9 10  2  0
 11 12  1  0
 12 13  2  0
 13 14  1  0
 15 16  2  0
 16 17  1  0
 18  7  1  0
 19 20  2  0
 19 21  1  0
 19 22  1  0
 20 29  1  0
 21 18  1  0
 22 23  1  0
 23 24  1  0
 25 21  1  0
 25 26  1  0
 26 28  1  0
 26 27  2  0
 29 25  2  0
 29 30  1  0
 30 33  1  0
 30 31  1  0
 30 32  1  0
M  END
>  <DRUGBANK_ID>  (1) 
DB00275

>  <SECONDARY_ACCESSION_NUMBERS>  (1) 
APRD00223

>  <COMMON_NAME>  (1) 
Olmesartan

>  <CAS_NUMBER>  (1) 
144689-24-7

>  <UNII>  (1) 
8W1IQP3U10

>  <SYNONYMS>  (1) 
4-(1-hydroxy-1-methylethyl)-2-propyl-1-{[2'-(1H-tetrazol-5-yl)biphenyl-4-yl]methyl}-1H-imidazole-5-carboxylic acid; 4-(hydroxy-1-methylethyl)-2-propyl-1-{[2'-(1H-tetrazol-5-yl)-1,1'-biphenyl-4-yl]methyl}-1H-imidazole-5-carboxylic acid; Olmesartan

$$$$
