1437
     RDKit          3D

 16 17  0  0  1  0  0  0  0  0999 V2000
   -2.1177   -1.1281   -0.1188 O   0  0  0  0  0  0  0  0  0  0  0  0
    2.3428   -0.9478   -0.0539 O   0  0  0  0  0  0  0  0  0  0  0  0
    0.0932   -0.9181   -0.1549 N   0  0  0  0  0  0  0  0  0  0  0  0
   -1.2347    1.1178    0.3966 C   0  0  0  0  0  0  0  0  0  0  0  0
   -0.0649    1.8302   -0.3555 C   0  0  0  0  0  0  0  0  0  0  0  0
   -2.5770    1.7090   -0.1546 C   0  0  0  0  0  0  0  0  0  0  0  0
   -1.0769    1.3541    1.9211 C   0  0  0  0  0  0  0  0  0  0  0  0
    1.3083    1.2225   -0.0662 C   0  0  0  0  0  0  0  0  0  0  0  0
   -1.1573   -0.3786    0.0126 C   0  0  0  0  0  0  0  0  0  0  0  0
    1.3102   -0.2916   -0.1237 C   0  0  0  0  0  0  0  0  0  0  0  0
   -3.8561    1.0938    0.4321 C   0  0  0  0  0  0  0  0  0  0  0  0
   -0.0256    0.7674    2.6460 C   0  0  0  0  0  0  0  0  0  0  0  0
   -1.9035    2.2386    2.6383 C   0  0  0  0  0  0  0  0  0  0  0  0
    0.2523    1.1154    3.9641 C   0  0  0  0  0  0  0  0  0  0  0  0
   -1.6796    2.5291    3.9836 C   0  0  0  0  0  0  0  0  0  0  0  0
   -0.5913    1.9780    4.6423 C   0  0  0  0  0  0  0  0  0  0  0  0
  1  9  2  0
  2 10  2  0
  3  9  1  0
  3 10  1  0
  4  5  1  0
  4  6  1  0
  4  7  1  0
  4  9  1  0
  5  8  1  0
  6 11  1  0
  7 12  2  0
  7 13  1  0
  8 10  1  0
 12 14  1  0
 13 15  2  0
 14 16  2  0
 15 16  1  0
M  END
>  <DRUGBANK_ID>  (1) 
DB01437

>  <COMMON_NAME>  (1) 
Glutethimide

>  <CAS_NUMBER>  (1) 
77-21-4

>  <UNII>  (1) 
C8I4BVN78E

>  <SYNONYMS>  (1) 
2-Ethyl-2-phenylglutarimide; Glutethimide; Glutetimida

$$$$
