
     RDKit          3D

 38 40  0  0  1  0  0  0  0  0999 V2000
   -0.6872    2.0478    0.0590 B   0  0  0  0  0  0  0  0  0  0  0  0
    0.2327    1.0698    0.9293 C   0  0  2  0  0  0  0  0  0  0  0  0
    0.9927    0.1329    0.0046 C   0  0  0  0  0  0  0  0  0  0  0  0
    1.9669    0.9215   -0.8553 C   0  0  0  0  0  0  0  0  0  0  0  0
    2.9729    1.6291    0.0378 C   0  0  0  0  0  0  0  0  0  0  0  0
    3.6865    0.6677    0.8013 O   0  0  0  0  0  0  0  0  0  0  0  0
    2.7764   -0.0690    1.6046 C   0  0  0  0  0  0  0  0  0  0  0  0
   -0.6124    0.2821    1.8382 N   0  0  0  0  0  0  0  0  0  0  0  0
   -0.4163    0.3776    3.2920 C   0  0  0  0  0  0  0  0  0  0  0  0
   -1.1470   -0.3034    4.0778 O   0  0  0  0  0  0  0  0  0  0  0  0
    0.6604    1.2908    3.8552 C   0  0  2  0  0  0  0  0  0  0  0  0
    0.9199    1.0029    5.3081 C   0  0  0  0  0  0  0  0  0  0  0  0
    1.6772    2.2779    5.7877 C   0  0  0  0  0  0  0  0  0  0  0  0
    1.0412    3.3977    4.9598 C   0  0  0  0  0  0  0  0  0  0  0  0
    0.2246    2.6989    3.8965 N   0  0  0  0  0  0  0  0  0  0  0  0
   -0.8146    3.3117    3.0566 C   0  0  0  0  0  0  0  0  0  0  0  0
   -1.0970    4.5433    3.1924 O   0  0  0  0  0  0  0  0  0  0  0  0
   -1.5515    2.4722    2.0257 C   0  0  1  0  0  0  0  0  0  0  0  0
   -0.5554    1.9092    1.0251 C   0  0  0  0  0  0  0  0  0  0  0  0
    0.4590    1.0423    1.7530 C   0  0  0  0  0  0  0  0  0  0  0  0
    1.3855    1.5759    2.5405 C   0  0  0  0  0  0  0  0  0  0  0  0
    2.1478    0.7807    3.3617 C   0  0  0  0  0  0  0  0  0  0  0  0
    2.0364   -0.5815    3.3227 C   0  0  0  0  0  0  0  0  0  0  0  0
    1.0560   -1.0697    2.5848 C   0  0  0  0  0  0  0  0  0  0  0  0
    0.3354   -0.3306    1.6170 C   0  0  0  0  0  0  0  0  0  0  0  0
   -2.2465    1.3664    2.7004 N   0  0  0  0  0  0  0  0  0  0  0  0
   -3.7078    1.2451    2.5977 C   0  0  0  0  0  0  0  0  0  0  0  0
   -4.3087    0.2891    3.1810 O   0  0  0  0  0  0  0  0  0  0  0  0
   -4.4482    2.1960    1.8467 O   0  0  0  0  0  0  0  0  0  0  0  0
   -5.8599    2.0788    1.7475 C   0  0  0  0  0  0  0  0  0  0  0  0
   -6.2138    0.7476    1.1050 C   0  0  0  0  0  0  0  0  0  0  0  0
   -5.4410   -0.2711    1.4631 C   0  0  0  0  0  0  0  0  0  0  0  0
   -5.7002   -1.5404    1.0052 C   0  0  0  0  0  0  0  0  0  0  0  0
   -6.6996   -1.7714    0.1012 C   0  0  0  0  0  0  0  0  0  0  0  0
   -7.4911   -0.7505   -0.1729 C   0  0  0  0  0  0  0  0  0  0  0  0
   -7.2020    0.5974    0.1461 C   0  0  0  0  0  0  0  0  0  0  0  0
   -0.0855    3.0654   -0.8643 O   0  0  0  0  0  0  0  0  0  0  0  0
   -2.1779    1.9328    0.1792 O   0  0  0  0  0  0  0  0  0  0  0  0
  1 37  1  0
  1 38  1  0
  2  8  1  0
  2  3  1  6
  2  1  1  0
  3  4  1  0
  4  5  1  0
  5  6  1  0
  6  7  1  0
  8  9  1  0
  9 10  2  0
 11  9  1  1
 11 12  1  0
 11 15  1  0
 12 13  1  0
 13 14  1  0
 14 15  1  0
 15 16  1  0
 16 17  2  0
 16 18  1  0
 18 19  1  6
 18 26  1  0
 19 20  1  0
 20 21  2  0
 20 25  1  0
 21 22  1  0
 22 23  2  0
 23 24  1  0
 24 25  2  0
 26 27  1  0
 27 28  2  0
 27 29  1  0
 29 30  1  0
 30 31  1  0
 31 32  2  0
 31 36  1  0
 32 33  1  0
 33 34  2  0
 34 35  1  0
 35 36  2  0
M  END
>  <DRUGBANK_ID>  (1) 
DB05714

>  <COMMON_NAME>  (1) 
Flovagatran

>  <CAS_NUMBER>  (1) 
871576-03-3

>  <UNII>  (1) 
2WA50NUH6H

>  <SYNONYMS>  (1) 
Flovagatran

$$$$
