NP6
     RDKit          3D

 27 28  0  0  0  0  0  0  0  0999 V2000
    0.0573    0.4119    0.0345 C   0  0  0  0  0  0  0  0  0  0  0  0
   -0.1321   -0.0273   -1.4460 C   0  0  0  0  0  0  0  0  0  0  0  0
    0.0295   -1.4593   -1.9414 C   0  0  0  0  0  0  0  0  0  0  0  0
   -0.1387   -2.5548   -0.8302 C   0  0  0  0  0  0  0  0  0  0  0  0
   -0.8074   -3.5742   -1.0392 O   0  0  0  0  0  0  0  0  0  0  0  0
    0.6011   -2.5299    0.3627 N   0  0  0  0  0  0  0  0  0  0  0  0
    1.8548   -1.7944    0.8247 C   0  0  2  0  0  0  0  0  0  0  0  0
    2.5476   -0.8849   -0.1926 C   0  0  1  0  0  0  0  0  0  0  0  0
    3.5876   -0.1366    0.4719 O   0  0  0  0  0  0  0  0  0  0  0  0
    2.8798   -1.7381   -1.4265 C   0  0  2  0  0  0  0  0  0  0  0  0
    1.9888   -2.8066   -1.7770 O   0  0  0  0  0  0  0  0  0  0  0  0
    3.9434   -2.6716   -1.1128 C   0  0  1  0  0  0  0  0  0  0  0  0
    5.1957   -1.8841   -0.9985 C   0  0  0  0  0  0  0  0  0  0  0  0
    5.9421   -2.1503   -2.1738 O   0  0  0  0  0  0  0  0  0  0  0  0
    3.5369   -3.4356    0.0518 O   0  0  0  0  0  0  0  0  0  0  0  0
    3.0051   -2.7854    1.1269 C   0  0  0  0  0  0  0  0  0  0  0  0
    3.4991   -3.0089    2.3000 N   0  0  0  0  0  0  0  0  0  0  0  0
    4.5263   -3.9697    2.1298 O   0  0  0  0  0  0  0  0  0  0  0  0
    5.3032   -4.1746    3.2173 C   0  0  0  0  0  0  0  0  0  0  0  0
    5.1967   -3.5549    4.3045 O   0  0  0  0  0  0  0  0  0  0  0  0
    6.2011   -5.2042    3.0788 N   0  0  0  0  0  0  0  0  0  0  0  0
    6.4943   -5.9054    1.8895 C   0  0  0  0  0  0  0  0  0  0  0  0
    6.5770   -5.2332    0.6692 C   0  0  0  0  0  0  0  0  0  0  0  0
    6.9103   -5.9101   -0.5022 C   0  0  0  0  0  0  0  0  0  0  0  0
    7.1827   -7.2727   -0.4590 C   0  0  0  0  0  0  0  0  0  0  0  0
    7.1477   -7.9485    0.7610 C   0  0  0  0  0  0  0  0  0  0  0  0
    6.7835   -7.2724    1.9334 C   0  0  0  0  0  0  0  0  0  0  0  0
  1  2  1  0
  2  3  1  0
  3  4  1  0
  4  5  2  0
  4  6  1  0
  7  6  1  6
  7  8  1  0
  7 16  1  0
  8 10  1  0
  8  9  1  1
 10 11  1  1
 10 12  1  0
 12 15  1  0
 12 13  1  1
 13 14  1  0
 15 16  1  0
 16 17  2  0
 17 18  1  0
 18 19  1  0
 19 20  2  0
 19 21  1  0
 21 22  1  0
 22 23  2  0
 22 27  1  0
 23 24  1  0
 24 25  2  0
 25 26  1  0
 26 27  2  0
M  END
>  <DRUGBANK_ID>  (1) 
DB07432

>  <COMMON_NAME>  (1) 
[[(3R,4R,5S,6R)-3-(butanoylamino)-4,5-dihydroxy-6-(hydroxymethyl)oxan-2-ylidene]amino] N-phenylcarbamate

$$$$
