
     RDKit          3D

 27 29  0  0  0  0  0  0  0  0999 V2000
    3.2460    0.6010   -0.0270 C   0  0  0  0  0  0  0  0  0  0  0  0
    1.8200    0.1580    0.0110 C   0  0  0  0  0  0  0  0  0  0  0  0
    1.5240   -1.2230    0.0050 C   0  0  0  0  0  0  0  0  0  0  0  0
    0.2440   -1.6750   -0.0040 C   0  0  0  0  0  0  0  0  0  0  0  0
   -0.7130   -0.6880    0.0080 N   0  0  0  0  0  0  0  0  0  0  0  0
   -0.3920    0.6460    0.0120 C   0  0  0  0  0  0  0  0  0  0  0  0
    0.8800    1.0880    0.0170 N   0  0  0  0  0  0  0  0  0  0  0  0
   -1.5140    1.3680   -0.0030 N   0  0  0  0  0  0  0  0  0  0  0  0
   -2.4560    0.4220   -0.0180 C   0  0  0  0  0  0  0  0  0  0  0  0
   -2.0720   -0.8500   -0.0030 N   0  0  0  0  0  0  0  0  0  0  0  0
   -3.9302    0.7907   -0.0514 C   0  0  0  0  0  0  0  0  0  0  0  0
   -4.5690    0.2118   -1.3033 C   0  0  0  0  0  0  0  0  0  0  0  0
   -4.5355    0.2958    1.0246 F   0  0  0  0  0  0  0  0  0  0  0  0
   -4.0560    2.1147   -0.0612 F   0  0  0  0  0  0  0  0  0  0  0  0
   -0.0921   -3.1059   -0.0249 N   0  0  0  0  0  0  0  0  0  0  0  0
   -1.4995   -3.5303   -0.0338 C   0  0  0  0  0  0  0  0  0  0  0  0
   -2.2899   -3.1515   -1.0312 C   0  0  0  0  0  0  0  0  0  0  0  0
   -3.5621   -3.6577   -1.1465 C   0  0  0  0  0  0  0  0  0  0  0  0
   -4.0769   -4.4898   -0.1915 C   0  0  0  0  0  0  0  0  0  0  0  0
   -3.2389   -4.9018    0.7423 C   0  0  0  0  0  0  0  0  0  0  0  0
   -1.9756   -4.3191    1.0005 C   0  0  0  0  0  0  0  0  0  0  0  0
   -5.8136   -4.9994   -0.2064 S   0  0  0  0  0  0  0  0  0  0  0  0
   -5.8910   -5.0024    1.3778 F   0  0  0  0  0  0  0  0  0  0  0  0
   -5.3447   -6.5009   -0.1179 F   0  0  0  0  0  0  0  0  0  0  0  0
   -7.3056   -5.4370   -0.2190 F   0  0  0  0  0  0  0  0  0  0  0  0
   -6.2660   -3.4871   -0.1531 F   0  0  0  0  0  0  0  0  0  0  0  0
   -4.3070   -4.5380   -0.0801 F   0  0  0  0  0  0  0  0  0  0  0  0
  1  2  1  0
  2  3  1  0
  2  7  2  0
  3  4  2  0
  4  5  1  0
  4 15  1  0
  5  6  1  0
  5 10  1  0
  6  7  1  0
  6  8  2  0
  8  9  1  0
  9 10  2  0
  9 11  1  0
 11 12  1  0
 11 13  1  0
 11 14  1  0
 15 16  1  0
 16 17  2  0
 16 21  1  0
 17 18  1  0
 18 19  2  0
 19 20  1  0
 19 22  1  0
 20 21  2  0
 22 23  1  0
 22 24  1  0
 22 25  1  0
 22 26  1  0
 22 27  1  0
M  END
>  <DRUGBANK_ID>  (1) 
DB12397

>  <COMMON_NAME>  (1) 
DSM-265

>  <CAS_NUMBER>  (1) 
1282041-94-4

>  <UNII>  (1) 
0Q42P4YI6B

>  <SYNONYMS>  (1) 
2-(1,1-difluoroethyl)-5-methyl-N-[4-(pentafluoro-lambda6-sulfanyl)phenyl]-[1,2,4]triazolo[1,5-a]pyrimidin-7-amine; 2-(1,1-Difluoroethyl)-5-methyl-N-[4-(pentafluoro-Î»6-sulfanyl)phenyl][1,2,4]triazolo[1,5-a]pyrimidin-7-amine; Sulfur, (4-((2-(1,1-difluoroethyl)-5-methyl(1,2,4)triazolo(1,5-a)pyrimidin-7-yl)amino)phenyl)pentafluoro-, (oc-6-21)-

$$$$
