
     RDKit          3D

 28 30  0  0  1  0  0  0  0  0999 V2000
    1.5411   -0.0055    0.0130 C   0  0  0  0  0  0  0  0  0  0  0  0
    0.6646   -1.0378    0.1086 C   0  0  0  0  0  0  0  0  0  0  0  0
   -0.6782   -0.6775    0.1580 C   0  0  0  0  0  0  0  0  0  0  0  0
   -1.2914    0.5300   -0.0496 C   0  0  0  0  0  0  0  0  0  0  0  0
   -0.3896    1.5606    0.0000 C   0  0  0  0  0  0  0  0  0  0  0  0
    1.0089    1.2930   -0.0095 C   0  0  0  0  0  0  0  0  0  0  0  0
   -3.0519    0.7511   -0.4011 S   0  0  0  0  0  0  0  0  0  0  0  0
   -3.9357   -0.8544   -0.9873 C   0  0  0  0  0  0  0  0  0  0  0  0
   -3.5188   -1.9444   -1.9548 C   0  0  1  0  0  0  0  0  0  0  0  0
   -2.1393   -2.4523   -1.5707 C   0  0  0  0  0  0  0  0  0  0  0  0
   -1.9650   -3.2838   -0.1288 C   0  0  0  0  0  0  0  0  0  0  0  0
   -1.1831   -4.2428   -0.1377 O   0  0  0  0  0  0  0  0  0  0  0  0
   -2.4887   -2.8005    1.3563 C   0  0  0  0  0  0  0  0  0  0  0  0
   -3.7011   -2.1400    1.6925 C   0  0  0  0  0  0  0  0  0  0  0  0
   -3.9837   -1.5501    2.8991 C   0  0  0  0  0  0  0  0  0  0  0  0
   -3.1410   -1.7898    3.9413 C   0  0  0  0  0  0  0  0  0  0  0  0
   -1.9241   -2.4475    3.7079 C   0  0  0  0  0  0  0  0  0  0  0  0
   -1.5603   -2.8656    2.4134 C   0  0  0  0  0  0  0  0  0  0  0  0
   -3.6192   -1.4104    5.2414 C   0  0  0  0  0  0  0  0  0  0  0  0
   -4.8715   -1.8828    5.6807 C   0  0  0  0  0  0  0  0  0  0  0  0
   -5.2817   -1.6317    6.9752 C   0  0  0  0  0  0  0  0  0  0  0  0
   -4.4387   -0.9050    7.8124 C   0  0  0  0  0  0  0  0  0  0  0  0
   -3.2183   -0.3969    7.3583 C   0  0  0  0  0  0  0  0  0  0  0  0
   -2.8409   -0.5893    6.0440 C   0  0  0  0  0  0  0  0  0  0  0  0
   -4.9237   -0.5939    9.4278 Cl  0  0  0  0  0  0  0  0  0  0  0  0
   -4.4106   -3.2003   -1.9299 C   0  0  0  0  0  0  0  0  0  0  0  0
   -5.0659   -3.6157   -2.8352 O   0  0  0  0  0  0  0  0  0  0  0  0
   -4.3214   -3.8980   -0.7663 O   0  0  0  0  0  0  0  0  0  0  0  0
  1  2  2  0
  1  6  1  0
  2  3  1  0
  3  4  2  0
  4  5  1  0
  4  7  1  0
  5  6  2  0
  7  8  1  0
  9  8  1  1
  9 10  1  0
  9 26  1  0
 10 11  1  0
 11 12  2  0
 11 13  1  0
 13 14  2  0
 13 18  1  0
 14 15  1  0
 15 16  2  0
 16 17  1  0
 16 19  1  0
 17 18  2  0
 19 20  2  0
 19 24  1  0
 20 21  1  0
 21 22  2  0
 22 23  1  0
 22 25  1  0
 23 24  2  0
 26 27  2  0
 26 28  1  0
M  END
>  <DRUGBANK_ID>  (1) 
DB06276

>  <COMMON_NAME>  (1) 
Tanomastat

>  <CAS_NUMBER>  (1) 
179545-77-8

>  <UNII>  (1) 
AM1ZX94EXH

>  <SYNONYMS>  (1) 
Tanomastat

$$$$
