426
     RDKit          3D

 23 24  0  0  0  0  0  0  0  0999 V2000
    1.3847    0.1245    0.0560 O   0  0  0  0  0  0  0  0  0  0  0  0
   -1.7976   -1.7284   -2.2350 O   0  0  0  0  0  0  0  0  0  0  0  0
    3.1796    1.2491    0.6986 O   0  0  0  0  0  0  0  0  0  0  0  0
   -1.6774   -2.6871   -0.1451 O   0  0  0  0  0  0  0  0  0  0  0  0
    1.9466   -4.2394   -2.1865 N   0  0  0  0  0  0  0  0  0  0  0  0
    0.5417   -5.5739   -3.2699 N   0  0  0  0  0  0  0  0  0  0  0  0
    3.2455   -5.9342   -0.9599 N   0  0  0  0  0  0  0  0  0  0  0  0
    2.5388   -8.1503   -1.6401 N   0  0  0  0  0  0  0  0  0  0  0  0
    4.3453   -7.8757   -0.2789 N   0  0  0  0  0  0  0  0  0  0  0  0
    0.5889   -1.1367   -1.9374 C   0  0  0  0  0  0  0  0  0  0  0  0
    1.9710   -1.6560   -2.3685 C   0  0  0  0  0  0  0  0  0  0  0  0
    2.4286   -2.9869   -1.6473 C   0  0  0  0  0  0  0  0  0  0  0  0
    0.5114   -0.9242   -0.4194 C   0  0  0  0  0  0  0  0  0  0  0  0
   -0.4603   -2.1052   -2.4404 C   0  0  0  0  0  0  0  0  0  0  0  0
    2.2585   -5.5060   -1.7672 C   0  0  0  0  0  0  0  0  0  0  0  0
    1.0944   -4.3930   -3.2392 C   0  0  0  0  0  0  0  0  0  0  0  0
    1.3658   -6.2977   -2.4743 C   0  0  0  0  0  0  0  0  0  0  0  0
    1.5213   -7.6595   -2.3737 C   0  0  0  0  0  0  0  0  0  0  0  0
    2.7072    0.1924    0.2883 C   0  0  0  0  0  0  0  0  0  0  0  0
   -2.2889   -2.1497   -1.0350 C   0  0  0  0  0  0  0  0  0  0  0  0
    3.3329   -7.2847   -0.9752 C   0  0  0  0  0  0  0  0  0  0  0  0
    3.6335   -0.9571    0.0341 C   0  0  0  0  0  0  0  0  0  0  0  0
   -3.7320   -1.8193   -0.9960 C   0  0  0  0  0  0  0  0  0  0  0  0
  1 13  1  0
  1 19  1  0
  2 14  1  0
  2 20  1  0
  3 19  2  0
  4 20  2  0
  5 12  1  0
  5 15  1  0
  5 16  1  0
  6 16  2  0
  6 17  1  0
  7 15  2  0
  7 21  1  0
  8 18  1  0
  8 21  2  0
  9 21  1  0
 10 11  1  0
 10 13  1  0
 10 14  1  0
 11 12  1  0
 15 17  1  0
 17 18  2  0
 19 22  1  0
 20 23  1  0
M  END
>  <DRUGBANK_ID>  (1) 
DB00426

>  <SECONDARY_ACCESSION_NUMBERS>  (1) 
APRD00600

>  <COMMON_NAME>  (1) 
Famciclovir

>  <CAS_NUMBER>  (1) 
104227-87-4

>  <UNII>  (1) 
QIC03ANI02

>  <SYNONYMS>  (1) 
2-(2-(2-amino-9H-purin-9-yl)ethyl)-1,3-propanediol diacetate; 9-[4-acetoxy-3-(acetoxymethyl)but-1-yl]-2-aminopurine; acetic acid 2-acetoxymethyl-4-(2-amino-purin-9-yl)-butyl ester; Famciclovir; Famciclovirum; FCV

$$$$
