
     RDKit          3D

 42 46  0  0  0  0  0  0  0  0999 V2000
    0.2232   -0.2457    0.0145 C   0  0  0  0  0  0  0  0  0  0  0  0
    5.5257   -6.1655   -1.1073 C   0  0  0  0  0  0  0  0  0  0  0  0
    6.5881   -2.9299   -1.8005 C   0  0  0  0  0  0  0  0  0  0  0  0
    1.3741   -2.3071    1.8584 C   0  0  0  0  0  0  0  0  0  0  0  0
    2.5768   -3.4079    1.2003 C   0  0  0  0  0  0  0  0  0  0  0  0
    3.8748    3.8089   -0.3523 C   0  0  0  0  0  0  0  0  0  0  0  0
    3.0426    3.5717    1.1533 C   0  0  0  0  0  0  0  0  0  0  0  0
    0.9631    2.1661   -0.6454 C   0  0  0  0  0  0  0  0  0  0  0  0
   -0.5008    1.9015   -0.3445 C   0  0  0  0  0  0  0  0  0  0  0  0
    7.0089   -5.3267    0.5731 C   0  0  0  0  0  0  0  0  0  0  0  0
    6.0475   -4.5175    1.3592 C   0  0  0  0  0  0  0  0  0  0  0  0
    3.7869   -4.8583   -0.5387 C   0  0  0  0  0  0  0  0  0  0  0  0
    4.2756   -3.6197   -1.8912 C   0  0  0  0  0  0  0  0  0  0  0  0
    6.1415   -1.9705    0.3899 C   0  0  0  0  0  0  0  0  0  0  0  0
    5.2530   -1.5095    1.5874 C   0  0  0  0  0  0  0  0  0  0  0  0
    2.6686   -1.8267   -0.5577 C   0  0  0  0  0  0  0  0  0  0  0  0
    3.8563   -1.0704   -2.1403 C   0  0  0  0  0  0  0  0  0  0  0  0
    6.2215    0.6097   -0.3701 C   0  0  0  0  0  0  0  0  0  0  0  0
    4.9827    1.0129    1.0870 C   0  0  0  0  0  0  0  0  0  0  0  0
    2.7497    0.7837   -1.2119 C   0  0  0  0  0  0  0  0  0  0  0  0
    2.9867    1.8055   -2.4271 C   0  0  0  0  0  0  0  0  0  0  0  0
    0.5873    0.6444    2.6423 C   0  0  0  0  0  0  0  0  0  0  0  0
    1.4534   -0.6622    2.1125 C   0  0  0  0  0  0  0  0  0  0  0  0
    4.1333   -2.8076    0.3497 C   0  0  0  0  0  0  0  0  0  0  0  0
    4.7072    2.9543   -1.3481 C   0  0  1  0  0  0  0  0  0  0  0  0
    0.8168    1.8176    1.6944 C   0  0  1  0  0  0  0  0  0  0  0  0
    2.4463   -0.1104    1.1650 C   0  0  0  0  0  0  0  0  0  0  0  0
    3.9354   -0.8329    0.1811 C   0  0  0  0  0  0  0  0  0  0  0  0
    4.1826    1.9558   -0.5617 C   0  0  1  0  0  0  0  0  0  0  0  0
    2.3119    1.7537    0.4091 C   0  0  1  0  0  0  0  0  0  0  0  0
    2.3080    2.3271    1.7268 C   0  0  1  0  0  0  0  0  0  0  0  0
   -0.0148    1.0598    0.6272 N   0  0  0  0  0  0  0  0  0  0  0  0
    2.9132    1.8106    2.9375 O   0  0  0  0  0  0  0  0  0  0  0  0
    6.7555   -5.5461   -0.8419 O   0  0  0  0  0  0  0  0  0  0  0  0
    5.4784   -3.6406   -0.4788 O   0  0  0  0  0  0  0  0  0  0  0  0
    4.5675   -4.9207    1.0512 O   0  0  0  0  0  0  0  0  0  0  0  0
    5.0774   -2.0837   -1.1471 O   0  0  0  0  0  0  0  0  0  0  0  0
    3.3711   -1.7524    1.4879 O   0  0  0  0  0  0  0  0  0  0  0  0
    5.6201   -0.2714   -1.9688 O   0  0  0  0  0  0  0  0  0  0  0  0
    3.6974    0.8813    0.5815 O   0  0  0  0  0  0  0  0  0  0  0  0
    4.2911    2.3576   -2.5445 O   0  0  0  0  0  0  0  0  0  0  0  0
    4.4483    0.1195   -0.7467 O   0  0  0  0  0  0  0  0  0  0  0  0
  5  4  2  0
  7  6  1  0
  9  8  1  0
 11 10  1  0
 13 12  1  0
 15 14  1  0
 17 16  1  0
 19 18  1  0
 21 20  1  0
 23  4  1  0
 23 22  1  0
 24  5  1  0
 25  6  1  0
 25 41  1  6
 26 22  1  1
 26 32  1  0
 27 23  2  0
 28 24  2  0
 28 27  1  0
 29 25  1  0
 29 30  1  0
 29 42  1  6
 30  8  1  6
 30 27  1  0
 30 31  1  0
 31  7  1  0
 31 26  1  0
 31 33  1  1
 32  1  1  0
 32  9  1  0
 34  2  1  0
 34 10  1  0
 35  3  1  0
 35 24  1  0
 36 11  1  0
 36 12  1  0
 37 13  1  0
 37 14  1  0
 38 15  1  0
 38 16  1  0
 39 17  1  0
 39 18  1  0
 40 19  1  0
 40 20  1  0
 41 21  1  0
 42 28  1  0
M  END
>  <DRUGBANK_ID>  (1) 
DB14146

>  <COMMON_NAME>  (1) 
Loxicodegol

>  <CAS_NUMBER>  (1) 
1211231-76-3

>  <UNII>  (1) 
J2WIV0JMML

$$$$
