
     RDKit          3D

 18 19  0  0  1  0  0  0  0  0999 V2000
    1.1145    2.4040   -0.1146 C   0  0  0  0  0  0  0  0  0  0  0  0
    0.4491    1.2710    0.6811 C   0  0  2  0  0  0  0  0  0  0  0  0
    0.8940   -0.0003   -0.0279 C   0  0  0  0  0  0  0  0  0  0  0  0
    0.5584   -0.1725   -1.3856 C   0  0  0  0  0  0  0  0  0  0  0  0
    1.0459   -1.2507   -2.1074 C   0  0  0  0  0  0  0  0  0  0  0  0
    1.8616   -2.1808   -1.4711 C   0  0  0  0  0  0  0  0  0  0  0  0
    2.1898   -2.0380   -0.1197 C   0  0  0  0  0  0  0  0  0  0  0  0
    1.7112   -0.9441    0.6046 C   0  0  0  0  0  0  0  0  0  0  0  0
    2.5940   -3.7875   -2.5600 I   0  0  0  0  0  0  0  0  0  0  0  0
   -1.0159    1.3786    0.7843 N   0  0  0  0  0  0  0  0  0  0  0  0
   -1.8696    0.2937    0.7896 C   0  0  0  0  0  0  0  0  0  0  0  0
   -3.1270    0.6570    0.7660 N   0  0  0  0  0  0  0  0  0  0  0  0
   -3.0957    2.0208    0.7950 C   0  0  0  0  0  0  0  0  0  0  0  0
   -1.8043    2.5246    0.8694 C   0  0  0  0  0  0  0  0  0  0  0  0
   -1.4837    3.9469    0.9151 C   0  0  0  0  0  0  0  0  0  0  0  0
   -2.2687    4.8387    0.6379 O   0  0  0  0  0  0  0  0  0  0  0  0
   -0.1852    4.1796    1.2682 O   0  0  0  0  0  0  0  0  0  0  0  0
    0.3568    5.4589    0.8796 C   0  0  0  0  0  0  0  0  0  0  0  0
  2 10  1  0
  2  3  1  0
  2  1  1  6
  3  4  2  0
  3  8  1  0
  4  5  1  0
  5  6  2  0
  6  7  1  0
  6  9  1  0
  7  8  2  0
 10 11  1  0
 10 14  1  0
 11 12  2  0
 12 13  1  0
 13 14  2  0
 14 15  1  0
 15 16  2  0
 15 17  1  0
 17 18  1  0
M  END
>  <DRUGBANK_ID>  (1) 
DB13021

>  <COMMON_NAME>  (1) 
123I-iodometomidate

>  <CAS_NUMBER>  (1) 
813466-05-6

>  <UNII>  (1) 
U21CVV13SV

>  <SYNONYMS>  (1) 
123 I Iodometomidate

$$$$
