
     RDKit          3D

 22 24  0  0  0  0  0  0  0  0999 V2000
    1.7387    3.5266   -5.4806 C   0  0  0  0  0  0  0  0  0  0  0  0
    1.8911    4.4819   -4.7054 C   0  0  0  0  0  0  0  0  0  0  0  0
    4.9315    3.0615   -3.7878 C   0  0  0  0  0  0  0  0  0  0  0  0
    4.7379    3.6786   -2.5518 C   0  0  0  0  0  0  0  0  0  0  0  0
    4.1357    1.9982   -4.1747 C   0  0  0  0  0  0  0  0  0  0  0  0
    3.8052    3.2384   -1.6269 C   0  0  0  0  0  0  0  0  0  0  0  0
    3.0879    1.6462   -3.3182 C   0  0  0  0  0  0  0  0  0  0  0  0
    0.2431   -1.1733   -1.9007 C   0  0  0  0  0  0  0  0  0  0  0  0
   -0.2743    0.3594   -2.4532 C   0  0  0  0  0  0  0  0  0  0  0  0
    1.8187    4.7715   -3.3622 C   0  0  0  0  0  0  0  0  0  0  0  0
    1.8539   -0.0797   -1.1207 C   0  0  0  0  0  0  0  0  0  0  0  0
   -0.1605    4.2936   -1.0971 C   0  0  0  0  0  0  0  0  0  0  0  0
    2.9174    2.2697   -1.9397 C   0  0  0  0  0  0  0  0  0  0  0  0
    1.4958   -1.3152   -1.4306 C   0  0  0  0  0  0  0  0  0  0  0  0
    1.1271    1.1667   -1.7357 C   0  0  0  0  0  0  0  0  0  0  0  0
    0.2694    1.8639   -2.6729 C   0  0  0  0  0  0  0  0  0  0  0  0
    1.2227    4.5071   -1.1474 C   0  0  0  0  0  0  0  0  0  0  0  0
    1.4172    2.2122   -0.9067 C   0  0  0  0  0  0  0  0  0  0  0  0
    2.5334   -2.6583   -1.3125 Cl  0  0  0  0  0  0  0  0  0  0  0  0
    0.2084    2.8723   -0.5471 N   0  0  0  0  0  0  0  0  0  0  0  0
    1.1645    3.5449   -2.5637 N   0  0  0  0  0  0  0  0  0  0  0  0
    1.8881    4.6086   -0.1146 O   0  0  0  0  0  0  0  0  0  0  0  0
  2  1  3  0
  4  3  2  0
  5  3  1  0
  6  4  1  0
  7  5  2  0
  9  8  2  0
 10  2  1  0
 13  6  2  0
 13  7  1  0
 14  8  1  0
 14 11  2  0
 15 11  1  0
 16  9  1  0
 16 15  2  0
 17 12  1  0
 18 13  1  0
 18 15  1  0
 19 14  1  0
 20 12  1  0
 20 18  2  0
 21 10  1  0
 21 16  1  0
 21 17  1  0
 22 17  2  0
M  END
>  <DRUGBANK_ID>  (1) 
DB13335

>  <COMMON_NAME>  (1) 
Pinazepam

>  <CAS_NUMBER>  (1) 
52463-83-9

>  <UNII>  (1) 
5286RBZ882

>  <SYNONYMS>  (1) 
Pinazepam

$$$$
