
     RDKit          3D

 19 21  0  0  0  0  0  0  0  0999 V2000
   -1.0169   -0.2990   -1.3628 O   0  0  0  0  0  0  0  0  0  0  0  0
   -2.9773   -1.4747   -1.4674 O   0  0  0  0  0  0  0  0  0  0  0  0
    2.5172    0.0119   -0.0029 N   0  0  0  0  0  0  0  0  0  0  0  0
   -2.7303    0.3844   -0.1297 N   0  0  0  0  0  0  0  0  0  0  0  0
   -0.4329    0.2185   -0.1732 C   0  0  0  0  0  0  0  0  0  0  0  0
   -1.6242    0.6156    0.7135 C   0  0  0  0  0  0  0  0  0  0  0  0
    0.4738    1.4399   -0.3433 C   0  0  0  0  0  0  0  0  0  0  0  0
    0.3153   -0.9701    0.3681 C   0  0  0  0  0  0  0  0  0  0  0  0
   -2.3237   -0.5603   -1.0437 C   0  0  0  0  0  0  0  0  0  0  0  0
    1.8662    1.0478   -0.8164 C   0  0  0  0  0  0  0  0  0  0  0  0
    1.7247   -1.2198   -0.1257 C   0  0  0  0  0  0  0  0  0  0  0  0
    2.9615    0.4439    1.3636 C   0  0  0  0  0  0  0  0  0  0  0  0
    1.9846    0.7582    2.5761 C   0  0  0  0  0  0  0  0  0  0  0  0
    1.2076   -0.4301    3.1858 C   0  0  0  0  0  0  0  0  0  0  0  0
    1.6771   -1.7411    2.9517 C   0  0  0  0  0  0  0  0  0  0  0  0
   -0.1604   -0.2806    3.5260 C   0  0  0  0  0  0  0  0  0  0  0  0
    0.7915   -2.8275    2.8664 C   0  0  0  0  0  0  0  0  0  0  0  0
   -1.0191   -1.4032    3.5570 C   0  0  0  0  0  0  0  0  0  0  0  0
   -0.5526   -2.6643    3.1814 C   0  0  0  0  0  0  0  0  0  0  0  0
  1  5  1  0
  1  9  1  0
  2  9  2  0
  3 10  1  0
  3 11  1  0
  3 12  1  0
  4  6  1  0
  4  9  1  0
  5  6  1  0
  5  7  1  0
  5  8  1  0
  7 10  1  0
  8 11  1  0
 12 13  1  0
 13 14  1  0
 14 15  2  0
 14 16  1  0
 15 17  1  0
 16 18  2  0
 17 19  2  0
 18 19  1  0
M  END
>  <DRUGBANK_ID>  (1) 
DB08979

>  <COMMON_NAME>  (1) 
Fenspiride

>  <CAS_NUMBER>  (1) 
5053-06-5

>  <UNII>  (1) 
S983QC7HKM

>  <SYNONYMS>  (1) 
Fenspirida; Fenspiride; Fenspiridum

$$$$
