1464
     RDKit          3D

 26 28  0  0  1  0  0  0  0  0999 V2000
    0.7335   -0.5193   -0.2881 O   0  0  0  0  0  0  0  0  0  0  0  0
    0.9139    3.9602   -1.1231 O   0  0  0  0  0  0  0  0  0  0  0  0
    1.7491    1.0429    1.2050 O   0  0  0  0  0  0  0  0  0  0  0  0
    0.7415   -0.8852    2.0713 O   0  0  0  0  0  0  0  0  0  0  0  0
   -2.0868    2.7554    0.2924 N   0  0  0  0  0  0  0  0  0  0  0  0
   -1.4088   -0.0906    1.1297 C   0  0  0  0  0  0  0  0  0  0  0  0
   -2.1438    0.1692   -0.1915 C   0  0  0  0  0  0  0  0  0  0  0  0
   -1.7602    1.0986    2.1389 C   0  0  0  0  0  0  0  0  0  0  0  0
   -1.8785    1.5950   -0.5800 C   0  0  0  0  0  0  0  0  0  0  0  0
   -1.7062    2.5661    1.6837 C   0  0  0  0  0  0  0  0  0  0  0  0
   -1.9376   -1.4350    1.6240 C   0  0  0  0  0  0  0  0  0  0  0  0
   -1.6137    4.0792   -0.2515 C   0  0  0  0  0  0  0  0  0  0  0  0
    0.1501   -0.4995    1.0171 C   0  0  0  0  0  0  0  0  0  0  0  0
   -0.0919    4.5769   -0.2731 C   0  0  0  0  0  0  0  0  0  0  0  0
   -1.5340   -2.5651    0.8733 C   0  0  0  0  0  0  0  0  0  0  0  0
   -2.5262   -1.5941    2.8743 C   0  0  0  0  0  0  0  0  0  0  0  0
    1.4548    2.2952    0.6694 C   0  0  0  0  0  0  0  0  0  0  0  0
    2.6280    3.0843    1.0936 C   0  0  0  0  0  0  0  0  0  0  0  0
    1.0216    2.5798   -0.8090 C   0  0  0  0  0  0  0  0  0  0  0  0
    3.3087    2.2714    2.1874 C   0  0  0  0  0  0  0  0  0  0  0  0
    2.9580    0.8654    1.9159 C   0  0  0  0  0  0  0  0  0  0  0  0
   -1.6736   -3.8302    1.3868 C   0  0  0  0  0  0  0  0  0  0  0  0
   -2.6631   -2.8705    3.3851 C   0  0  0  0  0  0  0  0  0  0  0  0
   -2.2601   -3.9789    2.6355 C   0  0  0  0  0  0  0  0  0  0  0  0
    2.2222   -0.5900   -0.5155 C   0  0  0  0  0  0  0  0  0  0  0  0
    2.8607   -0.4138   -1.8883 C   0  0  0  0  0  0  0  0  0  0  0  0
  1 13  1  0
  1 25  1  0
  2 14  1  0
  2 19  1  0
  3 17  1  0
  3 21  1  0
  4 13  2  0
  5  9  1  0
  5 10  1  0
  5 12  1  0
  6  7  1  0
  6  8  1  0
  6 11  1  0
  6 13  1  0
  7  9  1  0
  8 10  1  0
 11 15  2  0
 11 16  1  0
 12 14  1  0
 15 22  1  0
 16 23  2  0
 17 18  1  0
 17 19  1  0
 18 20  1  0
 20 21  1  0
 22 24  2  0
 23 24  1  0
 25 26  1  0
M  END
>  <DRUGBANK_ID>  (1) 
DB01464

>  <COMMON_NAME>  (1) 
Furethidine

>  <CAS_NUMBER>  (1) 
2385-81-1

>  <UNII>  (1) 
6U9XA4JOD4

>  <SYNONYMS>  (1) 
Furethidine

$$$$
