AL3
     RDKit          3D

 22 24  0  0  0  0  0  0  0  0999 V2000
    2.6008   -0.0630    0.0024 C   0  0  0  0  0  0  0  0  0  0  0  0
   -0.8831   -2.1865    1.2545 O   0  0  0  0  0  0  0  0  0  0  0  0
   -2.2511   -0.6920   -0.0891 C   0  0  0  0  0  0  0  0  0  0  0  0
   -0.8940   -1.4467    0.0253 C   0  0  1  0  0  0  0  0  0  0  0  0
   -2.9346    1.2301    1.3324 C   0  0  0  0  0  0  0  0  0  0  0  0
   -2.0918    0.8700    2.5273 C   0  0  0  0  0  0  0  0  0  0  0  0
   -0.8046    1.2308    2.9039 C   0  0  0  0  0  0  0  0  0  0  0  0
   -0.4101    0.6715    4.1463 C   0  0  0  0  0  0  0  0  0  0  0  0
   -1.4014   -0.1125    4.6765 C   0  0  0  0  0  0  0  0  0  0  0  0
    4.7153    0.5919   -1.2595 O   0  0  0  0  0  0  0  0  0  0  0  0
    4.7141    0.6069    1.2853 O   0  0  0  0  0  0  0  0  0  0  0  0
    4.8701   -1.5650   -0.0051 N   0  0  0  0  0  0  0  0  0  0  0  0
    4.3475    0.0277    0.0162 S   0  0  0  0  0  0  0  0  0  0  0  0
    1.6944   -1.1067    0.0021 C   0  0  0  0  0  0  0  0  0  0  0  0
    0.3510   -0.6240   -0.0437 C   0  0  0  0  0  0  0  0  0  0  0  0
    0.3444    0.7485   -0.1584 C   0  0  0  0  0  0  0  0  0  0  0  0
    1.8579    1.4635   -0.0540 S   0  0  0  0  0  0  0  0  0  0  0  0
   -1.0257    1.8025   -0.4142 S   0  0  0  0  0  0  0  0  0  0  0  0
   -1.0616    1.9854   -1.8362 O   0  0  0  0  0  0  0  0  0  0  0  0
   -0.8925    2.9224    0.5029 O   0  0  0  0  0  0  0  0  0  0  0  0
   -2.2903    0.8045    0.0884 N   0  0  0  0  0  0  0  0  0  0  0  0
   -2.7803   -0.1929    3.6840 S   0  0  0  0  0  0  0  0  0  0  0  0
  1 13  1  0
  1 14  2  0
  1 17  1  0
  3  4  1  0
  3 21  1  0
  4  2  1  1
  4 15  1  0
  5  6  1  0
  5 21  1  0
  6  7  2  0
  6 22  1  0
  7  8  1  0
  8  9  2  0
  9 22  1  0
 10 13  2  0
 11 13  2  0
 12 13  1  0
 14 15  1  0
 15 16  2  0
 16 17  1  0
 16 18  1  0
 18 19  2  0
 18 20  2  0
 18 21  1  0
M  END
>  <DRUGBANK_ID>  (1) 
DB04089

>  <SECONDARY_ACCESSION_NUMBERS>  (1) 
EXPT00488

>  <COMMON_NAME>  (1) 
AL5300

$$$$
