902
     RDKit          3D

 21 24  0  0  1  0  0  0  0  0999 V2000
    0.0275    1.7261    0.1502 S   0  0  0  0  0  0  0  0  0  0  0  0
   -2.2405    0.0973    2.6269 N   0  0  0  0  0  0  0  0  0  0  0  0
    0.0243   -1.3168    0.6793 N   0  0  0  0  0  0  0  0  0  0  0  0
   -0.7420   -1.5690    3.1606 C   0  0  0  0  0  0  0  0  0  0  0  0
   -0.1578   -0.2225    3.6206 C   0  0  0  0  0  0  0  0  0  0  0  0
   -2.2383   -1.2967    3.0135 C   0  0  0  0  0  0  0  0  0  0  0  0
   -1.2908    0.7914    3.4697 C   0  0  0  0  0  0  0  0  0  0  0  0
   -0.0506   -2.1670    1.8991 C   0  0  0  0  0  0  0  0  0  0  0  0
   -3.5214    0.7237    2.4366 C   0  0  0  0  0  0  0  0  0  0  0  0
    1.2764   -0.7641    0.3412 C   0  0  0  0  0  0  0  0  0  0  0  0
   -1.1581   -0.8145    0.0911 C   0  0  0  0  0  0  0  0  0  0  0  0
    1.4086    0.6065    0.0277 C   0  0  0  0  0  0  0  0  0  0  0  0
   -1.2826    0.5628   -0.2136 C   0  0  0  0  0  0  0  0  0  0  0  0
    2.3773   -1.6036    0.1092 C   0  0  0  0  0  0  0  0  0  0  0  0
   -2.2409   -1.6558   -0.1988 C   0  0  0  0  0  0  0  0  0  0  0  0
    2.6040    1.1191   -0.4693 C   0  0  0  0  0  0  0  0  0  0  0  0
   -2.4892    1.0831   -0.6995 C   0  0  0  0  0  0  0  0  0  0  0  0
    3.5527   -1.0962   -0.4403 C   0  0  0  0  0  0  0  0  0  0  0  0
   -3.4436   -1.1317   -0.6889 C   0  0  0  0  0  0  0  0  0  0  0  0
    3.6719    0.2625   -0.7260 C   0  0  0  0  0  0  0  0  0  0  0  0
   -3.5681    0.2349   -0.9290 C   0  0  0  0  0  0  0  0  0  0  0  0
  1 12  1  0
  1 13  1  0
  2  6  1  0
  2  7  1  0
  2  9  1  0
  3  8  1  0
  3 10  1  0
  3 11  1  0
  4  5  1  0
  4  6  1  0
  4  8  1  0
  5  7  1  0
 10 12  2  0
 10 14  1  0
 11 13  2  0
 11 15  1  0
 12 16  1  0
 13 17  1  0
 14 18  2  0
 15 19  2  0
 16 20  2  0
 17 21  2  0
 18 20  1  0
 19 21  1  0
M  END
>  <DRUGBANK_ID>  (1) 
DB00902

>  <SECONDARY_ACCESSION_NUMBERS>  (1) 
APRD00713

>  <COMMON_NAME>  (1) 
Methdilazine

>  <CAS_NUMBER>  (1) 
1982-37-2

>  <UNII>  (1) 
4Q13LY9Z8X

>  <SYNONYMS>  (1) 
Methdilazine; Methdilazinum; Metodilazina

$$$$
