MIA
     RDKit          3D

 30 32  0  0  0  0  0  0  0  0999 V2000
    0.5487    0.0430   -0.3323 O   0  0  0  0  0  0  0  0  0  0  0  0
    0.8797    0.8598   -1.6669 P   0  0  0  0  0  0  0  0  0  0  0  0
    1.2534    2.2612   -1.3927 O   0  0  0  0  0  0  0  0  0  0  0  0
    2.1156   -0.0934   -1.9854 O   0  0  0  0  0  0  0  0  0  0  0  0
   -0.2791    0.5558   -2.7397 O   0  0  0  0  0  0  0  0  0  0  0  0
   -0.3390   -0.3835   -3.8259 C   0  0  0  0  0  0  0  0  0  0  0  0
    0.9738   -1.1019   -4.1179 C   0  0  1  0  0  0  0  0  0  0  0  0
    1.1516   -1.9910   -2.9824 O   0  0  0  0  0  0  0  0  0  0  0  0
    1.1879   -1.9485   -5.3763 C   0  0  1  0  0  0  0  0  0  0  0  0
    2.5018   -1.6821   -5.9163 O   0  0  0  0  0  0  0  0  0  0  0  0
    1.1652   -3.3914   -4.8819 C   0  0  1  0  0  0  0  0  0  0  0  0
    1.9959   -4.2657   -5.6373 O   0  0  0  0  0  0  0  0  0  0  0  0
    1.6483   -3.2469   -3.4460 C   0  0  2  0  0  0  0  0  0  0  0  0
    1.1642   -4.2588   -2.5469 N   0  0  0  0  0  0  0  0  0  0  0  0
   -0.1408   -4.4893   -2.2237 C   0  0  0  0  0  0  0  0  0  0  0  0
   -0.2518   -5.5145   -1.4180 N   0  0  0  0  0  0  0  0  0  0  0  0
    1.0412   -5.9453   -1.1757 C   0  0  0  0  0  0  0  0  0  0  0  0
    1.5781   -7.0027   -0.4128 C   0  0  0  0  0  0  0  0  0  0  0  0
    0.8128   -7.9211    0.2758 N   0  0  0  0  0  0  0  0  0  0  0  0
    2.9475   -7.1243   -0.3710 N   0  0  0  0  0  0  0  0  0  0  0  0
    3.7122   -6.2421   -1.0634 C   0  0  0  0  0  0  0  0  0  0  0  0
    3.2685   -5.2217   -1.8299 N   0  0  0  0  0  0  0  0  0  0  0  0
    1.9361   -5.1413   -1.8469 C   0  0  0  0  0  0  0  0  0  0  0  0
    5.4995   -6.3286   -1.0558 S   0  0  0  0  0  0  0  0  0  0  0  0
    5.8805   -7.7631   -0.0291 C   0  0  0  0  0  0  0  0  0  0  0  0
   -0.6411   -7.9035    0.3074 C   0  0  0  0  0  0  0  0  0  0  0  0
   -1.2216   -9.2019   -0.2498 C   0  0  0  0  0  0  0  0  0  0  0  0
   -0.8773  -10.4286    0.6031 C   0  0  0  0  0  0  0  0  0  0  0  0
   -1.3961  -10.2718    2.0328 C   0  0  0  0  0  0  0  0  0  0  0  0
   -1.4618  -11.6901   -0.0266 C   0  0  0  0  0  0  0  0  0  0  0  0
  1  2  1  0
  2  3  2  0
  2  4  1  0
  2  5  1  0
  5  6  1  0
  7  6  1  6
  7  8  1  0
  7  9  1  0
  8 13  1  0
  9 10  1  1
  9 11  1  0
 11 12  1  6
 11 13  1  0
 13 14  1  1
 14 15  1  0
 14 23  1  0
 15 16  2  0
 16 17  1  0
 17 18  1  0
 17 23  2  0
 18 19  1  0
 18 20  2  0
 19 26  1  0
 20 21  1  0
 21 22  2  0
 21 24  1  0
 22 23  1  0
 24 25  1  0
 26 27  1  0
 27 28  1  0
 28 29  1  0
 28 30  1  0
M  END
>  <DRUGBANK_ID>  (1) 
DB08185

>  <COMMON_NAME>  (1) 
2-METHYLTHIO-N6-ISOPENTENYL-ADENOSINE-5'-MONOPHOSPHATE

$$$$
