4DE
     RDKit          3D

 20 21  0  0  0  0  0  0  0  0999 V2000
    1.0890    0.0193    0.2499 O   0  0  0  0  0  0  0  0  0  0  0  0
    2.3332    0.0335    0.2495 C   0  0  0  0  0  0  0  0  0  0  0  0
    2.9238    0.4824   -0.9134 O   0  0  0  0  0  0  0  0  0  0  0  0
    4.3242    0.4846   -1.2812 C   0  0  0  0  0  0  0  0  0  0  0  0
    5.0138    1.3859   -0.3274 C   0  0  0  0  0  0  0  0  0  0  0  0
    3.0632   -0.6041    1.3937 C   0  0  0  0  0  0  0  0  0  0  0  0
    2.7501   -1.9442    1.7886 C   0  0  0  0  0  0  0  0  0  0  0  0
    1.7065   -2.8507    1.2072 C   0  0  0  0  0  0  0  0  0  0  0  0
    3.5453   -2.3935    2.7638 N   0  0  0  0  0  0  0  0  0  0  0  0
    4.2564   -1.3218    3.1883 N   0  0  0  0  0  0  0  0  0  0  0  0
    3.9986   -0.1850    2.3929 C   0  0  0  0  0  0  0  0  0  0  0  0
    4.7990    1.0919    2.6279 C   0  0  0  0  0  0  0  0  0  0  0  0
    5.1813   -1.4830    4.2866 C   0  0  0  0  0  0  0  0  0  0  0  0
    6.0422   -2.5943    4.3312 C   0  0  0  0  0  0  0  0  0  0  0  0
    7.0036   -2.7371    5.3596 C   0  0  0  0  0  0  0  0  0  0  0  0
    7.0912   -1.8027    6.3888 C   0  0  0  0  0  0  0  0  0  0  0  0
    6.2156   -0.7111    6.3620 C   0  0  0  0  0  0  0  0  0  0  0  0
    5.2508   -0.5640    5.3399 C   0  0  0  0  0  0  0  0  0  0  0  0
    7.9522   -1.8548    7.4553 O   0  0  0  0  0  0  0  0  0  0  0  0
    8.7882   -3.0068    7.5779 C   0  0  0  0  0  0  0  0  0  0  0  0
  1  2  2  0
  2  3  1  0
  2  6  1  0
  3  4  1  0
  4  5  1  0
  6  7  1  0
  6 11  2  0
  7  8  1  0
  7  9  2  0
  9 10  1  0
 10 11  1  0
 10 13  1  0
 11 12  1  0
 13 14  2  0
 13 18  1  0
 14 15  1  0
 15 16  2  0
 16 17  1  0
 16 19  1  0
 17 18  2  0
 19 20  1  0
M  END
>  <DRUGBANK_ID>  (1) 
DB04469

>  <SECONDARY_ACCESSION_NUMBERS>  (1) 
EXPT00210

>  <COMMON_NAME>  (1) 
1-(4-Methoxyphenyl)-3,5-Dimethyl-1h-Pyrazole-4-Carboxylic Acid Ethyl Ester

$$$$
