
     RDKit          3D

 21 21  0  0  0  0  0  0  0  0999 V2000
    2.2272   -0.0321   -0.0370 C   0  0  0  0  0  0  0  0  0  0  0  0
    0.7844    0.0024   -0.0530 N   0  0  0  0  0  0  0  0  0  0  0  0
   -0.0170   -1.1414   -0.0891 C   0  0  0  0  0  0  0  0  0  0  0  0
   -1.3108   -0.6494   -0.1018 C   0  0  0  0  0  0  0  0  0  0  0  0
   -1.3305    0.7178   -0.0705 N   0  0  0  0  0  0  0  0  0  0  0  0
   -0.0672    1.0879   -0.0289 C   0  0  0  0  0  0  0  0  0  0  0  0
    0.3194    2.4825    0.0349 N   0  0  0  0  0  0  0  0  0  0  0  0
   -0.5951    3.3257    0.0367 O   0  0  0  0  0  0  0  0  0  0  0  0
    1.5184    2.7588    0.0874 O   0  0  0  0  0  0  0  0  0  0  0  0
    0.4561   -2.5669   -0.0177 C   0  0  0  0  0  0  0  0  0  0  0  0
   -0.0451   -3.2216    1.1677 O   0  0  0  0  0  0  0  0  0  0  0  0
    0.5191   -2.4088    2.5868 P   0  0  0  0  0  0  0  0  0  0  0  0
   -0.7748   -1.6429    2.5319 O   0  0  0  0  0  0  0  0  0  0  0  0
    0.4542   -3.8369    3.4618 N   0  0  0  0  0  0  0  0  0  0  0  0
   -0.4880   -4.0111    4.5735 C   0  0  0  0  0  0  0  0  0  0  0  0
   -1.9368   -3.7829    4.1765 C   0  0  0  0  0  0  0  0  0  0  0  0
   -2.5300   -5.1678    2.9516 Br  0  0  0  0  0  0  0  0  0  0  0  0
    1.0996   -1.5725    4.0469 N   0  0  0  0  0  0  0  0  0  0  0  0
    0.4423   -0.2345    4.2403 C   0  0  0  0  0  0  0  0  0  0  0  0
   -1.0859   -0.1227    4.5262 C   0  0  0  0  0  0  0  0  0  0  0  0
   -1.5508   -0.9102    6.2396 Br  0  0  0  0  0  0  0  0  0  0  0  0
  1  2  1  0
  2  3  1  0
  2  6  1  0
  3  4  2  0
  3 10  1  0
  4  5  1  0
  5  6  2  0
  6  7  1  0
  7  8  2  0
  7  9  1  0
 10 11  1  0
 11 12  1  0
 12 13  2  0
 12 14  1  0
 12 18  1  0
 14 15  1  0
 15 16  1  0
 16 17  1  0
 18 19  1  0
 19 20  1  0
 20 21  1  0
M  CHG  2   7   1   9  -1
M  END
>  <DRUGBANK_ID>  (1) 
DB06091

>  <COMMON_NAME>  (1) 
Evofosfamide

>  <CAS_NUMBER>  (1) 
918633-87-1

>  <UNII>  (1) 
8A9RZ3HN8W

>  <SYNONYMS>  (1) 
(1-methyl-2-nitro-1H-imidazol-5-YL)methyl N,N'-bis(2-bromoethyl)diamidophosphate; (1-methyl-2-nitro-1H-imidazole-5-yl)methyl N,N'-bis(2-bromoethyl) diamidophosphate; Evofosfamide

$$$$
