
     RDKit          3D

 16 17  0  0  0  0  0  0  0  0999 V2000
    0.9596   -0.0452   -0.0596 S   0  0  0  0  0  0  0  0  0  0  0  0
    0.2962   -1.9874   -0.0619 S   0  0  0  0  0  0  0  0  0  0  0  0
    2.7697   -0.1107   -0.0989 C   0  0  0  0  0  0  0  0  0  0  0  0
   -1.4753   -1.9049   -0.0894 C   0  0  0  0  0  0  0  0  0  0  0  0
    3.5415   -1.2808   -0.0979 N   0  0  0  0  0  0  0  0  0  0  0  0
    3.4419    1.1380   -0.1101 C   0  0  0  0  0  0  0  0  0  0  0  0
   -2.1810   -1.4016   -1.1837 N   0  0  0  0  0  0  0  0  0  0  0  0
   -2.1752   -2.4771    0.9917 C   0  0  0  0  0  0  0  0  0  0  0  0
    3.0808   -2.4651   -0.0648 O   0  0  0  0  0  0  0  0  0  0  0  0
    4.9302   -1.1733   -0.1144 C   0  0  0  0  0  0  0  0  0  0  0  0
    4.8379    1.2096   -0.1205 C   0  0  0  0  0  0  0  0  0  0  0  0
   -1.6159   -0.9105   -2.2161 O   0  0  0  0  0  0  0  0  0  0  0  0
   -3.5711   -1.4531   -1.1540 C   0  0  0  0  0  0  0  0  0  0  0  0
   -3.5664   -2.5195    0.9947 C   0  0  0  0  0  0  0  0  0  0  0  0
    5.5883    0.0483   -0.1246 C   0  0  0  0  0  0  0  0  0  0  0  0
   -4.2703   -2.0018   -0.0800 C   0  0  0  0  0  0  0  0  0  0  0  0
  1  2  1  0
  1  3  1  0
  2  4  1  0
  3  5  2  0
  3  6  1  0
  4  7  2  0
  4  8  1  0
  5  9  1  0
  5 10  1  0
  6 11  2  0
  7 12  1  0
  7 13  1  0
  8 14  2  0
 10 15  2  0
 11 15  1  0
 13 16  2  0
 14 16  1  0
M  CHG  4   5   1   7   1   9  -1  12  -1
M  END
>  <DRUGBANK_ID>  (1) 
DB11327

>  <COMMON_NAME>  (1) 
Dipyrithione

>  <CAS_NUMBER>  (1) 
3696-28-4

>  <UNII>  (1) 
9L87N86R9A

>  <SYNONYMS>  (1) 
Bispyrithione; Dipiritiona; Dipyrithione; Dipyrithionum; Omadine disulfide; OMDS; Pyrithione disulfide; Pyrithione disulphide

$$$$
