
     RDKit          3D

 20 19  0  0  0  0  0  0  0  0999 V2000
    0.9419    0.0017    0.0400 C   0  0  0  0  0  0  0  0  0  0  0  0
    0.4896    0.1584   -1.4194 C   0  0  0  0  0  0  0  0  0  0  0  0
    1.0020   -0.9605   -2.3371 C   0  0  0  0  0  0  0  0  0  0  0  0
    0.4550   -2.3469   -2.0066 C   0  0  0  0  0  0  0  0  0  0  0  0
   -1.0743   -2.3115   -1.8924 C   0  0  0  0  0  0  0  0  0  0  0  0
   -1.1339   -3.2340   -4.1891 C   0  0  0  0  0  0  0  0  0  0  0  0
   -1.6143   -4.5697   -3.6098 C   0  0  0  0  0  0  0  0  0  0  0  0
   -3.1440   -4.5707   -3.5874 C   0  0  0  0  0  0  0  0  0  0  0  0
   -3.6643   -4.3647   -5.0132 C   0  0  0  0  0  0  0  0  0  0  0  0
   -3.1487   -5.4917   -5.9131 C   0  0  0  0  0  0  0  0  0  0  0  0
   -3.6427   -6.8410   -5.3839 C   0  0  0  0  0  0  0  0  0  0  0  0
    0.4194   -1.2434    0.7545 C   0  0  0  0  0  0  0  0  0  0  0  0
   -5.1708   -6.9058   -5.4124 C   0  0  0  0  0  0  0  0  0  0  0  0
    0.9324   -1.4688    2.1453 C   0  0  0  0  0  0  0  0  0  0  0  0
   -5.7152   -6.7015   -6.8215 C   0  0  0  0  0  0  0  0  0  0  0  0
   -1.6246   -2.0931   -3.2947 C   0  0  0  0  0  0  0  0  0  0  0  0
   -5.5158   -9.2736   -7.3216 O   0  0  0  0  0  0  0  0  0  0  0  0
   -5.6094   -7.6549   -9.2678 O   0  0  0  0  0  0  0  0  0  0  0  0
   -5.1889   -7.9935   -7.9322 S   0  0  0  0  0  0  0  0  0  0  0  0
   -3.6027   -7.9562   -7.9904 F   0  0  0  0  0  0  0  0  0  0  0  0
  2  1  1  0
  3  2  1  0
  4  3  1  0
  5  4  1  0
  6 16  1  0
  7  6  1  0
  8  7  1  0
  9  8  1  0
 10  9  1  0
 11 10  1  0
 12  1  1  0
 13 11  1  0
 14 12  1  0
 15 13  1  0
 16  5  1  0
 19 15  1  0
 19 17  2  0
 19 18  2  0
 19 20  1  0
M  END
>  <DRUGBANK_ID>  (1) 
DB02035

>  <SECONDARY_ACCESSION_NUMBERS>  (1) 
EXPT01783

>  <COMMON_NAME>  (1) 
Hexadecanesulfonyl fluoride

>  <CAS_NUMBER>  (1) 
86855-26-7

>  <UNII>  (1) 
ANCAJYD3FV

>  <SYNONYMS>  (1) 
1-Hexadecanesulfonyl fluoride; Hexadecane-1-sulfonyl fluoride

$$$$
