
     RDKit          3D

 29 28  0  0  0  0  0  0  0  0999 V2000
   -4.8966   -4.5540   -2.9933 O   0  0  0  0  0  0  0  0  0  0  0  0
   -4.3555   -3.5040   -2.3544 C   0  0  0  0  0  0  0  0  0  0  0  0
   -2.8302   -3.2175   -2.5061 C   0  0  2  0  0  0  0  0  0  0  0  0
   -2.0156   -4.1618   -3.4274 C   0  0  0  0  0  0  0  0  0  0  0  0
   -1.2153   -3.5591   -4.5961 C   0  0  0  0  0  0  0  0  0  0  0  0
   -0.1978   -2.5142   -4.2540 C   0  0  0  0  0  0  0  0  0  0  0  0
    1.0677   -2.8774   -3.8859 N   0  0  0  0  0  0  0  0  0  0  0  0
    2.0579   -1.9075   -3.2949 C   0  0  2  0  0  0  0  0  0  0  0  0
    1.5246   -0.8861   -2.1903 C   0  0  0  0  0  0  0  0  0  0  0  0
    0.1881   -0.9077   -1.8786 N   0  0  0  0  0  0  0  0  0  0  0  0
   -0.5511    0.1798   -1.2599 C   0  0  0  0  0  0  0  0  0  0  0  0
   -1.3608    1.0653   -2.2582 C   0  0  0  0  0  0  0  0  0  0  0  0
   -2.7315    1.1137   -2.0360 N   0  0  0  0  0  0  0  0  0  0  0  0
   -3.6215    1.9985   -2.7914 C   0  0  0  0  0  0  0  0  0  0  0  0
   -4.7585    1.2586   -3.5045 C   0  0  0  0  0  0  0  0  0  0  0  0
   -5.6883    0.5225   -2.5509 C   0  0  0  0  0  0  0  0  0  0  0  0
   -6.3758    1.4384   -1.6379 N   0  0  0  0  0  0  0  0  0  0  0  0
   -7.1567    0.6986   -0.6458 C   0  0  0  0  0  0  0  0  0  0  0  0
   -6.2889   -0.2053    0.2400 C   0  0  0  0  0  0  0  0  0  0  0  0
   -5.2106    0.5654    1.0136 C   0  0  0  0  0  0  0  0  0  0  0  0
   -5.8091    1.5933    1.9695 C   0  0  0  0  0  0  0  0  0  0  0  0
   -6.6558    0.9310    2.9527 N   0  0  0  0  0  0  0  0  0  0  0  0
   -5.0633   -2.8184   -1.6227 O   0  0  0  0  0  0  0  0  0  0  0  0
   -2.2264   -3.2511   -1.1456 N   0  0  0  0  0  0  0  0  0  0  0  0
   -0.6029   -1.3520   -4.1697 O   0  0  0  0  0  0  0  0  0  0  0  0
    2.9221   -1.1897   -4.3687 C   0  0  0  0  0  0  0  0  0  0  0  0
    4.3337   -0.1928   -3.7520 S   0  0  0  0  0  0  0  0  0  0  0  0
    2.2852   -0.1108   -1.6095 O   0  0  0  0  0  0  0  0  0  0  0  0
   -0.8330    1.6829   -3.1803 O   0  0  0  0  0  0  0  0  0  0  0  0
  2  1  1  0
  3 24  1  1
  3  4  1  0
  3  2  1  0
  5  4  1  0
  6  5  1  0
  7  6  1  0
  8 26  1  6
  8  9  1  0
  8  7  1  0
 10  9  1  0
 11 10  1  0
 12 11  1  0
 13 12  1  0
 14 13  1  0
 15 14  1  0
 16 15  1  0
 17 16  1  0
 18 17  1  0
 19 18  1  0
 20 19  1  0
 21 20  1  0
 22 21  1  0
 23  2  2  0
 25  6  2  0
 27 26  1  0
 28  9  2  0
 29 12  2  0
M  END
>  <DRUGBANK_ID>  (1) 
DB03295

>  <SECONDARY_ACCESSION_NUMBERS>  (1) 
EXPT03120

>  <COMMON_NAME>  (1) 
Glutathionylspermidine

>  <CAS_NUMBER>  (1) 
33932-35-3

>  <SYNONYMS>  (1) 
N'-Glutathionylspermidine disulfide; N1-(gamma-L-Glutamyl-L-cysteinyl-glycyl)-spermidine

$$$$
