691
     RDKit          3D

 36 38  0  0  1  0  0  0  0  0999 V2000
    1.0395    0.1831    0.2268 O   0  0  0  0  0  0  0  0  0  0  0  0
    0.3295    3.1023    0.7087 O   0  0  0  0  0  0  0  0  0  0  0  0
    7.6846    5.4324   -1.2710 O   0  0  0  0  0  0  0  0  0  0  0  0
    8.7630    2.7605   -1.2471 O   0  0  0  0  0  0  0  0  0  0  0  0
    0.3914    2.5220   -1.4781 O   0  0  0  0  0  0  0  0  0  0  0  0
    2.4757   -3.6744    4.5676 O   0  0  0  0  0  0  0  0  0  0  0  0
    2.3400   -1.4445    4.7411 O   0  0  0  0  0  0  0  0  0  0  0  0
    2.9854    1.1715   -0.4871 N   0  0  0  0  0  0  0  0  0  0  0  0
    2.7012   -1.2415    1.9875 N   0  0  0  0  0  0  0  0  0  0  0  0
    2.4974    2.5502   -0.2452 C   0  0  1  0  0  0  0  0  0  0  0  0
    3.1421    3.6004   -1.1889 C   0  0  0  0  0  0  0  0  0  0  0  0
    4.1348    0.9847   -1.3721 C   0  0  0  0  0  0  0  0  0  0  0  0
    4.6396    3.4322   -1.2374 C   0  0  0  0  0  0  0  0  0  0  0  0
    5.1222    2.1197   -1.2853 C   0  0  0  0  0  0  0  0  0  0  0  0
    3.0431   -1.0893    0.5709 C   0  0  2  0  0  0  0  0  0  0  0  0
    2.2542    0.1138    0.0423 C   0  0  0  0  0  0  0  0  0  0  0  0
    3.4269   -2.2982    2.7037 C   0  0  1  0  0  0  0  0  0  0  0  0
    5.5410    4.5060   -1.2597 C   0  0  0  0  0  0  0  0  0  0  0  0
    0.9817    2.7105   -0.4119 C   0  0  0  0  0  0  0  0  0  0  0  0
    6.5006    1.8908   -1.3024 C   0  0  0  0  0  0  0  0  0  0  0  0
    4.9465   -2.0728    2.6369 C   0  0  0  0  0  0  0  0  0  0  0  0
    2.6643   -2.3501   -0.1894 C   0  0  0  0  0  0  0  0  0  0  0  0
    6.9311    4.2788   -1.2722 C   0  0  0  0  0  0  0  0  0  0  0  0
    7.4112    2.9543   -1.2750 C   0  0  0  0  0  0  0  0  0  0  0  0
    5.4068   -0.8110    3.3567 C   0  0  0  0  0  0  0  0  0  0  0  0
    2.7038   -2.4239    4.0894 C   0  0  0  0  0  0  0  0  0  0  0  0
    5.2107   -0.9242    4.8445 C   0  0  0  0  0  0  0  0  0  0  0  0
    5.2186   -2.1792    5.4859 C   0  0  0  0  0  0  0  0  0  0  0  0
    4.9068    0.2113    5.5983 C   0  0  0  0  0  0  0  0  0  0  0  0
    9.1053    5.2981   -1.2846 C   0  0  0  0  0  0  0  0  0  0  0  0
    9.2816    1.4445   -1.2333 C   0  0  0  0  0  0  0  0  0  0  0  0
    2.1811   -4.7657    3.6835 C   0  0  0  0  0  0  0  0  0  0  0  0
    4.8451   -2.3113    6.8137 C   0  0  0  0  0  0  0  0  0  0  0  0
    4.6658    0.0875    6.9667 C   0  0  0  0  0  0  0  0  0  0  0  0
    4.5967   -1.1730    7.5626 C   0  0  0  0  0  0  0  0  0  0  0  0
    1.1151   -4.4127    2.6552 C   0  0  0  0  0  0  0  0  0  0  0  0
  1 16  2  0
  2 19  1  0
  3 23  1  0
  3 30  1  0
  4 24  1  0
  4 31  1  0
  5 19  2  0
  6 26  1  0
  6 32  1  0
  7 26  2  0
  8 10  1  0
  8 12  1  0
  8 16  1  0
 10 11  1  0
 10 19  1  6
 11 13  1  0
 12 14  1  0
 13 14  2  0
 13 18  1  0
 14 20  1  0
 15  9  1  0
 15 16  1  0
 15 22  1  6
 17  9  1  0
 17 21  1  1
 17 26  1  0
 18 23  2  0
 20 24  2  0
 21 25  1  0
 23 24  1  0
 25 27  1  0
 27 28  2  0
 27 29  1  0
 28 33  1  0
 29 34  2  0
 32 36  1  0
 33 35  2  0
 34 35  1  0
M  END
>  <DRUGBANK_ID>  (1) 
DB00691

>  <SECONDARY_ACCESSION_NUMBERS>  (1) 
APRD01120

>  <COMMON_NAME>  (1) 
Moexipril

>  <CAS_NUMBER>  (1) 
103775-10-6

>  <UNII>  (1) 
WT87C52TJZ

>  <SYNONYMS>  (1) 
Moexipril; Moexiprilum

$$$$
