
     RDKit          3D

 25 24  0  0  0  0  0  0  0  0999 V2000
    0.9805   -0.1061    0.0213 O   0  0  0  0  0  0  0  0  0  0  0  0
    0.2237   -0.8321    1.0108 C   0  0  0  0  0  0  0  0  0  0  0  0
    0.2921   -2.3503    0.7882 C   0  0  0  0  0  0  0  0  0  0  0  0
    1.6094   -2.8430    0.8071 O   0  0  0  0  0  0  0  0  0  0  0  0
   -0.4139   -3.1342    1.8664 C   0  0  0  0  0  0  0  0  0  0  0  0
   -1.8123   -2.9851    1.7536 O   0  0  0  0  0  0  0  0  0  0  0  0
    2.3028    0.1396    0.1019 C   0  0  0  0  0  0  0  0  0  0  0  0
    3.1430   -0.6720    1.0601 C   0  0  0  0  0  0  0  0  0  0  0  0
    4.0192   -1.6942    0.2915 C   0  0  0  0  0  0  0  0  0  0  0  0
    5.0308   -0.9961   -0.5905 C   0  0  0  0  0  0  0  0  0  0  0  0
    5.9036   -0.1232    0.2894 C   0  0  0  0  0  0  0  0  0  0  0  0
    6.6166   -1.0125    1.3163 C   0  0  0  0  0  0  0  0  0  0  0  0
    7.4720   -2.0470    0.5768 C   0  0  0  0  0  0  0  0  0  0  0  0
    8.4619   -1.3086   -0.3281 C   0  0  0  0  0  0  0  0  0  0  0  0
    9.3332   -0.3904    0.5345 C   0  0  0  0  0  0  0  0  0  0  0  0
   10.0901   -1.2382    1.5603 C   0  0  0  0  0  0  0  0  0  0  0  0
   10.9646   -2.2562    0.8232 C   0  0  0  0  0  0  0  0  0  0  0  0
   11.9568   -1.5143   -0.0775 C   0  0  0  0  0  0  0  0  0  0  0  0
   12.8412   -0.6019    0.7775 C   0  0  0  0  0  0  0  0  0  0  0  0
   13.6095   -1.4408    1.8028 C   0  0  0  0  0  0  0  0  0  0  0  0
   14.4959   -2.4657    1.0865 C   0  0  0  0  0  0  0  0  0  0  0  0
   15.5257   -1.7637    0.1944 C   0  0  0  0  0  0  0  0  0  0  0  0
   16.4201   -0.8269    1.0075 C   0  0  0  0  0  0  0  0  0  0  0  0
   17.1791   -1.6067    2.0688 C   0  0  0  0  0  0  0  0  0  0  0  0
    2.8120    0.9567   -0.6723 O   0  0  0  0  0  0  0  0  0  0  0  0
  1  2  1  0
  1  7  1  0
  2  3  1  0
  3  4  1  0
  3  5  1  0
  5  6  1  0
  7  8  1  0
  7 25  2  0
  8  9  1  0
  9 10  1  0
 10 11  1  0
 11 12  1  0
 12 13  1  0
 13 14  1  0
 14 15  1  0
 15 16  1  0
 16 17  1  0
 17 18  1  0
 18 19  1  0
 19 20  1  0
 20 21  1  0
 21 22  1  0
 22 23  1  0
 23 24  1  0
M  END
>  <DRUGBANK_ID>  (1) 
DB11250

>  <SECONDARY_ACCESSION_NUMBERS>  (1) 
DBSALT001566

>  <COMMON_NAME>  (1) 
Glyceryl monostearate

>  <CAS_NUMBER>  (1) 
31566-31-1

>  <UNII>  (1) 
258491E1RZ

>  <SYNONYMS>  (1) 
Geleol mono and diglycerides; Glycerin monostearate; Glycerol monostearate; Glyceroli monostearas; Glyceryl monooctadecanoate; Glyceryl monopalmitostearate; Glyceryl stearate; Monoglyceryl stearate; Monostearate (glyceride); Monostearin; Stearic acid, monoester with glycerol; Stearoylglycerol

$$$$
