
     RDKit          3D

 32 34  0  0  0  0  0  0  0  0999 V2000
    0.8628   -0.3946   -0.1733 C   0  0  0  0  0  0  0  0  0  0  0  0
    0.6390    0.8361    0.6420 C   0  0  0  0  0  0  0  0  0  0  0  0
    1.0470    2.0884    0.0336 O   0  0  0  0  0  0  0  0  0  0  0  0
    2.3354    2.4530    0.3791 C   0  0  0  0  0  0  0  0  0  0  0  0
    3.2966    1.6334   -0.2318 C   0  0  0  0  0  0  0  0  0  0  0  0
    4.6378    1.9366   -0.2224 C   0  0  0  0  0  0  0  0  0  0  0  0
    5.0296    3.1444    0.3160 C   0  0  0  0  0  0  0  0  0  0  0  0
    4.0848    3.9804    0.9447 C   0  0  0  0  0  0  0  0  0  0  0  0
    2.7164    3.6214    1.0863 C   0  0  0  0  0  0  0  0  0  0  0  0
    1.9219    4.5477    2.0510 C   0  0  0  0  0  0  0  0  0  0  0  0
    2.4648    5.5516    2.4889 O   0  0  0  0  0  0  0  0  0  0  0  0
    0.6418    4.2935    2.5601 N   0  0  0  0  0  0  0  0  0  0  0  0
   -0.1556    3.1521    2.2803 C   0  0  0  0  0  0  0  0  0  0  0  0
   -0.5431    2.2176    3.3557 C   0  0  0  0  0  0  0  0  0  0  0  0
   -0.9886    2.4059    4.6286 C   0  0  0  0  0  0  0  0  0  0  0  0
   -1.0286    1.1887    5.2599 O   0  0  0  0  0  0  0  0  0  0  0  0
   -0.6166    0.2897    4.3056 C   0  0  0  0  0  0  0  0  0  0  0  0
   -0.3722    0.8542    3.1537 N   0  0  0  0  0  0  0  0  0  0  0  0
   -0.3465   -1.0853    4.7054 C   0  0  0  0  0  0  0  0  0  0  0  0
    0.9506   -1.6128    4.5581 C   0  0  0  0  0  0  0  0  0  0  0  0
    1.2709   -2.8924    5.0103 C   0  0  0  0  0  0  0  0  0  0  0  0
    0.2987   -3.6672    5.6103 C   0  0  0  0  0  0  0  0  0  0  0  0
    0.5550   -4.9092    6.0740 O   0  0  0  0  0  0  0  0  0  0  0  0
    1.7461   -5.6375    5.9324 C   0  0  0  0  0  0  0  0  0  0  0  0
    2.0899   -5.7062    4.6307 F   0  0  0  0  0  0  0  0  0  0  0  0
    2.7317   -5.0300    6.6250 F   0  0  0  0  0  0  0  0  0  0  0  0
   -1.0076   -3.1524    5.7834 C   0  0  0  0  0  0  0  0  0  0  0  0
   -2.0315   -3.7363    6.4934 O   0  0  0  0  0  0  0  0  0  0  0  0
   -1.7786   -4.9068    7.2879 C   0  0  0  0  0  0  0  0  0  0  0  0
   -1.7032   -6.1535    6.3811 C   0  0  0  0  0  0  0  0  0  0  0  0
   -0.7111   -4.6983    8.3958 C   0  0  0  0  0  0  0  0  0  0  0  0
   -1.3402   -1.8945    5.2564 C   0  0  0  0  0  0  0  0  0  0  0  0
  1  2  1  0
  2  3  1  0
  3  4  1  0
  4  5  2  0
  4  9  1  0
  5  6  1  0
  6  7  2  0
  7  8  1  0
  8  9  2  0
  9 10  1  0
 10 11  2  0
 10 12  1  0
 12 13  1  0
 13 14  1  0
 14 15  2  0
 14 18  1  0
 15 16  1  0
 16 17  1  0
 17 18  2  0
 17 19  1  0
 19 20  2  0
 19 32  1  0
 20 21  1  0
 21 22  2  0
 22 23  1  0
 22 27  1  0
 23 24  1  0
 24 25  1  0
 24 26  1  0
 27 28  1  0
 27 32  2  0
 28 29  1  0
 29 30  1  0
 29 31  1  0
M  END
>  <DRUGBANK_ID>  (1) 
DB14987

>  <COMMON_NAME>  (1) 
Difamilast

>  <CAS_NUMBER>  (1) 
937782-05-3

>  <UNII>  (1) 
T3U32GLJ0F

>  <SYNONYMS>  (1) 
Difamilast

$$$$
