
     RDKit          3D

 21 22  0  0  0  0  0  0  0  0999 V2000
    0.9721   -0.0231   -0.1179 C   0  0  0  0  0  0  0  0  0  0  0  0
    0.5950    1.1796   -0.9333 C   0  0  0  0  0  0  0  0  0  0  0  0
    1.1870    2.3983   -0.6424 C   0  0  0  0  0  0  0  0  0  0  0  0
    1.0307    3.5037   -1.4937 C   0  0  0  0  0  0  0  0  0  0  0  0
    1.9166    4.7102   -1.2781 C   0  0  0  0  0  0  0  0  0  0  0  0
    0.0374    3.4759   -2.4354 N   0  0  0  0  0  0  0  0  0  0  0  0
   -0.4060    4.7672   -3.0573 C   0  0  0  0  0  0  0  0  0  0  0  0
   -1.3228    5.6396   -2.1328 C   0  0  0  0  0  0  0  0  0  0  0  0
   -0.8105    6.1379   -0.7756 C   0  0  0  0  0  0  0  0  0  0  0  0
   -0.4765    5.2443    0.2606 C   0  0  0  0  0  0  0  0  0  0  0  0
    0.4654    5.6155    1.2436 C   0  0  0  0  0  0  0  0  0  0  0  0
    0.8603    6.9487    1.3714 C   0  0  0  0  0  0  0  0  0  0  0  0
    0.3436    7.8987    0.4924 C   0  0  0  0  0  0  0  0  0  0  0  0
   -0.4590    7.4902   -0.5947 C   0  0  0  0  0  0  0  0  0  0  0  0
    1.9363    7.3885    2.7170 S   0  0  0  0  0  0  0  0  0  0  0  0
    3.1132    8.4081    2.0728 N   0  0  0  0  0  0  0  0  0  0  0  0
    1.1405    8.1858    3.6328 O   0  0  0  0  0  0  0  0  0  0  0  0
    2.6501    6.2129    3.1301 O   0  0  0  0  0  0  0  0  0  0  0  0
   -0.5410    2.2763   -2.7793 C   0  0  0  0  0  0  0  0  0  0  0  0
   -1.4121    2.1428   -4.0002 C   0  0  0  0  0  0  0  0  0  0  0  0
   -0.2436    1.1158   -2.0361 C   0  0  0  0  0  0  0  0  0  0  0  0
  1  2  1  0
  2  3  2  0
  2 21  1  0
  3  4  1  0
  4  5  1  0
  4  6  2  0
  6  7  1  0
  6 19  1  0
  7  8  1  0
  8  9  1  0
  9 10  2  0
  9 14  1  0
 10 11  1  0
 11 12  2  0
 12 13  1  0
 12 15  1  0
 13 14  2  0
 15 16  1  0
 15 17  2  0
 15 18  2  0
 19 20  1  0
 19 21  2  0
M  CHG  1   6   1
M  END
>  <DRUGBANK_ID>  (1) 
DB04763

>  <COMMON_NAME>  (1) 
1-N-(4-SULFAMOYLPHENYL-ETHYL)-2,4,6-TRIMETHYLPYRIDINIUM

$$$$
