
     RDKit          3D

 36 39  0  0  1  0  0  0  0  0999 V2000
   -0.8051    0.3909    0.6943 N   0  0  0  0  0  0  0  0  0  0  0  0
    0.9319   -1.1334   -0.5357 S   0  0  0  0  0  0  0  0  0  0  0  0
    2.4150    1.0932   -1.0934 C   0  0  0  0  0  0  0  0  0  0  0  0
    1.5243    0.5422    0.0201 C   0  0  0  0  0  0  0  0  0  0  0  0
    2.3502    0.3416    1.3003 C   0  0  0  0  0  0  0  0  0  0  0  0
    0.2072    1.3493    0.2161 C   0  0  2  0  0  0  0  0  0  0  0  0
   -0.4839    3.6022    0.9120 O   0  0  0  0  0  0  0  0  0  0  0  0
    0.3490    2.5657    1.1622 C   0  0  0  0  0  0  0  0  0  0  0  0
    1.1115    2.6305    2.1157 O   0  0  0  0  0  0  0  0  0  0  0  0
   -1.9022   -1.3026    0.0577 C   0  0  2  0  0  0  0  0  0  0  0  0
   -2.0079   -2.0565   -1.2245 N   0  0  0  0  0  0  0  0  0  0  0  0
   -2.2491   -3.4259   -1.1905 C   0  0  0  0  0  0  0  0  0  0  0  0
   -2.4949   -4.0119   -0.1381 O   0  0  0  0  0  0  0  0  0  0  0  0
   -2.2144   -4.1290   -2.5544 C   0  0  1  0  0  0  0  0  0  0  0  0
   -1.9883    0.2448    0.0104 C   0  0  0  0  0  0  0  0  0  0  0  0
   -2.6759    1.0738   -0.5323 O   0  0  0  0  0  0  0  0  0  0  0  0
   -0.4855   -1.0566    0.6168 C   0  0  2  0  0  0  0  0  0  0  0  0
   -1.1702   -5.2304   -2.6075 C   0  0  0  0  0  0  0  0  0  0  0  0
   -3.5575   -4.5980   -2.9089 N   0  0  0  0  0  0  0  0  0  0  0  0
    0.8497   -7.1493   -2.9573 C   0  0  0  0  0  0  0  0  0  0  0  0
   -0.4706   -7.4706   -3.2525 C   0  0  0  0  0  0  0  0  0  0  0  0
   -1.4707   -6.5158   -3.0895 C   0  0  0  0  0  0  0  0  0  0  0  0
    0.1661   -4.9308   -2.2953 C   0  0  0  0  0  0  0  0  0  0  0  0
    1.1719   -5.8726   -2.5049 C   0  0  0  0  0  0  0  0  0  0  0  0
   -4.3174   -4.2458   -3.9879 C   0  0  0  0  0  0  0  0  0  0  0  0
   -5.4420   -4.7209   -4.1306 O   0  0  0  0  0  0  0  0  0  0  0  0
   -3.7983   -3.2867   -4.8215 N   0  0  0  0  0  0  0  0  0  0  0  0
   -2.6209   -3.5422   -5.5220 C   0  0  0  0  0  0  0  0  0  0  0  0
   -2.0821   -2.4221   -6.4156 C   0  0  0  0  0  0  0  0  0  0  0  0
   -2.7477   -1.1976   -6.3937 N   0  0  0  0  0  0  0  0  0  0  0  0
   -3.8380   -0.9571   -5.4557 C   0  0  0  0  0  0  0  0  0  0  0  0
   -4.6710   -2.2230   -5.2903 C   0  0  0  0  0  0  0  0  0  0  0  0
   -1.9288   -4.5459   -5.4064 O   0  0  0  0  0  0  0  0  0  0  0  0
   -1.0890   -2.6466   -7.0963 O   0  0  0  0  0  0  0  0  0  0  0  0
   -2.3420   -0.1657   -7.3386 C   0  0  0  0  0  0  0  0  0  0  0  0
   -0.9120    0.3135   -7.1356 C   0  0  0  0  0  0  0  0  0  0  0  0
  1  6  1  0
 17  2  1  6
  2  4  1  0
  4  3  1  0
  4  5  1  0
  6  4  1  0
  6  8  1  1
  8  7  1  0
  8  9  2  0
 10 15  1  0
 10 11  1  6
 11 12  1  0
 12 14  1  0
 12 13  2  0
 14 18  1  0
 14 19  1  1
 15  1  1  0
 15 16  2  0
 17 10  1  0
 17  1  1  0
 18 23  1  0
 19 25  1  0
 20 21  2  0
 20 24  1  0
 21 22  1  0
 22 18  2  0
 23 24  2  0
 25 26  2  0
 25 27  1  0
 28 27  1  0
 28 29  1  0
 28 33  2  0
 29 30  1  0
 29 34  2  0
 30 31  1  0
 30 35  1  0
 31 32  1  0
 32 27  1  0
 35 36  1  0
M  END
>  <DRUGBANK_ID>  (1) 
DB00319

>  <SECONDARY_ACCESSION_NUMBERS>  (1) 
APRD00325

>  <COMMON_NAME>  (1) 
Piperacillin

>  <CAS_NUMBER>  (1) 
66258-76-2

>  <UNII>  (1) 
9I628532GX

>  <SYNONYMS>  (1) 
(2S,5R,6R)-6-{[(2R)-2-{[(4-ethyl-2,3-dioxopiperazin-1-yl)carbonyl]amino}-2-phenylacetyl]amino}-3,3-dimethyl-7-oxo-4-thia-1-azabicyclo[3.2.0]heptane-2-carboxylic acid; Piperacilina; Piperacillin; Piperacillin anhydrous; Piperacillina; Pip√©racilline; Piperacillinum

$$$$
