
     RDKit          3D

 28 30  0  0  1  0  0  0  0  0999 V2000
    1.0144    0.1240   -0.0142 C   0  0  0  0  0  0  0  0  0  0  0  0
   -1.5174    6.3958    3.0516 C   0  0  0  0  0  0  0  0  0  0  0  0
    0.3467    0.2991    1.3466 C   0  0  2  0  0  0  0  0  0  0  0  0
    0.7273    6.3096    1.4287 C   0  0  0  0  0  0  0  0  0  0  0  0
   -1.1484    0.7252    1.4028 C   0  0  2  0  0  0  0  0  0  0  0  0
   -1.1868    2.2115    1.6727 C   0  0  2  0  0  0  0  0  0  0  0  0
   -0.0976    7.3991    1.2940 C   0  0  0  0  0  0  0  0  0  0  0  0
    0.0664    5.0275    2.5874 C   0  0  0  0  0  0  0  0  0  0  0  0
    0.1972    2.2952    2.3709 C   0  0  2  0  0  0  0  0  0  0  0  0
    2.4898    3.7192    0.9259 C   0  0  0  0  0  0  0  0  0  0  0  0
    3.9301    2.6903    0.2912 Br  0  0  0  0  0  0  0  0  0  0  0  0
    0.1317    8.2489    0.2435 N   0  0  0  0  0  0  0  0  0  0  0  0
   -1.1861    7.4321    2.1323 N   0  0  0  0  0  0  0  0  0  0  0  0
   -0.9805    5.1867    3.3870 N   0  0  0  0  0  0  0  0  0  0  0  0
    2.1347    5.4239    0.3723 N   0  0  0  0  0  0  0  0  0  0  0  0
    0.9551    3.4342    2.0558 N   0  0  0  0  0  0  0  0  0  0  0  0
   -1.7491    0.1411    2.5667 O   0  0  0  0  0  0  0  0  0  0  0  0
   -2.3153    2.7566    2.3538 O   0  0  0  0  0  0  0  0  0  0  0  0
    3.5521    5.4954    1.7729 O   0  0  0  0  0  0  0  0  0  0  0  0
    0.2274    4.6954    0.8428 O   0  0  0  0  0  0  0  0  0  0  0  0
    2.1615    4.2194    3.4568 O   0  0  0  0  0  0  0  0  0  0  0  0
    1.0493    3.2920   -2.2985 O   0  0  0  0  0  0  0  0  0  0  0  0
   -0.4770    2.6430   -0.6710 O   0  0  0  0  0  0  0  0  0  0  0  0
    0.9745    1.1681   -0.9410 O   0  0  0  0  0  0  0  0  0  0  0  0
    1.0938    1.2597    2.0590 O   0  0  0  0  0  0  0  0  0  0  0  0
    0.9886    4.1178    0.3217 O   0  0  0  0  0  0  0  0  0  0  0  0
    1.9797    5.0463    2.1312 P   0  0  0  0  0  0  0  0  0  0  0  0
    0.9844    2.7642   -0.7962 P   0  0  1  0  0  0  0  0  0  0  0  0
  3  1  1  6
  5  3  1  0
  5 17  1  1
  6  5  1  0
  6 18  1  1
  7  4  2  0
  8  4  1  0
  9  6  1  0
  9 16  1  6
 11 10  1  0
 12  7  1  0
 13  2  2  0
 13  7  1  0
 14  2  1  0
 14  8  2  0
 15  4  1  0
 15 10  2  0
 16  8  1  0
 16 10  1  0
 24  1  1  0
 25  3  1  0
 25  9  1  0
 27 19  1  0
 27 20  1  0
 27 21  2  0
 27 26  1  0
 28 22  1  6
 28 23  2  0
 28 24  1  0
 28 26  1  0
M  END
>  <DRUGBANK_ID>  (1) 
DB04554

>  <SECONDARY_ACCESSION_NUMBERS>  (1) 
EXPT00401

>  <COMMON_NAME>  (1) 
8-Bromoadenosine-5'-Diphosphate

$$$$
