
     RDKit          3D

 39 43  0  0  0  0  0  0  0  0999 V2000
   -0.9798   -1.4355    0.0178 C   0  0  0  0  0  0  0  0  0  0  0  0
   -1.9772    0.6465   -0.0064 C   0  0  0  0  0  0  0  0  0  0  0  0
   -2.1011   -0.6981   -0.0065 N   0  0  0  0  0  0  0  0  0  0  0  0
   -0.8527    1.3897    0.0061 N   0  0  0  0  0  0  0  0  0  0  0  0
   -1.0866   -2.8064    0.0273 N   0  0  0  0  0  0  0  0  0  0  0  0
    0.2508   -0.7741    0.0384 C   0  0  0  0  0  0  0  0  0  0  0  0
    0.2416    0.6108    0.0261 C   0  0  0  0  0  0  0  0  0  0  0  0
    2.3606   -0.0124    0.0321 C   0  0  0  0  0  0  0  0  0  0  0  0
    1.5378    1.0838    0.0354 O   0  0  0  0  0  0  0  0  0  0  0  0
    1.6084   -1.1636    0.0690 C   0  0  0  0  0  0  0  0  0  0  0  0
    2.1623   -2.4895    0.0141 C   0  0  0  0  0  0  0  0  0  0  0  0
    2.2450   -4.5823   -1.1298 C   0  0  0  0  0  0  0  0  0  0  0  0
    3.0447   -5.1643   -0.1405 C   0  0  0  0  0  0  0  0  0  0  0  0
    3.4079   -4.3574    0.9511 C   0  0  0  0  0  0  0  0  0  0  0  0
    2.9582   -3.0223    1.0309 C   0  0  0  0  0  0  0  0  0  0  0  0
    1.8315   -3.2666   -1.0799 C   0  0  0  0  0  0  0  0  0  0  0  0
    3.8040    0.1632   -0.0392 C   0  0  0  0  0  0  0  0  0  0  0  0
    6.6231    0.1019   -0.0216 C   0  0  0  0  0  0  0  0  0  0  0  0
    5.9165    0.7120    1.0185 C   0  0  0  0  0  0  0  0  0  0  0  0
    4.5147    0.7418    1.0122 C   0  0  0  0  0  0  0  0  0  0  0  0
    4.5208   -0.4627   -1.0735 C   0  0  0  0  0  0  0  0  0  0  0  0
    5.9168   -0.4940   -1.0641 C   0  0  0  0  0  0  0  0  0  0  0  0
    7.9849    0.0159   -0.1227 O   0  0  0  0  0  0  0  0  0  0  0  0
    8.7329    0.6460    0.9101 C   0  0  0  0  0  0  0  0  0  0  0  0
    3.4779   -6.5252   -0.2534 N   0  0  0  0  0  0  0  0  0  0  0  0
    3.1330   -7.3509   -1.3177 C   0  0  0  0  0  0  0  0  0  0  0  0
    2.3752   -7.0237   -2.2358 O   0  0  0  0  0  0  0  0  0  0  0  0
    3.6773   -8.6186   -1.3109 N   0  0  0  0  0  0  0  0  0  0  0  0
    3.3688   -9.5342   -2.3726 C   0  0  0  0  0  0  0  0  0  0  0  0
    3.0837  -10.0329   -4.7627 C   0  0  0  0  0  0  0  0  0  0  0  0
    3.3280   -9.1215   -3.7178 C   0  0  0  0  0  0  0  0  0  0  0  0
    3.1124  -10.8779   -2.0936 C   0  0  0  0  0  0  0  0  0  0  0  0
    2.8435  -11.7939   -3.1151 C   0  0  0  0  0  0  0  0  0  0  0  0
    2.8475  -11.3777   -4.4474 C   0  0  0  0  0  0  0  0  0  0  0  0
    3.0672  -11.2994   -0.8210 F   0  0  0  0  0  0  0  0  0  0  0  0
    3.1095   -9.5951   -6.2084 C   0  0  0  0  0  0  0  0  0  0  0  0
    3.3514   -8.2677   -6.3831 F   0  0  0  0  0  0  0  0  0  0  0  0
    1.9399   -9.8549   -6.8555 F   0  0  0  0  0  0  0  0  0  0  0  0
    4.0763  -10.2447   -6.9168 F   0  0  0  0  0  0  0  0  0  0  0  0
  1  3  2  0
  1  6  1  0
  1  5  1  0
  2  3  1  0
  2  4  2  0
  4  7  1  0
  6 10  1  0
  6  7  2  0
  7  9  1  0
  8 10  2  0
  8  9  1  0
  8 17  1  0
 10 11  1  0
 11 15  1  0
 11 16  2  0
 12 13  2  0
 12 16  1  0
 13 14  1  0
 13 25  1  0
 14 15  2  0
 17 20  2  0
 17 21  1  0
 18 19  2  0
 18 22  1  0
 18 23  1  0
 19 20  1  0
 21 22  2  0
 23 24  1  0
 25 26  1  0
 26 28  1  0
 26 27  2  0
 28 29  1  0
 29 31  1  0
 29 32  2  0
 30 31  2  0
 30 34  1  0
 30 36  1  0
 32 33  1  0
 32 35  1  0
 33 34  2  0
 36 39  1  0
 36 38  1  0
 36 37  1  0
M  END
>  <DRUGBANK_ID>  (1) 
DB04727

>  <COMMON_NAME>  (1) 
1-{4-[4-Amino-6-(4-methoxyphenyl)furo[2,3-d]pyrimidin-5-yl]phenyl}-3-[2-fluoro-5-(trifluoromethyl)phenyl]urea

$$$$
