
     RDKit          3D

 18 18  0  0  0  0  0  0  0  0999 V2000
    1.4974    0.0304   -0.0018 C   0  0  0  0  0  0  0  0  0  0  0  0
    0.7355   -1.1259   -0.0751 C   0  0  0  0  0  0  0  0  0  0  0  0
   -0.6519   -1.1343   -0.1033 C   0  0  0  0  0  0  0  0  0  0  0  0
   -1.2202    0.1222   -0.2463 C   0  0  0  0  0  0  0  0  0  0  0  0
   -0.5202    1.3100   -0.0062 C   0  0  0  0  0  0  0  0  0  0  0  0
    0.8721    1.2541    0.0349 C   0  0  0  0  0  0  0  0  0  0  0  0
   -1.1520    2.6293    0.2898 C   0  0  0  0  0  0  0  0  0  0  0  0
   -0.4387    3.6130    0.4125 O   0  0  0  0  0  0  0  0  0  0  0  0
   -2.5029    2.7735    0.5243 N   0  0  0  0  0  0  0  0  0  0  0  0
   -3.6040    1.8217    0.5221 C   0  0  0  0  0  0  0  0  0  0  0  0
   -4.3382    1.6431    1.8327 C   0  0  0  0  0  0  0  0  0  0  0  0
   -5.3201    3.0924    2.2407 S   0  0  0  0  0  0  0  0  0  0  0  0
   -1.6260   -2.2942   -0.0182 C   0  0  0  0  0  0  0  0  0  0  0  0
   -2.8333   -2.0723    0.0114 O   0  0  0  0  0  0  0  0  0  0  0  0
   -1.2299   -3.6083    0.0815 N   0  0  0  0  0  0  0  0  0  0  0  0
    0.0926   -4.1781    0.1218 C   0  0  0  0  0  0  0  0  0  0  0  0
    0.5135   -4.7863    1.4400 C   0  0  0  0  0  0  0  0  0  0  0  0
   -0.2627   -6.3946    1.6316 S   0  0  0  0  0  0  0  0  0  0  0  0
  1  2  2  0
  1  6  1  0
  2  3  1  0
  3  4  2  0
  3 13  1  0
  4  5  1  0
  5  6  2  0
  5  7  1  0
  7  8  2  0
  7  9  1  0
  9 10  1  0
 10 11  1  0
 11 12  1  0
 13 14  2  0
 13 15  1  0
 15 16  1  0
 16 17  1  0
 17 18  1  0
M  END
>  <DRUGBANK_ID>  (1) 
DB12192

>  <COMMON_NAME>  (1) 
Emeramide

>  <CAS_NUMBER>  (1) 
351994-94-0

>  <UNII>  (1) 
4U7K5X4ANS

>  <SYNONYMS>  (1) 
Emeramide

$$$$
