16U
     RDKit          3D

 23 24  0  0  0  0  0  0  0  0999 V2000
    0.8835    0.1384   -0.0038 C   0  0  0  0  0  0  0  0  0  0  0  0
    0.3626    0.5609   -1.3758 C   0  0  0  0  0  0  0  0  0  0  0  0
    0.9249   -0.3392   -2.4804 C   0  0  0  0  0  0  0  0  0  0  0  0
   -1.1526    0.5975   -1.3899 C   0  0  0  0  0  0  0  0  0  0  0  0
    5.5110   -4.7242   10.8904 Cl  0  0  0  0  0  0  0  0  0  0  0  0
    0.5753   -1.2957    0.3932 C   0  0  0  0  0  0  0  0  0  0  0  0
    1.1059   -1.7986    1.7261 C   0  0  0  0  0  0  0  0  0  0  0  0
    0.2991   -2.3139    2.5028 O   0  0  0  0  0  0  0  0  0  0  0  0
    2.4698   -1.8556    1.9242 N   0  0  0  0  0  0  0  0  0  0  0  0
    3.4800   -0.9017    1.5395 C   0  0  0  0  0  0  0  0  0  0  0  0
    4.6505   -1.7619    1.1507 C   0  0  0  0  0  0  0  0  0  0  0  0
    4.6135   -2.8487    2.2071 C   0  0  0  0  0  0  0  0  0  0  0  0
    3.1221   -2.9762    2.6255 C   0  0  1  0  0  0  0  0  0  0  0  0
    2.8635   -3.0040    4.1588 C   0  0  0  0  0  0  0  0  0  0  0  0
    3.9144   -2.7171    4.9981 N   0  0  0  0  0  0  0  0  0  0  0  0
    3.7739   -2.7446    6.4305 C   0  0  0  0  0  0  0  0  0  0  0  0
    4.6608   -3.7720    7.0935 C   0  0  0  0  0  0  0  0  0  0  0  0
    4.6792   -3.8072    8.4962 C   0  0  0  0  0  0  0  0  0  0  0  0
    5.4863   -4.7210    9.1707 C   0  0  0  0  0  0  0  0  0  0  0  0
    6.2784   -5.6210    8.4634 C   0  0  0  0  0  0  0  0  0  0  0  0
    6.2647   -5.6054    7.0702 C   0  0  0  0  0  0  0  0  0  0  0  0
    5.4598   -4.6890    6.3893 C   0  0  0  0  0  0  0  0  0  0  0  0
    1.7493   -3.2476    4.6276 O   0  0  0  0  0  0  0  0  0  0  0  0
  1  2  1  0
  1  6  1  0
  2  3  1  0
  2  4  1  0
  5 19  1  0
  6  7  1  0
  7  8  2  0
  7  9  1  0
  9 10  1  0
  9 13  1  0
 10 11  1  0
 11 12  1  0
 12 13  1  0
 13 14  1  1
 14 15  1  0
 14 23  2  0
 15 16  1  0
 16 17  1  0
 17 18  2  0
 17 22  1  0
 18 19  1  0
 19 20  2  0
 20 21  1  0
 21 22  2  0
M  END
>  <DRUGBANK_ID>  (1) 
DB06868

>  <COMMON_NAME>  (1) 
N-(3-chlorobenzyl)-1-(4-methylpentanoyl)-L-prolinamide

$$$$
