
     RDKit          3D

  8  8  0  0  0  0  0  0  0  0999 V2000
    1.1106   -0.1300   -0.0911 C   0  0  0  0  0  0  0  0  0  0  0  0
    0.6240    1.0474    0.5763 N   0  0  0  0  0  0  0  0  0  0  0  0
   -0.3765    0.9317    1.9385 S   0  0  0  0  0  0  0  0  0  0  0  0
   -0.2956    2.6412    2.1404 C   0  0  0  0  0  0  0  0  0  0  0  0
    0.4341    3.2870    1.2286 C   0  0  0  0  0  0  0  0  0  0  0  0
    1.0131    2.3327    0.2598 C   0  0  0  0  0  0  0  0  0  0  0  0
    1.7402    2.6858   -0.6576 O   0  0  0  0  0  0  0  0  0  0  0  0
   -1.0995    3.4040    3.4384 Cl  0  0  0  0  0  0  0  0  0  0  0  0
  1  2  1  0
  2  3  1  0
  2  6  1  0
  3  4  1  0
  4  5  2  0
  4  8  1  0
  5  6  1  0
  6  7  2  0
M  END
>  <DRUGBANK_ID>  (1) 
DB14197

>  <COMMON_NAME>  (1) 
Methylchloroisothiazolinone

>  <CAS_NUMBER>  (1) 
26172-55-4

>  <UNII>  (1) 
DEL7T5QRPN

>  <SYNONYMS>  (1) 
4-Isothiazolin-3-one, 5-chloro-2-methyl-; 5-Chloro-2-methyl-3(2H)-isothiazolone; 5-Chloro-N-methylisothiazolin-3-one

$$$$
