
     RDKit          3D

 11 11  0  0  0  0  0  0  0  0999 V2000
    1.2565    0.0653    0.2693 C   0  0  1  0  0  0  0  0  0  0  0  0
    1.2646   -1.4252   -0.1398 C   0  0  2  0  0  0  0  0  0  0  0  0
    2.4233    0.7227   -0.2364 O   0  0  0  0  0  0  0  0  0  0  0  0
   -0.0263    0.7666   -0.2265 C   0  0  1  0  0  0  0  0  0  0  0  0
    0.0326   -2.1311    0.2823 N   0  0  0  0  0  0  0  0  0  0  0  0
    2.5066   -2.1299    0.4408 C   0  0  0  0  0  0  0  0  0  0  0  0
   -1.2670   -0.0151    0.2432 C   0  0  2  0  0  0  0  0  0  0  0  0
   -0.0719    2.1232    0.2307 O   0  0  0  0  0  0  0  0  0  0  0  0
   -1.1609   -1.4650   -0.2437 C   0  0  0  0  0  0  0  0  0  0  0  0
   -2.4835    0.5658   -0.2266 O   0  0  0  0  0  0  0  0  0  0  0  0
    2.5381   -3.4932    0.0168 O   0  0  0  0  0  0  0  0  0  0  0  0
  1  2  1  0
  1  3  1  6
  1  4  1  0
  2  5  1  0
  2  6  1  1
  4  7  1  0
  4  8  1  1
  5  9  1  0
  6 11  1  0
  7 10  1  6
  7  9  1  0
M  END
>  <DRUGBANK_ID>  (1) 
DB03206

>  <SECONDARY_ACCESSION_NUMBERS>  (1) 
EXPT01227; EXPT02374; EXPT01236

>  <COMMON_NAME>  (1) 
Duvoglustat

>  <CAS_NUMBER>  (1) 
19130-96-2

>  <UNII>  (1) 
FZ56898FLE

>  <SYNONYMS>  (1) 
(+)-1-Deoxynojirimycin; 1 deoxynojirimycin; 1-deoxy-nojirimycin; 1-deoxynojirimycin; 1,5-deoxy-1,5-imino-D-mannitol; 1,5-dideoxy-1,5-imino-D-glucitol; 5-amino-1,5-dideoxy-D-glucopyranose; D-1-deoxynojirimycin; Deoxynojirimycin; DNJ; Duvoglustat

$$$$
