
     RDKit          3D

 17 17  0  0  0  0  0  0  0  0999 V2000
    0.4306    0.3650    0.7773 C   0  0  0  0  0  0  0  0  0  0  0  0
    0.3249    1.1656    1.9698 C   0  0  0  0  0  0  0  0  0  0  0  0
    2.9718   -0.0896   -2.2397 C   0  0  0  0  0  0  0  0  0  0  0  0
    3.5487    1.2890   -1.8233 C   0  0  0  0  0  0  0  0  0  0  0  0
    0.1001   -2.3257   -1.7458 C   0  0  0  0  0  0  0  0  0  0  0  0
    3.4491    1.3652    1.2529 C   0  0  0  0  0  0  0  0  0  0  0  0
    1.2555   -2.7314   -0.8320 C   0  0  0  0  0  0  0  0  0  0  0  0
    1.8650   -0.4716   -1.3123 C   0  0  0  0  0  0  0  0  0  0  0  0
    2.4372    2.5171    1.3388 C   0  0  0  0  0  0  0  0  0  0  0  0
    2.1837   -3.6448   -1.5883 C   0  0  0  0  0  0  0  0  0  0  0  0
    2.1160   -1.6122   -0.4266 N   0  0  0  0  0  0  0  0  0  0  0  0
    2.8261    3.6735    1.1597 O   0  0  0  0  0  0  0  0  0  0  0  0
    2.4720   -4.8076   -1.2812 O   0  0  0  0  0  0  0  0  0  0  0  0
    2.7829   -3.0117   -2.6165 O   0  0  0  0  0  0  0  0  0  0  0  0
    1.1345    2.3518    1.7289 O   0  0  0  0  0  0  0  0  0  0  0  0
    4.5762    1.3540   -0.2584 S   0  0  0  0  0  0  0  0  0  0  0  0
    0.2260   -0.5807   -2.0792 S   0  0  0  0  0  0  0  0  0  0  0  0
  2  1  1  0
  4  3  1  0
  7  5  1  0
  8  3  1  0
  9  6  1  0
 10  7  1  0
 11  7  1  0
 11  8  1  0
 12  9  2  0
 13 10  2  0
 14 10  1  0
 15  2  1  0
 15  9  1  0
 16  4  1  0
 16  6  1  0
 17  5  1  0
 17  8  1  0
M  END
>  <DRUGBANK_ID>  (1) 
DB08939

>  <COMMON_NAME>  (1) 
Letosteine

>  <CAS_NUMBER>  (1) 
53943-88-7

>  <UNII>  (1) 
6MVF9U95DW

>  <SYNONYMS>  (1) 
letosteina; Letosteine

$$$$
