
     RDKit          3D

 25 26  0  0  0  0  0  0  0  0999 V2000
   -4.2822    2.9097    3.2499 C   0  0  0  0  0  0  0  0  0  0  0  0
   -3.4622    3.4946    2.2786 C   0  0  0  0  0  0  0  0  0  0  0  0
   -2.9754    2.7490    1.2138 C   0  0  0  0  0  0  0  0  0  0  0  0
   -3.2885    1.4004    1.1366 C   0  0  0  0  0  0  0  0  0  0  0  0
   -4.0091    0.7992    2.2073 C   0  0  0  0  0  0  0  0  0  0  0  0
   -4.5878    1.5613    3.1993 C   0  0  0  0  0  0  0  0  0  0  0  0
   -2.9268    0.5724   -0.0935 C   0  0  2  0  0  0  0  0  0  0  0  0
   -1.3630    0.1918    0.1082 C   0  0  0  0  0  0  0  0  0  0  0  0
   -0.7512   -1.0979   -0.4144 C   0  0  0  0  0  0  0  0  0  0  0  0
   -0.6083   -3.5243   -0.2946 C   0  0  0  0  0  0  0  0  0  0  0  0
    0.0795   -3.5622   -1.5097 C   0  0  0  0  0  0  0  0  0  0  0  0
    0.4018   -2.3736   -2.1597 C   0  0  0  0  0  0  0  0  0  0  0  0
    0.0414   -1.1477   -1.5838 C   0  0  0  0  0  0  0  0  0  0  0  0
   -1.0499   -2.3053    0.2318 C   0  0  0  0  0  0  0  0  0  0  0  0
   -2.9652    1.3015   -1.5205 C   0  0  1  0  0  0  0  0  0  0  0  0
   -3.8863   -0.5536    0.0931 O   0  0  0  0  0  0  0  0  0  0  0  0
   -5.1939   -0.8132   -0.2380 C   0  0  0  0  0  0  0  0  0  0  0  0
   -6.1605    0.3390   -0.3626 C   0  0  0  0  0  0  0  0  0  0  0  0
   -6.8460    0.4318   -1.7444 C   0  0  0  0  0  0  0  0  0  0  0  0
   -2.5844    0.4163   -2.7651 C   0  0  0  0  0  0  0  0  0  0  0  0
   -3.3085   -0.8491   -3.0568 N   0  0  0  0  0  0  0  0  0  0  0  0
   -2.7765   -1.4745   -4.2727 C   0  0  0  0  0  0  0  0  0  0  0  0
   -3.1047   -1.9331   -2.1110 C   0  0  0  0  0  0  0  0  0  0  0  0
   -4.2771    1.9245   -1.8844 C   0  0  0  0  0  0  0  0  0  0  0  0
   -5.5874   -1.9528   -0.3359 O   0  0  0  0  0  0  0  0  0  0  0  0
  1  2  2  0
  1  6  1  0
  2  3  1  0
  3  4  2  0
  4  5  1  0
  5  6  2  0
  7 15  1  0
  7 16  1  0
  7  8  1  1
  7  4  1  0
  8  9  1  0
  9 14  2  0
 10 11  2  0
 10 14  1  0
 11 12  1  0
 12 13  2  0
 13  9  1  0
 15 20  1  0
 15 24  1  6
 16 17  1  0
 17 18  1  0
 17 25  2  0
 18 19  1  0
 20 21  1  0
 21 22  1  0
 21 23  1  0
M  END
>  <DRUGBANK_ID>  (1) 
DB00647

>  <SECONDARY_ACCESSION_NUMBERS>  (1) 
APRD00548

>  <COMMON_NAME>  (1) 
Dextropropoxyphene

>  <CAS_NUMBER>  (1) 
469-62-5

>  <UNII>  (1) 
S2F83W92TK

>  <SYNONYMS>  (1) 
d-Propoxyphene; Destropropossifene; Dextropropoxifeno; Dextropropoxyphen; Dextropropoxyph√®ne; Dextropropoxyphene; Dextropropoxyphenum; Dextroproxifeno; Propoxyphene

$$$$
