IDI
     RDKit          3D

 11 12  0  0  0  0  0  0  0  0999 V2000
    1.0297    0.0032    0.0896 I   0  0  0  0  0  0  0  0  0  0  0  0
    5.1949   -1.2061    0.1470 C   0  0  0  0  0  0  0  0  0  0  0  0
    3.8000   -1.2053    0.1472 C   0  0  0  0  0  0  0  0  0  0  0  0
    3.1090    0.0036    0.0975 C   0  0  0  0  0  0  0  0  0  0  0  0
    3.8007    1.2154    0.0565 C   0  0  0  0  0  0  0  0  0  0  0  0
    5.2037    1.2251    0.0713 C   0  0  0  0  0  0  0  0  0  0  0  0
    5.9012    0.0023    0.0900 C   0  0  0  0  0  0  0  0  0  0  0  0
    5.9460    2.5416    0.0022 C   0  0  0  0  0  0  0  0  0  0  0  0
    7.9923    1.3402   -0.3434 C   0  0  0  0  0  0  0  0  0  0  0  0
    7.4104   -0.0032    0.1084 C   0  0  0  0  0  0  0  0  0  0  0  0
    7.3591    2.4399    0.3877 N   0  0  0  0  0  0  0  0  0  0  0  0
  1  4  1  0
  2  3  2  0
  2  7  1  0
  3  4  1  0
  4  5  2  0
  5  6  1  0
  6  7  2  0
  6  8  1  0
  7 10  1  0
  8 11  1  0
  9 10  1  0
  9 11  1  0
M  END
>  <DRUGBANK_ID>  (1) 
DB03824

>  <SECONDARY_ACCESSION_NUMBERS>  (1) 
EXPT01840

>  <COMMON_NAME>  (1) 
7-Iodo-1,2,3,4-Tetrahydro-Isoquinoline

>  <UNII>  (1) 
AA4AFP7MFA

$$$$
