
     RDKit          3D

 25 26  0  0  0  0  0  0  0  0999 V2000
    0.9985    0.0142    0.1268 C   0  0  0  0  0  0  0  0  0  0  0  0
    0.5543   -1.4496   -0.0277 C   0  0  0  0  0  0  0  0  0  0  0  0
    1.0688   -2.2067    1.2193 C   0  0  0  0  0  0  0  0  0  0  0  0
   -0.9908   -1.4778   -0.0367 C   0  0  0  0  0  0  0  0  0  0  0  0
    1.0486   -2.1198   -1.3187 C   0  0  0  0  0  0  0  0  0  0  0  0
    0.8211   -3.5046   -1.4642 C   0  0  0  0  0  0  0  0  0  0  0  0
    1.1250   -4.2071   -2.6381 C   0  0  0  0  0  0  0  0  0  0  0  0
    1.6562   -3.4656   -3.7039 C   0  0  0  0  0  0  0  0  0  0  0  0
    1.9557   -2.1186   -3.5767 C   0  0  0  0  0  0  0  0  0  0  0  0
    1.6481   -1.4518   -2.3980 C   0  0  0  0  0  0  0  0  0  0  0  0
    1.9360   -0.1208   -2.3474 O   0  0  0  0  0  0  0  0  0  0  0  0
    0.8478   -5.7236   -2.7158 C   0  0  0  0  0  0  0  0  0  0  0  0
    1.5930   -6.4799   -1.5839 C   0  0  0  0  0  0  0  0  0  0  0  0
   -0.6746   -5.9462   -2.4872 C   0  0  0  0  0  0  0  0  0  0  0  0
    1.3454   -6.3324   -4.0379 C   0  0  0  0  0  0  0  0  0  0  0  0
    2.7063   -6.2415   -4.3863 C   0  0  0  0  0  0  0  0  0  0  0  0
    3.1655   -6.7083   -5.6029 C   0  0  0  0  0  0  0  0  0  0  0  0
    2.2873   -7.3452   -6.4754 C   0  0  0  0  0  0  0  0  0  0  0  0
    0.9202   -7.4838   -6.1719 C   0  0  0  0  0  0  0  0  0  0  0  0
    0.4785   -6.9429   -4.9508 C   0  0  0  0  0  0  0  0  0  0  0  0
   -0.1262   -8.1825   -7.0559 C   0  0  0  0  0  0  0  0  0  0  0  0
   -0.7679   -9.3509   -6.2693 C   0  0  0  0  0  0  0  0  0  0  0  0
   -1.2330   -7.1808   -7.4596 C   0  0  0  0  0  0  0  0  0  0  0  0
    0.4532   -8.7709   -8.3509 C   0  0  0  0  0  0  0  0  0  0  0  0
    2.8086   -7.8285   -7.6363 O   0  0  0  0  0  0  0  0  0  0  0  0
  1  2  1  0
  2  3  1  0
  2  4  1  0
  2  5  1  0
  5  6  2  0
  5 10  1  0
  6  7  1  0
  7  8  2  0
  7 12  1  0
  8  9  1  0
  9 10  2  0
 10 11  1  0
 12 13  1  0
 12 14  1  0
 12 15  1  0
 15 16  2  0
 15 20  1  0
 16 17  1  0
 17 18  2  0
 18 19  1  0
 18 25  1  0
 19 20  2  0
 19 21  1  0
 21 22  1  0
 21 23  1  0
 21 24  1  0
M  END
>  <DRUGBANK_ID>  (1) 
DB13008

>  <COMMON_NAME>  (1) 
2,2-bis(4-hydroxy-3-tert-butylphenyl)propane

>  <CAS_NUMBER>  (1) 
79-96-9

>  <UNII>  (1) 
OKF3E6VGQB

>  <SYNONYMS>  (1) 
TBD

$$$$
