
     RDKit          3D

 21 23  0  0  0  0  0  0  0  0999 V2000
   -2.2199    0.0248   -0.0803 N   0  0  0  0  0  0  0  0  0  0  0  0
   -0.8582    0.0316   -0.0013 C   0  0  0  0  0  0  0  0  0  0  0  0
   -0.2473   -1.1592    0.0046 N   0  0  0  0  0  0  0  0  0  0  0  0
    1.0925   -1.1488    0.0236 C   0  0  0  0  0  0  0  0  0  0  0  0
    1.8364    0.0044    0.0347 C   0  0  0  0  0  0  0  0  0  0  0  0
    1.1249    1.1927    0.0347 C   0  0  0  0  0  0  0  0  0  0  0  0
   -0.2274    1.2131    0.0192 N   0  0  0  0  0  0  0  0  0  0  0  0
    1.8362    2.4883   -0.0219 C   0  0  0  0  0  0  0  0  0  0  0  0
    1.6721    3.3488    1.0179 N   0  0  0  0  0  0  0  0  0  0  0  0
    2.3861    4.5198    1.0157 C   0  0  0  0  0  0  0  0  0  0  0  0
    3.3323    4.8081    0.0263 C   0  0  0  0  0  0  0  0  0  0  0  0
    4.1368    5.9092    0.1188 O   0  0  0  0  0  0  0  0  0  0  0  0
    3.4848    3.9277   -1.0374 C   0  0  0  0  0  0  0  0  0  0  0  0
    2.7168    2.7662   -1.0697 C   0  0  0  0  0  0  0  0  0  0  0  0
    2.1028    5.4417    2.1316 C   0  0  0  0  0  0  0  0  0  0  0  0
    1.7182    6.7014    1.8077 N   0  0  0  0  0  0  0  0  0  0  0  0
    1.4152    7.5284    2.8122 C   0  0  0  0  0  0  0  0  0  0  0  0
    1.0597    8.8085    2.5007 N   0  0  0  0  0  0  0  0  0  0  0  0
    1.4520    7.1966    4.1070 N   0  0  0  0  0  0  0  0  0  0  0  0
    1.8455    5.9448    4.3947 C   0  0  0  0  0  0  0  0  0  0  0  0
    2.1901    5.0182    3.4425 C   0  0  0  0  0  0  0  0  0  0  0  0
  1  2  1  0
  2  3  2  0
  2  7  1  0
  3  4  1  0
  4  5  2  0
  5  6  1  0
  6  7  2  0
  6  8  1  0
  8  9  2  0
  8 14  1  0
  9 10  1  0
 10 11  2  0
 10 15  1  0
 11 12  1  0
 11 13  1  0
 13 14  2  0
 15 16  2  0
 15 21  1  0
 16 17  1  0
 17 18  1  0
 17 19  2  0
 19 20  1  0
 20 21  2  0
M  END
>  <DRUGBANK_ID>  (1) 
DB16652

>  <COMMON_NAME>  (1) 
Avotaciclib

>  <CAS_NUMBER>  (1) 
1983983-41-0

>  <UNII>  (1) 
Z6BYC0F36E

>  <SYNONYMS>  (1) 
2,6-bis(2-aminopyrimidin-4-yl)pyridin-3-ol; Avotaciclib

$$$$
