
     RDKit          3D

 12 11  0  0  1  0  0  0  0  0999 V2000
    5.2751   -2.5956    0.2214 O   0  0  0  0  0  0  0  0  0  0  0  0
    5.5383   -3.5165    3.7465 O   0  0  0  0  0  0  0  0  0  0  0  0
    2.6974   -2.4176   -0.0377 O   0  0  0  0  0  0  0  0  0  0  0  0
    5.1643   -0.5361    4.0484 O   0  0  0  0  0  0  0  0  0  0  0  0
    1.5020   -2.2995    3.0792 O   0  0  0  0  0  0  0  0  0  0  0  0
    3.6584    0.7183    2.0769 O   0  0  0  0  0  0  0  0  0  0  0  0
    4.6319   -3.1359    1.4017 C   0  0  1  0  0  0  0  0  0  0  0  0
    5.4502   -2.6187    2.6525 C   0  0  1  0  0  0  0  0  0  0  0  0
    3.0448   -2.8334    1.2915 C   0  0  1  0  0  0  0  0  0  0  0  0
    4.6737   -1.4739    3.1423 C   0  0  0  0  0  0  0  0  0  0  0  0
    2.2673   -1.8296    2.2578 C   0  0  0  0  0  0  0  0  0  0  0  0
    2.5313   -0.1509    2.2229 C   0  0  0  0  0  0  0  0  0  0  0  0
  4 10  1  0
  5 11  2  0
  6 12  1  0
  7  1  1  6
  8 10  1  0
  8  7  1  0
  8  2  1  1
  9 11  1  0
  9  7  1  0
  9  3  1  6
 11 12  1  0
M  END
>  <DRUGBANK_ID>  (1) 
DB04936

>  <COMMON_NAME>  (1) 
Tagatose

>  <CAS_NUMBER>  (1) 
87-81-0

>  <UNII>  (1) 
T7A20Y888Y

>  <SYNONYMS>  (1) 
(3S,4S,5R)-1,3,4,5,6-pentahydroxyhexan-2-one; D-lyxo-hex-2-ulose; D-lyxo-hexulose; D-tag; D-tagatose; keto-D-tagatose

$$$$
