
     RDKit          3D

 27 29  0  0  0  0  0  0  0  0999 V2000
    0.9347    0.0927    1.3886 C   0  0  0  0  0  0  0  0  0  0  0  0
    0.5018    1.3676    0.9984 C   0  0  0  0  0  0  0  0  0  0  0  0
   -0.8775    1.4078    0.7579 C   0  0  0  0  0  0  0  0  0  0  0  0
   -1.6806    0.2714    0.4932 C   0  0  0  0  0  0  0  0  0  0  0  0
   -1.1926   -0.9934    0.7199 C   0  0  0  0  0  0  0  0  0  0  0  0
    0.0393   -1.0483    1.3534 C   0  0  0  0  0  0  0  0  0  0  0  0
   -1.8599   -2.0469    0.1582 O   0  0  0  0  0  0  0  0  0  0  0  0
   -1.2168   -3.3317    0.0819 C   0  0  0  0  0  0  0  0  0  0  0  0
   -0.3601   -3.5741   -1.1886 C   0  0  0  0  0  0  0  0  0  0  0  0
    1.0692   -2.9743   -1.4722 C   0  0  0  0  0  0  0  0  0  0  0  0
    1.7005   -1.7812   -0.7707 C   0  0  0  0  0  0  0  0  0  0  0  0
    1.0663   -0.5014   -1.3234 C   0  0  0  0  0  0  0  0  0  0  0  0
    1.5909   -0.3158   -2.6280 N   0  0  0  0  0  0  0  0  0  0  0  0
    0.9264   -1.2259   -3.5179 C   0  0  0  0  0  0  0  0  0  0  0  0
    1.3156   -2.6638   -2.9914 C   0  0  0  0  0  0  0  0  0  0  0  0
    2.3480    0.8175   -2.8317 C   0  0  0  0  0  0  0  0  0  0  0  0
    3.5761    0.9175   -2.1721 C   0  0  0  0  0  0  0  0  0  0  0  0
    4.4877    1.9111   -2.4976 C   0  0  0  0  0  0  0  0  0  0  0  0
    4.0546    2.9537   -3.2839 C   0  0  0  0  0  0  0  0  0  0  0  0
    2.7979    2.9598   -3.7801 N   0  0  0  0  0  0  0  0  0  0  0  0
    1.9604    1.8506   -3.5998 N   0  0  0  0  0  0  0  0  0  0  0  0
    4.9854    4.0866   -3.5842 C   0  0  0  0  0  0  0  0  0  0  0  0
    1.5779    2.3917    0.4308 C   0  0  0  0  0  0  0  0  0  0  0  0
    1.2184    3.5007   -0.2982 O   0  0  0  0  0  0  0  0  0  0  0  0
   -0.1203    3.9712   -0.3991 C   0  0  0  0  0  0  0  0  0  0  0  0
   -0.8521    3.2401   -1.5276 C   0  0  0  0  0  0  0  0  0  0  0  0
    2.7626    2.1374    0.5159 O   0  0  0  0  0  0  0  0  0  0  0  0
  1  2  2  0
  2  3  1  0
  2 23  1  0
  3  4  2  0
  4  5  1  0
  5  6  2  0
  5  7  1  0
  6  1  1  0
  7  8  1  0
  8  9  1  0
  9 10  1  0
 10 15  1  0
 10 11  1  0
 11 12  1  0
 12 13  1  0
 13 14  1  0
 13 16  1  0
 14 15  1  0
 16 17  2  0
 17 18  1  0
 18 19  2  0
 19 20  1  0
 19 22  1  0
 20 21  2  0
 21 16  1  0
 23 24  1  0
 23 27  2  0
 24 25  1  0
 25 26  1  0
M  END
>  <DRUGBANK_ID>  (1) 
DB08012

>  <COMMON_NAME>  (1) 
Pirodavir

>  <CAS_NUMBER>  (1) 
124436-59-5

>  <UNII>  (1) 
BML697718K

>  <SYNONYMS>  (1) 
Pirodavir; Pirodavirum

$$$$
