
     RDKit          3D

 23 22  0  0  0  0  0  0  0  0999 V2000
    0.9804    0.0337   -0.1883 C   0  0  0  0  0  0  0  0  0  0  0  0
    0.5545   -1.2335    0.5351 C   0  0  0  0  0  0  0  0  0  0  0  0
    1.0850   -1.2262    1.9708 C   0  0  0  0  0  0  0  0  0  0  0  0
    0.5324   -0.0390    2.7505 C   0  0  0  0  0  0  0  0  0  0  0  0
   -0.9895   -0.0928    2.7439 C   0  0  0  0  0  0  0  0  0  0  0  0
   -1.4901   -1.3832    3.4248 C   0  0  0  0  0  0  0  0  0  0  0  0
   -1.1142   -1.3562    4.8925 C   0  0  0  0  0  0  0  0  0  0  0  0
   -1.6343   -0.0740    5.5366 C   0  0  0  0  0  0  0  0  0  0  0  0
   -3.1275   -0.0540    5.6731 C   0  0  0  0  0  0  0  0  0  0  0  0
   -3.7418   -0.1633    6.8532 C   0  0  0  0  0  0  0  0  0  0  0  0
   -3.0255   -0.1596    8.1655 C   0  0  0  0  0  0  0  0  0  0  0  0
   -3.4233    1.0980    8.9271 C   0  0  0  0  0  0  0  0  0  0  0  0
   -4.9155    1.0778    9.2551 C   0  0  0  0  0  0  0  0  0  0  0  0
   -5.2721   -0.1863   10.0449 C   0  0  0  0  0  0  0  0  0  0  0  0
   -4.4981   -0.2366   11.3672 C   0  0  0  0  0  0  0  0  0  0  0  0
   -4.8847    0.9333   12.2782 C   0  0  0  0  0  0  0  0  0  0  0  0
   -6.3831    0.9587   12.5836 C   0  0  0  0  0  0  0  0  0  0  0  0
   -6.8258   -0.3081   13.2827 C   0  0  0  0  0  0  0  0  0  0  0  0
   -7.3355   -0.1155   14.5118 O   0  0  0  0  0  0  0  0  0  0  0  0
   -6.7440   -1.4337   12.7977 O   0  0  0  0  0  0  0  0  0  0  0  0
   -4.0231    0.1383    4.5046 N   0  0  0  0  0  0  0  0  0  0  0  0
   -3.5611    0.6335    3.4742 O   0  0  0  0  0  0  0  0  0  0  0  0
   -5.2162   -0.1770    4.6238 O   0  0  0  0  0  0  0  0  0  0  0  0
  1  2  1  0
  2  3  1  0
  3  4  1  0
  4  5  1  0
  5  6  1  0
  6  7  1  0
  7  8  1  0
  8  9  1  0
  9 10  2  0
  9 21  1  0
 10 11  1  0
 11 12  1  0
 12 13  1  0
 13 14  1  0
 14 15  1  0
 15 16  1  0
 16 17  1  0
 17 18  1  0
 18 19  1  0
 18 20  2  0
 21 22  1  0
 21 23  2  0
M  CHG  2  21   1  22  -1
M  END
>  <DRUGBANK_ID>  (1) 
DB15026

>  <COMMON_NAME>  (1) 
CXA-10

>  <CAS_NUMBER>  (1) 
875685-46-4

>  <UNII>  (1) 
1N19AGY57Y

>  <SYNONYMS>  (1) 
10-nitro-9(E)-octadec-9-enoic acid

$$$$
