
     RDKit          3D

 33 38  0  0  0  0  0  0  0  0999 V2000
   -2.0869   -0.0526   -0.0579 C   0  0  0  0  0  0  0  0  0  0  0  0
   -0.6451   -0.0818    0.0066 N   0  0  0  0  0  0  0  0  0  0  0  0
    0.1625   -1.1855   -0.0085 C   0  0  0  0  0  0  0  0  0  0  0  0
    1.4529   -0.7065   -0.0668 C   0  0  0  0  0  0  0  0  0  0  0  0
    1.3148    0.6961   -0.0273 C   0  0  0  0  0  0  0  0  0  0  0  0
    0.0362    1.0784    0.0154 N   0  0  0  0  0  0  0  0  0  0  0  0
    2.6520   -1.4783   -0.1266 C   0  0  0  0  0  0  0  0  0  0  0  0
    3.6461   -1.3031    0.7642 C   0  0  0  0  0  0  0  0  0  0  0  0
    4.7879   -2.1002    0.7715 N   0  0  0  0  0  0  0  0  0  0  0  0
    5.0036   -3.0560   -0.2231 C   0  0  0  0  0  0  0  0  0  0  0  0
    4.0102   -3.1931   -1.2347 C   0  0  0  0  0  0  0  0  0  0  0  0
    2.8833   -2.4584   -1.1815 C   0  0  0  0  0  0  0  0  0  0  0  0
    6.1465   -3.6793   -0.0630 N   0  0  0  0  0  0  0  0  0  0  0  0
    6.6844   -3.1467    1.0751 C   0  0  0  0  0  0  0  0  0  0  0  0
    5.8623   -2.1839    1.6458 C   0  0  0  0  0  0  0  0  0  0  0  0
    6.1179   -1.2810    3.1440 S   0  0  0  0  0  0  0  0  0  0  0  0
    6.1427   -2.2866    4.1839 O   0  0  0  0  0  0  0  0  0  0  0  0
    7.2740   -0.4470    2.8560 O   0  0  0  0  0  0  0  0  0  0  0  0
    4.8315   -0.2027    3.5851 N   0  0  0  0  0  0  0  0  0  0  0  0
    4.9246    1.1626    3.5466 N   0  0  0  0  0  0  0  0  0  0  0  0
    3.6879    1.5774    3.8306 C   0  0  0  0  0  0  0  0  0  0  0  0
    2.7832    0.5117    3.9807 C   0  0  0  0  0  0  0  0  0  0  0  0
    1.4413    0.5174    4.1574 N   0  0  0  0  0  0  0  0  0  0  0  0
    0.8559   -0.7047    4.1499 C   0  0  0  0  0  0  0  0  0  0  0  0
    1.5168   -1.9190    3.9869 C   0  0  0  0  0  0  0  0  0  0  0  0
    2.9114   -1.9070    3.8470 C   0  0  0  0  0  0  0  0  0  0  0  0
    3.5401   -0.6496    3.8414 C   0  0  0  0  0  0  0  0  0  0  0  0
    0.8128   -3.1818    4.0327 C   0  0  0  0  0  0  0  0  0  0  0  0
   -0.2408   -3.5773    3.2329 C   0  0  0  0  0  0  0  0  0  0  0  0
   -0.5880   -4.8331    3.6595 N   0  0  0  0  0  0  0  0  0  0  0  0
   -1.6942   -5.6459    3.2100 C   0  0  0  0  0  0  0  0  0  0  0  0
    0.1913   -5.2902    4.6554 N   0  0  0  0  0  0  0  0  0  0  0  0
    1.0358   -4.2841    4.8849 C   0  0  0  0  0  0  0  0  0  0  0  0
  1  2  1  0
  2  3  1  0
  2  6  1  0
  3  4  2  0
  4  5  1  0
  4  7  1  0
  5  6  2  0
  7  8  2  0
  7 12  1  0
  8  9  1  0
  9 10  1  0
  9 15  1  0
 10 11  1  0
 10 13  2  0
 11 12  2  0
 13 14  1  0
 14 15  2  0
 15 16  1  0
 16 17  2  0
 16 18  2  0
 16 19  1  0
 19 20  1  0
 19 27  1  0
 20 21  2  0
 21 22  1  0
 22 23  1  0
 22 27  2  0
 23 24  2  0
 24 25  1  0
 25 26  2  0
 25 28  1  0
 26 27  1  0
 28 29  2  0
 28 33  1  0
 29 30  1  0
 30 31  1  0
 30 32  1  0
 32 33  2  0
M  END
>  <DRUGBANK_ID>  (1) 
DB15630

>  <COMMON_NAME>  (1) 
Glumetinib

>  <CAS_NUMBER>  (1) 
1642581-63-2

>  <UNII>  (1) 
7JTT036WGX

>  <SYNONYMS>  (1) 
6-(1-methyl-1h-pyrazol-4-yl)-1-((6-(1-methyl-1h-pyrazol-4-yl)imidazo(1,2-a)pyridin-3-yl)sulfonyl)-1h-pyrazolo(4,3-b)pyridine

$$$$
