STX
     RDKit          3D

 14 14  0  0  0  0  0  0  0  0999 V2000
    1.0630   -0.0143   -0.0493 N   0  0  0  0  0  0  0  0  0  0  0  0
    0.6344   -0.9553   -1.0971 C   0  0  0  0  0  0  0  0  0  0  0  0
    1.1131   -2.3877   -0.8663 C   0  0  0  0  0  0  0  0  0  0  0  0
    0.2739   -3.2888   -0.7329 O   0  0  0  0  0  0  0  0  0  0  0  0
    0.5579   -0.4253    1.2564 C   0  0  0  0  0  0  0  0  0  0  0  0
    2.5402   -2.6294   -0.8643 C   0  0  0  0  0  0  0  0  0  0  0  0
    3.1232   -3.6883   -1.3847 N   0  0  0  0  0  0  0  0  0  0  0  0
    4.4668   -3.5664   -1.1304 N   0  0  0  0  0  0  0  0  0  0  0  0
    4.6287   -2.4610   -0.4327 C   0  0  0  0  0  0  0  0  0  0  0  0
    3.4408   -1.7852   -0.2407 O   0  0  0  0  0  0  0  0  0  0  0  0
    5.9229   -1.9118    0.1131 C   0  0  0  0  0  0  0  0  0  0  0  0
    6.5929   -2.9755    1.0058 C   0  0  0  0  0  0  0  0  0  0  0  0
    6.8673   -1.6048   -1.0633 C   0  0  0  0  0  0  0  0  0  0  0  0
    5.7266   -0.6332    0.9385 C   0  0  0  0  0  0  0  0  0  0  0  0
  1  2  1  0
  1  5  1  0
  2  3  1  0
  3  4  2  0
  3  6  1  0
  6  7  2  0
  6 10  1  0
  7  8  1  0
  8  9  2  0
  9 10  1  0
  9 11  1  0
 11 12  1  0
 11 13  1  0
 11 14  1  0
M  END
>  <DRUGBANK_ID>  (1) 
DB08576

>  <COMMON_NAME>  (1) 
1-(5-TERT-BUTYL-1,3,4-OXADIAZOL-2-YL)-2-(METHYLAMINO)ETHANONE

$$$$
