
     RDKit          3D

 38 44  0  0  0  0  0  0  0  0999 V2000
    1.9844   -0.7555    0.1569 C   0  0  0  0  0  0  0  0  0  0  0  0
    2.0396    0.6966    0.1643 C   0  0  0  0  0  0  0  0  0  0  0  0
    0.9137    1.4095    0.0557 C   0  0  0  0  0  0  0  0  0  0  0  0
   -0.3052    0.7404   -0.0010 N   0  0  0  0  0  0  0  0  0  0  0  0
   -0.3927   -0.6566   -0.0026 C   0  0  0  0  0  0  0  0  0  0  0  0
    0.8152   -1.4035    0.0427 C   0  0  0  0  0  0  0  0  0  0  0  0
   -1.6393   -1.0650   -0.0049 N   0  0  0  0  0  0  0  0  0  0  0  0
   -2.3872    0.0778    0.0180 C   0  0  0  0  0  0  0  0  0  0  0  0
   -1.6055    1.2161   -0.0045 C   0  0  0  0  0  0  0  0  0  0  0  0
   -1.9374    2.5883    0.0107 C   0  0  0  0  0  0  0  0  0  0  0  0
   -1.6636    3.5004   -0.9363 C   0  0  0  0  0  0  0  0  0  0  0  0
   -2.3008    4.7727   -0.4996 C   0  0  0  0  0  0  0  0  0  0  0  0
   -2.2797    5.8358   -1.0814 O   0  0  0  0  0  0  0  0  0  0  0  0
   -2.9287    4.5277    0.6744 N   0  0  0  0  0  0  0  0  0  0  0  0
   -2.7801    3.2369    1.0429 C   0  0  0  0  0  0  0  0  0  0  0  0
   -3.2496    2.7143    2.0297 O   0  0  0  0  0  0  0  0  0  0  0  0
   -0.9426    3.3393   -2.1532 C   0  0  0  0  0  0  0  0  0  0  0  0
    0.2268    4.0079   -2.4678 C   0  0  0  0  0  0  0  0  0  0  0  0
    0.6611    3.5288   -3.6716 N   0  0  0  0  0  0  0  0  0  0  0  0
   -0.1392    2.4879   -4.0923 C   0  0  0  0  0  0  0  0  0  0  0  0
   -1.2274    2.4309   -3.2245 C   0  0  0  0  0  0  0  0  0  0  0  0
   -2.2669    1.5332   -3.5349 C   0  0  0  0  0  0  0  0  0  0  0  0
   -2.1699    0.7723   -4.7030 C   0  0  0  0  0  0  0  0  0  0  0  0
   -1.0369    0.7988   -5.5105 C   0  0  0  0  0  0  0  0  0  0  0  0
    0.0572    1.6090   -5.1781 C   0  0  0  0  0  0  0  0  0  0  0  0
    1.3734    1.5421   -5.9245 C   0  0  0  0  0  0  0  0  0  0  0  0
    2.5173    1.6640   -4.9780 N   0  0  0  0  0  0  0  0  0  0  0  0
    2.9033    3.0352   -4.6133 C   0  0  0  0  0  0  0  0  0  0  0  0
    1.7516    4.0381   -4.4877 C   0  0  0  0  0  0  0  0  0  0  0  0
    3.2197    0.5103   -4.5841 C   0  0  0  0  0  0  0  0  0  0  0  0
    2.9409   -0.6023   -5.0304 O   0  0  0  0  0  0  0  0  0  0  0  0
    4.3384    0.7036   -3.7620 N   0  0  0  0  0  0  0  0  0  0  0  0
    5.6066    0.0308   -4.0452 C   0  0  0  0  0  0  0  0  0  0  0  0
    6.0247   -1.0363   -3.0236 C   0  0  0  0  0  0  0  0  0  0  0  0
    6.0002   -0.4940   -1.6071 C   0  0  0  0  0  0  0  0  0  0  0  0
    4.6573    0.1433   -1.3690 C   0  0  0  0  0  0  0  0  0  0  0  0
    4.2416    1.1982   -2.3950 C   0  0  0  0  0  0  0  0  0  0  0  0
   -3.1916   -0.0262   -5.0429 F   0  0  0  0  0  0  0  0  0  0  0  0
  1  2  1  0
  1  6  2  0
  2  3  2  0
  3  4  1  0
  4  5  1  0
  4  9  1  0
  5  6  1  0
  5  7  2  0
  7  8  1  0
  8  9  2  0
  9 10  1  0
 10 11  2  0
 10 15  1  0
 11 12  1  0
 11 17  1  0
 12 13  2  0
 12 14  1  0
 14 15  1  0
 15 16  2  0
 17 18  2  0
 17 21  1  0
 18 19  1  0
 19 20  1  0
 19 29  1  0
 20 21  2  0
 20 25  1  0
 21 22  1  0
 22 23  2  0
 23 24  1  0
 23 38  1  0
 24 25  2  0
 25 26  1  0
 26 27  1  0
 27 28  1  0
 27 30  1  0
 28 29  1  0
 30 31  2  0
 30 32  1  0
 32 33  1  0
 32 37  1  0
 33 34  1  0
 34 35  1  0
 35 36  1  0
 36 37  1  0
M  END
>  <DRUGBANK_ID>  (1) 
DB11913

>  <COMMON_NAME>  (1) 
LY-2090314

>  <CAS_NUMBER>  (1) 
603288-22-8

>  <UNII>  (1) 
822M3GYM67

$$$$
