
     RDKit          3D

 32 34  0  0  1  0  0  0  0  0999 V2000
   -5.5038  -11.2339    2.3376 F   0  0  0  0  0  0  0  0  0  0  0  0
   -7.5524   -9.3065   -2.9925 O   0  0  0  0  0  0  0  0  0  0  0  0
   -0.9685  -11.5127    2.6094 O   0  0  0  0  0  0  0  0  0  0  0  0
   -4.6877   -7.8014    3.2876 C   0  0  2  0  0  0  0  0  0  0  0  0
   -6.0352   -8.4885    2.9799 C   0  0  1  0  0  0  0  0  0  0  0  0
   -4.1977   -6.8169    4.3271 C   0  0  0  0  0  0  0  0  0  0  0  0
   -4.1364   -7.4878    1.9204 C   0  0  0  0  0  0  0  0  0  0  0  0
   -5.2328   -9.2184    1.4535 C   0  0  0  0  0  0  0  0  0  0  0  0
   -6.4024   -8.6545    4.7156 C   0  0  0  0  0  0  0  0  0  0  0  0
   -4.6186   -7.0330    5.7597 C   0  0  0  0  0  0  0  0  0  0  0  0
   -4.0447   -9.0071    3.8431 C   0  0  0  0  0  0  0  0  0  0  0  0
   -6.1091   -7.3143    5.6274 C   0  0  0  0  0  0  0  0  0  0  0  0
   -3.8429   -8.6385    1.2953 C   0  0  0  0  0  0  0  0  0  0  0  0
   -5.1238   -6.5375    1.1585 C   0  0  2  0  0  0  0  0  0  0  0  0
   -4.7969   -6.3595   -0.3338 C   0  0  0  0  0  0  0  0  0  0  0  0
   -6.3130   -9.8247    5.4558 C   0  0  0  0  0  0  0  0  0  0  0  0
   -5.1718   -5.2588    1.9414 C   0  0  0  0  0  0  0  0  0  0  0  0
   -4.9000  -10.4161    5.9005 C   0  0  0  0  0  0  0  0  0  0  0  0
   -5.2251   -7.4746   -1.2154 C   0  0  0  0  0  0  0  0  0  0  0  0
   -4.1675  -11.3284    5.1403 C   0  0  0  0  0  0  0  0  0  0  0  0
   -6.1000   -7.6158   -2.2826 C   0  0  0  0  0  0  0  0  0  0  0  0
   -2.5912  -11.2251    4.6928 C   0  0  0  0  0  0  0  0  0  0  0  0
   -6.1563   -8.9613   -2.9970 C   0  0  0  0  0  0  0  0  0  0  0  0
   -4.9127  -12.2468    4.2887 C   0  0  0  0  0  0  0  0  0  0  0  0
   -2.2930  -11.2499    3.1088 C   0  0  2  0  0  0  0  0  0  0  0  0
   -4.7255  -12.2138    2.8087 C   0  0  2  0  0  0  0  0  0  0  0  0
   -3.2728  -12.1362    2.3446 C   0  0  0  0  0  0  0  0  0  0  0  0
   -5.7159   -8.7005   -4.4492 C   0  0  0  0  0  0  0  0  0  0  0  0
   -5.4061  -10.2317   -2.4152 C   0  0  0  0  0  0  0  0  0  0  0  0
   -5.8557  -13.0138    4.8441 C   0  0  0  0  0  0  0  0  0  0  0  0
   -4.2557   -8.2761   -4.6165 C   0  0  0  0  0  0  0  0  0  0  0  0
   -3.8689  -10.2039   -2.3304 C   0  0  0  0  0  0  0  0  0  0  0  0
  2 23  1  0
  4  5  1  0
  4  6  1  0
  4  7  1  0
  4 11  1  1
  5  8  1  1
  5  9  1  0
  6 10  1  0
  7 13  2  0
  7 14  1  0
  8 13  1  0
  9 12  1  0
  9 16  2  0
 10 12  1  0
 14 17  1  1
 14 15  1  0
 15 19  1  0
 16 18  1  0
 18 20  2  0
 19 21  2  0
 20 22  1  0
 20 24  1  0
 21 23  1  0
 22 25  1  0
 23 28  1  0
 23 29  1  0
 24 26  1  0
 24 30  2  0
 25 27  1  0
 25  3  1  1
 26 27  1  0
 26  1  1  1
 28 31  1  0
 29 32  1  0
M  END
>  <DRUGBANK_ID>  (1) 
DB06194

>  <COMMON_NAME>  (1) 
Elocalcitol

>  <CAS_NUMBER>  (1) 
199798-84-0

>  <UNII>  (1) 
2WDS5F2V6Q

>  <SYNONYMS>  (1) 
Elocalcitol

$$$$
