
     RDKit          3D

 31 32  0  0  1  0  0  0  0  0999 V2000
   -7.7311    3.4528   -5.6095 C   0  0  0  0  0  0  0  0  0  0  0  0
   -6.9252    2.9744   -4.5639 O   0  0  0  0  0  0  0  0  0  0  0  0
   -5.5161    3.1546   -4.6205 C   0  0  0  0  0  0  0  0  0  0  0  0
   -4.7874    2.4843   -5.7790 C   0  0  0  0  0  0  0  0  0  0  0  0
   -3.4096    2.3678   -5.6769 C   0  0  0  0  0  0  0  0  0  0  0  0
   -2.6694    1.8315   -6.7322 C   0  0  0  0  0  0  0  0  0  0  0  0
   -3.2860    1.2809   -7.8583 C   0  0  0  0  0  0  0  0  0  0  0  0
   -4.6604    1.1908   -7.9041 C   0  0  0  0  0  0  0  0  0  0  0  0
   -5.3424    0.1943   -8.8472 C   0  0  0  0  0  0  0  0  0  0  0  0
   -5.7777   -1.1405   -8.1524 C   0  0  2  0  0  0  0  0  0  0  0  0
   -7.0725   -1.4825   -8.7034 O   0  0  0  0  0  0  0  0  0  0  0  0
   -6.0193   -0.8584   -6.7016 C   0  0  0  0  0  0  0  0  0  0  0  0
   -5.6015   -1.1681   -5.4574 C   0  0  0  0  0  0  0  0  0  0  0  0
   -6.2092   -0.8060   -3.8659 C   0  0  1  0  0  0  0  0  0  0  0  0
   -6.4426    0.6141   -3.4618 C   0  0  2  0  0  0  0  0  0  0  0  0
   -5.6891    0.9059   -2.2853 O   0  0  0  0  0  0  0  0  0  0  0  0
   -7.9417    0.9645   -3.2738 C   0  0  0  0  0  0  0  0  0  0  0  0
   -8.5648   -0.3691   -3.3023 C   0  0  0  0  0  0  0  0  0  0  0  0
   -9.7647   -0.6004   -3.3752 O   0  0  0  0  0  0  0  0  0  0  0  0
   -7.5160   -1.4137   -3.2095 C   0  0  2  0  0  0  0  0  0  0  0  0
   -7.6051   -1.7351   -1.7471 C   0  0  0  0  0  0  0  0  0  0  0  0
   -7.1692   -3.1600   -1.4991 C   0  0  0  0  0  0  0  0  0  0  0  0
   -5.5026   -3.7371   -2.0331 S   0  0  0  0  0  0  0  0  0  0  0  0
   -5.4633   -3.6884   -3.8782 C   0  0  0  0  0  0  0  0  0  0  0  0
   -6.3525   -4.3798   -4.9173 C   0  0  0  0  0  0  0  0  0  0  0  0
   -7.8858   -4.0851   -4.9095 C   0  0  0  0  0  0  0  0  0  0  0  0
   -8.7185   -2.8968   -5.6825 C   0  0  0  0  0  0  0  0  0  0  0  0
   -9.8343   -3.0616   -6.0869 O   0  0  0  0  0  0  0  0  0  0  0  0
   -8.1477   -1.6650   -5.6754 O   0  0  0  0  0  0  0  0  0  0  0  0
   -8.6811   -0.3172   -6.0081 C   0  0  0  0  0  0  0  0  0  0  0  0
   -5.3820    1.8680   -6.8973 C   0  0  0  0  0  0  0  0  0  0  0  0
  1  2  1  0
  2  3  1  0
  3  4  1  0
  4  5  2  0
  4 31  1  0
  5  6  1  0
  6  7  2  0
  7  8  1  0
  8  9  1  0
  8 31  2  0
 10 12  1  0
 10 11  1  6
 10  9  1  0
 12 13  2  0
 14 15  1  0
 14 20  1  0
 14 13  1  6
 15 16  1  1
 15 17  1  0
 17 18  1  0
 18 19  2  0
 20 18  1  0
 20 21  1  1
 21 22  1  0
 22 23  1  0
 23 24  1  0
 24 25  1  0
 25 26  1  0
 26 27  1  0
 27 28  2  0
 27 29  1  0
 29 30  1  0
M  END
>  <DRUGBANK_ID>  (1) 
DB16315

>  <COMMON_NAME>  (1) 
Rivenprost

>  <CAS_NUMBER>  (1) 
256382-08-8

>  <UNII>  (1) 
1WBO45T413

>  <SYNONYMS>  (1) 
Rivenprost

$$$$
