783
     RDKit          3D

 27 30  0  0  0  0  0  0  0  0999 V2000
    2.2007   -0.7215   -0.0111 C   0  0  0  0  0  0  0  0  0  0  0  0
    2.1263    0.6878   -0.0198 C   0  0  0  0  0  0  0  0  0  0  0  0
    0.9042    1.3873    0.0079 C   0  0  0  0  0  0  0  0  0  0  0  0
   -0.2690    0.6306    0.0300 C   0  0  0  0  0  0  0  0  0  0  0  0
   -0.2439   -0.7596    0.0472 C   0  0  0  0  0  0  0  0  0  0  0  0
    0.9891   -1.4298    0.0324 C   0  0  0  0  0  0  0  0  0  0  0  0
    3.4927   -1.4529   -0.0560 C   0  0  0  0  0  0  0  0  0  0  0  0
    3.5290   -2.7763   -0.0455 N   0  0  0  0  0  0  0  0  0  0  0  0
    4.6358   -0.8066   -0.1041 N   0  0  0  0  0  0  0  0  0  0  0  0
   -1.6002    0.9992   -0.0102 N   0  0  0  0  0  0  0  0  0  0  0  0
   -1.5773   -1.2192    0.0381 C   0  0  0  0  0  0  0  0  0  0  0  0
   -2.4028   -0.1197   -0.0014 C   0  0  0  0  0  0  0  0  0  0  0  0
   -3.8663   -0.0718   -0.1259 C   0  0  0  0  0  0  0  0  0  0  0  0
   -4.5901   -0.7456    0.8798 C   0  0  0  0  0  0  0  0  0  0  0  0
   -5.9720   -0.8082    0.8543 C   0  0  0  0  0  0  0  0  0  0  0  0
   -6.7537   -1.4501    1.7802 O   0  0  0  0  0  0  0  0  0  0  0  0
   -6.0605   -2.1203    2.8299 C   0  0  0  0  0  0  0  0  0  0  0  0
   -6.6342   -0.1739   -0.1903 C   0  0  0  0  0  0  0  0  0  0  0  0
   -5.9315    0.5067   -1.2254 C   0  0  0  0  0  0  0  0  0  0  0  0
   -4.4949    0.5758   -1.2313 C   0  0  0  0  0  0  0  0  0  0  0  0
   -3.8182    1.1690   -2.1503 O   0  0  0  0  0  0  0  0  0  0  0  0
   -6.7466    1.1446   -2.2942 C   0  0  0  0  0  0  0  0  0  0  0  0
   -6.6516    0.7283   -3.6324 C   0  0  0  0  0  0  0  0  0  0  0  0
   -7.3973    1.3493   -4.6378 C   0  0  0  0  0  0  0  0  0  0  0  0
   -8.2788    2.3780   -4.3138 C   0  0  0  0  0  0  0  0  0  0  0  0
   -8.4135    2.7845   -2.9876 C   0  0  0  0  0  0  0  0  0  0  0  0
   -7.6321    2.1917   -1.9921 C   0  0  0  0  0  0  0  0  0  0  0  0
  1  2  2  0
  1  6  1  0
  1  7  1  0
  2  3  1  0
  3  4  2  0
  4  5  1  0
  4 10  1  0
  5  6  2  0
  5 11  1  0
  7  8  1  0
  7  9  2  0
 10 12  1  0
 11 12  2  0
 12 13  1  0
 13 14  2  0
 13 20  1  0
 14 15  1  0
 15 16  1  0
 15 18  2  0
 16 17  1  0
 18 19  1  0
 19 20  2  0
 19 22  1  0
 20 21  1  0
 22 23  2  0
 22 27  1  0
 23 24  1  0
 24 25  2  0
 25 26  1  0
 26 27  2  0
M  CHG  2   9   1  21  -1
M  END
>  <DRUGBANK_ID>  (1) 
DB07229

>  <COMMON_NAME>  (1) 
3-{5-[AMINO(IMINIO)METHYL]-1H-INDOL-2-YL}-5-METHOXY-1,1'-BIPHENYL-2-OLATE

$$$$
