293
     RDKit          3D

 32 34  0  0  1  0  0  0  0  0999 V2000
   -1.0491   -0.0271   -0.0194 S   0  0  0  0  0  0  0  0  0  0  0  0
    3.7131   -2.6218   -2.0110 O   0  0  0  0  0  0  0  0  0  0  0  0
   -1.2480   -3.0753   -0.0177 O   0  0  0  0  0  0  0  0  0  0  0  0
    2.5451   -4.4918   -2.3459 O   0  0  0  0  0  0  0  0  0  0  0  0
   -1.8148    8.0923    1.0872 O   0  0  0  0  0  0  0  0  0  0  0  0
    5.0504   -6.5481    0.3614 O   0  0  0  0  0  0  0  0  0  0  0  0
    3.2141   -6.4712   -0.8998 O   0  0  0  0  0  0  0  0  0  0  0  0
   -0.2766    2.6452   -0.0527 N   0  0  0  0  0  0  0  0  0  0  0  0
    0.9082   -3.5867   -0.0267 N   0  0  0  0  0  0  0  0  0  0  0  0
   -1.7205    6.2770    4.6411 N   0  0  0  0  0  0  0  0  0  0  0  0
   -1.8916    8.2740    3.3640 N   0  0  0  0  0  0  0  0  0  0  0  0
   -1.6520    3.1171   -0.0553 C   0  0  0  0  0  0  0  0  0  0  0  0
    2.3519   -3.4313   -0.1411 C   0  0  1  0  0  0  0  0  0  0  0  0
   -1.8691    3.9417    1.1829 C   0  0  0  0  0  0  0  0  0  0  0  0
    3.0985   -3.9402    1.0919 C   0  0  0  0  0  0  0  0  0  0  0  0
    0.0316    1.3213   -0.0260 C   0  0  0  0  0  0  0  0  0  0  0  0
   -1.7738    6.0818    2.2551 C   0  0  0  0  0  0  0  0  0  0  0  0
   -1.7545    5.3279    1.0939 C   0  0  0  0  0  0  0  0  0  0  0  0
   -1.7641    5.4696    3.5099 C   0  0  0  0  0  0  0  0  0  0  0  0
    3.1003   -5.4446    1.2559 C   0  0  0  0  0  0  0  0  0  0  0  0
   -1.9943    3.3299    2.4382 C   0  0  0  0  0  0  0  0  0  0  0  0
    0.2295   -1.1964   -0.0079 C   0  0  0  0  0  0  0  0  0  0  0  0
   -1.8070    4.0802    3.5957 C   0  0  0  0  0  0  0  0  0  0  0  0
   -0.0961   -2.6328   -0.0223 C   0  0  0  0  0  0  0  0  0  0  0  0
    0.8203    3.6268   -0.0489 C   0  0  0  0  0  0  0  0  0  0  0  0
    1.3204    0.8790   -0.0001 C   0  0  0  0  0  0  0  0  0  0  0  0
    1.4216   -0.5053    0.0293 C   0  0  0  0  0  0  0  0  0  0  0  0
    2.8869   -3.6111   -1.5797 C   0  0  0  0  0  0  0  0  0  0  0  0
   -1.8147    7.5590    2.1924 C   0  0  0  0  0  0  0  0  0  0  0  0
   -1.8471    7.6337    4.4882 C   0  0  0  0  0  0  0  0  0  0  0  0
    3.7718   -6.1903    0.1278 C   0  0  0  0  0  0  0  0  0  0  0  0
   -1.9493    8.4483    5.7468 C   0  0  0  0  0  0  0  0  0  0  0  0
  1 16  1  0
  1 22  1  0
  2 28  1  0
  3 24  2  0
  4 28  2  0
  5 29  2  0
  6 31  1  0
  7 31  2  0
  8 12  1  0
  8 16  1  0
  8 25  1  0
  9 24  1  0
 10 19  1  0
 10 30  1  0
 11 29  1  0
 11 30  2  0
 12 14  1  0
 13  9  1  0
 13 15  1  1
 13 28  1  0
 14 18  2  0
 14 21  1  0
 15 20  1  0
 16 26  2  0
 17 18  1  0
 17 19  2  0
 17 29  1  0
 19 23  1  0
 20 31  1  0
 21 23  2  0
 22 24  1  0
 22 27  2  0
 26 27  1  0
 30 32  1  0
M  END
>  <DRUGBANK_ID>  (1) 
DB00293

>  <SECONDARY_ACCESSION_NUMBERS>  (1) 
APRD00430; EXPT01092

>  <COMMON_NAME>  (1) 
Raltitrexed

>  <CAS_NUMBER>  (1) 
112887-68-0

>  <UNII>  (1) 
FCB9EGG971

>  <SYNONYMS>  (1) 
Raltitrexed

$$$$
