
     RDKit          3D

 20 19  0  0  1  0  0  0  0  0999 V2000
    0.0374    1.8805    0.0820 C   0  0  0  0  0  0  0  0  0  0  0  0
    1.9567    1.1509    0.3423 C   0  0  0  0  0  0  0  0  0  0  0  0
    1.9453   -1.2875    0.3383 S   0  0  0  0  0  0  0  0  0  0  0  0
   -0.5804   -1.5271   -0.3281 S   0  0  0  0  0  0  0  0  0  0  0  0
   -1.1609    0.6970   -0.6960 C   0  0  2  0  0  0  0  0  0  0  0  0
   -1.3393    1.0038   -2.2036 C   0  0  0  0  0  0  0  0  0  0  0  0
   -2.1505   -0.1150   -2.7724 C   0  0  0  0  0  0  0  0  0  0  0  0
   -3.5640    0.0185   -2.2732 C   0  0  0  0  0  0  0  0  0  0  0  0
   -4.1080    1.3903   -2.6645 C   0  0  0  0  0  0  0  0  0  0  0  0
   -4.0463    1.6079   -4.1634 C   0  0  0  0  0  0  0  0  0  0  0  0
   -5.0168    1.6705   -4.8963 O   0  0  0  0  0  0  0  0  0  0  0  0
   -2.7965    1.7069   -4.6675 O   0  0  0  0  0  0  0  0  0  0  0  0
    0.8610    0.2138   -0.8883 C   0  0  0  0  0  0  0  0  0  0  0  0
    0.3814    0.2627    1.2620 C   0  0  0  0  0  0  0  0  0  0  0  0
    0.9980    1.7652    2.2985 C   0  0  0  0  0  0  0  0  0  0  0  0
    1.0890    3.1445    1.7843 O   0  0  0  0  0  0  0  0  0  0  0  0
   -1.2292    0.0649    1.8876 C   0  0  0  0  0  0  0  0  0  0  0  0
   -1.8238   -1.2378    1.9315 O   0  0  0  0  0  0  0  0  0  0  0  0
    0.9307   -0.6822    2.4686 N   0  0  0  0  0  0  0  0  0  0  0  0
    1.0669    1.3325   -1.8851 O   0  0  0  0  0  0  0  0  0  0  0  0
  1  2  1  0
  1  5  1  0
  2  3  1  0
  3  4  1  0
  4  5  1  0
  5  6  1  6
  6  7  1  0
  7  8  1  0
  8  9  1  0
  9 10  1  0
 10 11  2  0
 10 12  1  0
 13 14  1  0
 13 20  1  0
 14 15  1  0
 14 17  1  0
 14 19  1  0
 15 16  1  0
 17 18  1  0
M  END
>  <DRUGBANK_ID>  (1) 
DB06253

>  <COMMON_NAME>  (1) 
Thioctic acid tromethamine

>  <CAS_NUMBER>  (1) 
137314-40-0

>  <UNII>  (1) 
HK7B1AJA3Q

>  <SYNONYMS>  (1) 
(R)-5-(1,2-dithiolaln-3-yl)-pentanoic acid tromethamine; Thioctic acid tromethamine

$$$$
