
     RDKit          3D

 17 20  0  0  0  0  0  0  0  0999 V2000
   -2.0541    0.1217    0.3645 N   0  0  0  0  0  0  0  0  0  0  0  0
    1.9435    0.3433    0.8438 N   0  0  0  0  0  0  0  0  0  0  0  0
   -0.1441    1.5991   -1.0277 C   0  0  2  0  0  0  0  0  0  0  0  0
   -0.0599   -0.6601   -0.5321 C   0  0  2  0  0  0  0  0  0  0  0  0
   -1.7207    1.5090   -0.2198 C   0  0  1  0  0  0  0  0  0  0  0  0
    0.5887   -0.0083    0.7503 C   0  0  2  0  0  0  0  0  0  0  0  0
   -0.0982    0.2602   -1.7206 C   0  0  0  0  0  0  0  0  0  0  0  0
   -1.4742   -1.0762   -0.1651 C   0  0  0  0  0  0  0  0  0  0  0  0
    1.5355    1.5911   -0.1814 C   0  0  0  0  0  0  0  0  0  0  0  0
   -3.1580    2.1951   -0.2053 C   0  0  0  0  0  0  0  0  0  0  0  0
    0.2302    1.5853    1.7251 C   0  0  0  0  0  0  0  0  0  0  0  0
   -3.2393   -0.0314    1.2293 C   0  0  0  0  0  0  0  0  0  0  0  0
    1.6560    0.0477    2.5781 C   0  0  0  0  0  0  0  0  0  0  0  0
   -4.1057    1.1313   -0.7578 C   0  0  0  0  0  0  0  0  0  0  0  0
   -0.7135    1.2064    2.6169 C   0  0  0  0  0  0  0  0  0  0  0  0
   -4.3482   -0.0269    0.2219 C   0  0  0  0  0  0  0  0  0  0  0  0
   -0.0878   -0.0576    3.0994 C   0  0  0  0  0  0  0  0  0  0  0  0
  1  5  1  0
  1  8  1  0
  1 12  1  0
  2  6  1  0
  2  9  1  0
  2 13  1  0
  3  5  1  0
  3  7  1  0
  3  9  1  1
  4  6  1  0
  4  7  1  0
  4  8  1  1
  5 10  1  6
  6 11  1  6
 10 14  1  0
 11 15  1  0
 12 16  1  0
 13 17  1  0
 14 16  1  0
 15 17  1  0
M  END
>  <DRUGBANK_ID>  (1) 
DB14755

>  <COMMON_NAME>  (1) 
beta-Isosparteine

>  <CAS_NUMBER>  (1) 
24915-04-6

>  <UNII>  (1) 
HPV1ED2WZQ

>  <SYNONYMS>  (1) 
(-)-beta-Isosparteine; (+)-beta-isosparteine; (+)-Î²-isosparteine; Nonalupine

$$$$
