
     RDKit          3D

 23 24  0  0  0  0  0  0  0  0999 V2000
    0.9724   -0.0067    0.0398 O   0  0  0  0  0  0  0  0  0  0  0  0
    0.4079   -1.0906   -0.5292 C   0  0  0  0  0  0  0  0  0  0  0  0
    1.1006   -1.9737   -1.0153 O   0  0  0  0  0  0  0  0  0  0  0  0
   -1.0972   -1.0635   -0.5047 C   0  0  0  0  0  0  0  0  0  0  0  0
   -1.6611   -1.0400    0.8925 C   0  0  0  0  0  0  0  0  0  0  0  0
   -1.8710    0.1747    1.5565 C   0  0  0  0  0  0  0  0  0  0  0  0
   -2.3429    0.1898    2.8719 C   0  0  0  0  0  0  0  0  0  0  0  0
   -2.6111   -1.0113    3.5434 C   0  0  0  0  0  0  0  0  0  0  0  0
   -3.0478   -0.9392    4.8462 O   0  0  0  0  0  0  0  0  0  0  0  0
   -2.2853   -1.5196    5.8398 C   0  0  0  0  0  0  0  0  0  0  0  0
   -1.0512   -2.1478    5.6615 C   0  0  0  0  0  0  0  0  0  0  0  0
   -0.4230   -2.8011    6.7217 C   0  0  0  0  0  0  0  0  0  0  0  0
   -0.9940   -2.7663    7.9882 C   0  0  0  0  0  0  0  0  0  0  0  0
   -0.3738   -3.3890    9.0337 O   0  0  0  0  0  0  0  0  0  0  0  0
   -2.1984   -2.0911    8.2113 C   0  0  0  0  0  0  0  0  0  0  0  0
   -2.8404   -1.4768    7.1174 C   0  0  0  0  0  0  0  0  0  0  0  0
   -2.8099   -2.0129    9.5958 C   0  0  0  0  0  0  0  0  0  0  0  0
   -2.8993   -0.5577   10.0564 C   0  0  0  0  0  0  0  0  0  0  0  0
   -4.1835   -2.6822    9.6212 C   0  0  0  0  0  0  0  0  0  0  0  0
   -2.4709   -2.2252    2.8519 C   0  0  0  0  0  0  0  0  0  0  0  0
   -1.9563   -2.2374    1.5536 C   0  0  0  0  0  0  0  0  0  0  0  0
   -2.8936   -3.7598    3.5342 Cl  0  0  0  0  0  0  0  0  0  0  0  0
   -2.5672    1.7270    3.6295 Cl  0  0  0  0  0  0  0  0  0  0  0  0
  2  1  1  0
  2  3  2  0
  4  2  1  0
  5  4  1  0
  5  6  2  0
  5 21  1  0
  7  6  1  0
  7 23  1  0
  8  7  2  0
  8  9  1  0
 10  9  1  0
 10 16  1  0
 11 10  2  0
 12 11  1  0
 12 13  2  0
 13 14  1  0
 15 13  1  0
 16 15  2  0
 17 15  1  0
 17 18  1  0
 17 19  1  0
 20  8  1  0
 20 22  1  0
 21 20  2  0
M  END
>  <DRUGBANK_ID>  (1) 
DB03176

>  <SECONDARY_ACCESSION_NUMBERS>  (1) 
EXPT01852

>  <COMMON_NAME>  (1) 
KB-141

>  <CAS_NUMBER>  (1) 
219691-94-8

>  <UNII>  (1) 
M5P363AFVC

>  <SYNONYMS>  (1) 
3,5-dichloro-4-(4-hydroxy-3-isopropylphenoxy)phenylacetic acid

$$$$
