59A
     RDKit          3D

 19 19  0  0  0  0  0  0  0  0999 V2000
   -5.9337    0.3856    2.9133 C   0  0  1  0  0  0  0  0  0  0  0  0
   -5.8869   -0.2613    4.1545 O   0  0  0  0  0  0  0  0  0  0  0  0
   -5.2533   -1.1894    3.2660 C   0  0  2  0  0  0  0  0  0  0  0  0
   -3.6931   -1.3622    3.0595 C   0  0  0  0  0  0  0  0  0  0  0  0
   -2.8979   -0.7881    3.7624 O   0  0  0  0  0  0  0  0  0  0  0  0
   -3.1669   -2.1879    1.9776 N   0  0  0  0  0  0  0  0  0  0  0  0
   -3.8052   -2.6558    0.6945 C   0  0  2  0  0  0  0  0  0  0  0  0
   -3.0245   -3.3661   -0.4682 C   0  0  0  0  0  0  0  0  0  0  0  0
   -2.5110   -4.5742   -0.1920 O   0  0  0  0  0  0  0  0  0  0  0  0
   -4.4377   -1.5139   -0.1106 C   0  0  2  0  0  0  0  0  0  0  0  0
   -3.5313   -0.2812   -0.4362 C   0  0  0  0  0  0  0  0  0  0  0  0
   -5.5559   -0.9989    0.6397 C   0  0  0  0  0  0  0  0  0  0  0  0
   -2.9993    0.6200    0.6985 C   0  0  0  0  0  0  0  0  0  0  0  0
   -2.9665   -2.9412   -1.6167 O   0  0  0  0  0  0  0  0  0  0  0  0
   -7.1364    0.6068    1.9391 C   0  0  0  0  0  0  0  0  0  0  0  0
   -6.9987    1.5179    1.1221 O   0  0  0  0  0  0  0  0  0  0  0  0
   -8.1598   -0.3148    1.8021 O   0  0  0  0  0  0  0  0  0  0  0  0
   -9.0869   -0.1181    0.6509 C   0  0  0  0  0  0  0  0  0  0  0  0
   -9.7090    1.2773    0.6036 C   0  0  0  0  0  0  0  0  0  0  0  0
  1  2  1  0
  1  3  1  0
  1 15  1  6
  2  3  1  0
  3  4  1  1
  4  5  2  0
  4  6  1  0
  7  8  1  0
  7  6  1  1
  8  9  1  0
  8 14  2  0
 10 12  1  1
 10 11  1  0
 10  7  1  0
 11 13  1  0
 15 16  2  0
 15 17  1  0
 17 18  1  0
 18 19  1  0
M  END
>  <DRUGBANK_ID>  (1) 
DB07160

>  <COMMON_NAME>  (1) 
N-{[(2S,3S)-3-(ETHOXYCARBONYL)OXIRAN-2-YL]CARBONYL}-L-ISOLEUCINE

$$$$
