
     RDKit          3D

 41 45  0  0  0  0  0  0  0  0999 V2000
    0.9376   -0.3203    0.1310 C   0  0  0  0  0  0  0  0  0  0  0  0
    0.2789   -0.7274    1.3828 N   0  0  0  0  0  0  0  0  0  0  0  0
    0.1365    0.2737    2.3456 N   0  0  0  0  0  0  0  0  0  0  0  0
    0.2170   -0.3117    3.5791 C   0  0  0  0  0  0  0  0  0  0  0  0
    0.4629    0.2601    4.6424 O   0  0  0  0  0  0  0  0  0  0  0  0
    0.0224   -1.7701    3.4513 C   0  0  0  0  0  0  0  0  0  0  0  0
   -0.2987   -2.6511    4.6550 C   0  0  0  0  0  0  0  0  0  0  0  0
   -0.0978   -3.8681    4.5851 O   0  0  0  0  0  0  0  0  0  0  0  0
   -0.8043   -2.1566    5.8750 N   0  0  0  0  0  0  0  0  0  0  0  0
   -1.3047   -0.8722    6.2115 C   0  0  0  0  0  0  0  0  0  0  0  0
   -2.0966   -0.2028    5.2958 C   0  0  0  0  0  0  0  0  0  0  0  0
   -2.1941    1.1798    5.3577 C   0  0  0  0  0  0  0  0  0  0  0  0
   -2.6763    1.7683    4.2569 F   0  0  0  0  0  0  0  0  0  0  0  0
   -1.7477    1.9221    6.4553 C   0  0  0  0  0  0  0  0  0  0  0  0
   -1.9171    3.2965    6.5902 O   0  0  0  0  0  0  0  0  0  0  0  0
   -2.7502    3.9867    5.7101 C   0  0  0  0  0  0  0  0  0  0  0  0
   -2.2433    5.1450    5.1418 C   0  0  0  0  0  0  0  0  0  0  0  0
   -3.0374    5.8268    4.2315 C   0  0  0  0  0  0  0  0  0  0  0  0
   -4.2744    5.4400    3.8451 N   0  0  0  0  0  0  0  0  0  0  0  0
   -4.8061    4.3624    4.4429 C   0  0  0  0  0  0  0  0  0  0  0  0
   -4.0901    3.6423    5.4314 C   0  0  0  0  0  0  0  0  0  0  0  0
   -4.7462    2.6211    6.1121 C   0  0  0  0  0  0  0  0  0  0  0  0
   -6.0717    2.3402    5.8595 C   0  0  0  0  0  0  0  0  0  0  0  0
   -6.7068    2.8708    4.7546 C   0  0  0  0  0  0  0  0  0  0  0  0
   -7.8669    2.3558    4.2451 O   0  0  0  0  0  0  0  0  0  0  0  0
   -8.3362    1.0883    4.7703 C   0  0  0  0  0  0  0  0  0  0  0  0
   -7.5335   -0.1928    4.3443 C   0  0  0  0  0  0  0  0  0  0  0  0
   -6.0606   -0.2468    4.7558 C   0  0  0  0  0  0  0  0  0  0  0  0
   -8.1764   -1.4390    4.9581 C   0  0  0  0  0  0  0  0  0  0  0  0
   -7.5921   -0.3171    2.9209 O   0  0  0  0  0  0  0  0  0  0  0  0
   -6.0903    3.9304    4.0886 C   0  0  0  0  0  0  0  0  0  0  0  0
   -1.0974    1.2188    7.4851 C   0  0  0  0  0  0  0  0  0  0  0  0
   -0.8654   -0.1795    7.3605 C   0  0  0  0  0  0  0  0  0  0  0  0
    0.3752   -1.9549    2.1359 C   0  0  0  0  0  0  0  0  0  0  0  0
    0.8102   -3.2669    1.5135 C   0  0  0  0  0  0  0  0  0  0  0  0
   -0.0890    1.6523    2.1569 C   0  0  0  0  0  0  0  0  0  0  0  0
   -1.0125    2.1351    1.2282 C   0  0  0  0  0  0  0  0  0  0  0  0
   -1.3324    3.4983    1.2064 C   0  0  0  0  0  0  0  0  0  0  0  0
   -0.7385    4.3805    2.1096 C   0  0  0  0  0  0  0  0  0  0  0  0
    0.1463    3.9025    3.0651 C   0  0  0  0  0  0  0  0  0  0  0  0
    0.4913    2.5575    3.0616 C   0  0  0  0  0  0  0  0  0  0  0  0
  1  2  1  0
  2  3  1  0
  2 34  1  0
  3  4  1  0
  3 36  1  0
  4  5  2  0
  4  6  1  0
  6  7  1  0
  6 34  2  0
  7  8  2  0
  7  9  1  0
  9 10  1  0
 10 11  2  0
 10 33  1  0
 11 12  1  0
 12 13  1  0
 12 14  2  0
 14 15  1  0
 14 32  1  0
 15 16  1  0
 16 17  2  0
 16 21  1  0
 17 18  1  0
 18 19  2  0
 19 20  1  0
 20 21  2  0
 20 31  1  0
 21 22  1  0
 22 23  2  0
 23 24  1  0
 24 25  1  0
 24 31  2  0
 25 26  1  0
 26 27  1  0
 27 28  1  0
 27 29  1  0
 27 30  1  0
 32 33  2  0
 34 35  1  0
 36 37  2  0
 36 41  1  0
 37 38  1  0
 38 39  2  0
 39 40  1  0
 40 41  2  0
M  END
>  <DRUGBANK_ID>  (1) 
DB16256

>  <COMMON_NAME>  (1) 
Ningetinib

>  <CAS_NUMBER>  (1) 
1394820-69-9

>  <UNII>  (1) 
PW3Q92Z6A4

>  <SYNONYMS>  (1) 
Ct-053 free base; Ct-053-ptsa free base; Ct053ptsa free base

$$$$
