
     RDKit          3D

 11 12  0  0  0  0  0  0  0  0999 V2000
    0.1984   -0.7479   -0.0002 C   0  0  0  0  0  0  0  0  0  0  0  0
    0.2204    0.6476    0.0004 C   0  0  0  0  0  0  0  0  0  0  0  0
    1.8239   -1.4464   -0.0009 S   0  0  0  0  0  0  0  0  0  0  0  0
   -0.9963   -1.4436    0.0005 C   0  0  0  0  0  0  0  0  0  0  0  0
    1.6065    1.1600    0.0005 C   0  0  0  0  0  0  0  0  0  0  0  0
   -0.9545    1.3906    0.0003 C   0  0  0  0  0  0  0  0  0  0  0  0
    2.5002    0.1095    0.0004 N   0  0  0  0  0  0  0  0  0  0  0  0
   -2.1827   -0.7123    0.0009 C   0  0  0  0  0  0  0  0  0  0  0  0
    1.9020    2.3440    0.0004 O   0  0  0  0  0  0  0  0  0  0  0  0
   -2.1695    0.6928   -0.0011 C   0  0  0  0  0  0  0  0  0  0  0  0
   -3.6823   -1.5564    0.0061 Cl  0  0  0  0  0  0  0  0  0  0  0  0
  1  2  2  0
  1  3  1  0
  1  4  1  0
  2  5  1  0
  2  6  1  0
  3  7  1  0
  4  8  2  0
  5  9  2  0
  5  7  1  0
  6 10  2  0
  8 11  1  0
  8 10  1  0
M  END
>  <DRUGBANK_ID>  (1) 
DB13613

>  <COMMON_NAME>  (1) 
Ticlatone

>  <CAS_NUMBER>  (1) 
70-10-0

>  <UNII>  (1) 
BHW384Q9GI

>  <SYNONYMS>  (1) 
Ticlatona; Ticlatone; Ticlatonum

$$$$
