TLM
     RDKit          3D

 14 14  0  0  0  0  0  0  0  0999 V2000
   -1.5292    0.1272   -0.0319 S   0  0  0  0  0  0  0  0  0  0  0  0
   -0.2679    1.3118    0.1466 C   0  0  0  0  0  0  0  0  0  0  0  0
    1.0706    0.7191   -0.0226 C   0  0  0  0  0  0  0  0  0  0  0  0
    1.0169   -0.6198    0.0071 C   0  0  0  0  0  0  0  0  0  0  0  0
   -0.3463   -1.2657    0.1162 C   0  0  1  0  0  0  0  0  0  0  0  0
   -0.5821   -1.9180    1.4826 C   0  0  0  0  0  0  0  0  0  0  0  0
   -0.9627   -3.1939    1.7442 C   0  0  0  0  0  0  0  0  0  0  0  0
   -1.1674   -3.6656    3.1082 C   0  0  0  0  0  0  0  0  0  0  0  0
   -1.5276   -4.9188    3.4236 C   0  0  0  0  0  0  0  0  0  0  0  0
   -0.4878    2.4910    0.4011 O   0  0  0  0  0  0  0  0  0  0  0  0
    2.2724    1.5647   -0.2044 C   0  0  0  0  0  0  0  0  0  0  0  0
    2.1074   -1.4539   -0.1510 O   0  0  0  0  0  0  0  0  0  0  0  0
   -0.5570   -2.1241   -1.1278 C   0  0  0  0  0  0  0  0  0  0  0  0
   -1.2000   -4.2005    0.6492 C   0  0  0  0  0  0  0  0  0  0  0  0
  1  2  1  0
  1  5  1  0
  2  3  1  0
  2 10  2  0
  3  4  2  0
  3 11  1  0
  4  5  1  0
  4 12  1  0
  5  6  1  0
  5 13  1  6
  6  7  2  0
  7  8  1  0
  7 14  1  0
  8  9  2  0
M  END
>  <DRUGBANK_ID>  (1) 
DB04302

>  <SECONDARY_ACCESSION_NUMBERS>  (1) 
EXPT03065

>  <COMMON_NAME>  (1) 
4-Hydroxy-3,5-Dimethyl-5-(2-Methyl-Buta-1,3-Dienyl)-5h-Thiophen-2-One

>  <CAS_NUMBER>  (1) 
82079-32-1

$$$$
