OA1
     RDKit          3D

 15 16  0  0  0  0  0  0  0  0999 V2000
   -1.5804    0.0263   -0.0053 Br  0  0  0  0  0  0  0  0  0  0  0  0
    0.3104    0.0077   -0.0028 C   0  0  0  0  0  0  0  0  0  0  0  0
    0.9792   -1.2162    0.0153 C   0  0  0  0  0  0  0  0  0  0  0  0
    1.0178    1.2047   -0.0114 C   0  0  0  0  0  0  0  0  0  0  0  0
    2.4120    1.1770   -0.0021 C   0  0  0  0  0  0  0  0  0  0  0  0
    3.0920   -0.0483    0.0149 C   0  0  0  0  0  0  0  0  0  0  0  0
    2.3813   -1.2613    0.0164 C   0  0  0  0  0  0  0  0  0  0  0  0
    3.1315   -2.5675    0.0462 C   0  0  0  0  0  0  0  0  0  0  0  0
    4.3593   -2.5359    0.1412 O   0  0  0  0  0  0  0  0  0  0  0  0
    2.3857   -3.7965   -0.0760 C   0  0  0  0  0  0  0  0  0  0  0  0
    2.4649   -4.7827    0.8828 O   0  0  0  0  0  0  0  0  0  0  0  0
    1.5921   -5.7387    0.4430 C   0  0  0  0  0  0  0  0  0  0  0  0
    1.4242   -6.8196    1.1961 N   0  0  0  0  0  0  0  0  0  0  0  0
    0.9920   -5.4598   -0.6876 N   0  0  0  0  0  0  0  0  0  0  0  0
    1.5031   -4.2416   -1.0353 C   0  0  0  0  0  0  0  0  0  0  0  0
  1  2  1  0
  2  3  2  0
  2  4  1  0
  3  7  1  0
  4  5  2  0
  5  6  1  0
  6  7  2  0
  7  8  1  0
  8  9  2  0
  8 10  1  0
 10 11  1  0
 10 15  2  0
 11 12  1  0
 12 13  1  0
 12 14  2  0
 14 15  1  0
M  END
>  <DRUGBANK_ID>  (1) 
DB08314

>  <COMMON_NAME>  (1) 
(2-AMINO-1,3-OXAZOL-5-YL)-(3-BROMOPHENYL)METHANONE

$$$$
