C96
     RDKit          3D

 24 26  0  0  0  0  0  0  0  0999 V2000
    1.1614    0.0486   -0.0376 O   0  0  0  0  0  0  0  0  0  0  0  0
    2.6022   -0.0924   -0.0852 S   0  0  0  0  0  0  0  0  0  0  0  0
    3.2524   -1.1110   -0.8680 O   0  0  0  0  0  0  0  0  0  0  0  0
    3.2077    1.3691   -0.6747 N   0  0  0  0  0  0  0  0  0  0  0  0
    3.1900   -0.1932    1.5875 C   0  0  0  0  0  0  0  0  0  0  0  0
    3.3387   -1.4529    2.1808 C   0  0  0  0  0  0  0  0  0  0  0  0
    3.6626   -1.5526    3.5451 C   0  0  0  0  0  0  0  0  0  0  0  0
    3.9366   -0.4066    4.3028 C   0  0  0  0  0  0  0  0  0  0  0  0
    3.8077    0.8480    3.6795 C   0  0  0  0  0  0  0  0  0  0  0  0
    3.4392    0.9604    2.3296 C   0  0  0  0  0  0  0  0  0  0  0  0
    4.2748   -0.4871    5.7230 C   0  0  0  0  0  0  0  0  0  0  0  0
    5.3791   -1.2044    6.0855 O   0  0  0  0  0  0  0  0  0  0  0  0
    3.7114    0.0685    6.8436 C   0  0  0  0  0  0  0  0  0  0  0  0
    4.5160   -0.3273    7.9368 C   0  0  0  0  0  0  0  0  0  0  0  0
    5.5585   -1.1266    7.4677 C   0  0  0  0  0  0  0  0  0  0  0  0
    6.6401   -1.7239    8.2557 C   0  0  0  0  0  0  0  0  0  0  0  0
    7.6097   -2.4492    7.6476 C   0  0  0  0  0  0  0  0  0  0  0  0
    7.7221   -2.8561    5.9588 S   0  0  0  0  0  0  0  0  0  0  0  0
    9.4269   -3.0398    6.0587 C   0  0  0  0  0  0  0  0  0  0  0  0
   10.1536   -3.3144    5.0448 N   0  0  0  0  0  0  0  0  0  0  0  0
    9.8827   -2.8779    7.3126 N   0  0  0  0  0  0  0  0  0  0  0  0
    8.9026   -2.9192    8.2662 C   0  0  0  0  0  0  0  0  0  0  0  0
    6.6966   -1.4609    9.7617 C   0  0  0  0  0  0  0  0  0  0  0  0
    9.0516   -3.3789    9.3874 O   0  0  0  0  0  0  0  0  0  0  0  0
  2  1  2  0
  2  4  1  0
  2  5  1  0
  3  2  2  0
  5 10  2  0
  5  6  1  0
  7  6  2  0
  8  7  1  0
  8 11  1  0
  9  8  2  0
 10  9  1  0
 11 12  1  0
 11 13  2  0
 12 15  1  0
 13 14  1  0
 14 15  2  0
 15 16  1  0
 16 17  2  0
 16 23  1  0
 17 18  1  0
 17 22  1  0
 18 19  1  0
 19 20  2  0
 19 21  1  0
 21 22  1  0
 22 24  2  0
M  END
>  <DRUGBANK_ID>  (1) 
DB07540

>  <COMMON_NAME>  (1) 
4-{5-[(1Z)-1-(2-IMINO-4-OXO-1,3-THIAZOLIDIN-5-YLIDENE)ETHYL]-2-FURYL}BENZENESULFONAMIDE

$$$$
