5BN
     RDKit          3D

 23 26  0  0  0  0  0  0  0  0999 V2000
    0.9214   -0.0839    0.0761 N   0  0  0  0  0  0  0  0  0  0  0  0
    0.4515    1.2814   -0.1852 C   0  0  0  0  0  0  0  0  0  0  0  0
    0.9411    1.8396   -1.5356 C   0  0  0  0  0  0  0  0  0  0  0  0
    0.4623    1.0221   -2.6429 N   0  0  0  0  0  0  0  0  0  0  0  0
   -0.3189    1.5393   -3.6629 C   0  0  0  0  0  0  0  0  0  0  0  0
   -0.0165    2.7967   -4.2190 C   0  0  0  0  0  0  0  0  0  0  0  0
   -0.7373    3.3866   -5.2830 C   0  0  0  0  0  0  0  0  0  0  0  0
   -0.2360    4.6112   -5.8768 C   0  0  0  0  0  0  0  0  0  0  0  0
    1.0173    4.8399   -6.4202 C   0  0  0  0  0  0  0  0  0  0  0  0
    1.1205    6.2112   -6.7363 C   0  0  0  0  0  0  0  0  0  0  0  0
   -0.0693    6.7982   -6.3741 C   0  0  0  0  0  0  0  0  0  0  0  0
   -0.8913    5.8217   -5.8642 N   0  0  0  0  0  0  0  0  0  0  0  0
   -1.8274    2.6708   -5.7765 C   0  0  0  0  0  0  0  0  0  0  0  0
   -2.7685    2.9191   -6.8534 C   0  0  0  0  0  0  0  0  0  0  0  0
   -2.9165    3.8418   -7.6481 O   0  0  0  0  0  0  0  0  0  0  0  0
   -3.6047    1.7903   -6.8080 N   0  0  0  0  0  0  0  0  0  0  0  0
   -3.2342    0.9078   -5.8104 C   0  0  0  0  0  0  0  0  0  0  0  0
   -3.7767   -0.3040   -5.4163 C   0  0  0  0  0  0  0  0  0  0  0  0
   -3.1245   -0.9420   -4.3426 C   0  0  0  0  0  0  0  0  0  0  0  0
   -1.9870   -0.3813   -3.7318 C   0  0  0  0  0  0  0  0  0  0  0  0
   -1.4166   -1.0493   -2.7160 F   0  0  0  0  0  0  0  0  0  0  0  0
   -1.4493    0.8506   -4.1587 C   0  0  0  0  0  0  0  0  0  0  0  0
   -2.1316    1.4479   -5.1855 C   0  0  0  0  0  0  0  0  0  0  0  0
  1  2  1  0
  2  3  1  0
  3  4  1  0
  4  5  1  0
  5  6  2  0
  5 22  1  0
  6  7  1  0
  7  8  1  0
  7 13  2  0
  8  9  2  0
  8 12  1  0
  9 10  1  0
 10 11  2  0
 11 12  1  0
 13 14  1  0
 13 23  1  0
 14 15  2  0
 14 16  1  0
 16 17  1  0
 17 18  1  0
 17 23  2  0
 18 19  2  0
 19 20  1  0
 20 21  1  0
 20 22  2  0
 22 23  1  0
M  END
>  <DRUGBANK_ID>  (1) 
DB07163

>  <COMMON_NAME>  (1) 
5-[(2-AMINOETHYL)AMINO]-6-FLUORO-3-(1H-PYRROL-2-YL)BENZO[CD]INDOL-2(1H)-ONE

$$$$
