
     RDKit          3D

 36 41  0  0  0  0  0  0  0  0999 V2000
    0.5597    0.3788   -0.0764 C   0  0  0  0  0  0  0  0  0  0  0  0
    0.2470    0.9242    1.2112 N   0  0  0  0  0  0  0  0  0  0  0  0
   -0.3170    0.2539    2.3032 C   0  0  0  0  0  0  0  0  0  0  0  0
   -0.7002   -1.0633    2.5171 C   0  0  0  0  0  0  0  0  0  0  0  0
   -0.6640   -2.3100    1.6731 C   0  0  0  0  0  0  0  0  0  0  0  0
   -0.8460   -3.5155    2.4432 O   0  0  0  0  0  0  0  0  0  0  0  0
   -1.7633   -3.4642    3.4524 C   0  0  0  0  0  0  0  0  0  0  0  0
   -2.3679   -4.6675    3.8337 C   0  0  0  0  0  0  0  0  0  0  0  0
   -3.2557   -4.7066    4.9199 C   0  0  0  0  0  0  0  0  0  0  0  0
   -3.5481   -3.5417    5.6407 C   0  0  0  0  0  0  0  0  0  0  0  0
   -2.9502   -2.3446    5.2282 C   0  0  0  0  0  0  0  0  0  0  0  0
   -2.0359   -2.2995    4.1611 C   0  0  0  0  0  0  0  0  0  0  0  0
   -1.3565   -1.1155    3.7492 N   0  0  0  0  0  0  0  0  0  0  0  0
   -1.2356    0.1266    4.3902 C   0  0  0  0  0  0  0  0  0  0  0  0
   -1.7423    0.4696    5.7335 C   0  0  0  0  0  0  0  0  0  0  0  0
   -1.3753   -0.2636    6.8729 C   0  0  0  0  0  0  0  0  0  0  0  0
   -2.0252   -0.0473    8.0939 C   0  0  0  0  0  0  0  0  0  0  0  0
   -2.9223    1.0096    8.2291 C   0  0  0  0  0  0  0  0  0  0  0  0
   -3.1816    1.8374    7.1412 C   0  0  0  0  0  0  0  0  0  0  0  0
   -2.6534    1.5250    5.8871 C   0  0  0  0  0  0  0  0  0  0  0  0
   -0.5644    0.9588    3.4971 C   0  0  0  0  0  0  0  0  0  0  0  0
   -0.1532    2.3449    3.6647 C   0  0  0  0  0  0  0  0  0  0  0  0
   -0.3950    2.9972    4.6632 O   0  0  0  0  0  0  0  0  0  0  0  0
    0.5442    2.8576    2.5709 N   0  0  0  0  0  0  0  0  0  0  0  0
    1.0372    4.2141    2.6322 C   0  0  0  0  0  0  0  0  0  0  0  0
    0.7903    2.1994    1.3795 C   0  0  0  0  0  0  0  0  0  0  0  0
    1.4653    2.7325    0.4894 O   0  0  0  0  0  0  0  0  0  0  0  0
   -4.4926   -3.6361    6.8026 C   0  0  0  0  0  0  0  0  0  0  0  0
   -4.7320   -2.5074    7.5049 O   0  0  0  0  0  0  0  0  0  0  0  0
   -5.0230   -4.6916    7.1094 O   0  0  0  0  0  0  0  0  0  0  0  0
    0.5903   -2.5464    0.8466 C   0  0  0  0  0  0  0  0  0  0  0  0
    0.7748   -3.2755   -0.3171 C   0  0  0  0  0  0  0  0  0  0  0  0
    1.9905   -2.8356   -0.8977 C   0  0  0  0  0  0  0  0  0  0  0  0
    2.5459   -1.9425   -0.0141 C   0  0  0  0  0  0  0  0  0  0  0  0
    4.0295   -0.8606   -0.4337 Br  0  0  0  0  0  0  0  0  0  0  0  0
    1.7359   -1.8142    1.0890 O   0  0  0  0  0  0  0  0  0  0  0  0
  1  2  1  0
  2  3  1  0
  2 26  1  0
  3  4  2  0
  3 21  1  0
  4  5  1  0
  4 13  1  0
  5  6  1  0
  5 31  1  0
  6  7  1  0
  7  8  1  0
  7 12  2  0
  8  9  2  0
  9 10  1  0
 10 11  2  0
 10 28  1  0
 11 12  1  0
 12 13  1  0
 13 14  1  0
 14 15  1  0
 14 21  2  0
 15 16  2  0
 15 20  1  0
 16 17  1  0
 17 18  2  0
 18 19  1  0
 19 20  2  0
 21 22  1  0
 22 23  2  0
 22 24  1  0
 24 25  1  0
 24 26  1  0
 26 27  2  0
 28 29  1  0
 28 30  2  0
 31 32  2  0
 31 36  1  0
 32 33  1  0
 33 34  2  0
 34 35  1  0
 34 36  1  0
M  END
>  <DRUGBANK_ID>  (1) 
DB18004

>  <COMMON_NAME>  (1) 
VPO-227

>  <CAS_NUMBER>  (1) 
1314873-02-3

>  <UNII>  (1) 
T5WV2JH7PN

>  <SYNONYMS>  (1) 
(+-)-9-(5-bromofuran-2-yl)-12,14-dimethyl-13,15-dioxo-17-phenyl-8-oxa-1,12,14-triazatetracyclo[8.7.0.02,7.011,16]heptadeca-2(7),3,5,10,16-pentaene-4-carboxylic acid

$$$$
