
     RDKit          3D

 22 24  0  0  0  0  0  0  0  0999 V2000
    1.3962   -0.2198    0.0188 C   0  0  0  0  0  0  0  0  0  0  0  0
    0.5348   -1.3135    0.0202 C   0  0  0  0  0  0  0  0  0  0  0  0
   -0.8425   -1.1139   -0.0381 C   0  0  0  0  0  0  0  0  0  0  0  0
   -1.3815    0.1784   -0.0989 C   0  0  0  0  0  0  0  0  0  0  0  0
   -0.5031    1.2724   -0.0119 C   0  0  0  0  0  0  0  0  0  0  0  0
    0.8795    1.0741    0.0017 C   0  0  0  0  0  0  0  0  0  0  0  0
   -2.8232    0.3555   -0.3098 C   0  0  0  0  0  0  0  0  0  0  0  0
   -3.7547   -0.2882    0.5151 C   0  0  0  0  0  0  0  0  0  0  0  0
   -5.1287   -0.0793    0.3490 C   0  0  0  0  0  0  0  0  0  0  0  0
   -5.5917    0.8530   -0.5972 C   0  0  0  0  0  0  0  0  0  0  0  0
   -4.6704    1.4576   -1.4620 C   0  0  0  0  0  0  0  0  0  0  0  0
   -3.3062    1.1783   -1.3409 C   0  0  0  0  0  0  0  0  0  0  0  0
   -7.0217    1.3335   -0.5406 C   0  0  0  0  0  0  0  0  0  0  0  0
   -7.2166    2.8463   -0.3748 C   0  0  0  0  0  0  0  0  0  0  0  0
   -7.7366    3.4918   -1.3053 O   0  0  0  0  0  0  0  0  0  0  0  0
   -6.9663    3.5048    0.8042 N   0  0  0  0  0  0  0  0  0  0  0  0
   -6.3332    3.0540    1.9674 C   0  0  0  0  0  0  0  0  0  0  0  0
   -5.1458    2.3672    1.8896 C   0  0  0  0  0  0  0  0  0  0  0  0
   -4.6102    1.7145    2.9931 C   0  0  0  0  0  0  0  0  0  0  0  0
   -5.1682    1.9520    4.2221 C   0  0  0  0  0  0  0  0  0  0  0  0
   -6.2275    2.8437    4.2612 C   0  0  0  0  0  0  0  0  0  0  0  0
   -6.8353    3.3878    3.1653 N   0  0  0  0  0  0  0  0  0  0  0  0
  1  2  2  0
  1  6  1  0
  2  3  1  0
  3  4  2  0
  4  5  1  0
  4  7  1  0
  5  6  2  0
  7  8  2  0
  7 12  1  0
  8  9  1  0
  9 10  2  0
 10 11  1  0
 10 13  1  0
 11 12  2  0
 13 14  1  0
 14 15  2  0
 14 16  1  0
 16 17  1  0
 17 18  2  0
 17 22  1  0
 18 19  1  0
 19 20  2  0
 20 21  1  0
 21 22  2  0
M  END
>  <DRUGBANK_ID>  (1) 
DB13371

>  <COMMON_NAME>  (1) 
Difenpiramide

>  <CAS_NUMBER>  (1) 
51484-40-3

>  <UNII>  (1) 
Q6U5F6E1QL

$$$$
