
     RDKit          3D

 16 15  0  0  0  0  0  0  0  0999 V2000
    0.8222   -0.0312   -0.0147 C   0  0  0  0  0  0  0  0  0  0  0  0
    0.3129    1.0545    0.8927 C   0  0  0  0  0  0  0  0  0  0  0  0
   -0.4974    1.9365    0.6567 O   0  0  0  0  0  0  0  0  0  0  0  0
    0.8468    1.0022    2.1255 O   0  0  0  0  0  0  0  0  0  0  0  0
    0.3271    0.1176   -1.7618 S   0  0  0  0  0  0  0  0  0  0  0  0
    1.0528    1.6580   -2.3952 C   0  0  0  0  0  0  0  0  0  0  0  0
    0.4844    3.2585   -1.7867 S   0  0  0  0  0  0  0  0  0  0  0  0
   -1.3328    3.0786   -1.7620 C   0  0  0  0  0  0  0  0  0  0  0  0
   -1.9115    3.1541   -3.1413 C   0  0  0  0  0  0  0  0  0  0  0  0
   -2.6308    2.3167   -3.6621 O   0  0  0  0  0  0  0  0  0  0  0  0
   -1.5754    4.2809   -3.8005 O   0  0  0  0  0  0  0  0  0  0  0  0
    2.8743    1.6266   -2.6124 S   0  0  0  0  0  0  0  0  0  0  0  0
    3.5599    1.6966   -0.9294 C   0  0  0  0  0  0  0  0  0  0  0  0
    3.1002    2.8437   -0.0726 C   0  0  0  0  0  0  0  0  0  0  0  0
    2.5219    2.7525    0.9994 O   0  0  0  0  0  0  0  0  0  0  0  0
    3.4165    4.0567   -0.5544 O   0  0  0  0  0  0  0  0  0  0  0  0
  1  2  1  0
  1  5  1  0
  2  3  2  0
  2  4  1  0
  5  6  1  0
  6  7  1  0
  6 12  1  0
  7  8  1  0
  8  9  1  0
  9 10  2  0
  9 11  1  0
 12 13  1  0
 13 14  1  0
 14 15  2  0
 14 16  1  0
M  END
>  <DRUGBANK_ID>  (1) 
DB13267

>  <COMMON_NAME>  (1) 
Ritiometan

>  <CAS_NUMBER>  (1) 
34914-39-1

>  <UNII>  (1) 
J89LM8QVEE

>  <SYNONYMS>  (1) 
Ritiometan

$$$$
