
     RDKit          3D

  1  0  0  0  0  0  0  0  0  0999 V2000
    1.0323   -0.0930    0.0172 Xe  0  0  0  0  0 15  0  0  0  0  0  0
M  END
>  <DRUGBANK_ID>  (1) 
DB13453

>  <COMMON_NAME>  (1) 
Xenon

>  <CAS_NUMBER>  (1) 
7440-63-3

>  <UNII>  (1) 
3H3U766W84

>  <SYNONYMS>  (1) 
Xenon; Xenon gas

$$$$
