FLX
     RDKit          3D

 31 33  0  0  0  0  0  0  0  0999 V2000
    0.7612   -0.0908    0.2522 N   0  0  0  0  0  0  0  0  0  0  0  0
    0.0699   -1.1596    0.7617 C   0  0  0  0  0  0  0  0  0  0  0  0
   -1.1701   -1.2321    0.6756 O   0  0  0  0  0  0  0  0  0  0  0  0
    0.8826   -2.1589    1.4058 C   0  0  0  0  0  0  0  0  0  0  0  0
    0.4981   -3.4675    1.3208 O   0  0  0  0  0  0  0  0  0  0  0  0
    2.0270   -2.0690    2.1847 C   0  0  0  0  0  0  0  0  0  0  0  0
    2.3113   -3.3816    2.6370 C   0  0  0  0  0  0  0  0  0  0  0  0
    1.3636   -4.1965    2.0664 C   0  0  0  0  0  0  0  0  0  0  0  0
    0.0660    0.9537   -0.5056 C   0  0  1  0  0  0  0  0  0  0  0  0
    0.0890    2.3206    0.2686 C   0  0  0  0  0  0  0  0  0  0  0  0
    1.2837    3.1262   -0.0628 C   0  0  0  0  0  0  0  0  0  0  0  0
    0.9298    3.5132   -1.7051 C   0  0  0  0  0  0  0  0  0  0  0  0
    1.8982    4.1917    0.9159 C   0  0  0  0  0  0  0  0  0  0  0  0
    0.5409    0.8511   -2.0085 C   0  0  0  0  0  0  0  0  0  0  0  0
   -0.2594    0.7450   -2.9426 O   0  0  0  0  0  0  0  0  0  0  0  0
    1.8680    1.0287   -2.3396 N   0  0  0  0  0  0  0  0  0  0  0  0
    2.9801    1.5378   -1.4751 C   0  0  1  0  0  0  0  0  0  0  0  0
    4.0978    0.4613   -1.7273 C   0  0  0  0  0  0  0  0  0  0  0  0
    4.7147    0.5408   -3.0742 C   0  0  0  0  0  0  0  0  0  0  0  0
    5.1108   -0.5921   -3.8360 C   0  0  0  0  0  0  0  0  0  0  0  0
    5.6198   -0.1175   -5.0411 C   0  0  0  0  0  0  0  0  0  0  0  0
    5.0586   -1.9801   -3.6106 C   0  0  0  0  0  0  0  0  0  0  0  0
    4.9921    1.6534   -3.8418 C   0  0  0  0  0  0  0  0  0  0  0  0
    5.5616    1.2469   -5.0097 N   0  0  0  0  0  0  0  0  0  0  0  0
    6.0776   -0.9571   -6.0490 C   0  0  0  0  0  0  0  0  0  0  0  0
    5.4934   -2.8385   -4.6196 C   0  0  0  0  0  0  0  0  0  0  0  0
    5.9912   -2.3304   -5.8183 C   0  0  0  0  0  0  0  0  0  0  0  0
    3.7691    3.1746   -1.6925 P   0  0  0  0  0  0  0  0  0  0  0  0
    2.8989    4.2444   -1.1381 O   0  0  0  0  0  0  0  0  0  0  0  0
    4.9720    2.8264   -0.6373 O   0  0  0  0  0  0  0  0  0  0  0  0
    4.5151    4.7219   -1.8980 O   0  0  0  0  0  0  0  0  0  0  0  0
  1  2  1  0
  2  3  2  0
  2  4  1  0
  4  5  1  0
  4  6  2  0
  5  8  1  0
  6  7  1  0
  7  8  2  0
  9  1  1  0
  9 10  1  1
  9 14  1  0
 10 11  1  0
 11 12  1  0
 11 13  1  0
 14 15  2  0
 14 16  1  0
 17 16  1  0
 17 18  1  6
 17 28  1  0
 18 19  1  0
 19 20  1  0
 19 23  2  0
 20 21  1  0
 20 22  2  0
 21 24  1  0
 21 25  2  0
 22 26  1  0
 23 24  1  0
 25 27  1  0
 26 27  2  0
 28 29  2  0
 28 30  1  0
 28 31  1  0
M  END
>  <DRUGBANK_ID>  (1) 
DB02046

>  <SECONDARY_ACCESSION_NUMBERS>  (1) 
EXPT01449

>  <COMMON_NAME>  (1) 
N-[(Furan-2-Yl)Carbonyl]-(S)-Leucyl-(R)-[1-Amino-2(1h-Indol-3-Yl)Ethyl]-Phosphonic Acid

$$$$
