
     RDKit          3D

 20 21  0  0  0  0  0  0  0  0999 V2000
    0.1035    0.8356   -0.8279 C   0  0  0  0  0  0  0  0  0  0  0  0
   -0.0825    2.2351   -0.5287 N   0  0  0  0  0  0  0  0  0  0  0  0
    1.3373    0.2430   -0.4525 C   0  0  0  0  0  0  0  0  0  0  0  0
    1.3729   -1.1543   -0.2342 C   0  0  0  0  0  0  0  0  0  0  0  0
    0.2303   -1.9457   -0.3619 C   0  0  0  0  0  0  0  0  0  0  0  0
   -0.9423   -1.3799   -0.8243 C   0  0  0  0  0  0  0  0  0  0  0  0
   -0.9794   -0.0225   -1.1595 C   0  0  0  0  0  0  0  0  0  0  0  0
    2.5715    1.0370   -0.0964 C   0  0  0  0  0  0  0  0  0  0  0  0
   -1.1169    3.0662   -0.1845 C   0  0  0  0  0  0  0  0  0  0  0  0
   -0.7086    4.2777   -0.2153 O   0  0  0  0  0  0  0  0  0  0  0  0
   -2.3133    0.5355   -1.4452 C   0  0  0  0  0  0  0  0  0  0  0  0
   -2.6960    2.8033    0.2016 C   0  0  1  0  0  0  0  0  0  0  0  0
   -3.0892    1.9232    1.4402 N   0  0  0  0  0  0  0  0  0  0  0  0
   -2.7015    2.6251    2.6419 C   0  0  0  0  0  0  0  0  0  0  0  0
   -3.3099    3.9859    2.7940 C   0  0  0  0  0  0  0  0  0  0  0  0
   -2.9251    4.8622    1.6185 C   0  0  0  0  0  0  0  0  0  0  0  0
   -3.3510    4.2037    0.3225 C   0  0  0  0  0  0  0  0  0  0  0  0
   -2.6694    0.4948    1.6877 C   0  0  0  0  0  0  0  0  0  0  0  0
   -1.1640    0.2858    1.8708 C   0  0  0  0  0  0  0  0  0  0  0  0
   -0.2425    0.7980    2.9474 C   0  0  0  0  0  0  0  0  0  0  0  0
  2  1  1  0
  3  1  2  0
  4  3  1  0
  5  4  2  0
  6  5  1  0
  7  1  1  0
  7  6  2  0
  8  3  1  0
  9  2  1  0
 10  9  2  0
 11  7  1  0
 12  9  1  1
 13 12  1  0
 14 13  1  0
 15 14  1  0
 16 15  1  0
 17 12  1  0
 17 16  1  0
 18 13  1  0
 19 18  1  0
 20 19  1  0
M  END
>  <DRUGBANK_ID>  (1) 
DB00296

>  <SECONDARY_ACCESSION_NUMBERS>  (1) 
APRD00492

>  <COMMON_NAME>  (1) 
Ropivacaine

>  <CAS_NUMBER>  (1) 
84057-95-4

>  <UNII>  (1) 
7IO5LYA57N

>  <SYNONYMS>  (1) 
(S)-(âˆ’)-1-propyl-2',6'-pipecoloxylidide; (S)-ropivacaine; L-N-n-propylpipecolic acid-2,6-xylidide; Ropivacaina; Ropivacaine; Ropivacainum

$$$$
