
     RDKit          3D

 23 26  0  0  1  0  0  0  0  0999 V2000
    3.0833    0.5083   -1.3617 C   0  0  0  0  0  0  0  0  0  0  0  0
   -1.7605    4.7692    0.4243 C   0  0  0  0  0  0  0  0  0  0  0  0
   -2.3072    4.1811   -0.8357 C   0  0  0  0  0  0  0  0  0  0  0  0
   -2.1241   -0.2013    0.0161 C   0  0  0  0  0  0  0  0  0  0  0  0
    1.6336   -2.0788    0.1396 C   0  0  0  0  0  0  0  0  0  0  0  0
    2.4371    1.4450    0.8990 C   0  0  0  0  0  0  0  0  0  0  0  0
    2.7351    0.1850    0.0974 C   0  0  1  0  0  0  0  0  0  0  0  0
   -0.8738   -0.8266    0.0895 C   0  0  0  0  0  0  0  0  0  0  0  0
    0.5829   -2.9138    0.1003 C   0  0  0  0  0  0  0  0  0  0  0  0
   -2.2226    1.1981    0.0310 C   0  0  0  0  0  0  0  0  0  0  0  0
   -1.0945    2.0375    0.1321 C   0  0  0  0  0  0  0  0  0  0  0  0
    0.2928   -0.0714    0.1986 C   0  0  0  0  0  0  0  0  0  0  0  0
   -0.7744   -2.3053    0.0327 C   0  0  0  0  0  0  0  0  0  0  0  0
    0.1521    1.3287    0.2865 C   0  0  0  0  0  0  0  0  0  0  0  0
    0.8712   -4.3581    0.1389 C   0  0  0  0  0  0  0  0  0  0  0  0
   -1.0746    3.5701   -0.1917 C   0  0  0  0  0  0  0  0  0  0  0  0
   -3.4536    1.7076   -0.1232 F   0  0  0  0  0  0  0  0  0  0  0  0
    0.2512    4.0208   -0.6905 N   0  0  0  0  0  0  0  0  0  0  0  0
    1.5590   -0.7016    0.1695 N   0  0  0  0  0  0  0  0  0  0  0  0
   -1.8077   -2.9594   -0.0626 O   0  0  0  0  0  0  0  0  0  0  0  0
    1.9721   -4.8586    0.2073 O   0  0  0  0  0  0  0  0  0  0  0  0
   -0.2367   -5.1154    0.1116 O   0  0  0  0  0  0  0  0  0  0  0  0
    1.2888    2.1145    0.3948 O   0  0  0  0  0  0  0  0  0  0  0  0
  3  2  1  0
  7  1  1  6
  7  6  1  0
  8  4  2  0
  9  5  2  0
 10  4  1  0
 11 10  2  0
 12  8  1  0
 13  8  1  0
 13  9  1  0
 14 11  1  0
 14 12  2  0
 15  9  1  0
 16  2  1  0
 16  3  1  0
 16 11  1  0
 17 10  1  0
 18 16  1  0
 19  5  1  0
 19  7  1  0
 19 12  1  0
 20 13  2  0
 21 15  2  0
 22 15  1  0
 23  6  1  0
 23 14  1  0
M  END
>  <DRUGBANK_ID>  (1) 
DB11774

>  <COMMON_NAME>  (1) 
Pazufloxacin

>  <CAS_NUMBER>  (1) 
127045-41-4

>  <UNII>  (1) 
4CZ1R38NDI

>  <SYNONYMS>  (1) 
Pazufloxacin

$$$$
