
     RDKit          3D

 34 37  0  0  0  0  0  0  0  0999 V2000
    2.2170    0.1039   -0.1695 F   0  0  0  0  0  0  0  0  0  0  0  0
   -5.6674   -2.3916    4.8913 F   0  0  0  0  0  0  0  0  0  0  0  0
   -3.4403    0.0460   -4.9498 O   0  0  0  0  0  0  0  0  0  0  0  0
   -6.2308    0.0410   -4.2965 O   0  0  0  0  0  0  0  0  0  0  0  0
   -7.4722   -2.2205   -3.6079 O   0  0  0  0  0  0  0  0  0  0  0  0
   -3.7450   -0.6600   -0.7936 N   0  0  0  0  0  0  0  0  0  0  0  0
   -1.5065   -1.6571   -2.5547 N   0  0  0  0  0  0  0  0  0  0  0  0
   -3.3523   -0.0027    0.4529 C   0  0  0  0  0  0  0  0  0  0  0  0
   -4.0210   -1.1331   -4.5658 C   0  0  0  0  0  0  0  0  0  0  0  0
   -3.3188   -2.2949   -4.2023 C   0  0  0  0  0  0  0  0  0  0  0  0
   -1.8161    0.1369    0.7542 C   0  0  0  0  0  0  0  0  0  0  0  0
   -4.1227   -0.5976    1.5852 C   0  0  0  0  0  0  0  0  0  0  0  0
   -5.4423   -1.1024   -4.3219 C   0  0  0  0  0  0  0  0  0  0  0  0
   -6.1328   -2.2948   -3.9454 C   0  0  0  0  0  0  0  0  0  0  0  0
   -1.8569   -2.3001   -3.8288 C   0  0  0  0  0  0  0  0  0  0  0  0
   -3.4745   -2.1040   -0.9869 C   0  0  0  0  0  0  0  0  0  0  0  0
   -3.2707    0.1027   -1.9219 C   0  0  0  0  0  0  0  0  0  0  0  0
   -4.0352   -3.4847   -3.9462 C   0  0  0  0  0  0  0  0  0  0  0  0
   -2.0609   -2.4349   -1.4557 C   0  0  0  0  0  0  0  0  0  0  0  0
   -1.8115   -0.2363   -2.2521 C   0  0  0  0  0  0  0  0  0  0  0  0
   -5.4230   -3.4921   -3.8625 C   0  0  0  0  0  0  0  0  0  0  0  0
   -1.1420    1.3473    0.4742 C   0  0  0  0  0  0  0  0  0  0  0  0
   -3.7503   -0.1527    2.8533 C   0  0  0  0  0  0  0  0  0  0  0  0
   -1.0290   -0.9994    1.0365 C   0  0  0  0  0  0  0  0  0  0  0  0
   -5.1326   -1.5804    1.4492 C   0  0  0  0  0  0  0  0  0  0  0  0
    0.2477    1.3457    0.2575 C   0  0  0  0  0  0  0  0  0  0  0  0
   -4.2646   -0.7595    3.9498 C   0  0  0  0  0  0  0  0  0  0  0  0
    0.3117   -1.0345    0.6134 C   0  0  0  0  0  0  0  0  0  0  0  0
   -5.6105   -2.2293    2.5498 C   0  0  0  0  0  0  0  0  0  0  0  0
    0.9452    0.1411    0.2518 C   0  0  0  0  0  0  0  0  0  0  0  0
   -5.1814   -1.8076    3.8120 C   0  0  0  0  0  0  0  0  0  0  0  0
   -2.0834    0.4512   -4.9237 C   0  0  0  0  0  0  0  0  0  0  0  0
   -5.6471    1.3384   -4.3991 C   0  0  0  0  0  0  0  0  0  0  0  0
   -8.1330   -3.4579   -3.3158 C   0  0  0  0  0  0  0  0  0  0  0  0
  1 30  1  0
  2 31  1  0
  3  9  1  0
  3 32  1  0
  4 13  1  0
  4 33  1  0
  5 14  1  0
  5 34  1  0
  6  8  1  0
  6 16  1  0
  6 17  1  0
  7 15  1  0
  7 19  1  0
  7 20  1  0
  8 11  1  0
  8 12  1  0
  9 10  2  0
  9 13  1  0
 10 15  1  0
 10 18  1  0
 11 22  2  0
 11 24  1  0
 12 23  2  0
 12 25  1  0
 13 14  2  0
 14 21  1  0
 16 19  1  0
 17 20  1  0
 18 21  2  0
 22 26  1  0
 23 27  1  0
 24 28  2  0
 25 29  2  0
 26 30  2  0
 27 31  2  0
 28 30  1  0
 29 31  1  0
M  END
>  <DRUGBANK_ID>  (1) 
DB14065

>  <COMMON_NAME>  (1) 
Lomerizine

>  <CAS_NUMBER>  (1) 
101477-55-8

>  <UNII>  (1) 
DEE37CY4VO

>  <SYNONYMS>  (1) 
Lomerazine; Lomerizine

$$$$
