
     RDKit          3D

  7  6  0  0  1  0  0  0  0  0999 V2000
    1.0509   -0.0386   -0.1316 N   0  0  0  0  0  0  0  0  0  0  0  0
    0.5564   -1.4018   -0.3860 C   0  0  1  0  0  0  0  0  0  0  0  0
    1.0415   -2.3931    0.6969 C   0  0  0  0  0  0  0  0  0  0  0  0
    0.5978   -1.9639    2.0602 N   0  0  0  0  0  0  0  0  0  0  0  0
   -0.9706   -1.4159   -0.3467 C   0  0  0  0  0  0  0  0  0  0  0  0
   -1.6031   -1.8098   -1.4603 O   0  0  0  0  0  0  0  0  0  0  0  0
   -1.5656   -1.1733    0.7052 O   0  0  0  0  0  0  0  0  0  0  0  0
  2  1  1  1
  2  3  1  0
  2  5  1  0
  3  4  1  0
  5  6  1  0
  5  7  2  0
M  CHG  1   4   1
M  END
>  <DRUGBANK_ID>  (1) 
DB03320

>  <SECONDARY_ACCESSION_NUMBERS>  (1) 
EXPT01238

>  <COMMON_NAME>  (1) 
3-Amino-Alanine

$$$$
