
     RDKit          3D

 34 36  0  0  0  0  0  0  0  0999 V2000
    1.3296    3.7119    1.0176 C   0  0  0  0  0  0  0  0  0  0  0  0
   -1.5783    2.3514    1.1816 C   0  0  0  0  0  0  0  0  0  0  0  0
    3.2682    1.5504    1.5070 C   0  0  0  0  0  0  0  0  0  0  0  0
    0.7892    2.3167    0.6775 C   0  0  2  0  0  0  0  0  0  0  0  0
   -1.5463    0.8856   -0.0380 C   0  0  1  0  0  0  0  0  0  0  0  0
    3.3052    1.5608   -0.2921 C   0  0  1  0  0  0  0  0  0  0  0  0
    0.2378    2.5463   -0.7074 C   0  0  2  0  0  0  0  0  0  0  0  0
    0.5813    0.9397   -1.6813 C   0  0  1  0  0  0  0  0  0  0  0  0
   -0.9951   -0.6430   -2.7829 C   0  0  2  0  0  0  0  0  0  0  0  0
    3.0746   -0.0865   -2.2605 C   0  0  2  0  0  0  0  0  0  0  0  0
   -1.1250   -2.1217   -1.9153 C   0  0  2  0  0  0  0  0  0  0  0  0
    0.6007   -0.3628   -0.8678 C   0  0  2  0  0  0  0  0  0  0  0  0
    2.8215    1.2010   -3.3178 C   0  0  2  0  0  0  0  0  0  0  0  0
   -1.2716    1.1812   -1.9897 C   0  0  2  0  0  0  0  0  0  0  0  0
    3.2996    0.0891   -0.6569 C   0  0  2  0  0  0  0  0  0  0  0  0
   -0.7664   -2.1620   -0.1754 C   0  0  1  0  0  0  0  0  0  0  0  0
    1.0745   -0.2715    0.7229 C   0  0  2  0  0  0  0  0  0  0  0  0
    1.9853    2.5038   -2.6756 C   0  0  2  0  0  0  0  0  0  0  0  0
    2.7070    4.0051    0.6995 O   0  0  0  0  0  0  0  0  0  0  0  0
   -1.0438    2.3351    2.5446 O   0  0  0  0  0  0  0  0  0  0  0  0
    2.9015    2.5302    2.4716 O   0  0  0  0  0  0  0  0  0  0  0  0
    0.7520    3.8220   -1.2489 O   0  0  0  0  0  0  0  0  0  0  0  0
    0.1895    0.9117   -3.4874 O   0  0  0  0  0  0  0  0  0  0  0  0
   -1.2757   -0.8832   -4.1848 O   0  0  0  0  0  0  0  0  0  0  0  0
    3.1049   -1.3943   -2.8211 O   0  0  0  0  0  0  0  0  0  0  0  0
   -0.4123   -3.1668   -2.6789 O   0  0  0  0  0  0  0  0  0  0  0  0
    1.0984   -1.6153   -1.4898 O   0  0  0  0  0  0  0  0  0  0  0  0
    2.1599    0.9396   -4.5434 O   0  0  0  0  0  0  0  0  0  0  0  0
    0.7348   -2.6576    0.2873 O   0  0  0  0  0  0  0  0  0  0  0  0
   -1.5285   -0.7684    0.5634 O   0  0  0  0  0  0  0  0  0  0  0  0
    0.7534    1.0736    1.5240 O   0  0  0  0  0  0  0  0  0  0  0  0
    3.0881    2.6945   -1.3270 O   0  0  0  0  0  0  0  0  0  0  0  0
   -0.0252    2.4825   -2.6541 O   0  0  0  0  0  0  0  0  0  0  0  0
    2.4876   -0.6425    0.4216 O   0  0  0  0  0  0  0  0  0  0  0  0
  4  1  1  1
  5  2  1  6
  6  3  1  6
  7  4  1  0
  7 22  1  6
  8  7  1  0
  8 23  1  6
  9 24  1  6
 10 25  1  6
 11  9  1  0
 11 26  1  6
 12  8  1  0
 12 27  1  6
 13 10  1  0
 13 28  1  6
 14  5  1  0
 14  9  1  0
 14 33  1  1
 15  6  1  0
 15 10  1  0
 15 34  1  1
 16 11  1  0
 16 29  1  6
 17 12  1  0
 17 34  1  6
 18 13  1  0
 18 33  1  1
 19  1  1  0
 20  2  1  0
 21  3  1  0
 30  5  1  0
 30 16  1  0
 31  4  1  0
 31 17  1  0
 32  6  1  0
 32 18  1  0
M  END
>  <DRUGBANK_ID>  (1) 
DB03277

>  <SECONDARY_ACCESSION_NUMBERS>  (1) 
EXPT02187

>  <COMMON_NAME>  (1) 
alpha-maltotriose

>  <SYNONYMS>  (1) 
Î±-maltotriose

$$$$
