1090
     RDKit          3D

 17 18  0  0  0  0  0  0  0  0999 V2000
    1.2060    0.0383   -0.1655 N   0  0  0  0  0  0  0  0  0  0  0  0
    7.0281   -1.2018   -0.7989 N   0  0  0  0  0  0  0  0  0  0  0  0
    0.3214   -1.1713    0.1642 C   0  0  0  0  0  0  0  0  0  0  0  0
    0.3123    1.2482    0.1840 C   0  0  0  0  0  0  0  0  0  0  0  0
    7.1290   -1.8908   -2.1840 C   0  0  0  0  0  0  0  0  0  0  0  0
    7.0260   -2.3971    0.2032 C   0  0  0  0  0  0  0  0  0  0  0  0
    2.4635    0.0005    0.6958 C   0  0  0  0  0  0  0  0  0  0  0  0
    5.9149   -0.1623   -0.6044 C   0  0  0  0  0  0  0  0  0  0  0  0
   -1.0492   -0.7400   -0.2820 C   0  0  0  0  0  0  0  0  0  0  0  0
   -1.1190    0.7339    0.0750 C   0  0  0  0  0  0  0  0  0  0  0  0
    6.5600   -3.2948   -2.0244 C   0  0  0  0  0  0  0  0  0  0  0  0
    6.8891   -3.6888   -0.6039 C   0  0  0  0  0  0  0  0  0  0  0  0
    3.2834   -1.2885    0.5277 C   0  0  0  0  0  0  0  0  0  0  0  0
    4.6596   -0.3836   -1.4036 C   0  0  0  0  0  0  0  0  0  0  0  0
    3.9055   -1.5701   -0.8384 C   0  0  0  0  0  0  0  0  0  0  0  0
    1.4805    0.1505   -1.6635 C   0  0  0  0  0  0  0  0  0  0  0  0
    8.2622   -0.3222   -0.5291 C   0  0  0  0  0  0  0  0  0  0  0  0
  1  3  1  0
  1  4  1  0
  1  7  1  0
  1 16  1  0
  2  5  1  0
  2  6  1  0
  2  8  1  0
  2 17  1  0
  3  9  1  0
  4 10  1  0
  5 11  1  0
  6 12  1  0
  7 13  1  0
  8 14  1  0
  9 10  1  0
 11 12  1  0
 13 15  1  0
 14 15  1  0
M  CHG  2   1   1   2   1
M  END
>  <DRUGBANK_ID>  (1) 
DB01090

>  <SECONDARY_ACCESSION_NUMBERS>  (1) 
APRD00038

>  <COMMON_NAME>  (1) 
Pentolinium

>  <CAS_NUMBER>  (1) 
144-44-5

>  <UNII>  (1) 
ULL76WPU5X

>  <SYNONYMS>  (1) 
Pentolineum; Pentolonium; Pentolonum

$$$$
