LIB
     RDKit          3D

 32 34  0  0  0  0  0  0  0  0999 V2000
    1.0307   -0.0757    0.0289 N   0  0  0  0  0  0  0  0  0  0  0  0
   -1.2327    3.5208   -0.0645 C   0  0  0  0  0  0  0  0  0  0  0  0
   -0.5964    1.4570    1.0574 C   0  0  0  0  0  0  0  0  0  0  0  0
    0.4586    2.0729   -1.0181 C   0  0  0  0  0  0  0  0  0  0  0  0
   -0.2973    3.2473   -1.0601 C   0  0  0  0  0  0  0  0  0  0  0  0
   -1.3974    2.6056    0.9802 C   0  0  0  0  0  0  0  0  0  0  0  0
   -1.7620   -2.5591    0.0796 C   0  0  0  0  0  0  0  0  0  0  0  0
   -3.3718   -4.8845    0.1869 C   0  0  0  0  0  0  0  0  0  0  0  0
   -1.4307   -3.6340    0.9328 C   0  0  0  0  0  0  0  0  0  0  0  0
   -3.7345   -3.8198   -0.6332 C   0  0  0  0  0  0  0  0  0  0  0  0
   -0.1751   -3.5660    2.1289 Cl  0  0  0  0  0  0  0  0  0  0  0  0
   -2.2234   -4.7884    0.9661 C   0  0  0  0  0  0  0  0  0  0  0  0
   -2.9244   -2.6732   -0.7069 C   0  0  0  0  0  0  0  0  0  0  0  0
   -1.0136   -1.3403    0.0335 N   0  0  0  0  0  0  0  0  0  0  0  0
    0.3829   -1.3353   -0.0543 C   0  0  0  0  0  0  0  0  0  0  0  0
    0.9736   -2.4045   -0.2640 O   0  0  0  0  0  0  0  0  0  0  0  0
    0.3150    1.1608    0.0384 C   0  0  0  0  0  0  0  0  0  0  0  0
   -2.0155    4.6435   -0.0149 O   0  0  0  0  0  0  0  0  0  0  0  0
   -1.7486    5.6364   -1.0056 C   0  0  0  0  0  0  0  0  0  0  0  0
    2.4895   -0.0212    0.0247 C   0  0  0  0  0  0  0  0  0  0  0  0
    3.1931    1.1661    0.0762 C   0  0  0  0  0  0  0  0  0  0  0  0
    4.5672    1.0816    0.0630 C   0  0  0  0  0  0  0  0  0  0  0  0
    5.2482   -0.0744    0.0474 N   0  0  0  0  0  0  0  0  0  0  0  0
    4.5182   -1.1897    0.0265 C   0  0  0  0  0  0  0  0  0  0  0  0
    3.1805   -1.1775    0.0170 N   0  0  0  0  0  0  0  0  0  0  0  0
    5.1942   -2.3796   -0.0062 N   0  0  0  0  0  0  0  0  0  0  0  0
    4.5137   -3.6704    0.0366 C   0  0  1  0  0  0  0  0  0  0  0  0
    4.9296   -4.4468   -1.2176 C   0  0  0  0  0  0  0  0  0  0  0  0
    4.8591   -4.4633    1.3390 C   0  0  0  0  0  0  0  0  0  0  0  0
    4.4685   -3.6694    2.5893 C   0  0  0  0  0  0  0  0  0  0  0  0
    4.1215   -5.8132    1.3640 C   0  0  0  0  0  0  0  0  0  0  0  0
    6.2728   -4.7264    1.3927 O   0  0  0  0  0  0  0  0  0  0  0  0
  1 15  1  0
  1 17  1  0
  1 20  1  0
  2  5  2  0
  2  6  1  0
  2 18  1  0
  3  6  2  0
  3 17  1  0
  4  5  1  0
  4 17  2  0
  7  9  1  0
  7 13  2  0
  7 14  1  0
  8 10  2  0
  8 12  1  0
  9 11  1  0
  9 12  2  0
 10 13  1  0
 14 15  1  0
 15 16  2  0
 18 19  1  0
 20 21  2  0
 20 25  1  0
 21 22  1  0
 22 23  2  0
 23 24  1  0
 24 25  2  0
 24 26  1  0
 26 27  1  0
 27 28  1  6
 27 29  1  0
 29 30  1  0
 29 31  1  0
 29 32  1  0
M  END
>  <DRUGBANK_ID>  (1) 
DB08095

>  <COMMON_NAME>  (1) 
3-(2-CHLOROPHENYL)-1-(2-{[(1S)-2-HYDROXY-1,2-DIMETHYLPROPYL]AMINO}PYRIMIDIN-4-YL)-1-(4-METHOXYPHENYL)UREA

$$$$
