
     RDKit          3D

 19 21  0  0  1  0  0  0  0  0999 V2000
    0.9641    0.0930   -0.0773 N   0  0  0  0  0  0  0  0  0  0  0  0
    0.3345    1.2685   -0.3457 C   0  0  0  0  0  0  0  0  0  0  0  0
   -0.8998    1.2974   -0.2936 O   0  0  0  0  0  0  0  0  0  0  0  0
    1.1314    2.3905   -0.6012 N   0  0  0  0  0  0  0  0  0  0  0  0
    1.0654    3.4489    0.3758 C   0  0  0  0  0  0  0  0  0  0  0  0
    1.0986    3.1150    1.7428 C   0  0  0  0  0  0  0  0  0  0  0  0
    1.1111    4.1033    2.7326 C   0  0  0  0  0  0  0  0  0  0  0  0
    1.0597    5.4450    2.3786 C   0  0  0  0  0  0  0  0  0  0  0  0
    0.9991    5.7938    1.0346 C   0  0  0  0  0  0  0  0  0  0  0  0
    0.9890    4.8047    0.0312 C   0  0  0  0  0  0  0  0  0  0  0  0
    0.8998    5.1726   -1.4162 C   0  0  2  0  0  0  0  0  0  0  0  0
    2.2797    5.0165   -2.0161 C   0  0  0  0  0  0  0  0  0  0  0  0
    2.7698    3.5930   -2.1632 C   0  0  0  0  0  0  0  0  0  0  0  0
    2.2128    2.4239   -1.5803 C   0  0  0  0  0  0  0  0  0  0  0  0
    2.7695    1.2052   -2.0214 C   0  0  0  0  0  0  0  0  0  0  0  0
    3.8890    1.1197   -2.8487 C   0  0  0  0  0  0  0  0  0  0  0  0
    4.4407    2.2655   -3.3742 C   0  0  0  0  0  0  0  0  0  0  0  0
    3.8710    3.4868   -3.0532 C   0  0  0  0  0  0  0  0  0  0  0  0
    0.4743    6.5256   -1.5854 O   0  0  0  0  0  0  0  0  0  0  0  0
  1  2  1  0
  2  3  2  0
  2  4  1  0
  4  5  1  0
  4 14  1  0
  5  6  2  0
  5 10  1  0
  6  7  1  0
  7  8  2  0
  8  9  1  0
  9 10  2  0
 10 11  1  0
 11 12  1  0
 11 19  1  1
 12 13  1  0
 13 14  2  0
 13 18  1  0
 14 15  1  0
 15 16  2  0
 16 17  1  0
 17 18  2  0
M  END
>  <DRUGBANK_ID>  (1) 
DB14575

>  <COMMON_NAME>  (1) 
Eslicarbazepine

>  <CAS_NUMBER>  (1) 
104746-04-5

>  <UNII>  (1) 
S5VXA428R4

>  <SYNONYMS>  (1) 
Eslicarbazepina; Eslicarbazepine; S(+)-Liscarbazepine

$$$$
