
     RDKit          3D

 36 38  0  0  0  0  0  0  0  0999 V2000
    0.7530    0.0077    0.0703 C   0  0  0  0  0  0  0  0  0  0  0  0
    0.5590   -1.1575   -0.7918 N   0  0  0  0  0  0  0  0  0  0  0  0
   -0.3681   -2.1896   -0.3558 C   0  0  0  0  0  0  0  0  0  0  0  0
    0.9185   -1.1272   -2.1413 C   0  0  0  0  0  0  0  0  0  0  0  0
    2.2480   -0.9174   -2.5376 C   0  0  0  0  0  0  0  0  0  0  0  0
    2.5337   -0.8253   -3.9187 C   0  0  0  0  0  0  0  0  0  0  0  0
    1.5612   -1.0868   -4.8096 N   0  0  0  0  0  0  0  0  0  0  0  0
    0.3288   -1.3516   -4.3532 C   0  0  0  0  0  0  0  0  0  0  0  0
   -0.0321   -1.3381   -3.0559 N   0  0  0  0  0  0  0  0  0  0  0  0
   -0.7252   -1.6881   -5.3743 C   0  0  0  0  0  0  0  0  0  0  0  0
   -1.3858   -3.0224   -5.1433 C   0  0  0  0  0  0  0  0  0  0  0  0
   -2.0750   -3.3263   -3.9553 C   0  0  0  0  0  0  0  0  0  0  0  0
   -2.7106   -4.5610   -3.7722 C   0  0  0  0  0  0  0  0  0  0  0  0
   -2.7781   -5.4432   -4.8408 C   0  0  0  0  0  0  0  0  0  0  0  0
   -2.3211   -4.9791   -6.0662 C   0  0  0  0  0  0  0  0  0  0  0  0
   -1.4461   -3.9195   -6.1846 C   0  0  0  0  0  0  0  0  0  0  0  0
   -3.2610   -6.7612   -4.6742 N   0  0  0  0  0  0  0  0  0  0  0  0
   -3.2226   -7.8536   -5.5412 C   0  0  0  0  0  0  0  0  0  0  0  0
   -3.7814   -8.9051   -5.2348 O   0  0  0  0  0  0  0  0  0  0  0  0
   -2.5045   -7.8056   -6.8483 C   0  0  0  0  0  0  0  0  0  0  0  0
   -1.1793   -7.3462   -6.9200 C   0  0  0  0  0  0  0  0  0  0  0  0
   -0.6354   -6.9702   -8.1530 C   0  0  0  0  0  0  0  0  0  0  0  0
   -1.3249   -7.2382   -9.3414 C   0  0  0  0  0  0  0  0  0  0  0  0
   -2.5759   -7.8758   -9.2690 C   0  0  0  0  0  0  0  0  0  0  0  0
   -3.1974   -8.0913   -8.0309 C   0  0  0  0  0  0  0  0  0  0  0  0
   -0.7440   -6.8369  -10.6761 C   0  0  0  0  0  0  0  0  0  0  0  0
   -0.4389   -7.9121  -11.4500 F   0  0  0  0  0  0  0  0  0  0  0  0
   -1.5982   -6.0709  -11.4110 F   0  0  0  0  0  0  0  0  0  0  0  0
    0.4036   -6.1087  -10.5716 F   0  0  0  0  0  0  0  0  0  0  0  0
    3.7390   -0.4051   -4.4617 N   0  0  0  0  0  0  0  0  0  0  0  0
    4.0414   -0.5735   -5.8769 C   0  0  0  0  0  0  0  0  0  0  0  0
    4.9189   -0.1437   -3.6805 C   0  0  0  0  0  0  0  0  0  0  0  0
    3.2711   -0.8117   -1.4395 C   0  0  0  0  0  0  0  0  0  0  0  0
    4.3517   -1.8422   -1.3693 C   0  0  0  0  0  0  0  0  0  0  0  0
    5.5143   -1.6160   -1.1190 O   0  0  0  0  0  0  0  0  0  0  0  0
    3.9076   -3.1045   -1.5228 O   0  0  0  0  0  0  0  0  0  0  0  0
  1  2  1  0
  2  3  1  0
  2  4  1  0
  4  5  2  0
  4  9  1  0
  5  6  1  0
  5 33  1  0
  6  7  2  0
  6 30  1  0
  7  8  1  0
  8  9  2  0
  8 10  1  0
 10 11  1  0
 11 12  2  0
 11 16  1  0
 12 13  1  0
 13 14  2  0
 14 15  1  0
 14 17  1  0
 15 16  2  0
 17 18  1  0
 18 19  2  0
 18 20  1  0
 20 21  2  0
 20 25  1  0
 21 22  1  0
 22 23  2  0
 23 24  1  0
 23 26  1  0
 24 25  2  0
 26 27  1  0
 26 28  1  0
 26 29  1  0
 30 31  1  0
 30 32  1  0
 33 34  1  0
 34 35  2  0
 34 36  1  0
M  END
>  <DRUGBANK_ID>  (1) 
DB12524

>  <COMMON_NAME>  (1) 
BI-671800

>  <CAS_NUMBER>  (1) 
1093108-50-9

>  <UNII>  (1) 
721F767LHB

$$$$
