
     RDKit          3D

 17 18  0  0  0  0  0  0  0  0999 V2000
    1.1015    0.0502   -0.1966 C   0  0  0  0  0  0  0  0  0  0  0  0
   -0.7079   -4.7293    5.0555 C   0  0  0  0  0  0  0  0  0  0  0  0
    0.8451   -7.6987    1.4577 C   0  0  0  0  0  0  0  0  0  0  0  0
    0.9314   -2.5001   -0.3332 C   0  0  0  0  0  0  0  0  0  0  0  0
   -0.0468   -1.9869    1.9781 C   0  0  0  0  0  0  0  0  0  0  0  0
    0.4906   -1.1495   -0.9136 C   0  0  0  0  0  0  0  0  0  0  0  0
    0.4398   -4.0673    1.5696 C   0  0  0  0  0  0  0  0  0  0  0  0
   -0.0252   -3.8987    2.8418 C   0  0  0  0  0  0  0  0  0  0  0  0
    0.7594   -5.3384    1.0359 C   0  0  0  0  0  0  0  0  0  0  0  0
    0.0833   -6.2362    3.2678 C   0  0  0  0  0  0  0  0  0  0  0  0
   -0.3050   -2.6062    3.1080 N   0  0  0  0  0  0  0  0  0  0  0  0
   -0.2075   -4.9473    3.7067 N   0  0  0  0  0  0  0  0  0  0  0  0
    0.5457   -6.3743    1.9455 N   0  0  0  0  0  0  0  0  0  0  0  0
    0.4784   -2.8143    1.0178 N   0  0  0  0  0  0  0  0  0  0  0  0
   -0.9309   -1.0506   -0.9828 O   0  0  0  0  0  0  0  0  0  0  0  0
    1.1751   -5.5042   -0.1113 O   0  0  0  0  0  0  0  0  0  0  0  0
   -0.0591   -7.2138    4.0064 O   0  0  0  0  0  0  0  0  0  0  0  0
  6  1  1  0
  6  4  1  0
  8  7  2  0
  9  7  1  0
 11  5  2  0
 11  8  1  0
 12  2  1  0
 12  8  1  0
 12 10  1  0
 13  3  1  0
 13  9  1  0
 13 10  1  0
 14  4  1  0
 14  5  1  0
 14  7  1  0
 15  6  1  0
 16  9  2  0
 17 10  2  0
M  END
>  <DRUGBANK_ID>  (1) 
DB13449

>  <COMMON_NAME>  (1) 
Proxyphylline

>  <CAS_NUMBER>  (1) 
603-00-9

>  <UNII>  (1) 
13G1DMN4P0

>  <SYNONYMS>  (1) 
Proxyphylline

$$$$
