
     RDKit          3D

 18 18  0  0  0  0  0  0  0  0999 V2000
    0.1141    0.0479    3.1295 P   0  0  2  0  0  0  0  0  0  0  0  0
   -1.0169    1.1983    1.2249 O   0  0  0  0  0  0  0  0  0  0  0  0
   -2.6498    2.5757    0.6773 O   0  0  0  0  0  0  0  0  0  0  0  0
    0.9349    1.5223    3.2640 O   0  0  0  0  0  0  0  0  0  0  0  0
    1.2253   -0.9676    3.8191 O   0  0  0  0  0  0  0  0  0  0  0  0
    0.6690   -0.1370    1.6959 O   0  0  0  0  0  0  0  0  0  0  0  0
   -0.3018    2.4231    1.1643 C   0  0  1  0  0  0  0  0  0  0  0  0
   -2.1885    1.2499    0.4786 C   0  0  0  0  0  0  0  0  0  0  0  0
   -1.4413    3.3790    0.8224 C   0  0  0  0  0  0  0  0  0  0  0  0
    0.5053    2.6840    2.4747 C   0  0  0  0  0  0  0  0  0  0  0  0
   -1.9246    0.9455   -0.9934 C   0  0  0  0  0  0  0  0  0  0  0  0
   -3.0894    0.1659    1.0693 C   0  0  0  0  0  0  0  0  0  0  0  0
   -0.5417    0.2664    4.8239 C   0  0  0  0  0  0  0  0  0  0  0  0
   -0.6000    1.6760    5.3728 C   0  0  0  0  0  0  0  0  0  0  0  0
   -1.5626    2.4551    4.4992 C   0  0  0  0  0  0  0  0  0  0  0  0
   -3.0103    2.0936    4.4886 C   0  0  0  0  0  0  0  0  0  0  0  0
   -3.5372    2.3253    5.8446 C   0  0  0  0  0  0  0  0  0  0  0  0
   -4.4627    3.2361    6.0551 C   0  0  0  0  0  0  0  0  0  0  0  0
  1  4  1  0
  1  5  1  0
  1  6  2  0
  1 13  1  0
  2  7  1  0
  2  8  1  0
  3  8  1  0
  3  9  1  0
  4 10  1  0
  7  9  1  0
  7 10  1  1
  8 11  1  0
  8 12  1  0
 13 14  1  0
 14 15  1  0
 15 16  1  0
 16 17  1  0
 17 18  2  0
M  END
>  <DRUGBANK_ID>  (1) 
DB08475

>  <COMMON_NAME>  (1) 
[(4R)-2,2-dimethyl-1,3-dioxolan-4-yl]methyl hydrogen hex-5-enylphosphonate

$$$$
