
     RDKit          3D

 28 30  0  0  0  0  0  0  0  0999 V2000
    0.6352    0.0635    0.1310 C   0  0  0  0  0  0  0  0  0  0  0  0
    0.5338    1.4652   -0.2279 O   0  0  0  0  0  0  0  0  0  0  0  0
    0.8496    2.4473    0.7082 C   0  0  0  0  0  0  0  0  0  0  0  0
    2.1849    2.5866    0.9899 C   0  0  0  0  0  0  0  0  0  0  0  0
    3.2977    1.9795    0.5236 O   0  0  0  0  0  0  0  0  0  0  0  0
    3.1939    1.0089   -0.4912 C   0  0  0  0  0  0  0  0  0  0  0  0
    2.4194    3.6010    1.8491 C   0  0  0  0  0  0  0  0  0  0  0  0
    1.2411    4.3441    2.2522 C   0  0  0  0  0  0  0  0  0  0  0  0
   -0.0248    4.8884    2.4961 C   0  0  0  0  0  0  0  0  0  0  0  0
   -0.1901    3.5582    1.3568 C   0  0  0  0  0  0  0  0  0  0  0  0
   -1.5489    3.2745    0.7475 O   0  0  0  0  0  0  0  0  0  0  0  0
   -1.7889    2.1664   -0.2885 C   0  0  0  0  0  0  0  0  0  0  0  0
    0.7103    6.2911    3.8178 C   0  0  0  0  0  0  0  0  0  0  0  0
    1.8349    7.6636    4.1614 C   0  0  0  0  0  0  0  0  0  0  0  0
    2.0376    8.3690    5.7870 C   0  0  0  0  0  0  0  0  0  0  0  0
    1.9378    7.1582    6.2943 C   0  0  0  0  0  0  0  0  0  0  0  0
    0.2911    7.7398    5.9670 C   0  0  0  0  0  0  0  0  0  0  0  0
   -0.3660    8.7993    5.9261 O   0  0  0  0  0  0  0  0  0  0  0  0
   -0.1696    6.7529    5.1925 C   0  0  0  0  0  0  0  0  0  0  0  0
   -0.7219    6.0453    4.3564 C   0  0  0  0  0  0  0  0  0  0  0  0
   -1.8931    6.6913    3.8902 C   0  0  0  0  0  0  0  0  0  0  0  0
   -1.0247    6.7704    2.3976 C   0  0  0  0  0  0  0  0  0  0  0  0
    0.7998    5.7059    2.2160 C   0  0  0  0  0  0  0  0  0  0  0  0
   -3.0480    6.0174    4.4837 N   0  0  0  0  0  0  0  0  0  0  0  0
   -3.4699    6.2413    5.8185 C   0  0  0  0  0  0  0  0  0  0  0  0
   -4.3378    5.5395    6.3416 O   0  0  0  0  0  0  0  0  0  0  0  0
   -2.8416    7.3639    6.6471 C   0  0  0  0  0  0  0  0  0  0  0  0
    3.0410    6.2141    5.3746 O   0  0  0  0  0  0  0  0  0  0  0  0
  1  2  1  0
  2  3  1  0
  3  4  2  0
  3 10  1  0
  4  5  1  0
  4  7  1  0
  5  6  1  0
  7  8  2  0
  8  9  1  0
  8 23  1  0
  9 10  2  0
  9 13  1  0
 10 11  1  0
 11 12  1  0
 13 14  2  0
 13 20  1  0
 14 15  1  0
 15 16  2  0
 16 17  1  0
 16 28  1  0
 17 18  2  0
 17 19  1  0
 19 20  2  0
 20 21  1  0
 21 22  1  0
 21 24  1  0
 22 23  1  0
 24 25  1  0
 25 26  2  0
 25 27  1  0
M  END
>  <DRUGBANK_ID>  (1) 
DB15534

>  <COMMON_NAME>  (1) 
Colchiceine

>  <CAS_NUMBER>  (1) 
477-27-0

>  <UNII>  (1) 
HJ30158L57

>  <SYNONYMS>  (1) 
10-O-demethylcolchicine; O-Demethylcolchicine; O10-Demethylcolchicine

$$$$
