FSB
     RDKit          3D

 21 22  0  0  0  0  0  0  0  0999 V2000
    1.2127   -0.3119    0.2115 C   0  0  0  0  0  0  0  0  0  0  0  0
    0.3454   -1.3744    0.0636 C   0  0  0  0  0  0  0  0  0  0  0  0
   -1.0017   -1.1190   -0.0213 C   0  0  0  0  0  0  0  0  0  0  0  0
   -1.4604    0.2023   -0.0173 C   0  0  0  0  0  0  0  0  0  0  0  0
   -0.5334    1.2693   -0.0024 C   0  0  0  0  0  0  0  0  0  0  0  0
    0.8461    1.0197    0.0155 C   0  0  0  0  0  0  0  0  0  0  0  0
    1.8104    2.1632   -0.2112 C   0  0  0  0  0  0  0  0  0  0  0  0
    1.3734    3.3118   -0.3088 O   0  0  0  0  0  0  0  0  0  0  0  0
    3.1692    1.9935   -0.3836 N   0  0  0  0  0  0  0  0  0  0  0  0
    3.9791    0.7986   -0.4068 C   0  0  0  0  0  0  0  0  0  0  0  0
   -2.0685   -2.5205   -0.0073 S   0  0  0  0  0  0  0  0  0  0  0  0
   -2.9192   -2.3258    1.4323 N   0  0  0  0  0  0  0  0  0  0  0  0
   -2.9891   -2.4145   -1.1017 O   0  0  0  0  0  0  0  0  0  0  0  0
   -1.2609   -3.7084    0.2150 O   0  0  0  0  0  0  0  0  0  0  0  0
    4.6044    0.4339   -1.7032 C   0  0  0  0  0  0  0  0  0  0  0  0
    5.2645    1.3906   -2.4564 C   0  0  0  0  0  0  0  0  0  0  0  0
    5.9379    1.0040   -3.6049 C   0  0  0  0  0  0  0  0  0  0  0  0
    5.9762   -0.3401   -3.9896 C   0  0  0  0  0  0  0  0  0  0  0  0
    5.3251   -1.3107   -3.2353 C   0  0  0  0  0  0  0  0  0  0  0  0
    4.6047   -0.9117   -2.1243 C   0  0  0  0  0  0  0  0  0  0  0  0
    3.8919   -1.8380   -1.4593 F   0  0  0  0  0  0  0  0  0  0  0  0
  1  2  2  0
  1  6  1  0
  2  3  1  0
  3  4  2  0
  3 11  1  0
  4  5  1  0
  5  6  2  0
  6  7  1  0
  7  8  2  0
  7  9  1  0
  9 10  1  0
 10 15  1  0
 11 12  1  0
 11 13  2  0
 11 14  2  0
 15 16  2  0
 15 20  1  0
 16 17  1  0
 17 18  2  0
 18 19  1  0
 19 20  2  0
 20 21  1  0
M  END
>  <DRUGBANK_ID>  (1) 
DB02069

>  <SECONDARY_ACCESSION_NUMBERS>  (1) 
EXPT01497

>  <COMMON_NAME>  (1) 
N-(2-Flouro-Benzyl)-4-Sulfamoyl-Benzamide

$$$$
