
     RDKit          3D

 17 20  0  0  0  0  0  0  0  0999 V2000
    2.3578   -1.0078    0.1225 N   0  0  0  0  0  0  0  0  0  0  0  0
    1.1546   -2.7897   -1.1053 C   0  0  0  0  0  0  0  0  0  0  0  0
    3.3640   -2.2523    0.0563 C   0  0  0  0  0  0  0  0  0  0  0  0
    2.4042   -2.6233   -2.1019 C   0  0  0  0  0  0  0  0  0  0  0  0
    3.7301   -2.4510   -1.3738 C   0  0  0  0  0  0  0  0  0  0  0  0
    0.4553    1.1037    0.7271 C   0  0  2  0  0  0  0  0  0  0  0  0
    2.0690    0.6113    0.2530 C   0  0  0  0  0  0  0  0  0  0  0  0
   -2.0094    0.0610   -1.2542 N   0  0  0  0  0  0  0  0  0  0  0  0
   -1.6771   -1.4864   -0.2075 C   0  0  0  0  0  0  0  0  0  0  0  0
   -0.0050    0.3239   -2.5544 C   0  0  0  0  0  0  0  0  0  0  0  0
   -0.1081   -0.1383   -1.1256 C   0  0  0  0  0  0  0  0  0  0  0  0
   -1.4690    0.0942   -2.6802 C   0  0  0  0  0  0  0  0  0  0  0  0
   -1.5846    0.5690    0.0582 C   0  0  0  0  0  0  0  0  0  0  0  0
   -0.2067   -1.4489    0.8884 C   0  0  2  0  0  0  0  0  0  0  0  0
    0.0993   -0.1088    1.7244 C   0  0  0  0  0  0  0  0  0  0  0  0
    1.1623   -1.8377    0.2567 C   0  0  2  0  0  0  0  0  0  0  0  0
   -0.7915    1.3790   -0.5890 C   0  0  1  0  0  0  0  0  0  0  0  0
  1  7  1  0
  1 16  1  0
 16  2  1  6
  3  1  1  0
  4  2  1  0
  5  3  1  0
  5  4  1  0
  6 17  1  0
  6 15  1  0
  6  7  1  6
  8 12  1  0
  9  8  1  0
 11 10  1  0
 12 10  1  0
 13 11  1  0
 14  9  1  6
 14 15  1  0
 16 14  1  0
 17 13  1  1
 17  8  1  0
M  END
>  <DRUGBANK_ID>  (1) 
DB06727

>  <COMMON_NAME>  (1) 
Sparteine

>  <CAS_NUMBER>  (1) 
90-39-1

>  <UNII>  (1) 
298897D62S

>  <SYNONYMS>  (1) 
(-)-sparteine; 6β,7α,9α,11α-pachycarpine; Esparteina; Lupinidine; Sparteina; Sparteine; Sparteinum

$$$$
