
     RDKit          3D

 13 12  0  0  0  0  0  0  0  0999 V2000
    0.9975    0.0423    0.0906 Be  0  0  0  0  0  4  0  0  0  0  0  0
   -0.3112    0.3085   -0.8264 O   0  0  0  0  0  0  0  0  0  0  0  0
   -0.5218   -0.4583   -2.0028 C   0  0  0  0  0  0  0  0  0  0  0  0
    0.3165   -1.3534   -2.3364 O   0  0  0  0  0  0  0  0  0  0  0  0
   -1.7497   -0.2085   -2.8632 C   0  0  0  0  0  0  0  0  0  0  0  0
   -3.0037   -0.4494   -2.0386 C   0  0  1  0  0  0  0  0  0  0  0  0
   -3.0174    0.4969   -0.8491 C   0  0  0  0  0  0  0  0  0  0  0  0
   -3.9697    1.3266   -0.7082 O   0  0  0  0  0  0  0  0  0  0  0  0
   -1.9661    0.4539    0.1045 O   0  0  0  0  0  0  0  0  0  0  0  0
   -4.1912   -0.2078   -2.8706 N   0  0  0  0  0  0  0  0  0  0  0  0
      -nan      -nan      -nan F   0  0  0  0  0  0  0  0  0  0  0  0
   -0.5325    0.0423    0.0906 F   0  0  0  0  0  0  0  0  0  0  0  0
    2.5275    0.0423    0.0906 F   0  0  0  0  0  0  0  0  0  0  0  0
  1  2  1  0
  1 11  1  0
  1 12  1  0
  1 13  1  0
  2  3  1  0
  3  4  2  0
  3  5  1  0
  6  5  1  0
  6  7  1  0
  6 10  1  6
  7  8  2  0
  7  9  1  0
M  CHG  1   1  -2
M  END
>  <DRUGBANK_ID>  (1) 
DB04156

>  <SECONDARY_ACCESSION_NUMBERS>  (1) 
EXPT00678

>  <COMMON_NAME>  (1) 
Aspartate beryllium trifluoride

$$$$
