
     RDKit          3D

 15 14  0  0  0  0  0  0  0  0999 V2000
    1.1168    0.1086   -0.1200 N   0  0  0  0  0  0  0  0  0  0  0  0
    0.6811   -0.8092   -1.1669 C   0  0  0  0  0  0  0  0  0  0  0  0
    1.1517   -2.2333   -0.8817 C   0  0  0  0  0  0  0  0  0  0  0  0
    0.5831   -2.8007    0.4201 C   0  0  0  0  0  0  0  0  0  0  0  0
   -0.9516   -2.8517    0.4460 C   0  0  0  0  0  0  0  0  0  0  0  0
   -1.5567   -3.7427   -0.6502 C   0  0  0  0  0  0  0  0  0  0  0  0
   -1.0942   -5.1937   -0.5677 C   0  0  0  0  0  0  0  0  0  0  0  0
   -1.5329   -5.8021    0.6871 N   0  0  0  0  0  0  0  0  0  0  0  0
   -0.9366   -7.1196    0.8879 C   0  0  0  0  0  0  0  0  0  0  0  0
    0.5927   -7.0742    1.0112 C   0  0  0  0  0  0  0  0  0  0  0  0
    1.0736   -6.1876    2.1676 C   0  0  0  0  0  0  0  0  0  0  0  0
    0.6133   -6.7000    3.5312 C   0  0  0  0  0  0  0  0  0  0  0  0
    1.1478   -8.1027    3.8299 C   0  0  0  0  0  0  0  0  0  0  0  0
    2.6775   -8.1743    3.8156 C   0  0  0  0  0  0  0  0  0  0  0  0
    3.2395   -7.3019    4.8404 N   0  0  0  0  0  0  0  0  0  0  0  0
  1  2  1  0
  2  3  1  0
  3  4  1  0
  4  5  1  0
  5  6  1  0
  6  7  1  0
  7  8  1  0
  8  9  1  0
  9 10  1  0
 10 11  1  0
 11 12  1  0
 12 13  1  0
 13 14  1  0
 14 15  1  0
M  END
>  <DRUGBANK_ID>  (1) 
DB04684

>  <COMMON_NAME>  (1) 
Bis(6-aminohexyl)amine

>  <CAS_NUMBER>  (1) 
143-23-7

>  <UNII>  (1) 
BID902UF5V

>  <SYNONYMS>  (1) 
Dihexylenetriamine; N-(6-Aminohexyl)-1,6-hexanediamine

$$$$
