
     RDKit          3D

 12 11  0  0  0  0  0  0  0  0999 V2000
    0.9018    0.0174   -0.0857 O   0  0  0  0  0  0  0  0  0  0  0  0
    2.1252   -0.0027   -0.0117 C   0  0  0  0  0  0  0  0  0  0  0  0
    2.8925    0.5574   -0.9786 O   0  0  0  0  0  0  0  0  0  0  0  0
    2.9220   -0.7031    1.1088 C   0  0  1  0  0  0  0  0  0  0  0  0
    2.5946   -0.1260    2.4178 N   0  0  0  0  0  0  0  0  0  0  0  0
    2.5866   -2.2028    1.1120 C   0  0  0  0  0  0  0  0  0  0  0  0
    2.9936   -2.8922   -0.1936 C   0  0  0  0  0  0  0  0  0  0  0  0
    4.4853   -2.7755   -0.4914 C   0  0  0  0  0  0  0  0  0  0  0  0
    5.2681   -3.4970    0.4866 N   0  0  0  0  0  0  0  0  0  0  0  0
    6.1252   -4.5142    0.2684 C   0  0  0  0  0  0  0  0  0  0  0  0
    6.7678   -5.1196    1.2030 N   0  0  0  0  0  0  0  0  0  0  0  0
    6.3349   -4.8936   -0.9949 N   0  0  0  0  0  0  0  0  0  0  0  0
  2  1  2  0
  3  2  1  0
  4  2  1  0
  4  5  1  1
  6  4  1  0
  7  6  1  0
  7  8  1  0
  9  8  1  0
 10  9  1  0
 11 10  2  0
 12 10  1  0
M  END
>  <DRUGBANK_ID>  (1) 
DB00125

>  <SECONDARY_ACCESSION_NUMBERS>  (1) 
NUTR00014

>  <COMMON_NAME>  (1) 
Arginine

>  <CAS_NUMBER>  (1) 
74-79-3

>  <UNII>  (1) 
94ZLA3W45F

>  <SYNONYMS>  (1) 
(2S)-2-amino-5-(carbamimidamido)pentanoic acid; (2S)-2-amino-5-guanidinopentanoic acid; (S)-2-amino-5-guanidinopentanoic acid; (S)-2-Amino-5-guanidinovaleric acid; Arg; Arginina; Arginine; L-(+)-Arginine; L-Arg; L-Arginin; L-arginine; R

$$$$
