
     RDKit          3D

 24 27  0  0  0  0  0  0  0  0999 V2000
    1.4005   -0.2760    0.0092 C   0  0  0  0  0  0  0  0  0  0  0  0
    0.4942   -1.3365    0.0184 C   0  0  0  0  0  0  0  0  0  0  0  0
   -0.8908   -1.1044    0.0146 C   0  0  0  0  0  0  0  0  0  0  0  0
   -1.3910    0.2023    0.0159 C   0  0  0  0  0  0  0  0  0  0  0  0
   -0.4471    1.2478    0.0036 C   0  0  0  0  0  0  0  0  0  0  0  0
    0.9259    1.0214   -0.0239 C   0  0  0  0  0  0  0  0  0  0  0  0
   -2.8920    0.4806   -0.0467 C   0  0  0  0  0  0  0  0  0  0  0  0
   -3.3871    1.2118    1.1047 N   0  0  0  0  0  0  0  0  0  0  0  0
   -3.0747    2.5482    1.2654 C   0  0  0  0  0  0  0  0  0  0  0  0
   -2.5463    3.2594    0.4189 O   0  0  0  0  0  0  0  0  0  0  0  0
   -3.4147    2.9681    2.5295 N   0  0  0  0  0  0  0  0  0  0  0  0
   -4.4327    1.8826    3.3390 S   0  0  0  0  0  0  0  0  0  0  0  0
   -4.2317    0.7065    2.0468 C   0  0  0  0  0  0  0  0  0  0  0  0
   -4.8210   -0.3782    2.0563 O   0  0  0  0  0  0  0  0  0  0  0  0
   -3.0802    4.2147    3.0569 C   0  0  0  0  0  0  0  0  0  0  0  0
   -3.3851    5.3690    2.3349 C   0  0  0  0  0  0  0  0  0  0  0  0
   -3.2013    6.5945    2.9470 C   0  0  0  0  0  0  0  0  0  0  0  0
   -2.8063    6.6274    4.3067 C   0  0  0  0  0  0  0  0  0  0  0  0
   -2.4922    5.4250    5.0682 C   0  0  0  0  0  0  0  0  0  0  0  0
   -2.4216    4.2771    4.3104 C   0  0  0  0  0  0  0  0  0  0  0  0
   -1.6139    3.2368    4.8346 C   0  0  0  0  0  0  0  0  0  0  0  0
   -0.8232    3.4502    5.9565 C   0  0  0  0  0  0  0  0  0  0  0  0
   -1.6192    3.9338    6.9344 C   0  0  0  0  0  0  0  0  0  0  0  0
   -2.2406    5.1405    6.4935 C   0  0  0  0  0  0  0  0  0  0  0  0
  1  2  2  0
  1  6  1  0
  2  3  1  0
  3  4  2  0
  4  5  1  0
  4  7  1  0
  5  6  2  0
  7  8  1  0
  8  9  1  0
  8 13  1  0
  9 10  2  0
  9 11  1  0
 11 12  1  0
 11 15  1  0
 12 13  1  0
 13 14  2  0
 15 16  2  0
 15 20  1  0
 16 17  1  0
 17 18  2  0
 18 19  1  0
 19 20  2  0
 19 24  1  0
 20 21  1  0
 21 22  2  0
 22 23  1  0
 23 24  2  0
M  END
>  <DRUGBANK_ID>  (1) 
DB12129

>  <COMMON_NAME>  (1) 
Tideglusib

>  <CAS_NUMBER>  (1) 
865854-05-3

>  <UNII>  (1) 
Q747Y6TT42

>  <SYNONYMS>  (1) 
4-BENZYL-2-(A-NAPHTYL)-1,2,4-THIADIAZOLIDINE-3,5-DIONE; 4-Benzyl-2-(naphthalen-1-yl)-1,2,4-thiadiazolidine-3,5-dione; Tideglusib

$$$$
