
     RDKit          3D

 17 18  0  0  1  0  0  0  0  0999 V2000
    1.0332   -0.0911   -0.0240 C   0  0  0  0  0  0  0  0  0  0  0  0
    0.4953    0.2985   -1.3957 C   0  0  1  0  0  0  0  0  0  0  0  0
    0.9793   -0.6754   -2.3301 O   0  0  0  0  0  0  0  0  0  0  0  0
   -1.0504    0.3204   -1.4097 C   0  0  1  0  0  0  0  0  0  0  0  0
   -1.5877    1.2250   -0.4395 O   0  0  0  0  0  0  0  0  0  0  0  0
   -1.5382    0.7224   -2.7878 C   0  0  0  0  0  0  0  0  0  0  0  0
   -1.9689   -0.2589   -3.6832 C   0  0  0  0  0  0  0  0  0  0  0  0
   -2.3473    0.0064   -4.9586 N   0  0  0  0  0  0  0  0  0  0  0  0
   -2.2767    1.3051   -5.3274 C   0  0  0  0  0  0  0  0  0  0  0  0
   -2.6500    1.5671   -6.6519 N   0  0  0  0  0  0  0  0  0  0  0  0
   -2.5986    2.7920   -7.0599 C   0  0  0  0  0  0  0  0  0  0  0  0
   -2.9437    3.0999   -8.3256 N   0  0  0  0  0  0  0  0  0  0  0  0
   -2.2016    3.8206   -6.2574 N   0  0  0  0  0  0  0  0  0  0  0  0
   -1.8110    3.6668   -4.9446 C   0  0  0  0  0  0  0  0  0  0  0  0
   -1.4577    4.6301   -4.2761 O   0  0  0  0  0  0  0  0  0  0  0  0
   -1.8499    2.2821   -4.4354 C   0  0  0  0  0  0  0  0  0  0  0  0
   -1.4643    2.0289   -3.1582 N   0  0  0  0  0  0  0  0  0  0  0  0
  2  1  1  1
  2  3  1  0
  2  4  1  0
  4  5  1  1
  4  6  1  0
  6  7  2  0
  6 17  1  0
  7  8  1  0
  8  9  2  0
  9 10  1  0
  9 16  1  0
 10 11  2  0
 11 12  1  0
 11 13  1  0
 13 14  1  0
 14 15  2  0
 14 16  1  0
 16 17  2  0
M  END
>  <DRUGBANK_ID>  (1) 
DB03886

>  <SECONDARY_ACCESSION_NUMBERS>  (1) 
EXPT00708

>  <COMMON_NAME>  (1) 
Biopterin

>  <UNII>  (1) 
E54CTM794Y

$$$$
