P01
     RDKit          3D

 27 29  0  0  0  0  0  0  0  0999 V2000
   12.9034   -8.0508   -1.2339 Cl  0  0  0  0  0  0  0  0  0  0  0  0
   12.3667   -6.4200   -1.0915 C   0  0  0  0  0  0  0  0  0  0  0  0
   11.0345   -6.1499   -0.7529 C   0  0  0  0  0  0  0  0  0  0  0  0
   10.5943   -4.8261   -0.6311 C   0  0  0  0  0  0  0  0  0  0  0  0
   11.5301   -3.8004   -0.8533 C   0  0  0  0  0  0  0  0  0  0  0  0
   12.8529   -4.0701   -1.1989 C   0  0  0  0  0  0  0  0  0  0  0  0
   13.2725   -5.3866   -1.3270 C   0  0  0  0  0  0  0  0  0  0  0  0
    9.2231   -4.5402   -0.4030 N   0  0  0  0  0  0  0  0  0  0  0  0
    8.7368   -3.2322   -0.1910 C   0  0  0  0  0  0  0  0  0  0  0  0
    8.2089   -2.7955    1.0340 C   0  0  0  0  0  0  0  0  0  0  0  0
    7.9949   -3.4256    2.2476 N   0  0  0  0  0  0  0  0  0  0  0  0
    7.8795   -1.4553    1.1125 C   0  0  0  0  0  0  0  0  0  0  0  0
    7.4009   -1.2812    2.3856 N   0  0  0  0  0  0  0  0  0  0  0  0
    6.8483   -0.0612    2.9587 C   0  0  0  0  0  0  0  0  0  0  0  0
    7.8665    1.0772    2.9685 C   0  0  0  0  0  0  0  0  0  0  0  0
    5.5565    0.3566    2.2549 C   0  0  0  0  0  0  0  0  0  0  0  0
    7.5299   -2.4811    3.0392 C   0  0  0  0  0  0  0  0  0  0  0  0
    8.0143   -0.5239    0.1472 N   0  0  0  0  0  0  0  0  0  0  0  0
    8.5089   -1.0202   -0.9936 C   0  0  0  0  0  0  0  0  0  0  0  0
    8.8500   -2.3045   -1.1931 N   0  0  0  0  0  0  0  0  0  0  0  0
    8.6438   -0.2201   -2.1126 N   0  0  0  0  0  0  0  0  0  0  0  0
    8.0463    1.1113   -2.2542 C   0  0  2  0  0  0  0  0  0  0  0  0
    6.4703    1.1178   -2.2198 C   0  0  0  0  0  0  0  0  0  0  0  0
    5.7600    1.9489   -3.3021 C   0  0  0  0  0  0  0  0  0  0  0  0
    5.8196   -0.2684   -2.2774 C   0  0  0  0  0  0  0  0  0  0  0  0
    8.6586    1.8020   -3.5104 C   0  0  0  0  0  0  0  0  0  0  0  0
    8.5459    3.2249   -3.4806 O   0  0  0  0  0  0  0  0  0  0  0  0
  1  2  1  0
  2  3  2  0
  2  7  1  0
  3  4  1  0
  4  5  2  0
  4  8  1  0
  5  6  1  0
  6  7  2  0
  8  9  1  0
  9 10  2  0
  9 20  1  0
 10 11  1  0
 10 12  1  0
 11 17  2  0
 12 13  1  0
 12 18  2  0
 13 14  1  0
 13 17  1  0
 14 15  1  0
 14 16  1  0
 18 19  1  0
 19 20  2  0
 19 21  1  0
 22 26  1  6
 22 23  1  0
 22 21  1  0
 23 24  1  0
 23 25  1  0
 26 27  1  0
M  END
>  <DRUGBANK_ID>  (1) 
DB04751

>  <COMMON_NAME>  (1) 
Purvalanol A

>  <CAS_NUMBER>  (1) 
212844-53-6

>  <UNII>  (1) 
YP483E75C4

>  <SYNONYMS>  (1) 
2-(1R-Isopropyl-2-hydroxyethylamino)-6-(3-chloroanilino)-9-isopropylpurine; Purv

$$$$
