
     RDKit          3D

 27 28  0  0  0  0  0  0  0  0999 V2000
    0.7077   -0.1292   -0.0827 C   0  0  0  0  0  0  0  0  0  0  0  0
    0.2900    1.3221    0.1409 C   0  0  0  0  0  0  0  0  0  0  0  0
    0.9316    2.2838   -0.7690 N   0  0  0  0  0  0  0  0  0  0  0  0
    0.3067    3.6200   -0.7468 C   0  0  0  0  0  0  0  0  0  0  0  0
    0.5531    4.3806    0.5222 C   0  0  0  0  0  0  0  0  0  0  0  0
    2.4141    2.3030   -0.7251 C   0  0  0  0  0  0  0  0  0  0  0  0
    3.1985    2.6818    0.5801 C   0  0  0  0  0  0  0  0  0  0  0  0
    2.8069    1.9407    1.8388 C   0  0  0  0  0  0  0  0  0  0  0  0
    2.1563    2.4408    2.9154 C   0  0  0  0  0  0  0  0  0  0  0  0
    1.6627    1.4858    3.9128 C   0  0  0  0  0  0  0  0  0  0  0  0
    0.8381    1.8923    4.9567 C   0  0  0  0  0  0  0  0  0  0  0  0
    0.2553    0.9577    5.7878 C   0  0  0  0  0  0  0  0  0  0  0  0
    0.7329   -0.3498    5.8117 C   0  0  0  0  0  0  0  0  0  0  0  0
    1.5808   -0.7757    4.7875 C   0  0  0  0  0  0  0  0  0  0  0  0
    1.9551    0.1322    3.7972 C   0  0  0  0  0  0  0  0  0  0  0  0
    2.6658   -0.3562    2.6992 O   0  0  0  0  0  0  0  0  0  0  0  0
    3.1899    0.4947    1.7475 C   0  0  0  0  0  0  0  0  0  0  0  0
    3.8946    0.0726    0.8554 O   0  0  0  0  0  0  0  0  0  0  0  0
    2.2235   -2.3820    4.7696 Cl  0  0  0  0  0  0  0  0  0  0  0  0
    0.4665   -1.2262    6.8281 O   0  0  0  0  0  0  0  0  0  0  0  0
   -0.2697   -0.7192    7.9282 C   0  0  0  0  0  0  0  0  0  0  0  0
    0.2368    0.5231    8.6742 C   0  0  0  0  0  0  0  0  0  0  0  0
   -0.4550    1.5227    8.8372 O   0  0  0  0  0  0  0  0  0  0  0  0
    1.5316    0.4011    9.0735 O   0  0  0  0  0  0  0  0  0  0  0  0
    2.0905    1.5650    9.7114 C   0  0  0  0  0  0  0  0  0  0  0  0
    2.3003    2.7049    8.7245 C   0  0  0  0  0  0  0  0  0  0  0  0
    1.7508    3.8765    3.1760 C   0  0  0  0  0  0  0  0  0  0  0  0
  1  2  1  0
  2  3  1  0
  3  4  1  0
  3  6  1  0
  4  5  1  0
  6  7  1  0
  7  8  1  0
  8  9  2  0
  8 17  1  0
  9 10  1  0
  9 27  1  0
 10 11  2  0
 10 15  1  0
 11 12  1  0
 12 13  2  0
 13 14  1  0
 13 20  1  0
 14 15  2  0
 14 19  1  0
 15 16  1  0
 16 17  1  0
 17 18  2  0
 20 21  1  0
 21 22  1  0
 22 23  2  0
 22 24  1  0
 24 25  1  0
 25 26  1  0
M  END
>  <DRUGBANK_ID>  (1) 
DB13367

>  <COMMON_NAME>  (1) 
Cloricromen

>  <CAS_NUMBER>  (1) 
68206-94-0

>  <UNII>  (1) 
B9454PE93C

>  <SYNONYMS>  (1) 
Cloricromen

$$$$
