
     RDKit          3D

 42 46  0  0  1  0  0  0  0  0999 V2000
    0.8914   -0.1545   -0.9708 C   0  0  0  0  0  0  0  0  0  0  0  0
    0.8044   -1.6446   -0.7007 C   0  0  0  0  0  0  0  0  0  0  0  0
    1.7215   -2.3883    0.1366 O   0  0  0  0  0  0  0  0  0  0  0  0
    2.7272   -2.1159    0.9912 C   0  0  0  0  0  0  0  0  0  0  0  0
    3.2981   -0.9312    1.2412 C   0  0  0  0  0  0  0  0  0  0  0  0
    2.7272    0.3405    1.2297 N   0  0  0  0  0  0  0  0  0  0  0  0
    1.4164    0.7249    1.4649 C   0  0  0  0  0  0  0  0  0  0  0  0
    1.1429    1.8818    1.1075 O   0  0  0  0  0  0  0  0  0  0  0  0
    0.2386   -0.3161    1.7779 C   0  0  0  0  0  0  0  0  0  0  0  0
    0.3841   -1.6304    2.0538 C   0  0  0  0  0  0  0  0  0  0  0  0
   -0.4364   -2.9498    1.9538 C   0  0  1  0  0  0  0  0  0  0  0  0
   -0.1658   -4.3107    1.1236 C   0  0  0  0  0  0  0  0  0  0  0  0
    0.0893   -5.4275    2.1382 C   0  0  0  0  0  0  0  0  0  0  0  0
    0.3319   -4.6844    3.4292 C   0  0  0  0  0  0  0  0  0  0  0  0
   -0.4978   -3.4687    3.3415 N   0  0  0  0  0  0  0  0  0  0  0  0
   -0.0300   -2.4906    4.3432 C   0  0  0  0  0  0  0  0  0  0  0  0
    4.6349   -1.0761    1.4012 C   0  0  0  0  0  0  0  0  0  0  0  0
    5.2657   -2.1891    1.9995 C   0  0  0  0  0  0  0  0  0  0  0  0
    4.4332   -3.2532    2.3313 C   0  0  0  0  0  0  0  0  0  0  0  0
    3.1746   -3.1925    1.7873 C   0  0  0  0  0  0  0  0  0  0  0  0
    4.8365   -4.3750    2.9480 N   0  0  0  0  0  0  0  0  0  0  0  0
    6.1574   -4.4980    3.1678 C   0  0  0  0  0  0  0  0  0  0  0  0
    7.0913   -3.5151    2.8344 C   0  0  0  0  0  0  0  0  0  0  0  0
    8.4511   -3.7788    3.0881 C   0  0  0  0  0  0  0  0  0  0  0  0
    9.6021   -3.9770    3.2808 N   0  0  0  0  0  0  0  0  0  0  0  0
    6.6571   -2.3063    2.2470 C   0  0  0  0  0  0  0  0  0  0  0  0
    7.5702   -1.2451    1.9395 N   0  0  0  0  0  0  0  0  0  0  0  0
    7.2770    0.0548    1.4491 C   0  0  0  0  0  0  0  0  0  0  0  0
    6.4478    0.9190    2.1953 C   0  0  0  0  0  0  0  0  0  0  0  0
    5.8848    2.0677    1.6163 C   0  0  0  0  0  0  0  0  0  0  0  0
    6.1165    2.3680    0.2691 C   0  0  0  0  0  0  0  0  0  0  0  0
    5.7483    3.6413   -0.0788 O   0  0  0  0  0  0  0  0  0  0  0  0
    6.4013    4.2638   -1.2053 C   0  0  0  0  0  0  0  0  0  0  0  0
    7.9306    4.4196   -1.1300 C   0  0  0  0  0  0  0  0  0  0  0  0
    8.4670    5.6497   -1.2037 N   0  0  0  0  0  0  0  0  0  0  0  0
    9.8295    5.7305   -1.1409 C   0  0  0  0  0  0  0  0  0  0  0  0
   10.7137    4.6574   -1.0814 C   0  0  0  0  0  0  0  0  0  0  0  0
   10.1803    3.4106   -1.0583 C   0  0  0  0  0  0  0  0  0  0  0  0
    8.8105    3.3387   -1.0222 C   0  0  0  0  0  0  0  0  0  0  0  0
    6.7417    1.3844   -0.5209 C   0  0  0  0  0  0  0  0  0  0  0  0
    6.7832    1.3714   -2.2818 Cl  0  0  0  0  0  0  0  0  0  0  0  0
    7.4843    0.3530    0.0984 C   0  0  0  0  0  0  0  0  0  0  0  0
  1  2  1  0
  2  3  1  0
  3  4  1  0
  4  5  2  0
  4 20  1  0
  5  6  1  0
  5 17  1  0
  6  7  1  0
  7  8  2  0
  7  9  1  0
  9 10  2  0
 11 10  1  1
 11 12  1  0
 11 15  1  0
 12 13  1  0
 13 14  1  0
 14 15  1  0
 15 16  1  0
 17 18  2  0
 18 19  1  0
 18 26  1  0
 19 20  2  0
 19 21  1  0
 21 22  2  0
 22 23  1  0
 23 24  1  0
 23 26  2  0
 24 25  3  0
 26 27  1  0
 27 28  1  0
 28 29  2  0
 28 42  1  0
 29 30  1  0
 30 31  2  0
 31 32  1  0
 31 40  1  0
 32 33  1  0
 33 34  1  0
 34 35  2  0
 34 39  1  0
 35 36  1  0
 36 37  2  0
 37 38  1  0
 38 39  2  0
 40 41  1  0
 40 42  2  0
M  END
>  <DRUGBANK_ID>  (1) 
DB14993

>  <COMMON_NAME>  (1) 
Pyrotinib

>  <CAS_NUMBER>  (1) 
1269662-73-8

>  <UNII>  (1) 
CJN36EQM0H

$$$$
