
     RDKit          3D

 11 10  0  0  0  0  0  0  0  0999 V2000
    0.9858   -0.1858   -0.3556 C   0  0  0  0  0  0  0  0  0  0  0  0
    0.3165   -1.1893    0.5811 C   0  0  0  0  0  0  0  0  0  0  0  0
    0.8905   -1.2375    2.0644 C   0  0  0  0  0  0  0  0  0  0  0  0
    0.5020   -0.0626    2.9948 N   0  0  0  0  0  0  0  0  0  0  0  0
   -0.9713   -0.1519    3.3193 C   0  0  0  0  0  0  0  0  0  0  0  0
    1.1380   -0.1333    4.3719 C   0  0  0  0  0  0  0  0  0  0  0  0
    0.9884    1.2657    2.4100 C   0  0  0  0  0  0  0  0  0  0  0  0
   -1.1522   -1.1727    0.4594 O   0  0  0  0  0  0  0  0  0  0  0  0
   -1.8834   -0.0212    0.5770 C   0  0  0  0  0  0  0  0  0  0  0  0
   -1.4153    1.1178    0.6567 O   0  0  0  0  0  0  0  0  0  0  0  0
   -3.3114   -0.2724    0.9713 C   0  0  0  0  0  0  0  0  0  0  0  0
  1  2  1  0
  2  3  1  0
  2  8  1  0
  3  4  1  0
  4  5  1  0
  4  6  1  0
  4  7  1  0
  8  9  1  0
  9 10  2  0
  9 11  1  0
M  CHG  1   4   1
M  END
>  <DRUGBANK_ID>  (1) 
DB06709

>  <COMMON_NAME>  (1) 
Methacholine

>  <CAS_NUMBER>  (1) 
55-92-5

>  <UNII>  (1) 
03V657ZD3V

>  <SYNONYMS>  (1) 
Acetyl-beta-methylcholine; Acetylmethylcholine; beta-Methylacetylcholine; MCh; Methacholine; Methacholinum

$$$$
