
     RDKit          3D

 34 38  0  0  1  0  0  0  0  0999 V2000
    0.2408    2.0588    1.7853 Na  0  0  0  0  0 15  0  0  0  0  0  0
    2.2530   -1.9225   -1.6807 Na  0  0  0  0  0 15  0  0  0  0  0  0
   -4.3117    3.8434   -0.0287 C   0  0  1  0  0  0  0  0  0  0  0  0
   -2.5437    3.5048    0.3016 C   0  0  0  0  0  0  0  0  0  0  0  0
   -2.4875    4.7472    1.0577 C   0  0  1  0  0  0  0  0  0  0  0  0
   -1.6658    5.4429    0.1745 O   0  0  0  0  0  0  0  0  0  0  0  0
   -2.8216    6.2885    0.0820 C   0  0  2  0  0  0  0  0  0  0  0  0
   -2.2450    7.7702    0.8711 C   0  0  1  0  0  0  0  0  0  0  0  0
   -2.0610    9.2244    0.5191 O   0  0  0  0  0  0  0  0  0  0  0  0
   -2.0852    9.6404   -0.9133 C   0  0  0  0  0  0  0  0  0  0  0  0
   -2.0778    8.5467   -1.8647 O   0  0  0  0  0  0  0  0  0  0  0  0
   -0.4549    7.9482   -1.8345 P   0  0  0  0  0  0  0  0  0  0  0  0
   -0.3701    8.4738   -3.2825 O   0  0  0  0  0  0  0  0  0  0  0  0
    0.0072    8.8559   -0.6740 O   0  0  0  0  0  0  0  0  0  0  0  0
    0.9976    7.4125   -1.8076 O   0  0  0  0  0  0  0  0  0  0  0  0
   -3.6915    7.9425    0.8704 C   0  0  2  0  0  0  0  0  0  0  0  0
   -3.5742    8.1022   -0.5465 O   0  0  0  0  0  0  0  0  0  0  0  0
   -4.6305    8.6977   -0.0948 C   0  0  1  0  0  0  0  0  0  0  0  0
   -5.3997    7.8536   -0.9459 C   0  0  1  0  0  0  0  0  0  0  0  0
   -4.7979    7.1308   -2.0352 O   0  0  0  0  0  0  0  0  0  0  0  0
   -4.4533    6.2639   -0.9021 C   0  0  1  0  0  0  0  0  0  0  0  0
   -5.4875    5.2602   -0.9497 C   0  0  2  0  0  0  0  0  0  0  0  0
   -7.1273    6.1601   -1.0744 C   0  0  0  0  0  0  0  0  0  0  0  0
   -5.9944    4.7667   -2.4274 C   0  0  0  0  0  0  0  0  0  0  0  0
   -6.6336    3.5950   -1.8359 C   0  0  0  0  0  0  0  0  0  0  0  0
   -5.5680    2.5579   -1.6927 C   0  0  0  0  0  0  0  0  0  0  0  0
   -4.5602    2.6197   -0.7988 C   0  0  0  0  0  0  0  0  0  0  0  0
   -4.5076    1.3195   -0.0084 C   0  0  0  0  0  0  0  0  0  0  0  0
   -5.1233    0.5159   -0.9722 O   0  0  0  0  0  0  0  0  0  0  0  0
   -6.1446    1.3640   -1.1774 C   0  0  0  0  0  0  0  0  0  0  0  0
   -7.1336    1.4680   -0.4111 O   0  0  0  0  0  0  0  0  0  0  0  0
   -4.4120    6.9006    1.7447 C   0  0  0  0  0  0  0  0  0  0  0  0
   -3.4388    6.6162    2.8982 C   0  0  0  0  0  0  0  0  0  0  0  0
   -5.6472    7.4927    2.3293 C   0  0  0  0  0  0  0  0  0  0  0  0
  3  4  1  6
  3 27  1  0
  5  4  1  6
  5  6  1  0
  7  6  1  6
  7  5  1  0
  7  8  1  0
  7 21  1  0
  8 16  1  0
  8  9  1  6
  9 10  1  0
 10 11  1  0
 11 12  1  0
 12 13  1  0
 12 14  1  0
 12 15  2  0
 16 17  1  0
 16 18  1  0
 16 32  1  6
 18 17  1  6
 19 18  1  0
 19 20  1  6
 21 20  1  6
 21 19  1  0
 21 22  1  0
 22  3  1  0
 22 24  1  0
 22 23  1  1
 24 25  1  0
 25 26  1  0
 26 27  2  0
 26 30  1  0
 27 28  1  0
 28 29  1  0
 29 30  1  0
 30 31  2  0
 32 33  1  0
 32 34  1  0
M  CHG  4   1   1   2   1  13  -1  14  -1
M  END
>  <DRUGBANK_ID>  (1) 
DB17309

>  <COMMON_NAME>  (1) 
Minnelide

>  <CAS_NUMBER>  (1) 
1254702-87-8

>  <UNII>  (1) 
1CIV2UMO40

>  <SYNONYMS>  (1) 
14-o-phosphonooxymethyltriptolide disodium salt; Trisoxireno(4b,5:6,7:8a,9)phenanthro(1,2-c)furan-1(3h)-one, 3b,4,4a,6,6a,7a,7b,8b,9,10-decahydro-8b-methyl-6a-(1-methylethyl)-6-((phosphonooxy)methoxy)-, sodium salt (1:2), (3bs,4as,5ar,6r,6as,7as,7bs,8as,8bs)-

$$$$
