
     RDKit          3D

 25 22  0  0  0  0  0  0  0  0999 V2000
    0.2444   -0.2574    0.5432 C   0  0  0  0  0  0  0  0  0  0  0  0
    2.1432   -0.3127    0.5544 N   0  0  0  0  0  0  0  0  0  0  0  0
   -0.7617   -1.0650    1.7780 S   0  0  0  0  0  0  0  0  0  0  0  0
   -1.6291   -0.5529   -0.5357 S   0  0  0  0  0  0  0  0  0  0  0  0
    3.4109    0.2985   -0.8481 C   0  0  0  0  0  0  0  0  0  0  0  0
    4.3129    1.7764   -1.3609 C   0  0  0  0  0  0  0  0  0  0  0  0
    5.2951    2.0873   -0.0629 C   0  0  0  0  0  0  0  0  0  0  0  0
    6.0966    0.9575    0.2974 C   0  0  0  0  0  0  0  0  0  0  0  0
    3.0524   -0.1640    1.9539 C   0  0  0  0  0  0  0  0  0  0  0  0
    2.9011    1.1932    2.8401 C   0  0  0  0  0  0  0  0  0  0  0  0
    1.4202    1.1907    3.0102 C   0  0  0  0  0  0  0  0  0  0  0  0
    1.0389   -0.0329    3.6977 C   0  0  0  0  0  0  0  0  0  0  0  0
    0.4452    0.5067   -1.5270 C   0  0  0  0  0  0  0  0  0  0  0  0
    1.7511    0.3727   -1.0950 N   0  0  0  0  0  0  0  0  0  0  0  0
   -0.7149    1.9764   -0.5449 S   0  0  0  0  0  0  0  0  0  0  0  0
    0.4408   -1.5666   -1.8967 S   0  0  0  0  0  0  0  0  0  0  0  0
    2.7689   -1.3398   -1.2148 C   0  0  0  0  0  0  0  0  0  0  0  0
    4.2931   -1.1850   -2.3738 C   0  0  0  0  0  0  0  0  0  0  0  0
    5.7974   -0.4785   -1.8754 C   0  0  0  0  0  0  0  0  0  0  0  0
    6.6679   -1.1020   -0.4107 C   0  0  0  0  0  0  0  0  0  0  0  0
    2.5003    1.7027    0.0692 C   0  0  0  0  0  0  0  0  0  0  0  0
    2.6968    3.1429   -0.2238 C   0  0  0  0  0  0  0  0  0  0  0  0
    1.3711    3.5464   -0.0107 C   0  0  0  0  0  0  0  0  0  0  0  0
    1.0164    3.5721    1.4226 C   0  0  0  0  0  0  0  0  0  0  0  0
    1.2755   -2.1857    0.8934 Zn  0  0  0  0  0 15  0  0  0  0  0  0
  2  1  1  0
  3  1  1  0
  4  1  2  0
  5  2  1  0
  6  5  1  0
  7  6  1  0
  8  7  1  0
  9  2  1  0
 10  9  1  0
 11 10  1  0
 12 11  1  0
 14 13  1  0
 15 13  1  0
 16 13  2  0
 17 14  1  0
 18 17  1  0
 19 18  1  0
 20 19  1  0
 21 14  1  0
 22 21  1  0
 23 22  1  0
 24 23  1  0
M  CHG  3   3  -1  15  -1  25   2
M  END
>  <DRUGBANK_ID>  (1) 
DB14194

>  <COMMON_NAME>  (1) 
Zinc dibutyldithiocarbamate

>  <CAS_NUMBER>  (1) 
136-23-2

>  <UNII>  (1) 
HNM5J934VP

>  <SYNONYMS>  (1) 
(T-4)-bis(dibutylcarbamodithioato-κS,κS')zinc; bis(dibutyldithiocarbamato)zinc; dibutyldithiocarbamate zinc salt; zinc bis(dibutyldithiocarbamate); zinc bis(dibutyldithiocarbamoyl)disulfide; zinc bis(dibutyldithiocarbamoyl)disulphide; zinc bis(dibutylthiocarbamoyl)disulfide

$$$$
