21U
     RDKit          3D

 24 25  0  0  0  0  0  0  0  0999 V2000
    1.1216   -0.1445   -0.1620 C   0  0  0  0  0  0  0  0  0  0  0  0
    0.9559   -0.2575    2.3700 N   0  0  0  0  0  0  0  0  0  0  0  0
    0.3723   -0.7494    1.1005 C   0  0  1  0  0  0  0  0  0  0  0  0
   -1.2533   -0.7270    1.3045 C   0  0  0  0  0  0  0  0  0  0  0  0
   -1.8546   -1.8100    1.2151 O   0  0  0  0  0  0  0  0  0  0  0  0
   -1.9721    0.4459    1.6253 N   0  0  0  0  0  0  0  0  0  0  0  0
   -1.7784    1.8009    1.1781 C   0  0  0  0  0  0  0  0  0  0  0  0
   -2.3769    2.7583    2.1163 C   0  0  0  0  0  0  0  0  0  0  0  0
   -3.6231    1.9735    2.4487 C   0  0  0  0  0  0  0  0  0  0  0  0
   -3.2773    0.4408    2.2636 C   0  0  1  0  0  0  0  0  0  0  0  0
   -4.4232   -0.2563    1.4988 C   0  0  0  0  0  0  0  0  0  0  0  0
   -4.5382   -0.1180    0.1343 N   0  0  0  0  0  0  0  0  0  0  0  0
   -5.6928   -0.6565   -0.5720 C   0  0  0  0  0  0  0  0  0  0  0  0
   -6.4524    0.4185   -1.3117 C   0  0  0  0  0  0  0  0  0  0  0  0
   -6.9412    1.5349   -0.6145 C   0  0  0  0  0  0  0  0  0  0  0  0
   -7.6605    2.5255   -1.2810 C   0  0  0  0  0  0  0  0  0  0  0  0
   -7.9110    2.4179   -2.6466 C   0  0  0  0  0  0  0  0  0  0  0  0
   -7.4550    1.3003   -3.3461 C   0  0  0  0  0  0  0  0  0  0  0  0
   -6.7362    0.3016   -2.6811 C   0  0  0  0  0  0  0  0  0  0  0  0
   -5.3558   -0.7728    2.1660 O   0  0  0  0  0  0  0  0  0  0  0  0
    0.7826    1.3172   -0.4097 C   0  0  0  0  0  0  0  0  0  0  0  0
    1.4557    2.2749   -1.3555 C   0  0  0  0  0  0  0  0  0  0  0  0
   -0.6057    1.2724   -1.0247 C   0  0  0  0  0  0  0  0  0  0  0  0
   -8.2415    3.8894   -0.4079 Cl  0  0  0  0  0  0  0  0  0  0  0  0
  1  3  1  0
  1 21  1  0
  3  2  1  1
  3  4  1  0
  4  5  2  0
  4  6  1  0
  6  7  1  0
  6 10  1  0
  7  8  1  0
  8  9  1  0
  9 10  1  0
 10 11  1  6
 11 12  1  0
 11 20  2  0
 12 13  1  0
 13 14  1  0
 14 15  2  0
 14 19  1  0
 15 16  1  0
 16 17  2  0
 16 24  1  0
 17 18  1  0
 18 19  2  0
 21 22  1  0
 21 23  1  0
M  END
>  <DRUGBANK_ID>  (1) 
DB06911

>  <COMMON_NAME>  (1) 
D-leucyl-N-(3-chlorobenzyl)-L-prolinamide

$$$$
