10U
     RDKit          3D

 27 29  0  0  0  0  0  0  0  0999 V2000
   -1.1023    0.5379    0.0807 N   0  0  0  0  0  0  0  0  0  0  0  0
   -2.3072    1.0077    0.5771 C   0  0  0  0  0  0  0  0  0  0  0  0
   -3.2847    0.2597    0.6642 O   0  0  0  0  0  0  0  0  0  0  0  0
   -2.4060    2.5006    0.9753 C   0  0  0  0  0  0  0  0  0  0  0  0
   -0.8897   -0.8702   -0.2185 C   0  0  0  0  0  0  0  0  0  0  0  0
    0.5445   -1.1116    0.2187 C   0  0  0  0  0  0  0  0  0  0  0  0
    1.2442    0.1887   -0.1664 C   0  0  0  0  0  0  0  0  0  0  0  0
    0.1590    1.2763   -0.0444 C   0  0  1  0  0  0  0  0  0  0  0  0
    0.2002    2.2055   -1.2804 C   0  0  0  0  0  0  0  0  0  0  0  0
   -0.9482    2.2690   -2.0406 N   0  0  0  0  0  0  0  0  0  0  0  0
   -1.0095    3.0161   -3.2868 C   0  0  0  0  0  0  0  0  0  0  0  0
   -1.2138    2.1125   -4.4799 C   0  0  0  0  0  0  0  0  0  0  0  0
   -1.9566    2.5340   -5.5925 C   0  0  0  0  0  0  0  0  0  0  0  0
   -2.1719    1.6696   -6.6752 C   0  0  0  0  0  0  0  0  0  0  0  0
   -1.5627    0.4101   -6.7089 C   0  0  0  0  0  0  0  0  0  0  0  0
   -1.6349   -0.4742   -7.9175 C   0  0  0  0  0  0  0  0  0  0  0  0
   -0.9878   -1.5955   -7.9127 N   0  0  0  0  0  0  0  0  0  0  0  0
   -2.3403   -0.1093   -9.0220 N   0  0  0  0  0  0  0  0  0  0  0  0
   -0.8023   -0.0026   -5.6107 C   0  0  0  0  0  0  0  0  0  0  0  0
   -0.6258    0.8417   -4.5150 C   0  0  0  0  0  0  0  0  0  0  0  0
    1.2103    2.8597   -1.5478 O   0  0  0  0  0  0  0  0  0  0  0  0
   -3.3994    3.1982    0.1391 N   0  0  0  0  0  0  0  0  0  0  0  0
   -3.5079    4.6140    0.4839 C   0  0  0  0  0  0  0  0  0  0  0  0
   -2.3614    5.4753   -0.0455 C   0  0  0  0  0  0  0  0  0  0  0  0
   -2.9149    6.8934    0.0137 C   0  0  0  0  0  0  0  0  0  0  0  0
   -4.4226    6.7585   -0.1949 C   0  0  0  0  0  0  0  0  0  0  0  0
   -4.7271    5.2604   -0.1781 C   0  0  0  0  0  0  0  0  0  0  0  0
  1  2  1  0
  2  4  1  0
  2  3  2  0
  4 22  1  0
  5  1  1  0
  6  7  1  0
  6  5  1  0
  7  8  1  0
  8  1  1  0
  8  9  1  6
  9 10  1  0
 11 10  1  0
 11 12  1  0
 12 20  1  0
 12 13  2  0
 13 14  1  0
 14 15  2  0
 15 16  1  0
 16 18  1  0
 16 17  2  0
 19 15  1  0
 20 19  2  0
 21  9  2  0
 22 23  1  0
 23 27  1  0
 24 23  1  0
 24 25  1  0
 25 26  1  0
 27 26  1  0
M  END
>  <DRUGBANK_ID>  (1) 
DB06845

>  <COMMON_NAME>  (1) 
(S)-N-(4-carbamimidoylbenzyl)-1-(2-(cyclopentylamino)ethanoyl)pyrrolidine-2-carboxamide

$$$$
