P44
     RDKit          3D

 26 29  0  0  0  0  0  0  0  0999 V2000
    1.5329   -1.0598   -0.0814 N   0  0  0  0  0  0  0  0  0  0  0  0
    2.3019    0.0232   -0.0227 C   0  0  0  0  0  0  0  0  0  0  0  0
    1.5409    1.1991   -0.0043 C   0  0  0  0  0  0  0  0  0  0  0  0
    0.2250    0.7892   -0.0066 C   0  0  0  0  0  0  0  0  0  0  0  0
    0.2694   -0.5790   -0.0214 N   0  0  0  0  0  0  0  0  0  0  0  0
   -0.9666    1.4260    0.0024 N   0  0  0  0  0  0  0  0  0  0  0  0
   -2.0577    0.7052    0.0074 C   0  0  0  0  0  0  0  0  0  0  0  0
   -2.0591   -0.6858    0.0185 N   0  0  0  0  0  0  0  0  0  0  0  0
   -0.9190   -1.3448    0.0110 C   0  0  0  0  0  0  0  0  0  0  0  0
   -0.9025   -2.7381    0.0086 N   0  0  0  0  0  0  0  0  0  0  0  0
    0.2202   -3.5885    0.0380 C   0  0  0  0  0  0  0  0  0  0  0  0
    1.1515   -3.5203    1.0849 C   0  0  0  0  0  0  0  0  0  0  0  0
    2.3507   -4.2345    1.0355 C   0  0  0  0  0  0  0  0  0  0  0  0
    2.6099   -5.0783   -0.0388 C   0  0  0  0  0  0  0  0  0  0  0  0
    1.6696   -5.2056   -1.0600 C   0  0  0  0  0  0  0  0  0  0  0  0
    0.4784   -4.4683   -1.0212 C   0  0  0  0  0  0  0  0  0  0  0  0
   -3.2734    1.3367   -0.0016 N   0  0  0  0  0  0  0  0  0  0  0  0
   -3.4738    2.7801    0.0211 C   0  0  0  0  0  0  0  0  0  0  0  0
   -4.2558    3.2798   -1.2110 C   0  0  0  0  0  0  0  0  0  0  0  0
   -4.4726    4.8052   -1.1222 C   0  0  0  0  0  0  0  0  0  0  0  0
   -5.2647    5.3398   -2.3147 C   0  0  0  0  0  0  0  0  0  0  0  0
   -6.6033    4.6256   -2.4560 C   0  0  0  0  0  0  0  0  0  0  0  0
   -6.4074    3.1186   -2.5531 C   0  0  0  0  0  0  0  0  0  0  0  0
   -5.6124    2.5754   -1.3683 C   0  0  0  0  0  0  0  0  0  0  0  0
    2.0350    2.5264    0.0046 C   0  0  0  0  0  0  0  0  0  0  0  0
    2.4984    3.5936    0.0055 N   0  0  0  0  0  0  0  0  0  0  0  0
  1  2  2  0
  1  5  1  0
  2  3  1  0
  3 25  1  0
  3  4  2  0
  4  6  1  0
  4  5  1  0
  5  9  1  0
  6  7  2  0
  7 17  1  0
  7  8  1  0
  8  9  2  0
  9 10  1  0
 10 11  1  0
 11 12  2  0
 11 16  1  0
 12 13  1  0
 13 14  2  0
 14 15  1  0
 15 16  2  0
 17 18  1  0
 18 19  1  0
 19 20  1  0
 19 24  1  0
 20 21  1  0
 21 22  1  0
 22 23  1  0
 23 24  1  0
 25 26  3  0
M  END
>  <DRUGBANK_ID>  (1) 
DB08353

>  <COMMON_NAME>  (1) 
2-(CYCLOHEXYLMETHYLAMINO)-4-(PHENYLAMINO)PYRAZOLO[1,5-A][1,3,5]TRIAZINE-8-CARBONITRILE

$$$$
