
     RDKit          3D

 20 21  0  0  0  0  0  0  0  0999 V2000
    0.8075    0.0804   -0.1690 C   0  0  0  0  0  0  0  0  0  0  0  0
    0.6128    3.3946    3.0157 C   0  0  0  0  0  0  0  0  0  0  0  0
    2.0244   -3.9623    2.9132 C   0  0  0  0  0  0  0  0  0  0  0  0
    5.6259   -2.2687    0.0043 C   0  0  0  0  0  0  0  0  0  0  0  0
    0.2769    1.1798    0.7558 C   0  0  0  0  0  0  0  0  0  0  0  0
    0.3743    3.5224    1.5168 C   0  0  0  0  0  0  0  0  0  0  0  0
    2.4131    2.4138    0.6943 C   0  0  0  0  0  0  0  0  0  0  0  0
    3.0860    1.9198    2.0115 C   0  0  0  0  0  0  0  0  0  0  0  0
    1.7350    0.2272    3.4471 C   0  0  0  0  0  0  0  0  0  0  0  0
    3.1971   -0.5431    2.0476 C   0  0  0  0  0  0  0  0  0  0  0  0
    2.4839   -1.5555    2.6004 C   0  0  0  0  0  0  0  0  0  0  0  0
    4.2281   -0.7179    1.0993 C   0  0  0  0  0  0  0  0  0  0  0  0
    3.8419   -3.1464    1.4590 C   0  0  0  0  0  0  0  0  0  0  0  0
    1.5401   -1.0833    3.4476 N   0  0  0  0  0  0  0  0  0  0  0  0
    2.7603   -2.8693    2.3019 N   0  0  0  0  0  0  0  0  0  0  0  0
    4.5107   -2.0566    0.8859 N   0  0  0  0  0  0  0  0  0  0  0  0
    0.9421    2.4847    0.6315 N   0  0  0  0  0  0  0  0  0  0  0  0
    2.6836    0.6188    2.5277 N   0  0  0  0  0  0  0  0  0  0  0  0
    4.7988    0.1957    0.5347 O   0  0  0  0  0  0  0  0  0  0  0  0
    4.2052   -4.3029    1.2310 O   0  0  0  0  0  0  0  0  0  0  0  0
  5  1  1  0
  6  2  1  0
  8  7  1  0
 11 10  2  0
 12 10  1  0
 14  9  2  0
 14 11  1  0
 15  3  1  0
 15 11  1  0
 15 13  1  0
 16  4  1  0
 16 12  1  0
 16 13  1  0
 17  5  1  0
 17  6  1  0
 17  7  1  0
 18  8  1  0
 18  9  1  0
 18 10  1  0
 19 12  2  0
 20 13  2  0
M  END
>  <DRUGBANK_ID>  (1) 
DB13592

>  <COMMON_NAME>  (1) 
Etamiphylline

>  <CAS_NUMBER>  (1) 
314-35-2

>  <UNII>  (1) 
221A91BQ2S

>  <SYNONYMS>  (1) 
Etamiphyllin; Etamiphylline

$$$$
