
     RDKit          3D

 34 38  0  0  1  0  0  0  0  0999 V2000
    0.9266   -0.1123    0.0099 C   0  0  0  0  0  0  0  0  0  0  0  0
    0.2561   -1.7637   -0.1176 S   0  0  0  0  0  0  0  0  0  0  0  0
    0.9072   -2.5897    0.8855 O   0  0  0  0  0  0  0  0  0  0  0  0
   -1.1816   -1.6672   -0.1777 O   0  0  0  0  0  0  0  0  0  0  0  0
    0.7792   -2.3205   -1.6640 N   0  0  0  0  0  0  0  0  0  0  0  0
    0.3970   -3.7630   -1.8432 C   0  0  0  0  0  0  0  0  0  0  0  0
    0.8766   -4.3263   -3.1763 C   0  0  0  0  0  0  0  0  0  0  0  0
    0.3892   -3.4902   -4.3648 C   0  0  0  0  0  0  0  0  0  0  0  0
    0.7189   -2.0110   -4.1139 C   0  0  0  0  0  0  0  0  0  0  0  0
    0.2301   -1.5011   -2.7771 C   0  0  0  0  0  0  0  0  0  0  0  0
    0.9690   -4.0004   -5.6822 C   0  0  0  0  0  0  0  0  0  0  0  0
    0.7056   -5.3033   -6.1311 C   0  0  0  0  0  0  0  0  0  0  0  0
    1.2374   -5.7726   -7.3488 C   0  0  0  0  0  0  0  0  0  0  0  0
    2.0310   -4.9494   -8.1627 C   0  0  0  0  0  0  0  0  0  0  0  0
    2.2378   -3.6319   -7.7303 C   0  0  0  0  0  0  0  0  0  0  0  0
    1.7594   -3.1845   -6.5005 C   0  0  0  0  0  0  0  0  0  0  0  0
    2.7389   -5.4357   -9.3658 C   0  0  0  0  0  0  0  0  0  0  0  0
    4.1249   -5.3078   -9.4428 C   0  0  0  0  0  0  0  0  0  0  0  0
    4.8056   -5.6900  -10.5827 C   0  0  0  0  0  0  0  0  0  0  0  0
    6.1541   -5.5487  -10.6573 N   0  0  0  0  0  0  0  0  0  0  0  0
    6.7564   -5.9336  -11.8098 C   0  0  0  0  0  0  0  0  0  0  0  0
    6.0528   -6.4406  -12.8634 C   0  0  0  0  0  0  0  0  0  0  0  0
    4.7299   -6.5635  -12.7862 N   0  0  0  0  0  0  0  0  0  0  0  0
    4.0755   -6.2030  -11.6581 C   0  0  0  0  0  0  0  0  0  0  0  0
    2.6790   -6.3051  -11.5291 C   0  0  0  0  0  0  0  0  0  0  0  0
    1.8724   -6.7244  -12.5777 N   0  0  0  0  0  0  0  0  0  0  0  0
    2.3111   -7.3059  -13.8574 C   0  0  0  0  0  0  0  0  0  0  0  0
    2.0191   -8.8091  -14.0311 C   0  0  2  0  0  0  0  0  0  0  0  0
    0.9901   -9.2884  -13.0013 C   0  0  0  0  0  0  0  0  0  0  0  0
    0.6240  -10.7002  -13.1789 N   0  0  0  0  0  0  0  0  0  0  0  0
    1.8657  -11.4920  -13.1269 C   0  0  0  0  0  0  0  0  0  0  0  0
    2.8888  -11.0061  -14.1641 C   0  0  0  0  0  0  0  0  0  0  0  0
    3.2185   -9.6203  -13.9484 O   0  0  0  0  0  0  0  0  0  0  0  0
    2.0124   -5.9440  -10.3915 N   0  0  0  0  0  0  0  0  0  0  0  0
  1  2  1  0
  2  3  2  0
  2  4  2  0
  2  5  1  0
  5  6  1  0
  5 10  1  0
  6  7  1  0
  7  8  1  0
  8  9  1  0
  8 11  1  0
  9 10  1  0
 11 12  2  0
 11 16  1  0
 12 13  1  0
 13 14  2  0
 14 15  1  0
 14 17  1  0
 15 16  2  0
 17 18  2  0
 17 34  1  0
 18 19  1  0
 19 20  2  0
 19 24  1  0
 20 21  1  0
 21 22  2  0
 22 23  1  0
 23 24  2  0
 24 25  1  0
 25 26  1  0
 25 34  2  0
 26 27  1  0
 28 27  1  1
 28 29  1  0
 28 33  1  0
 29 30  1  0
 30 31  1  0
 31 32  1  0
 32 33  1  0
M  END
>  <DRUGBANK_ID>  (1) 
DB17557

>  <COMMON_NAME>  (1) 
Sovleplenib

>  <CAS_NUMBER>  (1) 
1415792-84-5

>  <UNII>  (1) 
9CL6353KHO

$$$$
