M38
     RDKit          3D

 25 28  0  0  0  0  0  0  0  0999 V2000
    0.4949    0.5225    0.0376 C   0  0  0  0  0  0  0  0  0  0  0  0
   -0.5039    1.2388   -0.7080 C   0  0  0  0  0  0  0  0  0  0  0  0
   -1.4249    0.4057   -1.2573 C   0  0  0  0  0  0  0  0  0  0  0  0
   -1.9571   -0.4350   -0.2873 C   0  0  0  0  0  0  0  0  0  0  0  0
   -1.0999   -1.1054    0.5959 C   0  0  0  0  0  0  0  0  0  0  0  0
    0.2426   -0.7495    0.6313 C   0  0  0  0  0  0  0  0  0  0  0  0
    1.1624   -1.7025    1.3049 C   0  0  0  0  0  0  0  0  0  0  0  0
    0.6483   -2.7115    2.0450 C   0  0  0  0  0  0  0  0  0  0  0  0
   -1.6570   -2.1647    1.4614 C   0  0  0  0  0  0  0  0  0  0  0  0
   -0.7411   -3.0060    2.1334 N   0  0  0  0  0  0  0  0  0  0  0  0
    2.6998   -1.8619    1.3166 C   0  0  0  0  0  0  0  0  0  0  0  0
    3.0202   -3.0243    2.1914 C   0  0  0  0  0  0  0  0  0  0  0  0
    1.7970   -3.3737    2.6695 C   0  0  0  0  0  0  0  0  0  0  0  0
    4.2032   -3.6704    2.6435 C   0  0  0  0  0  0  0  0  0  0  0  0
    4.1217   -4.7511    3.5453 C   0  0  0  0  0  0  0  0  0  0  0  0
    2.8960   -5.0237    4.0973 C   0  0  0  0  0  0  0  0  0  0  0  0
    1.8150   -4.2046    3.7435 C   0  0  0  0  0  0  0  0  0  0  0  0
    3.5148   -1.2141    0.7575 O   0  0  0  0  0  0  0  0  0  0  0  0
    0.9785   -7.3516    4.7328 O   0  0  0  0  0  0  0  0  0  0  0  0
   -0.2603   -5.5782    5.1929 O   0  0  0  0  0  0  0  0  0  0  0  0
   -2.8807   -2.2675    1.5298 O   0  0  0  0  0  0  0  0  0  0  0  0
   -1.4143   -4.0913    2.9071 C   0  0  0  0  0  0  0  0  0  0  0  0
   -1.2426   -5.5589    2.4336 C   0  0  0  0  0  0  0  0  0  0  0  0
    0.2011   -6.3270    4.3383 C   0  0  0  0  0  0  0  0  0  0  0  0
    0.1022   -6.1556    2.7751 C   0  0  0  0  0  0  0  0  0  0  0  0
  1  2  2  0
  1  6  1  0
  2  3  1  0
  3  4  2  0
  4  5  1  0
  5  6  2  0
  5  9  1  0
  6  7  1  0
  7  8  2  0
  7 11  1  0
  8 10  1  0
  8 13  1  0
  9 10  1  0
  9 21  2  0
 10 22  1  0
 11 12  1  0
 11 18  2  0
 12 13  2  0
 12 14  1  0
 13 17  1  0
 14 15  2  0
 15 16  1  0
 16 17  2  0
 19 24  1  0
 20 24  2  0
 22 23  1  0
 23 25  1  0
 24 25  1  0
M  END
>  <DRUGBANK_ID>  (1) 
DB08159

>  <COMMON_NAME>  (1) 
4-(5,11-DIOXO-5H-INDENO[1,2-C]ISOQUINOLIN-6(11H)-YL)BUTANOATE

$$$$
