
     RDKit          3D

 29 31  0  0  0  0  0  0  0  0999 V2000
    1.0168   -0.0696    0.0147 C   0  0  0  0  0  0  0  0  0  0  0  0
    0.4940   -0.1164   -1.3080 O   0  0  0  0  0  0  0  0  0  0  0  0
    0.9714    0.8951   -2.0920 C   0  0  0  0  0  0  0  0  0  0  0  0
    2.3246    1.2171   -2.1782 C   0  0  0  0  0  0  0  0  0  0  0  0
    2.7715    2.2147   -3.0456 C   0  0  0  0  0  0  0  0  0  0  0  0
    1.8767    2.8626   -3.8893 C   0  0  0  0  0  0  0  0  0  0  0  0
    2.2310    3.8145   -4.8084 O   0  0  0  0  0  0  0  0  0  0  0  0
    3.5719    4.2891   -4.7508 C   0  0  0  0  0  0  0  0  0  0  0  0
    0.5339    2.4387   -3.8910 C   0  0  0  0  0  0  0  0  0  0  0  0
   -0.3482    2.7379   -5.0683 C   0  0  0  0  0  0  0  0  0  0  0  0
   -0.8293    1.5101   -5.7502 N   0  0  0  0  0  0  0  0  0  0  0  0
   -2.1743    1.1160   -5.7409 C   0  0  0  0  0  0  0  0  0  0  0  0
   -2.5765    0.0356   -6.2101 O   0  0  0  0  0  0  0  0  0  0  0  0
   -3.1881    2.0832   -5.1556 C   0  0  0  0  0  0  0  0  0  0  0  0
   -3.1062    2.1784   -3.8013 F   0  0  0  0  0  0  0  0  0  0  0  0
    0.1166    0.7478   -6.5374 C   0  0  0  0  0  0  0  0  0  0  0  0
    1.2914    0.2605   -5.9268 C   0  0  0  0  0  0  0  0  0  0  0  0
    2.1700   -0.6256   -6.5473 C   0  0  0  0  0  0  0  0  0  0  0  0
    1.8686   -1.0868   -7.8119 C   0  0  0  0  0  0  0  0  0  0  0  0
    0.7227   -0.6062   -8.4594 C   0  0  0  0  0  0  0  0  0  0  0  0
   -0.1206    0.3687   -7.8706 C   0  0  0  0  0  0  0  0  0  0  0  0
   -1.1097    0.8436   -8.7238 O   0  0  0  0  0  0  0  0  0  0  0  0
   -1.8043    2.0120   -8.4746 C   0  0  0  0  0  0  0  0  0  0  0  0
   -1.2225    3.2253   -8.0974 C   0  0  0  0  0  0  0  0  0  0  0  0
   -2.0321    4.2936   -7.6737 C   0  0  0  0  0  0  0  0  0  0  0  0
   -3.4241    4.1929   -7.7378 C   0  0  0  0  0  0  0  0  0  0  0  0
   -4.0083    3.0131   -8.1981 C   0  0  0  0  0  0  0  0  0  0  0  0
   -3.2008    1.9229   -8.5437 C   0  0  0  0  0  0  0  0  0  0  0  0
    0.0672    1.5146   -2.9381 C   0  0  0  0  0  0  0  0  0  0  0  0
  1  2  1  0
  2  3  1  0
  3  4  2  0
  3 29  1  0
  4  5  1  0
  5  6  2  0
  6  7  1  0
  6  9  1  0
  7  8  1  0
  9 10  1  0
  9 29  2  0
 10 11  1  0
 11 12  1  0
 11 16  1  0
 12 13  2  0
 12 14  1  0
 14 15  1  0
 16 17  2  0
 16 21  1  0
 17 18  1  0
 18 19  2  0
 19 20  1  0
 20 21  2  0
 21 22  1  0
 22 23  1  0
 23 24  2  0
 23 28  1  0
 24 25  1  0
 25 26  2  0
 26 27  1  0
 27 28  2  0
M  ISO  1  15  18
M  END
>  <DRUGBANK_ID>  (1) 
DB17020

>  <COMMON_NAME>  (1) 
PBR-06 F-18

>  <CAS_NUMBER>  (1) 
1003581-94-9

>  <UNII>  (1) 
41TIZ5663Z

>  <SYNONYMS>  (1) 
Acetamide, n-((2,5-dimethoxyphenyl)methyl)-2-(fluoro-18f)-n-(2-phenoxyphenyl)-

$$$$
