
     RDKit          3D

 11 10  0  0  0  0  0  0  0  0999 V2000
    1.0136    0.0454   -0.0550 C   0  0  0  0  0  0  0  0  0  0  0  0
    0.5798   -0.8632   -1.1675 C   0  0  0  0  0  0  0  0  0  0  0  0
   -0.3412   -2.0286   -0.8439 C   0  0  0  0  0  0  0  0  0  0  0  0
   -1.6922   -1.9300   -1.5538 C   0  0  0  0  0  0  0  0  0  0  0  0
   -1.5689   -1.9463   -3.0523 C   0  0  0  0  0  0  0  0  0  0  0  0
   -2.0795   -2.8875   -3.8568 C   0  0  0  0  0  0  0  0  0  0  0  0
   -1.8736   -2.8684   -5.2889 C   0  0  0  0  0  0  0  0  0  0  0  0
   -2.3982   -3.7937   -6.1047 C   0  0  0  0  0  0  0  0  0  0  0  0
   -2.2049   -3.7928   -7.5357 C   0  0  0  0  0  0  0  0  0  0  0  0
   -2.7448   -4.7201   -8.3354 C   0  0  0  0  0  0  0  0  0  0  0  0
    0.9860   -0.6465   -2.3131 O   0  0  0  0  0  0  0  0  0  0  0  0
  1  2  1  0
  2  3  1  0
  2 11  2  0
  3  4  1  0
  4  5  1  0
  5  6  2  0
  6  7  1  0
  7  8  2  0
  8  9  1  0
  9 10  2  0
M  END
>  <DRUGBANK_ID>  (1) 
DB15619

>  <COMMON_NAME>  (1) 
(5Z,7E,9)-decatrien-2-one

$$$$
