
     RDKit          3D

 25 26  0  0  0  0  0  0  0  0999 V2000
    7.6803   -5.2188    1.7279 C   0  0  0  0  0  0  0  0  0  0  0  0
    7.3119   -4.5405    0.5641 N   0  0  0  0  0  0  0  0  0  0  0  0
    7.8507   -4.8066   -0.6535 C   0  0  0  0  0  0  0  0  0  0  0  0
    9.1697   -4.8494   -0.6277 C   0  0  0  0  0  0  0  0  0  0  0  0
    9.6725   -5.4079    0.6404 C   0  0  0  0  0  0  0  0  0  0  0  0
    8.9850   -5.6512    1.7048 N   0  0  0  0  0  0  0  0  0  0  0  0
    6.1677   -3.7400    0.6264 C   0  0  1  0  0  0  0  0  0  0  0  0
    5.8802   -2.4208    1.7090 C   0  0  1  0  0  0  0  0  0  0  0  0
    6.9435   -2.2888    2.7607 C   0  0  0  0  0  0  0  0  0  0  0  0
    5.9344   -1.8044   -0.7460 C   0  0  2  0  0  0  0  0  0  0  0  0
    7.3444   -1.7070   -1.2730 C   0  0  0  0  0  0  0  0  0  0  0  0
    8.2765   -1.9692   -0.2406 O   0  0  0  0  0  0  0  0  0  0  0  0
    5.6322   -1.2645    0.6607 C   0  0  1  0  0  0  0  0  0  0  0  0
    4.2519   -0.6354    0.6905 O   0  0  0  0  0  0  0  0  0  0  0  0
    2.9454   -0.9617    0.4568 C   0  0  0  0  0  0  0  0  0  0  0  0
    2.4592   -2.3637   -0.0540 C   0  0  2  0  0  0  0  0  0  0  0  0
    5.7554   -3.2365   -0.7131 O   0  0  0  0  0  0  0  0  0  0  0  0
    2.5391   -3.4007    1.1084 C   0  0  0  0  0  0  0  0  0  0  0  0
    3.0420   -2.6702   -1.3999 N   0  0  0  0  0  0  0  0  0  0  0  0
    4.6834   -2.3865    2.5710 O   0  0  0  0  0  0  0  0  0  0  0  0
    6.9556   -5.3333    2.6819 O   0  0  0  0  0  0  0  0  0  0  0  0
   10.9707   -5.7787    0.6596 N   0  0  0  0  0  0  0  0  0  0  0  0
    2.0873   -0.0910    0.6398 O   0  0  0  0  0  0  0  0  0  0  0  0
    1.9717   -4.7835    1.1710 C   0  0  0  0  0  0  0  0  0  0  0  0
    3.8377   -3.9657    0.9185 C   0  0  0  0  0  0  0  0  0  0  0  0
  1  2  1  0
  1  6  1  0
  1 21  2  0
  2  3  1  0
  3  4  2  0
  4  5  1  0
  5 22  1  0
  5  6  2  0
  7 17  1  0
  7  2  1  6
  8  7  1  0
  8 20  1  0
  8  9  1  1
 10 13  1  0
 10 11  1  1
 11 12  1  0
 13 14  1  6
 13  8  1  0
 14 15  1  0
 15 23  2  0
 16 19  1  6
 16 18  1  0
 16 15  1  0
 17 10  1  0
 18 24  1  0
 18 25  1  0
M  END
>  <DRUGBANK_ID>  (1) 
DB13920

>  <COMMON_NAME>  (1) 
Valopicitabine

>  <CAS_NUMBER>  (1) 
640281-90-9

>  <UNII>  (1) 
I2T0B5G94M

>  <SYNONYMS>  (1) 
2'-C-methylcytidine 3'-O-L-valinyl ester; Valopicitabina; Valopicitabine

$$$$
