
     RDKit          3D

 40 44  0  0  0  0  0  0  0  0999 V2000
    0.4619    1.2055   -0.0836 N   0  0  0  0  0  0  0  0  0  0  0  0
   -0.8772    1.3533   -0.0249 C   0  0  0  0  0  0  0  0  0  0  0  0
    0.9880   -0.0566    0.0016 C   0  0  0  0  0  0  0  0  0  0  0  0
    0.1966   -1.1956    0.1805 C   0  0  0  0  0  0  0  0  0  0  0  0
    2.4856   -0.0789   -0.0303 C   0  0  0  0  0  0  0  0  0  0  0  0
    0.7222   -2.5167    0.1014 N   0  0  0  0  0  0  0  0  0  0  0  0
   -1.1500   -0.9336    0.4300 C   0  0  0  0  0  0  0  0  0  0  0  0
   -1.7266    0.3069    0.2053 C   0  0  0  0  0  0  0  0  0  0  0  0
    0.1123   -3.7664    0.0221 C   0  0  0  0  0  0  0  0  0  0  0  0
   -1.3533   -3.8703   -0.1132 C   0  0  0  0  0  0  0  0  0  0  0  0
   -2.0379   -4.5589    0.8794 C   0  0  0  0  0  0  0  0  0  0  0  0
   -3.4162   -4.4277    0.9399 C   0  0  0  0  0  0  0  0  0  0  0  0
   -4.1219   -3.5937    0.0326 C   0  0  0  0  0  0  0  0  0  0  0  0
   -5.6378   -3.7269   -0.0738 C   0  0  1  0  0  0  0  0  0  0  0  0
   -5.8807   -5.1847   -0.6483 C   0  0  0  0  0  0  0  0  0  0  0  0
   -5.5422   -5.3689   -2.1222 C   0  0  0  0  0  0  0  0  0  0  0  0
   -4.1932   -5.4770   -2.4311 C   0  0  0  0  0  0  0  0  0  0  0  0
   -3.7463   -5.2559   -3.7269 C   0  0  0  0  0  0  0  0  0  0  0  0
   -4.6493   -5.1476   -4.7777 C   0  0  0  0  0  0  0  0  0  0  0  0
   -6.0034   -5.2115   -4.5253 C   0  0  0  0  0  0  0  0  0  0  0  0
   -6.4356   -5.2467   -3.2079 C   0  0  0  0  0  0  0  0  0  0  0  0
   -6.2580   -3.7126    1.3476 C   0  0  0  0  0  0  0  0  0  0  0  0
   -7.7614   -3.8721    1.3502 C   0  0  0  0  0  0  0  0  0  0  0  0
   -9.5025   -2.4873    0.8318 O   0  0  0  0  0  0  0  0  0  0  0  0
   -8.4932   -3.2553    0.1512 C   0  0  1  0  0  0  0  0  0  0  0  0
   -7.6900   -2.1906   -0.5836 C   0  0  0  0  0  0  0  0  0  0  0  0
   -6.3230   -2.6801   -1.0363 C   0  0  1  0  0  0  0  0  0  0  0  0
   -5.4778   -1.5080   -1.5381 C   0  0  0  0  0  0  0  0  0  0  0  0
   -4.0539   -1.9048   -1.8882 C   0  0  0  0  0  0  0  0  0  0  0  0
   -3.4115   -2.8780   -0.9412 C   0  0  0  0  0  0  0  0  0  0  0  0
   -2.0386   -3.1273   -1.0833 C   0  0  0  0  0  0  0  0  0  0  0  0
    0.7658   -4.7865    0.0851 O   0  0  0  0  0  0  0  0  0  0  0  0
  -10.7828   -3.5314    1.3451 P   0  0  0  0  0  0  0  0  0  0  0  0
  -11.5788   -2.3756    1.9415 O   0  0  0  0  0  0  0  0  0  0  0  0
  -11.4348   -3.7480   -0.1239 O   0  0  0  0  0  0  0  0  0  0  0  0
  -12.0632   -4.5755    1.8584 O   0  0  0  0  0  0  0  0  0  0  0  0
   -9.1023   -4.3495   -0.8377 C   0  0  0  0  0  0  0  0  0  0  0  0
   -9.8629   -3.8201   -1.8157 F   0  0  0  0  0  0  0  0  0  0  0  0
   -8.2674   -5.1400   -1.4838 F   0  0  0  0  0  0  0  0  0  0  0  0
   -9.8327   -5.2693   -0.1379 F   0  0  0  0  0  0  0  0  0  0  0  0
  1  2  2  0
  1  3  1  0
  2  8  1  0
  3  4  2  0
  4  6  1  0
  5  3  1  0
  6  9  1  0
  7  4  1  0
  8  7  2  0
  9 32  2  0
 10  9  1  0
 10 31  1  0
 11 10  2  0
 11 12  1  0
 13 12  2  0
 13 14  1  0
 14 15  1  6
 16 15  1  0
 17 16  2  0
 17 18  1  0
 18 19  2  0
 19 20  1  0
 20 21  2  0
 21 16  1  0
 22 23  1  0
 22 14  1  0
 24 33  1  0
 25 26  1  0
 25 23  1  0
 25 37  1  0
 25 24  1  1
 27 14  1  0
 27 26  1  1
 28 29  1  0
 28 27  1  0
 29 30  1  0
 30 13  1  0
 31 30  2  0
 33 34  2  0
 35 33  1  0
 36 33  1  0
 37 38  1  0
 37 39  1  0
 37 40  1  0
M  END
>  <DRUGBANK_ID>  (1) 
DB12198

>  <COMMON_NAME>  (1) 
Fosdagrocorat

>  <CAS_NUMBER>  (1) 
1044535-58-1

>  <UNII>  (1) 
HPI19004QS

>  <SYNONYMS>  (1) 
Fosdagrocorat

$$$$
