74M
     RDKit          3D

 28 29  0  0  0  0  0  0  0  0999 V2000
   -6.0511    0.4276    2.9124 C   0  0  1  0  0  0  0  0  0  0  0  0
   -6.0236   -0.2531    4.1470 O   0  0  0  0  0  0  0  0  0  0  0  0
   -5.3420   -1.2425    3.4097 C   0  0  2  0  0  0  0  0  0  0  0  0
   -3.7908   -1.5270    3.2329 C   0  0  0  0  0  0  0  0  0  0  0  0
   -2.9648   -0.9534    3.9684 O   0  0  0  0  0  0  0  0  0  0  0  0
   -3.2489   -2.4038    2.1681 N   0  0  0  0  0  0  0  0  0  0  0  0
   -3.8616   -2.9160    0.8554 C   0  0  2  0  0  0  0  0  0  0  0  0
   -3.0414   -3.2641   -0.6174 C   0  0  0  0  0  0  0  0  0  0  0  0
   -2.5873   -4.4055   -0.7535 O   0  0  0  0  0  0  0  0  0  0  0  0
   -4.6503   -1.8423    0.2784 C   0  0  2  0  0  0  0  0  0  0  0  0
   -3.6441   -0.6862    0.3357 C   0  0  0  0  0  0  0  0  0  0  0  0
   -5.8437   -1.3504    0.8830 C   0  0  0  0  0  0  0  0  0  0  0  0
   -2.8426    0.1550    1.4527 C   0  0  0  0  0  0  0  0  0  0  0  0
   -3.1043   -2.3210   -1.7770 N   0  0  0  0  0  0  0  0  0  0  0  0
   -2.7660   -0.7418   -2.0711 C   0  0  2  0  0  0  0  0  0  0  0  0
   -2.4923    0.7481   -1.2605 C   0  0  0  0  0  0  0  0  0  0  0  0
   -1.3850    0.8860   -0.7328 O   0  0  0  0  0  0  0  0  0  0  0  0
   -3.7495   -0.4834   -3.1846 C   0  0  0  0  0  0  0  0  0  0  0  0
   -3.5552   -1.7126   -4.0598 C   0  0  0  0  0  0  0  0  0  0  0  0
   -3.3409   -2.9107   -3.1007 C   0  0  0  0  0  0  0  0  0  0  0  0
   -3.6475    1.5954   -0.9868 O   0  0  0  0  0  0  0  0  0  0  0  0
   -4.1517    2.1158    0.3921 C   0  0  0  0  0  0  0  0  0  0  0  0
   -7.1841    1.3191    0.6366 N   0  0  0  0  0  0  0  0  0  0  0  0
   -8.0630    1.5660   -0.5446 C   0  0  0  0  0  0  0  0  0  0  0  0
   -8.3904    3.0660   -0.5960 C   0  0  0  0  0  0  0  0  0  0  0  0
   -7.2080    3.9794   -0.9401 C   0  0  0  0  0  0  0  0  0  0  0  0
   -7.3311    0.5293    1.8263 C   0  0  0  0  0  0  0  0  0  0  0  0
   -8.3349   -0.2254    1.9377 O   0  0  0  0  0  0  0  0  0  0  0  0
  1  2  1  0
  1  3  1  0
  1 27  1  6
  2  3  1  0
  3  4  1  1
  4  5  2  0
  4  6  1  0
  7  8  1  0
  7  6  1  1
  8  9  2  0
  8 14  1  0
 10 12  1  1
 10 11  1  0
 10  7  1  0
 11 13  1  0
 14 15  1  0
 14 20  1  0
 15 18  1  0
 15 16  1  1
 16 17  2  0
 16 21  1  0
 18 19  1  0
 19 20  1  0
 21 22  1  0
 23 24  1  0
 23 27  1  0
 24 25  1  0
 25 26  1  0
 27 28  2  0
M  END
>  <DRUGBANK_ID>  (1) 
DB07223

>  <COMMON_NAME>  (1) 
CA-074 methyl ester

>  <CAS_NUMBER>  (1) 
147859-80-1

>  <SYNONYMS>  (1) 
(S)-methyl 1-((2S,3S)-3-methyl-2-((2S,3S)-3-(propylcarbamoyl)oxirane-2-carboxamido)pentanoyl)pyrrolidine-2-carboxylate; CA 074 Me ester; CA 074 methyl ester; L-Proline, 1-[N-[[3-[(propylamino)carbonyl]oxiranyl]carbonyl]-L-isoleucyl]-, methyl ester, (2S-trans)-; L-Proline, N-[[(2S,3S)-3-[(propylamino)carbonyl]oxiranyl]carbonyl]-L-isoleucyl-, methyl ester; Methyl (2S)-1-[(2S,3S)-3-methyl-2-[[(2S,3S)-3-(propylcarbamoyl)oxirane-2-carbonyl]amino]pentanoyl]pyrrolidine-2-carboxylate; Methyl N-({(2s,3s)-3-[(propylamino)carbonyl]oxiran-2-Yl}carbonyl)-L-isoleucyl-L-prolinate

$$$$
