LJ1
     RDKit          3D

 17 18  0  0  0  0  0  0  0  0999 V2000
   -2.5861    0.5295    0.0021 C   0  0  0  0  0  0  0  0  0  0  0  0
   -1.2148   -0.0818   -0.0083 C   0  0  0  0  0  0  0  0  0  0  0  0
   -1.0747   -1.4838   -0.0100 C   0  0  0  0  0  0  0  0  0  0  0  0
   -0.0577    0.7099   -0.0020 C   0  0  0  0  0  0  0  0  0  0  0  0
   -0.1123    2.0769    0.0016 O   0  0  0  0  0  0  0  0  0  0  0  0
    1.2116    0.1289    0.0007 C   0  0  0  0  0  0  0  0  0  0  0  0
    2.4610    0.9581   -0.0234 C   0  0  0  0  0  0  0  0  0  0  0  0
    1.3191   -1.2645    0.0195 C   0  0  0  0  0  0  0  0  0  0  0  0
    0.1910   -2.0909    0.0204 C   0  0  0  0  0  0  0  0  0  0  0  0
    0.3023   -3.5599    0.0470 C   0  0  0  0  0  0  0  0  0  0  0  0
    1.4626   -4.2420    0.1067 C   0  0  0  0  0  0  0  0  0  0  0  0
    1.5442   -5.7028    0.0783 C   0  0  0  0  0  0  0  0  0  0  0  0
    0.7930   -6.4382   -0.8439 C   0  0  0  0  0  0  0  0  0  0  0  0
    0.9215   -7.8230   -0.9139 C   0  0  0  0  0  0  0  0  0  0  0  0
    1.8300   -8.4798   -0.0868 C   0  0  0  0  0  0  0  0  0  0  0  0
    2.6142   -7.7517    0.8072 C   0  0  0  0  0  0  0  0  0  0  0  0
    2.4569   -6.3680    0.9068 C   0  0  0  0  0  0  0  0  0  0  0  0
  1  2  1  0
  2  3  2  0
  2  4  1  0
  3  9  1  0
  4  5  1  0
  4  6  2  0
  6  7  1  0
  6  8  1  0
  8  9  2  0
  9 10  1  0
 10 11  2  0
 11 12  1  0
 12 13  2  0
 12 17  1  0
 13 14  1  0
 14 15  2  0
 15 16  1  0
 16 17  2  0
M  END
>  <DRUGBANK_ID>  (1) 
DB08100

>  <COMMON_NAME>  (1) 
2,6-dimethyl-4-[(E)-2-phenylethenyl]phenol

>  <UNII>  (1) 
1JVW0GEF1L

$$$$
