
     RDKit          3D

 21 23  0  0  1  0  0  0  0  0999 V2000
    1.1920   -0.0176    0.0494 O   0  0  0  0  0  0  0  0  0  0  0  0
    2.5448   -0.0261   -0.0973 C   0  0  0  0  0  0  0  0  0  0  0  0
    3.4374   -0.0863    1.1196 C   0  0  2  0  0  0  0  0  0  0  0  0
    3.0314    0.0499   -1.2407 O   0  0  0  0  0  0  0  0  0  0  0  0
    4.2740    1.2090    1.3416 C   0  0  0  0  0  0  0  0  0  0  0  0
    3.6518    2.4688    1.4270 O   0  0  0  0  0  0  0  0  0  0  0  0
    4.3128   -1.3124    1.1650 C   0  0  0  0  0  0  0  0  0  0  0  0
    5.6483   -1.2066    1.5672 C   0  0  0  0  0  0  0  0  0  0  0  0
    3.6983   -2.5684    1.0669 C   0  0  0  0  0  0  0  0  0  0  0  0
    4.4320   -3.7003    1.3707 C   0  0  0  0  0  0  0  0  0  0  0  0
    5.7803   -3.5811    1.7119 C   0  0  0  0  0  0  0  0  0  0  0  0
    6.3850   -2.3364    1.8267 C   0  0  0  0  0  0  0  0  0  0  0  0
   -1.0663    2.2116    0.9375 C   0  0  2  0  0  0  0  0  0  0  0  0
   -1.0166    0.6553    0.9507 C   0  0  0  0  0  0  0  0  0  0  0  0
   -0.0908    2.7609   -0.0996 C   0  0  0  0  0  0  0  0  0  0  0  0
    1.2024    2.8501    0.6753 C   0  0  0  0  0  0  0  0  0  0  0  0
    0.8709    2.4326    2.1176 C   0  0  2  0  0  0  0  0  0  0  0  0
    0.9921    0.9356    2.3864 C   0  0  0  0  0  0  0  0  0  0  0  0
    0.3971    0.0692    1.2766 C   0  0  2  0  0  0  0  0  0  0  0  0
   -0.5226    2.8203    2.1613 N   0  0  0  0  0  0  0  0  0  0  0  0
   -1.1707    2.4998    3.4175 C   0  0  0  0  0  0  0  0  0  0  0  0
  2  1  1  0
  2  4  2  0
  3  2  1  0
  3  7  1  0
  3  5  1  6
  6  5  1  0
  7  9  1  0
  8  7  2  0
  8 12  1  0
  9 10  2  0
 10 11  1  0
 11 12  2  0
 13 20  1  0
 13 14  1  1
 15 13  1  0
 16 15  1  0
 17 16  1  6
 17 20  1  0
 18 17  1  0
 18 19  1  0
 19  1  1  6
 19 14  1  0
 20 21  1  0
M  END
>  <DRUGBANK_ID>  (1) 
DB00424

>  <SECONDARY_ACCESSION_NUMBERS>  (1) 
APRD00607

>  <COMMON_NAME>  (1) 
Hyoscyamine

>  <CAS_NUMBER>  (1) 
101-31-5

>  <UNII>  (1) 
PX44XO846X

>  <SYNONYMS>  (1) 
(−)-atropine; (−)-hyoscyamine; (S)-(−)-hyoscyamine; (S)-atropine; [3(S)-endo]-α-(hydroxymethyl)benzeneacetic acid 8-methyl-8-azabicyclo[3.2.1]oct-3-yl ester; Daturin; Daturine; Duboisine; Hyoscyamin; Hyoscyamine; Hyoscyaminum; L-Hyoscyamine; L-Tropine tropate; Tropine-L-tropate

$$$$
