
     RDKit          3D

 19 21  0  0  0  0  0  0  0  0999 V2000
    1.4812    0.1783   -0.0025 O   0  0  0  0  0  0  0  0  0  0  0  0
    1.7091    3.6164   -0.0187 N   0  0  0  0  0  0  0  0  0  0  0  0
   -0.5086    1.9710   -2.3432 N   0  0  0  0  0  0  0  0  0  0  0  0
   -1.6893    1.4689   -0.3082 N   0  0  0  0  0  0  0  0  0  0  0  0
    0.3482    2.7248   -1.6042 C   0  0  0  0  0  0  0  0  0  0  0  0
    0.9230    2.5291   -0.3613 C   0  0  0  0  0  0  0  0  0  0  0  0
    1.6256    4.4388   -1.0495 C   0  0  0  0  0  0  0  0  0  0  0  0
    0.7335    1.3086    0.4993 C   0  0  1  0  0  0  0  0  0  0  0  0
   -0.7383    0.8182    0.6034 C   0  0  0  0  0  0  0  0  0  0  0  0
   -1.4394    1.4012   -1.6614 C   0  0  0  0  0  0  0  0  0  0  0  0
    0.8154    3.9404   -2.0335 N   0  0  0  0  0  0  0  0  0  0  0  0
    0.4872    4.5301   -3.3129 C   0  0  1  0  0  0  0  0  0  0  0  0
    0.1444    6.4389   -4.6409 C   0  0  1  0  0  0  0  0  0  0  0  0
   -0.2241    5.8752   -3.2869 C   0  0  0  0  0  0  0  0  0  0  0  0
    1.5456    5.8976   -4.8929 C   0  0  2  0  0  0  0  0  0  0  0  0
    1.6848    4.6938   -4.0974 O   0  0  0  0  0  0  0  0  0  0  0  0
    2.6888    6.8124   -4.4658 C   0  0  0  0  0  0  0  0  0  0  0  0
    3.9101    6.2139   -4.9099 O   0  0  0  0  0  0  0  0  0  0  0  0
   -0.7694    5.9263   -5.6186 O   0  0  0  0  0  0  0  0  0  0  0  0
  2  6  1  0
  2  7  2  0
  3  5  1  0
  3 10  2  0
  4  9  1  0
  4 10  1  0
  5 11  1  0
  5  6  2  0
  6  8  1  0
  7 11  1  0
  8  1  1  6
  8  9  1  0
 12 11  1  1
 12 14  1  0
 12 16  1  0
 13 14  1  0
 13 15  1  0
 13 19  1  6
 15 16  1  0
 15 17  1  1
 17 18  1  0
M  END
>  <DRUGBANK_ID>  (1) 
DB00552

>  <SECONDARY_ACCESSION_NUMBERS>  (1) 
APRD00202

>  <COMMON_NAME>  (1) 
Pentostatin

>  <CAS_NUMBER>  (1) 
53910-25-1

>  <UNII>  (1) 
395575MZO7

>  <SYNONYMS>  (1) 
Co-vidarabine; Pentostatin; Pentostatina; Pentostatine; Pentostatinum

$$$$
