
     RDKit          3D

  7  6  0  0  0  0  0  0  0  0999 V2000
    0.9664    0.0561   -0.0346 O   0  0  0  0  0  0  0  0  0  0  0  0
    0.5342    0.6957   -1.2237 C   0  0  0  0  0  0  0  0  0  0  0  0
    1.0350    2.1169   -1.2812 C   0  0  0  0  0  0  0  0  0  0  0  0
    1.7348    2.5166   -2.2068 O   0  0  0  0  0  0  0  0  0  0  0  0
    0.6465    3.0633   -0.1229 C   0  0  0  0  0  0  0  0  0  0  0  0
   -0.1473    2.5609    0.8336 O   0  0  0  0  0  0  0  0  0  0  0  0
    1.0373    4.2212   -0.1086 O   0  0  0  0  0  0  0  0  0  0  0  0
  1  2  1  0
  2  3  1  0
  3  4  2  0
  3  5  1  0
  5  6  1  0
  5  7  2  0
M  END
>  <DRUGBANK_ID>  (1) 
DB02951

>  <SECONDARY_ACCESSION_NUMBERS>  (1) 
EXPT00190

>  <COMMON_NAME>  (1) 
3-Hydroxypyruvic Acid

>  <CAS_NUMBER>  (1) 
1113-60-6

>  <UNII>  (1) 
934B2KHY0S

$$$$
