4TB
     RDKit          3D

 11 11  0  0  0  0  0  0  0  0999 V2000
   -0.9571   -0.0629    0.2692 S   0  0  0  0  0  0  0  0  0  0  0  0
    0.1909    1.1950    0.0383 C   0  0  0  0  0  0  0  0  0  0  0  0
    1.4676    0.6713    0.0014 C   0  0  0  0  0  0  0  0  0  0  0  0
    1.4768   -0.7535    0.0040 C   0  0  0  0  0  0  0  0  0  0  0  0
    0.2078   -1.2799    0.0492 C   0  0  0  0  0  0  0  0  0  0  0  0
   -0.1899    2.6530   -0.0119 C   0  0  0  0  0  0  0  0  0  0  0  0
   -1.0551    3.0450   -1.2207 C   0  0  0  0  0  0  0  0  0  0  0  0
   -2.4451    2.4052   -1.2651 C   0  0  0  0  0  0  0  0  0  0  0  0
   -3.2501    2.6768   -0.0062 C   0  0  0  0  0  0  0  0  0  0  0  0
   -4.4633    3.2152   -0.2356 O   0  0  0  0  0  0  0  0  0  0  0  0
   -2.8766    2.4455    1.1357 O   0  0  0  0  0  0  0  0  0  0  0  0
  1  2  1  0
  1  5  1  0
  2  3  2  0
  2  6  1  0
  3  4  1  0
  4  5  2  0
  6  7  1  0
  7  8  1  0
  8  9  1  0
  9 10  1  0
  9 11  2  0
M  END
>  <DRUGBANK_ID>  (1) 
DB02434

>  <SECONDARY_ACCESSION_NUMBERS>  (1) 
EXPT00230

>  <COMMON_NAME>  (1) 
4-(2-Thienyl)Butyric Acid

>  <CAS_NUMBER>  (1) 
4653-11-6

>  <UNII>  (1) 
VLB4C9G6WY

$$$$
