590
     RDKit          3D

 33 37  0  0  1  0  0  0  0  0999 V2000
    1.1215    1.4392    0.0988 O   0  0  0  0  0  0  0  0  0  0  0  0
    1.0924   -1.4519   -0.1817 O   0  0  0  0  0  0  0  0  0  0  0  0
    4.3192    1.9828   -0.5064 O   0  0  0  0  0  0  0  0  0  0  0  0
    0.2031    4.8557   10.4543 O   0  0  0  0  0  0  0  0  0  0  0  0
    2.5309    3.9286   11.8837 O   0  0  0  0  0  0  0  0  0  0  0  0
    3.6233    1.6898    1.6557 N   0  0  0  0  0  0  0  0  0  0  0  0
    2.7443    2.2019    4.3184 N   0  0  0  0  0  0  0  0  0  0  0  0
    1.9654    3.1428    6.3459 N   0  0  0  0  0  0  0  0  0  0  0  0
    3.9691    1.9095    6.2729 N   0  0  0  0  0  0  0  0  0  0  0  0
    5.2648    1.5569    8.1486 N   0  0  0  0  0  0  0  0  0  0  0  0
    3.7872    0.6621    2.6907 C   0  0  0  0  0  0  0  0  0  0  0  0
    3.7431    3.0513    2.1967 C   0  0  0  0  0  0  0  0  0  0  0  0
    2.7124    0.8370    3.7847 C   0  0  0  0  0  0  0  0  0  0  0  0
    2.6710    3.2758    3.3182 C   0  0  0  0  0  0  0  0  0  0  0  0
    3.5283    1.4591    0.2913 C   0  0  0  0  0  0  0  0  0  0  0  0
    2.2970    0.6797   -0.2325 C   0  0  0  0  0  0  0  0  0  0  0  0
    2.8941    2.4342    5.6675 C   0  0  0  0  0  0  0  0  0  0  0  0
    2.2177   -0.7299    0.3186 C   0  0  0  0  0  0  0  0  0  0  0  0
   -0.0296    0.6984    0.0229 C   0  0  0  0  0  0  0  0  0  0  0  0
    2.0988    3.3089    7.6938 C   0  0  0  0  0  0  0  0  0  0  0  0
   -0.0455   -0.6964   -0.0721 C   0  0  0  0  0  0  0  0  0  0  0  0
    3.2099    2.8261    8.3802 C   0  0  0  0  0  0  0  0  0  0  0  0
    4.1363    2.1366    7.5910 C   0  0  0  0  0  0  0  0  0  0  0  0
    1.1350    3.9711    8.4804 C   0  0  0  0  0  0  0  0  0  0  0  0
   -1.2332    1.4004    0.0707 C   0  0  0  0  0  0  0  0  0  0  0  0
    3.3579    3.0440    9.7842 C   0  0  0  0  0  0  0  0  0  0  0  0
   -1.2549   -1.3886   -0.0860 C   0  0  0  0  0  0  0  0  0  0  0  0
    1.2618    4.1825    9.8815 C   0  0  0  0  0  0  0  0  0  0  0  0
    2.4031    3.7150   10.5415 C   0  0  0  0  0  0  0  0  0  0  0  0
   -2.4470    0.7087    0.0372 C   0  0  0  0  0  0  0  0  0  0  0  0
   -2.4576   -0.6853   -0.0292 C   0  0  0  0  0  0  0  0  0  0  0  0
    0.2592    5.1201   11.8580 C   0  0  0  0  0  0  0  0  0  0  0  0
    3.6756    3.4711   12.5856 C   0  0  0  0  0  0  0  0  0  0  0  0
  1 16  1  0
  1 19  1  0
  2 18  1  0
  2 21  1  0
  3 15  2  0
  4 28  1  0
  4 32  1  0
  5 29  1  0
  5 33  1  0
  6 11  1  0
  6 12  1  0
  6 15  1  0
  7 13  1  0
  7 14  1  0
  7 17  1  0
  8 17  2  0
  8 20  1  0
  9 17  1  0
  9 23  2  0
 10 23  1  0
 11 13  1  0
 12 14  1  0
 15 16  1  0
 16 18  1  0
 19 21  2  0
 19 25  1  0
 20 22  2  0
 20 24  1  0
 21 27  1  0
 22 23  1  0
 22 26  1  0
 24 28  2  0
 25 30  2  0
 26 29  2  0
 27 31  2  0
 28 29  1  0
 30 31  1  0
M  END
>  <DRUGBANK_ID>  (1) 
DB00590

>  <SECONDARY_ACCESSION_NUMBERS>  (1) 
APRD00474

>  <COMMON_NAME>  (1) 
Doxazosin

>  <CAS_NUMBER>  (1) 
74191-85-8

>  <UNII>  (1) 
NW1291F1W8

>  <SYNONYMS>  (1) 
1-(4-Amino-6,7-dimethoxy-2-chinazolinyl)-4-(2,3-dihydro-1,4-benzodioxixin-2-ylcarbonyl)piperazin; 1-(4-Amino-6,7-Dimethoxy-2-quinazolinyl)-4-(1,4-benzodioxan-2-ylcarbonyl)piperazin; Doxazosin; Doxazosina; Doxazosine; Doxazosinum

$$$$
