
     RDKit          3D

 22 25  0  0  0  0  0  0  0  0999 V2000
    1.0584   -0.0576    0.0573 O   0  0  0  0  0  0  0  0  0  0  0  0
    2.3293   -0.0576    0.0573 C   0  0  0  0  0  0  0  0  0  0  0  0
    3.1019   -1.1339    0.0579 N   0  0  0  0  0  0  0  0  0  0  0  0
    2.6093   -2.5189    0.0591 C   0  0  0  0  0  0  0  0  0  0  0  0
    1.7648   -2.7553    1.3006 C   0  0  0  0  0  0  0  0  0  0  0  0
    0.6231   -1.8292    1.3001 N   0  0  0  0  0  0  0  0  0  0  0  0
    0.7218   -0.5155    1.3007 Se  0  0  0  0  0  2  0  0  0  0  0  0
   -0.5172    0.0021    1.3024 C   0  0  0  0  0  0  0  0  0  0  0  0
   -1.4106   -1.1057    1.3013 C   0  0  0  0  0  0  0  0  0  0  0  0
   -2.7992   -0.8577    1.3021 C   0  0  0  0  0  0  0  0  0  0  0  0
   -3.2445    0.4175    1.3048 C   0  0  0  0  0  0  0  0  0  0  0  0
   -2.3858    1.4710    1.2999 C   0  0  0  0  0  0  0  0  0  0  0  0
   -1.0457    1.2944    1.3042 C   0  0  0  0  0  0  0  0  0  0  0  0
   -0.6492   -2.1989    1.2995 C   0  0  0  0  0  0  0  0  0  0  0  0
   -1.0728   -3.3971    1.2975 O   0  0  0  0  0  0  0  0  0  0  0  0
    4.3734   -0.7891    0.0573 Se  0  0  0  0  0  2  0  0  0  0  0  0
    4.4484    0.5516    0.0583 C   0  0  0  0  0  0  0  0  0  0  0  0
    3.1061    1.0246    0.0579 C   0  0  0  0  0  0  0  0  0  0  0  0
    2.8770    2.4166    0.0580 C   0  0  0  0  0  0  0  0  0  0  0  0
    3.9309    3.2614    0.0595 C   0  0  0  0  0  0  0  0  0  0  0  0
    5.2104    2.8030    0.0540 C   0  0  0  0  0  0  0  0  0  0  0  0
    5.4906    1.4807    0.0588 C   0  0  0  0  0  0  0  0  0  0  0  0
  1  2  2  0
  2  3  1  0
  2 18  1  0
  3  4  1  0
  3 16  1  0
  4  5  1  0
  5  6  1  0
  6  7  1  0
  6 14  1  0
  7  8  1  0
  8  9  2  0
  8 13  1  0
  9 10  1  0
  9 14  1  0
 10 11  2  0
 11 12  1  0
 12 13  2  0
 14 15  2  0
 16 17  1  0
 17 18  2  0
 17 22  1  0
 18 19  1  0
 19 20  2  0
 20 21  1  0
 21 22  2  0
M  END
>  <DRUGBANK_ID>  (1) 
DB15051

>  <COMMON_NAME>  (1) 
Ethaselen

>  <CAS_NUMBER>  (1) 
217798-39-5

>  <UNII>  (1) 
4Q2EZS1IWG

$$$$
