
     RDKit          3D

 40 44  0  0  0  0  0  0  0  0999 V2000
    0.9596   -0.0161   -0.0900 P   0  0  0  0  0  0  0  0  0  0  0  0
    3.9892    0.1178   -3.4198 O   0  0  0  0  0  0  0  0  0  0  0  0
   -1.3487    1.1760    3.1348 O   0  0  0  0  0  0  0  0  0  0  0  0
    0.6874   -1.1293    1.0839 O   0  0  0  0  0  0  0  0  0  0  0  0
    0.9207   -0.8517   -1.5188 O   0  0  0  0  0  0  0  0  0  0  0  0
    2.4733    2.8215   -2.1091 O   0  0  0  0  0  0  0  0  0  0  0  0
    2.3542    3.0296   -4.7253 O   0  0  0  0  0  0  0  0  0  0  0  0
   -2.5268   -0.7126    0.5950 O   0  0  0  0  0  0  0  0  0  0  0  0
   -4.0266   -1.3922    3.0688 O   0  0  0  0  0  0  0  0  0  0  0  0
   -0.7704   -0.0161   -0.0900 O   0  0  0  0  0  0  0  0  0  0  0  0
    2.5079   -0.0161   -0.0900 O   0  0  0  0  0  0  0  0  0  0  0  0
    2.2946    2.2517    2.8533 O   0  0  0  0  0  0  0  0  0  0  0  0
    6.6779   -2.5997   -7.9025 O   0  0  0  0  0  0  0  0  0  0  0  0
    3.8951    0.1727   -5.8184 N   0  0  0  0  0  0  0  0  0  0  0  0
    0.8225    0.8463    3.9034 N   0  0  0  0  0  0  0  0  0  0  0  0
    2.9648   -2.3153   -6.3189 N   0  0  0  0  0  0  0  0  0  0  0  0
    5.4838   -0.0304   -7.4167 N   0  0  0  0  0  0  0  0  0  0  0  0
    2.7732    1.6833    5.0039 N   0  0  0  0  0  0  0  0  0  0  0  0
    4.6667   -3.6028   -7.4936 N   0  0  0  0  0  0  0  0  0  0  0  0
    2.8168   -4.6770   -6.9190 N   0  0  0  0  0  0  0  0  0  0  0  0
    3.3493    0.8941    7.0859 N   0  0  0  0  0  0  0  0  0  0  0  0
   -0.2188   -0.6990    2.1294 C   0  0  2  0  0  0  0  0  0  0  0  0
    3.0294    0.4010   -2.3886 C   0  0  1  0  0  0  0  0  0  0  0  0
    2.1470    1.5875   -2.7792 C   0  0  2  0  0  0  0  0  0  0  0  0
    2.3511    1.6664   -4.2854 C   0  0  2  0  0  0  0  0  0  0  0  0
    3.6710    0.9183   -4.5457 C   0  0  1  0  0  0  0  0  0  0  0  0
   -1.7694   -0.8355    1.8384 C   0  0  1  0  0  0  0  0  0  0  0  0
   -0.0430    0.7471    2.7146 C   0  0  1  0  0  0  0  0  0  0  0  0
   -2.3592    0.3211    2.6053 C   0  0  1  0  0  0  0  0  0  0  0  0
    2.2120   -0.9339   -2.2088 C   0  0  0  0  0  0  0  0  0  0  0  0
   -3.2734   -0.3083    3.6236 C   0  0  0  0  0  0  0  0  0  0  0  0
    3.7605   -1.1493   -6.3870 C   0  0  0  0  0  0  0  0  0  0  0  0
    4.9008    0.7801   -6.5874 C   0  0  0  0  0  0  0  0  0  0  0  0
    0.5442    0.0632    5.0007 C   0  0  0  0  0  0  0  0  0  0  0  0
    4.9169   -1.2385   -7.1594 C   0  0  0  0  0  0  0  0  0  0  0  0
    1.9851    1.6295    3.8693 C   0  0  0  0  0  0  0  0  0  0  0  0
    1.4500   -0.1210    5.9547 C   0  0  0  0  0  0  0  0  0  0  0  0
    5.4824   -2.5102   -7.5654 C   0  0  0  0  0  0  0  0  0  0  0  0
    3.4894   -3.4882   -6.9410 C   0  0  0  0  0  0  0  0  0  0  0  0
    2.5545    0.8532    5.9764 C   0  0  0  0  0  0  0  0  0  0  0  0
  1 10  1  0
  1 11  2  0
  1  5  1  0
  1  4  1  0
  2 23  1  0
  2 26  1  0
  3 28  1  0
  3 29  1  0
  5 30  1  0
  9 31  1  0
 12 36  2  0
 13 38  2  0
 14 32  1  0
 14 33  1  0
 15 34  1  0
 15 36  1  0
 16 32  1  0
 16 39  1  0
 17 33  2  0
 17 35  1  0
 18 36  1  0
 18 40  2  0
 19 38  1  0
 19 39  2  0
 20 39  1  0
 21 40  1  0
 22  4  1  6
 22 27  1  0
 22 28  1  0
 23 24  1  0
 23 30  1  6
 24  6  1  1
 24 25  1  0
 25  7  1  1
 25 26  1  0
 26 14  1  6
 27  8  1  6
 27 29  1  0
 28 15  1  1
 29 31  1  1
 32 35  2  0
 34 37  2  0
 35 38  1  0
 37 40  1  0
M  END
>  <DRUGBANK_ID>  (1) 
DB03638

>  <SECONDARY_ACCESSION_NUMBERS>  (1) 
EXPT00898

>  <COMMON_NAME>  (1) 
Cytidyl-2'-5'-phospho-guanosine

$$$$
