
     RDKit          3D

 12 12  0  0  0  0  0  0  0  0999 V2000
    1.3848   -0.2345   -0.0260 C   0  0  0  0  0  0  0  0  0  0  0  0
    0.5105   -1.3204   -0.0159 C   0  0  0  0  0  0  0  0  0  0  0  0
    0.8815    1.0636   -0.0293 C   0  0  0  0  0  0  0  0  0  0  0  0
   -0.5008    1.2747    0.0634 C   0  0  0  0  0  0  0  0  0  0  0  0
   -1.3742    0.1848   -0.0246 C   0  0  0  0  0  0  0  0  0  0  0  0
   -0.8673   -1.1112   -0.0462 C   0  0  0  0  0  0  0  0  0  0  0  0
   -1.0361    2.6367    0.4145 C   0  0  0  0  0  0  0  0  0  0  0  0
    0.1958    4.1873    1.7866 O   0  0  0  0  0  0  0  0  0  0  0  0
   -0.4565    3.1497    1.7177 C   0  0  0  0  0  0  0  0  0  0  0  0
   -0.7293    2.3122    2.9888 C   0  0  0  0  0  0  0  0  0  0  0  0
   -1.4251    1.3134    3.0354 O   0  0  0  0  0  0  0  0  0  0  0  0
   -0.1402    2.8153    4.0815 O   0  0  0  0  0  0  0  0  0  0  0  0
  1  3  2  0
  2  1  1  0
  4  3  1  0
  5  4  2  0
  5  6  1  0
  6  2  2  0
  7  4  1  0
  7  9  1  0
  9  8  2  0
  9 10  1  0
 11 10  2  0
 12 10  1  0
M  END
>  <DRUGBANK_ID>  (1) 
DB03884

>  <SECONDARY_ACCESSION_NUMBERS>  (1) 
EXPT02649

>  <COMMON_NAME>  (1) 
Phenylpyruvic acid

>  <CAS_NUMBER>  (1) 
156-06-9

>  <UNII>  (1) 
X7CO62M413

>  <SYNONYMS>  (1) 
2-oxo-3-phenylpropanic acid; 3-phenyl-2-oxopropanoate; 3-phenyl-2-oxopropanoic acid; 3-phenylpyruvic acid; alpha-Ketohydrocinnamic acid; keto-Phenylpyruvate; keto-phenylpyruvic acid; Phenylbrenztraubensäure; Phenylpyruvate; Phenylpyruvic acid; α-oxo-benzenepropanoic acid; β-phenylpyruvic acid

$$$$
