3261
     RDKit          3D

 21 24  0  0  0  0  0  0  0  0999 V2000
    1.0369   -0.0830    0.0422 Cl  0  0  0  0  0  0  0  0  0  0  0  0
    6.9551   -0.0601    0.1675 N   0  0  0  0  0  0  0  0  0  0  0  0
    6.5848   -3.0734    0.0423 N   0  0  0  0  0  0  0  0  0  0  0  0
    9.0208   -0.6239    0.6566 N   0  0  0  0  0  0  0  0  0  0  0  0
    9.0342    0.6544    0.1536 N   0  0  0  0  0  0  0  0  0  0  0  0
    5.5494   -0.0873    0.0843 C   0  0  0  0  0  0  0  0  0  0  0  0
    4.8579   -1.2863   -0.1540 C   0  0  0  0  0  0  0  0  0  0  0  0
    5.5434   -2.5755   -0.5205 C   0  0  0  0  0  0  0  0  0  0  0  0
    7.7751   -1.0557    0.6390 C   0  0  0  0  0  0  0  0  0  0  0  0
    7.2492   -2.3515    1.1261 C   0  0  0  0  0  0  0  0  0  0  0  0
    4.9375   -3.3326   -1.6515 C   0  0  0  0  0  0  0  0  0  0  0  0
    4.8396    1.1112    0.2806 C   0  0  0  0  0  0  0  0  0  0  0  0
    3.4515   -1.2679   -0.1667 C   0  0  0  0  0  0  0  0  0  0  0  0
    7.7960    0.9761   -0.1373 C   0  0  0  0  0  0  0  0  0  0  0  0
    3.4439    1.1080    0.2741 C   0  0  0  0  0  0  0  0  0  0  0  0
    2.7564   -0.0802    0.0523 C   0  0  0  0  0  0  0  0  0  0  0  0
    4.8126   -2.7147   -2.8997 C   0  0  0  0  0  0  0  0  0  0  0  0
    4.3676   -4.5840   -1.4120 C   0  0  0  0  0  0  0  0  0  0  0  0
    3.9836   -3.2847   -3.8634 C   0  0  0  0  0  0  0  0  0  0  0  0
    3.6045   -5.1862   -2.4125 C   0  0  0  0  0  0  0  0  0  0  0  0
    3.3666   -4.5108   -3.6120 C   0  0  0  0  0  0  0  0  0  0  0  0
  1 16  1  0
  2  6  1  0
  2  9  1  0
  2 14  1  0
  3  8  2  0
  3 10  1  0
  4  5  1  0
  4  9  2  0
  5 14  2  0
  6  7  2  0
  6 12  1  0
  7  8  1  0
  7 13  1  0
  8 11  1  0
  9 10  1  0
 11 17  2  0
 11 18  1  0
 12 15  2  0
 13 16  2  0
 15 16  1  0
 17 19  1  0
 18 20  2  0
 19 21  2  0
 20 21  1  0
M  END
>  <DRUGBANK_ID>  (1) 
DB01215

>  <SECONDARY_ACCESSION_NUMBERS>  (1) 
APRD00955

>  <COMMON_NAME>  (1) 
Estazolam

>  <CAS_NUMBER>  (1) 
29975-16-4

>  <UNII>  (1) 
36S3EQV54C

>  <SYNONYMS>  (1) 
8-chloro-6-phenyl-4H-s-triazolo(4,3-a)(1,4)benzodiazepine; Estazolam; Estazolamum

$$$$
