
     RDKit          3D

 29 31  0  0  0  0  0  0  0  0999 V2000
    1.0324   -1.2091   -0.0332 C   0  0  0  0  0  0  0  0  0  0  0  0
    0.1616    0.0284    0.0264 C   0  0  0  0  0  0  0  0  0  0  0  0
    0.9467    1.3174    0.0148 C   0  0  0  0  0  0  0  0  0  0  0  0
   -1.1694    0.1161    0.7554 C   0  0  0  0  0  0  0  0  0  0  0  0
   -1.6514   -0.9204    1.7073 C   0  0  0  0  0  0  0  0  0  0  0  0
   -2.2572   -0.6492    2.8833 C   0  0  0  0  0  0  0  0  0  0  0  0
   -2.8289   -1.8909    3.9408 Cl  0  0  0  0  0  0  0  0  0  0  0  0
   -2.5265    0.9784    3.4248 Cl  0  0  0  0  0  0  0  0  0  0  0  0
   -1.1624   -0.0529   -0.7354 C   0  0  0  0  0  0  0  0  0  0  0  0
   -1.5202    0.9715   -1.7867 C   0  0  0  0  0  0  0  0  0  0  0  0
   -1.6501    0.5480   -2.9328 O   0  0  0  0  0  0  0  0  0  0  0  0
   -1.7980    2.2747   -1.4171 O   0  0  0  0  0  0  0  0  0  0  0  0
   -2.4179    3.2368   -2.4436 C   0  0  0  0  0  0  0  0  0  0  0  0
   -1.7740    3.0769   -3.8112 C   0  0  0  0  0  0  0  0  0  0  0  0
   -1.2398    2.9441   -4.9456 N   0  0  0  0  0  0  0  0  0  0  0  0
   -3.9310    2.9133   -2.4989 C   0  0  0  0  0  0  0  0  0  0  0  0
   -4.3941    1.5772   -2.5180 C   0  0  0  0  0  0  0  0  0  0  0  0
   -5.7252    1.2362   -2.6611 C   0  0  0  0  0  0  0  0  0  0  0  0
   -6.6543    2.2315   -2.7916 C   0  0  0  0  0  0  0  0  0  0  0  0
   -7.9125    1.8203   -2.9841 F   0  0  0  0  0  0  0  0  0  0  0  0
   -6.2799    3.5798   -2.7270 C   0  0  0  0  0  0  0  0  0  0  0  0
   -7.1674    4.6344   -2.8211 O   0  0  0  0  0  0  0  0  0  0  0  0
   -8.5184    4.3617   -2.7771 C   0  0  0  0  0  0  0  0  0  0  0  0
   -9.1149    3.6804   -1.7074 C   0  0  0  0  0  0  0  0  0  0  0  0
  -10.4772    3.3841   -1.7403 C   0  0  0  0  0  0  0  0  0  0  0  0
  -11.2624    3.8590   -2.7884 C   0  0  0  0  0  0  0  0  0  0  0  0
  -10.6807    4.6042   -3.8159 C   0  0  0  0  0  0  0  0  0  0  0  0
   -9.3007    4.8141   -3.8376 C   0  0  0  0  0  0  0  0  0  0  0  0
   -4.9103    3.9197   -2.5992 C   0  0  0  0  0  0  0  0  0  0  0  0
  1  2  1  0
  2  3  1  0
  2  4  1  0
  2  9  1  0
  4  5  1  0
  4  9  1  0
  5  6  2  3
  6  7  1  0
  6  8  1  0
  9 10  1  0
 10 11  2  0
 10 12  1  0
 12 13  1  0
 13 14  1  0
 13 16  1  0
 14 15  3  0
 16 17  2  0
 16 29  1  0
 17 18  1  0
 18 19  2  0
 19 20  1  0
 19 21  1  0
 21 22  1  0
 21 29  2  0
 22 23  1  0
 23 24  2  0
 23 28  1  0
 24 25  1  0
 25 26  2  0
 26 27  1  0
 27 28  2  0
M  END
>  <DRUGBANK_ID>  (1) 
DB13828

>  <COMMON_NAME>  (1) 
Cyfluthrin

>  <CAS_NUMBER>  (1) 
68359-37-5

>  <UNII>  (1) 
SCM2QLZ6S0

>  <SYNONYMS>  (1) 
Cyfluthrin

$$$$
