
     RDKit          3D

 24 24  0  0  0  0  0  0  0  0999 V2000
    0.9266    0.0248   -0.0636 C   0  0  0  0  0  0  0  0  0  0  0  0
    0.2020   -0.9552   -0.1606 O   0  0  0  0  0  0  0  0  0  0  0  0
    0.4177    1.2626    0.0599 O   0  0  0  0  0  0  0  0  0  0  0  0
    2.4175    0.0169   -0.0628 C   0  0  0  0  0  0  0  0  0  0  0  0
    3.0646   -1.1567   -0.1587 C   0  0  0  0  0  0  0  0  0  0  0  0
    4.5611   -1.2830   -0.1293 C   0  0  1  0  0  0  0  0  0  0  0  0
    5.2476    0.0318    0.3215 C   0  0  1  0  0  0  0  0  0  0  0  0
    6.6929    0.0467    0.0298 N   0  0  0  0  0  0  0  0  0  0  0  0
    7.7288    0.1657    0.9181 C   0  0  0  0  0  0  0  0  0  0  0  0
    8.8869    0.1939    0.5109 O   0  0  0  0  0  0  0  0  0  0  0  0
    7.4086    0.3047    2.3787 C   0  0  0  0  0  0  0  0  0  0  0  0
    4.4560    1.1891   -0.3198 C   0  0  1  0  0  0  0  0  0  0  0  0
    3.0698    1.2209    0.0392 O   0  0  0  0  0  0  0  0  0  0  0  0
    4.9360    2.5899    0.0260 C   0  0  0  0  0  0  0  0  0  0  0  0
    5.0701    3.3932   -0.9034 O   0  0  0  0  0  0  0  0  0  0  0  0
    5.2046    2.9234    1.3556 N   0  0  0  0  0  0  0  0  0  0  0  0
    4.5441    2.2848    2.4923 C   0  0  0  0  0  0  0  0  0  0  0  0
    5.8980    4.1871    1.6439 C   0  0  0  0  0  0  0  0  0  0  0  0
    7.3891    4.1892    1.2624 C   0  0  0  0  0  0  0  0  0  0  0  0
    7.6463    4.0279   -0.2263 C   0  0  0  0  0  0  0  0  0  0  0  0
    4.9029   -2.3820    0.7621 N   0  0  0  0  0  0  0  0  0  0  0  0
    5.0890   -3.6773    0.4318 C   0  0  0  0  0  0  0  0  0  0  0  0
    5.4344   -4.5912    1.2671 N   0  0  0  0  0  0  0  0  0  0  0  0
    4.9208   -4.0261   -0.8476 N   0  0  0  0  0  0  0  0  0  0  0  0
  1  2  2  0
  1  3  1  0
  1  4  1  0
  4  5  2  0
  4 13  1  0
  5  6  1  0
  6  7  1  0
  6 21  1  1
  7  8  1  6
  7 12  1  0
  9  8  1  0
  9 10  2  0
  9 11  1  0
 12 13  1  0
 12 14  1  1
 14 15  2  0
 14 16  1  0
 17 16  1  0
 18 16  1  0
 18 19  1  0
 19 20  1  0
 22 21  1  0
 22 23  2  0
 22 24  1  0
M  END
>  <DRUGBANK_ID>  (1) 
DB03503

>  <SECONDARY_ACCESSION_NUMBERS>  (1) 
EXPT01521

>  <COMMON_NAME>  (1) 
4-Acetyl-4-guanidino-6-methyl(propyl)carboxamide-4,5-dihydro-2H-pyran-2-carboxylic acid

$$$$
