
     RDKit          3D

 23 22  0  0  0  0  0  0  0  0999 V2000
    1.9988    1.6236    1.1051 O   0  0  0  0  0  0  0  0  0  0  0  0
   -3.9471    2.6568   12.5252 O   0  0  0  0  0  0  0  0  0  0  0  0
   -1.8128    2.3526   11.9228 O   0  0  0  0  0  0  0  0  0  0  0  0
   -2.9829    3.1944    9.2231 C   0  0  0  0  0  0  0  0  0  0  0  0
   -1.4612    3.2238    9.1766 C   0  0  0  0  0  0  0  0  0  0  0  0
    1.5576    2.7956    1.7727 C   0  0  2  0  0  0  0  0  0  0  0  0
    1.7608    3.9921    0.8452 C   0  0  0  0  0  0  0  0  0  0  0  0
   -3.5227    2.1634   10.2065 C   0  0  0  0  0  0  0  0  0  0  0  0
   -0.8912    1.9201    8.6926 C   0  0  0  0  0  0  0  0  0  0  0  0
    0.4633    4.7105    0.6001 C   0  0  0  0  0  0  0  0  0  0  0  0
    2.3524    2.9412    3.0381 C   0  0  0  0  0  0  0  0  0  0  0  0
    0.2555    2.9682    6.7595 C   0  0  0  0  0  0  0  0  0  0  0  0
   -0.1234    1.8052    7.6055 C   0  0  0  0  0  0  0  0  0  0  0  0
    1.2435    6.8003    1.7065 C   0  0  0  0  0  0  0  0  0  0  0  0
    0.2374    5.9722    0.9816 C   0  0  0  0  0  0  0  0  0  0  0  0
    1.7451    2.9798    4.2250 C   0  0  0  0  0  0  0  0  0  0  0  0
    1.7363    3.1083    6.6532 C   0  0  0  0  0  0  0  0  0  0  0  0
   -2.9990    2.3961   11.6083 C   0  0  0  0  0  0  0  0  0  0  0  0
    2.4061    3.1258    5.4943 C   0  0  0  0  0  0  0  0  0  0  0  0
    1.5436    8.0576    0.9665 C   0  0  0  0  0  0  0  0  0  0  0  0
    1.4066    9.2770    1.5008 C   0  0  0  0  0  0  0  0  0  0  0  0
    0.9153    9.5283    2.8961 C   0  0  0  0  0  0  0  0  0  0  0  0
    1.9846   10.1893    3.7369 C   0  0  0  0  0  0  0  0  0  0  0  0
  2 18  1  0
  3 18  2  0
  4  5  1  0
  4  8  1  0
  5  9  1  0
  6 11  1  0
  6  7  1  0
  6  1  1  6
  7 10  1  0
  8 18  1  0
  9 13  2  0
 10 15  2  0
 11 16  2  0
 12 13  1  0
 12 17  1  0
 14 15  1  0
 14 20  1  0
 16 19  1  0
 17 19  2  0
 20 21  2  0
 21 22  1  0
 22 23  1  0
M  END
>  <DRUGBANK_ID>  (1) 
DB15571

>  <COMMON_NAME>  (1) 
(12R)-12-hydroxyeicosapentaenoic acid

>  <CAS_NUMBER>  (1) 
109430-12-8

>  <UNII>  (1) 
78P2ZC128S

$$$$
