981
     RDKit          3D

 20 22  0  0  1  0  0  0  0  0999 V2000
    1.0661   -0.0093    0.1628 O   0  0  0  0  0  0  0  0  0  0  0  0
    3.0796    0.4613   -0.7887 O   0  0  0  0  0  0  0  0  0  0  0  0
   -4.2398   -3.5863    3.6506 N   0  0  0  0  0  0  0  0  0  0  0  0
   -1.9275   -2.5900    4.0217 N   0  0  0  0  0  0  0  0  0  0  0  0
    3.1569   -0.8649    1.0186 N   0  0  0  0  0  0  0  0  0  0  0  0
   -2.8845   -2.5355    1.7693 C   0  0  1  0  0  0  0  0  0  0  0  0
   -2.8722   -3.3485    3.1637 C   0  0  2  0  0  0  0  0  0  0  0  0
   -4.2854   -3.1746    1.3738 C   0  0  0  0  0  0  0  0  0  0  0  0
   -1.4781   -2.0017    1.8493 C   0  0  0  0  0  0  0  0  0  0  0  0
   -5.0483   -3.7968    2.4892 C   0  0  0  0  0  0  0  0  0  0  0  0
   -1.1617   -1.7938    3.1918 C   0  0  0  0  0  0  0  0  0  0  0  0
   -3.0853   -1.9731    0.2849 C   0  0  0  0  0  0  0  0  0  0  0  0
   -4.4132   -4.7636    4.4980 C   0  0  0  0  0  0  0  0  0  0  0  0
   -0.5977   -1.5297    0.8700 C   0  0  0  0  0  0  0  0  0  0  0  0
   -2.0540   -2.3813    5.4446 C   0  0  0  0  0  0  0  0  0  0  0  0
   -0.1650   -0.8854    3.5321 C   0  0  0  0  0  0  0  0  0  0  0  0
    0.2763   -0.5143    1.2035 C   0  0  0  0  0  0  0  0  0  0  0  0
    0.4512   -0.1262    2.5271 C   0  0  0  0  0  0  0  0  0  0  0  0
    2.4639   -0.1158    0.0928 C   0  0  0  0  0  0  0  0  0  0  0  0
    2.7218   -1.7621    2.0656 C   0  0  0  0  0  0  0  0  0  0  0  0
  1 17  1  0
  1 19  1  0
  2 19  2  0
  7  3  1  1
  3 10  1  0
  3 13  1  0
  4  7  1  0
  4 11  1  0
  4 15  1  0
  5 19  1  0
  5 20  1  0
  6  7  1  0
  6  8  1  0
  6  9  1  0
  6 12  1  1
  8 10  1  0
  9 11  2  0
  9 14  1  0
 11 16  1  0
 14 17  2  0
 16 18  2  0
 17 18  1  0
M  END
>  <DRUGBANK_ID>  (1) 
DB00981

>  <SECONDARY_ACCESSION_NUMBERS>  (1) 
APRD00406

>  <COMMON_NAME>  (1) 
Physostigmine

>  <CAS_NUMBER>  (1) 
57-47-6

>  <UNII>  (1) 
9U1VM840SP

>  <SYNONYMS>  (1) 
Eserine; Physostigmine; Physostol

$$$$
