
     RDKit          3D

 23 25  0  0  0  0  0  0  0  0999 V2000
    0.9743   -0.1205   -0.0990 C   0  0  0  0  0  0  0  0  0  0  0  0
    0.4578   -1.4417    0.3731 C   0  0  0  0  0  0  0  0  0  0  0  0
   -0.1447   -1.5453    1.4404 O   0  0  0  0  0  0  0  0  0  0  0  0
    0.7461   -2.4385   -0.5078 O   0  0  0  0  0  0  0  0  0  0  0  0
    0.2403   -3.7439   -0.1498 C   0  0  0  0  0  0  0  0  0  0  0  0
   -1.1075   -3.7258    0.3923 N   0  0  0  0  0  0  0  0  0  0  0  0
   -1.7769   -4.7487    0.7540 C   0  0  0  0  0  0  0  0  0  0  0  0
   -3.0665   -4.4682    1.4403 C   0  0  0  0  0  0  0  0  0  0  0  0
   -3.9938   -3.6232    0.8246 C   0  0  0  0  0  0  0  0  0  0  0  0
   -5.1248   -3.2143    1.5284 C   0  0  0  0  0  0  0  0  0  0  0  0
   -5.3707   -3.7205    2.8051 C   0  0  0  0  0  0  0  0  0  0  0  0
   -4.4904   -4.6399    3.3784 C   0  0  0  0  0  0  0  0  0  0  0  0
   -3.3067   -4.9750    2.7207 C   0  0  0  0  0  0  0  0  0  0  0  0
   -1.3698   -6.1458    0.5347 C   0  0  0  0  0  0  0  0  0  0  0  0
   -2.3751   -7.0351    0.1284 C   0  0  0  0  0  0  0  0  0  0  0  0
   -2.0730   -8.3711   -0.0885 C   0  0  0  0  0  0  0  0  0  0  0  0
   -3.3121   -9.4434   -0.6044 Cl  0  0  0  0  0  0  0  0  0  0  0  0
   -0.7773   -8.8355    0.1097 C   0  0  0  0  0  0  0  0  0  0  0  0
    0.2210   -7.9561    0.5455 C   0  0  0  0  0  0  0  0  0  0  0  0
   -0.0608   -6.5964    0.7387 C   0  0  0  0  0  0  0  0  0  0  0  0
    0.9991   -5.7776    1.1532 N   0  0  0  0  0  0  0  0  0  0  0  0
    1.2257   -4.4596    0.8217 C   0  0  0  0  0  0  0  0  0  0  0  0
    2.2911   -3.9562    1.1952 O   0  0  0  0  0  0  0  0  0  0  0  0
  1  2  1  0
  2  3  2  0
  2  4  1  0
  4  5  1  0
  5  6  1  0
  5 22  1  0
  6  7  2  0
  7  8  1  0
  7 14  1  0
  8  9  2  0
  8 13  1  0
  9 10  1  0
 10 11  2  0
 11 12  1  0
 12 13  2  0
 14 15  2  0
 14 20  1  0
 15 16  1  0
 16 17  1  0
 16 18  2  0
 18 19  1  0
 19 20  2  0
 20 21  1  0
 21 22  1  0
 22 23  2  0
M  END
>  <DRUGBANK_ID>  (1) 
DB14672

>  <SECONDARY_ACCESSION_NUMBERS>  (1) 
DBSALT002278

>  <COMMON_NAME>  (1) 
Oxazepam acetate

>  <CAS_NUMBER>  (1) 
1824-74-4

>  <UNII>  (1) 
611V4315UA

>  <SYNONYMS>  (1) 
(+/-)-oxazepam 3-acetate; (+/-)-oxazepam acetate

$$$$
