
     RDKit          3D

 19 20  0  0  0  0  0  0  0  0999 V2000
    0.5758    0.0687    0.1801 C   0  0  0  0  0  0  0  0  0  0  0  0
    2.7027   -2.5928   -2.3172 C   0  0  0  0  0  0  0  0  0  0  0  0
    0.2746    0.7772   -1.1129 C   0  0  0  0  0  0  0  0  0  0  0  0
    2.2083    4.5141   -0.4300 C   0  0  0  0  0  0  0  0  0  0  0  0
    2.5109    4.2372   -1.7573 C   0  0  0  0  0  0  0  0  0  0  0  0
    2.4157    3.5479    0.5482 C   0  0  0  0  0  0  0  0  0  0  0  0
    4.9353   -0.6430   -3.4314 C   0  0  0  0  0  0  0  0  0  0  0  0
    2.9862    2.9803   -2.1077 C   0  0  0  0  0  0  0  0  0  0  0  0
    2.9699    2.3143    0.2086 C   0  0  0  0  0  0  0  0  0  0  0  0
    4.7650    0.4775   -2.3971 C   0  0  0  0  0  0  0  0  0  0  0  0
    3.5489   -0.5595   -0.4882 C   0  0  0  0  0  0  0  0  0  0  0  0
    5.0374   -2.0797   -2.9110 C   0  0  0  0  0  0  0  0  0  0  0  0
    4.3238   -1.8714   -0.6548 C   0  0  0  0  0  0  0  0  0  0  0  0
    3.1894    1.9759   -1.1353 C   0  0  0  0  0  0  0  0  0  0  0  0
    2.1416    0.3498   -2.7072 C   0  0  0  0  0  0  0  0  0  0  0  0
    3.3943    0.5236   -1.6513 C   0  0  0  0  0  0  0  0  0  0  0  0
    4.0989   -2.5809   -1.9055 N   0  0  0  0  0  0  0  0  0  0  0  0
    2.2779    0.3087   -3.9088 O   0  0  0  0  0  0  0  0  0  0  0  0
    0.8850    0.1100   -2.2214 O   0  0  0  0  0  0  0  0  0  0  0  0
  3  1  1  0
  5  4  2  0
  6  4  1  0
  8  5  1  0
  9  6  2  0
 10  7  1  0
 12  7  1  0
 13 11  1  0
 14  8  2  0
 14  9  1  0
 16 10  1  0
 16 11  1  0
 16 14  1  0
 16 15  1  0
 17  2  1  0
 17 12  1  0
 17 13  1  0
 18 15  2  0
 19  3  1  0
 19 15  1  0
M  END
>  <DRUGBANK_ID>  (1) 
DB08988

>  <COMMON_NAME>  (1) 
Ethoheptazine

>  <CAS_NUMBER>  (1) 
77-15-6

>  <UNII>  (1) 
3A4G3A848U

>  <SYNONYMS>  (1) 
Ethoheptazin; Ethoheptazine; Ethoheptazinum; Etoheptazina

$$$$
