
     RDKit          3D

 30 29  0  0  0  0  0  0  0  0999 V2000
    0.6526   -0.1517    0.1278 C   0  0  0  0  0  0  0  0  0  0  0  0
    0.4598    0.0619    1.5493 N   0  0  0  0  0  0  0  0  0  0  0  0
   -0.9819    0.1921    1.7321 C   0  0  0  0  0  0  0  0  0  0  0  0
    0.9395   -1.0287    2.3862 C   0  0  0  0  0  0  0  0  0  0  0  0
    0.6173   -2.4230    1.8449 C   0  0  0  0  0  0  0  0  0  0  0  0
    1.2468   -2.8767    0.5124 C   0  0  0  0  0  0  0  0  0  0  0  0
    2.7551   -2.7275    0.3903 C   0  0  0  0  0  0  0  0  0  0  0  0
    3.4346   -3.9130   -0.1872 C   0  0  0  0  0  0  0  0  0  0  0  0
    3.4895   -1.6580    0.7557 C   0  0  0  0  0  0  0  0  0  0  0  0
    4.9667   -1.4123    0.7275 C   0  0  0  0  0  0  0  0  0  0  0  0
    5.3738   -0.2021   -0.1467 C   0  0  0  0  0  0  0  0  0  0  0  0
    4.9638    1.1762    0.3585 C   0  0  0  0  0  0  0  0  0  0  0  0
    5.9920    2.1691    0.7550 C   0  0  0  0  0  0  0  0  0  0  0  0
    3.6591    1.5720    0.3722 C   0  0  0  0  0  0  0  0  0  0  0  0
    3.0351    2.8143    0.9356 C   0  0  0  0  0  0  0  0  0  0  0  0
    2.2183    3.5968   -0.1025 C   0  0  0  0  0  0  0  0  0  0  0  0
    0.9968    2.8749   -0.5829 C   0  0  0  0  0  0  0  0  0  0  0  0
   -0.3290    3.1235   -0.4544 C   0  0  0  0  0  0  0  0  0  0  0  0
   -0.7557    4.3964    0.1992 C   0  0  0  0  0  0  0  0  0  0  0  0
   -1.5156    2.2252   -0.9192 C   0  0  0  0  0  0  0  0  0  0  0  0
   -1.5816    1.7512   -2.3702 C   0  0  0  0  0  0  0  0  0  0  0  0
   -0.4608    0.8163   -2.6825 C   0  0  0  0  0  0  0  0  0  0  0  0
   -0.3793   -0.4718   -3.0386 C   0  0  0  0  0  0  0  0  0  0  0  0
   -1.5969   -1.3070   -3.2253 C   0  0  0  0  0  0  0  0  0  0  0  0
    0.9831   -1.1351   -3.2554 C   0  0  0  0  0  0  0  0  0  0  0  0
    1.8703   -0.4394   -4.3116 C   0  0  0  0  0  0  0  0  0  0  0  0
    2.3519    0.9428   -3.9388 C   0  0  0  0  0  0  0  0  0  0  0  0
    3.6073    1.3257   -3.6680 C   0  0  0  0  0  0  0  0  0  0  0  0
    3.9031    2.7112   -3.1726 C   0  0  0  0  0  0  0  0  0  0  0  0
    4.7533    0.4041   -3.9028 C   0  0  0  0  0  0  0  0  0  0  0  0
  1  2  1  0
  2  3  1  0
  2  4  1  0
  4  5  1  0
  5  6  1  0
  6  7  1  0
  7  8  1  0
  7  9  2  0
  9 10  1  0
 10 11  1  0
 11 12  1  0
 12 13  1  0
 12 14  2  0
 14 15  1  0
 15 16  1  0
 16 17  1  0
 17 18  2  0
 18 19  1  0
 18 20  1  0
 20 21  1  0
 21 22  1  0
 22 23  2  0
 23 24  1  0
 23 25  1  0
 25 26  1  0
 26 27  1  0
 27 28  2  3
 28 29  1  0
 28 30  1  0
M  END
>  <DRUGBANK_ID>  (1) 
DB03874

>  <SECONDARY_ACCESSION_NUMBERS>  (1) 
EXPT02951

>  <COMMON_NAME>  (1) 
(4e,8e,12z,16z)-N,N,4,8,13,17,21-Heptamethyldocosa-4,8,12,16,20-Pentaen-1-Amine

$$$$
