
     RDKit          3D

 11 11  0  0  0  0  0  0  0  0999 V2000
    1.0919    0.0059    0.0389 N   0  0  0  0  0  0  0  0  0  0  0  0
    0.6019   -0.6933    1.2355 C   0  0  0  0  0  0  0  0  0  0  0  0
    1.1086    0.0167    2.4803 C   0  0  0  0  0  0  0  0  0  0  0  0
    0.6019    1.4498    2.4878 C   0  0  0  0  0  0  0  0  0  0  0  0
   -0.9181    1.4498    2.4878 C   0  0  0  0  0  0  0  0  0  0  0  0
   -1.3914    0.7743    3.6437 O   0  0  0  0  0  0  0  0  0  0  0  0
   -0.8914   -0.6399    3.6363 B   0  0  0  0  0  0  0  0  0  0  0  0
    0.4273   -0.9597    3.7673 O   0  0  0  0  0  0  0  0  0  0  0  0
    0.5132   -2.3913    3.9458 C   0  0  0  0  0  0  0  0  0  0  0  0
   -0.8758   -2.9175    3.5243 C   0  0  0  0  0  0  0  0  0  0  0  0
   -1.7083   -1.7294    3.4979 O   0  0  0  0  0  0  0  0  0  0  0  0
  1  2  1  0
  2  3  1  0
  3  4  1  0
  4  5  1  0
  5  6  1  0
  6  7  1  0
  7  8  1  0
  7 11  1  0
  8  9  1  0
  9 10  1  0
 10 11  1  0
M  CHG  1   1   1
M  END
>  <DRUGBANK_ID>  (1) 
DB02308

>  <SECONDARY_ACCESSION_NUMBERS>  (1) 
EXPT01310

>  <COMMON_NAME>  (1) 
4-(1,3,2-Dioxaborolan-2-Yloxy)Butan-1-Aminium

$$$$
