PYU
     RDKit          3D

 16 17  0  0  0  0  0  0  0  0999 V2000
   -0.3197   -1.1104    0.0137 N   0  0  0  0  0  0  0  0  0  0  0  0
    0.3001   -4.5052   -1.0051 C   0  0  0  0  0  0  0  0  0  0  0  0
    2.1203   -4.7080    1.1230 C   0  0  0  0  0  0  0  0  0  0  0  0
    1.2589   -5.5169   -0.9981 C   0  0  0  0  0  0  0  0  0  0  0  0
   -1.1526   -0.0024    0.0009 C   0  0  0  0  0  0  0  0  0  0  0  0
    0.9805   -0.6355   -0.0317 C   0  0  0  0  0  0  0  0  0  0  0  0
   -0.3817    1.1407    0.0011 C   0  0  0  0  0  0  0  0  0  0  0  0
    0.9689    0.7378   -0.0088 C   0  0  0  0  0  0  0  0  0  0  0  0
    0.2516   -3.5851    0.0460 C   0  0  0  0  0  0  0  0  0  0  0  0
    2.1608   -5.6103    0.0608 C   0  0  0  0  0  0  0  0  0  0  0  0
    1.1591   -3.6961    1.1089 C   0  0  0  0  0  0  0  0  0  0  0  0
   -0.7120   -2.4665    0.0100 C   0  0  0  0  0  0  0  0  0  0  0  0
   -1.9102   -2.7267   -0.1208 O   0  0  0  0  0  0  0  0  0  0  0  0
    3.0829   -6.6153    0.0094 O   0  0  0  0  0  0  0  0  0  0  0  0
    1.0948   -2.7852    2.1276 O   0  0  0  0  0  0  0  0  0  0  0  0
   -0.5306   -4.4505   -2.0910 O   0  0  0  0  0  0  0  0  0  0  0  0
  1  5  1  0
  1  6  1  0
  2 16  1  0
  3 11  1  0
  3 10  2  0
  4  2  2  0
  5  7  2  0
  6  8  2  0
  7  8  1  0
  9  2  1  0
  9 12  1  0
 10  4  1  0
 11  9  2  0
 12  1  1  0
 13 12  2  0
 14 10  1  0
 15 11  1  0
M  END
>  <DRUGBANK_ID>  (1) 
DB08443

>  <COMMON_NAME>  (1) 
2-(1H-pyrrol-1-ylcarbonyl)benzene-1,3,5-triol

$$$$
