
     RDKit          3D

  8  6  0  0  0  0  0  0  0  0999 V2000
    0.8677   -0.1080    0.1361 N   0  0  0  0  0  0  0  0  0  0  0  0
    0.3219   -2.6377    1.7380 O   0  0  0  0  0  0  0  0  0  0  0  0
    0.3592   -1.4537   -0.3910 C   0  0  0  0  0  0  0  0  0  0  0  0
    0.8246   -2.6731    0.4130 C   0  0  0  0  0  0  0  0  0  0  0  0
    2.9823    3.1462   -0.5908 Cl  0  0  0  0  0  0  0  0  0  0  0  0
    0.3817    0.3081    1.5130 C   0  0  0  0  0  0  0  0  0  0  0  0
    0.2708    0.9613   -0.8183 C   0  0  0  0  0  0  0  0  0  0  0  0
    2.4054   -0.1444    0.1615 C   0  0  0  0  0  0  0  0  0  0  0  0
  1  6  1  0
  1  7  1  0
  1  8  1  0
  2  4  1  0
  3  1  1  0
  4  3  1  0
M  CHG  2   1   1   5  -1
M  ISO  1   8  11
M  END
>  <DRUGBANK_ID>  (1) 
DB09277

>  <COMMON_NAME>  (1) 
Choline C 11

>  <CAS_NUMBER>  (1) 
87591-54-6

>  <UNII>  (1) 
381E0BTR5Q

>  <SYNONYMS>  (1) 
11C-choline; 11C-choline chloride

$$$$
