
     RDKit          3D

 30 33  0  0  0  0  0  0  0  0999 V2000
    1.4299    0.1062   -0.7791 C   0  0  0  0  0  0  0  0  0  0  0  0
    1.2029    1.7208   -3.4062 C   0  0  0  0  0  0  0  0  0  0  0  0
   -5.0372   -1.5926   -2.5352 C   0  0  0  0  0  0  0  0  0  0  0  0
    0.7379    3.0114   -3.0833 C   0  0  0  0  0  0  0  0  0  0  0  0
   -5.7353   -0.3915   -2.4887 C   0  0  0  0  0  0  0  0  0  0  0  0
    0.3566    0.6624   -3.2709 C   0  0  0  0  0  0  0  0  0  0  0  0
   -3.6608   -1.6112   -2.2897 C   0  0  0  0  0  0  0  0  0  0  0  0
   -0.5519    3.1516   -2.5517 C   0  0  0  0  0  0  0  0  0  0  0  0
   -5.0840    0.7794   -2.1177 C   0  0  0  0  0  0  0  0  0  0  0  0
   -2.2318   -2.1671    1.0426 C   0  0  0  0  0  0  0  0  0  0  0  0
   -0.8507   -0.0071    1.2853 C   0  0  0  0  0  0  0  0  0  0  0  0
   -0.8648   -2.8170    1.2178 C   0  0  0  0  0  0  0  0  0  0  0  0
    0.5809   -0.8196    1.4574 C   0  0  0  0  0  0  0  0  0  0  0  0
   -2.8472   -0.4825    2.7827 C   0  0  0  0  0  0  0  0  0  0  0  0
    0.4061   -2.7340    3.9129 C   0  0  0  0  0  0  0  0  0  0  0  0
   -2.3857   -1.0473    4.1947 C   0  0  0  0  0  0  0  0  0  0  0  0
   -0.0774   -1.2021    4.0093 C   0  0  0  0  0  0  0  0  0  0  0  0
    1.1427   -2.4244   -0.2079 C   0  0  0  0  0  0  0  0  0  0  0  0
   -0.7420   -1.4273   -1.5348 C   0  0  0  0  0  0  0  0  0  0  0  0
    0.7982   -1.3063   -1.2222 C   0  0  0  0  0  0  0  0  0  0  0  0
   -0.8714    0.7606   -2.5905 C   0  0  0  0  0  0  0  0  0  0  0  0
   -2.9570   -0.4274   -2.0508 C   0  0  0  0  0  0  0  0  0  0  0  0
   -1.3434    2.0651   -2.2601 C   0  0  0  0  0  0  0  0  0  0  0  0
   -3.6996    0.7651   -1.8780 C   0  0  0  0  0  0  0  0  0  0  0  0
   -2.1775   -0.7444    1.4785 N   0  0  0  0  0  0  0  0  0  0  0  0
    0.4494   -2.1871    1.0132 N   0  0  0  0  0  0  0  0  0  0  0  0
   -1.5372   -0.3936   -2.2386 N   0  0  0  0  0  0  0  0  0  0  0  0
   -0.5721   -3.7241    4.2507 O   0  0  0  0  0  0  0  0  0  0  0  0
   -1.1304   -0.6987    4.7864 O   0  0  0  0  0  0  0  0  0  0  0  0
   -2.9077    2.3032   -1.4405 S   0  0  0  0  0  0  0  0  0  0  0  0
  4  2  2  0
  5  3  2  0
  6  2  1  0
  7  3  1  0
  8  4  1  0
  9  5  1  0
 12 10  1  0
 13 11  1  0
 16 14  1  0
 17 15  1  0
 20  1  1  0
 20 18  1  0
 20 19  1  0
 21  6  2  0
 22  7  2  0
 23  8  2  0
 23 21  1  0
 24  9  2  0
 24 22  1  0
 25 10  1  0
 25 11  1  0
 25 14  1  0
 26 12  1  0
 26 13  1  0
 26 18  1  0
 27 19  1  0
 27 21  1  0
 27 22  1  0
 28 15  1  0
 29 16  1  0
 29 17  1  0
 30 23  1  0
 30 24  1  0
M  END
>  <DRUGBANK_ID>  (1) 
DB13784

>  <COMMON_NAME>  (1) 
Dixyrazine

>  <CAS_NUMBER>  (1) 
2470-73-7

>  <UNII>  (1) 
7H368W3AYC

$$$$
