
     RDKit          3D

 22 25  0  0  0  0  0  0  0  0999 V2000
   -0.2391   -1.4565   -0.1041 C   0  0  0  0  0  0  0  0  0  0  0  0
    1.6994    4.1638    3.1591 C   0  0  0  0  0  0  0  0  0  0  0  0
    1.6899    2.8894    3.7469 C   0  0  0  0  0  0  0  0  0  0  0  0
    0.9102   -0.7459   -0.3270 C   0  0  0  0  0  0  0  0  0  0  0  0
   -1.3559   -0.6690    0.0449 C   0  0  0  0  0  0  0  0  0  0  0  0
   -0.5211    4.9895    0.4544 C   0  0  0  0  0  0  0  0  0  0  0  0
    1.1970    4.6207   -1.1697 C   0  0  0  0  0  0  0  0  0  0  0  0
   -0.6354    3.4685    0.7700 C   0  0  0  0  0  0  0  0  0  0  0  0
    1.0956    3.1127   -0.9219 C   0  0  0  0  0  0  0  0  0  0  0  0
    3.1245    3.3610    1.3741 C   0  0  0  0  0  0  0  0  0  0  0  0
    1.8662    5.5909    1.0549 C   0  0  0  0  0  0  0  0  0  0  0  0
    2.8006   -0.0563    2.2246 C   0  0  0  0  0  0  0  0  0  0  0  0
    2.2988    4.3798    1.8953 C   0  0  0  0  0  0  0  0  0  0  0  0
    2.2787    1.8554    3.0584 C   0  0  0  0  0  0  0  0  0  0  0  0
    2.9852    2.0822    1.9064 C   0  0  0  0  0  0  0  0  0  0  0  0
   -0.1960    1.2987   -0.1865 C   0  0  0  0  0  0  0  0  0  0  0  0
    0.9417    0.5895   -0.3791 N   0  0  0  0  0  0  0  0  0  0  0  0
   -1.3623    0.6756    0.0551 N   0  0  0  0  0  0  0  0  0  0  0  0
    0.8185    5.4396    0.0005 N   0  0  0  0  0  0  0  0  0  0  0  0
   -0.2106    2.6814   -0.4133 N   0  0  0  0  0  0  0  0  0  0  0  0
    2.1980    0.5390    3.3854 O   0  0  0  0  0  0  0  0  0  0  0  0
    3.3514    0.9112    1.3028 O   0  0  0  0  0  0  0  0  0  0  0  0
  3  2  2  0
  4  1  2  0
  5  1  1  0
  8  6  1  0
  9  7  1  0
 13  2  1  0
 13 10  2  0
 13 11  1  0
 14  3  1  0
 15 10  1  0
 15 14  2  0
 17  4  1  0
 17 16  2  0
 18  5  2  0
 18 16  1  0
 19  6  1  0
 19  7  1  0
 19 11  1  0
 20  8  1  0
 20  9  1  0
 20 16  1  0
 21 12  1  0
 21 14  1  0
 22 12  1  0
 22 15  1  0
M  END
>  <DRUGBANK_ID>  (1) 
DB12478

>  <COMMON_NAME>  (1) 
Piribedil

>  <CAS_NUMBER>  (1) 
3605-01-4

>  <UNII>  (1) 
DO22K1PRDJ

>  <SYNONYMS>  (1) 
Piribedil

$$$$
