DST
     RDKit          3D

 14 13  0  0  0  0  0  0  0  0999 V2000
    0.6227    0.4473   -0.5392 O   0  0  0  0  0  0  0  0  0  0  0  0
    0.7482    2.0018   -0.1911 P   0  0  0  0  0  0  0  0  0  0  0  0
   -0.1251    2.0082    1.1408 O   0  0  0  0  0  0  0  0  0  0  0  0
    2.2043    2.3185    0.0368 O   0  0  0  0  0  0  0  0  0  0  0  0
    0.0249    2.9264   -1.3078 O   0  0  0  0  0  0  0  0  0  0  0  0
   -0.1826    2.3472   -2.8002 P   0  0  1  0  0  0  0  0  0  0  0  0
    1.2916    1.7030   -2.9087 O   0  0  0  0  0  0  0  0  0  0  0  0
   -1.2989    1.3599   -2.7668 O   0  0  0  0  0  0  0  0  0  0  0  0
   -0.2957    3.3055   -4.6496 S   0  0  0  0  0  0  0  0  0  0  0  0
   -0.0947    5.0137   -5.1270 C   0  0  0  0  0  0  0  0  0  0  0  0
   -1.1822    5.8998   -4.5392 C   0  0  0  0  0  0  0  0  0  0  0  0
   -1.1400    5.8909   -3.0089 C   0  0  0  0  0  0  0  0  0  0  0  0
    0.2283    6.3420   -2.4970 C   0  0  0  0  0  0  0  0  0  0  0  0
   -2.2619    6.7310   -2.4270 C   0  0  0  0  0  0  0  0  0  0  0  0
  1  2  1  0
  2  3  1  0
  2  4  2  0
  2  5  1  0
  6  5  1  0
  6  7  1  0
  6  8  2  0
  6  9  1  0
  9 10  1  0
 10 11  1  0
 11 12  1  0
 12 13  1  0
 12 14  1  0
M  END
>  <DRUGBANK_ID>  (1) 
DB02270

>  <SECONDARY_ACCESSION_NUMBERS>  (1) 
EXPT01279

>  <COMMON_NAME>  (1) 
Dimethylallyl S-Thiolodiphosphate

$$$$
