1176
     RDKit          3D

 20 22  0  0  0  0  0  0  0  0999 V2000
    0.9674    0.0153   -0.2923 N   0  0  0  0  0  0  0  0  0  0  0  0
   -2.0093   -0.0682    0.1844 N   0  0  0  0  0  0  0  0  0  0  0  0
    0.2568   -1.2027    0.1298 C   0  0  0  0  0  0  0  0  0  0  0  0
    0.1819    1.1808    0.1432 C   0  0  0  0  0  0  0  0  0  0  0  0
    2.4227    0.0790    0.0923 C   0  0  0  0  0  0  0  0  0  0  0  0
   -1.2295   -1.2348   -0.2870 C   0  0  0  0  0  0  0  0  0  0  0  0
   -1.3050    1.1492   -0.2329 C   0  0  0  0  0  0  0  0  0  0  0  0
    3.0961    1.3303   -0.5420 C   0  0  0  0  0  0  0  0  0  0  0  0
    2.7393   -0.0521    1.6093 C   0  0  0  0  0  0  0  0  0  0  0  0
   -2.1783   -0.0658    1.6403 C   0  0  0  0  0  0  0  0  0  0  0  0
    2.7378    2.6232   -0.0875 C   0  0  0  0  0  0  0  0  0  0  0  0
    2.3353   -1.1697    2.3567 C   0  0  0  0  0  0  0  0  0  0  0  0
    4.1240    1.2463   -1.4827 C   0  0  0  0  0  0  0  0  0  0  0  0
    3.4706    0.9240    2.3130 C   0  0  0  0  0  0  0  0  0  0  0  0
    3.3063    3.7866   -0.5817 C   0  0  0  0  0  0  0  0  0  0  0  0
    2.4606   -1.2087    3.7477 C   0  0  0  0  0  0  0  0  0  0  0  0
    4.7665    2.4192   -1.9193 C   0  0  0  0  0  0  0  0  0  0  0  0
    3.6788    0.8514    3.6883 C   0  0  0  0  0  0  0  0  0  0  0  0
    4.3367    3.6798   -1.4889 C   0  0  0  0  0  0  0  0  0  0  0  0
    3.1355   -0.1947    4.4126 C   0  0  0  0  0  0  0  0  0  0  0  0
  1  3  1  0
  1  4  1  0
  1  5  1  0
  2  6  1  0
  2  7  1  0
  2 10  1  0
  3  6  1  0
  4  7  1  0
  5  8  1  0
  5  9  1  0
  8 11  2  0
  8 13  1  0
  9 12  2  0
  9 14  1  0
 11 15  1  0
 12 16  1  0
 13 17  2  0
 14 18  2  0
 15 19  2  0
 16 20  2  0
 17 19  1  0
 18 20  1  0
M  END
>  <DRUGBANK_ID>  (1) 
DB01176

>  <SECONDARY_ACCESSION_NUMBERS>  (1) 
APRD00061

>  <COMMON_NAME>  (1) 
Cyclizine

>  <CAS_NUMBER>  (1) 
82-92-8

>  <UNII>  (1) 
QRW9FCR9P2

>  <SYNONYMS>  (1) 
(Â±)-1-diphenylmethyl-4-methylpiperazine; (N-Benzhydryl)(N'-methyl)diethylenediamine; 1-(Diphenylmethyl)-4-methylpiperazine; 1-Benzhydryl-4-methylpiperazin; Ciclizina; Cyclizine; Cyclizinum; N-Benzhydryl-N'-methylpiperazine; N-methyl-N'-benzhydrylpiperazine

$$$$
