WRB
     RDKit          3D

 22 23  0  0  0  0  0  0  0  0999 V2000
    0.3318   -0.6811   -0.4363 C   0  0  0  0  0  0  0  0  0  0  0  0
    1.3487    0.3081   -0.2887 N   0  0  0  0  0  0  0  0  0  0  0  0
    0.8915    1.4353   -0.0617 C   0  0  0  0  0  0  0  0  0  0  0  0
   -0.4533    1.7587    0.0060 N   0  0  0  0  0  0  0  0  0  0  0  0
   -1.3571    0.8059   -0.1284 C   0  0  0  0  0  0  0  0  0  0  0  0
   -1.0752   -0.5022   -0.4033 N   0  0  0  0  0  0  0  0  0  0  0  0
   -2.1439   -1.5828   -0.6104 O   0  0  0  0  0  0  0  0  0  0  0  0
   -1.8692   -3.0170   -0.2430 C   0  0  0  0  0  0  0  0  0  0  0  0
   -0.9824   -3.9202   -1.1631 C   0  0  0  0  0  0  0  0  0  0  0  0
    0.4537   -3.5487   -0.8429 C   0  0  0  0  0  0  0  0  0  0  0  0
    1.3356   -3.6856    0.3772 O   0  0  0  0  0  0  0  0  0  0  0  0
    1.0131   -3.5586    1.7747 C   0  0  0  0  0  0  0  0  0  0  0  0
   -0.2301   -4.0297    2.1539 C   0  0  0  0  0  0  0  0  0  0  0  0
   -0.9299   -3.3724    3.1908 C   0  0  0  0  0  0  0  0  0  0  0  0
    1.6838   -2.6056    2.7230 C   0  0  0  0  0  0  0  0  0  0  0  0
    0.9873   -2.0397    3.8388 C   0  0  0  0  0  0  0  0  0  0  0  0
   -0.3169   -2.4564    4.0597 C   0  0  0  0  0  0  0  0  0  0  0  0
    0.5172   -1.1196    0.9803 C   0  0  0  0  0  0  0  0  0  0  0  0
    0.8456   -1.1192   -1.8514 C   0  0  0  0  0  0  0  0  0  0  0  0
    1.9851    2.2123    0.1173 N   0  0  0  0  0  0  0  0  0  0  0  0
   -2.6782    1.0454   -0.0312 N   0  0  0  0  0  0  0  0  0  0  0  0
   -1.2738   -1.8654    5.5795 Br  0  0  0  0  0  0  0  0  0  0  0  0
  1  2  1  0
  1  6  1  0
  1 18  1  0
  1 19  1  0
  2  3  2  0
  3  4  1  0
  3 20  1  0
  4  5  2  0
  5  6  1  0
  5 21  1  0
  6  7  1  0
  7  8  1  0
  8  9  1  0
  9 10  1  0
 10 11  1  0
 11 12  1  0
 12 13  2  0
 12 15  1  0
 13 14  1  0
 14 17  2  0
 15 16  2  0
 16 17  1  0
 17 22  1  0
M  END
>  <DRUGBANK_ID>  (1) 
DB04007

>  <SECONDARY_ACCESSION_NUMBERS>  (1) 
EXPT03244

>  <COMMON_NAME>  (1) 
Bromo-WR99210

>  <UNII>  (1) 
8S51TS26BA

$$$$
