
     RDKit          3D

 41 46  0  0  0  0  0  0  0  0999 V2000
    1.2115    0.7523   -0.2428 O   0  0  0  0  0  0  0  0  0  0  0  0
   -1.8058    0.1581   -0.6327 O   0  0  0  0  0  0  0  0  0  0  0  0
    0.0087    2.9977    2.0845 O   0  0  0  0  0  0  0  0  0  0  0  0
   -1.7460   -3.7310   -1.6653 O   0  0  0  0  0  0  0  0  0  0  0  0
    0.6707   -2.3102   -6.0000 O   0  0  0  0  0  0  0  0  0  0  0  0
    4.1143   -3.0954   -3.0704 O   0  0  0  0  0  0  0  0  0  0  0  0
    2.2584   -1.1777    0.4300 N   0  0  0  0  0  0  0  0  0  0  0  0
   -0.7673   -2.3847   -0.1719 N   0  0  0  0  0  0  0  0  0  0  0  0
    5.9871   -3.1112    2.2750 N   0  0  0  0  0  0  0  0  0  0  0  0
    3.8150   -2.7099    0.3709 N   0  0  0  0  0  0  0  0  0  0  0  0
    2.3514   -0.6095    2.7451 N   0  0  0  0  0  0  0  0  0  0  0  0
    4.4318   -1.6339    3.6825 N   0  0  0  0  0  0  0  0  0  0  0  0
   -0.1172   -1.1930    0.4374 C   0  0  1  0  0  0  0  0  0  0  0  0
    1.1107   -0.6538   -0.2281 C   0  0  1  0  0  0  0  0  0  0  0  0
   -0.9449    0.0821    0.5043 C   0  0  1  0  0  0  0  0  0  0  0  0
    0.0754    1.2365    0.4594 C   0  0  1  0  0  0  0  0  0  0  0  0
    0.5571    1.7109    1.8290 C   0  0  0  0  0  0  0  0  0  0  0  0
    2.7614   -1.2458    1.6799 C   0  0  0  0  0  0  0  0  0  0  0  0
    6.9383   -4.0357    1.1254 C   0  0  2  0  0  0  0  0  0  0  0  0
    7.3060   -5.4193   -0.1299 C   0  0  0  0  0  0  0  0  0  0  0  0
    3.0626   -1.8647   -0.3110 C   0  0  0  0  0  0  0  0  0  0  0  0
    3.8431   -2.1312    1.5292 C   0  0  0  0  0  0  0  0  0  0  0  0
    5.9913   -5.4585   -0.8929 C   0  0  0  0  0  0  0  0  0  0  0  0
    6.6198   -5.1586    2.0998 C   0  0  0  0  0  0  0  0  0  0  0  0
    5.0146   -5.6565    0.2646 C   0  0  0  0  0  0  0  0  0  0  0  0
    5.7217   -6.1164    1.5925 C   0  0  0  0  0  0  0  0  0  0  0  0
   -0.7540   -3.0333   -1.3941 C   0  0  0  0  0  0  0  0  0  0  0  0
    4.8128   -2.3318    2.5039 C   0  0  0  0  0  0  0  0  0  0  0  0
    7.4919   -5.3152    3.2063 C   0  0  0  0  0  0  0  0  0  0  0  0
    6.0943   -7.4054    1.9552 C   0  0  0  0  0  0  0  0  0  0  0  0
    0.3477   -2.9798   -2.4198 C   0  0  0  0  0  0  0  0  0  0  0  0
    3.2347   -0.8772    3.7326 C   0  0  0  0  0  0  0  0  0  0  0  0
    7.7401   -6.5903    3.6335 C   0  0  0  0  0  0  0  0  0  0  0  0
    7.1252   -7.6290    2.9255 C   0  0  0  0  0  0  0  0  0  0  0  0
    1.6892   -3.3487   -2.1516 C   0  0  0  0  0  0  0  0  0  0  0  0
    0.0297   -2.6570   -3.7424 C   0  0  0  0  0  0  0  0  0  0  0  0
    1.0441   -2.5412   -4.7048 C   0  0  0  0  0  0  0  0  0  0  0  0
    2.7329   -3.0951   -3.0944 C   0  0  0  0  0  0  0  0  0  0  0  0
    2.3752   -2.6716   -4.3451 C   0  0  0  0  0  0  0  0  0  0  0  0
    1.7608   -2.2911   -6.9283 C   0  0  0  0  0  0  0  0  0  0  0  0
    4.8331   -2.9948   -1.8785 C   0  0  0  0  0  0  0  0  0  0  0  0
  1 14  1  0
  1 16  1  0
  3 17  1  0
  4 27  2  0
  5 37  1  0
  5 40  1  0
  6 38  1  0
  6 41  1  0
  7 18  1  0
  7 21  1  0
  8 27  1  0
  9 28  1  0
 10 21  2  0
 10 22  1  0
 11 18  1  0
 11 32  2  0
 12 28  2  0
 12 32  1  0
 13 14  1  0
 13 15  1  0
 13  8  1  6
 14  7  1  1
 15  2  1  6
 15 16  1  0
 16 17  1  1
 18 22  2  0
 19  9  1  6
 19 20  1  0
 19 24  1  0
 20 23  1  0
 22 28  1  0
 23 25  1  0
 24 26  2  0
 24 29  1  0
 25 26  1  0
 26 30  1  0
 27 31  1  0
 29 33  2  0
 30 34  2  0
 31 35  2  0
 31 36  1  0
 33 34  1  0
 35 38  1  0
 36 37  2  0
 37 39  1  0
 38 39  2  0
M  END
>  <DRUGBANK_ID>  (1) 
DB04477

>  <SECONDARY_ACCESSION_NUMBERS>  (1) 
EXPT03076

>  <COMMON_NAME>  (1) 
2'-Deoxy-2'-[(3,5-dimethoxybenzoyl)amino]-N-[(1R)-1,2,3,4-tetrahydro-1-naphthalenyl]adenosine

>  <SYNONYMS>  (1) 
N-1,2,3,4-Tetrahydronaphth-1-yl-2'-[3,5-dimethoxybenzamido]-2'-deoxy-adenosine

$$$$
