651
     RDKit          3D

 18 19  0  0  1  0  0  0  0  0999 V2000
    0.8617    0.0009   -0.0692 O   0  0  0  0  0  0  0  0  0  0  0  0
    1.8852   -1.9965    4.8563 O   0  0  0  0  0  0  0  0  0  0  0  0
    0.4809    2.7367    0.2075 O   0  0  0  0  0  0  0  0  0  0  0  0
    6.4590   -2.4310    5.4795 O   0  0  0  0  0  0  0  0  0  0  0  0
    2.6055   -0.3455    2.4212 N   0  0  0  0  0  0  0  0  0  0  0  0
    5.7315   -1.1997    3.7017 N   0  0  0  0  0  0  0  0  0  0  0  0
    4.1784   -2.2215    5.1947 N   0  0  0  0  0  0  0  0  0  0  0  0
    4.7465    0.0204    1.8828 N   0  0  0  0  0  0  0  0  0  0  0  0
    3.3686   -0.9797    3.3682 C   0  0  0  0  0  0  0  0  0  0  0  0
    1.1478   -0.3056    2.3739 C   0  0  0  0  0  0  0  0  0  0  0  0
    4.6591   -0.7265    3.0019 C   0  0  0  0  0  0  0  0  0  0  0  0
    0.5468    0.5290    1.2304 C   0  0  0  0  0  0  0  0  0  0  0  0
    3.0458   -1.7591    4.5126 C   0  0  0  0  0  0  0  0  0  0  0  0
    3.4986    0.2240    1.5444 C   0  0  0  0  0  0  0  0  0  0  0  0
    5.5150   -1.9764    4.8290 C   0  0  0  0  0  0  0  0  0  0  0  0
    0.9347    2.0152    1.3428 C   0  0  0  0  0  0  0  0  0  0  0  0
    7.0805   -0.8991    3.2628 C   0  0  0  0  0  0  0  0  0  0  0  0
    3.9591   -3.0252    6.3784 C   0  0  0  0  0  0  0  0  0  0  0  0
  1 12  1  0
  2 13  2  0
  3 16  1  0
  4 15  2  0
  5  9  1  0
  5 10  1  0
  5 14  1  0
  6 11  1  0
  6 15  1  0
  6 17  1  0
  7 13  1  0
  7 15  1  0
  7 18  1  0
  8 11  1  0
  8 14  2  0
  9 11  2  0
  9 13  1  0
 10 12  1  0
 12 16  1  0
M  END
>  <DRUGBANK_ID>  (1) 
DB00651

>  <SECONDARY_ACCESSION_NUMBERS>  (1) 
APRD00769

>  <COMMON_NAME>  (1) 
Dyphylline

>  <CAS_NUMBER>  (1) 
479-18-5

>  <UNII>  (1) 
263T0E9RR9

>  <SYNONYMS>  (1) 
(±)-7-(2,3-dihydroxypropyl)theophylline; (±)-diprophylline; (±)-dyphylline; (1,2-dihydroxy-3-propyl)thiophyllin; 1,3-dimethyl-7-(2,3-dihydroxypropyl)xanthine; 7-(2,3-dihydroxypropyl)-1,3-dimethylxanthine; 7-(2,3-dihydroxypropyl)-3,7-dihydro-1,3-dimethyl-1H-purine-2,6-dione; 7-(2,3-dihydroxypropyl)theophylline; 7-(β,γ-dihydroxypropyl)theophylline; Dihydroxypropyl theopylin; Diprofilina; Diprophylline; Diprophyllinum; Dyphylline

$$$$
