
     RDKit          3D

 36 39  0  0  1  0  0  0  0  0999 V2000
    1.0237   -0.3837    2.5677 C   0  0  0  0  0  0  0  0  0  0  0  0
    0.0783   -0.5029    1.3635 C   0  0  1  0  0  0  0  0  0  0  0  0
   -0.2793   -1.9816    1.3169 C   0  0  0  0  0  0  0  0  0  0  0  0
   -1.2671   -2.2793    0.2175 C   0  0  0  0  0  0  0  0  0  0  0  0
   -2.4145   -1.4014    0.3562 N   0  0  0  0  0  0  0  0  0  0  0  0
   -3.6598   -1.9138    0.6652 C   0  0  0  0  0  0  0  0  0  0  0  0
   -4.6839   -1.6447   -0.1676 N   0  0  0  0  0  0  0  0  0  0  0  0
   -5.8677   -2.2239    0.1188 C   0  0  0  0  0  0  0  0  0  0  0  0
   -6.1514   -2.9987    1.1795 N   0  0  0  0  0  0  0  0  0  0  0  0
   -5.1341   -3.2231    2.0197 C   0  0  0  0  0  0  0  0  0  0  0  0
   -5.3886   -4.0024    3.1319 N   0  0  0  0  0  0  0  0  0  0  0  0
   -3.8645   -2.7158    1.7843 C   0  0  0  0  0  0  0  0  0  0  0  0
   -2.8777   -2.9602    2.6625 F   0  0  0  0  0  0  0  0  0  0  0  0
   -2.1792    0.0329    0.2221 C   0  0  0  0  0  0  0  0  0  0  0  0
   -1.1684    0.4995    1.3021 C   0  0  2  0  0  0  0  0  0  0  0  0
   -0.6158    1.8640    1.0612 N   0  0  0  0  0  0  0  0  0  0  0  0
   -1.3870    3.1043    0.9347 C   0  0  0  0  0  0  0  0  0  0  0  0
   -0.4066    4.2011    0.4125 C   0  0  0  0  0  0  0  0  0  0  0  0
    0.9116    4.3044    1.2374 C   0  0  0  0  0  0  0  0  0  0  0  0
    1.4770    2.9213    1.5756 C   0  0  1  0  0  0  0  0  0  0  0  0
    2.6128    2.9525    2.4937 N   0  0  0  0  0  0  0  0  0  0  0  0
    2.5034    3.4179    3.7841 C   0  0  0  0  0  0  0  0  0  0  0  0
    1.7565    2.8123    4.7969 C   0  0  0  0  0  0  0  0  0  0  0  0
    1.4880    3.4491    6.0004 C   0  0  0  0  0  0  0  0  0  0  0  0
    0.3634    2.7669    7.1101 Cl  0  0  0  0  0  0  0  0  0  0  0  0
    2.1196    4.6410    6.2848 C   0  0  0  0  0  0  0  0  0  0  0  0
    3.0155    5.1804    5.3524 C   0  0  0  0  0  0  0  0  0  0  0  0
    3.7800    6.4286    5.6446 C   0  0  0  0  0  0  0  0  0  0  0  0
    5.1238    6.2277    5.5865 F   0  0  0  0  0  0  0  0  0  0  0  0
    3.5032    7.4205    4.7563 F   0  0  0  0  0  0  0  0  0  0  0  0
    3.5229    6.9373    6.8783 F   0  0  0  0  0  0  0  0  0  0  0  0
    3.1995    4.5635    4.1095 C   0  0  0  0  0  0  0  0  0  0  0  0
    0.2675    2.1740    2.0883 C   0  0  0  0  0  0  0  0  0  0  0  0
   -0.1383    2.0039    3.2365 O   0  0  0  0  0  0  0  0  0  0  0  0
    2.2221   -0.1445    2.4342 O   0  0  0  0  0  0  0  0  0  0  0  0
    0.4893   -0.5803    3.8081 N   0  0  0  0  0  0  0  0  0  0  0  0
  1 35  2  0
  1 36  1  0
  2  3  1  0
  2 15  1  0
  2  1  1  1
  3  4  1  0
  4  5  1  0
  5  6  1  0
  6  7  2  0
  6 12  1  0
  7  8  1  0
  8  9  2  0
 10  9  1  0
 10 11  1  0
 12 10  2  0
 12 13  1  0
 14  5  1  0
 15 14  1  0
 15 16  1  6
 16 17  1  0
 16 33  1  0
 17 18  1  0
 18 19  1  0
 20 19  1  0
 20 21  1  1
 21 22  1  0
 22 23  2  0
 22 32  1  0
 23 24  1  0
 24 25  1  0
 24 26  2  0
 27 26  1  0
 27 28  1  0
 28 29  1  0
 28 30  1  0
 28 31  1  0
 32 27  2  0
 33 20  1  0
 33 34  2  0
M  END
>  <DRUGBANK_ID>  (1) 
DB16657

>  <COMMON_NAME>  (1) 
Vecabrutinib

>  <CAS_NUMBER>  (1) 
1510829-06-7

>  <UNII>  (1) 
PQ7O0OB5GU

$$$$
