
     RDKit          3D

 27 28  0  0  0  0  0  0  0  0999 V2000
    0.9824   -0.2291   -0.3111 C   0  0  0  0  0  0  0  0  0  0  0  0
    0.5122    0.9940    0.4157 C   0  0  0  0  0  0  0  0  0  0  0  0
    0.9601    2.3550   -0.1453 C   0  0  0  0  0  0  0  0  0  0  0  0
    0.4320    2.5054   -1.5748 C   0  0  0  0  0  0  0  0  0  0  0  0
   -1.0906    2.4832   -1.6249 C   0  0  0  0  0  0  0  0  0  0  0  0
    0.5520    3.6051    0.6964 C   0  0  0  0  0  0  0  0  0  0  0  0
    0.9561    3.6190    2.2161 C   0  0  0  0  0  0  0  0  0  0  0  0
    0.1655    2.4501    2.7999 C   0  0  0  0  0  0  0  0  0  0  0  0
   -0.0807    2.3124    4.2449 C   0  0  0  0  0  0  0  0  0  0  0  0
   -0.2200    3.7180    4.8549 C   0  0  0  0  0  0  0  0  0  0  0  0
    0.4751    4.9532    4.2329 C   0  0  0  0  0  0  0  0  0  0  0  0
    0.3826    4.9401    2.7441 C   0  0  0  0  0  0  0  0  0  0  0  0
    2.5504    3.5196    2.3397 C   0  0  0  0  0  0  0  0  0  0  0  0
    3.2074    3.5941    1.2820 O   0  0  0  0  0  0  0  0  0  0  0  0
    3.3505    3.4300    3.4845 N   0  0  0  0  0  0  0  0  0  0  0  0
    3.0873    3.4747    4.8844 C   0  0  0  0  0  0  0  0  0  0  0  0
    2.4110    2.3734    5.3189 C   0  0  0  0  0  0  0  0  0  0  0  0
    1.6655    2.3032    6.5158 C   0  0  0  0  0  0  0  0  0  0  0  0
    1.7806    3.3160    7.4335 C   0  0  0  0  0  0  0  0  0  0  0  0
    2.7124    4.3225    7.1443 C   0  0  0  0  0  0  0  0  0  0  0  0
    3.3680    4.4456    5.8503 C   0  0  0  0  0  0  0  0  0  0  0  0
    4.2750    5.9505    5.5483 S   0  0  0  0  0  0  0  0  0  0  0  0
    4.6969    6.0804    3.8467 C   0  0  0  0  0  0  0  0  0  0  0  0
    4.2065    5.4184    2.9094 O   0  0  0  0  0  0  0  0  0  0  0  0
    5.6672    7.0902    3.4004 C   0  0  0  0  0  0  0  0  0  0  0  0
    5.0170    8.4416    3.5670 C   0  0  0  0  0  0  0  0  0  0  0  0
    6.9799    6.8568    4.1004 C   0  0  0  0  0  0  0  0  0  0  0  0
  1  2  1  0
  2  3  1  0
  3  4  1  0
  3  6  1  0
  4  5  1  0
  6  7  1  0
  7  8  1  0
  7 12  1  0
  7 13  1  0
  8  9  1  0
  9 10  1  0
 10 11  1  0
 11 12  1  0
 13 14  2  0
 13 15  1  0
 15 16  1  0
 16 17  2  0
 16 21  1  0
 17 18  1  0
 18 19  2  0
 19 20  1  0
 20 21  2  0
 21 22  1  0
 22 23  1  0
 23 24  2  0
 23 25  1  0
 25 26  1  0
 25 27  1  0
M  END
>  <DRUGBANK_ID>  (1) 
DB12181

>  <COMMON_NAME>  (1) 
Dalcetrapib

>  <CAS_NUMBER>  (1) 
211513-37-0

>  <UNII>  (1) 
3D050LIQ3H

>  <SYNONYMS>  (1) 
Dalcetrapib

$$$$
