24I
     RDKit          3D

 21 21  0  0  0  0  0  0  0  0999 V2000
    0.9782   -0.1603    0.1943 O   0  0  0  0  0  0  0  0  0  0  0  0
    2.2026   -0.1008    0.1413 C   0  0  0  0  0  0  0  0  0  0  0  0
    2.9645   -1.0702    0.6843 O   0  0  0  0  0  0  0  0  0  0  0  0
    2.9791    1.0077   -0.5463 C   0  0  0  0  0  0  0  0  0  0  0  0
    2.5724    1.1250   -2.0093 C   0  0  0  0  0  0  0  0  0  0  0  0
    1.0893    1.4392   -2.3053 C   0  0  1  0  0  0  0  0  0  0  0  0
    0.6728    2.7578   -1.6857 C   0  0  0  0  0  0  0  0  0  0  0  0
    0.1116    3.6708   -2.4932 O   0  0  0  0  0  0  0  0  0  0  0  0
    0.8077    2.9997   -0.4868 O   0  0  0  0  0  0  0  0  0  0  0  0
    0.7346    1.2736   -3.7991 C   0  0  0  0  0  0  0  0  0  0  0  0
    1.1767   -0.3402   -4.5401 P   0  0  2  0  0  0  0  0  0  0  0  0
    2.6081    0.1658   -4.5610 O   0  0  0  0  0  0  0  0  0  0  0  0
    0.5216   -1.1064   -3.2563 O   0  0  0  0  0  0  0  0  0  0  0  0
    1.6188   -1.9540   -5.2810 C   0  0  0  0  0  0  0  0  0  0  0  0
    2.5627   -2.7896   -4.3730 C   0  0  0  0  0  0  0  0  0  0  0  0
    2.3839   -4.1640   -4.2382 C   0  0  0  0  0  0  0  0  0  0  0  0
    3.1796   -4.9004   -3.3436 C   0  0  0  0  0  0  0  0  0  0  0  0
    3.6030   -2.2079   -3.6112 C   0  0  0  0  0  0  0  0  0  0  0  0
    4.3530   -2.9144   -2.6759 C   0  0  0  0  0  0  0  0  0  0  0  0
    4.1483   -4.2730   -2.5570 C   0  0  0  0  0  0  0  0  0  0  0  0
    5.3355   -5.3566   -1.2498 I   0  0  0  0  0  0  0  0  0  0  0  0
  1  2  2  0
  2  3  1  0
  2  4  1  0
  4  5  1  0
  6  5  1  6
  6  7  1  0
  6 10  1  0
  7  8  1  0
  7  9  2  0
 10 11  1  0
 11 12  2  0
 11 13  1  0
 11 14  1  0
 14 15  1  0
 15 16  2  0
 15 18  1  0
 16 17  1  0
 17 20  2  0
 18 19  2  0
 19 20  1  0
 20 21  1  0
M  END
>  <DRUGBANK_ID>  (1) 
DB06928

>  <COMMON_NAME>  (1) 
(2S)-2-{[HYDROXY(4-IODOBENZYL)PHOSPHORYL]METHYL}PENTANEDIOIC ACID

$$$$
