
     RDKit          3D

 28 30  0  0  0  0  0  0  0  0999 V2000
    0.7402    0.0855   -0.1238 C   0  0  0  0  0  0  0  0  0  0  0  0
    0.5533   -1.0916    0.7357 N   0  0  0  0  0  0  0  0  0  0  0  0
   -0.1289   -0.8986    1.9309 C   0  0  0  0  0  0  0  0  0  0  0  0
   -0.5311    0.1922    2.3365 O   0  0  0  0  0  0  0  0  0  0  0  0
   -0.3588   -2.0146    2.6802 N   0  0  0  0  0  0  0  0  0  0  0  0
    0.0097   -3.2892    2.3728 C   0  0  0  0  0  0  0  0  0  0  0  0
   -0.2535   -4.2242    3.1127 O   0  0  0  0  0  0  0  0  0  0  0  0
    0.7473   -3.4615    1.0983 C   0  0  0  0  0  0  0  0  0  0  0  0
    1.1868   -4.8601    0.7651 C   0  0  0  0  0  0  0  0  0  0  0  0
    0.9848   -2.3665    0.3455 C   0  0  0  0  0  0  0  0  0  0  0  0
    1.7394   -2.5176   -0.9224 C   0  0  0  0  0  0  0  0  0  0  0  0
    3.0167   -1.9505   -1.0842 C   0  0  0  0  0  0  0  0  0  0  0  0
    3.7735   -1.2463    0.0185 C   0  0  0  0  0  0  0  0  0  0  0  0
    3.6489   -2.0776   -2.3307 C   0  0  0  0  0  0  0  0  0  0  0  0
    3.0361   -2.7047   -3.4207 C   0  0  0  0  0  0  0  0  0  0  0  0
    3.5651   -2.7597   -4.6956 O   0  0  0  0  0  0  0  0  0  0  0  0
    4.7268   -2.0529   -4.9459 C   0  0  0  0  0  0  0  0  0  0  0  0
    5.8568   -2.5118   -4.3473 N   0  0  0  0  0  0  0  0  0  0  0  0
    7.0056   -1.8405   -4.5792 C   0  0  0  0  0  0  0  0  0  0  0  0
    7.0952   -0.7445   -5.4145 C   0  0  0  0  0  0  0  0  0  0  0  0
    5.9345   -0.3127   -6.0432 C   0  0  0  0  0  0  0  0  0  0  0  0
    4.7144   -0.9723   -5.8131 C   0  0  0  0  0  0  0  0  0  0  0  0
    3.4828   -0.4786   -6.4962 C   0  0  0  0  0  0  0  0  0  0  0  0
    3.2256    0.8260   -6.1875 F   0  0  0  0  0  0  0  0  0  0  0  0
    3.6153   -0.5062   -7.8538 F   0  0  0  0  0  0  0  0  0  0  0  0
    2.3350   -1.1515   -6.2252 F   0  0  0  0  0  0  0  0  0  0  0  0
    1.7959   -3.3127   -3.2383 C   0  0  0  0  0  0  0  0  0  0  0  0
    1.1702   -3.2493   -1.9898 C   0  0  0  0  0  0  0  0  0  0  0  0
  1  2  1  0
  2  3  1  0
  2 10  1  0
  3  4  2  0
  3  5  1  0
  5  6  1  0
  6  7  2  0
  6  8  1  0
  8  9  1  0
  8 10  2  0
 10 11  1  0
 11 12  2  0
 11 28  1  0
 12 13  1  0
 12 14  1  0
 14 15  2  0
 15 16  1  0
 15 27  1  0
 16 17  1  0
 17 18  2  0
 17 22  1  0
 18 19  1  0
 19 20  2  0
 20 21  1  0
 21 22  2  0
 22 23  1  0
 23 24  1  0
 23 25  1  0
 23 26  1  0
 27 28  2  0
M  END
>  <DRUGBANK_ID>  (1) 
DB14899

>  <COMMON_NAME>  (1) 
Tavapadon

>  <CAS_NUMBER>  (1) 
1643489-24-0

>  <UNII>  (1) 
PT4P8MJP8L

>  <SYNONYMS>  (1) 
PF-06649751; Tavapadon

$$$$
