1595
     RDKit          3D

 21 23  0  0  0  0  0  0  0  0999 V2000
    1.0578    0.0402    0.0914 O   0  0  0  0  0  0  0  0  0  0  0  0
    8.9543    3.1143    0.6218 O   0  0  0  0  0  0  0  0  0  0  0  0
    9.3325    0.9729    0.9171 O   0  0  0  0  0  0  0  0  0  0  0  0
    2.9863    1.0253    0.6890 N   0  0  0  0  0  0  0  0  0  0  0  0
    3.8666   -1.8674    0.3910 N   0  0  0  0  0  0  0  0  0  0  0  0
    8.5785    1.9415    0.7581 N   0  0  0  0  0  0  0  0  0  0  0  0
    5.2847    0.1133    0.8241 C   0  0  0  0  0  0  0  0  0  0  0  0
    4.3785    1.1793    0.7006 C   0  0  0  0  0  0  0  0  0  0  0  0
    4.8396   -1.2988    1.0176 C   0  0  0  0  0  0  0  0  0  0  0  0
    5.5630   -2.1082    2.0404 C   0  0  0  0  0  0  0  0  0  0  0  0
    6.6655    0.3714    0.8550 C   0  0  0  0  0  0  0  0  0  0  0  0
    4.8627    2.4916    0.5996 C   0  0  0  0  0  0  0  0  0  0  0  0
    3.0906   -1.0972   -0.5806 C   0  0  0  0  0  0  0  0  0  0  0  0
    7.1336    1.6836    0.7322 C   0  0  0  0  0  0  0  0  0  0  0  0
    2.2918   -0.0089    0.1182 C   0  0  0  0  0  0  0  0  0  0  0  0
    6.2367    2.7462    0.5902 C   0  0  0  0  0  0  0  0  0  0  0  0
    6.1356   -3.3378    1.7032 C   0  0  0  0  0  0  0  0  0  0  0  0
    5.6637   -1.6156    3.3459 C   0  0  0  0  0  0  0  0  0  0  0  0
    6.7341   -4.1117    2.7004 C   0  0  0  0  0  0  0  0  0  0  0  0
    6.3516   -2.3480    4.3110 C   0  0  0  0  0  0  0  0  0  0  0  0
    6.8400   -3.6169    4.0019 C   0  0  0  0  0  0  0  0  0  0  0  0
  1 15  2  0
  2  6  1  0
  3  6  2  0
  4  8  1  0
  4 15  1  0
  5  9  2  0
  5 13  1  0
  6 14  1  0
  7  8  2  0
  7  9  1  0
  7 11  1  0
  8 12  1  0
  9 10  1  0
 10 17  2  0
 10 18  1  0
 11 14  2  0
 12 16  2  0
 13 15  1  0
 14 16  1  0
 17 19  1  0
 18 20  2  0
 19 21  2  0
 20 21  1  0
M  CHG  2   2  -1   6   1
M  END
>  <DRUGBANK_ID>  (1) 
DB01595

>  <COMMON_NAME>  (1) 
Nitrazepam

>  <CAS_NUMBER>  (1) 
146-22-5

>  <UNII>  (1) 
9CLV70W7HS

>  <SYNONYMS>  (1) 
1,3-dihydro-7-nitro-5-phenyl-2H-1,4-benzodiazepin-2-one; 2,3-dihydro-7-nitro-5-phenyl-1H-1,4-benzodiazepin-2-one; 7-nitro-1,3-dihydro-5-phenyl-2H-1,4-benzodiazepin-2-one; 7-nitro-5-phenyl-2,3-dihydro-1H-1,4-benzodiazepin-2-one; N-desmethylnimetazepam; Nitraz√©pam; Nitrazepam; Nitrazepamum

$$$$
