
     RDKit          3D

 23 23  0  0  0  0  0  0  0  0999 V2000
    0.9488   -0.1477    0.0044 C   0  0  0  0  0  0  0  0  0  0  0  0
    0.7303    4.3502    0.3772 C   0  0  0  0  0  0  0  0  0  0  0  0
    3.2146   -0.3947    6.5013 C   0  0  0  0  0  0  0  0  0  0  0  0
    3.1663   -2.3563    4.9547 C   0  0  0  0  0  0  0  0  0  0  0  0
    0.3583    1.2615    0.0142 C   0  0  0  0  0  0  0  0  0  0  0  0
    0.4803    3.5602   -0.8729 C   0  0  0  0  0  0  0  0  0  0  0  0
    1.5786    6.6137    3.1149 C   0  0  0  0  0  0  0  0  0  0  0  0
    2.9545    6.3821    3.0801 C   0  0  0  0  0  0  0  0  0  0  0  0
    0.6926    5.5508    3.2146 C   0  0  0  0  0  0  0  0  0  0  0  0
    3.4501    5.0858    3.0636 C   0  0  0  0  0  0  0  0  0  0  0  0
    1.1922    4.2568    3.2876 C   0  0  0  0  0  0  0  0  0  0  0  0
    1.1553   -0.7886    5.0929 C   0  0  0  0  0  0  0  0  0  0  0  0
    3.3095    2.5850    0.4500 C   0  0  0  0  0  0  0  0  0  0  0  0
    2.5392    2.1909   -0.8515 C   0  0  0  0  0  0  0  0  0  0  0  0
    0.7521    0.6871    5.1519 C   0  0  0  0  0  0  0  0  0  0  0  0
    2.6769   -0.9429    5.1678 C   0  0  0  0  0  0  0  0  0  0  0  0
    2.5681    4.0114    3.1021 C   0  0  0  0  0  0  0  0  0  0  0  0
    3.1256    2.6210    2.9184 C   0  0  0  0  0  0  0  0  0  0  0  0
    2.6573    1.8363    4.1255 C   0  0  0  0  0  0  0  0  0  0  0  0
    2.7882    1.9470    1.6617 N   0  0  0  0  0  0  0  0  0  0  0  0
    1.0571    2.2071   -0.8724 N   0  0  0  0  0  0  0  0  0  0  0  0
    3.4024    1.7518    5.0718 O   0  0  0  0  0  0  0  0  0  0  0  0
    1.3487    1.3979    4.0373 O   0  0  0  0  0  0  0  0  0  0  0  0
  5  1  1  0
  6  2  1  0
  8  7  2  0
  9  7  1  0
 10  8  1  0
 11  9  2  0
 14 13  1  0
 15 12  1  0
 16  3  1  0
 16  4  1  0
 16 12  1  0
 17 10  2  0
 17 11  1  0
 18 17  1  0
 19 18  1  0
 20 13  1  0
 20 18  1  0
 21  5  1  0
 21  6  1  0
 21 14  1  0
 22 19  2  0
 23 15  1  0
 23 19  1  0
M  END
>  <DRUGBANK_ID>  (1) 
DB13738

>  <COMMON_NAME>  (1) 
Camylofin

>  <CAS_NUMBER>  (1) 
54-30-8

>  <UNII>  (1) 
340B6Q764V

>  <SYNONYMS>  (1) 
Camylofin

$$$$
