
     RDKit          3D

  9  8  0  0  0  0  0  0  0  0999 V2000
    1.1264   -0.0945    0.0947 C   0  0  0  0  0  0  0  0  0  0  0  0
    0.5001    0.6313   -1.0253 N   0  0  0  0  0  0  0  0  0  0  0  0
   -0.9602    0.3856   -1.2474 C   0  0  0  0  0  0  0  0  0  0  0  0
   -1.6517    1.2298   -0.1899 C   0  0  0  0  0  0  0  0  0  0  0  0
   -2.2382    2.3517   -0.6661 O   0  0  0  0  0  0  0  0  0  0  0  0
   -1.4583    1.0916    1.0116 O   0  0  0  0  0  0  0  0  0  0  0  0
    1.0779    1.8562   -1.5474 C   0  0  0  0  0  0  0  0  0  0  0  0
    0.5698    2.9928   -0.8596 N   0  0  0  0  0  0  0  0  0  0  0  0
    2.4931    1.9470   -1.4267 N   0  0  0  0  0  0  0  0  0  0  0  0
  1  2  1  0
  2  3  1  0
  2  7  1  0
  3  4  1  0
  4  5  1  0
  4  6  2  0
  7  8  1  0
  7  9  1  0
M  END
>  <DRUGBANK_ID>  (1) 
DB02490

>  <SECONDARY_ACCESSION_NUMBERS>  (1) 
EXPT01907

>  <COMMON_NAME>  (1) 
(Diaminomethyl-Methyl-Amino)-Acetic Acid

$$$$
