996
     RDKit          3D

 12 12  0  0  0  0  0  0  0  0999 V2000
    0.8675   -0.4573    0.6211 O   0  0  0  0  0  0  0  0  0  0  0  0
    0.9255    1.4174    1.8469 O   0  0  0  0  0  0  0  0  0  0  0  0
    0.5807    1.2151   -1.4016 N   0  0  0  0  0  0  0  0  0  0  0  0
   -1.7024    1.2179   -0.3298 C   0  0  0  0  0  0  0  0  0  0  0  0
   -1.7223    2.7686   -0.2350 C   0  0  0  0  0  0  0  0  0  0  0  0
   -3.1696    0.7655   -0.6270 C   0  0  0  0  0  0  0  0  0  0  0  0
   -2.2442    3.4188   -1.5184 C   0  0  0  0  0  0  0  0  0  0  0  0
   -3.7478    1.4112   -1.8968 C   0  0  0  0  0  0  0  0  0  0  0  0
   -3.6532    2.9343   -1.8507 C   0  0  0  0  0  0  0  0  0  0  0  0
   -1.2314    0.6096    1.0333 C   0  0  0  0  0  0  0  0  0  0  0  0
   -0.7928    0.7226   -1.4948 C   0  0  0  0  0  0  0  0  0  0  0  0
    0.2667    0.5750    1.2507 C   0  0  0  0  0  0  0  0  0  0  0  0
  1 12  1  0
  2 12  2  0
  3 11  1  0
  4  5  1  0
  4  6  1  0
  4 10  1  0
  4 11  1  0
  5  7  1  0
  6  8  1  0
  7  9  1  0
  8  9  1  0
 10 12  1  0
M  END
>  <DRUGBANK_ID>  (1) 
DB00996

>  <SECONDARY_ACCESSION_NUMBERS>  (1) 
APRD00015

>  <COMMON_NAME>  (1) 
Gabapentin

>  <CAS_NUMBER>  (1) 
60142-96-3

>  <UNII>  (1) 
6CW7F3G59X

>  <SYNONYMS>  (1) 
1-(Aminomethyl)cyclohexaneacetic acid; Gabapentin; Gabapentina; Gabapentine; Gabapentino; Gabapentinum

$$$$
