
     RDKit          3D

 22 24  0  0  0  0  0  0  0  0999 V2000
    1.3440   -0.2250    0.0360 C   0  0  0  0  0  0  0  0  0  0  0  0
    0.5020   -1.2510   -0.0040 C   0  0  0  0  0  0  0  0  0  0  0  0
   -0.8560   -1.0420    0.0030 C   0  0  0  0  0  0  0  0  0  0  0  0
   -1.3730    0.2230   -0.0410 C   0  0  0  0  0  0  0  0  0  0  0  0
   -0.5090    1.2150    0.0750 C   0  0  0  0  0  0  0  0  0  0  0  0
    0.8920    1.0800   -0.0700 C   0  0  0  0  0  0  0  0  0  0  0  0
    1.7867    2.2212   -0.3113 N   0  0  0  0  0  0  0  0  0  0  0  0
    2.5229    2.2444   -1.4189 C   0  0  0  0  0  0  0  0  0  0  0  0
    2.4010    1.2147   -2.2849 N   0  0  0  0  0  0  0  0  0  0  0  0
    3.2118    1.2850   -3.3494 C   0  0  0  0  0  0  0  0  0  0  0  0
    4.0894    2.2525   -3.6107 N   0  0  0  0  0  0  0  0  0  0  0  0
    4.1024    3.2543   -2.7077 C   0  0  0  0  0  0  0  0  0  0  0  0
    3.3349    3.2972   -1.6045 N   0  0  0  0  0  0  0  0  0  0  0  0
    4.9505    4.2602   -2.9190 N   0  0  0  0  0  0  0  0  0  0  0  0
    3.1243    0.1876   -4.3236 N   0  0  0  0  0  0  0  0  0  0  0  0
   -2.0633   -2.5715    0.0767 As  0  0  0  0  0  3  0  0  0  0  0  0
   -1.7407   -3.3238    1.3844 S   0  0  0  0  0  0  0  0  0  0  0  0
   -2.1128   -4.7980    1.1472 C   0  0  0  0  0  0  0  0  0  0  0  0
   -2.6487   -4.8900   -0.2969 C   0  0  0  0  0  0  0  0  0  0  0  0
   -2.0184   -3.6677   -1.0160 S   0  0  0  0  0  0  0  0  0  0  0  0
   -2.2923   -6.2069   -0.9671 C   0  0  0  0  0  0  0  0  0  0  0  0
   -2.8748   -7.2799   -0.2420 O   0  0  0  0  0  0  0  0  0  0  0  0
  1  2  2  0
  1  6  1  0
  2  3  1  0
  3  4  2  0
  3 16  1  0
  4  5  1  0
  5  6  2  0
  6  7  1  0
  7  8  1  0
  8  9  2  0
  8 13  1  0
  9 10  1  0
 10 11  2  0
 10 15  1  0
 11 12  1  0
 12 13  2  0
 12 14  1  0
 16 17  1  0
 16 20  1  0
 17 18  1  0
 18 19  1  0
 19 20  1  0
 19 21  1  0
 21 22  1  0
M  END
>  <DRUGBANK_ID>  (1) 
DB12864

>  <COMMON_NAME>  (1) 
Melarsoprol

>  <CAS_NUMBER>  (1) 
494-79-1

>  <UNII>  (1) 
ZF3786Q2E8

>  <SYNONYMS>  (1) 
Melarsoprol

$$$$
