
     RDKit          3D

 23 24  0  0  0  0  0  0  0  0999 V2000
   -0.0447    1.6930   -0.0483 C   0  0  1  0  0  0  0  0  0  0  0  0
    0.9401    0.5427    0.2543 C   0  0  1  0  0  0  0  0  0  0  0  0
   -1.4130    1.2932   -0.1171 O   0  0  0  0  0  0  0  0  0  0  0  0
    0.6224   -0.6628   -0.6289 C   0  0  2  0  0  0  0  0  0  0  0  0
   -1.7106    0.1676   -0.9423 C   0  0  1  0  0  0  0  0  0  0  0  0
   -0.8608   -1.0352   -0.5202 C   0  0  2  0  0  0  0  0  0  0  0  0
    2.2972    0.9750    0.0967 O   0  0  0  0  0  0  0  0  0  0  0  0
    1.4337   -1.7756   -0.2440 O   0  0  0  0  0  0  0  0  0  0  0  0
   -1.1486   -1.4652    0.8181 O   0  0  0  0  0  0  0  0  0  0  0  0
   -3.2157   -0.1262   -0.8192 C   0  0  0  0  0  0  0  0  0  0  0  0
   -3.9897    1.0457   -1.0807 O   0  0  0  0  0  0  0  0  0  0  0  0
   -2.9220    0.1101    3.1088 C   0  0  1  0  0  0  0  0  0  0  0  0
   -3.8150    0.9815    4.0117 C   0  0  1  0  0  0  0  0  0  0  0  0
   -1.5936    0.6172    2.9993 O   0  0  0  0  0  0  0  0  0  0  0  0
   -3.7752    2.4347    3.5092 C   0  0  2  0  0  0  0  0  0  0  0  0
   -1.5656    1.9675    2.5261 C   0  0  1  0  0  0  0  0  0  0  0  0
   -2.3234    2.9290    3.4245 C   0  0  1  0  0  0  0  0  0  0  0  0
   -2.8383   -1.2337    3.5334 O   0  0  0  0  0  0  0  0  0  0  0  0
   -5.1561    0.4812    4.0326 O   0  0  0  0  0  0  0  0  0  0  0  0
   -4.5558    3.2903    4.3408 O   0  0  0  0  0  0  0  0  0  0  0  0
   -2.2937    4.2497    2.8775 O   0  0  0  0  0  0  0  0  0  0  0  0
   -0.1209    2.4189    2.2733 C   0  0  0  0  0  0  0  0  0  0  0  0
    0.0898    2.7678    0.8961 O   0  0  0  0  0  0  0  0  0  0  0  0
  1  2  1  0
  1  3  1  0
  1 23  1  1
  2  4  1  0
  2  7  1  6
  3  5  1  0
  4  6  1  0
  4  8  1  1
  5  6  1  0
  5 10  1  1
  6  9  1  1
 10 11  1  0
 12 13  1  0
 12 14  1  0
 12 18  1  1
 13 15  1  0
 13 19  1  6
 14 16  1  0
 15 17  1  0
 15 20  1  1
 16 17  1  0
 16 22  1  1
 17 21  1  6
 22 23  1  0
M  END
>  <DRUGBANK_ID>  (1) 
DB04116

>  <SECONDARY_ACCESSION_NUMBERS>  (1) 
EXPT01999

>  <COMMON_NAME>  (1) 
Allolactose

>  <CAS_NUMBER>  (1) 
645-03-4

>  <SYNONYMS>  (1) 
6-O-Î²-D-galactopyranosyl-D-glucopyranose

$$$$
