
     RDKit          3D

 20 20  0  0  0  0  0  0  0  0999 V2000
    0.4287    2.3392    0.4004 Si  0  0  0  0  0  4  0  0  0  0  0  0
   -1.0899    1.8513   -0.1268 O   0  0  0  0  0  0  0  0  0  0  0  0
    1.6457    1.4230   -0.3012 O   0  0  0  0  0  0  0  0  0  0  0  0
    0.8100    4.1574    0.3444 C   0  0  0  0  0  0  0  0  0  0  0  0
    0.4066    2.2382    2.2957 C   0  0  0  0  0  0  0  0  0  0  0  0
   -2.3836    1.0338    0.5809 Si  0  0  0  0  0  4  0  0  0  0  0  0
    2.8698    0.3945    0.2127 Si  0  0  0  0  0  4  0  0  0  0  0  0
   -2.7126   -0.3847   -0.2800 O   0  0  0  0  0  0  0  0  0  0  0  0
   -1.9605    0.3664    2.3100 C   0  0  0  0  0  0  0  0  0  0  0  0
   -3.6898    2.1695    1.2401 C   0  0  0  0  0  0  0  0  0  0  0  0
    2.4049   -1.2115   -0.1270 O   0  0  0  0  0  0  0  0  0  0  0  0
    3.1224    0.6825    2.1049 C   0  0  0  0  0  0  0  0  0  0  0  0
    4.5817    0.8352   -0.3588 C   0  0  0  0  0  0  0  0  0  0  0  0
   -1.9519   -1.9107   -0.1783 Si  0  0  0  0  0  4  0  0  0  0  0  0
    1.0862   -2.1020    0.4446 Si  0  0  0  0  0  4  0  0  0  0  0  0
   -0.2980   -1.6936   -0.4061 O   0  0  0  0  0  0  0  0  0  0  0  0
   -2.2304   -2.6684    1.5659 C   0  0  0  0  0  0  0  0  0  0  0  0
   -2.5633   -3.1891   -1.3664 C   0  0  0  0  0  0  0  0  0  0  0  0
    0.9321   -1.4857    2.2011 C   0  0  0  0  0  0  0  0  0  0  0  0
    1.1830   -3.9148    0.7555 C   0  0  0  0  0  0  0  0  0  0  0  0
  1  2  1  0
  1  3  1  0
  1  4  1  0
  1  5  1  0
  2  6  1  0
  3  7  1  0
  6  8  1  0
  6  9  1  0
  6 10  1  0
  7 11  1  0
  7 12  1  0
  7 13  1  0
  8 14  1  0
 11 15  1  0
 14 16  1  0
 14 17  1  0
 14 18  1  0
 15 19  1  0
 15 20  1  0
 15 16  1  0
M  END
>  <DRUGBANK_ID>  (1) 
DB11244

>  <COMMON_NAME>  (1) 
Cyclomethicone 5

>  <CAS_NUMBER>  (1) 
541-02-6

>  <UNII>  (1) 
0THT5PCI0R

>  <SYNONYMS>  (1) 
Ciclopentasiloxane; Cyclomethicone D5; Cyclopentasiloxane; Decamethylcyclopentasiloxane

$$$$
