
     RDKit          3D

 36 39  0  0  1  0  0  0  0  0999 V2000
   -4.5955    2.0604    0.6088 C   0  0  0  0  0  0  0  0  0  0  0  0
   -4.8801    1.5409    1.8730 O   0  0  0  0  0  0  0  0  0  0  0  0
   -4.1149    2.1664    2.9375 C   0  0  0  0  0  0  0  0  0  0  0  0
   -2.5543    2.4976    2.8996 C   0  0  0  0  0  0  0  0  0  0  0  0
   -2.0628    3.4226    1.8399 N   0  0  0  0  0  0  0  0  0  0  0  0
   -0.7302    3.9568    2.1232 C   0  0  0  0  0  0  0  0  0  0  0  0
    0.3361    2.9678    1.7547 C   0  0  0  0  0  0  0  0  0  0  0  0
    0.6561    2.5103    0.2498 C   0  0  0  0  0  0  0  0  0  0  0  0
    0.9593    3.5208   -0.7894 C   0  0  0  0  0  0  0  0  0  0  0  0
    2.3035    4.0193   -0.5224 C   0  0  0  0  0  0  0  0  0  0  0  0
    2.9593    3.6388    0.6274 C   0  0  0  0  0  0  0  0  0  0  0  0
    4.2016    3.9857    0.9915 C   0  0  0  0  0  0  0  0  0  0  0  0
    4.7643    4.8395    0.1476 C   0  0  0  0  0  0  0  0  0  0  0  0
    6.0840    5.3359    0.5846 C   0  0  0  0  0  0  0  0  0  0  0  0
    6.6475    6.0772   -0.5901 C   0  0  0  0  0  0  0  0  0  0  0  0
    5.5515    6.9862   -1.1726 C   0  0  0  0  0  0  0  0  0  0  0  0
    4.6372    6.1291   -1.8765 N   0  0  0  0  0  0  0  0  0  0  0  0
    4.0625    5.2420   -1.0049 C   0  0  0  0  0  0  0  0  0  0  0  0
    2.8526    4.8379   -1.3768 N   0  0  0  0  0  0  0  0  0  0  0  0
   -2.0426    2.9132    0.4471 C   0  0  0  0  0  0  0  0  0  0  0  0
   -1.7687    1.3330    0.2053 C   0  0  0  0  0  0  0  0  0  0  0  0
   -1.8201    0.0135    0.9482 C   0  0  2  0  0  0  0  0  0  0  0  0
   -0.7743   -0.9643    0.3200 N   0  0  0  0  0  0  0  0  0  0  0  0
    0.2695   -1.2461    1.2625 C   0  0  0  0  0  0  0  0  0  0  0  0
   -0.3021   -1.8655    2.2912 N   0  0  0  0  0  0  0  0  0  0  0  0
   -0.3314   -1.1332    3.3962 C   0  0  0  0  0  0  0  0  0  0  0  0
    0.4074   -0.0615    3.6298 N   0  0  0  0  0  0  0  0  0  0  0  0
    1.3747    0.1379    2.7494 C   0  0  0  0  0  0  0  0  0  0  0  0
    2.2602    1.1112    3.1146 C   0  0  0  0  0  0  0  0  0  0  0  0
    3.3982    1.3339    2.3748 C   0  0  0  0  0  0  0  0  0  0  0  0
    3.5004    0.8093    1.0675 C   0  0  0  0  0  0  0  0  0  0  0  0
    2.4860   -0.0377    0.5842 C   0  0  0  0  0  0  0  0  0  0  0  0
    1.4154   -0.4396    1.4676 C   0  0  0  0  0  0  0  0  0  0  0  0
   -3.1948   -0.6004    1.1748 C   0  0  0  0  0  0  0  0  0  0  0  0
   -3.4931   -0.7340    2.5132 O   0  0  0  0  0  0  0  0  0  0  0  0
   -3.9257   -0.9326    0.3065 O   0  0  0  0  0  0  0  0  0  0  0  0
  1  2  1  0
  2  3  1  0
  3  4  1  0
  4  5  1  0
  5  6  1  0
  5 20  1  0
  6  7  1  0
  7  8  1  0
  8  9  1  0
  9 10  1  0
 10 11  2  0
 10 19  1  0
 11 12  1  0
 12 13  2  0
 13 14  1  0
 13 18  1  0
 14 15  1  0
 15 16  1  0
 16 17  1  0
 17 18  1  0
 18 19  2  0
 20 21  1  0
 22 34  1  0
 22 23  1  0
 22 21  1  6
 23 24  1  0
 24 25  2  0
 24 33  1  0
 25 26  1  0
 26 27  2  0
 27 28  1  0
 28 29  1  0
 28 33  2  0
 29 30  2  0
 30 31  1  0
 31 32  2  0
 32 33  1  0
 34 35  1  0
 34 36  2  0
M  END
>  <DRUGBANK_ID>  (1) 
DB18444

>  <COMMON_NAME>  (1) 
Bexotegrast

>  <CAS_NUMBER>  (1) 
2376257-44-0

>  <UNII>  (1) 
QCV154PFT4

>  <SYNONYMS>  (1) 
(2S)-4-(2-METHOXYETHYL-(4-(5,6,7,8-TETRAHYDRO-1,8-NAPHTHYRIDIN-2-YL)BUTYL)AMINO)-2-(QUINAZOLIN-4-YLAMINO)BUTANOIC ACID; (S)-4-[(2-Methoxyethyl)[4-(5,6,7,8-tetrahydro-1,8-naphthyridin-2-yl)butyl]amino]-2-[(quinazolin-4-yl)amino]butanoic acid; Butanoic acid, 4-[(2-methoxyethyl)[4-(5,6,7,8-tetrahydro-1,8-naphthyridin-2-yl)butyl]amino]-2-(4-quinazolinylamino)-, (2S)-

$$$$
