
     RDKit          3D

 22 24  0  0  0  0  0  0  0  0999 V2000
    0.8501   -0.0478    0.0818 C   0  0  0  0  0  0  0  0  0  0  0  0
    0.2925   -0.4870    1.4927 C   0  0  0  0  0  0  0  0  0  0  0  0
    0.5377    1.3685   -0.2951 N   0  0  0  0  0  0  0  0  0  0  0  0
    0.4451   -1.0839   -1.0022 C   0  0  0  0  0  0  0  0  0  0  0  0
   -0.3171    0.3894    2.4027 C   0  0  0  0  0  0  0  0  0  0  0  0
    0.4451   -1.8095    1.9679 C   0  0  0  0  0  0  0  0  0  0  0  0
    1.0140    1.7710   -1.6539 C   0  0  0  0  0  0  0  0  0  0  0  0
    1.0763    2.3733    0.6441 C   0  0  0  0  0  0  0  0  0  0  0  0
    1.0835   -2.3390   -1.0249 C   0  0  0  0  0  0  0  0  0  0  0  0
   -0.5619   -0.8618   -1.9577 C   0  0  0  0  0  0  0  0  0  0  0  0
   -0.5232    0.0696    3.7493 C   0  0  0  0  0  0  0  0  0  0  0  0
    0.0953   -2.1858    3.2698 C   0  0  0  0  0  0  0  0  0  0  0  0
    0.0468    2.8359   -2.2385 C   0  0  0  0  0  0  0  0  0  0  0  0
    0.3262    3.6967    0.4778 C   0  0  0  0  0  0  0  0  0  0  0  0
    0.6378   -3.3678   -1.8518 C   0  0  0  0  0  0  0  0  0  0  0  0
   -0.9203   -1.8503   -2.8767 C   0  0  0  0  0  0  0  0  0  0  0  0
   -0.3328   -1.2378    4.1729 C   0  0  0  0  0  0  0  0  0  0  0  0
    0.4166    4.2425   -1.9806 N   0  0  0  0  0  0  0  0  0  0  0  0
    0.9808    4.4842   -0.6499 C   0  0  0  0  0  0  0  0  0  0  0  0
   -0.3446   -3.1145   -2.7993 C   0  0  0  0  0  0  0  0  0  0  0  0
   -0.7026   -1.6774    5.7893 Cl  0  0  0  0  0  0  0  0  0  0  0  0
   -0.7434    5.1098   -2.1859 C   0  0  0  0  0  0  0  0  0  0  0  0
  1  2  1  0
  1  3  1  0
  1  4  1  0
  2  5  2  0
  2  6  1  0
  3  7  1  0
  3  8  1  0
  4  9  2  0
  4 10  1  0
  5 11  1  0
  6 12  2  0
  7 13  1  0
  8 14  1  0
  9 15  1  0
 10 16  2  0
 11 17  2  0
 12 17  1  0
 13 18  1  0
 14 19  1  0
 15 20  2  0
 16 20  1  0
 17 21  1  0
 18 22  1  0
 18 19  1  0
M  END
>  <DRUGBANK_ID>  (1) 
DB15979

>  <COMMON_NAME>  (1) 
Homochlorcyclizine

>  <CAS_NUMBER>  (1) 
848-53-3

>  <UNII>  (1) 
N5MVC31W2N

>  <SYNONYMS>  (1) 
Homochlorcyclizine; Homochlorcyclizinum; Homoclorociclizina

$$$$
