
     RDKit          3D

 36 39  0  0  0  0  0  0  0  0999 V2000
    2.6610   -0.0878   -0.0167 C   0  0  0  0  0  0  0  0  0  0  0  0
    1.1827   -0.0812    0.0246 C   0  0  0  0  0  0  0  0  0  0  0  0
    0.5884    1.1573    0.0493 C   0  0  0  0  0  0  0  0  0  0  0  0
   -0.7690    1.2621    0.0717 C   0  0  0  0  0  0  0  0  0  0  0  0
   -1.5924    0.1584    0.0222 C   0  0  0  0  0  0  0  0  0  0  0  0
   -0.9783   -1.1196    0.0522 C   0  0  0  0  0  0  0  0  0  0  0  0
    0.4076   -1.2374    0.0422 C   0  0  0  0  0  0  0  0  0  0  0  0
   -3.0399    0.2054   -0.2591 C   0  0  0  0  0  0  0  0  0  0  0  0
   -3.3829   -0.8731   -0.7410 O   0  0  0  0  0  0  0  0  0  0  0  0
   -3.9168    1.3017   -0.1265 N   0  0  0  0  0  0  0  0  0  0  0  0
   -3.5034    2.6838   -0.0565 C   0  0  0  0  0  0  0  0  0  0  0  0
   -3.7464    3.4841   -1.3268 C   0  0  0  0  0  0  0  0  0  0  0  0
   -5.1719    3.9871   -1.4491 C   0  0  0  0  0  0  0  0  0  0  0  0
   -5.6160    4.6558   -0.2236 N   0  0  0  0  0  0  0  0  0  0  0  0
   -5.3966    1.1660   -0.1097 C   0  0  0  0  0  0  0  0  0  0  0  0
   -5.9615    0.4173   -1.3699 C   0  0  0  0  0  0  0  0  0  0  0  0
   -6.4006    1.1250   -2.3919 N   0  0  0  0  0  0  0  0  0  0  0  0
   -6.7096    0.4114   -3.5069 C   0  0  0  0  0  0  0  0  0  0  0  0
   -6.5220   -0.9371   -3.6524 C   0  0  0  0  0  0  0  0  0  0  0  0
   -6.8687   -1.4148   -4.9388 C   0  0  0  0  0  0  0  0  0  0  0  0
   -7.3310   -0.4912   -5.7863 N   0  0  0  0  0  0  0  0  0  0  0  0
   -7.3271    0.9949   -4.9980 S   0  0  0  0  0  0  0  0  0  0  0  0
   -6.7561   -2.8482   -5.3336 C   0  0  0  0  0  0  0  0  0  0  0  0
   -6.0452   -1.6766   -2.5359 C   0  0  0  0  0  0  0  0  0  0  0  0
   -5.7924   -2.8921   -2.6130 O   0  0  0  0  0  0  0  0  0  0  0  0
   -5.9176   -0.9778   -1.3657 N   0  0  0  0  0  0  0  0  0  0  0  0
   -5.5774   -1.8401   -0.2248 C   0  0  0  0  0  0  0  0  0  0  0  0
   -6.6615   -2.0603    0.7958 C   0  0  0  0  0  0  0  0  0  0  0  0
   -7.9586   -1.6289    0.5359 C   0  0  0  0  0  0  0  0  0  0  0  0
   -8.7875   -1.3142    1.6078 C   0  0  0  0  0  0  0  0  0  0  0  0
   -8.3361   -1.4592    2.9261 C   0  0  0  0  0  0  0  0  0  0  0  0
   -7.0584   -1.9442    3.1919 C   0  0  0  0  0  0  0  0  0  0  0  0
   -6.2242   -2.2694    2.1307 C   0  0  0  0  0  0  0  0  0  0  0  0
   -6.0167    0.9082    1.2519 C   0  0  0  0  0  0  0  0  0  0  0  0
   -5.4500    1.5436    2.5014 C   0  0  0  0  0  0  0  0  0  0  0  0
   -7.5057    1.2554    1.2168 C   0  0  0  0  0  0  0  0  0  0  0  0
  1  2  1  0
  2  3  2  0
  2  7  1  0
  3  4  1  0
  4  5  2  0
  5  6  1  0
  5  8  1  0
  6  7  2  0
  8  9  2  0
  8 10  1  0
 10 11  1  0
 10 15  1  0
 11 12  1  0
 12 13  1  0
 13 14  1  0
 15 16  1  0
 15 34  1  0
 16 17  2  0
 16 26  1  0
 17 18  1  0
 18 19  2  0
 18 22  1  0
 19 20  1  0
 19 24  1  0
 20 21  2  0
 20 23  1  0
 21 22  1  0
 24 25  2  0
 24 26  1  0
 26 27  1  0
 27 28  1  0
 28 29  2  0
 28 33  1  0
 29 30  1  0
 30 31  2  0
 31 32  1  0
 32 33  2  0
 34 35  1  0
 34 36  1  0
M  END
>  <DRUGBANK_ID>  (1) 
DB11671

>  <COMMON_NAME>  (1) 
AZD-4877

>  <CAS_NUMBER>  (1) 
1176760-49-8

>  <UNII>  (1) 
19ORU63E06

$$$$
