
     RDKit          3D

 14 14  0  0  0  0  0  0  0  0999 V2000
    0.7879   -0.1149    0.1127 C   0  0  0  0  0  0  0  0  0  0  0  0
   -0.2896   -1.1610   -0.3233 C   0  0  0  0  0  0  0  0  0  0  0  0
    0.3152    0.9429    0.5861 O   0  0  0  0  0  0  0  0  0  0  0  0
   -1.0636   -0.9311   -1.4655 C   0  0  0  0  0  0  0  0  0  0  0  0
   -0.4607   -2.4398    0.2688 C   0  0  0  0  0  0  0  0  0  0  0  0
   -1.4990   -3.3450   -1.7666 C   0  0  0  0  0  0  0  0  0  0  0  0
    2.1739   -0.1776    0.0182 O   0  0  0  0  0  0  0  0  0  0  0  0
   -1.5181   -4.3636   -2.7360 N   0  0  0  0  0  0  0  0  0  0  0  0
   -1.7093   -2.0092   -2.1441 C   0  0  0  0  0  0  0  0  0  0  0  0
   -0.8498   -3.5417   -0.5510 C   0  0  0  0  0  0  0  0  0  0  0  0
    3.3247   -0.9745   -0.5928 C   0  0  0  0  0  0  0  0  0  0  0  0
    3.3966   -2.4277   -0.1230 C   0  0  0  0  0  0  0  0  0  0  0  0
    2.0979   -2.9992   -0.5299 C   0  0  0  0  0  0  0  0  0  0  0  0
    1.7228   -2.8245   -2.0079 C   0  0  0  0  0  0  0  0  0  0  0  0
  2  1  1  0
  3  1  2  0
  4  2  2  0
  5  2  1  0
  6 10  1  0
  7  1  1  0
  8  6  1  0
  9  4  1  0
  9  6  2  0
 10  5  2  0
 11  7  1  0
 12 11  1  0
 13 12  1  0
 14 13  1  0
M  END
>  <DRUGBANK_ID>  (1) 
DB11148

>  <COMMON_NAME>  (1) 
Butamben

>  <CAS_NUMBER>  (1) 
94-25-7

>  <UNII>  (1) 
EFW857872Q

>  <SYNONYMS>  (1) 
Butamben; Butyl aminobenzoate

$$$$
