
     RDKit          3D

 20 20  0  0  0  0  0  0  0  0999 V2000
    0.9995   -0.1022    0.2155 O   0  0  0  0  0  0  0  0  0  0  0  0
    0.4165    0.9393    0.8359 C   0  0  0  0  0  0  0  0  0  0  0  0
    1.0992    1.7911    1.3918 O   0  0  0  0  0  0  0  0  0  0  0  0
   -1.0872    0.9393    0.7557 C   0  0  0  0  0  0  0  0  0  0  0  0
   -1.5881    1.1183   -0.6783 C   0  0  0  0  0  0  0  0  0  0  0  0
   -1.1816   -0.0491   -1.5823 C   0  0  0  0  0  0  0  0  0  0  0  0
   -1.6923   -1.3830   -1.0188 C   0  0  0  0  0  0  0  0  0  0  0  0
   -3.2245   -1.4150   -0.9854 C   0  0  0  0  0  0  0  0  0  0  0  0
   -3.8013   -1.2243   -2.3792 C   0  0  0  0  0  0  0  0  0  0  0  0
   -3.2972   -2.2992   -3.3140 C   0  0  0  0  0  0  0  0  0  0  0  0
   -3.7662   -3.6144   -2.9218 N   0  0  0  0  0  0  0  0  0  0  0  0
   -4.5303   -4.4730   -3.6696 C   0  0  0  0  0  0  0  0  0  0  0  0
   -4.9720   -5.5074   -3.1788 O   0  0  0  0  0  0  0  0  0  0  0  0
   -4.8790   -4.0852   -5.0546 C   0  0  0  0  0  0  0  0  0  0  0  0
   -6.2307   -4.0967   -5.4128 C   0  0  0  0  0  0  0  0  0  0  0  0
   -6.6146   -3.6160   -6.6644 C   0  0  0  0  0  0  0  0  0  0  0  0
   -5.6556   -3.1066   -7.5436 C   0  0  0  0  0  0  0  0  0  0  0  0
   -4.3039   -3.1084   -7.1960 C   0  0  0  0  0  0  0  0  0  0  0  0
   -3.9139   -3.6394   -5.9713 C   0  0  0  0  0  0  0  0  0  0  0  0
   -2.5820   -3.6876   -5.6519 O   0  0  0  0  0  0  0  0  0  0  0  0
  1  2  1  0
  2  3  2  0
  2  4  1  0
  4  5  1  0
  5  6  1  0
  6  7  1  0
  7  8  1  0
  8  9  1  0
  9 10  1  0
 10 11  1  0
 11 12  1  0
 12 13  2  0
 12 14  1  0
 14 15  2  0
 14 19  1  0
 15 16  1  0
 16 17  2  0
 17 18  1  0
 18 19  2  0
 19 20  1  0
M  END
>  <DRUGBANK_ID>  (1) 
DB18517

>  <COMMON_NAME>  (1) 
Salcaprozic acid

>  <CAS_NUMBER>  (1) 
183990-46-7

>  <UNII>  (1) 
X88E147FCU

$$$$
