
     RDKit          3D

 36 38  0  0  0  0  0  0  0  0999 V2000
    0.4543    5.4960   -0.0921 P   0  0  1  0  0  0  0  0  0  0  0  0
    0.6614    5.3171    1.5086 O   0  0  0  0  0  0  0  0  0  0  0  0
    1.7377    5.8007   -0.8105 O   0  0  0  0  0  0  0  0  0  0  0  0
   -0.1720    4.2272   -0.8585 O   0  0  0  0  0  0  0  0  0  0  0  0
   -0.9003    3.1014   -0.4719 C   0  0  0  0  0  0  0  0  0  0  0  0
   -0.2072    3.0178    1.7000 O   0  0  0  0  0  0  0  0  0  0  0  0
   -0.0711    2.3148    0.4612 C   0  0  1  0  0  0  0  0  0  0  0  0
   -0.7511    0.9944    0.6296 C   0  0  2  0  0  0  0  0  0  0  0  0
   -0.9748    0.9460    2.1337 C   0  0  2  0  0  0  0  0  0  0  0  0
   -1.1661    2.4109    2.5759 C   0  0  2  0  0  0  0  0  0  0  0  0
   -2.5545    4.4783    2.2200 C   0  0  0  0  0  0  0  0  0  0  0  0
   -4.8660    4.6491    2.5949 C   0  0  0  0  0  0  0  0  0  0  0  0
   -4.7886    3.3229    3.2108 C   0  0  0  0  0  0  0  0  0  0  0  0
   -3.6612    2.6083    3.0907 C   0  0  0  0  0  0  0  0  0  0  0  0
   -2.5043    3.1103    2.4833 N   0  0  0  0  0  0  0  0  0  0  0  0
   -5.8181    5.3961    2.7459 O   0  0  0  0  0  0  0  0  0  0  0  0
   -1.6160    5.2768    2.1977 O   0  0  0  0  0  0  0  0  0  0  0  0
    0.1704    0.4729    2.7170 F   0  0  0  0  0  0  0  0  0  0  0  0
   -2.1075    0.0457    2.4939 C   0  0  0  0  0  0  0  0  0  0  0  0
   -1.9136    6.4816   -1.1230 C   0  0  2  0  0  0  0  0  0  0  0  0
   -2.9856    7.5301   -0.8692 C   0  0  0  0  0  0  0  0  0  0  0  0
   -2.6445    5.1734   -0.9196 C   0  0  0  0  0  0  0  0  0  0  0  0
   -2.7841    8.6494   -0.4284 O   0  0  0  0  0  0  0  0  0  0  0  0
   -4.2175    7.0091   -1.1826 O   0  0  0  0  0  0  0  0  0  0  0  0
   -5.4150    7.7762   -1.0404 C   0  0  0  0  0  0  0  0  0  0  0  0
   -5.6267    8.2382    0.3907 C   0  0  0  0  0  0  0  0  0  0  0  0
   -5.3329    8.8884   -2.0588 C   0  0  0  0  0  0  0  0  0  0  0  0
    1.6886    4.7816    2.2477 C   0  0  0  0  0  0  0  0  0  0  0  0
    2.8649    4.3848    1.6451 C   0  0  0  0  0  0  0  0  0  0  0  0
    3.7759    3.5878    2.3286 C   0  0  0  0  0  0  0  0  0  0  0  0
    3.6059    3.3270    3.6837 C   0  0  0  0  0  0  0  0  0  0  0  0
    2.5054    3.8570    4.3543 C   0  0  0  0  0  0  0  0  0  0  0  0
    1.5119    4.5326    3.6266 C   0  0  0  0  0  0  0  0  0  0  0  0
   -0.7369    6.6485   -0.2119 N   0  0  0  0  0  0  0  0  0  0  0  0
   -0.0235   -0.0651    0.0267 O   0  0  0  0  0  0  0  0  0  0  0  0
   -3.7745    4.9758    1.8763 N   0  0  0  0  0  0  0  0  0  0  0  0
  1  3  2  0
  1 34  1  0
  1  2  1  0
  1  4  1  0
  2 28  1  0
  4  5  1  0
  6  7  1  0
  6 10  1  0
  7  8  1  0
  7  5  1  6
  8  9  1  0
  8 35  1  1
  9 10  1  0
  9 19  1  6
  9 18  1  0
 10 15  1  6
 11 17  2  0
 11 15  1  0
 11 36  1  0
 12 16  2  0
 12 13  1  0
 13 14  2  0
 14 15  1  0
 20 22  1  1
 20 21  1  0
 21 23  2  0
 21 24  1  0
 24 25  1  0
 25 26  1  0
 25 27  1  0
 28 29  2  0
 29 30  1  0
 30 31  2  0
 31 32  1  0
 32 33  2  0
 33 28  1  0
 34 20  1  0
 36 12  1  0
M  END
>  <DRUGBANK_ID>  (1) 
DB08934

>  <COMMON_NAME>  (1) 
Sofosbuvir

>  <CAS_NUMBER>  (1) 
1190307-88-0

>  <UNII>  (1) 
WJ6CA3ZU8B

>  <SYNONYMS>  (1) 
S)-Isopropyl 2-((S)-(((2R,3R,4R,5R)-5-(2,4-dioxo-3,4- dihydropyrimidin-1(2H)-yl)-4-fluoro-3-hydroxy-4-methyltetrahydrofuran-2-yl)methoxy)- (phenoxy)phosphorylamino)propanoate; Sofosbuvir

$$$$
