920
     RDKit          3D

 22 25  0  0  0  0  0  0  0  0999 V2000
    3.3168   -0.9711    0.8062 S   0  0  0  0  0  0  0  0  0  0  0  0
    1.0878   -2.9759    0.6906 O   0  0  0  0  0  0  0  0  0  0  0  0
    0.4871    2.5479   -4.8055 N   0  0  0  0  0  0  0  0  0  0  0  0
    0.3266    1.8838   -1.9215 C   0  0  0  0  0  0  0  0  0  0  0  0
   -0.8907    2.4098   -2.6893 C   0  0  0  0  0  0  0  0  0  0  0  0
    1.6091    2.3504   -2.5903 C   0  0  0  0  0  0  0  0  0  0  0  0
   -0.7734    2.0864   -4.1902 C   0  0  0  0  0  0  0  0  0  0  0  0
    1.6216    1.9743   -4.0684 C   0  0  0  0  0  0  0  0  0  0  0  0
    0.3084    1.0670   -0.8330 C   0  0  0  0  0  0  0  0  0  0  0  0
   -1.0134    0.6370   -0.3126 C   0  0  0  0  0  0  0  0  0  0  0  0
    1.5245    0.5706   -0.2117 C   0  0  0  0  0  0  0  0  0  0  0  0
   -1.3523   -0.7273   -0.2786 C   0  0  0  0  0  0  0  0  0  0  0  0
    0.5674    4.0123   -4.8075 C   0  0  0  0  0  0  0  0  0  0  0  0
    1.7295   -0.7430    0.1874 C   0  0  0  0  0  0  0  0  0  0  0  0
   -0.3862   -1.7875   -0.7418 C   0  0  0  0  0  0  0  0  0  0  0  0
    0.8486   -1.9002    0.1239 C   0  0  0  0  0  0  0  0  0  0  0  0
   -1.9254    1.5943    0.1591 C   0  0  0  0  0  0  0  0  0  0  0  0
    2.6578    1.3899    0.1019 C   0  0  0  0  0  0  0  0  0  0  0  0
   -2.6168   -1.1047    0.1868 C   0  0  0  0  0  0  0  0  0  0  0  0
    3.7225    0.6637    0.5733 C   0  0  0  0  0  0  0  0  0  0  0  0
   -3.1870    1.2072    0.5983 C   0  0  0  0  0  0  0  0  0  0  0  0
   -3.5313   -0.1414    0.6090 C   0  0  0  0  0  0  0  0  0  0  0  0
  1 14  1  0
  1 20  1  0
  2 16  2  0
  3  7  1  0
  3  8  1  0
  3 13  1  0
  4  5  1  0
  4  6  1  0
  4  9  2  3
  5  7  1  0
  6  8  1  0
  9 10  1  0
  9 11  1  0
 10 12  2  0
 10 17  1  0
 11 14  2  0
 11 18  1  0
 12 15  1  0
 12 19  1  0
 14 16  1  0
 15 16  1  0
 17 21  2  0
 18 20  2  0
 19 22  2  0
 21 22  1  0
M  END
>  <DRUGBANK_ID>  (1) 
DB00920

>  <SECONDARY_ACCESSION_NUMBERS>  (1) 
APRD01061

>  <COMMON_NAME>  (1) 
Ketotifen

>  <CAS_NUMBER>  (1) 
34580-13-7

>  <UNII>  (1) 
X49220T18G

>  <SYNONYMS>  (1) 
Ketotifen; Ketotifene; Ketotifeno; Ketotifenum

$$$$
