HS7
     RDKit          3D

 15 15  0  0  0  0  0  0  0  0999 V2000
    0.9614    0.0887    0.0821 O   0  0  0  0  0  0  0  0  0  0  0  0
    2.1881    0.0459    0.0389 C   0  0  0  0  0  0  0  0  0  0  0  0
    2.9293    0.8770    0.9013 N   0  0  0  0  0  0  0  0  0  0  0  0
    2.2458    1.5906    1.6435 O   0  0  0  0  0  0  0  0  0  0  0  0
    2.9437   -0.8280   -0.9326 C   0  0  0  0  0  0  0  0  0  0  0  0
    2.6720   -2.2774   -0.8528 N   0  0  0  0  0  0  0  0  0  0  0  0
    3.5623   -3.2874   -1.8851 S   0  0  0  0  0  0  0  0  0  0  0  0
    4.9507   -2.9430   -1.7078 O   0  0  0  0  0  0  0  0  0  0  0  0
    3.0757   -4.6253   -1.6079 O   0  0  0  0  0  0  0  0  0  0  0  0
    3.0826   -2.8488   -3.5419 C   0  0  0  0  0  0  0  0  0  0  0  0
    2.5313   -3.8122   -4.3885 C   0  0  0  0  0  0  0  0  0  0  0  0
    3.2976   -1.5510   -4.0213 C   0  0  0  0  0  0  0  0  0  0  0  0
    2.8211   -1.1753   -5.2759 C   0  0  0  0  0  0  0  0  0  0  0  0
    2.2890   -2.1385   -6.1255 C   0  0  0  0  0  0  0  0  0  0  0  0
    2.1585   -3.4577   -5.6889 C   0  0  0  0  0  0  0  0  0  0  0  0
  1  2  2  0
  2  3  1  0
  2  5  1  0
  3  4  2  0
  5  6  1  0
  6  7  1  0
  7  8  2  0
  7  9  2  0
  7 10  1  0
 10 11  2  0
 10 12  1  0
 11 15  1  0
 12 13  2  0
 13 14  1  0
 14 15  2  0
M  END
>  <DRUGBANK_ID>  (1) 
DB07922

>  <COMMON_NAME>  (1) 
N-oxo-2-(phenylsulfonylamino)ethanamide

$$$$
