
     RDKit          3D

  7  7  0  0  0  0  0  0  0  0999 V2000
    1.5372   -1.5275   -0.0030 C   0  0  0  0  0  0  0  0  0  0  0  0
    0.3425   -0.6879   -0.0006 N   0  0  0  0  0  0  0  0  0  0  0  0
   -0.9674   -1.1503    0.0019 C   0  0  0  0  0  0  0  0  0  0  0  0
   -1.7742   -0.0513    0.0019 C   0  0  0  0  0  0  0  0  0  0  0  0
   -0.9376    1.0390   -0.0030 N   0  0  0  0  0  0  0  0  0  0  0  0
    0.3506    0.6606   -0.0002 C   0  0  0  0  0  0  0  0  0  0  0  0
    1.5298    1.5702    0.0033 C   0  0  0  0  0  0  0  0  0  0  0  0
  1  2  1  0
  2  3  1  0
  2  6  1  0
  3  4  2  0
  4  5  1  0
  5  6  2  0
  6  7  1  0
M  CHG  1   5   1
M  END
>  <DRUGBANK_ID>  (1) 
DB03789

>  <SECONDARY_ACCESSION_NUMBERS>  (1) 
EXPT01226

>  <COMMON_NAME>  (1) 
2,3-Dimethylimidazolium Ion

$$$$
