
     RDKit          3D

 17 17  0  0  1  0  0  0  0  0999 V2000
   -0.0087   -1.9233    0.2198 C   0  0  0  0  0  0  0  0  0  0  0  0
    1.2597   -1.1601   -0.1563 C   0  0  0  0  0  0  0  0  0  0  0  0
    1.2968    0.2288    0.4903 C   0  0  2  0  0  0  0  0  0  0  0  0
   -0.0124    0.9637    0.1615 C   0  0  1  0  0  0  0  0  0  0  0  0
   -1.3073    0.2279    0.5180 C   0  0  2  0  0  0  0  0  0  0  0  0
   -1.2750   -1.1540   -0.1480 C   0  0  0  0  0  0  0  0  0  0  0  0
   -2.4340    0.9453   -0.0038 O   0  0  0  0  0  0  0  0  0  0  0  0
   -0.0073    2.3788    0.4617 N   0  0  0  0  0  0  0  0  0  0  0  0
    0.0021    3.5189   -0.2773 C   0  0  0  0  0  0  0  0  0  0  0  0
    0.0007    4.5420    0.4047 O   0  0  0  0  0  0  0  0  0  0  0  0
    0.0284    3.5346   -1.6682 N   0  0  0  0  0  0  0  0  0  0  0  0
    0.0405    2.4573   -2.6821 C   0  0  0  0  0  0  0  0  0  0  0  0
   -1.3031    2.1695   -3.3536 C   0  0  0  0  0  0  0  0  0  0  0  0
   -1.6240    3.1508   -4.7934 Cl  0  0  0  0  0  0  0  0  0  0  0  0
    0.0958    4.8554   -2.1821 N   0  0  0  0  0  0  0  0  0  0  0  0
    0.3452    4.9219   -3.3904 O   0  0  0  0  0  0  0  0  0  0  0  0
    2.4240    0.9368   -0.0408 O   0  0  0  0  0  0  0  0  0  0  0  0
  1  2  1  0
  1  6  1  0
  2  3  1  0
  3  4  1  0
  3 17  1  6
  4  5  1  0
  4  8  1  1
  5  6  1  0
  5  7  1  6
  8  9  1  0
  9 10  2  0
  9 11  1  0
 11 12  1  0
 11 15  1  0
 12 13  1  0
 13 14  1  0
 15 16  2  0
M  END
>  <DRUGBANK_ID>  (1) 
DB12968

>  <COMMON_NAME>  (1) 
DONU

>  <CAS_NUMBER>  (1) 
58484-17-6

>  <UNII>  (1) 
4093G4WO6Q

$$$$
