
     RDKit          3D

  8  8  0  0  0  0  0  0  0  0999 V2000
   -0.3739   -1.0638   -0.0056 C   0  0  0  0  0  0  0  0  0  0  0  0
   -1.2122   -0.0278   -0.0003 C   0  0  0  0  0  0  0  0  0  0  0  0
    0.9783   -0.7371    0.0117 O   0  0  0  0  0  0  0  0  0  0  0  0
   -0.7457   -2.5102   -0.0095 C   0  0  0  0  0  0  0  0  0  0  0  0
   -0.3372    1.1373    0.0036 C   0  0  0  0  0  0  0  0  0  0  0  0
    0.9455    0.6739    0.0123 N   0  0  0  0  0  0  0  0  0  0  0  0
   -0.2270   -3.2024   -1.1831 N   0  0  0  0  0  0  0  0  0  0  0  0
   -0.7167    2.2936    0.0003 O   0  0  0  0  0  0  0  0  0  0  0  0
  1  2  2  0
  1  3  1  0
  1  4  1  0
  2  5  1  0
  3  6  1  0
  4  7  1  0
  5  8  2  0
  5  6  1  0
M  END
>  <DRUGBANK_ID>  (1) 
DB12458

>  <COMMON_NAME>  (1) 
Muscimol

>  <CAS_NUMBER>  (1) 
2763-96-4

>  <UNII>  (1) 
D5M179TY2E

>  <SYNONYMS>  (1) 
5-(aminomethyl)-3(2H)-isoxazolone

$$$$
