
     RDKit          3D

 30 32  0  0  0  0  0  0  0  0999 V2000
    0.6786   -1.2492   -0.2997 C   0  0  0  0  0  0  0  0  0  0  0  0
    1.4231   -0.0458    0.1730 N   0  0  0  0  0  0  0  0  0  0  0  0
    0.7105    1.2029   -0.2775 C   0  0  0  0  0  0  0  0  0  0  0  0
   -0.7304    1.2446    0.2368 C   0  0  0  0  0  0  0  0  0  0  0  0
   -1.5159   -0.0001   -0.1941 C   0  0  0  0  0  0  0  0  0  0  0  0
   -0.7513   -1.2535    0.2255 C   0  0  0  0  0  0  0  0  0  0  0  0
   -2.8333   -0.0432    0.4391 N   0  0  0  0  0  0  0  0  0  0  0  0
   -3.9486    0.0567   -0.3638 C   0  0  0  0  0  0  0  0  0  0  0  0
   -4.1392   -0.9267   -1.2494 N   0  0  0  0  0  0  0  0  0  0  0  0
   -5.3424   -0.9834   -1.8506 C   0  0  0  0  0  0  0  0  0  0  0  0
   -6.3411   -0.0594   -1.6629 C   0  0  0  0  0  0  0  0  0  0  0  0
   -5.9945    1.0187   -0.8531 C   0  0  0  0  0  0  0  0  0  0  0  0
   -4.8332    1.0461   -0.1535 N   0  0  0  0  0  0  0  0  0  0  0  0
   -6.7175    2.2157   -0.8816 N   0  0  0  0  0  0  0  0  0  0  0  0
   -7.7088   -0.2413   -2.2163 C   0  0  0  0  0  0  0  0  0  0  0  0
   -8.0447   -1.2721   -3.2269 C   0  0  0  0  0  0  0  0  0  0  0  0
   -8.4574   -0.9891   -4.5418 C   0  0  0  0  0  0  0  0  0  0  0  0
   -8.8741   -2.0572   -5.3685 C   0  0  0  0  0  0  0  0  0  0  0  0
   -8.8718   -3.3779   -4.9126 C   0  0  0  0  0  0  0  0  0  0  0  0
   -8.4598   -3.6378   -3.6160 C   0  0  0  0  0  0  0  0  0  0  0  0
   -8.0618   -2.5999   -2.7794 C   0  0  0  0  0  0  0  0  0  0  0  0
   -7.6714   -2.8933   -1.5297 F   0  0  0  0  0  0  0  0  0  0  0  0
   -8.4523   -4.9009   -3.1693 F   0  0  0  0  0  0  0  0  0  0  0  0
   -8.5054    0.2162   -5.1929 O   0  0  0  0  0  0  0  0  0  0  0  0
   -8.1030    1.3884   -4.4981 C   0  0  0  0  0  0  0  0  0  0  0  0
   -8.6288    0.4629   -1.8023 O   0  0  0  0  0  0  0  0  0  0  0  0
    3.0774   -0.0043   -0.3347 S   0  0  0  0  0  0  0  0  0  0  0  0
    3.0762   -0.1286   -1.7731 O   0  0  0  0  0  0  0  0  0  0  0  0
    3.7002    1.1383    0.3106 O   0  0  0  0  0  0  0  0  0  0  0  0
    3.8084   -1.4849    0.3527 C   0  0  0  0  0  0  0  0  0  0  0  0
  1  2  1  0
  1  6  1  0
  2  3  1  0
  2 27  1  0
  3  4  1  0
  4  5  1  0
  5  6  1  0
  5  7  1  0
  7  8  1  0
  8  9  2  0
  9 10  1  0
 10 11  2  0
 11 12  1  0
 11 15  1  0
 12 13  2  0
 12 14  1  0
 13  8  1  0
 15 16  1  0
 15 26  2  0
 16 21  1  0
 17 16  2  0
 17 24  1  0
 18 17  1  0
 19 18  2  0
 20 19  1  0
 20 23  1  0
 21 20  2  0
 21 22  1  0
 24 25  1  0
 27 28  2  0
 27 29  2  0
 27 30  1  0
M  END
>  <DRUGBANK_ID>  (1) 
DB08094

>  <COMMON_NAME>  (1) 
RO-4584820

>  <CAS_NUMBER>  (1) 
741713-40-6

>  <UNII>  (1) 
T61871RKRI

$$$$
