1221
     RDKit          3D

 16 17  0  0  1  0  0  0  0  0999 V2000
   -2.2358   -0.1799    0.0623 Cl  0  0  0  0  0  0  0  0  0  0  0  0
   -1.6875    4.2587    1.4001 O   0  0  0  0  0  0  0  0  0  0  0  0
    0.0610    2.6779    1.5360 N   0  0  0  0  0  0  0  0  0  0  0  0
   -0.4307    2.5581    0.1319 C   0  0  0  0  0  0  0  0  0  0  0  0
   -0.2094    2.9727   -1.4060 C   0  0  0  0  0  0  0  0  0  0  0  0
   -1.5278    2.8680   -2.2563 C   0  0  0  0  0  0  0  0  0  0  0  0
   -2.5290    3.9042   -1.8048 C   0  0  0  0  0  0  0  0  0  0  0  0
   -1.7189    3.4268    0.4422 C   0  0  0  0  0  0  0  0  0  0  0  0
   -2.9274    3.5657   -0.3978 C   0  0  0  0  0  0  0  0  0  0  0  0
    0.1206    1.1223   -0.0555 C   0  0  0  0  0  0  0  0  0  0  0  0
   -0.5268   -0.0903   -0.0097 C   0  0  0  0  0  0  0  0  0  0  0  0
    1.5766    1.0698   -0.2004 C   0  0  0  0  0  0  0  0  0  0  0  0
    1.3792    2.9280    2.0029 C   0  0  0  0  0  0  0  0  0  0  0  0
    0.2358   -1.2804   -0.0246 C   0  0  0  0  0  0  0  0  0  0  0  0
    2.3300   -0.0919   -0.1233 C   0  0  0  0  0  0  0  0  0  0  0  0
    1.6449   -1.2825   -0.0382 C   0  0  0  0  0  0  0  0  0  0  0  0
  1 11  1  0
  2  8  2  0
  3  4  1  0
  3 13  1  0
  4  5  1  0
  4  8  1  0
  4 10  1  0
  5  6  1  0
  6  7  1  0
  7  9  1  0
  8  9  1  0
 10 11  2  0
 10 12  1  0
 11 14  1  0
 12 15  2  0
 14 16  2  0
 15 16  1  0
M  END
>  <DRUGBANK_ID>  (1) 
DB01221

>  <SECONDARY_ACCESSION_NUMBERS>  (1) 
APRD00493

>  <COMMON_NAME>  (1) 
Ketamine

>  <CAS_NUMBER>  (1) 
6740-88-1

>  <UNII>  (1) 
690G0D6V8H

>  <SYNONYMS>  (1) 
(+-)-Ketamine; (±)-ketamine; 2-(2-Chloro-phenyl)-2-methylamino-cyclohexanone; 2-(methylamino)-2-(2-chlorophenyl)cyclohexanone; 2-(o-chlorophenyl)-2-(methylamino)-cyclohexanone; DL-ketamine; Ketamina; Ketamine; Kétamine; Ketaminum; NMDA; Special K

$$$$
