
     RDKit          3D

 31 34  0  0  0  0  0  0  0  0999 V2000
    1.2284   -1.4954    0.3816 C   0  0  2  0  0  0  0  0  0  0  0  0
   -0.0075   -0.6766   -0.0923 C   0  0  2  0  0  0  0  0  0  0  0  0
    2.5414   -0.8345   -0.1737 C   0  0  2  0  0  0  0  0  0  0  0  0
    1.1926   -2.8435   -0.2985 C   0  0  0  0  0  0  0  0  0  0  0  0
    0.1379    0.7371    0.3367 C   0  0  2  0  0  0  0  0  0  0  0  0
   -1.4664   -1.0195    0.2402 C   0  0  0  0  0  0  0  0  0  0  0  0
    2.6291    0.5821    0.4590 C   0  0  0  0  0  0  0  0  0  0  0  0
    2.3087   -1.0700   -1.7226 C   0  0  2  0  0  0  0  0  0  0  0  0
    3.8376   -1.5323    0.2574 C   0  0  0  0  0  0  0  0  0  0  0  0
    1.4944   -2.4782   -1.7417 C   0  0  0  0  0  0  0  0  0  0  0  0
   -0.8303    1.5088   -0.4673 C   0  0  2  0  0  0  0  0  0  0  0  0
    1.4760    1.3976    0.0335 C   0  0  0  0  0  0  0  0  0  0  0  0
   -2.5887    0.1065   -0.5164 C   0  0  0  0  0  0  0  0  0  0  0  0
    3.5231   -0.8752   -2.4874 O   0  0  0  0  0  0  0  0  0  0  0  0
   -2.2267    1.7633   -0.5749 C   0  0  0  0  0  0  0  0  0  0  0  0
   -0.7581    1.2686   -2.1582 C   0  0  0  0  0  0  0  0  0  0  0  0
   -2.0796    3.0449   -1.2589 C   0  0  0  0  0  0  0  0  0  0  0  0
    0.1569    2.3325   -2.6191 C   0  0  0  0  0  0  0  0  0  0  0  0
   -0.3997    3.4158   -1.6519 C   0  0  0  0  0  0  0  0  0  0  0  0
    0.2556    4.2026   -1.0107 O   0  0  0  0  0  0  0  0  0  0  0  0
    3.5385   -0.8903   -3.8595 C   0  0  0  0  0  0  0  0  0  0  0  0
    2.7164   -2.0190   -4.4166 C   0  0  0  0  0  0  0  0  0  0  0  0
    1.7742   -1.6822   -5.5358 C   0  0  0  0  0  0  0  0  0  0  0  0
    2.5645   -1.3940   -6.7871 C   0  0  0  0  0  0  0  0  0  0  0  0
    3.5001   -2.5703   -7.0982 C   0  0  0  0  0  0  0  0  0  0  0  0
    2.6947   -3.8548   -7.3346 C   0  0  0  0  0  0  0  0  0  0  0  0
    1.7319   -3.6575   -8.5091 C   0  0  0  0  0  0  0  0  0  0  0  0
    2.5041   -3.3138   -9.7884 C   0  0  0  0  0  0  0  0  0  0  0  0
    3.4933   -4.4212  -10.1552 C   0  0  0  0  0  0  0  0  0  0  0  0
    2.7565   -5.7289  -10.3934 C   0  0  0  0  0  0  0  0  0  0  0  0
    4.2606   -0.1991   -4.5284 O   0  0  0  0  0  0  0  0  0  0  0  0
  1  2  1  0
  1  3  1  0
  1  4  1  6
  2  5  1  0
  2  6  1  1
  3  7  1  0
  3  8  1  0
  3  9  1  1
  4 10  1  0
  5 12  1  6
  5 11  1  0
  6 13  1  0
  7 12  1  0
  8 10  1  0
  8 14  1  6
 11 15  1  0
 11 16  1  6
 13 15  1  0
 14 21  1  0
 15 17  2  0
 16 18  1  0
 17 19  1  0
 18 19  1  0
 19 20  2  0
 21 22  1  0
 21 31  2  0
 22 23  1  0
 23 24  1  0
 24 25  1  0
 25 26  1  0
 26 27  1  0
 27 28  1  0
 28 29  1  0
 29 30  1  0
M  END
>  <DRUGBANK_ID>  (1) 
DB08804

>  <COMMON_NAME>  (1) 
Nandrolone decanoate

>  <CAS_NUMBER>  (1) 
360-70-3

>  <UNII>  (1) 
H45187T098

>  <SYNONYMS>  (1) 
19-nortestosterone decanoate; Nandrolone 17Î²-decanoate; Nandrolone decanoate

$$$$
