
     RDKit          3D

  2  0  0  0  0  0  0  0  0  0999 V2000
    2.7501   -0.4237   -1.2995 Cl  0  0  0  0  0  0  0  0  0  0  0  0
    0.5259    0.0445    0.3577 N   0  0  0  0  0  0  0  0  0  0  0  0
M  CHG  2   1  -1   2   1
M  END
>  <DRUGBANK_ID>  (1) 
DB06767

>  <COMMON_NAME>  (1) 
Ammonium chloride

>  <CAS_NUMBER>  (1) 
12125-02-9

>  <UNII>  (1) 
01Q9PC255D

>  <SYNONYMS>  (1) 
Ammonium chloride; Ammoniumchlorid; Chlorammonic; Chlorid ammonia

$$$$
