FRY
     RDKit          3D

 27 30  0  0  0  0  0  0  0  0999 V2000
    0.1945    0.3700   -0.5813 C   0  0  1  0  0  0  0  0  0  0  0  0
   -3.4559   -2.0553   -1.0178 C   0  0  0  0  0  0  0  0  0  0  0  0
   -3.4552   -0.6998   -0.9595 C   0  0  0  0  0  0  0  0  0  0  0  0
   -1.2838    0.6714   -0.5754 C   0  0  0  0  0  0  0  0  0  0  0  0
   -2.0877   -0.3637   -0.7929 C   0  0  0  0  0  0  0  0  0  0  0  0
   -1.3836   -1.6237   -0.9533 C   0  0  0  0  0  0  0  0  0  0  0  0
   -4.7715   -2.7778   -1.1583 C   0  0  0  0  0  0  0  0  0  0  0  0
   -5.9880   -4.9549   -0.7905 C   0  0  1  0  0  0  0  0  0  0  0  0
   -8.2416   -6.4311    0.2939 C   0  0  0  0  0  0  0  0  0  0  0  0
   -5.7627   -6.3575   -0.1805 C   0  0  0  0  0  0  0  0  0  0  0  0
   -7.0603   -7.1251   -0.0028 C   0  0  0  0  0  0  0  0  0  0  0  0
   -7.1093   -4.2603    0.0372 C   0  0  0  0  0  0  0  0  0  0  0  0
   -7.0710   -3.0805    0.3667 O   0  0  0  0  0  0  0  0  0  0  0  0
   -9.3474   -4.2864    0.9730 C   0  0  0  0  0  0  0  0  0  0  0  0
  -11.7092   -4.7688    0.7630 O   0  0  0  0  0  0  0  0  0  0  0  0
  -10.6591   -4.4454    0.2130 C   0  0  0  0  0  0  0  0  0  0  0  0
  -10.6276   -4.1969   -1.1263 N   0  0  0  0  0  0  0  0  0  0  0  0
   -8.2293   -5.0130    0.3562 N   0  0  0  0  0  0  0  0  0  0  0  0
   -9.4128   -7.1598    0.5576 C   0  0  0  0  0  0  0  0  0  0  0  0
   -9.4531   -8.5431    0.4836 C   0  0  0  0  0  0  0  0  0  0  0  0
   -8.2897   -9.2346    0.1999 C   0  0  0  0  0  0  0  0  0  0  0  0
   -7.0946   -8.5348   -0.0240 C   0  0  0  0  0  0  0  0  0  0  0  0
   -4.7536   -4.1232   -0.7935 N   0  0  0  0  0  0  0  0  0  0  0  0
   -5.7468   -2.1746   -1.5531 O   0  0  0  0  0  0  0  0  0  0  0  0
   -2.1797   -2.6583   -1.0081 N   0  0  0  0  0  0  0  0  0  0  0  0
    0.3126   -1.3773   -1.1378 S   0  0  0  0  0  0  0  0  0  0  0  0
    0.9438    1.6408   -1.5625 Cl  0  0  0  0  0  0  0  0  0  0  0  0
  1 27  1  6
  1  4  1  0
  1 26  1  0
  2  3  2  0
  2 25  1  0
  2  7  1  0
  3  5  1  0
  4  5  2  0
  5  6  1  0
  6 26  1  0
  6 25  2  0
  7 23  1  0
  7 24  2  0
  8 23  1  1
  8 12  1  0
  8 10  1  0
  9 18  1  0
  9 11  2  0
  9 19  1  0
 10 11  1  0
 11 22  1  0
 12 13  2  0
 12 18  1  0
 14 16  1  0
 14 18  1  0
 15 16  2  0
 16 17  1  0
 19 20  2  0
 20 21  1  0
 21 22  2  0
M  END
>  <DRUGBANK_ID>  (1) 
DB07793

>  <COMMON_NAME>  (1) 
(2S)-N-[(3S)-1-(2-AMINO-2-OXOETHYL)-2-OXO-1,2,3,4-TETRAHYDROQUINOLIN-3-YL]-2-CHLORO-2H-THIENO[2,3-B]PYRROLE-5-CARBOXAMIDE

$$$$
