
     RDKit          3D

 16 17  0  0  0  0  0  0  0  0999 V2000
   -0.7688    1.2194    0.0012 C   0  0  0  0  0  0  0  0  0  0  0  0
    0.4110    5.5127   -0.3124 C   0  0  0  0  0  0  0  0  0  0  0  0
    2.3278    2.4045   -1.2687 C   0  0  0  0  0  0  0  0  0  0  0  0
   -1.4374    0.0477   -0.0025 C   0  0  0  0  0  0  0  0  0  0  0  0
    1.5408    2.3649    0.0372 C   0  0  0  0  0  0  0  0  0  0  0  0
    1.7054    4.7214   -0.3177 C   0  0  0  0  0  0  0  0  0  0  0  0
   -0.6703   -1.2326    0.0075 C   0  0  0  0  0  0  0  0  0  0  0  0
    1.2362   -0.0182    0.0296 C   0  0  0  0  0  0  0  0  0  0  0  0
   -2.7761   -0.0394   -0.0151 F   0  0  0  0  0  0  0  0  0  0  0  0
   -1.2163   -2.4092    0.0054 N   0  0  0  0  0  0  0  0  0  0  0  0
    0.6922   -1.2003    0.0170 N   0  0  0  0  0  0  0  0  0  0  0  0
    0.6072    1.2240    0.0275 N   0  0  0  0  0  0  0  0  0  0  0  0
    0.1602    6.0016    1.0164 O   0  0  0  0  0  0  0  0  0  0  0  0
    2.5817   -0.0034    0.0398 O   0  0  0  0  0  0  0  0  0  0  0  0
    1.3324    3.6653    0.5959 O   0  0  0  0  0  0  0  0  0  0  0  0
    2.1475    4.0599   -1.9249 S   0  0  0  0  0  0  0  0  0  0  0  0
  4  1  2  0
  5  3  1  0
  6  2  1  0
  7  4  1  0
  9  4  1  0
 10  7  2  0
 11  7  1  0
 11  8  2  0
 12  1  1  0
 12  5  1  0
 12  8  1  0
 13  2  1  0
 14  8  1  0
 15  5  1  0
 15  6  1  0
 16  3  1  0
 16  6  1  0
M  END
>  <DRUGBANK_ID>  (1) 
DB12753

>  <COMMON_NAME>  (1) 
Racivir

>  <CAS_NUMBER>  (1) 
143491-54-7

>  <SYNONYMS>  (1) 
(+/-)-Emtricitabine; Emtricitabine, (+/-)-; RCV

$$$$
