TL2
     RDKit          3D

 28 31  0  0  0  0  0  0  0  0999 V2000
   -0.7198   -8.1472    9.1104 N   0  0  0  0  0  0  0  0  0  0  0  0
    0.5713   -8.2274    9.1747 C   0  0  0  0  0  0  0  0  0  0  0  0
    1.4712   -7.6389    8.1506 C   0  0  0  0  0  0  0  0  0  0  0  0
    1.1613   -6.4318    7.5430 C   0  0  0  0  0  0  0  0  0  0  0  0
    2.0693   -5.8921    6.6258 C   0  0  0  0  0  0  0  0  0  0  0  0
    2.6922   -8.2660    7.8671 C   0  0  0  0  0  0  0  0  0  0  0  0
    3.6394   -7.6585    7.0373 C   0  0  0  0  0  0  0  0  0  0  0  0
    3.3253   -6.4877    6.3667 C   0  0  0  0  0  0  0  0  0  0  0  0
    4.3267   -6.0136    5.5171 O   0  0  0  0  0  0  0  0  0  0  0  0
    4.0793   -4.6987    5.0163 C   0  0  1  0  0  0  0  0  0  0  0  0
    4.0870   -3.7990    6.2258 C   0  0  0  0  0  0  0  0  0  0  0  0
    5.0680   -2.7831    6.1765 O   0  0  0  0  0  0  0  0  0  0  0  0
    5.0733   -3.9874    4.0914 C   0  0  2  0  0  0  0  0  0  0  0  0
    5.5791   -2.7604    4.8639 C   0  0  1  0  0  0  0  0  0  0  0  0
    5.2394   -1.5104    4.0151 C   0  0  2  0  0  0  0  0  0  0  0  0
    4.1713   -0.5626    4.3213 O   0  0  0  0  0  0  0  0  0  0  0  0
    4.4493   -3.4277    2.9013 O   0  0  0  0  0  0  0  0  0  0  0  0
    2.4435   -1.5075    5.6195 C   0  0  0  0  0  0  0  0  0  0  0  0
    5.0905   -2.1550    2.6484 C   0  0  0  0  0  0  0  0  0  0  0  0
    2.8828   -0.9818    4.4324 C   0  0  0  0  0  0  0  0  0  0  0  0
    1.8780   -0.6471    3.5464 C   0  0  0  0  0  0  0  0  0  0  0  0
   -0.6127   -0.5683    3.0590 C   0  0  0  0  0  0  0  0  0  0  0  0
   -1.8302   -0.9405    3.2561 N   0  0  0  0  0  0  0  0  0  0  0  0
   -0.4420    0.5121    2.2433 N   0  0  0  0  0  0  0  0  0  0  0  0
    1.2531   -2.2461    5.6880 C   0  0  0  0  0  0  0  0  0  0  0  0
    0.3476   -2.1761    4.6626 C   0  0  0  0  0  0  0  0  0  0  0  0
    0.5755   -1.1852    3.7150 C   0  0  0  0  0  0  0  0  0  0  0  0
    1.1249   -8.8754   10.2330 N   0  0  0  0  0  0  0  0  0  0  0  0
  1  2  2  0
  2  3  1  0
  2 28  1  0
  3  4  2  0
  3  6  1  0
  4  5  1  0
  5  8  2  0
  6  7  2  0
  7  8  1  0
  8  9  1  0
 10 11  1  0
 10 13  1  0
 10  9  1  1
 11 12  1  0
 14 12  1  1
 13 14  1  0
 13 17  1  6
 14 15  1  0
 15 16  1  1
 15 19  1  0
 16 20  1  0
 17 19  1  0
 18 20  2  0
 18 25  1  0
 20 21  1  0
 21 27  2  0
 22 23  2  0
 22 24  1  0
 22 27  1  0
 25 26  2  0
 26 27  1  0
M  END
>  <DRUGBANK_ID>  (1) 
DB04791

>  <COMMON_NAME>  (1) 
2-O-(4'-AMIDINOPHENYL)-5-O-(3''-AMIDINOPHENYL)-1,4:3,6-DIANHYDRO-D-SORBITOL

$$$$
