MBS
     RDKit          3D

 28 29  0  0  0  0  0  0  0  0999 V2000
   -0.4491    3.4796    0.3246 C   0  0  0  0  0  0  0  0  0  0  0  0
    0.9213    3.4771    0.6557 O   0  0  0  0  0  0  0  0  0  0  0  0
    1.6329    4.1714   -0.3588 C   0  0  0  0  0  0  0  0  0  0  0  0
    1.4614    3.4389   -1.6795 C   0  0  0  0  0  0  0  0  0  0  0  0
    1.3142    2.8105   -2.8125 C   0  0  0  0  0  0  0  0  0  0  0  0
    1.1427    2.0780   -4.1332 C   0  0  0  0  0  0  0  0  0  0  0  0
   -0.2833    1.7404   -4.4162 C   0  0  2  0  0  0  0  0  0  0  0  0
   -0.4499    0.2535   -4.6885 C   0  0  0  0  0  0  0  0  0  0  0  0
   -0.0338   -0.6500   -3.9769 O   0  0  0  0  0  0  0  0  0  0  0  0
   -1.1900   -0.0428   -5.7743 O   0  0  0  0  0  0  0  0  0  0  0  0
   -0.8316    2.6534   -5.4581 N   0  0  0  0  0  0  0  0  0  0  0  0
   -0.7044    4.3398   -5.2668 S   0  0  0  0  0  0  0  0  0  0  0  0
    0.6718    4.6815   -5.0176 O   0  0  0  0  0  0  0  0  0  0  0  0
   -1.3897    4.9183   -6.4083 O   0  0  0  0  0  0  0  0  0  0  0  0
   -1.6355    4.7537   -3.8122 C   0  0  0  0  0  0  0  0  0  0  0  0
   -2.2627    3.7928   -3.0199 C   0  0  0  0  0  0  0  0  0  0  0  0
   -2.7978    4.1210   -1.7752 C   0  0  0  0  0  0  0  0  0  0  0  0
   -2.8029    5.4435   -1.3374 C   0  0  0  0  0  0  0  0  0  0  0  0
   -2.1900    6.4125   -2.1563 C   0  0  0  0  0  0  0  0  0  0  0  0
   -1.6359    6.0821   -3.3976 C   0  0  0  0  0  0  0  0  0  0  0  0
   -3.4581    5.8333   -0.0829 C   0  0  0  0  0  0  0  0  0  0  0  0
   -3.0882    5.3114    1.1594 C   0  0  0  0  0  0  0  0  0  0  0  0
   -3.6101    5.7858    2.3556 C   0  0  0  0  0  0  0  0  0  0  0  0
   -4.5790    6.7739    2.3364 C   0  0  0  0  0  0  0  0  0  0  0  0
   -4.9901    7.2931    1.1071 C   0  0  0  0  0  0  0  0  0  0  0  0
   -4.4685    6.7959   -0.0918 C   0  0  0  0  0  0  0  0  0  0  0  0
   -5.1975    7.2734    3.4476 O   0  0  0  0  0  0  0  0  0  0  0  0
   -4.8624    6.6347    4.6786 C   0  0  0  0  0  0  0  0  0  0  0  0
  1  2  1  0
  2  3  1  0
  3  4  1  0
  4  5  3  0
  5  6  1  0
  7 11  1  0
  7  8  1  0
  7  6  1  6
  8  9  2  0
  8 10  1  0
 11 12  1  0
 12 13  2  0
 12 14  2  0
 12 15  1  0
 15 16  2  0
 15 20  1  0
 16 17  1  0
 17 18  2  0
 18 19  1  0
 18 21  1  0
 19 20  2  0
 21 22  2  0
 21 26  1  0
 22 23  1  0
 23 24  2  0
 24 25  1  0
 24 27  1  0
 25 26  2  0
 27 28  1  0
M  END
>  <DRUGBANK_ID>  (1) 
DB04416

>  <SECONDARY_ACCESSION_NUMBERS>  (1) 
EXPT02128

>  <COMMON_NAME>  (1) 
R-2-{[4'-Methoxy-(1,1'-Biphenyl)-4-Yl]-Sulfonyl}-Amino-6-Methoxy-Hex-4-Ynoic Acid

$$$$
