ST2
     RDKit          3D

 15 15  0  0  0  0  0  0  0  0999 V2000
    0.8580    0.0578   -0.0718 C   0  0  0  0  0  0  0  0  0  0  0  0
    0.1766   -0.9630   -0.0692 O   0  0  0  0  0  0  0  0  0  0  0  0
    0.3012    1.2712   -0.0865 O   0  0  0  0  0  0  0  0  0  0  0  0
    2.3301    0.0904   -0.0678 C   0  0  0  0  0  0  0  0  0  0  0  0
    3.1151    1.2481   -0.0872 C   0  0  0  0  0  0  0  0  0  0  0  0
    4.5336    1.1791   -0.1129 C   0  0  0  0  0  0  0  0  0  0  0  0
    5.2265    2.3935   -0.0650 N   0  0  0  0  0  0  0  0  0  0  0  0
    5.1758   -0.0990   -0.1019 C   0  0  0  0  0  0  0  0  0  0  0  0
    6.6107   -0.1546   -0.1023 N   0  0  0  0  0  0  0  0  0  0  0  0
    7.5345   -1.1756   -0.1007 C   0  0  0  0  0  0  0  0  0  0  0  0
    8.7387   -0.8984   -0.1001 O   0  0  0  0  0  0  0  0  0  0  0  0
    7.1315   -2.6124   -0.1041 C   0  0  0  0  0  0  0  0  0  0  0  0
    4.3268   -1.2268   -0.1018 C   0  0  0  0  0  0  0  0  0  0  0  0
    4.7646   -2.5037   -0.1807 O   0  0  0  0  0  0  0  0  0  0  0  0
    2.9473   -1.1408   -0.0658 C   0  0  0  0  0  0  0  0  0  0  0  0
  1  2  2  0
  1  3  1  0
  1  4  1  0
  4  5  2  0
  4 15  1  0
  5  6  1  0
  6  7  1  0
  6  8  2  0
  8  9  1  0
  8 13  1  0
  9 10  1  0
 10 11  2  0
 10 12  1  0
 13 14  1  0
 13 15  2  0
M  END
>  <DRUGBANK_ID>  (1) 
DB08571

>  <COMMON_NAME>  (1) 
4-(ACETYLAMINO)-5-AMINO-3-HYDROXYBENZOIC ACID

$$$$
