
     RDKit          3D

 24 26  0  0  0  0  0  0  0  0999 V2000
   -1.1596    0.6846    0.0033 C   0  0  0  0  0  0  0  0  0  0  0  0
   -1.2455   -0.7429    0.0094 C   0  0  0  0  0  0  0  0  0  0  0  0
    0.2235    1.2393   -0.0565 C   0  0  0  0  0  0  0  0  0  0  0  0
    0.0296   -1.5710   -0.0008 C   0  0  0  0  0  0  0  0  0  0  0  0
    1.4059    0.4541    0.0272 C   0  0  0  0  0  0  0  0  0  0  0  0
    1.3507   -0.9020    0.0129 C   0  0  0  0  0  0  0  0  0  0  0  0
   -2.3284    1.5050    0.0077 C   0  0  0  0  0  0  0  0  0  0  0  0
   -2.5086   -1.3930    0.0127 C   0  0  0  0  0  0  0  0  0  0  0  0
    0.5784    2.3591   -0.2951 O   0  0  0  0  0  0  0  0  0  0  0  0
    0.0153   -2.7970   -0.0152 O   0  0  0  0  0  0  0  0  0  0  0  0
    3.8122    0.5438    0.0091 N   0  0  0  0  0  0  0  0  0  0  0  0
   -3.6419   -0.5754    0.0035 C   0  0  0  0  0  0  0  0  0  0  0  0
   -3.5559    0.8186    0.0011 C   0  0  0  0  0  0  0  0  0  0  0  0
    2.6276    1.1487    0.0213 C   0  0  0  0  0  0  0  0  0  0  0  0
   -2.4513    2.8920   -0.0331 N   0  0  0  0  0  0  0  0  0  0  0  0
   -2.6284   -2.7710   -0.0064 N   0  0  0  0  0  0  0  0  0  0  0  0
    2.5736   -1.5556    0.0025 C   0  0  0  0  0  0  0  0  0  0  0  0
   -2.8975   -5.4449   -1.2595 N   0  0  0  0  0  0  0  0  0  0  0  0
   -2.1104    5.6289   -1.3823 N   0  0  0  0  0  0  0  0  0  0  0  0
    3.7518   -0.7971    0.0026 C   0  0  0  0  0  0  0  0  0  0  0  0
   -1.4068    3.8970    0.0951 C   0  0  0  0  0  0  0  0  0  0  0  0
   -3.8633   -3.5460    0.0126 C   0  0  0  0  0  0  0  0  0  0  0  0
   -1.0908    4.5997   -1.2211 C   0  0  0  0  0  0  0  0  0  0  0  0
   -3.9556   -4.4329   -1.2373 C   0  0  0  0  0  0  0  0  0  0  0  0
  2  1  2  0
  3  1  1  0
  4  2  1  0
  5  3  1  0
  6  5  2  0
  6  4  1  0
  7  1  1  0
  8 12  2  0
  8  2  1  0
  9  3  2  0
 10  4  2  0
 11 20  1  0
 11 14  2  0
 12 13  1  0
 13  7  2  0
 14  5  1  0
 15  7  1  0
 16  8  1  0
 17  6  1  0
 18 24  1  0
 19 23  1  0
 20 17  2  0
 21 15  1  0
 22 16  1  0
 23 21  1  0
 24 22  1  0
M  END
>  <DRUGBANK_ID>  (1) 
DB06193

>  <COMMON_NAME>  (1) 
Pixantrone

>  <CAS_NUMBER>  (1) 
144510-96-3

>  <UNII>  (1) 
F5SXN2KNMR

>  <SYNONYMS>  (1) 
6,9-bis((2-aminoethyl)amino)benzo(g)isoquinoline-5,10-dione; Pixantrona; Pixantrone

$$$$
