1511
     RDKit          3D

 20 22  0  0  0  0  0  0  0  0999 V2000
    1.0222   -0.0149   -0.1005 Cl  0  0  0  0  0  0  0  0  0  0  0  0
    5.2306    1.5058    3.0700 Cl  0  0  0  0  0  0  0  0  0  0  0  0
    9.0204    0.5744   -0.6662 O   0  0  0  0  0  0  0  0  0  0  0  0
    6.9373   -0.0652   -0.1118 N   0  0  0  0  0  0  0  0  0  0  0  0
    6.5704    2.9323   -0.4838 N   0  0  0  0  0  0  0  0  0  0  0  0
    4.8243    1.2269   -0.0751 C   0  0  0  0  0  0  0  0  0  0  0  0
    5.5040    2.5415    0.1299 C   0  0  0  0  0  0  0  0  0  0  0  0
    5.5387    0.0190   -0.1363 C   0  0  0  0  0  0  0  0  0  0  0  0
    4.9164    3.4642    1.1483 C   0  0  0  0  0  0  0  0  0  0  0  0
    3.4205    1.2062   -0.0546 C   0  0  0  0  0  0  0  0  0  0  0  0
    7.2198    2.0132   -1.4224 C   0  0  0  0  0  0  0  0  0  0  0  0
    4.8386   -1.1926   -0.1886 C   0  0  0  0  0  0  0  0  0  0  0  0
    7.8092    0.8248   -0.6786 C   0  0  0  0  0  0  0  0  0  0  0  0
    2.7410   -0.0050   -0.1274 C   0  0  0  0  0  0  0  0  0  0  0  0
    3.4425   -1.2032   -0.2098 C   0  0  0  0  0  0  0  0  0  0  0  0
    4.7134    3.0438    2.4713 C   0  0  0  0  0  0  0  0  0  0  0  0
    4.5602    4.7684    0.7707 C   0  0  0  0  0  0  0  0  0  0  0  0
    4.1149    3.9056    3.3904 C   0  0  0  0  0  0  0  0  0  0  0  0
    4.0666    5.6588    1.7301 C   0  0  0  0  0  0  0  0  0  0  0  0
    3.8393    5.2247    3.0360 C   0  0  0  0  0  0  0  0  0  0  0  0
  1 14  1  0
  2 16  1  0
  3 13  2  0
  4  8  1  0
  4 13  1  0
  5  7  2  0
  5 11  1  0
  6  7  1  0
  6  8  2  0
  6 10  1  0
  7  9  1  0
  8 12  1  0
  9 16  2  0
  9 17  1  0
 10 14  2  0
 11 13  1  0
 12 15  2  0
 14 15  1  0
 16 18  1  0
 17 19  2  0
 18 20  2  0
 19 20  1  0
M  END
>  <DRUGBANK_ID>  (1) 
DB01511

>  <COMMON_NAME>  (1) 
Delorazepam

>  <CAS_NUMBER>  (1) 
2894-67-9

>  <UNII>  (1) 
O91W32476G

>  <SYNONYMS>  (1) 
Chlordesmethyldiazepam; Clordesmetildiazepam; Delorazepam; Delorazepamum

$$$$
