
     RDKit          3D

 22 25  0  0  1  0  0  0  0  0999 V2000
   -2.2057   -0.7185    6.2060 O   0  0  0  0  0  0  0  0  0  0  0  0
   -5.6052   -7.9648   -1.1865 O   0  0  0  0  0  0  0  0  0  0  0  0
   -3.9167   -4.4609    2.0891 C   0  0  2  0  0  0  0  0  0  0  0  0
   -3.5197   -4.8297    3.5342 C   0  0  1  0  0  0  0  0  0  0  0  0
   -2.9727   -5.5721    0.8845 C   0  0  2  0  0  0  0  0  0  0  0  0
   -3.7545   -3.7048    4.5977 C   0  0  2  0  0  0  0  0  0  0  0  0
   -3.2949   -2.1669    4.3305 C   0  0  1  0  0  0  0  0  0  0  0  0
   -3.9905   -6.7843    1.3544 C   0  0  2  0  0  0  0  0  0  0  0  0
   -3.7458   -2.8500    2.1327 C   0  0  0  0  0  0  0  0  0  0  0  0
   -4.5300   -2.0826    3.3653 C   0  0  0  0  0  0  0  0  0  0  0  0
   -4.1159   -6.1971    3.9055 C   0  0  0  0  0  0  0  0  0  0  0  0
   -3.2549   -4.1243    5.9754 C   0  0  0  0  0  0  0  0  0  0  0  0
   -2.5462   -2.0236    5.7313 C   0  0  2  0  0  0  0  0  0  0  0  0
   -2.6319   -6.0316   -0.8873 C   0  0  2  0  0  0  0  0  0  0  0  0
   -3.6935   -7.2132    2.8316 C   0  0  0  0  0  0  0  0  0  0  0  0
   -3.0732   -2.8956    6.8520 C   0  0  0  0  0  0  0  0  0  0  0  0
   -2.9900   -4.1830    0.1992 C   0  0  0  0  0  0  0  0  0  0  0  0
   -3.7829   -7.9535    0.4061 C   0  0  0  0  0  0  0  0  0  0  0  0
   -2.4517   -1.0489    3.5685 C   0  0  0  0  0  0  0  0  0  0  0  0
   -4.0187   -6.1876   -1.4821 C   0  0  0  0  0  0  0  0  0  0  0  0
   -4.5142   -7.4648   -0.8403 C   0  0  0  0  0  0  0  0  0  0  0  0
   -1.7152   -6.7844   -2.0028 C   0  0  0  0  0  0  0  0  0  0  0  0
  2 21  2  0
  3  4  1  0
  3  5  1  0
  3  9  1  6
  4  6  1  0
  4 11  1  1
  5  8  1  0
  5 14  1  0
  5 17  1  1
  6  7  1  0
  6 12  1  1
  7 10  1  0
  7 13  1  0
  7 19  1  6
  8 15  1  1
  8 18  1  0
  9 10  1  0
 11 15  1  0
 12 16  1  0
 13 16  1  0
 13  1  1  1
 14 20  1  0
 14 22  1  1
 18 21  1  0
 20 21  1  0
M  END
>  <DRUGBANK_ID>  (1) 
DB13587

>  <COMMON_NAME>  (1) 
Mesterolone

>  <CAS_NUMBER>  (1) 
1424-00-6

>  <UNII>  (1) 
0SRQ75X9I9

>  <SYNONYMS>  (1) 
Mesterolona; Mesterolone

$$$$
