H22
     RDKit          3D

 32 35  0  0  0  0  0  0  0  0999 V2000
    3.0595    0.0821   -0.0453 F   0  0  0  0  0  0  0  0  0  0  0  0
    1.7329    0.1139   -0.0882 C   0  0  0  0  0  0  0  0  0  0  0  0
    1.0793    1.5159    0.0446 C   0  0  0  0  0  0  0  0  0  0  0  0
   -0.2576    1.7435    0.2326 C   0  0  0  0  0  0  0  0  0  0  0  0
   -1.1012    2.9584    0.3976 N   0  0  0  0  0  0  0  0  0  0  0  0
   -1.1647    3.8497   -0.6762 C   0  0  0  0  0  0  0  0  0  0  0  0
   -1.8774    4.9862   -0.6670 C   0  0  0  0  0  0  0  0  0  0  0  0
   -2.7557    5.3116    0.4240 C   0  0  0  0  0  0  0  0  0  0  0  0
   -2.9688    4.3878    1.3722 C   0  0  0  0  0  0  0  0  0  0  0  0
   -2.1577    3.0913    1.3938 C   0  0  0  0  0  0  0  0  0  0  0  0
   -2.5346    2.2211    2.1915 O   0  0  0  0  0  0  0  0  0  0  0  0
   -0.8121    0.5610   -0.0569 C   0  0  0  0  0  0  0  0  0  0  0  0
   -0.2063   -0.7392   -0.3029 C   0  0  0  0  0  0  0  0  0  0  0  0
    1.0311   -1.0941   -0.1795 C   0  0  0  0  0  0  0  0  0  0  0  0
    1.2639   -2.5386   -0.1141 N   0  0  0  0  0  0  0  0  0  0  0  0
    0.4166   -3.7015   -0.0042 C   0  0  0  0  0  0  0  0  0  0  0  0
    1.0176   -4.7972    0.0108 O   0  0  0  0  0  0  0  0  0  0  0  0
   -1.2002   -3.8173    0.0873 C   0  0  0  0  0  0  0  0  0  0  0  0
   -1.9191   -3.3267    1.3050 N   0  0  0  0  0  0  0  0  0  0  0  0
   -3.1600   -2.5644    0.9648 C   0  0  0  0  0  0  0  0  0  0  0  0
   -2.7154   -1.1857    0.6005 C   0  0  1  0  0  0  0  0  0  0  0  0
   -1.5110   -1.0935    1.8880 C   0  0  0  0  0  0  0  0  0  0  0  0
   -1.0951   -2.5205    2.1950 C   0  0  0  0  0  0  0  0  0  0  0  0
   -2.5479   -1.1612   -1.1599 N   0  0  0  0  0  0  0  0  0  0  0  0
   -2.3840   -0.1496   -2.1542 C   0  0  0  0  0  0  0  0  0  0  0  0
   -1.4747   -0.3029   -3.0142 O   0  0  0  0  0  0  0  0  0  0  0  0
   -3.1799    1.0415   -2.0593 C   0  0  0  0  0  0  0  0  0  0  0  0
   -3.6140    1.6222   -0.8928 C   0  0  0  0  0  0  0  0  0  0  0  0
   -4.2311    2.8438   -1.0549 C   0  0  0  0  0  0  0  0  0  0  0  0
   -3.7180    1.9883   -3.3992 S   0  0  0  0  0  0  0  0  0  0  0  0
   -4.4374    3.1193   -2.3587 C   0  0  0  0  0  0  0  0  0  0  0  0
   -5.3183    4.5052   -2.8186 Cl  0  0  0  0  0  0  0  0  0  0  0  0
  1  2  1  0
  2  3  2  0
  2 14  1  0
  3  4  1  0
  4  5  1  0
  4 12  2  0
  5  6  1  0
  5 10  1  0
  6  7  2  0
  7  8  1  0
  8  9  2  0
  9 10  1  0
 10 11  2  0
 12 13  1  0
 13 14  2  0
 14 15  1  0
 15 16  1  0
 16 17  2  0
 16 18  1  0
 18 19  1  0
 19 20  1  0
 19 23  1  0
 20 21  1  0
 21 24  1  6
 22 21  1  0
 22 23  1  0
 24 25  1  0
 25 26  2  0
 25 27  1  0
 27 28  2  0
 27 30  1  0
 28 29  1  0
 29 31  2  0
 30 31  1  0
 31 32  1  0
M  END
>  <DRUGBANK_ID>  (1) 
DB07872

>  <COMMON_NAME>  (1) 
5-chloro-N-[(3R)-1-(2-{[2-fluoro-4-(2-oxopyridin-1(2H)-yl)phenyl]amino}-2-oxoethyl)pyrrolidin-3-yl]thiophene-2-carboxamide

$$$$
