
     RDKit          3D

 19 21  0  0  1  0  0  0  0  0999 V2000
    0.9647   -0.0095   -0.0124 O   0  0  0  0  0  0  0  0  0  0  0  0
    0.5605    0.5835   -1.2524 C   0  0  0  0  0  0  0  0  0  0  0  0
    1.3035    1.9136   -1.4924 C   0  0  1  0  0  0  0  0  0  0  0  0
    1.5448    2.0778   -2.9068 O   0  0  0  0  0  0  0  0  0  0  0  0
    1.4324    3.4765   -3.2667 C   0  0  2  0  0  0  0  0  0  0  0  0
    0.6127    4.1577   -2.1655 C   0  0  2  0  0  0  0  0  0  0  0  0
    1.0101    5.5265   -1.9836 O   0  0  0  0  0  0  0  0  0  0  0  0
    0.8900    3.2868   -0.9325 C   0  0  2  0  0  0  0  0  0  0  0  0
    2.0486    3.8656   -0.2690 O   0  0  0  0  0  0  0  0  0  0  0  0
    0.8435    3.6178   -4.6010 N   0  0  0  0  0  0  0  0  0  0  0  0
   -0.4495    3.2230   -4.8132 N   0  0  0  0  0  0  0  0  0  0  0  0
   -0.6885    3.5548   -6.0867 C   0  0  0  0  0  0  0  0  0  0  0  0
    0.4201    4.1384   -6.6955 C   0  0  0  0  0  0  0  0  0  0  0  0
    1.4049    4.1840   -5.7326 C   0  0  0  0  0  0  0  0  0  0  0  0
    2.6601    4.6884   -5.8940 N   0  0  0  0  0  0  0  0  0  0  0  0
    2.8758    5.1419   -7.0971 C   0  0  0  0  0  0  0  0  0  0  0  0
    1.9602    5.1413   -8.1367 N   0  0  0  0  0  0  0  0  0  0  0  0
    0.6842    4.6451   -8.0064 C   0  0  0  0  0  0  0  0  0  0  0  0
   -0.1288    4.6412   -8.9327 O   0  0  0  0  0  0  0  0  0  0  0  0
  1  2  1  0
  3  2  1  6
  3  4  1  0
  5  4  1  0
  5 10  1  6
  6  5  1  0
  6  7  1  1
  6  8  1  0
  8  3  1  0
  8  9  1  6
 10 11  1  0
 10 14  1  0
 11 12  2  0
 12 13  1  0
 13 14  2  0
 13 18  1  0
 14 15  1  0
 15 16  2  0
 16 17  1  0
 17 18  1  0
 18 19  2  0
M  END
>  <DRUGBANK_ID>  (1) 
DB17738

>  <COMMON_NAME>  (1) 
Allopurinol riboside

>  <CAS_NUMBER>  (1) 
16220-07-8

>  <UNII>  (1) 
WZS8452SEC

>  <SYNONYMS>  (1) 
4h-pyrazolo(3,4-d)pyrimidin-4-one, 1,5-dihydro-1-.beta.-d-ribofuranosyl-; Allopurinol-1-ribonucleoside

$$$$
