
     RDKit          3D

 41 45  0  0  0  0  0  0  0  0999 V2000
    0.9661    0.6736    0.0601 N   0  0  0  0  0  0  0  0  0  0  0  0
    1.0831   -0.6896    0.0087 N   0  0  0  0  0  0  0  0  0  0  0  0
   -0.1786   -1.1326   -0.0720 C   0  0  0  0  0  0  0  0  0  0  0  0
   -1.0275   -0.0528   -0.3240 C   0  0  0  0  0  0  0  0  0  0  0  0
   -0.3477    1.1192   -0.0457 C   0  0  0  0  0  0  0  0  0  0  0  0
   -0.8259    2.5052    0.0143 C   0  0  0  0  0  0  0  0  0  0  0  0
   -0.0816    3.4870   -0.0103 O   0  0  0  0  0  0  0  0  0  0  0  0
   -2.1895    2.8016    0.0071 N   0  0  0  0  0  0  0  0  0  0  0  0
   -0.6520   -2.5569   -0.0057 C   0  0  0  0  0  0  0  0  0  0  0  0
   -0.2643   -3.2762   -1.0871 F   0  0  0  0  0  0  0  0  0  0  0  0
   -0.2414   -3.2150    1.1072 F   0  0  0  0  0  0  0  0  0  0  0  0
   -2.0202   -2.6152    0.0132 F   0  0  0  0  0  0  0  0  0  0  0  0
   -3.2719    1.9216    0.1589 C   0  0  0  0  0  0  0  0  0  0  0  0
   -3.2259    0.9065    1.1272 C   0  0  0  0  0  0  0  0  0  0  0  0
   -4.0782   -0.1707    1.0624 C   0  0  0  0  0  0  0  0  0  0  0  0
   -5.1045   -0.1371    0.1451 C   0  0  0  0  0  0  0  0  0  0  0  0
   -5.2600    0.9131   -0.7840 C   0  0  0  0  0  0  0  0  0  0  0  0
   -4.3268    1.9645   -0.7662 C   0  0  0  0  0  0  0  0  0  0  0  0
   -2.2198    0.8497    2.0111 F   0  0  0  0  0  0  0  0  0  0  0  0
   -6.4125    0.8575   -1.7872 C   0  0  2  0  0  0  0  0  0  0  0  0
   -7.6868    0.8712   -1.0334 N   0  0  0  0  0  0  0  0  0  0  0  0
   -8.5947   -0.2156   -1.3508 C   0  0  0  0  0  0  0  0  0  0  0  0
   -9.8203   -0.2345   -0.5288 C   0  0  0  0  0  0  0  0  0  0  0  0
   -9.8890    0.3199    0.8658 C   0  0  0  0  0  0  0  0  0  0  0  0
   -9.8524   -1.1694    0.6694 C   0  0  0  0  0  0  0  0  0  0  0  0
   -6.2629   -0.3115   -2.7773 C   0  0  0  0  0  0  0  0  0  0  0  0
   -6.2711   -1.6519   -2.3231 C   0  0  0  0  0  0  0  0  0  0  0  0
   -6.3714   -2.7474   -3.1606 C   0  0  0  0  0  0  0  0  0  0  0  0
   -6.3306   -2.5266   -4.5213 C   0  0  0  0  0  0  0  0  0  0  0  0
   -6.2657   -1.2148   -5.0162 C   0  0  0  0  0  0  0  0  0  0  0  0
   -6.2675   -0.1079   -4.1562 C   0  0  0  0  0  0  0  0  0  0  0  0
   -6.5898   -4.0441   -2.5732 C   0  0  0  0  0  0  0  0  0  0  0  0
   -6.7970   -5.0483   -2.0466 N   0  0  0  0  0  0  0  0  0  0  0  0
    2.1309    1.4556    0.0691 C   0  0  0  0  0  0  0  0  0  0  0  0
    3.0123    1.3418   -1.0100 C   0  0  0  0  0  0  0  0  0  0  0  0
    4.0699    2.2479   -1.1216 C   0  0  0  0  0  0  0  0  0  0  0  0
    4.2427    3.2239   -0.1264 C   0  0  0  0  0  0  0  0  0  0  0  0
    3.3447    3.3331    0.9341 C   0  0  0  0  0  0  0  0  0  0  0  0
    2.3118    2.4145    1.0635 C   0  0  0  0  0  0  0  0  0  0  0  0
    4.9721    2.2260   -2.3234 C   0  0  0  0  0  0  0  0  0  0  0  0
    4.9277    3.5029   -3.0286 N   0  0  0  0  0  0  0  0  0  0  0  0
  1  2  1  0
  1  5  1  0
  1 34  1  0
  2  3  2  0
  3  4  1  0
  3  9  1  0
  4  5  2  0
  5  6  1  0
  6  7  2  0
  6  8  1  0
  8 13  1  0
  9 10  1  0
  9 11  1  0
  9 12  1  0
 13 14  2  0
 13 18  1  0
 14 15  1  0
 14 19  1  0
 15 16  2  0
 16 17  1  0
 17 18  2  0
 20 17  1  0
 20 26  1  0
 20 21  1  1
 21 22  1  0
 22 23  1  0
 23 24  1  0
 23 25  1  0
 24 25  1  0
 26 27  2  0
 26 31  1  0
 27 28  1  0
 28 29  2  0
 28 32  1  0
 29 30  1  0
 30 31  2  0
 32 33  3  0
 34 35  2  0
 34 39  1  0
 35 36  1  0
 36 37  2  0
 36 40  1  0
 37 38  1  0
 38 39  2  0
 40 41  1  0
M  END
>  <DRUGBANK_ID>  (1) 
DB15982

>  <COMMON_NAME>  (1) 
Berotralstat

>  <CAS_NUMBER>  (1) 
1809010-50-1

>  <UNII>  (1) 
XZA0KB1BDQ

>  <SYNONYMS>  (1) 
(+)-1-(3-(aminomethyl) phenyl)-N-(5-((3-cyanophenyl)(cyclopropylmethylamino)methyl)-2-fluorophenyl)-3-(trifluoromethyl)-1H-pyrazole-5-carboxamide dihydrochloride; (R)-1-(3-(aminomethyl) phenyl)-N-(5-((3- cyanophenyl)(cyclopropylmethylamino)methyl)-2-fluorophenyl)-3- (trifluoromethyl)-1H-pyrazole-5-carboxamide dihydrochloride; 2-[3-(aminomethyl)phenyl]-N-[5-[(R)-(3-cyanophenyl)-(cyclopropylmethylamino)methyl]-2-fluorophenyl]-5-(trifluoromethyl)pyrazole-3-carboxamide; BCX7353; Berotralstat

$$$$
