HHO
     RDKit          3D

 12 11  0  0  0  0  0  0  0  0999 V2000
    0.8195   -0.1114   -0.0993 N   0  0  0  0  0  0  0  0  0  0  0  0
    0.3765   -1.4429   -0.4459 C   0  0  0  0  0  0  0  0  0  0  0  0
    0.9043   -2.4524    0.3817 O   0  0  0  0  0  0  0  0  0  0  0  0
    0.3291    0.3545    1.1951 C   0  0  0  0  0  0  0  0  0  0  0  0
    0.9078   -0.4344    2.3716 C   0  0  0  0  0  0  0  0  0  0  0  0
    2.4438   -0.4033    2.3650 C   0  0  0  0  0  0  0  0  0  0  0  0
    2.9620    1.0136    2.6106 C   0  0  0  0  0  0  0  0  0  0  0  0
    2.4835    1.5368    3.9666 C   0  0  0  0  0  0  0  0  0  0  0  0
    2.9815    0.6447    5.1102 C   0  0  0  0  0  0  0  0  0  0  0  0
    4.5131    0.6127    5.1714 C   0  0  0  0  0  0  0  0  0  0  0  0
    5.1014    2.0065    5.3616 C   0  0  0  0  0  0  0  0  0  0  0  0
    4.6478    2.5680    6.5850 O   0  0  0  0  0  0  0  0  0  0  0  0
  1  2  1  0
  1  4  1  0
  2  3  1  0
  4  5  1  0
  5  6  1  0
  6  7  1  0
  7  8  1  0
  8  9  1  0
  9 10  1  0
 10 11  1  0
 11 12  1  0
M  END
>  <DRUGBANK_ID>  (1) 
DB07897

>  <COMMON_NAME>  (1) 
1-(HYDROXYMETHYLENEAMINO)-8-HYDROXY-OCTANE

$$$$
