
     RDKit          3D

  8  7  0  0  0  0  0  0  0  0999 V2000
    3.3861    0.5495    0.5987 O   0  0  0  0  0  0  0  0  0  0  0  0
    0.9858    2.2457    2.6230 N   0  0  0  0  0  0  0  0  0  0  0  0
    2.7846    1.3517    1.5561 N   0  0  0  0  0  0  0  0  0  0  0  0
    0.6658    0.7491    0.8368 N   0  0  0  0  0  0  0  0  0  0  0  0
   -0.4452    2.4531    2.8705 C   0  0  0  0  0  0  0  0  0  0  0  0
   -1.1276    3.1388    1.6860 C   0  0  0  0  0  0  0  0  0  0  0  0
   -1.1276    1.1668    3.3383 C   0  0  0  0  0  0  0  0  0  0  0  0
    1.4320    1.4662    1.6927 C   0  0  0  0  0  0  0  0  0  0  0  0
  1  3  1  0
  2  5  1  0
  2  8  2  0
  3  8  1  0
  4  8  1  0
  5  6  1  0
  5  7  1  0
M  END
>  <DRUGBANK_ID>  (1) 
DB02143

>  <SECONDARY_ACCESSION_NUMBERS>  (1) 
EXPT01853

>  <COMMON_NAME>  (1) 
1-hydroxy-2-isopropylguanidine

>  <CAS_NUMBER>  (1) 
478806-77-8

>  <SYNONYMS>  (1) 
1-hydroxy-2-propan-2-ylguanidine; N-isopropyl-N'-hydroxyguanidine

$$$$
