
     RDKit          3D

 13 13  0  0  0  0  0  0  0  0999 V2000
    1.0853   -0.0421   -0.0806 O   0  0  0  0  0  0  0  0  0  0  0  0
    0.5927   -0.7873    1.0393 C   0  0  0  0  0  0  0  0  0  0  0  0
    1.0797   -2.2272    0.9515 C   0  0  0  0  0  0  0  0  0  0  0  0
    2.4422   -2.2228    0.9743 F   0  0  0  0  0  0  0  0  0  0  0  0
    1.0587   -0.1513    2.3491 C   0  0  0  0  0  0  0  0  0  0  0  0
    0.6540    1.2388    2.4463 N   0  0  0  0  0  0  0  0  0  0  0  0
   -0.6456    1.6311    2.6885 C   0  0  0  0  0  0  0  0  0  0  0  0
   -0.6252    3.0052    2.6672 C   0  0  0  0  0  0  0  0  0  0  0  0
    0.6402    3.4676    2.4272 N   0  0  0  0  0  0  0  0  0  0  0  0
    1.3876    2.3878    2.2797 C   0  0  0  0  0  0  0  0  0  0  0  0
    2.7975    2.4575    1.9717 N   0  0  0  0  0  0  0  0  0  0  0  0
    3.3083    3.5844    1.9024 O   0  0  0  0  0  0  0  0  0  0  0  0
    3.4117    1.3984    1.7970 O   0  0  0  0  0  0  0  0  0  0  0  0
  1  2  1  0
  2  3  1  0
  2  5  1  0
  3  4  1  0
  5  6  1  0
  6  7  1  0
  6 10  1  0
  7  8  2  0
  8  9  1  0
  9 10  2  0
 10 11  1  0
 11 12  1  0
 11 13  2  0
M  CHG  2  11   1  12  -1
M  ISO  1   4  18
M  END
>  <DRUGBANK_ID>  (1) 
DB14830

>  <COMMON_NAME>  (1) 
Fluoromisonidazole F-18

>  <CAS_NUMBER>  (1) 
104613-87-8

>  <UNII>  (1) 
8MSY49469G

>  <SYNONYMS>  (1) 
1-(2-Nitro-Imidazolyl)-3-[18F]Fluoro-2-Propanol; 18F-MISO; 18F-Misonidazole; 1H-1-(3-[18F]Fluoro-2-Hydroxypropyl-2-Nitroimidazole 18F

$$$$
