
     RDKit          3D

 27 29  0  0  1  0  0  0  0  0999 V2000
    2.5130    1.1913   -1.1271 C   0  0  0  0  0  0  0  0  0  0  0  0
    1.6089    0.7255   -0.0112 C   0  0  0  0  0  0  0  0  0  0  0  0
    0.3058    1.5894    0.1088 C   0  0  1  0  0  0  0  0  0  0  0  0
   -0.7948    0.7092    0.4657 N   0  0  0  0  0  0  0  0  0  0  0  0
   -0.4256   -0.6740    0.4188 C   0  0  2  0  0  0  0  0  0  0  0  0
    1.0040   -0.8422   -0.6622 S   0  0  0  0  0  0  0  0  0  0  0  0
   -1.7519   -1.0178   -0.1802 C   0  0  1  0  0  0  0  0  0  0  0  0
   -1.9583    0.4959   -0.2076 C   0  0  0  0  0  0  0  0  0  0  0  0
   -2.8322    1.2584   -0.6048 O   0  0  0  0  0  0  0  0  0  0  0  0
   -1.9171   -1.9486   -1.3424 N   0  0  0  0  0  0  0  0  0  0  0  0
   -2.1875   -3.3244   -1.3366 C   0  0  0  0  0  0  0  0  0  0  0  0
   -2.2049   -3.8883   -2.4397 O   0  0  0  0  0  0  0  0  0  0  0  0
   -2.4470   -4.1956    0.0177 C   0  0  1  0  0  0  0  0  0  0  0  0
   -1.2347   -4.3262    0.9746 C   0  0  0  0  0  0  0  0  0  0  0  0
   -0.2568   -3.3716    0.9201 C   0  0  0  0  0  0  0  0  0  0  0  0
    0.6499   -3.0585    1.9340 C   0  0  0  0  0  0  0  0  0  0  0  0
    0.8237   -3.9390    2.9525 C   0  0  0  0  0  0  0  0  0  0  0  0
    0.0997   -5.1261    2.8761 C   0  0  0  0  0  0  0  0  0  0  0  0
   -0.9546   -5.3039    1.9206 C   0  0  0  0  0  0  0  0  0  0  0  0
    0.5175   -6.4349    3.9103 Cl  0  0  0  0  0  0  0  0  0  0  0  0
    2.0059   -3.5169    4.1307 Cl  0  0  0  0  0  0  0  0  0  0  0  0
   -3.6760   -3.9249    0.7295 O   0  0  0  0  0  0  0  0  0  0  0  0
   -3.8491   -2.5888    1.1559 C   0  0  0  0  0  0  0  0  0  0  0  0
    0.3696    2.7383    1.1024 C   0  0  0  0  0  0  0  0  0  0  0  0
   -0.3527    3.7210    1.0975 O   0  0  0  0  0  0  0  0  0  0  0  0
    1.2568    2.5651    2.0988 O   0  0  0  0  0  0  0  0  0  0  0  0
    2.3979    0.3970    1.2738 C   0  0  0  0  0  0  0  0  0  0  0  0
  1  2  1  0
  2  3  1  0
  2  6  1  0
  2 27  1  0
  3  4  1  0
  3 24  1  1
  4  8  1  0
  5  4  1  0
  5  6  1  6
  5  7  1  0
  7  8  1  0
  7 10  1  6
  8  9  2  0
 10 11  1  0
 11 12  2  0
 11 13  1  0
 13 14  1  0
 13 22  1  1
 14 15  2  0
 14 19  1  0
 15 16  1  0
 16 17  2  0
 17 18  1  0
 17 21  1  0
 18 19  2  0
 18 20  1  0
 22 23  1  0
 24 25  2  0
 24 26  1  0
M  END
>  <DRUGBANK_ID>  (1) 
DB13686

>  <COMMON_NAME>  (1) 
Clometocillin

>  <CAS_NUMBER>  (1) 
1926-49-4

>  <UNII>  (1) 
YI8LL014GF

>  <SYNONYMS>  (1) 
clometocilina; Clometocillin

$$$$
