
     RDKit          3D

 23 23  0  0  0  0  0  0  0  0999 V2000
   -4.1134   -1.3868   -1.3199 O   0  0  0  0  0  0  0  0  0  0  0  0
   -2.6524   -2.5508    2.3370 O   0  0  0  0  0  0  0  0  0  0  0  0
   -4.9357    1.0041   -1.9860 O   0  0  0  0  0  0  0  0  0  0  0  0
   -1.9771    2.3110   -0.1208 O   0  0  0  0  0  0  0  0  0  0  0  0
   -1.1589   -3.5217   -1.5413 O   0  0  0  0  0  0  0  0  0  0  0  0
   -1.9476   -2.2834   -3.2070 O   0  0  0  0  0  0  0  0  0  0  0  0
   -3.1209    4.7177   -1.0953 O   0  0  0  0  0  0  0  0  0  0  0  0
    0.2667    0.1285    1.8740 O   0  0  0  0  0  0  0  0  0  0  0  0
   -1.9113    0.0590    1.3227 N   0  0  0  0  0  0  0  0  0  0  0  0
   -2.9802   -0.7184    0.7170 C   0  0  1  0  0  0  0  0  0  0  0  0
   -3.2795   -0.3538   -0.7700 C   0  0  2  0  0  0  0  0  0  0  0  0
   -3.5233   -2.6983   -1.3346 C   0  0  1  0  0  0  0  0  0  0  0  0
   -2.6287   -2.2109    0.9503 C   0  0  2  0  0  0  0  0  0  0  0  0
   -3.4693   -3.1631    0.1300 C   0  0  0  0  0  0  0  0  0  0  0  0
   -3.9738    1.0390   -0.9137 C   0  0  1  0  0  0  0  0  0  0  0  0
   -4.5467   -3.5936   -2.0709 C   0  0  0  0  0  0  0  0  0  0  0  0
   -3.0373    2.2795   -1.0726 C   0  0  1  0  0  0  0  0  0  0  0  0
   -2.1637   -2.8294   -2.1248 C   0  0  0  0  0  0  0  0  0  0  0  0
   -3.8917    3.5415   -0.8692 C   0  0  0  0  0  0  0  0  0  0  0  0
   -4.7467   -3.2043   -3.5120 C   0  0  0  0  0  0  0  0  0  0  0  0
   -0.5843   -0.0825    1.0083 C   0  0  0  0  0  0  0  0  0  0  0  0
   -0.2101   -0.5453   -0.3804 C   0  0  0  0  0  0  0  0  0  0  0  0
   -4.4396   -4.0124   -4.5327 C   0  0  0  0  0  0  0  0  0  0  0  0
 11  1  1  1
  1 12  1  0
  5 18  1  0
  6 18  2  0
  7 19  1  0
  8 21  2  0
  9 21  1  0
 10 11  1  0
 10 13  1  0
 10  9  1  6
 12 14  1  0
 12 16  1  6
 12 18  1  0
 13 14  1  0
 13  2  1  1
 15 11  1  0
 15  3  1  6
 16 20  1  0
 17 19  1  0
 17 15  1  0
 17  4  1  1
 20 23  2  0
 21 22  1  0
M  END
>  <DRUGBANK_ID>  (1) 
DB01716

>  <SECONDARY_ACCESSION_NUMBERS>  (1) 
EXPT00972

>  <COMMON_NAME>  (1) 
2-propenyl-N-acetyl-neuramic acid

$$$$
