
     RDKit          3D

 35 38  0  0  0  0  0  0  0  0999 V2000
    0.3810    1.1866    0.0291 C   0  0  0  0  0  0  0  0  0  0  0  0
    3.6562   -5.1237    0.9016 C   0  0  0  0  0  0  0  0  0  0  0  0
    2.3954   -5.7201   -1.0481 C   0  0  0  0  0  0  0  0  0  0  0  0
    4.6789   -6.0533    0.5827 C   0  0  0  0  0  0  0  0  0  0  0  0
    3.4833   -6.5268   -1.4820 C   0  0  0  0  0  0  0  0  0  0  0  0
    1.7938    1.0759    0.0769 C   0  0  0  0  0  0  0  0  0  0  0  0
    7.2158   -0.8349   -3.1166 C   0  0  0  0  0  0  0  0  0  0  0  0
    6.4067   -0.4177   -2.0255 C   0  0  0  0  0  0  0  0  0  0  0  0
    3.3076  -10.6349   -0.8807 C   0  0  0  0  0  0  0  0  0  0  0  0
    3.6330   -9.3847    1.1953 C   0  0  0  0  0  0  0  0  0  0  0  0
    2.3616   -9.6319   -1.5040 C   0  0  0  0  0  0  0  0  0  0  0  0
    2.5993   -8.4721    0.5600 C   0  0  0  0  0  0  0  0  0  0  0  0
    0.2063   -1.2034    0.0851 C   0  0  0  0  0  0  0  0  0  0  0  0
   -0.4033    0.0414    0.0541 C   0  0  0  0  0  0  0  0  0  0  0  0
    2.5484   -4.9087    0.0646 C   0  0  0  0  0  0  0  0  0  0  0  0
    4.6067   -6.7692   -0.6283 C   0  0  0  0  0  0  0  0  0  0  0  0
    1.6135   -1.3157    0.1010 C   0  0  0  0  0  0  0  0  0  0  0  0
    2.4574   -0.1843    0.1293 C   0  0  0  0  0  0  0  0  0  0  0  0
    7.2605   -2.2022   -3.2001 C   0  0  0  0  0  0  0  0  0  0  0  0
    5.9526   -1.4737   -1.2567 C   0  0  0  0  0  0  0  0  0  0  0  0
    2.1378   -2.6070   -0.3382 C   0  0  0  0  0  0  0  0  0  0  0  0
   -2.1206    0.1336   -0.0280 Cl  0  0  0  0  0  0  0  0  0  0  0  0
    8.1020   -3.1030   -4.4009 Cl  0  0  0  0  0  0  0  0  0  0  0  0
    1.6854   -3.7847    0.2766 N   0  0  0  0  0  0  0  0  0  0  0  0
    3.9169   -0.1685    0.2219 N   0  0  0  0  0  0  0  0  0  0  0  0
    4.3751   -9.9344    0.0055 N   0  0  0  0  0  0  0  0  0  0  0  0
    2.8574   -2.5476   -1.3333 O   0  0  0  0  0  0  0  0  0  0  0  0
    6.1038   -0.9275    1.2122 O   0  0  0  0  0  0  0  0  0  0  0  0
    4.5548   -2.7307    0.5633 O   0  0  0  0  0  0  0  0  0  0  0  0
    5.8434   -8.8768   -2.0261 O   0  0  0  0  0  0  0  0  0  0  0  0
    6.5373   -8.4462    0.3696 O   0  0  0  0  0  0  0  0  0  0  0  0
    1.6661   -8.9562   -0.4133 O   0  0  0  0  0  0  0  0  0  0  0  0
    6.3988   -2.9797   -1.9570 S   0  0  0  0  0  0  0  0  0  0  0  0
    5.0990   -1.4029    0.3156 S   0  0  0  0  0  0  0  0  0  0  0  0
    5.5116   -8.5692   -0.6517 S   0  0  0  0  0  0  0  0  0  0  0  0
  4  2  2  0
  5  3  1  0
  6  1  2  0
  8  7  1  0
 11  9  1  0
 12 10  1  0
 14  1  1  0
 14 13  2  0
 15  2  1  0
 15  3  2  0
 16  4  1  0
 16  5  2  0
 17 13  1  0
 18  6  1  0
 18 17  2  0
 19  7  2  0
 20  8  2  0
 21 17  1  0
 22 14  1  0
 23 19  1  0
 24 15  1  0
 24 21  1  0
 25 18  1  0
 26  9  1  0
 26 10  1  0
 27 21  2  0
 32 11  1  0
 32 12  1  0
 33 19  1  0
 33 20  1  0
 34 20  1  0
 34 25  1  0
 34 28  2  0
 34 29  2  0
 35 16  1  0
 35 26  1  0
 35 30  2  0
 35 31  2  0
M  END
>  <DRUGBANK_ID>  (1) 
DB12805

>  <COMMON_NAME>  (1) 
Ataciguat

>  <CAS_NUMBER>  (1) 
254877-67-3

>  <UNII>  (1) 
QP166M390Q

>  <SYNONYMS>  (1) 
Ataciguat

$$$$
