
     RDKit          3D

 26 28  0  0  0  0  0  0  0  0999 V2000
   -0.8328    0.4191    0.7227 N   0  0  0  0  0  0  0  0  0  0  0  0
   -0.4996   -1.0142    0.5911 C   0  0  1  0  0  0  0  0  0  0  0  0
   -2.0133    0.2734    0.0204 C   0  0  0  0  0  0  0  0  0  0  0  0
   -1.9213   -1.2746    0.0449 C   0  0  1  0  0  0  0  0  0  0  0  0
    0.2030    1.3797    0.2569 C   0  0  2  0  0  0  0  0  0  0  0  0
    0.8730   -0.9684   -0.5994 S   0  0  0  0  0  0  0  0  0  0  0  0
    1.5243    0.6008    0.0385 C   0  0  0  0  0  0  0  0  0  0  0  0
   -2.0424   -2.0171   -1.2575 N   0  0  0  0  0  0  0  0  0  0  0  0
   -2.2777   -3.3848   -1.2582 C   0  0  0  0  0  0  0  0  0  0  0  0
    0.3129    2.6203    1.1468 C   0  0  0  0  0  0  0  0  0  0  0  0
   -2.7208    1.0823   -0.5236 O   0  0  0  0  0  0  0  0  0  0  0  0
   -2.1710   -4.0910   -2.6338 C   0  0  1  0  0  0  0  0  0  0  0  0
   -1.1821   -5.1223   -2.7873 O   0  0  0  0  0  0  0  0  0  0  0  0
   -2.4942   -3.9988   -0.2133 O   0  0  0  0  0  0  0  0  0  0  0  0
   -0.3716    3.6271    1.0613 O   0  0  0  0  0  0  0  0  0  0  0  0
    1.2266    2.5248    2.1312 O   0  0  0  0  0  0  0  0  0  0  0  0
    2.4190    1.1361   -1.0809 C   0  0  0  0  0  0  0  0  0  0  0  0
    2.3707    0.3173    1.2911 C   0  0  0  0  0  0  0  0  0  0  0  0
    0.1267   -4.8122   -2.5303 C   0  0  0  0  0  0  0  0  0  0  0  0
   -3.5525   -4.7449   -2.8737 C   0  0  0  0  0  0  0  0  0  0  0  0
    0.5564   -4.0706   -1.4416 C   0  0  0  0  0  0  0  0  0  0  0  0
    1.1106   -5.4062   -3.3189 C   0  0  0  0  0  0  0  0  0  0  0  0
   -4.6792   -3.7163   -2.8666 C   0  0  0  0  0  0  0  0  0  0  0  0
    1.9094   -3.8432   -1.1831 C   0  0  0  0  0  0  0  0  0  0  0  0
    2.4756   -5.2092   -3.0372 C   0  0  0  0  0  0  0  0  0  0  0  0
    2.8756   -4.3743   -2.0032 C   0  0  0  0  0  0  0  0  0  0  0  0
  2  1  1  0
  2  4  1  0
  3  1  1  0
  4  3  1  0
  4  8  1  6
  5  1  1  0
  5 10  1  1
  2  6  1  6
  6  7  1  0
  7  5  1  0
  9  8  1  0
 11  3  2  0
 12  9  1  0
 13 12  1  0
 14  9  2  0
 15 10  2  0
 16 10  1  0
 17  7  1  0
 18  7  1  0
 19 13  1  0
 12 20  1  1
 21 19  2  0
 22 19  1  0
 23 20  1  0
 24 21  1  0
 24 26  2  0
 25 22  2  0
 26 25  1  0
M  END
>  <DRUGBANK_ID>  (1) 
DB13660

>  <COMMON_NAME>  (1) 
Propicillin

>  <CAS_NUMBER>  (1) 
551-27-9

>  <UNII>  (1) 
8X1R260V33

>  <SYNONYMS>  (1) 
propicilina; Propicillin; propicilline; propicillinum

$$$$
