
     RDKit          3D

 30 34  0  0  0  0  0  0  0  0999 V2000
    2.4204   -0.0773   -0.0116 C   0  0  0  0  0  0  0  0  0  0  0  0
    0.9193   -0.0403   -0.0316 C   0  0  0  0  0  0  0  0  0  0  0  0
    0.3229    1.1827   -0.0688 N   0  0  0  0  0  0  0  0  0  0  0  0
   -1.0291    1.2037   -0.0511 C   0  0  0  0  0  0  0  0  0  0  0  0
   -1.8157    0.0579   -0.0356 C   0  0  0  0  0  0  0  0  0  0  0  0
   -1.1901   -1.1795   -0.0170 C   0  0  0  0  0  0  0  0  0  0  0  0
    0.1974   -1.2331   -0.0037 C   0  0  0  0  0  0  0  0  0  0  0  0
   -1.6498    2.5103    0.0579 C   0  0  0  0  0  0  0  0  0  0  0  0
   -2.5239    3.0195    0.9988 C   0  0  0  0  0  0  0  0  0  0  0  0
   -2.9330    4.2893    0.6792 N   0  0  0  0  0  0  0  0  0  0  0  0
   -2.2843    4.5970   -0.4304 C   0  0  0  0  0  0  0  0  0  0  0  0
   -2.3204    5.8997   -1.1856 C   0  0  0  0  0  0  0  0  0  0  0  0
   -0.9969    6.4784   -1.3713 N   0  0  0  0  0  0  0  0  0  0  0  0
   -0.5099    6.8305   -2.6169 C   0  0  0  0  0  0  0  0  0  0  0  0
   -1.2957    7.4134   -3.6237 C   0  0  0  0  0  0  0  0  0  0  0  0
   -2.5578    7.7872   -3.3575 F   0  0  0  0  0  0  0  0  0  0  0  0
   -0.7994    7.6455   -4.9052 C   0  0  0  0  0  0  0  0  0  0  0  0
    0.5047    7.2735   -5.2173 C   0  0  0  0  0  0  0  0  0  0  0  0
    1.3110    6.7018   -4.2346 C   0  0  0  0  0  0  0  0  0  0  0  0
    0.8115    6.4982   -2.9424 C   0  0  0  0  0  0  0  0  0  0  0  0
   -1.5022    3.5374   -0.8451 N   0  0  0  0  0  0  0  0  0  0  0  0
   -2.9396    2.3937    2.2175 C   0  0  0  0  0  0  0  0  0  0  0  0
   -2.0537    2.0569    3.1782 C   0  0  0  0  0  0  0  0  0  0  0  0
   -2.4858    1.5172    4.3852 N   0  0  0  0  0  0  0  0  0  0  0  0
   -1.7463    1.1645    5.4670 N   0  0  0  0  0  0  0  0  0  0  0  0
   -2.6789    0.7564    6.3282 C   0  0  0  0  0  0  0  0  0  0  0  0
   -3.9647    0.7931    5.8797 N   0  0  0  0  0  0  0  0  0  0  0  0
   -3.8323    1.2755    4.6627 C   0  0  0  0  0  0  0  0  0  0  0  0
   -4.7776    1.5717    3.6464 C   0  0  0  0  0  0  0  0  0  0  0  0
   -4.3555    2.1001    2.4778 C   0  0  0  0  0  0  0  0  0  0  0  0
  1  2  1  0
  2  3  2  0
  2  7  1  0
  3  4  1  0
  4  5  2  0
  4  8  1  0
  5  6  1  0
  6  7  2  0
  8  9  2  0
  8 21  1  0
  9 10  1  0
  9 22  1  0
 10 11  2  0
 11 12  1  0
 11 21  1  0
 12 13  1  0
 13 14  1  0
 14 15  2  0
 14 20  1  0
 15 16  1  0
 15 17  1  0
 17 18  2  0
 18 19  1  0
 19 20  2  0
 22 23  2  0
 22 30  1  0
 23 24  1  0
 24 25  1  0
 24 28  1  0
 25 26  2  0
 26 27  1  0
 27 28  2  0
 28 29  1  0
 29 30  2  0
M  END
>  <DRUGBANK_ID>  (1) 
DB15310

>  <COMMON_NAME>  (1) 
Vactosertib

>  <CAS_NUMBER>  (1) 
1352608-82-2

>  <UNII>  (1) 
6T4O391P5Y

>  <SYNONYMS>  (1) 
2-fluoro-N-[[5-(6-methylpyridin-2-yl)-4-([1,2,4]triazolo[1,5-a]pyridin-6-yl)-1H-imidazol-2-yl]methyl]aniline; Vactosertib

$$$$
