372
     RDKit          3D

 27 30  0  0  0  0  0  0  0  0999 V2000
    0.0603    1.8072    0.4482 S   0  0  0  0  0  0  0  0  0  0  0  0
    4.8311   -2.2408   -0.8227 S   0  0  0  0  0  0  0  0  0  0  0  0
   -2.8711   -2.4236    2.2538 N   0  0  0  0  0  0  0  0  0  0  0  0
   -4.5631   -4.6187    1.2463 N   0  0  0  0  0  0  0  0  0  0  0  0
    0.0406   -1.2262    0.7187 N   0  0  0  0  0  0  0  0  0  0  0  0
   -2.7560   -3.7634    2.8200 C   0  0  0  0  0  0  0  0  0  0  0  0
   -4.2357   -2.1496    1.7981 C   0  0  0  0  0  0  0  0  0  0  0  0
   -2.2332   -1.3411    2.9851 C   0  0  0  0  0  0  0  0  0  0  0  0
   -3.1962   -4.8161    1.7758 C   0  0  0  0  0  0  0  0  0  0  0  0
   -4.6891   -3.2313    0.7684 C   0  0  0  0  0  0  0  0  0  0  0  0
   -0.7232   -1.5744    3.1340 C   0  0  0  0  0  0  0  0  0  0  0  0
   -0.0116   -2.1382    1.8811 C   0  0  0  0  0  0  0  0  0  0  0  0
   -5.5731   -4.8539    2.2656 C   0  0  0  0  0  0  0  0  0  0  0  0
    1.2946   -0.6961    0.3858 C   0  0  0  0  0  0  0  0  0  0  0  0
   -1.1168   -0.6856    0.1354 C   0  0  0  0  0  0  0  0  0  0  0  0
    1.4186    0.6856    0.1336 C   0  0  0  0  0  0  0  0  0  0  0  0
   -1.2741    0.7102   -0.0018 C   0  0  0  0  0  0  0  0  0  0  0  0
    2.3767   -1.5472    0.1115 C   0  0  0  0  0  0  0  0  0  0  0  0
   -2.1006   -1.4929   -0.4261 C   0  0  0  0  0  0  0  0  0  0  0  0
    2.5970    1.1885   -0.3780 C   0  0  0  0  0  0  0  0  0  0  0  0
    3.5677   -1.0470   -0.4092 C   0  0  0  0  0  0  0  0  0  0  0  0
   -2.4603    1.2628   -0.4992 C   0  0  0  0  0  0  0  0  0  0  0  0
    3.6713    0.3346   -0.6189 C   0  0  0  0  0  0  0  0  0  0  0  0
   -3.2691   -0.9342   -0.9689 C   0  0  0  0  0  0  0  0  0  0  0  0
   -3.4815    0.4362   -0.9397 C   0  0  0  0  0  0  0  0  0  0  0  0
    6.1663   -1.2431   -1.5597 C   0  0  0  0  0  0  0  0  0  0  0  0
    5.8042   -0.6478   -2.9126 C   0  0  0  0  0  0  0  0  0  0  0  0
  1 16  1  0
  1 17  1  0
  2 21  1  0
  2 26  1  0
  3  6  1  0
  3  7  1  0
  3  8  1  0
  4  9  1  0
  4 10  1  0
  4 13  1  0
  5 12  1  0
  5 14  1  0
  5 15  1  0
  6  9  1  0
  7 10  1  0
  8 11  1  0
 11 12  1  0
 14 16  2  0
 14 18  1  0
 15 17  2  0
 15 19  1  0
 16 20  1  0
 17 22  1  0
 18 21  2  0
 19 24  2  0
 20 23  2  0
 21 23  1  0
 22 25  2  0
 24 25  1  0
 26 27  1  0
M  END
>  <DRUGBANK_ID>  (1) 
DB00372

>  <SECONDARY_ACCESSION_NUMBERS>  (1) 
APRD00323

>  <COMMON_NAME>  (1) 
Thiethylperazine

>  <CAS_NUMBER>  (1) 
1420-55-9

>  <UNII>  (1) 
8ETK1WAF6R

>  <SYNONYMS>  (1) 
2-(ethylthio)-10-[3-(4-methylpiperazin-1-yl)propyl]-10H-phenothiazine; Norzine; Thiethylperazin; Thiéthylpérazine; Thiethylperazine; Thiethylperazinum; Tietilperazina

$$$$
