
     RDKit          3D

 25 28  0  0  1  0  0  0  0  0999 V2000
    1.2031    0.1865   -0.1635 O   0  0  0  0  0  0  0  0  0  0  0  0
    3.2335   -0.7202   -0.6067 O   0  0  0  0  0  0  0  0  0  0  0  0
   -4.4228    2.6840    3.7173 N   0  0  0  0  0  0  0  0  0  0  0  0
   -2.2779    3.4136    2.6376 N   0  0  0  0  0  0  0  0  0  0  0  0
    3.2541    0.9655    0.8901 N   0  0  0  0  0  0  0  0  0  0  0  0
   -2.7445    0.8528    2.7288 C   0  0  2  0  0  0  0  0  0  0  0  0
   -3.0150    2.3947    3.3942 C   0  0  2  0  0  0  0  0  0  0  0  0
   -4.2795    0.5110    2.9786 C   0  0  0  0  0  0  0  0  0  0  0  0
   -1.6224    1.4050    1.8187 C   0  0  0  0  0  0  0  0  0  0  0  0
   -5.1225    1.4457    3.7489 C   0  0  0  0  0  0  0  0  0  0  0  0
   -1.4960    2.7777    1.7150 C   0  0  0  0  0  0  0  0  0  0  0  0
   -2.9368   -0.3402    1.6419 C   0  0  0  0  0  0  0  0  0  0  0  0
   -4.6764    3.3319    5.0021 C   0  0  0  0  0  0  0  0  0  0  0  0
   -0.6064    0.6108    1.2487 C   0  0  0  0  0  0  0  0  0  0  0  0
   -2.4055    4.8407    2.8163 C   0  0  0  0  0  0  0  0  0  0  0  0
   -0.5131    3.3214    0.8716 C   0  0  0  0  0  0  0  0  0  0  0  0
    0.2955    1.1248    0.3475 C   0  0  0  0  0  0  0  0  0  0  0  0
    0.3487    2.4867    0.1282 C   0  0  0  0  0  0  0  0  0  0  0  0
    2.5907    0.0881    0.0449 C   0  0  0  0  0  0  0  0  0  0  0  0
    2.7797    1.9057    1.8199 C   0  0  0  0  0  0  0  0  0  0  0  0
    1.7945    1.6032    2.7611 C   0  0  0  0  0  0  0  0  0  0  0  0
    3.2325    3.2257    1.7172 C   0  0  0  0  0  0  0  0  0  0  0  0
    1.1190    2.6358    3.4253 C   0  0  0  0  0  0  0  0  0  0  0  0
    2.5893    4.2516    2.4228 C   0  0  0  0  0  0  0  0  0  0  0  0
    1.4865    3.9628    3.2201 C   0  0  0  0  0  0  0  0  0  0  0  0
  1 17  1  0
  1 19  1  0
  2 19  2  0
  7  3  1  6
  3 10  1  0
  3 13  1  0
  4  7  1  0
  4 11  1  0
  4 15  1  0
  5 19  1  0
  5 20  1  0
  6  7  1  0
  6  8  1  0
  6  9  1  0
  6 12  1  1
  8 10  1  0
  9 11  2  0
  9 14  1  0
 11 16  1  0
 14 17  2  0
 16 18  2  0
 17 18  1  0
 20 21  2  0
 20 22  1  0
 21 23  1  0
 22 24  2  0
 23 25  2  0
 24 25  1  0
M  END
>  <DRUGBANK_ID>  (1) 
DB04892

>  <COMMON_NAME>  (1) 
Phenserine

>  <CAS_NUMBER>  (1) 
101246-66-6

>  <UNII>  (1) 
SUE285UG3S

>  <SYNONYMS>  (1) 
(-)-eseroline phenylcarbamate; (-)-phenserine

$$$$
