
     RDKit          3D

  7  7  0  0  0  0  0  0  0  0999 V2000
    0.8416    1.2834    0.0230 C   0  0  0  0  0  0  0  0  0  0  0  0
    1.3692   -0.1267   -0.0070 C   0  0  0  0  0  0  0  0  0  0  0  0
    2.5564   -0.4233    0.0073 O   0  0  0  0  0  0  0  0  0  0  0  0
    0.3678   -1.0478   -0.0443 N   0  0  0  0  0  0  0  0  0  0  0  0
   -0.9132   -0.6143   -0.0120 C   0  0  0  0  0  0  0  0  0  0  0  0
   -1.9023   -1.3252    0.0139 O   0  0  0  0  0  0  0  0  0  0  0  0
   -0.9632    1.1295   -0.0007 S   0  0  0  0  0  0  0  0  0  0  0  0
  1  2  1  0
  1  7  1  0
  2  3  2  0
  2  4  1  0
  4  5  1  0
  5  6  2  0
  5  7  1  0
M  END
>  <DRUGBANK_ID>  (1) 
DB11898

>  <COMMON_NAME>  (1) 
2,4-thiazolidinedione

>  <CAS_NUMBER>  (1) 
2295-31-0

>  <UNII>  (1) 
AA68LXK93C

>  <SYNONYMS>  (1) 
Thiazolidinedione

$$$$
