PU6
     RDKit          3D

 24 27  0  0  0  0  0  0  0  0999 V2000
    1.4696    0.0940   -0.1965 C   0  0  0  0  0  0  0  0  0  0  0  0
    1.0131   -0.0845   -1.6546 C   0  0  0  0  0  0  0  0  0  0  0  0
    1.1417   -1.4851   -2.1941 C   0  0  0  0  0  0  0  0  0  0  0  0
    0.3563   -2.5202   -1.3683 C   0  0  0  0  0  0  0  0  0  0  0  0
   -1.1041   -2.4475   -1.3784 N   0  0  0  0  0  0  0  0  0  0  0  0
   -1.8891   -3.4857   -1.8617 C   0  0  0  0  0  0  0  0  0  0  0  0
   -1.5018   -4.6503   -2.4413 N   0  0  0  0  0  0  0  0  0  0  0  0
   -2.5809   -5.3869   -2.7956 C   0  0  0  0  0  0  0  0  0  0  0  0
   -3.8974   -5.1095   -2.6492 N   0  0  0  0  0  0  0  0  0  0  0  0
   -3.1874   -3.1044   -1.6362 C   0  0  0  0  0  0  0  0  0  0  0  0
   -4.2189   -3.9412   -2.0520 C   0  0  0  0  0  0  0  0  0  0  0  0
   -5.5383   -3.5936   -1.8561 N   0  0  0  0  0  0  0  0  0  0  0  0
   -3.2473   -1.8981   -0.9975 N   0  0  0  0  0  0  0  0  0  0  0  0
   -2.0085   -1.4943   -0.8594 C   0  0  0  0  0  0  0  0  0  0  0  0
   -1.7488   -0.1759   -0.1667 C   0  0  0  0  0  0  0  0  0  0  0  0
   -2.1292    1.0854   -0.9665 C   0  0  0  0  0  0  0  0  0  0  0  0
   -3.4481    1.3039   -1.3958 C   0  0  0  0  0  0  0  0  0  0  0  0
   -3.7318    2.4809   -2.0747 C   0  0  0  0  0  0  0  0  0  0  0  0
   -1.1646    2.0874   -1.2910 C   0  0  0  0  0  0  0  0  0  0  0  0
   -4.9489    2.8973   -2.5329 O   0  0  0  0  0  0  0  0  0  0  0  0
   -1.4577    3.2320   -2.0253 C   0  0  0  0  0  0  0  0  0  0  0  0
   -2.7653    3.4271   -2.3424 C   0  0  0  0  0  0  0  0  0  0  0  0
   -3.2652    4.5679   -2.8831 O   0  0  0  0  0  0  0  0  0  0  0  0
   -4.6675    4.3036   -2.7159 C   0  0  0  0  0  0  0  0  0  0  0  0
  1  2  1  0
  2  3  1  0
  3  4  1  0
  4  5  1  0
  5  6  1  0
  5 14  1  0
  6  7  2  0
  6 10  1  0
  7  8  1  0
  8  9  2  0
  9 11  1  0
 10 11  2  0
 10 13  1  0
 11 12  1  0
 13 14  2  0
 14 15  1  0
 15 16  1  0
 16 17  2  0
 16 19  1  0
 17 18  1  0
 18 20  1  0
 18 22  2  0
 19 21  2  0
 20 24  1  0
 21 22  1  0
 22 23  1  0
 23 24  1  0
M  END
>  <DRUGBANK_ID>  (1) 
DB08436

>  <COMMON_NAME>  (1) 
8-BENZO[1,3]DIOXOL-,5-YLMETHYL-9-BUTYL-9H-

$$$$
