
     RDKit          3D

 29 32  0  0  0  0  0  0  0  0999 V2000
   -2.4316    0.9240   -1.3335 C   0  0  0  0  0  0  0  0  0  0  0  0
   -1.2780    0.3739   -0.4697 C   0  0  0  0  0  0  0  0  0  0  0  0
   -1.7481    0.9287    0.8288 C   0  0  0  0  0  0  0  0  0  0  0  0
   -1.2421   -1.1782   -0.3730 C   0  0  0  0  0  0  0  0  0  0  0  0
    0.0025   -1.7770    0.3597 C   0  0  0  0  0  0  0  0  0  0  0  0
    1.2520   -1.1804   -0.3283 C   0  0  0  0  0  0  0  0  0  0  0  0
    1.3040    0.3549   -0.2524 C   0  0  0  0  0  0  0  0  0  0  0  0
    2.4502    0.9504   -1.0773 C   0  0  0  0  0  0  0  0  0  0  0  0
    1.7449    0.7372    1.1509 C   0  0  0  0  0  0  0  0  0  0  0  0
    0.0448    0.9970   -0.7472 N   0  0  0  0  0  0  0  0  0  0  0  0
    0.0542   -2.0746    1.8174 O   0  0  0  0  0  0  0  0  0  0  0  0
   -0.0261   -1.1742    2.8682 C   0  0  0  0  0  0  0  0  0  0  0  0
    1.0932   -0.7424    3.4956 N   0  0  0  0  0  0  0  0  0  0  0  0
    1.1489    0.5720    4.1259 N   0  0  0  0  0  0  0  0  0  0  0  0
    0.0948    1.4042    4.0629 C   0  0  0  0  0  0  0  0  0  0  0  0
   -1.0828    0.8445    3.5805 C   0  0  0  0  0  0  0  0  0  0  0  0
   -1.1903   -0.5054    3.1396 C   0  0  0  0  0  0  0  0  0  0  0  0
    0.1144    2.7933    4.5873 C   0  0  0  0  0  0  0  0  0  0  0  0
   -0.9605    3.2469    5.3894 C   0  0  0  0  0  0  0  0  0  0  0  0
   -2.0933    2.5176    5.6611 O   0  0  0  0  0  0  0  0  0  0  0  0
   -0.9714    4.4889    6.0100 C   0  0  0  0  0  0  0  0  0  0  0  0
    0.0904    5.3706    5.8341 C   0  0  0  0  0  0  0  0  0  0  0  0
    1.1309    5.0086    4.9713 C   0  0  0  0  0  0  0  0  0  0  0  0
    1.1422    3.7392    4.3468 C   0  0  0  0  0  0  0  0  0  0  0  0
    0.1002    6.5901    6.5905 C   0  0  0  0  0  0  0  0  0  0  0  0
    0.1138    7.8700    6.0404 C   0  0  0  0  0  0  0  0  0  0  0  0
    0.0744    8.7136    7.1082 N   0  0  0  0  0  0  0  0  0  0  0  0
    0.0272    8.1095    8.3014 N   0  0  0  0  0  0  0  0  0  0  0  0
    0.0337    6.8078    7.9803 C   0  0  0  0  0  0  0  0  0  0  0  0
  1  2  1  0
  2  3  1  0
  2  4  1  0
  2 10  1  0
  4  5  1  0
  5  6  1  0
  5 11  1  0
  6  7  1  0
  7  8  1  0
  7  9  1  0
  7 10  1  0
 11 12  1  0
 12 13  2  0
 12 17  1  0
 13 14  1  0
 14 15  2  0
 15 16  1  0
 15 18  1  0
 16 17  2  0
 18 19  2  0
 18 24  1  0
 19 20  1  0
 19 21  1  0
 21 22  2  0
 22 23  1  0
 22 25  1  0
 23 24  2  0
 25 26  2  0
 25 29  1  0
 26 27  1  0
 27 28  1  0
 28 29  2  0
M  END
>  <DRUGBANK_ID>  (1) 
DB14918

>  <COMMON_NAME>  (1) 
Branaplam

>  <CAS_NUMBER>  (1) 
1562338-42-4

>  <UNII>  (1) 
P12R69543A

>  <SYNONYMS>  (1) 
Branaplam

$$$$
