
     RDKit          3D

 13 12  0  0  0  0  0  0  0  0999 V2000
    0.8100   -0.0904    0.0315 O   0  0  0  0  0  0  0  0  0  0  0  0
    0.3301   -0.6474   -1.0977 C   0  0  0  0  0  0  0  0  0  0  0  0
   -2.6472   -0.6511    1.0433 C   0  0  0  0  0  0  0  0  0  0  0  0
   -1.8090   -1.2641    0.0965 N   0  0  0  0  0  0  0  0  0  0  0  0
   -3.0019    0.6763    1.0284 N   0  0  0  0  0  0  0  0  0  0  0  0
   -1.1833   -0.7173   -1.1420 C   0  0  0  0  0  0  0  0  0  0  0  0
   -2.4085    1.7037   -0.2986 P   0  0  0  0  0  0  0  0  0  0  0  0
   -3.1658   -1.2800    2.0563 N   0  0  0  0  0  0  0  0  0  0  0  0
   -1.4925   -2.7114    0.1215 C   0  0  0  0  0  0  0  0  0  0  0  0
   -3.8073    2.2694   -0.5438 O   0  0  0  0  0  0  0  0  0  0  0  0
   -1.6560    2.7139    0.7350 O   0  0  0  0  0  0  0  0  0  0  0  0
    1.0823   -0.9497   -2.0172 O   0  0  0  0  0  0  0  0  0  0  0  0
   -1.8319    2.7022   -1.5883 O   0  0  0  0  0  0  0  0  0  0  0  0
  2  1  1  0
  2 12  2  0
  3  8  2  0
  3  4  1  0
  3  5  1  0
  4  9  1  0
  4  6  1  0
  5  7  1  0
  6  2  1  0
  7 10  2  0
  7 11  1  0
  7 13  1  0
M  END
>  <DRUGBANK_ID>  (1) 
DB13191

>  <COMMON_NAME>  (1) 
Phosphocreatine

>  <CAS_NUMBER>  (1) 
67-07-2

>  <UNII>  (1) 
020IUV4N33

>  <SYNONYMS>  (1) 
Creatine phosphate; Creatine phosphic acid; Creatine-P; Fosfocreatine; N-(N-phosphonoamido)sarcosine; N-(Phosphonoamidino)sarcosine; N-phosphocreatine; N-Phosphorylcreatine; phosphorylcreatine

$$$$
