550
     RDKit          3D

 11 11  0  0  0  0  0  0  0  0999 V2000
    2.3636   -0.4742   -0.0391 S   0  0  0  0  0  0  0  0  0  0  0  0
   -2.4882   -1.3522   -0.0005 O   0  0  0  0  0  0  0  0  0  0  0  0
    0.4354    1.3240   -0.1505 N   0  0  0  0  0  0  0  0  0  0  0  0
   -0.2580   -0.8802   -0.0289 N   0  0  0  0  0  0  0  0  0  0  0  0
   -1.0635    3.2890    0.0183 C   0  0  0  0  0  0  0  0  0  0  0  0
   -0.8538    1.7947   -0.0580 C   0  0  0  0  0  0  0  0  0  0  0  0
   -0.4956    3.9347    1.2945 C   0  0  0  0  0  0  0  0  0  0  0  0
   -1.8688    0.9207   -0.0295 C   0  0  0  0  0  0  0  0  0  0  0  0
    1.0168    3.8149    1.4231 C   0  0  0  0  0  0  0  0  0  0  0  0
    0.7734    0.0067   -0.0773 C   0  0  0  0  0  0  0  0  0  0  0  0
   -1.5790   -0.5276   -0.0264 C   0  0  0  0  0  0  0  0  0  0  0  0
  1 10  2  0
  2 11  2  0
  3  6  1  0
  3 10  1  0
  4 10  1  0
  4 11  1  0
  5  6  1  0
  5  7  1  0
  6  8  2  0
  7  9  1  0
  8 11  1  0
M  END
>  <DRUGBANK_ID>  (1) 
DB00550

>  <SECONDARY_ACCESSION_NUMBERS>  (1) 
APRD00297

>  <COMMON_NAME>  (1) 
Propylthiouracil

>  <CAS_NUMBER>  (1) 
51-52-5

>  <UNII>  (1) 
721M9407IY

>  <SYNONYMS>  (1) 
2-Mercapto-6-propyl-4-pyrimidone; 2-Mercapto-6-propylpyrimid-4-one; 2-Thio-4-oxo-6-propyl-1,3-pyrimidine; 2-Thio-6-propyl-1,3-pyrimidin-4-one; 4-propyl-2-thiouracil; 6-Propyl-2-thio-2,4(1H,3H)pyrimidinedione; 6-propyl-2-thiouracil; 6-propyl-2-thioxo-2,3-dihydropyrimidin-4(1H)-one; 6-Propylthiouracil; 6-Thio-4-propyluracil; Propiltiouracilo; Propylthiouracil; Propylthiouracile; Propylthiouracilum

$$$$
