
     RDKit          3D

 10 10  0  0  1  0  0  0  0  0999 V2000
   -2.9996   -5.2316   -2.9275 C   0  0  0  0  0  0  0  0  0  0  0  0
   -1.4795   -5.1196   -2.9286 C   0  0  0  0  0  0  0  0  0  0  0  0
   -0.9751   -3.8494   -3.6165 C   0  0  0  0  0  0  0  0  0  0  0  0
   -1.5227   -2.5239   -3.0591 C   0  0  0  0  0  0  0  0  0  0  0  0
   -1.6082   -0.8527   -1.1418 C   0  0  0  0  0  0  0  0  0  0  0  0
   -1.3994   -0.8452    0.3636 C   0  0  0  0  0  0  0  0  0  0  0  0
   -1.6466   -3.2282   -0.5622 C   0  0  0  0  0  0  0  0  0  0  0  0
   -1.1206   -2.2278   -1.6006 C   0  0  1  0  0  0  0  0  0  0  0  0
   -1.4026   -2.9252    2.0860 O   0  0  0  0  0  0  0  0  0  0  0  0
   -2.1888   -2.3694    0.9446 S   0  0  0  0  0  0  0  0  0  0  0  0
  2  1  1  0
  3  2  1  0
  4  3  1  0
  6  5  1  0
  8  5  1  0
  8  7  1  0
  8  4  1  6
 10  6  1  0
 10  7  1  0
 10  9  2  0
M  END
>  <DRUGBANK_ID>  (1) 
DB02871

>  <SECONDARY_ACCESSION_NUMBERS>  (1) 
EXPT02956

>  <COMMON_NAME>  (1) 
3-Butylthiolane 1-Oxide

$$$$
