D3E
     RDKit          3D

 31 34  0  0  0  0  0  0  0  0999 V2000
    0.7946    0.0450    0.0258 F   0  0  0  0  0  0  0  0  0  0  0  0
    2.1493    0.1024    0.0063 C   0  0  0  0  0  0  0  0  0  0  0  0
    2.4735    1.3765   -0.3049 F   0  0  0  0  0  0  0  0  0  0  0  0
    2.5856   -0.1446    1.2628 F   0  0  0  0  0  0  0  0  0  0  0  0
    2.7087   -0.9289   -0.9982 C   0  0  1  0  0  0  0  0  0  0  0  0
    2.1539   -2.3235   -0.6229 C   0  0  0  0  0  0  0  0  0  0  0  0
    2.2820   -0.6787   -2.3570 O   0  0  0  0  0  0  0  0  0  0  0  0
    4.2252   -0.9170   -1.0589 C   0  0  0  0  0  0  0  0  0  0  0  0
    4.8742   -2.0983   -1.3700 C   0  0  0  0  0  0  0  0  0  0  0  0
    6.2230   -2.1109   -1.6205 C   0  0  0  0  0  0  0  0  0  0  0  0
    7.0416   -1.0089   -1.4251 C   0  0  0  0  0  0  0  0  0  0  0  0
    6.4021    0.1966   -1.1193 C   0  0  0  0  0  0  0  0  0  0  0  0
    5.0142    0.2402   -0.9329 C   0  0  0  0  0  0  0  0  0  0  0  0
    8.5417   -1.0497   -1.4725 C   0  0  0  0  0  0  0  0  0  0  0  0
    9.0646    0.0707   -1.3890 O   0  0  0  0  0  0  0  0  0  0  0  0
    9.2807   -2.2837   -1.5032 N   0  0  0  0  0  0  0  0  0  0  0  0
    8.5634   -3.5312   -1.3809 C   0  0  0  0  0  0  0  0  0  0  0  0
    8.6388   -5.0145   -1.2949 C   0  0  0  0  0  0  0  0  0  0  0  0
    8.4825   -4.4353   -2.6419 C   0  0  0  0  0  0  0  0  0  0  0  0
   10.7644   -2.2635   -1.4162 C   0  0  2  0  0  0  0  0  0  0  0  0
   11.3024   -3.5354   -0.7449 C   0  0  0  0  0  0  0  0  0  0  0  0
   12.8053   -3.5638   -0.6076 C   0  0  0  0  0  0  0  0  0  0  0  0
   13.3194   -2.3425    0.1444 C   0  0  2  0  0  0  0  0  0  0  0  0
   12.8350   -1.0554   -0.5084 C   0  0  0  0  0  0  0  0  0  0  0  0
   11.3313   -1.0395   -0.6614 C   0  0  0  0  0  0  0  0  0  0  0  0
   14.8201   -2.3556    0.1789 C   0  0  0  0  0  0  0  0  0  0  0  0
   15.5756   -2.3164   -0.9989 C   0  0  0  0  0  0  0  0  0  0  0  0
   16.9570   -2.3094   -0.9289 C   0  0  0  0  0  0  0  0  0  0  0  0
   17.5393   -2.3412    0.3249 C   0  0  0  0  0  0  0  0  0  0  0  0
   16.8467   -2.3869    1.4849 N   0  0  0  0  0  0  0  0  0  0  0  0
   15.5020   -2.3927    1.3869 C   0  0  0  0  0  0  0  0  0  0  0  0
  1  2  1  0
  2  3  1  0
  2  4  1  0
  2  5  1  0
  5  6  1  1
  5  7  1  0
  5  8  1  0
  8  9  2  0
  8 13  1  0
  9 10  1  0
 10 11  2  0
 11 12  1  0
 11 14  1  0
 12 13  2  0
 14 15  2  0
 14 16  1  0
 16 17  1  0
 17 18  1  0
 17 19  1  0
 18 19  1  0
 20 16  1  1
 20 21  1  0
 20 25  1  0
 21 22  1  0
 22 23  1  0
 23 24  1  0
 23 26  1  6
 24 25  1  0
 26 27  2  0
 26 31  1  0
 27 28  1  0
 28 29  2  0
 29 30  1  0
 30 31  2  0
M  END
>  <DRUGBANK_ID>  (1) 
DB07619

>  <COMMON_NAME>  (1) 
N-cyclopropyl-N-(trans-4-pyridin-3-ylcyclohexyl)-4-[(1S)-2,2,2-trifluoro-1-hydroxy-1-methylethyl]benzamide

$$$$
