
     RDKit          3D

 13 14  0  0  0  0  0  0  0  0999 V2000
    1.0142   -0.1863   -0.2385 N   0  0  0  0  0  0  0  0  0  0  0  0
    0.2898    0.7902   -0.9149 C   0  0  0  0  0  0  0  0  0  0  0  0
    0.5393    1.0323   -2.2620 C   0  0  0  0  0  0  0  0  0  0  0  0
   -0.2957    1.8901   -2.9900 C   0  0  0  0  0  0  0  0  0  0  0  0
   -1.2107    2.7211   -2.3624 C   0  0  0  0  0  0  0  0  0  0  0  0
   -1.3458    2.5859   -0.9788 C   0  0  0  0  0  0  0  0  0  0  0  0
   -0.6505    1.5815   -0.2714 C   0  0  0  0  0  0  0  0  0  0  0  0
   -2.1772    3.5206   -0.3980 C   0  0  0  0  0  0  0  0  0  0  0  0
   -2.3440    3.5232    0.9620 O   0  0  0  0  0  0  0  0  0  0  0  0
   -2.8212    4.5027   -1.0382 N   0  0  0  0  0  0  0  0  0  0  0  0
   -2.6436    4.5172   -2.3664 C   0  0  0  0  0  0  0  0  0  0  0  0
   -1.8852    3.6531   -3.0519 N   0  0  0  0  0  0  0  0  0  0  0  0
   -3.2592    5.5026   -3.0809 N   0  0  0  0  0  0  0  0  0  0  0  0
  1  2  1  0
  2  3  2  0
  2  7  1  0
  3  4  1  0
  4  5  2  0
  5  6  1  0
  5 12  1  0
  6  7  2  0
  6  8  1  0
  8  9  1  0
  8 10  2  0
 10 11  1  0
 11 12  2  0
 11 13  1  0
M  END
>  <DRUGBANK_ID>  (1) 
DB03505

>  <SECONDARY_ACCESSION_NUMBERS>  (1) 
EXPT01267

>  <COMMON_NAME>  (1) 
2,6-diaminoquinazolin-4-ol

>  <CAS_NUMBER>  (1) 
53745-23-6

$$$$
