1320
     RDKit          3D

 25 27  0  0  0  0  0  0  0  0999 V2000
    0.9472    0.0775    0.0348 P   0  0  0  0  0  0  0  0  0  0  0  0
   -1.8309    1.2798    2.8361 O   0  0  0  0  0  0  0  0  0  0  0  0
    0.8084    1.1364    1.2718 O   0  0  0  0  0  0  0  0  0  0  0  0
    0.7483   -2.4267    2.4380 O   0  0  0  0  0  0  0  0  0  0  0  0
    0.8538    1.0412   -1.2697 O   0  0  0  0  0  0  0  0  0  0  0  0
   -0.7828    0.0775    0.0348 O   0  0  0  0  0  0  0  0  0  0  0  0
    2.4956    0.0775    0.0348 O   0  0  0  0  0  0  0  0  0  0  0  0
   -1.5054   -2.1905    2.7905 N   0  0  0  0  0  0  0  0  0  0  0  0
   -0.2369   -0.3666    2.7323 N   0  0  0  0  0  0  0  0  0  0  0  0
   -2.4922   -1.1312    2.8832 C   0  0  0  0  0  0  0  0  0  0  0  0
   -1.5224    0.0929    2.8228 C   0  0  0  0  0  0  0  0  0  0  0  0
   -3.4867   -1.2080    1.7131 C   0  0  0  0  0  0  0  0  0  0  0  0
   -3.1988   -1.1453    4.2503 C   0  0  0  0  0  0  0  0  0  0  0  0
   -0.2303   -1.7166    2.6478 C   0  0  0  0  0  0  0  0  0  0  0  0
    0.9059    0.4884    2.5361 C   0  0  0  0  0  0  0  0  0  0  0  0
   -4.3103   -2.3514    1.5986 C   0  0  0  0  0  0  0  0  0  0  0  0
   -2.4537   -1.0465    5.4338 C   0  0  0  0  0  0  0  0  0  0  0  0
   -3.8063   -0.0861    0.9311 C   0  0  0  0  0  0  0  0  0  0  0  0
   -4.6056   -1.1760    4.3690 C   0  0  0  0  0  0  0  0  0  0  0  0
   -5.4751   -2.3172    0.8333 C   0  0  0  0  0  0  0  0  0  0  0  0
   -3.0975   -0.9531    6.6673 C   0  0  0  0  0  0  0  0  0  0  0  0
   -4.9604   -0.0636    0.1513 C   0  0  0  0  0  0  0  0  0  0  0  0
   -5.2468   -1.0626    5.5919 C   0  0  0  0  0  0  0  0  0  0  0  0
   -5.7911   -1.1777    0.1003 C   0  0  0  0  0  0  0  0  0  0  0  0
   -4.4895   -0.9674    6.7450 C   0  0  0  0  0  0  0  0  0  0  0  0
  1  3  1  0
  1  5  1  0
  1  6  1  0
  1  7  2  0
  2 11  2  0
  3 15  1  0
  4 14  2  0
  8 10  1  0
  8 14  1  0
  9 11  1  0
  9 14  1  0
  9 15  1  0
 10 11  1  0
 10 12  1  0
 10 13  1  0
 12 16  2  0
 12 18  1  0
 13 17  2  0
 13 19  1  0
 16 20  1  0
 17 21  1  0
 18 22  2  0
 19 23  2  0
 20 24  2  0
 21 25  2  0
 22 24  1  0
 23 25  1  0
M  END
>  <DRUGBANK_ID>  (1) 
DB01320

>  <COMMON_NAME>  (1) 
Fosphenytoin

>  <CAS_NUMBER>  (1) 
93390-81-9

>  <UNII>  (1) 
B4SF212641

>  <SYNONYMS>  (1) 
(3-Phosphoryloxymethyl)phenytoin; Fosfenitoina; Fosphenytoin; Fosphenytoine; Fosphenytoinum

$$$$
