
     RDKit          3D

 19 21  0  0  0  0  0  0  0  0999 V2000
   -1.1202    1.9430   -0.2605 C   0  0  1  0  0  0  0  0  0  0  0  0
   -2.0927    1.2839    0.7754 C   0  0  1  0  0  0  0  0  0  0  0  0
   -2.8805    0.0652    0.2468 C   0  0  0  0  0  0  0  0  0  0  0  0
   -2.1412   -0.8556   -0.7100 C   0  0  0  0  0  0  0  0  0  0  0  0
   -0.8027   -1.1392   -0.2947 N   0  0  0  0  0  0  0  0  0  0  0  0
    0.2324   -0.1974   -0.2428 C   0  0  0  0  0  0  0  0  0  0  0  0
    0.1836    1.1852   -0.3501 C   0  0  0  0  0  0  0  0  0  0  0  0
    1.4112    1.8621   -0.2806 C   0  0  0  0  0  0  0  0  0  0  0  0
    2.6133    1.1560   -0.0674 C   0  0  0  0  0  0  0  0  0  0  0  0
    2.6165   -0.2330    0.1344 C   0  0  0  0  0  0  0  0  0  0  0  0
    1.0826   -2.2257    0.2506 N   0  0  0  0  0  0  0  0  0  0  0  0
   -0.2977   -2.4027    0.0381 C   0  0  0  0  0  0  0  0  0  0  0  0
    1.4062   -0.8825    0.0566 C   0  0  0  0  0  0  0  0  0  0  0  0
   -0.9090   -3.4503    0.1082 O   0  0  0  0  0  0  0  0  0  0  0  0
   -1.7381    2.1385   -1.5247 O   0  0  0  0  0  0  0  0  0  0  0  0
   -1.3743    0.9252    2.0229 N   0  0  0  0  0  0  0  0  0  0  0  0
   -2.1824    0.9358    3.2313 C   0  0  0  0  0  0  0  0  0  0  0  0
   -1.3238    0.4102    4.3834 C   0  0  0  0  0  0  0  0  0  0  0  0
   -2.6439    2.3566    3.5344 C   0  0  0  0  0  0  0  0  0  0  0  0
  1 15  1  6
  1  7  1  0
  1  2  1  0
  2  3  1  0
  2 16  1  1
  3  4  1  0
  4  5  1  0
  5  6  1  0
  6  7  2  0
  7  8  1  0
  8  9  2  0
  9 10  1  0
 10 13  2  0
 11 12  1  0
 12  5  1  0
 12 14  2  0
 13  6  1  0
 13 11  1  0
 16 17  1  0
 17 18  1  0
 17 19  1  0
M  END
>  <DRUGBANK_ID>  (1) 
DB11479

>  <COMMON_NAME>  (1) 
Zilpaterol

>  <CAS_NUMBER>  (1) 
119520-05-7

>  <UNII>  (1) 
S384A1Y12J

>  <SYNONYMS>  (1) 
Zilpaterol

$$$$
