
     RDKit          3D

 31 35  0  0  1  0  0  0  0  0999 V2000
    0.5808   -1.0024   -0.4027 C   0  0  0  0  0  0  0  0  0  0  0  0
   -0.2276   -1.9416    0.0741 C   0  0  0  0  0  0  0  0  0  0  0  0
    0.1708    0.3286   -0.5160 C   0  0  0  0  0  0  0  0  0  0  0  0
    2.1889   -0.1130    1.9969 C   0  0  0  0  0  0  0  0  0  0  0  0
    3.0409    0.1526    0.7249 C   0  0  0  0  0  0  0  0  0  0  0  0
   -1.5439   -1.5413    0.2093 C   0  0  0  0  0  0  0  0  0  0  0  0
   -0.9108    0.7600    0.2118 C   0  0  0  0  0  0  0  0  0  0  0  0
   -1.0078    2.7606   -1.8455 C   0  0  0  0  0  0  0  0  0  0  0  0
   -2.6678    4.0546   -0.8243 C   0  0  0  0  0  0  0  0  0  0  0  0
   -5.1213   -0.5439   -0.9320 C   0  0  0  0  0  0  0  0  0  0  0  0
   -6.6257    3.1521   -1.9398 C   0  0  0  0  0  0  0  0  0  0  0  0
   -0.0703    3.4967   -1.0909 C   0  0  0  0  0  0  0  0  0  0  0  0
   -1.7281    4.8153   -0.1094 C   0  0  0  0  0  0  0  0  0  0  0  0
   -4.3519    0.1516    0.2577 C   0  0  0  0  0  0  0  0  0  0  0  0
   -5.2612    2.9678   -2.0208 C   0  0  0  0  0  0  0  0  0  0  0  0
    1.1217    0.9408    2.1163 C   0  0  0  0  0  0  0  0  0  0  0  0
    2.6396    1.5136    0.2405 C   0  0  0  0  0  0  0  0  0  0  0  0
    1.9409    3.1739    1.8531 C   0  0  0  0  0  0  0  0  0  0  0  0
    1.7806    4.3878    0.9281 C   0  0  0  0  0  0  0  0  0  0  0  0
   -6.9585    0.7954   -1.7773 C   0  0  0  0  0  0  0  0  0  0  0  0
   -1.8350   -0.1225    0.2414 C   0  0  0  0  0  0  0  0  0  0  0  0
   -2.3399    2.8606   -1.5023 C   0  0  0  0  0  0  0  0  0  0  0  0
   -5.5818    0.6739   -1.6429 C   0  0  0  0  0  0  0  0  0  0  0  0
   -7.4632    2.0556   -1.9457 C   0  0  0  0  0  0  0  0  0  0  0  0
   -0.4100    4.4287   -0.1244 C   0  0  0  0  0  0  0  0  0  0  0  0
   -3.0495    0.4665   -0.4005 C   0  0  2  0  0  0  0  0  0  0  0  0
   -4.6831    1.7341   -1.8510 C   0  0  0  0  0  0  0  0  0  0  0  0
   -3.1826    1.5509   -1.6070 C   0  0  1  0  0  0  0  0  0  0  0  0
    1.5554    1.9710    1.1548 N   0  0  0  0  0  0  0  0  0  0  0  0
   -8.7960    2.2139   -2.1170 O   0  0  0  0  0  0  0  0  0  0  0  0
    0.4349    4.9134    0.8354 O   0  0  0  0  0  0  0  0  0  0  0  0
  2  1  2  0
  3  1  1  0
  5  4  1  0
  6  2  1  0
  7  3  2  0
 12  8  2  0
 13  9  1  0
 14 10  1  0
 15 11  1  0
 16  4  1  0
 17  5  1  0
 19 18  1  0
 21  6  2  0
 21  7  1  0
 22  8  1  0
 22  9  2  0
 23 10  1  0
 23 20  2  0
 24 11  2  0
 24 20  1  0
 25 12  1  0
 25 13  2  0
 26 14  1  0
 26 21  1  1
 27 15  2  0
 27 23  1  0
 28 26  1  0
 28 27  1  0
 28 22  1  1
 29 16  1  0
 29 17  1  0
 29 18  1  0
 30 24  1  0
 31 19  1  0
 31 25  1  0
M  END
>  <DRUGBANK_ID>  (1) 
DB06202

>  <COMMON_NAME>  (1) 
Lasofoxifene

>  <CAS_NUMBER>  (1) 
180916-16-9

>  <UNII>  (1) 
337G83N988

>  <SYNONYMS>  (1) 
(-)-cis-5,6,7,8-Tetrahydro-6-phenyl-5-(p-(2-(1-pyrrolidinyl)ethoxy)phenyl)-2-naphthol; Lasofoxifene

$$$$
