1187
     RDKit          3D

 22 22  0  0  1  0  0  0  0  0999 V2000
   -1.3111   -0.3036    0.0230 I   0  0  0  0  0  0  0  0  0  0  0  0
    4.5562   10.9859    1.1640 O   0  0  0  0  0  0  0  0  0  0  0  0
    3.6058    9.4788    2.4897 O   0  0  0  0  0  0  0  0  0  0  0  0
    2.6092    3.6330    1.3802 C   0  0  0  0  0  0  0  0  0  0  0  0
    1.1351    3.2353    1.2815 C   0  0  0  0  0  0  0  0  0  0  0  0
    3.0520    4.4839    0.1909 C   0  0  0  0  0  0  0  0  0  0  0  0
    0.7281    2.4563    0.0024 C   0  0  0  0  0  0  0  0  0  0  0  0
    2.2035    5.7522    0.1326 C   0  0  0  0  0  0  0  0  0  0  0  0
    2.5376    6.5643    1.3750 C   0  0  0  0  0  0  0  0  0  0  0  0
    4.0368    6.8768    1.3701 C   0  0  0  0  0  0  0  0  0  0  0  0
    1.4486    1.1182   -0.0649 C   0  0  0  0  0  0  0  0  0  0  0  0
    4.3797    7.7193    0.1422 C   0  0  0  0  0  0  0  0  0  0  0  0
    0.8112    3.1710   -1.3539 C   0  0  0  0  0  0  0  0  0  0  0  0
    3.5345    8.9959    0.1368 C   0  0  0  0  0  0  0  0  0  0  0  0
    0.7836   -0.1084    0.0040 C   0  0  0  0  0  0  0  0  0  0  0  0
    2.8595    1.0807   -0.1828 C   0  0  0  0  0  0  0  0  0  0  0  0
    1.5191   -1.2998    0.0215 C   0  0  0  0  0  0  0  0  0  0  0  0
    3.5932   -0.0928   -0.0948 C   0  0  0  0  0  0  0  0  0  0  0  0
    3.8770    9.8356    1.3568 C   0  0  0  0  0  0  0  0  0  0  0  0
    2.9156   -1.2909   -0.0026 C   0  0  0  0  0  0  0  0  0  0  0  0
    4.7678   11.5506   -0.1318 C   0  0  0  0  0  0  0  0  0  0  0  0
    5.8117   10.7738   -0.9164 C   0  0  0  0  0  0  0  0  0  0  0  0
  1 15  1  0
  2 19  1  0
  2 21  1  0
  3 19  2  0
  4  5  1  0
  4  6  1  0
  5  7  1  0
  6  8  1  0
  7 11  1  0
  7 13  1  0
  8  9  1  0
  9 10  1  0
 10 12  1  0
 11 15  2  0
 11 16  1  0
 12 14  1  0
 14 19  1  0
 15 17  1  0
 16 18  2  0
 17 20  2  0
 18 20  1  0
 21 22  1  0
M  END
>  <DRUGBANK_ID>  (1) 
DB01187

>  <SECONDARY_ACCESSION_NUMBERS>  (1) 
APRD01312; DB13498

>  <COMMON_NAME>  (1) 
Iophendylate

>  <CAS_NUMBER>  (1) 
99-79-6

>  <UNII>  (1) 
5153M06QEA

>  <SYNONYMS>  (1) 
Ethyl 10-(p-iodophenyl)-undecanoate; Ethyl 10-(p-iodophenyl)hendecanoate; Ethyl 10-(p-iodophenyl)undecylate; Iofendylate

$$$$
