44B
     RDKit          3D

 22 22  0  0  0  0  0  0  0  0999 V2000
    0.9152    0.0279   -0.0227 F   0  0  0  0  0  0  0  0  0  0  0  0
    2.2623    0.0917    0.0567 C   0  0  0  0  0  0  0  0  0  0  0  0
    2.5705    0.3575    1.3426 F   0  0  0  0  0  0  0  0  0  0  0  0
    2.7149   -1.1662   -0.2087 F   0  0  0  0  0  0  0  0  0  0  0  0
    2.8664    1.0745   -0.9523 C   0  0  0  0  0  0  0  0  0  0  0  0
    2.4225    0.6941   -2.2994 O   0  0  0  0  0  0  0  0  0  0  0  0
    2.3434    2.4569   -0.5730 C   0  0  0  0  0  0  0  0  0  0  0  0
    2.7604    2.8444    0.6550 F   0  0  0  0  0  0  0  0  0  0  0  0
    2.7708    3.4048   -1.4471 F   0  0  0  0  0  0  0  0  0  0  0  0
    0.9925    2.5145   -0.5710 F   0  0  0  0  0  0  0  0  0  0  0  0
    4.3989    1.0555   -0.9501 C   0  0  0  0  0  0  0  0  0  0  0  0
    5.1482    0.8606    0.2172 C   0  0  0  0  0  0  0  0  0  0  0  0
    6.5421    0.7446    0.1758 C   0  0  0  0  0  0  0  0  0  0  0  0
    5.1004    1.2095   -2.1510 C   0  0  0  0  0  0  0  0  0  0  0  0
    6.4854    1.0510   -2.1863 C   0  0  0  0  0  0  0  0  0  0  0  0
    7.2396    0.8557   -1.0315 C   0  0  0  0  0  0  0  0  0  0  0  0
    8.6122    0.6285   -1.0341 N   0  0  0  0  0  0  0  0  0  0  0  0
    9.4448    0.9655   -2.2070 C   0  0  0  0  0  0  0  0  0  0  0  0
   10.2671    2.2523   -2.0998 C   0  0  0  0  0  0  0  0  0  0  0  0
   11.1461    2.1890   -1.0744 F   0  0  0  0  0  0  0  0  0  0  0  0
   10.9798    2.4389   -3.2373 F   0  0  0  0  0  0  0  0  0  0  0  0
    9.4959    3.3458   -1.9227 F   0  0  0  0  0  0  0  0  0  0  0  0
  1  2  1  0
  2  3  1  0
  2  4  1  0
  2  5  1  0
  5  6  1  0
  5  7  1  0
  5 11  1  0
  7  8  1  0
  7  9  1  0
  7 10  1  0
 11 12  2  0
 11 14  1  0
 12 13  1  0
 13 16  2  0
 14 15  2  0
 15 16  1  0
 16 17  1  0
 17 18  1  0
 18 19  1  0
 19 20  1  0
 19 21  1  0
 19 22  1  0
M  END
>  <DRUGBANK_ID>  (1) 
DB07082

>  <COMMON_NAME>  (1) 
1,1,1,3,3,3-HEXAFLUORO-2-{4-[(2,2,2-TRIFLUOROETHYL)AMINO]PHENYL}PROPAN-2-OL

$$$$
