
     RDKit          3D

 42 43  0  0  0  0  0  0  0  0999 V2000
    0.8858   -0.9811   -0.1461 C   0  0  0  0  0  0  0  0  0  0  0  0
    0.3081    4.0619    1.5244 C   0  0  0  0  0  0  0  0  0  0  0  0
   -1.6436   -2.4069    0.2044 C   0  0  0  0  0  0  0  0  0  0  0  0
    2.8178   -0.5155   -5.8297 C   0  0  0  0  0  0  0  0  0  0  0  0
    1.4121    1.5627    3.7919 C   0  0  0  0  0  0  0  0  0  0  0  0
    4.6788    2.3496   -3.0777 C   0  0  0  0  0  0  0  0  0  0  0  0
    3.4582   -2.7527   -2.7062 C   0  0  0  0  0  0  0  0  0  0  0  0
    4.8189    4.4856    0.0903 C   0  0  0  0  0  0  0  0  0  0  0  0
   -0.8317    1.1903   -0.4130 C   0  0  0  0  0  0  0  0  0  0  0  0
   -2.1323    1.6964    1.3607 C   0  0  0  0  0  0  0  0  0  0  0  0
   -1.1496   -0.0375   -1.0512 C   0  0  0  0  0  0  0  0  0  0  0  0
   -0.1166    1.8887    1.4877 C   0  0  0  0  0  0  0  0  0  0  0  0
    0.9594    2.1919   -1.5168 C   0  0  0  0  0  0  0  0  0  0  0  0
    1.2362    3.1521   -0.5263 C   0  0  0  0  0  0  0  0  0  0  0  0
   -1.2452    3.0873   -1.1674 C   0  0  0  0  0  0  0  0  0  0  0  0
   -2.5350    1.6976   -0.7449 C   0  0  0  0  0  0  0  0  0  0  0  0
   -1.4509   -1.2867   -3.0308 C   0  0  0  0  0  0  0  0  0  0  0  0
    0.4618   -0.0219   -4.5510 C   0  0  0  0  0  0  0  0  0  0  0  0
    2.3998    0.7817    0.9012 C   0  0  0  0  0  0  0  0  0  0  0  0
    3.2885    1.0635   -1.4704 C   0  0  0  0  0  0  0  0  0  0  0  0
   -0.9707    0.0877   -3.9675 C   0  0  0  0  0  0  0  0  0  0  0  0
    2.2604    0.6392   -0.8222 C   0  0  0  0  0  0  0  0  0  0  0  0
   -0.4196   -2.4387   -2.3694 C   0  0  0  0  0  0  0  0  0  0  0  0
    1.4262   -1.3144   -4.1777 C   0  0  0  0  0  0  0  0  0  0  0  0
    2.8934    1.8680    1.5996 C   0  0  0  0  0  0  0  0  0  0  0  0
    3.8288    2.1630   -0.8444 C   0  0  0  0  0  0  0  0  0  0  0  0
    1.0892   -2.4663   -2.9970 C   0  0  0  0  0  0  0  0  0  0  0  0
    3.5774    2.6376    0.6294 C   0  0  0  0  0  0  0  0  0  0  0  0
   -1.5679    1.8703   -3.9413 C   0  0  0  0  0  0  0  0  0  0  0  0
    0.7342    0.4939   -2.1802 C   0  0  0  0  0  0  0  0  0  0  0  0
    0.2521    0.6030   -0.4502 N   0  0  0  0  0  0  0  0  0  0  0  0
    0.6761    2.9555    0.8085 N   0  0  0  0  0  0  0  0  0  0  0  0
   -1.7684    2.3412   -5.0606 O   0  0  0  0  0  0  0  0  0  0  0  0
    0.6729   -0.6105   -2.3876 O   0  0  0  0  0  0  0  0  0  0  0  0
   -0.5564   -2.8606   -0.8351 O   0  0  0  0  0  0  0  0  0  0  0  0
    2.7442   -1.2677   -4.6425 O   0  0  0  0  0  0  0  0  0  0  0  0
    2.4830    2.2520    2.9208 O   0  0  0  0  0  0  0  0  0  0  0  0
    4.5383    2.9118   -1.7671 O   0  0  0  0  0  0  0  0  0  0  0  0
    2.2066   -2.6795   -2.0155 O   0  0  0  0  0  0  0  0  0  0  0  0
    3.9024    3.9251    1.0055 O   0  0  0  0  0  0  0  0  0  0  0  0
   -1.7363    3.0239   -2.8178 O   0  0  0  0  0  0  0  0  0  0  0  0
   -1.0044    1.3929   -2.0910 O   0  0  0  0  0  0  0  0  0  0  0  0
 11  9  1  0
 12 10  1  0
 14 13  1  0
 15  9  1  0
 16 10  1  0
 21 17  2  0
 21 18  1  0
 22 19  2  0
 22 20  1  0
 23 17  1  0
 24 18  2  0
 25 19  1  0
 26 20  2  0
 27 23  2  0
 27 24  1  0
 28 25  2  0
 28 26  1  0
 29 21  1  0
 30 22  1  0
 31  1  1  0
 31 11  1  0
 31 13  1  0
 32  2  1  0
 32 12  1  0
 32 14  1  0
 33 29  2  0
 34 30  2  0
 35  3  1  0
 35 23  1  0
 36  4  1  0
 36 24  1  0
 37  5  1  0
 37 25  1  0
 38  6  1  0
 38 26  1  0
 39  7  1  0
 39 27  1  0
 40  8  1  0
 40 28  1  0
 41 15  1  0
 41 29  1  0
 42 16  1  0
 42 30  1  0
M  END
>  <DRUGBANK_ID>  (1) 
DB13265

>  <COMMON_NAME>  (1) 
Hexobendine

>  <CAS_NUMBER>  (1) 
54-03-5

>  <UNII>  (1) 
B6X4SYR93B

>  <SYNONYMS>  (1) 
Hexobendine

$$$$
