884
     RDKit          3D

 17 17  0  0  0  0  0  0  0  0999 V2000
    0.9259    0.0670    0.0042 P   0  0  0  0  0  0  0  0  0  0  0  0
    3.3659    1.5496   -0.8784 P   0  0  0  0  0  0  0  0  0  0  0  0
    3.3214    0.1890    1.3408 O   0  0  0  0  0  0  0  0  0  0  0  0
    1.0353    0.7968    1.4867 O   0  0  0  0  0  0  0  0  0  0  0  0
    0.7382    1.4299   -0.8888 O   0  0  0  0  0  0  0  0  0  0  0  0
    2.6453    0.9949   -2.2460 O   0  0  0  0  0  0  0  0  0  0  0  0
    2.3946    2.5591   -0.0361 O   0  0  0  0  0  0  0  0  0  0  0  0
   -0.6224    0.0670    0.0042 O   0  0  0  0  0  0  0  0  0  0  0  0
    3.8820    2.8039   -1.6251 O   0  0  0  0  0  0  0  0  0  0  0  0
    1.7491   -3.6408    1.9665 N   0  0  0  0  0  0  0  0  0  0  0  0
    2.7559    0.0670    0.0042 C   0  0  0  0  0  0  0  0  0  0  0  0
    3.2653   -1.2438   -0.6055 C   0  0  0  0  0  0  0  0  0  0  0  0
    2.8503   -2.5083    0.1152 C   0  0  0  0  0  0  0  0  0  0  0  0
    3.2296   -3.7406   -0.4057 C   0  0  0  0  0  0  0  0  0  0  0  0
    2.1241   -2.5229    1.3058 C   0  0  0  0  0  0  0  0  0  0  0  0
    2.8993   -4.9122    0.2829 C   0  0  0  0  0  0  0  0  0  0  0  0
    2.1652   -4.8008    1.4517 C   0  0  0  0  0  0  0  0  0  0  0  0
  1  4  1  0
  1  5  1  0
  1  8  2  0
  1 11  1  0
  2  6  1  0
  2  7  1  0
  2  9  2  0
  2 11  1  0
  3 11  1  0
 10 15  2  0
 10 17  1  0
 11 12  1  0
 12 13  1  0
 13 14  2  0
 13 15  1  0
 14 16  1  0
 16 17  2  0
M  END
>  <DRUGBANK_ID>  (1) 
DB00884

>  <SECONDARY_ACCESSION_NUMBERS>  (1) 
APRD00410; DB02782

>  <COMMON_NAME>  (1) 
Risedronic acid

>  <CAS_NUMBER>  (1) 
105462-24-6

>  <UNII>  (1) 
KM2Z91756Z

>  <SYNONYMS>  (1) 
Acide risédroniqe; Acido risedronico; Acidum risedronicum; Risedronate; Risedronic acid; Risedronsäure

$$$$
