
     RDKit          3D

  9  9  0  0  0  0  0  0  0  0999 V2000
    2.2534    0.0030    0.0102 O   0  0  0  0  0  0  0  0  0  0  0  0
    0.8903   -0.0231    0.0119 C   0  0  0  0  0  0  0  0  0  0  0  0
    0.1732   -1.2180    0.0102 C   0  0  0  0  0  0  0  0  0  0  0  0
   -1.2272   -1.1815   -0.0023 C   0  0  0  0  0  0  0  0  0  0  0  0
   -1.8899    0.0520   -0.0123 C   0  0  0  0  0  0  0  0  0  0  0  0
   -3.3666    0.1007   -0.0396 C   0  0  0  0  0  0  0  0  0  0  0  0
   -3.9826    1.1613   -0.0525 O   0  0  0  0  0  0  0  0  0  0  0  0
   -1.1602    1.2435    0.0001 C   0  0  0  0  0  0  0  0  0  0  0  0
    0.2334    1.2027    0.0133 C   0  0  0  0  0  0  0  0  0  0  0  0
  1  2  1  0
  2  3  2  0
  2  9  1  0
  3  4  1  0
  4  5  2  0
  5  6  1  0
  5  8  1  0
  6  7  2  0
  8  9  2  0
M  END
>  <DRUGBANK_ID>  (1) 
DB03560

>  <SECONDARY_ACCESSION_NUMBERS>  (1) 
EXPT01694

>  <COMMON_NAME>  (1) 
P-Hydroxybenzaldehyde

>  <CAS_NUMBER>  (1) 
123-08-0

>  <UNII>  (1) 
O1738X3Y38

$$$$
