
     RDKit          3D

 17 16  0  0  1  0  0  0  0  0999 V2000
    2.4810    1.5008    4.7527 P   0  0  0  0  0  0  0  0  0  0  0  0
    1.1549    1.7910    5.6055 O   0  0  0  0  0  0  0  0  0  0  0  0
    3.7121    1.4192    5.7486 O   0  0  0  0  0  0  0  0  0  0  0  0
    2.7073    2.9195    4.0383 O   0  0  0  0  0  0  0  0  0  0  0  0
   -2.5841    2.9550    3.9468 O   0  0  0  0  0  0  0  0  0  0  0  0
   -0.3618    4.2703    1.2008 O   0  0  0  0  0  0  0  0  0  0  0  0
    0.7381    2.4936    2.7135 O   0  0  0  0  0  0  0  0  0  0  0  0
   -1.4086    6.5726    1.9724 O   0  0  0  0  0  0  0  0  0  0  0  0
   -2.5892    5.6424    5.0529 O   0  0  0  0  0  0  0  0  0  0  0  0
    2.3864    0.3297    3.8426 O   0  0  0  0  0  0  0  0  0  0  0  0
   -3.9443    5.5459    3.2448 O   0  0  0  0  0  0  0  0  0  0  0  0
   -1.4969    2.8877    3.0384 C   0  0  1  0  0  0  0  0  0  0  0  0
   -1.5061    4.1439    2.0818 C   0  0  1  0  0  0  0  0  0  0  0  0
   -0.1629    2.7855    3.7794 C   0  0  1  0  0  0  0  0  0  0  0  0
   -1.5322    5.4676    2.8756 C   0  0  2  0  0  0  0  0  0  0  0  0
   -0.0767    1.6977    4.8688 C   0  0  0  0  0  0  0  0  0  0  0  0
   -2.8028    5.5621    3.7154 C   0  0  0  0  0  0  0  0  0  0  0  0
  1  2  1  0
  1  3  1  0
  1  4  1  0
  1 10  2  0
  2 16  1  0
  9 17  1  0
 11 17  2  0
 12  5  1  1
 12 14  1  0
 13 15  1  0
 13 12  1  0
 13  6  1  1
 14  7  1  6
 14 16  1  0
 15  8  1  6
 15 17  1  0
M  END
>  <DRUGBANK_ID>  (1) 
DB02076

>  <SECONDARY_ACCESSION_NUMBERS>  (1) 
EXPT00290

>  <COMMON_NAME>  (1) 
6-phospho-D-gluconic acid

>  <CAS_NUMBER>  (1) 
921-62-0

>  <UNII>  (1) 
W31WK7B8U0

$$$$
