432
     RDKit          3D

 20 21  0  0  1  0  0  0  0  0999 V2000
    1.0813   -0.1131   -0.0135 F   0  0  0  0  0  0  0  0  0  0  0  0
    2.8367    0.0805    1.2502 F   0  0  0  0  0  0  0  0  0  0  0  0
    2.9027   -1.2108   -0.4924 F   0  0  0  0  0  0  0  0  0  0  0  0
    1.3501    5.3143   -1.3915 O   0  0  0  0  0  0  0  0  0  0  0  0
    2.5812    7.7846    0.1178 O   0  0  0  0  0  0  0  0  0  0  0  0
    0.7495    5.8147   -3.9450 O   0  0  0  0  0  0  0  0  0  0  0  0
    3.2002    4.2432   -3.3943 O   0  0  0  0  0  0  0  0  0  0  0  0
    3.3301   -0.1365   -2.7520 O   0  0  0  0  0  0  0  0  0  0  0  0
    2.8914    3.5239   -1.2083 N   0  0  0  0  0  0  0  0  0  0  0  0
    3.5913    2.0947   -2.9089 N   0  0  0  0  0  0  0  0  0  0  0  0
    2.5362    4.8592   -0.7272 C   0  0  1  0  0  0  0  0  0  0  0  0
    2.8278    7.1759   -1.1500 C   0  0  1  0  0  0  0  0  0  0  0  0
    3.6182    5.9070   -0.9323 C   0  0  0  0  0  0  0  0  0  0  0  0
    1.5344    6.6932   -1.8071 C   0  0  1  0  0  0  0  0  0  0  0  0
    1.5952    6.7867   -3.3404 C   0  0  0  0  0  0  0  0  0  0  0  0
    2.7692    2.4292   -0.3676 C   0  0  0  0  0  0  0  0  0  0  0  0
    3.2238    3.3581   -2.5462 C   0  0  0  0  0  0  0  0  0  0  0  0
    2.8471    1.1694   -0.8281 C   0  0  0  0  0  0  0  0  0  0  0  0
    3.2669    0.9665   -2.2184 C   0  0  0  0  0  0  0  0  0  0  0  0
    2.4386   -0.0213   -0.0476 C   0  0  0  0  0  0  0  0  0  0  0  0
  1 20  1  0
  2 20  1  0
  3 20  1  0
  4 11  1  0
  4 14  1  0
  6 15  1  0
  7 17  2  0
  8 19  2  0
  9 16  1  0
  9 17  1  0
 10 17  1  0
 10 19  1  0
 11  9  1  6
 11 13  1  0
 12  5  1  1
 12 13  1  0
 12 14  1  0
 14 15  1  6
 16 18  2  0
 18 19  1  0
 18 20  1  0
M  END
>  <DRUGBANK_ID>  (1) 
DB00432

>  <SECONDARY_ACCESSION_NUMBERS>  (1) 
APRD01275

>  <COMMON_NAME>  (1) 
Trifluridine

>  <CAS_NUMBER>  (1) 
70-00-8

>  <UNII>  (1) 
RMW9V5RW38

>  <SYNONYMS>  (1) 
5-(Trifluoromethyl)deoxyuridine; 5-Trifluoromethyl-2-deoxyuridine; F‚ÇÉT; TFT; Trifluoromethyldeoxyuridine; Trifluorothymidine; Trifluorothymine deoxyriboside; Trifluridin; Trifluridina; Trifluridine; Trifluridinum

$$$$
