
     RDKit          3D

 22 24  0  0  0  0  0  0  0  0999 V2000
   -4.6066   -2.0126    4.9237 C   0  0  0  0  0  0  0  0  0  0  0  0
   -5.0831   -3.0958    5.6472 C   0  0  0  0  0  0  0  0  0  0  0  0
   -4.8188   -4.4187    5.2600 C   0  0  0  0  0  0  0  0  0  0  0  0
   -3.8407   -2.2199    3.7837 C   0  0  0  0  0  0  0  0  0  0  0  0
   -3.5725   -3.5520    3.4063 C   0  0  0  0  0  0  0  0  0  0  0  0
   -4.0483   -4.6524    4.1011 C   0  0  0  0  0  0  0  0  0  0  0  0
   -2.8156   -4.0418    2.3663 N   0  0  0  0  0  0  0  0  0  0  0  0
   -2.9579   -5.4166    2.2520 C   0  0  0  0  0  0  0  0  0  0  0  0
   -3.6118   -5.8361    3.4159 C   0  0  0  0  0  0  0  0  0  0  0  0
   -3.7458   -7.2250    3.6425 C   0  0  0  0  0  0  0  0  0  0  0  0
   -3.1719   -8.1417    2.7535 C   0  0  0  0  0  0  0  0  0  0  0  0
   -2.5528   -7.7126    1.5925 C   0  0  0  0  0  0  0  0  0  0  0  0
   -2.5390   -6.3547    1.2864 C   0  0  0  0  0  0  0  0  0  0  0  0
   -6.1227   -2.7762    7.1933 Br  0  0  0  0  0  0  0  0  0  0  0  0
   -3.2953   -9.9997    3.0833 Br  0  0  0  0  0  0  0  0  0  0  0  0
   -2.0651   -3.1581    1.5045 C   0  0  0  0  0  0  0  0  0  0  0  0
   -0.5818   -3.5090    1.2640 C   0  0  2  0  0  0  0  0  0  0  0  0
   -0.0336   -2.9821   -0.0749 C   0  0  0  0  0  0  0  0  0  0  0  0
   -1.0566   -2.5253   -1.0243 N   0  0  0  0  0  0  0  0  0  0  0  0
   -0.4069   -1.9027   -2.1733 C   0  0  0  0  0  0  0  0  0  0  0  0
   -1.9576   -3.5750   -1.5239 C   0  0  0  0  0  0  0  0  0  0  0  0
   -0.2423   -4.8911    1.2975 O   0  0  0  0  0  0  0  0  0  0  0  0
  1  2  2  0
  2  3  1  0
  2 14  1  0
  3  6  2  0
  4  1  1  0
  5  6  1  0
  5  4  2  0
  6  9  1  0
  7  5  1  0
  7 16  1  0
  8  7  1  0
  8  9  2  0
  9 10  1  0
 10 11  2  0
 11 12  1  0
 11 15  1  0
 12 13  2  0
 13  8  1  0
 17 22  1  6
 17 18  1  0
 17 16  1  0
 18 19  1  0
 19 20  1  0
 19 21  1  0
M  END
>  <DRUGBANK_ID>  (1) 
DB01731

>  <SECONDARY_ACCESSION_NUMBERS>  (1) 
EXPT03245

>  <COMMON_NAME>  (1) 
(S)-wiskostatin

$$$$
