
     RDKit          3D

 24 26  0  0  0  0  0  0  0  0999 V2000
    0.1041    1.9009    0.0169 S   0  0  0  0  0  0  0  0  0  0  0  0
    0.5019   -2.3804    0.3832 O   0  0  0  0  0  0  0  0  0  0  0  0
   -2.4064   -5.5305    1.4056 N   0  0  0  0  0  0  0  0  0  0  0  0
   -2.4663   -2.7818   -0.1610 N   0  0  0  0  0  0  0  0  0  0  0  0
   -1.2909   -4.6038    1.1495 C   0  0  0  0  0  0  0  0  0  0  0  0
   -1.4873   -3.8713   -0.1917 C   0  0  0  0  0  0  0  0  0  0  0  0
   -2.3268   -1.4096   -0.0775 C   0  0  0  0  0  0  0  0  0  0  0  0
   -1.1470   -0.6387   -0.0033 C   0  0  0  0  0  0  0  0  0  0  0  0
   -2.1801   -6.3903    2.5633 C   0  0  0  0  0  0  0  0  0  0  0  0
   -3.7076   -4.8557    1.4193 C   0  0  0  0  0  0  0  0  0  0  0  0
   -1.2662    0.7751    0.0040 C   0  0  0  0  0  0  0  0  0  0  0  0
   -2.5188    1.4367   -0.0004 C   0  0  0  0  0  0  0  0  0  0  0  0
    0.2343   -1.2425    0.0851 C   0  0  0  0  0  0  0  0  0  0  0  0
   -3.5713   -0.7094   -0.0225 C   0  0  0  0  0  0  0  0  0  0  0  0
    1.4703   -0.4957   -0.0276 C   0  0  0  0  0  0  0  0  0  0  0  0
   -3.6744    0.6796    0.0061 C   0  0  0  0  0  0  0  0  0  0  0  0
    1.4878    0.8725   -0.0183 C   0  0  0  0  0  0  0  0  0  0  0  0
   -2.0933   -5.6784    3.9051 C   0  0  0  0  0  0  0  0  0  0  0  0
   -3.8496   -3.6691    2.3822 C   0  0  0  0  0  0  0  0  0  0  0  0
   -2.5997    2.9466   -0.0071 C   0  0  0  0  0  0  0  0  0  0  0  0
    2.6676   -1.2402   -0.0284 C   0  0  0  0  0  0  0  0  0  0  0  0
    2.7067    1.5190   -0.0098 C   0  0  0  0  0  0  0  0  0  0  0  0
    3.8807   -0.5906   -0.0125 C   0  0  0  0  0  0  0  0  0  0  0  0
    3.8918    0.7950   -0.0056 C   0  0  0  0  0  0  0  0  0  0  0  0
  1 11  1  0
  1 17  1  0
  2 13  2  0
  3  5  1  0
  3  9  1  0
  3 10  1  0
  4  6  1  0
  4  7  1  0
  5  6  1  0
  7  8  1  0
  7 14  2  0
  8 11  2  0
  8 13  1  0
  9 18  1  0
 10 19  1  0
 11 12  1  0
 12 16  2  0
 12 20  1  0
 13 15  1  0
 14 16  1  0
 15 17  2  0
 15 21  1  0
 17 22  1  0
 21 23  2  0
 22 24  2  0
 23 24  1  0
M  END
>  <DRUGBANK_ID>  (1) 
DB04967

>  <COMMON_NAME>  (1) 
Lucanthone

>  <CAS_NUMBER>  (1) 
479-50-5

>  <UNII>  (1) 
FC6D57000M

>  <SYNONYMS>  (1) 
1-((2-(Diethylamino)ethyl)amino)-4-methylthioxanthen-9-one; 1-{[2-(diethylamino)ethyl]amino}-4-methylthioxanthen-9-one; 1-diethylaminoethylethylamino-4-methyl-thioxanthenone; Lucanthone; Lucanthonum; Lucantona

$$$$
