
     RDKit          3D

 18 19  0  0  1  0  0  0  0  0999 V2000
    0.9287   -0.0114    0.0521 C   0  0  0  0  0  0  0  0  0  0  0  0
    0.4174    1.4167   -0.0904 C   0  0  0  0  0  0  0  0  0  0  0  0
    0.8987    2.1071   -1.3654 C   0  0  0  0  0  0  0  0  0  0  0  0
    0.3207    1.4959   -2.6200 C   0  0  0  0  0  0  0  0  0  0  0  0
   -0.3268    2.1136   -3.4588 O   0  0  0  0  0  0  0  0  0  0  0  0
    0.6523    0.1851   -2.7212 O   0  0  0  0  0  0  0  0  0  0  0  0
    0.2205   -0.5286   -3.9030 C   0  0  1  0  0  0  0  0  0  0  0  0
    1.1517   -0.1202   -5.0486 C   0  0  0  0  0  0  0  0  0  0  0  0
    1.8707   -1.1623   -5.7115 N   0  0  0  0  0  0  0  0  0  0  0  0
    2.5626   -0.8829   -6.9432 C   0  0  0  0  0  0  0  0  0  0  0  0
    2.9761   -2.2578   -7.4518 C   0  0  0  0  0  0  0  0  0  0  0  0
    2.0197   -3.2336   -6.7673 C   0  0  1  0  0  0  0  0  0  0  0  0
    1.7478   -2.5676   -5.4104 C   0  0  2  0  0  0  0  0  0  0  0  0
    0.4239   -2.9450   -4.7491 C   0  0  2  0  0  0  0  0  0  0  0  0
    0.1858   -2.0289   -3.5381 C   0  0  2  0  0  0  0  0  0  0  0  0
   -1.1024   -2.3398   -2.9668 O   0  0  0  0  0  0  0  0  0  0  0  0
    0.4638   -4.3251   -4.3595 O   0  0  0  0  0  0  0  0  0  0  0  0
    0.8508   -3.3728   -7.5729 O   0  0  0  0  0  0  0  0  0  0  0  0
  1  2  1  0
  2  3  1  0
  3  4  1  0
  4  5  2  0
  4  6  1  0
  7  6  1  1
  7  8  1  0
  7 15  1  0
  8  9  1  0
  9 10  1  0
 10 11  1  0
 11 12  1  0
 12 13  1  0
 12 18  1  6
 13  9  1  6
 13 14  1  0
 14 15  1  0
 14 17  1  1
 15 16  1  6
M  END
>  <DRUGBANK_ID>  (1) 
DB06580

>  <COMMON_NAME>  (1) 
Celgosivir

>  <CAS_NUMBER>  (1) 
121104-96-9

>  <UNII>  (1) 
895VG117HN

>  <SYNONYMS>  (1) 
6-O-Butanoylcastanospermine; Celgosivir

$$$$
