444704
     RDKit          3D

 23 26  0  0  1  0  0  0  0  0999 V2000
   -1.3480   -2.2574    0.9164 S   0  0  0  0  0  0  0  0  0  0  0  0
   -1.1028    0.8984   -2.5856 O   0  0  0  0  0  0  0  0  0  0  0  0
   -2.2307    1.3598    3.1995 O   0  0  0  0  0  0  0  0  0  0  0  0
   -1.5486    2.6552    1.4929 O   0  0  0  0  0  0  0  0  0  0  0  0
   -1.6138   -0.3213   -0.6723 N   0  0  0  0  0  0  0  0  0  0  0  0
   -0.6019   -1.5310   -0.5756 C   0  0  1  0  0  0  0  0  0  0  0  0
   -2.0892    0.2340    0.8588 C   0  0  1  0  0  0  0  0  0  0  0  0
    0.6903   -0.6905   -0.4291 C   0  0  0  0  0  0  0  0  0  0  0  0
   -1.2290   -0.6958    1.6662 C   0  0  0  0  0  0  0  0  0  0  0  0
   -0.8998    0.6189   -1.4379 C   0  0  0  0  0  0  0  0  0  0  0  0
    0.4388    0.6268   -0.8192 C   0  0  0  0  0  0  0  0  0  0  0  0
   -0.2500   -2.8698   -1.3487 C   0  0  0  0  0  0  0  0  0  0  0  0
    1.9065   -0.9785    0.1772 C   0  0  0  0  0  0  0  0  0  0  0  0
   -1.9269    1.5417    1.8471 C   0  0  0  0  0  0  0  0  0  0  0  0
    1.2410    1.6725   -0.3922 C   0  0  0  0  0  0  0  0  0  0  0  0
   -0.9976   -3.5848   -2.2767 C   0  0  0  0  0  0  0  0  0  0  0  0
    0.8635   -3.6552   -0.8417 C   0  0  0  0  0  0  0  0  0  0  0  0
    2.8081    0.0283    0.4606 C   0  0  0  0  0  0  0  0  0  0  0  0
    2.4473    1.3532    0.2469 C   0  0  0  0  0  0  0  0  0  0  0  0
   -0.6919   -4.9629   -2.5594 C   0  0  0  0  0  0  0  0  0  0  0  0
    1.2774   -4.9284   -1.2443 C   0  0  0  0  0  0  0  0  0  0  0  0
    0.4337   -5.6293   -2.0543 C   0  0  0  0  0  0  0  0  0  0  0  0
   -2.8574    0.2113    3.8410 C   0  0  0  0  0  0  0  0  0  0  0  0
  1  6  1  0
  1  9  1  0
  2 10  2  0
  3 14  1  0
  3 23  1  0
  4 14  2  0
  5  6  1  0
  5  7  1  0
  5 10  1  0
  6  8  1  0
  6 12  1  6
  7  9  1  0
  7 14  1  6
  8 11  2  0
  8 13  1  0
 10 11  1  0
 11 15  1  0
 12 16  2  0
 12 17  1  0
 13 18  2  0
 15 19  2  0
 16 20  1  0
 17 21  2  0
 18 19  1  0
 20 22  2  0
 21 22  1  0
M  END
>  <DRUGBANK_ID>  (1) 
DB07473

>  <COMMON_NAME>  (1) 
(R)-(+) 5(9BH)-OXO-9B-PHENYL-2,3-DIHYDROTHIAZOLO[2,3-A]ISOINDOL-3-CARBOXYLIC ACID METHYL ESTER

$$$$
