
     RDKit          3D

 13 13  0  0  0  0  0  0  0  0999 V2000
    1.3440   -0.2250    0.0360 C   0  0  0  0  0  0  0  0  0  0  0  0
   -0.5090    1.2150    0.0750 C   0  0  0  0  0  0  0  0  0  0  0  0
    0.5020   -1.2510   -0.0040 C   0  0  0  0  0  0  0  0  0  0  0  0
   -1.3730    0.2230   -0.0410 C   0  0  0  0  0  0  0  0  0  0  0  0
    0.8920    1.0800   -0.0700 C   0  0  0  0  0  0  0  0  0  0  0  0
   -0.8560   -1.0420    0.0030 C   0  0  0  0  0  0  0  0  0  0  0  0
    2.0788    2.5938   -0.3900 As  0  0  0  0  0  5  0  0  0  0  0  0
   -1.7661   -2.1950    0.0586 N   0  0  0  0  0  0  0  0  0  0  0  0
    1.5977    3.4319   -1.9676 O   0  0  0  0  0  0  0  0  0  0  0  0
    1.9408    3.7927    1.0121 O   0  0  0  0  0  0  0  0  0  0  0  0
    3.6406    2.0561   -0.5048 O   0  0  0  0  0  0  0  0  0  0  0  0
   -2.9795   -2.0186    0.0653 O   0  0  0  0  0  0  0  0  0  0  0  0
   -1.3119   -3.3333    0.0983 O   0  0  0  0  0  0  0  0  0  0  0  0
  3  1  2  0
  4  2  1  0
  5  1  1  0
  5  2  2  0
  6  3  1  0
  6  4  2  0
  7  5  1  0
  8  6  1  0
  9  7  1  0
 10  7  1  0
 11  7  2  0
 12  8  1  0
 13  8  2  0
M  CHG  2   8   1  12  -1
M  END
>  <DRUGBANK_ID>  (1) 
DB11437

>  <COMMON_NAME>  (1) 
Nitarsone

>  <CAS_NUMBER>  (1) 
98-72-6

>  <UNII>  (1) 
JP2EN8WORU

>  <SYNONYMS>  (1) 
(p-nitrophenyl)arsonic acid; 4-nitrobenzenearsonic acid; 4-nitrophenylarsonic acid; Nitarson; Nitarsone; Nitarsonum; p-nitrobenzenearsonic acid; p-nitrophenylarsonic acid

$$$$
