
     RDKit          3D

 12 12  0  0  1  0  0  0  0  0999 V2000
    1.0743    0.0386    0.0529 O   0  0  0  0  0  0  0  0  0  0  0  0
    0.5997   -1.2663    0.3676 C   0  0  0  0  0  0  0  0  0  0  0  0
    1.1116   -2.3074   -0.6294 C   0  0  2  0  0  0  0  0  0  0  0  0
    0.4644   -3.5805   -0.4585 O   0  0  0  0  0  0  0  0  0  0  0  0
    1.4267   -4.6190   -0.7497 C   0  0  1  0  0  0  0  0  0  0  0  0
    1.5678   -5.4259    0.4136 O   0  0  0  0  0  0  0  0  0  0  0  0
    0.8861   -5.4925   -1.8977 C   0  0  0  0  0  0  0  0  0  0  0  0
    0.6036   -4.7091   -3.0610 O   0  0  0  0  0  0  0  0  0  0  0  0
    2.7490   -3.9225   -1.1453 C   0  0  2  0  0  0  0  0  0  0  0  0
    3.9299   -4.6083   -0.7369 O   0  0  0  0  0  0  0  0  0  0  0  0
    2.6032   -2.5695   -0.4674 C   0  0  1  0  0  0  0  0  0  0  0  0
    3.3962   -1.5356   -1.0355 O   0  0  0  0  0  0  0  0  0  0  0  0
  1  2  1  0
  3  2  1  1
  3  4  1  0
  3 11  1  0
  4  5  1  0
  5  6  1  1
  5  7  1  0
  5  9  1  0
  7  8  1  0
  9 10  1  1
  9 11  1  0
 11 12  1  6
M  END
>  <DRUGBANK_ID>  (1) 
DB04173

>  <SECONDARY_ACCESSION_NUMBERS>  (1) 
EXPT01495

>  <COMMON_NAME>  (1) 
Fructose

>  <UNII>  (1) 
WR469VI1J3

$$$$
