234
     RDKit          3D

 23 25  0  0  1  0  0  0  0  0999 V2000
    1.2783   -0.6339    0.4899 O   0  0  0  0  0  0  0  0  0  0  0  0
    1.4226    2.7221    1.8929 O   0  0  0  0  0  0  0  0  0  0  0  0
   -1.4904    3.5219    0.3565 O   0  0  0  0  0  0  0  0  0  0  0  0
   -1.5746   -0.6852   -0.2120 N   0  0  0  0  0  0  0  0  0  0  0  0
    0.6627    0.6266    0.1390 C   0  0  2  0  0  0  0  0  0  0  0  0
    1.7047    1.9316    0.6637 C   0  0  2  0  0  0  0  0  0  0  0  0
   -0.9535    0.4617    0.4783 C   0  0  0  0  0  0  0  0  0  0  0  0
   -0.7973   -1.8287    0.2283 C   0  0  0  0  0  0  0  0  0  0  0  0
    0.6499   -1.6944   -0.2376 C   0  0  0  0  0  0  0  0  0  0  0  0
    3.0955    1.3793    0.3200 C   0  0  0  0  0  0  0  0  0  0  0  0
    3.3470    0.9617   -1.0272 C   0  0  0  0  0  0  0  0  0  0  0  0
    3.9865    1.1453    1.3217 C   0  0  0  0  0  0  0  0  0  0  0  0
    0.4060    3.6988    2.0734 C   0  0  0  0  0  0  0  0  0  0  0  0
    4.4504    0.1461   -1.3000 C   0  0  0  0  0  0  0  0  0  0  0  0
    5.1505    0.4268    1.0147 C   0  0  0  0  0  0  0  0  0  0  0  0
   -0.9592    3.7069    1.6403 C   0  0  0  0  0  0  0  0  0  0  0  0
    5.3323   -0.1015   -0.2723 C   0  0  0  0  0  0  0  0  0  0  0  0
    0.6924    4.7476    2.9723 C   0  0  0  0  0  0  0  0  0  0  0  0
   -1.9944    4.3645    2.3112 C   0  0  0  0  0  0  0  0  0  0  0  0
   -0.3404    5.5825    3.4939 C   0  0  0  0  0  0  0  0  0  0  0  0
   -1.6843    5.3569    3.2013 C   0  0  0  0  0  0  0  0  0  0  0  0
   -0.5849    2.9406   -0.4958 C   0  0  0  0  0  0  0  0  0  0  0  0
    0.3844    3.7223   -1.2886 C   0  0  0  0  0  0  0  0  0  0  0  0
  1  5  1  0
  1  9  1  0
  2 13  1  0
  3 16  1  0
  3 22  1  0
  4  7  1  0
  4  8  1  0
  5  7  1  1
  5  6  1  0
  6  2  1  1
  6 10  1  0
  8  9  1  0
 10 11  2  0
 10 12  1  0
 11 14  1  0
 12 15  2  0
 13 16  2  0
 13 18  1  0
 14 17  2  0
 15 17  1  0
 16 19  1  0
 18 20  2  0
 19 21  2  0
 20 21  1  0
 22 23  1  0
M  END
>  <DRUGBANK_ID>  (1) 
DB12395

>  <COMMON_NAME>  (1) 
Esreboxetine

>  <CAS_NUMBER>  (1) 
98819-76-2

>  <UNII>  (1) 
L8S50ZY490

>  <SYNONYMS>  (1) 
Esreboxetine

$$$$
