LJ5
     RDKit          3D

 18 19  0  0  0  0  0  0  0  0999 V2000
   -1.2121   -1.9442    0.0100 C   0  0  0  0  0  0  0  0  0  0  0  0
   -1.2763   -0.5330    0.0297 C   0  0  0  0  0  0  0  0  0  0  0  0
   -2.9668    0.3257    0.0401 Br  0  0  0  0  0  0  0  0  0  0  0  0
   -0.1136    0.2459    0.0160 C   0  0  0  0  0  0  0  0  0  0  0  0
   -0.1271    1.6087    0.1119 O   0  0  0  0  0  0  0  0  0  0  0  0
    1.0999   -0.3825   -0.1606 C   0  0  0  0  0  0  0  0  0  0  0  0
    2.7451    0.5607   -0.1624 Br  0  0  0  0  0  0  0  0  0  0  0  0
    1.1283   -1.7591   -0.3447 C   0  0  0  0  0  0  0  0  0  0  0  0
    0.0293   -2.5775   -0.1015 C   0  0  0  0  0  0  0  0  0  0  0  0
    0.1523   -3.9877    0.0347 N   0  0  0  0  0  0  0  0  0  0  0  0
    1.2810   -4.8021    0.1449 C   0  0  0  0  0  0  0  0  0  0  0  0
    1.1535   -6.0329    0.1329 O   0  0  0  0  0  0  0  0  0  0  0  0
    2.6546   -4.2535    0.3051 C   0  0  0  0  0  0  0  0  0  0  0  0
    2.9137   -3.2621    1.2637 C   0  0  0  0  0  0  0  0  0  0  0  0
    4.1064   -2.5370    1.2107 C   0  0  0  0  0  0  0  0  0  0  0  0
    5.1125   -2.9155    0.3264 C   0  0  0  0  0  0  0  0  0  0  0  0
    4.9220   -4.0128   -0.5148 C   0  0  0  0  0  0  0  0  0  0  0  0
    3.6744   -4.6461   -0.5727 C   0  0  0  0  0  0  0  0  0  0  0  0
  1  2  2  0
  1  9  1  0
  2  3  1  0
  2  4  1  0
  4  5  1  0
  4  6  2  0
  6  7  1  0
  6  8  1  0
  8  9  2  0
  9 10  1  0
 10 11  1  0
 11 12  2  0
 11 13  1  0
 13 14  2  0
 13 18  1  0
 14 15  1  0
 15 16  2  0
 16 17  1  0
 17 18  2  0
M  END
>  <DRUGBANK_ID>  (1) 
DB08104

>  <COMMON_NAME>  (1) 
N-(3,5-dibromo-4-hydroxyphenyl)benzamide

$$$$
