Tyramine.mol
     RDKit          3D

 17 18  0  0  0  0  0  0  0  0999 V2000
    1.0607   -0.0445    0.1423 O   0  0  0  0  0  0  0  0  0  0  0  0
    0.5613   -1.3351   -0.2181 C   0  0  0  0  0  0  0  0  0  0  0  0
    1.0192   -1.7119   -1.6368 C   0  0  2  0  0  0  0  0  0  0  0  0
   -0.0570   -2.4301   -2.4382 C   0  0  1  0  0  0  0  0  0  0  0  0
    0.0696   -2.1112   -3.8348 O   0  0  0  0  0  0  0  0  0  0  0  0
    0.2305   -3.9031   -2.2051 C   0  0  1  0  0  0  0  0  0  0  0  0
   -0.2713   -4.6865   -3.2832 O   0  0  0  0  0  0  0  0  0  0  0  0
    1.7629   -3.9339   -2.0337 C   0  0  1  0  0  0  0  0  0  0  0  0
    2.1516   -2.6129   -1.5714 O   0  0  0  0  0  0  0  0  0  0  0  0
    2.2526   -4.9706   -1.1091 N   0  0  0  0  0  0  0  0  0  0  0  0
    2.0194   -6.3108   -1.4251 C   0  0  0  0  0  0  0  0  0  0  0  0
    1.4173   -6.7031   -2.4177 O   0  0  0  0  0  0  0  0  0  0  0  0
    2.5212   -7.2271   -0.5329 N   0  0  0  0  0  0  0  0  0  0  0  0
    3.0076   -6.9414    0.7053 C   0  0  0  0  0  0  0  0  0  0  0  0
    3.2280   -7.7955    1.5605 O   0  0  0  0  0  0  0  0  0  0  0  0
    3.2810   -5.5246    0.9641 C   0  0  0  0  0  0  0  0  0  0  0  0
    2.9472   -4.6265    0.0356 C   0  0  0  0  0  0  0  0  0  0  0  0
  1  2  1  0
  3  2  1  1
  3  4  1  0
  3  9  1  0
  4  5  1  6
  4  6  1  0
  6  7  1  6
  6  8  1  0
  8  9  1  0
  8 10  1  1
 10 11  1  0
 10 17  1  0
 11 12  2  0
 11 13  1  0
 13 14  1  0
 14 15  2  0
 14 16  1  0
 16 17  2  0
M  END
>  <DRUGBANK_ID>  (1) 
DB02745

>  <SECONDARY_ACCESSION_NUMBERS>  (1) 
EXPT03205

>  <COMMON_NAME>  (1) 
Uridine

>  <CAS_NUMBER>  (1) 
58-96-8

>  <UNII>  (1) 
WHI7HQ7H85

>  <SYNONYMS>  (1) 
Uridina

$$$$
