
     RDKit          3D

 10  9  0  0  0  0  0  0  0  0999 V2000
    1.2572    0.0092    0.3243 O   0  0  0  0  0  0  0  0  0  0  0  0
    2.5149   -0.0908    0.2142 C   0  0  0  0  0  0  0  0  0  0  0  0
    3.2763   -0.9410    0.7586 O   0  0  0  0  0  0  0  0  0  0  0  0
    3.2274    0.9529   -0.6518 C   0  0  0  0  0  0  0  0  0  0  0  0
    2.8497    0.8856   -2.1316 C   0  0  0  0  0  0  0  0  0  0  0  0
    1.3972    1.2757   -2.4267 C   0  0  0  0  0  0  0  0  0  0  0  0
    1.0085    2.6669   -1.9260 C   0  0  0  0  0  0  0  0  0  0  0  0
    1.7074    3.8064   -2.6741 C   0  0  0  0  0  0  0  0  0  0  0  0
    0.9268    4.5753   -3.3185 O   0  0  0  0  0  0  0  0  0  0  0  0
    2.9592    3.8914   -2.5637 O   0  0  0  0  0  0  0  0  0  0  0  0
  1  2  1  0
  2  3  2  0
  2  4  1  0
  4  5  1  0
  5  6  1  0
  6  7  1  0
  7  8  1  0
  8  9  1  0
  8 10  2  0
M  CHG  2   1  -1   9  -1
M  END
>  <DRUGBANK_ID>  (1) 
DB16084

>  <COMMON_NAME>  (1) 
Iron (III) oxide adipate

>  <CAS_NUMBER>  (1) 
764-65-8

>  <UNII>  (1) 
U3YC62H084

>  <SYNONYMS>  (1) 
Adipate; Adipate dianion; Adipate ion; Adipate(2-); Adipic acid ion (2-); Hexanedioate dianion; Hexanedioic acid, ion(2-)

$$$$
