
     RDKit          3D

 21 24  0  0  0  0  0  0  0  0999 V2000
    0.1761   -0.8482    0.0600 C   0  0  0  0  0  0  0  0  0  0  0  0
    1.4881   -1.2918    0.1738 N   0  0  0  0  0  0  0  0  0  0  0  0
    0.2858    0.5169   -0.2173 C   0  0  0  0  0  0  0  0  0  0  0  0
   -0.8755    1.3256   -0.1575 C   0  0  0  0  0  0  0  0  0  0  0  0
   -0.9713   -1.5252    0.1531 N   0  0  0  0  0  0  0  0  0  0  0  0
    1.5798    0.8130   -0.5279 N   0  0  0  0  0  0  0  0  0  0  0  0
   -2.0579    0.6447   -0.0278 N   0  0  0  0  0  0  0  0  0  0  0  0
    2.2823   -0.1977   -0.0866 C   0  0  0  0  0  0  0  0  0  0  0  0
   -2.0544   -0.7137    0.0559 C   0  0  0  0  0  0  0  0  0  0  0  0
    2.1068   -2.5975   -0.0384 C   0  0  1  0  0  0  0  0  0  0  0  0
   -0.9180    2.7508   -0.2365 N   0  0  0  0  0  0  0  0  0  0  0  0
    2.3425   -3.6393    1.0034 C   0  0  0  0  0  0  0  0  0  0  0  0
    0.1822    3.7215    0.0258 C   0  0  0  0  0  0  0  0  0  0  0  0
    2.1527   -4.8599    0.4794 C   0  0  0  0  0  0  0  0  0  0  0  0
    1.3647    3.8571   -0.9042 C   0  0  0  0  0  0  0  0  0  0  0  0
    1.5534    3.3453    0.4996 C   0  0  0  0  0  0  0  0  0  0  0  0
    1.5601   -3.3367   -1.2537 C   0  0  0  0  0  0  0  0  0  0  0  0
   -3.2572   -1.3522    0.0268 N   0  0  0  0  0  0  0  0  0  0  0  0
    1.4796   -4.8170   -0.8613 C   0  0  2  0  0  0  0  0  0  0  0  0
   -0.6382   -5.2725   -1.9835 O   0  0  0  0  0  0  0  0  0  0  0  0
    0.0451   -5.3400   -0.7389 C   0  0  0  0  0  0  0  0  0  0  0  0
  2  1  1  0
  3  1  1  0
  4  3  2  0
  5  1  2  0
  6  3  1  0
  7  9  2  0
  7  4  1  0
  8  2  1  0
  8  6  2  0
  9  5  1  0
 10  2  1  1
 11  4  1  0
 12 10  1  0
 13 11  1  0
 14 12  2  0
 15 13  1  0
 16 13  1  0
 16 15  1  0
 17 10  1  0
 18  9  1  0
 19 17  1  0
 19 21  1  1
 19 14  1  0
 20 21  1  0
M  END
>  <DRUGBANK_ID>  (1) 
DB01048

>  <SECONDARY_ACCESSION_NUMBERS>  (1) 
APRD00216

>  <COMMON_NAME>  (1) 
Abacavir

>  <CAS_NUMBER>  (1) 
136470-78-5

>  <UNII>  (1) 
WR2TIP26VS

>  <SYNONYMS>  (1) 
{(1S-cis)-4-[2-amino-6-(cyclopropylamino)-9H-purin-9-yl]cyclopent-2-en-1-yl}methanol; Abacavir; ABC

$$$$
