103
     RDKit          3D

 21 23  0  0  0  0  0  0  0  0999 V2000
    1.0659   -0.0351    0.0665 P   0  0  0  0  0  0  0  0  0  0  0  0
    0.9689    0.0619    1.5789 O   0  0  0  0  0  0  0  0  0  0  0  0
    1.0120    1.3842   -0.7148 O   0  0  0  0  0  0  0  0  0  0  0  0
   -0.6641   -0.0351    0.0665 O   0  0  0  0  0  0  0  0  0  0  0  0
    2.6866    2.0391    2.9340 C   0  0  0  0  0  0  0  0  0  0  0  0
    2.5006    2.1986    1.4292 C   0  0  1  0  0  0  0  0  0  0  0  0
    2.8243    3.5378    1.0258 O   0  0  0  0  0  0  0  0  0  0  0  0
    3.3734    1.2021    0.5915 C   0  0  1  0  0  0  0  0  0  0  0  0
    2.7959   -0.0351    0.0665 O   0  0  0  0  0  0  0  0  0  0  0  0
    3.8587    2.0737   -0.5537 C   0  0  0  0  0  0  0  0  0  0  0  0
    3.8251    3.4889    0.0071 C   0  0  2  0  0  0  0  0  0  0  0  0
    5.0683    3.9069    0.6144 N   0  0  0  0  0  0  0  0  0  0  0  0
    5.2630    4.2675    1.9209 C   0  0  0  0  0  0  0  0  0  0  0  0
    6.5296    4.5049    2.1807 N   0  0  0  0  0  0  0  0  0  0  0  0
    7.1611    4.3470    0.9687 C   0  0  0  0  0  0  0  0  0  0  0  0
    8.4999    4.4730    0.5896 C   0  0  0  0  0  0  0  0  0  0  0  0
    9.4792    4.7958    1.5009 N   0  0  0  0  0  0  0  0  0  0  0  0
    8.8320    4.2605   -0.7028 N   0  0  0  0  0  0  0  0  0  0  0  0
    7.8489    3.9268   -1.5703 C   0  0  0  0  0  0  0  0  0  0  0  0
    6.5311    3.7682   -1.3229 N   0  0  0  0  0  0  0  0  0  0  0  0
    6.2659    3.9964   -0.0295 C   0  0  0  0  0  0  0  0  0  0  0  0
  1  2  2  0
  1  3  1  0
  1  4  1  0
  1  9  1  0
  6  5  1  1
  6  7  1  0
  6  8  1  0
  7 11  1  0
  8  9  1  6
  8 10  1  0
 10 11  1  0
 11 12  1  1
 12 13  1  0
 12 21  1  0
 13 14  2  0
 14 15  1  0
 15 16  1  0
 15 21  2  0
 16 17  1  0
 16 18  2  0
 18 19  1  0
 19 20  2  0
 20 21  1  0
M  END
>  <DRUGBANK_ID>  (1) 
DB06843

>  <COMMON_NAME>  (1) 
2',5'-DIDEOXY-ADENOSINE 3'-MONOPHOSPHATE

$$$$
