
     RDKit          3D

 22 23  0  0  1  0  0  0  0  0999 V2000
   -1.5477   -1.7553    0.0184 C   0  0  0  0  0  0  0  0  0  0  0  0
   -0.4174   -0.7688   -0.0401 C   0  0  0  0  0  0  0  0  0  0  0  0
    0.8239   -1.3067   -0.1313 N   0  0  0  0  0  0  0  0  0  0  0  0
    1.8525   -0.4404   -0.2188 C   0  0  0  0  0  0  0  0  0  0  0  0
    1.7348    0.9601   -0.1982 C   0  0  0  0  0  0  0  0  0  0  0  0
    3.0394    1.7382   -0.0371 C   0  0  0  0  0  0  0  0  0  0  0  0
    3.7437    1.5233    1.2464 O   0  0  0  0  0  0  0  0  0  0  0  0
    2.7632    1.8082    2.6429 P   0  0  0  0  0  0  0  0  0  0  0  0
    2.2283    3.0602    1.8494 O   0  0  0  0  0  0  0  0  0  0  0  0
    2.0094    0.4421    2.2745 O   0  0  0  0  0  0  0  0  0  0  0  0
    1.8856    2.0631    3.8928 O   0  0  0  0  0  0  0  0  0  0  0  0
    0.4199    1.5222   -0.1254 C   0  0  0  0  0  0  0  0  0  0  0  0
    0.1512    3.0237   -0.1750 C   0  0  0  0  0  0  0  0  0  0  0  0
    0.2257    3.7332    1.0707 N   0  0  0  0  0  0  0  0  0  0  0  0
    0.2447    5.1704    1.1105 C   0  0  2  0  0  0  0  0  0  0  0  0
    1.0317    6.0370    0.1484 C   0  0  0  0  0  0  0  0  0  0  0  0
    0.8349    7.3618    0.6958 O   0  0  0  0  0  0  0  0  0  0  0  0
    0.8417    7.1860    2.1164 N   0  0  0  0  0  0  0  0  0  0  0  0
    0.7220    5.8219    2.3990 C   0  0  0  0  0  0  0  0  0  0  0  0
    0.9612    5.3149    3.4674 O   0  0  0  0  0  0  0  0  0  0  0  0
   -0.6569    0.6138   -0.0480 C   0  0  0  0  0  0  0  0  0  0  0  0
   -1.9698    1.0096   -0.0255 O   0  0  0  0  0  0  0  0  0  0  0  0
  1  2  1  0
  2  3  2  0
  2 21  1  0
  3  4  1  0
  4  5  2  0
  5  6  1  0
  5 12  1  0
  6  7  1  0
  7  8  1  0
  8  9  1  0
  8 10  1  0
  8 11  2  0
 12 13  1  0
 12 21  2  0
 13 14  1  0
 15 14  1  1
 15 16  1  0
 15 19  1  0
 16 17  1  0
 17 18  1  0
 18 19  1  0
 19 20  2  0
 21 22  1  0
M  END
>  <DRUGBANK_ID>  (1) 
DB02038

>  <SECONDARY_ACCESSION_NUMBERS>  (1) 
EXPT01138; EXPT02870; DB03579

>  <COMMON_NAME>  (1) 
D-[3-hydroxy-2-methyl-5-phosphonooxymethyl-pyridin-4-ylmethyl]-N,O-cycloserylamide

>  <SYNONYMS>  (1) 
D-pyridoxyl-N,O-cycloserylamide-5-monophosphate

$$$$
