
     RDKit          3D

 37 37  0  0  0  0  0  0  0  0999 V2000
    1.0845    0.0689   -1.3279 C   0  0  0  0  0  0  0  0  0  0  0  0
    0.5043   -1.5858   -1.3714 C   0  0  0  0  0  0  0  0  0  0  0  0
    0.6032   -2.9319   -0.0499 C   0  0  0  0  0  0  0  0  0  0  0  0
    0.2586   -2.7488    1.6931 C   0  0  0  0  0  0  0  0  0  0  0  0
   -1.2217   -2.7163    2.0116 C   0  0  0  0  0  0  0  0  0  0  0  0
   -1.7626   -3.8240    1.1364 C   0  0  0  0  0  0  0  0  0  0  0  0
   -1.1614   -5.0482    1.8014 C   0  0  0  0  0  0  0  0  0  0  0  0
   -1.6187   -4.9547    3.2630 C   0  0  0  0  0  0  0  0  0  0  0  0
   -3.1518   -4.7986    3.2224 C   0  0  0  0  0  0  0  0  0  0  0  0
   -3.6815   -6.0383    2.5017 C   0  0  0  0  0  0  0  0  0  0  0  0
   -3.1598   -7.2564    3.2657 C   0  0  0  0  0  0  0  0  0  0  0  0
   -3.6394   -7.1574    4.7168 C   0  0  0  0  0  0  0  0  0  0  0  0
   -5.1699   -7.1347    4.7360 C   0  0  0  0  0  0  0  0  0  0  0  0
   -5.7204   -8.4185    4.1081 C   0  0  0  0  0  0  0  0  0  0  0  0
   -5.2170   -9.6515    4.8589 C   0  0  0  0  0  0  0  0  0  0  0  0
   -5.6642   -9.5988    6.3102 C   0  0  0  0  0  0  0  0  0  0  0  0
    0.3995    1.3632   -1.8258 N   0  0  0  0  0  0  0  0  0  0  0  0
    1.0209    1.4242   -3.1206 C   0  0  0  0  0  0  0  0  0  0  0  0
   -1.0580    1.2186   -1.8291 C   0  0  0  0  0  0  0  0  0  0  0  0
    0.7847    2.7515   -1.0122 C   0  0  0  0  0  0  0  0  0  0  0  0
    1.6455   -0.8224    0.8954 C   0  0  0  0  0  0  0  0  0  0  0  0
    2.9517   -0.3776    0.7837 C   0  0  0  0  0  0  0  0  0  0  0  0
    2.8769    0.9410    1.0498 C   0  0  0  0  0  0  0  0  0  0  0  0
    1.5357    1.5695    1.5064 C   0  0  0  0  0  0  0  0  0  0  0  0
    0.0017    1.0325    1.4062 C   0  0  0  0  0  0  0  0  0  0  0  0
   -1.4994    1.6124    1.2028 C   0  0  0  0  0  0  0  0  0  0  0  0
   -2.7571    0.9465    0.7221 C   0  0  0  0  0  0  0  0  0  0  0  0
   -2.6593   -0.3524    0.3568 C   0  0  0  0  0  0  0  0  0  0  0  0
   -1.3360   -0.8089    0.3905 C   0  0  0  0  0  0  0  0  0  0  0  0
    0.0560   -0.2613    1.0144 C   0  0  0  0  0  0  0  0  0  0  0  0
   -3.8502    1.6620    0.2381 O   0  0  0  0  0  0  0  0  0  0  0  0
   -5.0491    0.8563    0.0366 C   0  0  0  0  0  0  0  0  0  0  0  0
    4.0477   -1.3579    0.1566 C   0  0  1  0  0  0  0  0  0  0  0  0
    4.1899   -2.4535    1.2949 C   0  0  0  0  0  0  0  0  0  0  0  0
    4.1508   -3.6343    0.9732 O   0  0  0  0  0  0  0  0  0  0  0  0
    4.2460   -1.9329    2.4933 O   0  0  0  0  0  0  0  0  0  0  0  0
    3.9038   -2.1876   -1.2207 C   0  0  0  0  0  0  0  0  0  0  0  0
  1 17  1  0
  1  2  1  0
  2  3  1  0
  3  4  1  0
  4  5  1  0
  5  6  1  0
  6  7  1  0
  7  8  1  0
  8  9  1  0
  9 10  1  0
 10 11  1  0
 11 12  1  0
 12 13  1  0
 13 14  1  0
 14 15  1  0
 15 16  1  0
 17 18  1  0
 17 19  1  0
 17 20  1  0
 21 22  2  0
 21 30  1  0
 22 23  1  0
 22 33  1  0
 23 24  2  0
 24 25  1  0
 25 26  1  0
 25 30  2  0
 26 27  2  0
 27 28  1  0
 27 31  1  0
 28 29  2  0
 29 30  1  0
 31 32  1  0
 33 37  1  6
 34 33  1  0
 34 35  2  0
 34 36  1  0
M  CHG  2  17   1  36  -1
M  END
>  <DRUGBANK_ID>  (1) 
DB15877

>  <COMMON_NAME>  (1) 
Cetyltrimethylammonium naproxenate

>  <CAS_NUMBER>  (1) 
102580-74-5

>  <UNII>  (1) 
5333CM4X3G

>  <SYNONYMS>  (1) 
Cetyl trimethylammonium naproxenate; Cetyltrimethylammonium naproxenate

$$$$
