
     RDKit          3D

 30 33  0  0  0  0  0  0  0  0999 V2000
    0.9109    0.0084   -0.0651 C   0  0  0  0  0  0  0  0  0  0  0  0
    0.4604   -1.3319    0.0796 O   0  0  0  0  0  0  0  0  0  0  0  0
    1.3534   -2.3450   -0.1343 C   0  0  0  0  0  0  0  0  0  0  0  0
    2.7102   -2.2057   -0.4260 C   0  0  0  0  0  0  0  0  0  0  0  0
    3.5242   -3.3257   -0.6011 C   0  0  0  0  0  0  0  0  0  0  0  0
    2.9913   -4.6025   -0.4771 C   0  0  0  0  0  0  0  0  0  0  0  0
    1.6357   -4.7695   -0.1696 C   0  0  0  0  0  0  0  0  0  0  0  0
    1.0659   -6.1471    0.0017 C   0  0  0  0  0  0  0  0  0  0  0  0
    0.5669   -6.3049    1.3703 N   0  0  0  0  0  0  0  0  0  0  0  0
   -0.7718   -6.5244    1.6110 C   0  0  0  0  0  0  0  0  0  0  0  0
   -1.3973   -7.4390    0.8254 C   0  0  0  0  0  0  0  0  0  0  0  0
   -2.6296   -7.8800    1.1972 C   0  0  0  0  0  0  0  0  0  0  0  0
   -3.5032   -7.2278    1.9810 C   0  0  0  0  0  0  0  0  0  0  0  0
   -2.9312   -6.2893    2.8246 C   0  0  0  0  0  0  0  0  0  0  0  0
   -1.5509   -5.9378    2.6234 C   0  0  0  0  0  0  0  0  0  0  0  0
   -5.1607   -7.8204    1.7666 S   0  0  0  0  0  0  0  0  0  0  0  0
   -5.3529   -8.8523    2.7952 O   0  0  0  0  0  0  0  0  0  0  0  0
   -6.0161   -6.6699    1.7476 O   0  0  0  0  0  0  0  0  0  0  0  0
   -5.3786   -8.6826    0.0363 N   0  0  0  0  0  0  0  0  0  0  0  0
   -4.2058   -9.2981   -0.7274 C   0  0  0  0  0  0  0  0  0  0  0  0
   -3.8976   -9.2806   -2.0583 N   0  0  0  0  0  0  0  0  0  0  0  0
   -2.5340   -9.8675   -2.2908 C   0  0  0  0  0  0  0  0  0  0  0  0
   -1.6672  -10.3179   -3.3655 C   0  0  0  0  0  0  0  0  0  0  0  0
   -0.3518  -10.8504   -3.0521 C   0  0  0  0  0  0  0  0  0  0  0  0
    0.1863  -10.7513   -1.7750 C   0  0  0  0  0  0  0  0  0  0  0  0
   -0.5831  -10.1940   -0.7806 C   0  0  0  0  0  0  0  0  0  0  0  0
   -1.9515  -10.0639   -1.0534 C   0  0  0  0  0  0  0  0  0  0  0  0
   -3.3043  -10.6465   -0.0883 S   0  0  0  0  0  0  0  0  0  0  0  0
    0.8257   -3.6348   -0.0272 C   0  0  0  0  0  0  0  0  0  0  0  0
   -0.5140   -3.8058    0.2136 O   0  0  0  0  0  0  0  0  0  0  0  0
  1  2  1  0
  2  3  1  0
  3  4  2  0
  3 29  1  0
  4  5  1  0
  5  6  2  0
  6  7  1  0
  7  8  1  0
  7 29  2  0
  8  9  1  0
  9 10  1  0
 10 11  2  0
 10 15  1  0
 11 12  1  0
 12 13  2  0
 13 14  1  0
 13 16  1  0
 14 15  2  0
 16 17  2  0
 16 18  2  0
 16 19  1  0
 19 20  1  0
 20 21  2  0
 20 28  1  0
 21 22  1  0
 22 23  2  0
 22 27  1  0
 23 24  1  0
 24 25  2  0
 25 26  1  0
 26 27  2  0
 27 28  1  0
 29 30  1  0
M  END
>  <DRUGBANK_ID>  (1) 
DB18307

>  <COMMON_NAME>  (1) 
VLX-1005

>  <CAS_NUMBER>  (1) 
1532593-30-8

>  <UNII>  (1) 
JKU4XCC48Y

>  <SYNONYMS>  (1) 
Benzenesulfonamide, n-2-benzothiazolyl-4-(((2-hydroxy-3-methoxyphenyl)methyl)amino)-; N-2-benzothiazolyl-4-(((2-hydroxy-3-methoxyphenyl)methyl)amino)benzenesulfonamide; N-Benzothiazol-2-yl-4-(2-hydroxy-3-methoxy-benzylamino)-bezenesulfonamide

$$$$
