547
     RDKit          3D

 30 34  0  0  0  0  0  0  0  0999 V2000
   -1.9108   -0.8606    0.0320 C   0  0  0  0  0  0  0  0  0  0  0  0
   -0.7305   -1.5176    0.0239 N   0  0  0  0  0  0  0  0  0  0  0  0
    0.3527   -0.6990    0.0495 C   0  0  0  0  0  0  0  0  0  0  0  0
    0.3546    0.6911    0.0744 C   0  0  0  0  0  0  0  0  0  0  0  0
   -0.9292    1.3112   -0.0521 C   0  0  0  0  0  0  0  0  0  0  0  0
   -2.0681    0.4991    0.0016 C   0  0  0  0  0  0  0  0  0  0  0  0
    1.6480   -1.1649    0.0105 O   0  0  0  0  0  0  0  0  0  0  0  0
    2.4679   -0.0868    0.0782 C   0  0  0  0  0  0  0  0  0  0  0  0
    1.7478    1.0984    0.1439 C   0  0  0  0  0  0  0  0  0  0  0  0
    2.4650    2.3939    0.2119 C   0  0  0  0  0  0  0  0  0  0  0  0
    2.2709    3.2293    1.3268 C   0  0  0  0  0  0  0  0  0  0  0  0
    2.5536    4.6014    1.2443 C   0  0  0  0  0  0  0  0  0  0  0  0
    3.0150    5.1561    0.0503 C   0  0  0  0  0  0  0  0  0  0  0  0
    3.2670    4.3270   -1.0453 C   0  0  0  0  0  0  0  0  0  0  0  0
    3.0705    2.9421   -0.9441 C   0  0  0  0  0  0  0  0  0  0  0  0
    3.9019   -0.2291    0.0873 C   0  0  0  0  0  0  0  0  0  0  0  0
    4.6123    0.3860    1.1357 C   0  0  0  0  0  0  0  0  0  0  0  0
    5.9779    0.5936    1.0542 C   0  0  0  0  0  0  0  0  0  0  0  0
    6.6417    0.2755   -0.1276 C   0  0  0  0  0  0  0  0  0  0  0  0
    5.9359   -0.2754   -1.2012 C   0  0  0  0  0  0  0  0  0  0  0  0
    4.5863   -0.6011   -1.0752 C   0  0  0  0  0  0  0  0  0  0  0  0
   -1.1702    2.6071   -0.4746 N   0  0  0  0  0  0  0  0  0  0  0  0
   -0.0573    3.5145   -0.4616 C   0  0  0  0  0  0  0  0  0  0  0  0
   -0.1801    4.7120   -1.3613 C   0  0  0  0  0  0  0  0  0  0  0  0
   -1.4209    5.4196   -1.0855 N   0  0  0  0  0  0  0  0  0  0  0  0
   -1.8511    5.3515    0.3249 C   0  0  0  0  0  0  0  0  0  0  0  0
   -1.0509    6.2334    1.2778 C   0  0  0  0  0  0  0  0  0  0  0  0
   -1.3485    7.6158    0.9304 N   0  0  0  0  0  0  0  0  0  0  0  0
   -0.8391    7.8353   -0.4419 C   0  0  0  0  0  0  0  0  0  0  0  0
   -1.3600    6.8260   -1.5088 C   0  0  0  0  0  0  0  0  0  0  0  0
  1  2  2  0
  1  6  1  0
  2  3  1  0
  3  7  1  0
  3  4  2  0
  4  9  1  0
  4  5  1  0
  5  6  2  0
  5 22  1  0
  7  8  1  0
  8 16  1  0
  8  9  2  0
  9 10  1  0
 10 11  2  0
 10 15  1  0
 11 12  1  0
 12 13  2  0
 13 14  1  0
 14 15  2  0
 16 17  2  0
 16 21  1  0
 17 18  1  0
 18 19  2  0
 19 20  1  0
 20 21  2  0
 22 23  1  0
 23 24  1  0
 24 25  1  0
 25 30  1  0
 25 26  1  0
 26 27  1  0
 27 28  1  0
 28 29  1  0
 29 30  1  0
M  END
>  <DRUGBANK_ID>  (1) 
DB07146

>  <COMMON_NAME>  (1) 
2,3-DIPHENYL-N-(2-PIPERAZIN-1-YLETHYL)FURO[2,3-B]PYRIDIN-4-AMINE

$$$$
