1016
     RDKit          3D

 33 35  0  0  0  0  0  0  0  0999 V2000
   -2.0572   -0.3088   -0.0034 Cl  0  0  0  0  0  0  0  0  0  0  0  0
    1.4661   10.5812   -0.0050 S   0  0  0  0  0  0  0  0  0  0  0  0
    5.2655    9.1956   -0.3296 O   0  0  0  0  0  0  0  0  0  0  0  0
    1.0660   11.4472   -1.0393 O   0  0  0  0  0  0  0  0  0  0  0  0
    1.2614   11.1514    1.3591 O   0  0  0  0  0  0  0  0  0  0  0  0
    3.3959    2.9151    0.0666 O   0  0  0  0  0  0  0  0  0  0  0  0
    3.8745   -0.2360    0.0490 O   0  0  0  0  0  0  0  0  0  0  0  0
    3.8482    7.9383    0.8677 N   0  0  0  0  0  0  0  0  0  0  0  0
    3.2301   10.2347   -0.0743 N   0  0  0  0  0  0  0  0  0  0  0  0
    1.4745    3.5130   -0.2378 N   0  0  0  0  0  0  0  0  0  0  0  0
    2.5738    7.7546    1.5612 C   0  0  0  0  0  0  0  0  0  0  0  0
    2.1735    8.8712    2.4696 C   0  0  0  0  0  0  0  0  0  0  0  0
    2.0532    6.4620    2.2155 C   0  0  0  0  0  0  0  0  0  0  0  0
    0.6968    9.0506    2.8335 C   0  0  0  0  0  0  0  0  0  0  0  0
    0.6375    6.4963    2.9363 C   0  0  0  0  0  0  0  0  0  0  0  0
    0.1610    7.8209    3.4858 C   0  0  0  0  0  0  0  0  0  0  0  0
    4.1477    9.1189    0.1360 C   0  0  0  0  0  0  0  0  0  0  0  0
    0.3992    8.7995   -0.3481 C   0  0  0  0  0  0  0  0  0  0  0  0
   -0.2836    6.0522    0.2678 C   0  0  0  0  0  0  0  0  0  0  0  0
   -0.4056    4.6256    0.8072 C   0  0  0  0  0  0  0  0  0  0  0  0
    1.1096    7.7264   -0.9380 C   0  0  0  0  0  0  0  0  0  0  0  0
   -0.8094    8.4465    0.3483 C   0  0  0  0  0  0  0  0  0  0  0  0
    0.8488    6.4311   -0.4644 C   0  0  0  0  0  0  0  0  0  0  0  0
   -1.1556    7.0816    0.6109 C   0  0  0  0  0  0  0  0  0  0  0  0
    0.0804    3.8192   -0.3537 C   0  0  0  0  0  0  0  0  0  0  0  0
    2.2635    2.4703   -0.0091 C   0  0  0  0  0  0  0  0  0  0  0  0
    1.7340    1.0726    0.0367 C   0  0  0  0  0  0  0  0  0  0  0  0
    2.5115   -0.0772    0.0315 C   0  0  0  0  0  0  0  0  0  0  0  0
    0.3369    0.8717    0.0524 C   0  0  0  0  0  0  0  0  0  0  0  0
    1.8225   -1.3208    0.0064 C   0  0  0  0  0  0  0  0  0  0  0  0
   -0.3334   -0.3249    0.0003 C   0  0  0  0  0  0  0  0  0  0  0  0
    0.4198   -1.4507   -0.0193 C   0  0  0  0  0  0  0  0  0  0  0  0
    4.7052    0.9160    0.0717 C   0  0  0  0  0  0  0  0  0  0  0  0
  1 31  1  0
  2  4  2  0
  2  5  2  0
  2  9  1  0
  2 18  1  0
  3 17  2  0
  6 26  2  0
  7 28  1  0
  7 33  1  0
  8 11  1  0
  8 17  1  0
  9 17  1  0
 10 25  1  0
 10 26  1  0
 11 12  1  0
 11 13  1  0
 12 14  1  0
 13 15  1  0
 14 16  1  0
 15 16  1  0
 18 21  2  0
 18 22  1  0
 19 20  1  0
 19 23  2  0
 19 24  1  0
 20 25  1  0
 21 23  1  0
 22 24  2  0
 26 27  1  0
 27 28  2  0
 27 29  1  0
 28 30  1  0
 29 31  2  0
 30 32  2  0
 31 32  1  0
M  END
>  <DRUGBANK_ID>  (1) 
DB01016

>  <SECONDARY_ACCESSION_NUMBERS>  (1) 
APRD00233

>  <COMMON_NAME>  (1) 
Glyburide

>  <CAS_NUMBER>  (1) 
10238-21-8

>  <UNII>  (1) 
SX6K58TVWC

>  <SYNONYMS>  (1) 
1-((p-(2-(5-chloro-o-anisamido)ethyl)phenyl)sulfonyl)-3-cyclohexylurea; 1-(p-(2-(5-chloro-2-methoxybenzamido)ethyl)benzenesulfonyl)-3-cyclohexylurea; 5-chloro-N-(2-(4-((((cyclohexylamino)carbonyl)amino)sulfonyl)phenyl)ethyl)-2-methoxybenzamide; Glibenclamida; Glibenclamide; Glibenclamidum; Glyburide

$$$$
