GAS
     RDKit          3D

 29 31  0  0  0  0  0  0  0  0999 V2000
    1.3278   -0.3378   -0.1006 C   0  0  0  0  0  0  0  0  0  0  0  0
    0.4611   -1.3869    0.0123 C   0  0  0  0  0  0  0  0  0  0  0  0
   -0.9186   -1.1520   -0.0130 C   0  0  0  0  0  0  0  0  0  0  0  0
   -1.4468    0.1331   -0.0334 C   0  0  0  0  0  0  0  0  0  0  0  0
   -0.5754    1.1774   -0.1081 C   0  0  0  0  0  0  0  0  0  0  0  0
    0.7705    0.8964   -0.4108 C   0  0  0  0  0  0  0  0  0  0  0  0
    1.6952    1.9675   -0.8156 C   0  0  0  0  0  0  0  0  0  0  0  0
    1.1761    2.9743   -1.8240 N   0  0  0  0  0  0  0  0  0  0  0  0
    1.7469    2.7352    0.3523 C   0  0  0  0  0  0  0  0  0  0  0  0
    1.5221    2.2217    1.8301 C   0  0  0  0  0  0  0  0  0  0  0  0
    1.6756    3.3481    2.8363 C   0  0  0  0  0  0  0  0  0  0  0  0
    2.3340    5.2568    2.5584 C   0  0  0  0  0  0  0  0  0  0  0  0
    2.5898    5.7985    0.8958 C   0  0  0  0  0  0  0  0  0  0  0  0
    2.2648    4.4002   -0.2632 C   0  0  0  0  0  0  0  0  0  0  0  0
    0.6565    4.5118   -1.7390 C   0  0  0  0  0  0  0  0  0  0  0  0
    0.5587    5.0590   -2.9157 N   0  0  0  0  0  0  0  0  0  0  0  0
    0.1634    6.4470   -2.7726 C   0  0  0  0  0  0  0  0  0  0  0  0
   -1.0595    6.6136   -1.8691 C   0  0  0  0  0  0  0  0  0  0  0  0
   -1.0551    7.3033   -0.8514 O   0  0  0  0  0  0  0  0  0  0  0  0
   -2.1150    5.8315   -2.1722 O   0  0  0  0  0  0  0  0  0  0  0  0
    0.3327    5.2606   -0.1701 N   0  0  0  0  0  0  0  0  0  0  0  0
    1.0234    4.5321    1.3617 C   0  0  0  0  0  0  0  0  0  0  0  0
    2.9925    3.8588    1.4626 C   0  0  0  0  0  0  0  0  0  0  0  0
    3.8450    3.6348    2.7880 C   0  0  0  0  0  0  0  0  0  0  0  0
    2.9887    4.1301    4.2532 C   0  0  0  0  0  0  0  0  0  0  0  0
    3.4084    3.2387    5.2631 C   0  0  0  0  0  0  0  0  0  0  0  0
    3.5579    2.3618    5.9984 N   0  0  0  0  0  0  0  0  0  0  0  0
    1.2171    4.7618    4.2809 C   0  0  0  0  0  0  0  0  0  0  0  0
    0.2080    4.9678    2.7860 C   0  0  0  0  0  0  0  0  0  0  0  0
  1  2  2  0
  1  6  1  0
  2  3  1  0
  3  4  2  0
  4  5  1  0
  5  6  2  0
  6  7  1  0
  7  8  1  0
  7  9  1  0
  8 15  1  0
  9 10  2  0
  9 14  1  0
 10 11  1  0
 11 12  2  0
 12 13  1  0
 13 14  2  0
 15 16  2  0
 15 21  1  0
 16 17  1  0
 17 18  1  0
 18 19  2  0
 18 20  1  0
 21 22  1  0
 22 23  2  0
 22 29  1  0
 23 24  1  0
 24 25  2  0
 25 26  1  0
 25 28  1  0
 26 27  3  0
 28 29  2  0
M  END
>  <DRUGBANK_ID>  (1) 
DB07816

>  <COMMON_NAME>  (1) 
N-(P-CYANOPHENYL)-N'-DIPHENYLMETHYL-GUANIDINE-ACETIC ACID

>  <UNII>  (1) 
MW7J9SU4JQ

$$$$
