
     RDKit          3D

 15 15  0  0  1  0  0  0  0  0999 V2000
    1.0243   -0.0630   -0.0695 N   0  0  0  0  0  0  0  0  0  0  0  0
    0.5189   -1.1241    0.8278 C   0  0  1  0  0  0  0  0  0  0  0  0
    1.0242   -1.0230    2.2970 C   0  0  0  0  0  0  0  0  0  0  0  0
    0.6688    0.2243    2.9980 N   0  0  0  0  0  0  0  0  0  0  0  0
   -0.4452    0.2592    3.8259 C   0  0  0  0  0  0  0  0  0  0  0  0
   -0.9762    1.4075    4.2704 C   0  0  0  0  0  0  0  0  0  0  0  0
   -2.5616    1.4905    5.2410 Br  0  0  0  0  0  0  0  0  0  0  0  0
   -0.2687    2.6692    3.9318 C   0  0  0  0  0  0  0  0  0  0  0  0
   -0.7038    3.7864    4.2089 O   0  0  0  0  0  0  0  0  0  0  0  0
    0.9306    2.5239    3.2937 N   0  0  0  0  0  0  0  0  0  0  0  0
    1.3710    1.3820    2.6884 C   0  0  0  0  0  0  0  0  0  0  0  0
    2.3068    1.4234    1.8947 O   0  0  0  0  0  0  0  0  0  0  0  0
   -1.0187   -1.1110    0.8054 C   0  0  0  0  0  0  0  0  0  0  0  0
   -1.5959   -2.2251    0.3017 O   0  0  0  0  0  0  0  0  0  0  0  0
   -1.6992   -0.1784    1.2159 O   0  0  0  0  0  0  0  0  0  0  0  0
  2  1  1  6
  2  3  1  0
  2 13  1  0
  3  4  1  0
  4  5  1  0
  4 11  1  0
  5  6  2  0
  6  7  1  0
  6  8  1  0
  8  9  2  0
  8 10  1  0
 10 11  1  0
 11 12  2  0
 13 14  1  0
 13 15  2  0
M  END
>  <DRUGBANK_ID>  (1) 
DB04000

>  <SECONDARY_ACCESSION_NUMBERS>  (1) 
EXPT00785

>  <COMMON_NAME>  (1) 
Bromo-Willardiine

>  <UNII>  (1) 
QGW9M0L9SJ

$$$$
