
     RDKit          3D

 25 27  0  0  1  0  0  0  0  0999 V2000
    0.9225    0.5584   -0.0312 N   0  0  0  0  0  0  0  0  0  0  0  0
    0.3624    0.2881   -1.3676 C   0  0  1  0  0  0  0  0  0  0  0  0
    0.8206   -1.1099   -1.6748 C   0  0  0  0  0  0  0  0  0  0  0  0
   -0.0644   -2.2854   -0.4232 S   0  0  0  0  0  0  0  0  0  0  0  0
    1.0775   -2.6523    0.8976 C   0  0  0  0  0  0  0  0  0  0  0  0
    2.5437   -2.6820    0.5575 C   0  0  0  0  0  0  0  0  0  0  0  0
    3.2556   -1.7205    0.8724 O   0  0  0  0  0  0  0  0  0  0  0  0
    3.1375   -3.8010    0.0132 N   0  0  0  0  0  0  0  0  0  0  0  0
    2.5381   -4.9805   -0.5109 C   0  0  0  0  0  0  0  0  0  0  0  0
    3.0220   -6.2030   -0.0921 C   0  0  0  0  0  0  0  0  0  0  0  0
    2.3874   -7.3723   -0.5458 C   0  0  0  0  0  0  0  0  0  0  0  0
    1.2407   -7.3273   -1.3838 C   0  0  0  0  0  0  0  0  0  0  0  0
    0.6213   -8.4388   -1.8137 N   0  0  0  0  0  0  0  0  0  0  0  0
    1.1133   -9.6273   -1.4596 C   0  0  0  0  0  0  0  0  0  0  0  0
    2.2214   -9.7717   -0.6536 C   0  0  0  0  0  0  0  0  0  0  0  0
    2.8639   -8.6303   -0.1851 C   0  0  0  0  0  0  0  0  0  0  0  0
    0.7725   -6.1212   -1.8436 C   0  0  0  0  0  0  0  0  0  0  0  0
    1.5277   -4.9939   -1.5088 C   0  0  0  0  0  0  0  0  0  0  0  0
    1.2839   -3.9063   -2.3218 C   0  0  0  0  0  0  0  0  0  0  0  0
    0.1020   -3.7975   -3.0658 C   0  0  0  0  0  0  0  0  0  0  0  0
   -0.6990   -4.8888   -3.1715 C   0  0  0  0  0  0  0  0  0  0  0  0
   -0.3332   -6.0582   -2.6480 N   0  0  0  0  0  0  0  0  0  0  0  0
   -1.2097    0.3210   -1.4283 C   0  0  0  0  0  0  0  0  0  0  0  0
   -1.6945    1.1837   -2.3541 O   0  0  0  0  0  0  0  0  0  0  0  0
   -1.9824   -0.3573   -0.7985 O   0  0  0  0  0  0  0  0  0  0  0  0
  2  1  1  1
  2  3  1  0
  2 23  1  0
  3  4  1  0
  4  5  1  0
  5  6  1  0
  6  7  2  0
  6  8  1  0
  8  9  1  0
  9 10  2  0
  9 18  1  0
 10 11  1  0
 11 12  2  0
 11 16  1  0
 12 13  1  0
 12 17  1  0
 13 14  2  0
 14 15  1  0
 15 16  2  0
 17 18  2  0
 17 22  1  0
 18 19  1  0
 19 20  2  0
 20 21  1  0
 21 22  2  0
 23 24  1  0
 23 25  2  0
M  END
>  <DRUGBANK_ID>  (1) 
DB04437

>  <SECONDARY_ACCESSION_NUMBERS>  (1) 
EXPT02382

>  <COMMON_NAME>  (1) 
Cysteine-Methylene-Carbamoyl-1,10-Phenanthroline

$$$$
