
     RDKit          3D

 11 11  0  0  0  0  0  0  0  0999 V2000
    0.7228    1.1674   -0.2379 O   0  0  0  0  0  0  0  0  0  0  0  0
    1.4210   -0.0009    0.2145 C   0  0  1  0  0  0  0  0  0  0  0  0
   -0.6262    1.2397    0.2237 C   0  0  2  0  0  0  0  0  0  0  0  0
   -1.4578    0.0198   -0.2093 C   0  0  1  0  0  0  0  0  0  0  0  0
   -0.7352   -1.2588    0.2337 C   0  0  2  0  0  0  0  0  0  0  0  0
    0.7050   -1.2702   -0.2782 C   0  0  1  0  0  0  0  0  0  0  0  0
   -1.2166    2.4157   -0.3132 O   0  0  0  0  0  0  0  0  0  0  0  0
   -2.7745    0.0893    0.3579 O   0  0  0  0  0  0  0  0  0  0  0  0
   -1.4487   -2.4079   -0.2304 O   0  0  0  0  0  0  0  0  0  0  0  0
    0.6786   -1.3409   -1.7134 O   0  0  0  0  0  0  0  0  0  0  0  0
    2.8497    0.0570   -0.3141 C   0  0  0  0  0  0  0  0  0  0  0  0
  1  2  1  0
  2 11  1  6
  2  6  1  0
  3  1  1  0
  3  4  1  0
  3  7  1  6
  4  5  1  0
  4  8  1  1
  5  9  1  6
  5  6  1  0
  6 10  1  6
M  END
>  <DRUGBANK_ID>  (1) 
DB04062

>  <SECONDARY_ACCESSION_NUMBERS>  (1) 
EXPT01401

>  <COMMON_NAME>  (1) 
beta-D-fucose

>  <CAS_NUMBER>  (1) 
28161-52-6

>  <UNII>  (1) 
ZU9GS9H79G

>  <SYNONYMS>  (1) 
β-D-Fuc; β-D-fucose

$$$$
