
     RDKit          3D

 18 16  0  0  1  0  0  0  0  0999 V2000
    1.0706   -0.0393    0.0589 Pt  0  0  0  0  0 15  0  0  0  0  0  0
    1.0356    0.0908    0.0222 N   0  0  0  0  0  0  0  0  0  0  0  0
    0.5456    1.2423   -0.7491 C   0  0  2  0  0  0  0  0  0  0  0  0
    1.4164    2.4806   -0.9857 C   0  0  0  0  0  0  0  0  0  0  0  0
    1.8365    3.0620    0.3679 C   0  0  0  0  0  0  0  0  0  0  0  0
    0.5840    3.3808    1.1877 C   0  0  0  0  0  0  0  0  0  0  0  0
   -0.1964    2.1944    1.3448 C   0  0  0  0  0  0  0  0  0  0  0  0
   -0.6566    1.6319    0.1142 C   0  0  1  0  0  0  0  0  0  0  0  0
   -1.4743    2.6216   -0.6019 N   0  0  0  0  0  0  0  0  0  0  0  0
    1.0548    0.0800    0.0244 O   0  0  0  0  0  0  0  0  0  0  0  0
    0.4781    0.9930   -1.3272 P   0  0  2  0  0  0  0  0  0  0  0  0
    2.0827    1.5679   -1.6235 O   0  0  0  0  0  0  0  0  0  0  0  0
   -0.0130   -0.3125   -1.9995 O   0  0  0  0  0  0  0  0  0  0  0  0
   -0.0985    1.9060   -2.6788 O   0  0  0  0  0  0  0  0  0  0  0  0
    1.1015    1.9120   -3.9249 P   0  0  1  0  0  0  0  0  0  0  0  0
    2.0831    0.8416   -2.9847 O   0  0  0  0  0  0  0  0  0  0  0  0
   -0.0541    1.2701   -5.0409 O   0  0  0  0  0  0  0  0  0  0  0  0
    2.1756    1.9173   -5.0401 O   0  0  0  0  0  0  0  0  0  0  0  0
  3  2  1  1
  3  4  1  0
  3  8  1  0
  4  5  1  0
  5  6  1  0
  6  7  1  0
  8  7  1  0
  8  9  1  6
 11 10  1  1
 11 12  1  0
 11 13  2  0
 11 14  1  0
 14 15  1  0
 15 16  1  1
 15 17  1  0
 15 18  2  0
M  CHG  3   1   2  12  -1  17  -1
M  END
>  <DRUGBANK_ID>  (1) 
DB17120

>  <COMMON_NAME>  (1) 
Imifoplatin

>  <CAS_NUMBER>  (1) 
1339960-28-9

>  <UNII>  (1) 
F5I3T42BXC

>  <SYNONYMS>  (1) 
(1R,2R)-1,2-cyclohexane-diaminepyrophosphato-platinum(II); 1,2-cyclohexanediamine pyrophosphatoplatinum(ii), (r,r)-; Cyclohexane-(1r,2r)-diamineplatinum(ii) diphosphate; Cyclohexanediamine pyrophosphatoplatinum(ii), (1r,2r)-; Dihydrogen (sp-4-2)-((1r,2r)-cyclohexane-1,2-diamine-.kappa.2n1,n2)(diphosphato(4)-.kappa.2o1,o3)platinate(2); Platinate(2-), ((1r,2r)-1,2-cyclohexanediamine-.kappa.n1,.kappa.n2)(diphosphato(4-)-.kappa.o,.kappa.o'')-, hydrogen (1:2), (sp-4-2)-

$$$$
