KS4
     RDKit          3D

 24 27  0  0  0  0  0  0  0  0999 V2000
    0.4303    0.9997   -0.1526 C   0  0  0  0  0  0  0  0  0  0  0  0
   -0.9390    0.3181    0.1054 C   0  0  0  0  0  0  0  0  0  0  0  0
   -0.2441   -1.0264   -0.2177 C   0  0  0  0  0  0  0  0  0  0  0  0
    1.0836   -0.3567    0.2209 C   0  0  0  0  0  0  0  0  0  0  0  0
    2.2806   -0.7158   -0.5187 N   0  0  0  0  0  0  0  0  0  0  0  0
    2.3728   -1.8720   -1.2298 N   0  0  0  0  0  0  0  0  0  0  0  0
    3.4964   -0.0680   -0.3924 C   0  0  0  0  0  0  0  0  0  0  0  0
    3.7662    1.0900    0.2353 N   0  0  0  0  0  0  0  0  0  0  0  0
    5.0656    1.4315    0.1053 C   0  0  0  0  0  0  0  0  0  0  0  0
    6.0452    0.7709   -0.5481 N   0  0  0  0  0  0  0  0  0  0  0  0
    5.7385   -0.3882   -1.1554 C   0  0  0  0  0  0  0  0  0  0  0  0
    6.7587   -1.0504   -1.8100 N   0  0  0  0  0  0  0  0  0  0  0  0
    4.4185   -0.8528   -1.0768 C   0  0  0  0  0  0  0  0  0  0  0  0
    3.6798   -1.9747   -1.5349 C   0  0  0  0  0  0  0  0  0  0  0  0
    4.2135   -3.0657   -2.3521 C   0  0  0  0  0  0  0  0  0  0  0  0
    3.6840   -3.2581   -3.6299 C   0  0  0  0  0  0  0  0  0  0  0  0
    5.3359   -3.8062   -1.9603 C   0  0  0  0  0  0  0  0  0  0  0  0
    5.9467   -4.6841   -2.8629 C   0  0  0  0  0  0  0  0  0  0  0  0
    5.4207   -4.8714   -4.1492 C   0  0  0  0  0  0  0  0  0  0  0  0
    6.1427   -5.7643   -4.9052 O   0  0  0  0  0  0  0  0  0  0  0  0
    5.6594   -6.0680   -6.2096 C   0  0  0  0  0  0  0  0  0  0  0  0
    4.2704   -4.1551   -4.5317 C   0  0  0  0  0  0  0  0  0  0  0  0
    3.7869   -4.3444   -5.7950 O   0  0  0  0  0  0  0  0  0  0  0  0
    2.6209   -3.6493   -6.1978 C   0  0  0  0  0  0  0  0  0  0  0  0
  1  2  1  0
  1  4  1  0
  2  3  1  0
  3  4  1  0
  4  5  1  0
  5  6  1  0
  5  7  1  0
  6 14  2  0
  7  8  2  0
  7 13  1  0
  8  9  1  0
  9 10  2  0
 10 11  1  0
 11 12  1  0
 11 13  2  0
 13 14  1  0
 14 15  1  0
 15 16  2  0
 15 17  1  0
 16 22  1  0
 17 18  2  0
 18 19  1  0
 19 20  1  0
 19 22  2  0
 20 21  1  0
 22 23  1  0
 23 24  1  0
M  END
>  <DRUGBANK_ID>  (1) 
DB08053

>  <COMMON_NAME>  (1) 
1-cyclobutyl-3-(3,4-dimethoxyphenyl)-1H-pyrazolo[3,4-d]pyrimidin-4-amine

$$$$
