
     RDKit          3D

 30 33  0  0  0  0  0  0  0  0999 V2000
    0.7776   -0.1016   -0.0209 C   0  0  0  0  0  0  0  0  0  0  0  0
    0.2746    0.6524   -1.2645 C   0  0  0  0  0  0  0  0  0  0  0  0
    1.1288    0.1434   -2.4578 C   0  0  0  0  0  0  0  0  0  0  0  0
    0.4831    2.1716   -1.1419 N   0  0  0  0  0  0  0  0  0  0  0  0
   -0.2076    2.9397   -2.1715 C   0  0  0  0  0  0  0  0  0  0  0  0
   -1.7020    2.7792   -2.0139 C   0  0  0  0  0  0  0  0  0  0  0  0
   -2.1260    1.3996   -1.9133 N   0  0  0  0  0  0  0  0  0  0  0  0
   -3.4227    0.9480   -2.0915 C   0  0  0  0  0  0  0  0  0  0  0  0
   -4.4176    1.8334   -2.4063 N   0  0  0  0  0  0  0  0  0  0  0  0
   -5.7873    1.5292   -2.5361 C   0  0  0  0  0  0  0  0  0  0  0  0
   -6.5031    0.9666   -1.4712 C   0  0  0  0  0  0  0  0  0  0  0  0
   -7.7987    0.4826   -1.6625 C   0  0  0  0  0  0  0  0  0  0  0  0
   -8.3888    0.5841   -2.9159 C   0  0  0  0  0  0  0  0  0  0  0  0
   -9.5751    0.0012   -3.1339 F   0  0  0  0  0  0  0  0  0  0  0  0
   -7.7154    1.1820   -3.9758 C   0  0  0  0  0  0  0  0  0  0  0  0
   -6.4179    1.6682   -3.7834 C   0  0  0  0  0  0  0  0  0  0  0  0
   -3.3478   -0.4326   -1.9005 C   0  0  0  0  0  0  0  0  0  0  0  0
   -2.0129   -0.7680   -1.5331 N   0  0  0  0  0  0  0  0  0  0  0  0
   -1.2864    0.3641   -1.5424 C   0  0  0  0  0  0  0  0  0  0  0  0
   -4.5259   -1.3568   -2.0734 C   0  0  0  0  0  0  0  0  0  0  0  0
   -5.2395   -1.4041   -3.3017 C   0  0  0  0  0  0  0  0  0  0  0  0
   -6.5105   -2.0199   -3.4254 C   0  0  0  0  0  0  0  0  0  0  0  0
   -7.0911   -2.6277   -2.3245 C   0  0  0  0  0  0  0  0  0  0  0  0
   -8.3387   -3.1178   -2.4091 F   0  0  0  0  0  0  0  0  0  0  0  0
   -6.4244   -2.6189   -1.1049 C   0  0  0  0  0  0  0  0  0  0  0  0
   -5.1560   -1.9879   -0.9787 C   0  0  0  0  0  0  0  0  0  0  0  0
    1.3454    2.7949   -0.2245 C   0  0  0  0  0  0  0  0  0  0  0  0
    2.0318    2.1732    0.6058 O   0  0  0  0  0  0  0  0  0  0  0  0
    1.4331    4.3401   -0.1646 C   0  0  0  0  0  0  0  0  0  0  0  0
    2.0552    4.9013   -1.3747 N   0  0  0  0  0  0  0  0  0  0  0  0
  1  2  1  0
  2  3  1  0
  2  4  1  0
  2 19  1  0
  4  5  1  0
  4 27  1  0
  5  6  1  0
  6  7  1  0
  7  8  1  0
  7 19  1  0
  8  9  1  0
  8 17  2  0
  9 10  1  0
 10 11  2  0
 10 16  1  0
 11 12  1  0
 12 13  2  0
 13 14  1  0
 13 15  1  0
 15 16  2  0
 17 18  1  0
 17 20  1  0
 18 19  2  0
 20 21  2  0
 20 26  1  0
 21 22  1  0
 22 23  2  0
 23 24  1  0
 23 25  1  0
 25 26  2  0
 27 28  2  0
 27 29  1  0
 29 30  1  0
M  END
>  <DRUGBANK_ID>  (1) 
DB16173

>  <COMMON_NAME>  (1) 
Ganaplacide

>  <CAS_NUMBER>  (1) 
1261113-96-5

>  <UNII>  (1) 
85VMN9JU7A

>  <SYNONYMS>  (1) 
2-Amino-1-[2-(4-fluorophenyl)-3-[(4-fluorophenyl)amino]-5,6-dihydro-8,8-dimethylimidazo[1,2-a]pyrazin-7(8H)-yl]ethanone; Ganaplacide

$$$$
