
     RDKit          3D

  9  9  0  0  0  0  0  0  0  0999 V2000
    1.0009    0.0001   -0.0295 N   0  0  0  0  0  0  0  0  0  0  0  0
    0.3513    0.7677   -0.8821 C   0  0  0  0  0  0  0  0  0  0  0  0
   -0.9620    0.7848   -0.9058 N   0  0  0  0  0  0  0  0  0  0  0  0
    1.1122    1.5699   -1.8541 C   0  0  0  0  0  0  0  0  0  0  0  0
    2.1687    0.9727   -2.5608 C   0  0  0  0  0  0  0  0  0  0  0  0
    2.8974    1.6929   -3.5063 C   0  0  0  0  0  0  0  0  0  0  0  0
    2.5649    3.0159   -3.7789 C   0  0  0  0  0  0  0  0  0  0  0  0
    1.5015    3.6183   -3.1095 C   0  0  0  0  0  0  0  0  0  0  0  0
    0.7947    2.9109   -2.1304 C   0  0  0  0  0  0  0  0  0  0  0  0
  1  2  1  0
  2  3  2  0
  2  4  1  0
  4  5  2  0
  4  9  1  0
  5  6  1  0
  6  7  2  0
  7  8  1  0
  8  9  2  0
M  CHG  1   3   1
M  END
>  <DRUGBANK_ID>  (1) 
DB03127

>  <SECONDARY_ACCESSION_NUMBERS>  (1) 
EXPT00669

>  <COMMON_NAME>  (1) 
Benzamidine

>  <CAS_NUMBER>  (1) 
618-39-3

>  <UNII>  (1) 
KUE3ZY3J1F

$$$$
