
     RDKit          3D

 42 47  0  0  0  0  0  0  0  0999 V2000
    0.9904   -0.0025   -0.0715 C   0  0  0  0  0  0  0  0  0  0  0  0
    0.4916   -0.0216    1.3619 C   0  0  0  0  0  0  0  0  0  0  0  0
    0.9708    1.1316    2.0979 N   0  0  0  0  0  0  0  0  0  0  0  0
    1.7780    1.1386    3.2203 C   0  0  0  0  0  0  0  0  0  0  0  0
    1.8059    2.3648    3.7288 N   0  0  0  0  0  0  0  0  0  0  0  0
    1.1045    3.1787    2.8646 C   0  0  0  0  0  0  0  0  0  0  0  0
    0.5591    2.4269    1.8331 C   0  0  0  0  0  0  0  0  0  0  0  0
   -0.2194    3.0098    0.8249 C   0  0  0  0  0  0  0  0  0  0  0  0
   -0.3598    4.3881    0.8954 C   0  0  0  0  0  0  0  0  0  0  0  0
   -1.0894    4.9566   -0.1502 O   0  0  0  0  0  0  0  0  0  0  0  0
   -1.2266    6.3227   -0.1610 C   0  0  0  0  0  0  0  0  0  0  0  0
   -0.1125    7.1812   -0.1781 C   0  0  0  0  0  0  0  0  0  0  0  0
   -0.3181    8.5454   -0.1039 C   0  0  0  0  0  0  0  0  0  0  0  0
    0.7346    9.4056    0.2832 N   0  0  0  0  0  0  0  0  0  0  0  0
    0.6731   10.7019    0.7873 C   0  0  0  0  0  0  0  0  0  0  0  0
    1.6675   11.3783    0.9178 O   0  0  0  0  0  0  0  0  0  0  0  0
   -0.6617   11.2981    1.0421 C   0  0  0  0  0  0  0  0  0  0  0  0
   -1.7489   10.7253    1.7565 C   0  0  0  0  0  0  0  0  0  0  0  0
   -3.1103   11.0974    1.4784 C   0  0  0  0  0  0  0  0  0  0  0  0
   -3.3740   12.1916    0.6986 C   0  0  0  0  0  0  0  0  0  0  0  0
   -4.6484   12.6586    0.5255 O   0  0  0  0  0  0  0  0  0  0  0  0
   -4.9614   13.8764   -0.2122 C   0  0  0  0  0  0  0  0  0  0  0  0
   -4.4524   15.1890    0.4290 C   0  0  0  0  0  0  0  0  0  0  0  0
   -3.0116   15.3363    0.2830 N   0  0  0  0  0  0  0  0  0  0  0  0
   -2.3898   16.5479    0.7694 C   0  0  0  0  0  0  0  0  0  0  0  0
   -2.5966   17.6061   -0.3171 C   0  0  0  0  0  0  0  0  0  0  0  0
   -2.1305   17.2212   -1.6332 O   0  0  0  0  0  0  0  0  0  0  0  0
   -2.7287   16.0021   -2.0660 C   0  0  0  0  0  0  0  0  0  0  0  0
   -2.4314   14.9811   -1.0338 C   0  0  0  0  0  0  0  0  0  0  0  0
   -2.2061   12.8397    0.3654 C   0  0  0  0  0  0  0  0  0  0  0  0
   -0.9082   12.3764    0.2618 C   0  0  0  0  0  0  0  0  0  0  0  0
   -1.6067    8.9941   -0.3841 C   0  0  0  0  0  0  0  0  0  0  0  0
   -2.7242    8.1722   -0.3394 C   0  0  0  0  0  0  0  0  0  0  0  0
   -2.5346    6.8165   -0.2025 C   0  0  0  0  0  0  0  0  0  0  0  0
    0.1524    5.1532    1.8845 N   0  0  0  0  0  0  0  0  0  0  0  0
    0.8741    4.5608    2.8765 C   0  0  0  0  0  0  0  0  0  0  0  0
    2.4014   -0.0478    3.9249 C   0  0  0  0  0  0  0  0  0  0  0  0
    2.0311   -0.3219    5.1827 N   0  0  0  0  0  0  0  0  0  0  0  0
    2.7661   -1.4344    5.5547 O   0  0  0  0  0  0  0  0  0  0  0  0
    3.6114   -1.8416    4.5387 N   0  0  0  0  0  0  0  0  0  0  0  0
    3.3894   -1.0023    3.5252 C   0  0  0  0  0  0  0  0  0  0  0  0
    4.0719   -1.1212    2.3661 N   0  0  0  0  0  0  0  0  0  0  0  0
  1  2  1  0
  2  3  1  0
  3  4  1  0
  3  7  1  0
  4  5  2  0
  4 37  1  0
  5  6  1  0
  6  7  2  0
  6 36  1  0
  7  8  1  0
  8  9  2  0
  9 10  1  0
  9 35  1  0
 10 11  1  0
 11 12  2  0
 11 34  1  0
 12 13  1  0
 13 14  1  0
 13 32  2  0
 14 15  1  0
 15 16  2  0
 15 17  1  0
 17 18  2  0
 17 31  1  0
 18 19  1  0
 19 20  2  0
 20 21  1  0
 20 30  1  0
 21 22  1  0
 22 23  1  0
 23 24  1  0
 24 25  1  0
 24 29  1  0
 25 26  1  0
 26 27  1  0
 27 28  1  0
 28 29  1  0
 30 31  2  0
 32 33  1  0
 33 34  2  0
 35 36  2  0
 37 38  2  0
 37 41  1  0
 38 39  1  0
 39 40  1  0
 40 41  2  0
 41 42  1  0
M  END
>  <DRUGBANK_ID>  (1) 
DB17030

>  <COMMON_NAME>  (1) 
GSK-269962A

>  <CAS_NUMBER>  (1) 
850664-21-0

>  <UNII>  (1) 
F89KMM7TE2

>  <SYNONYMS>  (1) 
Benzamide, n-(3-((2-(4-amino-1,2,5-oxadiazol-3-yl)-1-ethyl-1h-imidazo(4,5-c)pyridin-6-yl)oxy)phenyl)-4-(2-(4-morpholinyl)ethoxy)-; N-(3-((2-(4-amino-1,2,5-oxadiazol-3-yl)-1-ethyl-1h-imidazo(4,5-c)pyridin-6-yl)oxy)phenyl)-4-(2-(4-morpholinyl)ethoxy)benzamide

$$$$
