1616
     RDKit          3D

 21 22  0  0  0  0  0  0  0  0999 V2000
    1.0018   -0.2573    0.0630 N   0  0  0  0  0  0  0  0  0  0  0  0
    0.5172   -0.3076    1.4483 C   0  0  0  0  0  0  0  0  0  0  0  0
    0.6587    0.9736   -0.6962 C   0  0  0  0  0  0  0  0  0  0  0  0
    0.8208    0.8125    2.5425 C   0  0  0  0  0  0  0  0  0  0  0  0
    1.3145    2.2349   -0.1589 C   0  0  0  0  0  0  0  0  0  0  0  0
    2.4131   -0.5471   -0.0195 C   0  0  0  0  0  0  0  0  0  0  0  0
    0.1396    2.2420    2.5412 C   0  0  0  0  0  0  0  0  0  0  0  0
    2.7548    2.5807    0.1587 C   0  0  0  0  0  0  0  0  0  0  0  0
    2.9875   -1.8024    0.5806 C   0  0  0  0  0  0  0  0  0  0  0  0
   -1.3312    2.2404    2.2767 C   0  0  0  0  0  0  0  0  0  0  0  0
    3.3953    2.7739   -1.1472 C   0  0  0  0  0  0  0  0  0  0  0  0
   -2.0669    1.0529    2.2925 C   0  0  0  0  0  0  0  0  0  0  0  0
    3.2806    4.0391   -1.6767 C   0  0  0  0  0  0  0  0  0  0  0  0
   -1.9722    3.4353    2.0111 C   0  0  0  0  0  0  0  0  0  0  0  0
    3.8929    1.7007   -1.8813 C   0  0  0  0  0  0  0  0  0  0  0  0
   -3.4313    1.0519    2.0562 C   0  0  0  0  0  0  0  0  0  0  0  0
    3.7112    4.2528   -2.9733 C   0  0  0  0  0  0  0  0  0  0  0  0
   -3.3673    3.4599    1.9890 C   0  0  0  0  0  0  0  0  0  0  0  0
    4.2818    1.9022   -3.1937 C   0  0  0  0  0  0  0  0  0  0  0  0
   -4.0785    2.2533    2.0075 C   0  0  0  0  0  0  0  0  0  0  0  0
    4.2035    3.1785   -3.7173 C   0  0  0  0  0  0  0  0  0  0  0  0
  1  2  1  0
  1  3  1  0
  1  6  1  0
  2  4  1  0
  3  5  1  0
  4  7  1  0
  5  8  1  0
  6  9  1  0
  7 10  1  0
  8 11  1  0
 10 12  2  0
 10 14  1  0
 11 13  2  0
 11 15  1  0
 12 16  1  0
 13 17  1  0
 14 18  2  0
 15 19  2  0
 16 20  2  0
 17 21  2  0
 18 20  1  0
 19 21  1  0
M  END
>  <DRUGBANK_ID>  (1) 
DB01616

>  <COMMON_NAME>  (1) 
Alverine

>  <CAS_NUMBER>  (1) 
150-59-4

>  <UNII>  (1) 
46TIR1560O

>  <SYNONYMS>  (1) 
Alverina; Alverine; Alverinum; Bis(gamma-phenylpropyl)ethylamine; Di(phenylpropyl)ethylamine; N-Ethyl-3-phenyl-N-(3-phenylpropyl)-1-propanamine; N-Ethyl-3,3'-diphenyldipropylamine; N-Ethyl-N-(3-phenylpropyl)benzenepropanamine; N,N-Bis(3-phenylpropyl)ethylamine; Phenopropamine; Phenpropamine

$$$$
