
     RDKit          3D

 20 21  0  0  0  0  0  0  0  0999 V2000
    1.0521   -0.0781   -0.2015 O   0  0  0  0  0  0  0  0  0  0  0  0
    0.4662    1.1670   -0.0955 C   0  0  0  0  0  0  0  0  0  0  0  0
    0.8619    2.1991   -0.8538 C   0  0  0  0  0  0  0  0  0  0  0  0
    0.3283    3.5291   -0.4948 C   0  0  0  0  0  0  0  0  0  0  0  0
    0.8700    4.7639   -1.2154 C   0  0  0  0  0  0  0  0  0  0  0  0
   -0.1742    5.4837   -2.0900 C   0  0  0  0  0  0  0  0  0  0  0  0
   -1.3805    6.0000   -1.3413 C   0  0  0  0  0  0  0  0  0  0  0  0
   -2.3868    5.1069   -0.9442 C   0  0  0  0  0  0  0  0  0  0  0  0
   -3.4498    5.5139   -0.1540 C   0  0  0  0  0  0  0  0  0  0  0  0
   -3.5847    6.8611    0.1744 C   0  0  0  0  0  0  0  0  0  0  0  0
   -2.5824    7.7665   -0.2082 C   0  0  0  0  0  0  0  0  0  0  0  0
   -1.4976    7.3436   -0.9815 C   0  0  0  0  0  0  0  0  0  0  0  0
   -4.8593    7.3086    0.8283 C   0  0  0  0  0  0  0  0  0  0  0  0
   -5.9454    6.9816    0.0698 F   0  0  0  0  0  0  0  0  0  0  0  0
   -5.0689    6.7348    2.0436 F   0  0  0  0  0  0  0  0  0  0  0  0
   -4.9320    8.6533    1.0192 F   0  0  0  0  0  0  0  0  0  0  0  0
   -0.5751    3.7024    0.4174 N   0  0  0  0  0  0  0  0  0  0  0  0
   -1.1734    2.6030    0.9363 N   0  0  0  0  0  0  0  0  0  0  0  0
   -0.6826    1.3338    0.8466 C   0  0  0  0  0  0  0  0  0  0  0  0
   -1.1672    0.3984    1.4837 O   0  0  0  0  0  0  0  0  0  0  0  0
  1  2  1  0
  2  3  2  0
  2 19  1  0
  3  4  1  0
  4  5  1  0
  4 17  2  0
  5  6  1  0
  6  7  1  0
  7  8  2  0
  7 12  1  0
  8  9  1  0
  9 10  2  0
 10 11  1  0
 10 13  1  0
 11 12  2  0
 13 14  1  0
 13 15  1  0
 13 16  1  0
 17 18  1  0
 18 19  1  0
 19 20  2  0
M  END
>  <DRUGBANK_ID>  (1) 
DB16067

>  <COMMON_NAME>  (1) 
Luvadaxistat

>  <CAS_NUMBER>  (1) 
1425511-32-5

>  <UNII>  (1) 
76IC00YRVR

>  <SYNONYMS>  (1) 
3(2H)-PYRIDAZINONE, 4-HYDROXY-6-(2-(4-(TRIFLUOROMETHYL)PHENYL)ETHYL)-; 4-HYDROXY-6-(2-(4-(TRIFLUOROMETHYL)PHENYL)ETHYL)-2,3-DIHYDROPYRIDAZIN-3-ONE

$$$$
