
     RDKit          3D

 20 21  0  0  0  0  0  0  0  0999 V2000
    2.1033   -0.7874    0.0029 C   0  0  0  0  0  0  0  0  0  0  0  0
    2.1594    0.6694   -0.0108 C   0  0  0  0  0  0  0  0  0  0  0  0
    0.9504   -1.4457   -0.0009 C   0  0  0  0  0  0  0  0  0  0  0  0
    0.9987    1.3603   -0.0123 C   0  0  0  0  0  0  0  0  0  0  0  0
   -1.9597    2.5177    0.0273 C   0  0  0  0  0  0  0  0  0  0  0  0
   -2.2900   -0.0466    0.0999 C   0  0  0  0  0  0  0  0  0  0  0  0
   -1.5256    1.0972    0.0164 C   0  0  0  0  0  0  0  0  0  0  0  0
   -0.2882   -0.7325   -0.0015 C   0  0  0  0  0  0  0  0  0  0  0  0
   -2.8300    2.9188   -1.1971 C   0  0  0  0  0  0  0  0  0  0  0  0
   -1.5190   -1.1619    0.0160 N   0  0  0  0  0  0  0  0  0  0  0  0
   -0.2084    0.6618   -0.0007 N   0  0  0  0  0  0  0  0  0  0  0  0
   -4.0472    2.1220   -1.2003 O   0  0  0  0  0  0  0  0  0  0  0  0
   -2.5149    4.8993    0.1902 O   0  0  0  0  0  0  0  0  0  0  0  0
   -2.3904    5.2089   -2.3272 O   0  0  0  0  0  0  0  0  0  0  0  0
   -3.8719    6.1321   -1.1500 O   0  0  0  0  0  0  0  0  0  0  0  0
   -3.1647    2.9109   -3.5857 O   0  0  0  0  0  0  0  0  0  0  0  0
   -0.8181    3.8696   -2.4463 O   0  0  0  0  0  0  0  0  0  0  0  0
   -0.9821    2.3746   -3.9724 O   0  0  0  0  0  0  0  0  0  0  0  0
   -3.3944    4.6594   -1.1716 P   0  0  0  0  0  0  0  0  0  0  0  0
   -1.8290    2.6240   -2.7004 P   0  0  0  0  0  0  0  0  0  0  0  0
  2  1  1  0
  3  1  2  0
  4  2  2  0
  7  5  1  0
  7  6  2  0
  8  3  1  0
  9  5  1  0
 10  6  1  0
 10  8  2  0
 11  4  1  0
 11  7  1  0
 11  8  1  0
 12  9  1  0
 19  9  1  0
 19 13  1  0
 19 14  1  0
 19 15  2  0
 20  9  1  0
 20 16  1  0
 20 17  1  0
 20 18  2  0
M  END
>  <DRUGBANK_ID>  (1) 
DB06548

>  <COMMON_NAME>  (1) 
Minodronic acid

>  <CAS_NUMBER>  (1) 
180064-38-4

>  <UNII>  (1) 
40SGR63TGL

>  <SYNONYMS>  (1) 
Minodronate; Minodronic acid

$$$$
