
     RDKit          3D

 24 24  0  0  0  0  0  0  0  0999 V2000
   -0.1249    0.6952   -0.0248 C   0  0  0  0  0  0  0  0  0  0  0  0
   -0.1055   -0.7026   -0.0010 C   0  0  0  0  0  0  0  0  0  0  0  0
   -1.3095   -1.4148    0.0030 C   0  0  0  0  0  0  0  0  0  0  0  0
   -1.3481    1.3715   -0.0527 C   0  0  0  0  0  0  0  0  0  0  0  0
   -2.5505    0.6562   -0.0597 C   0  0  0  0  0  0  0  0  0  0  0  0
   -2.5441   -0.7460   -0.0470 C   0  0  0  0  0  0  0  0  0  0  0  0
   -3.8344   -1.5353    0.0096 C   0  0  0  0  0  0  0  0  0  0  0  0
   -3.9125   -2.5197   -1.0751 N   0  0  0  0  0  0  0  0  0  0  0  0
   -4.0429   -3.8483   -0.7919 C   0  0  0  0  0  0  0  0  0  0  0  0
   -4.1467   -4.7770   -1.8132 N   0  0  0  0  0  0  0  0  0  0  0  0
   -4.2613   -6.1475   -1.6444 C   0  0  0  0  0  0  0  0  0  0  0  0
   -4.3647   -6.9544   -2.7407 N   0  0  0  0  0  0  0  0  0  0  0  0
   -4.4885   -8.4121   -2.6837 C   0  0  0  0  0  0  0  0  0  0  0  0
   -5.7888   -8.8754   -3.3320 C   0  0  0  0  0  0  0  0  0  0  0  0
   -5.7727   -8.6508   -4.8407 C   0  0  0  0  0  0  0  0  0  0  0  0
   -4.6217   -9.4107   -5.5111 C   0  0  0  0  0  0  0  0  0  0  0  0
   -4.7420  -10.9271   -5.3068 C   0  0  0  0  0  0  0  0  0  0  0  0
   -6.0225  -11.4824   -5.9409 C   0  0  0  0  0  0  0  0  0  0  0  0
   -6.0843  -11.1993   -7.4434 C   0  0  0  0  0  0  0  0  0  0  0  0
   -4.9129  -11.8470   -8.1650 C   0  0  0  0  0  0  0  0  0  0  0  0
    1.3199    1.6440   -0.0112 Cl  0  0  0  0  0  0  0  0  0  0  0  0
    1.3661   -1.6078    0.0128 Cl  0  0  0  0  0  0  0  0  0  0  0  0
   -4.0482   -4.2003    0.4565 N   0  0  0  0  0  0  0  0  0  0  0  0
   -4.2736   -6.6166   -0.4414 N   0  0  0  0  0  0  0  0  0  0  0  0
  1  2  2  0
  1 21  1  0
  2  3  1  0
  2 22  1  0
  3  6  2  0
  4  1  1  0
  5  4  2  0
  5  6  1  0
  6  7  1  0
  7  8  1  0
  8  9  1  0
  9 10  1  0
  9 23  2  0
 10 11  1  0
 11 12  1  0
 11 24  2  0
 12 13  1  0
 13 14  1  0
 14 15  1  0
 15 16  1  0
 16 17  1  0
 17 18  1  0
 18 19  1  0
 19 20  1  0
M  END
>  <DRUGBANK_ID>  (1) 
DB16889

>  <COMMON_NAME>  (1) 
Olanexidine

>  <CAS_NUMBER>  (1) 
146510-36-3

>  <UNII>  (1) 
92C2328G7P

$$$$
