
     RDKit          3D

 14 15  0  0  0  0  0  0  0  0999 V2000
    0.9317    0.0699    0.0017 C   0  0  0  0  0  0  0  0  0  0  0  0
    0.4059    1.3586    0.4112 N   0  0  0  0  0  0  0  0  0  0  0  0
   -0.7917    1.6087    1.0792 C   0  0  0  0  0  0  0  0  0  0  0  0
   -1.4312    0.7913    1.7212 O   0  0  0  0  0  0  0  0  0  0  0  0
   -1.1255    2.9587    0.8628 N   0  0  0  0  0  0  0  0  0  0  0  0
   -0.1791    3.5848   -0.0495 C   0  0  2  0  0  0  0  0  0  0  0  0
    1.0056    2.6032    0.0497 C   0  0  1  0  0  0  0  0  0  0  0  0
    1.8175    3.2123    1.0896 N   0  0  0  0  0  0  0  0  0  0  0  0
    1.5262    4.5810    1.1720 C   0  0  0  0  0  0  0  0  0  0  0  0
    2.1510    5.4092    1.8213 O   0  0  0  0  0  0  0  0  0  0  0  0
    0.3921    4.8294    0.3972 N   0  0  0  0  0  0  0  0  0  0  0  0
   -0.2046    6.1305    0.1732 C   0  0  0  0  0  0  0  0  0  0  0  0
    2.4258    2.4833    2.1842 C   0  0  0  0  0  0  0  0  0  0  0  0
   -2.3135    3.6097    1.3601 C   0  0  0  0  0  0  0  0  0  0  0  0
  1  2  1  0
  2  3  1  0
  3  4  2  0
  3  5  1  0
  5 14  1  0
  6  5  1  1
  6  7  1  0
  6 11  1  0
  7  2  1  1
  7  8  1  0
  8  9  1  0
  8 13  1  0
  9 10  2  0
  9 11  1  0
 11 12  1  0
M  END
>  <DRUGBANK_ID>  (1) 
DB13522

>  <COMMON_NAME>  (1) 
Mebicar

>  <CAS_NUMBER>  (1) 
10095-06-4

>  <UNII>  (1) 
55FE6NPG89

>  <SYNONYMS>  (1) 
Tetramethylglycoluril

$$$$
