
     RDKit          3D

 21 24  0  0  0  0  0  0  0  0999 V2000
    1.1208   -0.3575   -0.0586 Br  0  0  0  0  0  0  0  0  0  0  0  0
    2.6425    3.6953   -0.0540 O   0  0  0  0  0  0  0  0  0  0  0  0
    8.1345    2.6213   -0.0859 O   0  0  0  0  0  0  0  0  0  0  0  0
    5.9908    4.8065   -0.0743 N   0  0  0  0  0  0  0  0  0  0  0  0
    7.0929    0.5095   -0.0821 N   0  0  0  0  0  0  0  0  0  0  0  0
    5.6849    2.3846   -0.0741 C   0  0  0  0  0  0  0  0  0  0  0  0
    5.2205    3.6567   -0.0705 C   0  0  0  0  0  0  0  0  0  0  0  0
    4.9165    1.1511   -0.0711 C   0  0  0  0  0  0  0  0  0  0  0  0
    5.7678    0.0521   -0.0752 C   0  0  0  0  0  0  0  0  0  0  0  0
    3.8433    5.6610   -0.0612 C   0  0  0  0  0  0  0  0  0  0  0  0
    5.2026    5.9473   -0.0685 C   0  0  0  0  0  0  0  0  0  0  0  0
    3.7507    4.2091   -0.0615 C   0  0  0  0  0  0  0  0  0  0  0  0
    7.1409    1.9199   -0.0816 C   0  0  0  0  0  0  0  0  0  0  0  0
    3.5622    0.9785   -0.0668 C   0  0  0  0  0  0  0  0  0  0  0  0
    5.2424   -1.2392   -0.0723 C   0  0  0  0  0  0  0  0  0  0  0  0
    2.8407    6.6249   -0.0537 C   0  0  0  0  0  0  0  0  0  0  0  0
    5.6029    7.2591   -0.0702 C   0  0  0  0  0  0  0  0  0  0  0  0
    3.0066   -0.2752   -0.0628 C   0  0  0  0  0  0  0  0  0  0  0  0
    3.8341   -1.3909   -0.0639 C   0  0  0  0  0  0  0  0  0  0  0  0
    3.2525    7.9546   -0.0527 C   0  0  0  0  0  0  0  0  0  0  0  0
    4.6248    8.2650   -0.0623 C   0  0  0  0  0  0  0  0  0  0  0  0
  1 18  1  0
  2 12  2  0
  3 13  2  0
  4  7  1  0
  4 11  1  0
  5  9  1  0
  5 13  1  0
  6  7  2  0
  6  8  1  0
  6 13  1  0
  7 12  1  0
  8  9  2  0
  8 14  1  0
  9 15  1  0
 10 11  2  0
 10 12  1  0
 10 16  1  0
 11 17  1  0
 14 18  2  0
 15 19  2  0
 16 20  2  0
 17 21  2  0
 18 19  1  0
 20 21  1  0
M  END
>  <DRUGBANK_ID>  (1) 
DB07493

>  <COMMON_NAME>  (1) 
5-Bromoindirubin

>  <CAS_NUMBER>  (1) 
60874-72-8

>  <SYNONYMS>  (1) 
(2Z)-5'-bromo-2,3'-biindole-2',3(1H,1'H)-dione ammoniate

$$$$
