
     RDKit          3D

 17 17  0  0  0  0  0  0  0  0999 V2000
    1.3753   -0.2021    0.1347 C   0  0  0  0  0  0  0  0  0  0  0  0
   -0.8536   -1.1353    0.0458 C   0  0  0  0  0  0  0  0  0  0  0  0
    0.5529   -1.3216    0.0637 C   0  0  0  0  0  0  0  0  0  0  0  0
   -1.4780    0.1315    0.0067 C   0  0  0  0  0  0  0  0  0  0  0  0
    0.7441    1.0672    0.1791 C   0  0  0  0  0  0  0  0  0  0  0  0
   -0.6502    1.2520    0.1321 C   0  0  0  0  0  0  0  0  0  0  0  0
    2.8858   -0.1808    0.2455 C   0  0  0  0  0  0  0  0  0  0  0  0
   -3.2406    0.3294   -0.2973 S   0  0  0  0  0  0  0  0  0  0  0  0
    0.8722   -2.6552   -0.0011 O   0  0  0  0  0  0  0  0  0  0  0  0
   -0.9770    2.5868    0.2169 O   0  0  0  0  0  0  0  0  0  0  0  0
    3.5174    1.6688   -1.2853 N   0  0  0  0  0  0  0  0  0  0  0  0
    3.6430    0.2312   -1.0334 C   0  0  0  0  0  0  0  0  0  0  0  0
   -3.9952   -1.2953   -0.4053 C   0  0  0  0  0  0  0  0  0  0  0  0
   -2.3055    2.9599    0.5570 C   0  0  0  0  0  0  0  0  0  0  0  0
    2.2205   -3.0837   -0.0588 C   0  0  0  0  0  0  0  0  0  0  0  0
    5.1233   -0.1225   -0.8719 C   0  0  0  0  0  0  0  0  0  0  0  0
   -3.5777   -1.9879   -1.6832 C   0  0  0  0  0  0  0  0  0  0  0  0
  2  3  1  0
  2  4  2  0
  3  1  2  0
  4  6  1  0
  5  1  1  0
  6  5  2  0
  7  1  1  0
  8  4  1  0
  9  3  1  0
 10  6  1  0
 11 12  1  0
 12  7  1  0
 13  8  1  0
 14 10  1  0
 15  9  1  0
 16 12  1  0
 17 13  1  0
M  END
>  <DRUGBANK_ID>  (1) 
DB13940

>  <COMMON_NAME>  (1) 
2,5-Dimethoxy-4-ethylthioamphetamine

>  <CAS_NUMBER>  (1) 
185562-00-9

>  <UNII>  (1) 
Z1I419DRZZ

>  <SYNONYMS>  (1) 
2,5-Dimethoxy-4-ethylthioamphetamine; 4-(Ethylthio)-2,5-dimethoxy-alpha-methylbenzeneethanamine; ALEPH-2

$$$$
