
     RDKit          3D

 27 27  0  0  0  0  0  0  0  0999 V2000
   -2.0744   -3.4623   -6.5503 N   0  0  0  0  0  0  0  0  0  0  0  0
   -1.2043   -3.4632   -1.2081 C   0  0  0  0  0  0  0  0  0  0  0  0
   -1.8667   -4.5343   -0.5894 N   0  0  0  0  0  0  0  0  0  0  0  0
   -3.3540   -4.6363   -0.3251 C   0  0  1  0  0  0  0  0  0  0  0  0
   -2.7476   -3.5481   -5.2663 C   0  0  0  0  0  0  0  0  0  0  0  0
    0.1940   -3.7794   -1.7862 C   0  0  0  0  0  0  0  0  0  0  0  0
   -4.1827   -3.6238   -1.1835 C   0  0  1  0  0  0  0  0  0  0  0  0
   -1.6816   -2.3487   -6.9188 O   0  0  0  0  0  0  0  0  0  0  0  0
   -2.9232   -8.0334    2.7306 C   0  0  0  0  0  0  0  0  0  0  0  0
   -2.0962   -7.5128   -0.2670 C   0  0  0  0  0  0  0  0  0  0  0  0
   -1.9218   -4.5213   -7.1778 O   0  0  0  0  0  0  0  0  0  0  0  0
   -3.7974   -3.6587   -2.6722 C   0  0  0  0  0  0  0  0  0  0  0  0
   -1.7103   -2.3448   -1.3001 O   0  0  0  0  0  0  0  0  0  0  0  0
   -4.0030   -6.0647   -0.5698 C   0  0  0  0  0  0  0  0  0  0  0  0
   -3.2870   -8.9909    3.6019 O   0  0  0  0  0  0  0  0  0  0  0  0
   -3.3628   -7.1968    0.0387 O   0  0  0  0  0  0  0  0  0  0  0  0
   -3.6580   -7.0767    2.5036 O   0  0  0  0  0  0  0  0  0  0  0  0
   -1.4259   -6.9858   -1.1475 O   0  0  0  0  0  0  0  0  0  0  0  0
   -2.4857   -4.6609   -4.4896 C   0  0  0  0  0  0  0  0  0  0  0  0
   -3.5465   -2.5005   -4.7908 C   0  0  0  0  0  0  0  0  0  0  0  0
   -4.0319   -2.5384   -3.4768 C   0  0  0  0  0  0  0  0  0  0  0  0
   -3.0346   -4.7142   -3.2252 C   0  0  0  0  0  0  0  0  0  0  0  0
   -1.5488   -8.2060    2.1204 C   0  0  0  0  0  0  0  0  0  0  0  0
   -1.5458   -8.5730    0.6405 C   0  0  0  0  0  0  0  0  0  0  0  0
    0.2856   -3.5324   -3.5471 Cl  0  0  0  0  0  0  0  0  0  0  0  0
    1.3506   -2.6631   -1.0300 Cl  0  0  0  0  0  0  0  0  0  0  0  0
   -5.5868   -3.8555   -1.0411 O   0  0  0  0  0  0  0  0  0  0  0  0
  2  3  1  0
  4 14  1  6
  4  7  1  0
  4  3  1  0
  5  1  1  0
  6  2  1  0
  7 27  1  6
  7 12  1  0
  8  1  1  0
  9 23  1  0
 10 16  1  0
 11  1  2  0
 12 22  2  0
 12 21  1  0
 13  2  2  0
 15  9  1  0
 16 14  1  0
 17  9  2  0
 18 10  2  0
 19  5  2  0
 20  5  1  0
 21 20  2  0
 22 19  1  0
 23 24  1  0
 24 10  1  0
 25  6  1  0
 26  6  1  0
M  CHG  2   1   1   8  -1
M  END
>  <DRUGBANK_ID>  (1) 
DB07565

>  <COMMON_NAME>  (1) 
Chloramphenicol succinate

>  <CAS_NUMBER>  (1) 
3544-94-3

>  <UNII>  (1) 
ZCX619U9A1

>  <SYNONYMS>  (1) 
Chloramphenicol hemisuccinate

$$$$
