772
     RDKit          3D

 17 18  0  0  0  0  0  0  0  0999 V2000
    2.4304    0.7692   -0.0559 C   0  0  0  0  0  0  0  0  0  0  0  0
    1.1928    1.3900    0.0570 C   0  0  0  0  0  0  0  0  0  0  0  0
    0.0208    0.6307    0.0871 C   0  0  0  0  0  0  0  0  0  0  0  0
    0.0636   -0.7895    0.0867 C   0  0  0  0  0  0  0  0  0  0  0  0
    1.3635   -1.3887    0.0666 C   0  0  0  0  0  0  0  0  0  0  0  0
    2.5181   -0.6171   -0.0599 C   0  0  0  0  0  0  0  0  0  0  0  0
   -1.2060    1.3060    0.0545 C   0  0  0  0  0  0  0  0  0  0  0  0
   -2.3709    0.5951   -0.1536 C   0  0  0  0  0  0  0  0  0  0  0  0
   -2.2936   -0.7842   -0.0560 C   0  0  0  0  0  0  0  0  0  0  0  0
   -1.1165   -1.4769    0.0798 N   0  0  0  0  0  0  0  0  0  0  0  0
    1.4867   -2.7471    0.2661 O   0  0  0  0  0  0  0  0  0  0  0  0
    2.5182   -3.8204   -0.3478 P   0  0  0  0  0  0  0  0  0  0  0  0
    2.0361   -5.2300   -0.3743 O   0  0  0  0  0  0  0  0  0  0  0  0
    2.8439   -3.2084   -1.7951 O   0  0  0  0  0  0  0  0  0  0  0  0
   -3.5138   -1.5330   -0.0052 C   0  0  0  0  0  0  0  0  0  0  0  0
   -4.5615   -2.0618    0.0676 N   0  0  0  0  0  0  0  0  0  0  0  0
    3.9513   -3.5630    0.3328 O   0  0  0  0  0  0  0  0  0  0  0  0
  1  2  2  0
  1  6  1  0
  2  3  1  0
  3  4  2  0
  3  7  1  0
  4  5  1  0
  4 10  1  0
  5  6  2  0
  5 11  1  0
  7  8  2  0
  8  9  1  0
  9 10  2  0
  9 15  1  0
 11 12  1  0
 12 13  2  0
 12 14  1  0
 12 17  1  0
 15 16  3  0
M  END
>  <DRUGBANK_ID>  (1) 
DB02762

>  <SECONDARY_ACCESSION_NUMBERS>  (1) 
EXPT00300

>  <COMMON_NAME>  (1) 
RU79072

$$$$
