LEH
     RDKit          3D

 27 27  0  0  0  0  0  0  0  0999 V2000
    0.9626    0.6339    0.2229 O   0  0  0  0  0  0  0  0  0  0  0  0
    2.1770    0.5192    0.0101 C   0  0  0  0  0  0  0  0  0  0  0  0
    2.9314    0.2177    1.1304 N   0  0  0  0  0  0  0  0  0  0  0  0
    4.3692   -0.0201    1.3607 C   0  0  1  0  0  0  0  0  0  0  0  0
    5.1037   -0.2356    0.0711 C   0  0  0  0  0  0  0  0  0  0  0  0
    4.6021   -1.5234   -0.6882 C   0  0  0  0  0  0  0  0  0  0  0  0
    3.1224   -2.1232   -0.2757 C   0  0  0  0  0  0  0  0  0  0  0  0
    5.1277   -1.3645   -2.1783 C   0  0  0  0  0  0  0  0  0  0  0  0
    4.9294    1.1936    2.1293 C   0  0  0  0  0  0  0  0  0  0  0  0
    5.7230    0.8655    3.1877 O   0  0  0  0  0  0  0  0  0  0  0  0
    4.6962    2.3382    1.8422 O   0  0  0  0  0  0  0  0  0  0  0  0
    2.7182    0.4829   -1.5048 C   0  0  0  0  0  0  0  0  0  0  0  0
    2.4073   -0.7920   -2.4671 C   0  0  0  0  0  0  0  0  0  0  0  0
    0.9231   -0.9837   -2.5933 C   0  0  0  0  0  0  0  0  0  0  0  0
    0.5200    0.2818   -3.3038 C   0  0  0  0  0  0  0  0  0  0  0  0
    1.3505    0.3757   -4.6062 C   0  0  0  0  0  0  0  0  0  0  0  0
    1.0908   -0.9124   -5.4109 C   0  0  0  0  0  0  0  0  0  0  0  0
   -0.4095   -0.9508   -5.6912 C   0  0  0  0  0  0  0  0  0  0  0  0
   -0.7655    0.3471   -6.4125 C   0  0  0  0  0  0  0  0  0  0  0  0
    0.0747    0.4149   -7.6990 C   0  0  0  0  0  0  0  0  0  0  0  0
   -0.3618   -0.6991   -8.6501 C   0  0  0  0  0  0  0  0  0  0  0  0
   -1.8698   -0.6552   -8.9277 C   0  0  0  0  0  0  0  0  0  0  0  0
   -2.2751    0.5823   -9.5701 N   0  0  0  0  0  0  0  0  0  0  0  0
   -2.8582    0.6866  -10.7984 C   0  0  0  0  0  0  0  0  0  0  0  0
   -2.8444    2.0328  -11.0817 C   0  0  0  0  0  0  0  0  0  0  0  0
   -2.3389    2.7516  -10.0395 N   0  0  0  0  0  0  0  0  0  0  0  0
   -2.1069    1.8598   -9.1092 C   0  0  0  0  0  0  0  0  0  0  0  0
  1  2  2  0
  2  3  1  0
  2 12  1  0
  4  3  1  0
  4  9  1  0
  4  5  1  6
  6  5  1  0
  6  7  1  0
  8  6  1  0
  9 10  1  0
 11  9  2  0
 12 13  1  0
 14 13  1  0
 15 14  1  0
 15 16  1  0
 17 16  1  0
 17 18  1  0
 18 19  1  0
 19 20  1  0
 20 21  1  0
 21 22  1  0
 22 23  1  0
 23 27  1  0
 24 23  1  0
 24 25  2  0
 25 26  1  0
 27 26  2  0
M  END
>  <DRUGBANK_ID>  (1) 
DB08086

>  <COMMON_NAME>  (1) 
N-[12-(1H-imidazol-1-yl)dodecanoyl]-L-leucine

$$$$
