
     RDKit          3D

 29 31  0  0  0  0  0  0  0  0999 V2000
    1.8178    0.1518   -0.0014 C   0  0  0  0  0  0  0  0  0  0  0  0
    1.1071   -1.5170    0.2534 C   0  0  0  0  0  0  0  0  0  0  0  0
    1.5478   -2.7282    0.8595 N   0  0  0  0  0  0  0  0  0  0  0  0
    0.7524   -3.8981    0.2142 C   0  0  0  0  0  0  0  0  0  0  0  0
    0.9121   -4.3157   -1.2782 C   0  0  0  0  0  0  0  0  0  0  0  0
    2.9184   -2.5350    0.5184 C   0  0  0  0  0  0  0  0  0  0  0  0
    3.1342   -2.3345   -1.0126 C   0  0  0  0  0  0  0  0  0  0  0  0
    2.3218   -1.1869   -2.0811 C   0  0  0  0  0  0  0  0  0  0  0  0
    3.1361   -0.6829   -2.8860 O   0  0  0  0  0  0  0  0  0  0  0  0
    0.7249   -0.8785   -2.2268 N   0  0  0  0  0  0  0  0  0  0  0  0
   -0.6603   -0.6307   -1.2172 C   0  0  0  0  0  0  0  0  0  0  0  0
   -0.7852    0.1014    0.1163 C   0  0  0  0  0  0  0  0  0  0  0  0
   -1.5694   -0.2107    1.2600 C   0  0  0  0  0  0  0  0  0  0  0  0
   -2.4237   -1.2501    1.1228 C   0  0  0  0  0  0  0  0  0  0  0  0
   -2.5131   -1.8759   -0.1389 C   0  0  0  0  0  0  0  0  0  0  0  0
   -1.6887   -1.5814   -1.2961 C   0  0  0  0  0  0  0  0  0  0  0  0
   -1.8003   -2.7472   -2.6218 S   0  0  0  0  0  0  0  0  0  0  0  0
   -0.8397   -1.8701   -3.8150 C   0  0  0  0  0  0  0  0  0  0  0  0
    0.2851   -1.0749   -3.5530 C   0  0  0  0  0  0  0  0  0  0  0  0
    0.9272   -0.3511   -4.5658 C   0  0  0  0  0  0  0  0  0  0  0  0
    0.3768   -0.3439   -5.8305 C   0  0  0  0  0  0  0  0  0  0  0  0
   -0.7595   -1.1255   -6.0554 C   0  0  0  0  0  0  0  0  0  0  0  0
   -1.3419   -1.9115   -5.0856 C   0  0  0  0  0  0  0  0  0  0  0  0
    0.9668    0.4887   -6.8048 N   0  0  0  0  0  0  0  0  0  0  0  0
    0.5739    0.6325   -8.0940 C   0  0  0  0  0  0  0  0  0  0  0  0
    1.2160    1.3661   -8.8999 O   0  0  0  0  0  0  0  0  0  0  0  0
   -0.5227   -0.0471   -8.4152 O   0  0  0  0  0  0  0  0  0  0  0  0
   -1.1232   -0.0330   -9.7041 C   0  0  0  0  0  0  0  0  0  0  0  0
   -1.6432    1.3480  -10.0130 C   0  0  0  0  0  0  0  0  0  0  0  0
  1  2  1  0
  2  3  1  0
  3  4  1  0
  3  6  1  0
  4  5  1  0
  6  7  1  0
  7  8  1  0
  8  9  2  0
  8 10  1  0
 10 11  1  0
 10 19  1  0
 11 12  1  0
 11 16  2  0
 12 13  2  0
 13 14  1  0
 14 15  2  0
 15 16  1  0
 16 17  1  0
 17 18  1  0
 18 19  2  0
 18 23  1  0
 19 20  1  0
 20 21  2  0
 21 22  1  0
 21 24  1  0
 22 23  2  0
 24 25  1  0
 25 26  2  0
 25 27  1  0
 27 28  1  0
 28 29  1  0
M  END
>  <DRUGBANK_ID>  (1) 
DB13645

>  <COMMON_NAME>  (1) 
Ethacizine

>  <CAS_NUMBER>  (1) 
33414-33-4

>  <UNII>  (1) 
FE5SPV1Z6G

$$$$
