
     RDKit          3D

 19 21  0  0  1  0  0  0  0  0999 V2000
    1.6705    0.4391    0.2625 O   0  0  0  0  0  0  0  0  0  0  0  0
   -1.9134    0.8356    0.0646 O   0  0  0  0  0  0  0  0  0  0  0  0
   -0.7516   -1.5229    0.6527 O   0  0  0  0  0  0  0  0  0  0  0  0
    1.4218   -1.7705   -2.6372 O   0  0  0  0  0  0  0  0  0  0  0  0
    2.8336    6.1507   -2.0726 O   0  0  0  0  0  0  0  0  0  0  0  0
    0.8467    2.5995   -0.0335 N   0  0  0  0  0  0  0  0  0  0  0  0
    1.0672    2.5383   -2.4899 N   0  0  0  0  0  0  0  0  0  0  0  0
    1.6747    4.6523    0.2717 N   0  0  0  0  0  0  0  0  0  0  0  0
    2.1323    4.4488   -3.4538 N   0  0  0  0  0  0  0  0  0  0  0  0
   -0.6151    0.6090   -0.4724 C   0  0  1  0  0  0  0  0  0  0  0  0
    0.4870    1.2570    0.3581 C   0  0  1  0  0  0  0  0  0  0  0  0
   -0.1951   -0.8498   -0.4843 C   0  0  1  0  0  0  0  0  0  0  0  0
    1.3352   -0.7971   -0.3923 C   0  0  1  0  0  0  0  0  0  0  0  0
    2.0644   -0.8777   -1.7402 C   0  0  0  0  0  0  0  0  0  0  0  0
    1.1664    3.0817   -1.2655 C   0  0  0  0  0  0  0  0  0  0  0  0
    1.1274    3.6086    0.8607 C   0  0  0  0  0  0  0  0  0  0  0  0
    1.7234    4.3211   -1.0648 C   0  0  0  0  0  0  0  0  0  0  0  0
    2.2741    5.0643   -2.2062 C   0  0  0  0  0  0  0  0  0  0  0  0
    1.5640    3.2876   -3.5283 C   0  0  0  0  0  0  0  0  0  0  0  0
  1 11  1  0
  1 13  1  0
  4 14  1  0
  5 18  2  0
  6 15  1  0
  6 16  1  0
  7 15  1  0
  7 19  1  0
  8 16  2  0
  8 17  1  0
  9 18  1  0
  9 19  2  0
 10  2  1  1
 10 11  1  0
 10 12  1  0
 11  6  1  6
 12  3  1  1
 12 13  1  0
 13 14  1  6
 15 17  2  0
 17 18  1  0
M  END
>  <DRUGBANK_ID>  (1) 
DB04335

>  <SECONDARY_ACCESSION_NUMBERS>  (1) 
EXPT02378

>  <COMMON_NAME>  (1) 
Inosine

>  <CAS_NUMBER>  (1) 
58-63-9

>  <UNII>  (1) 
5A614L51CT

>  <SYNONYMS>  (1) 
9-β-D-ribofuranosyl-9H-purin-6-ol; 9-β-D-ribofuranosylhypoxanthine; beta-Inosine; hypoxanthine D-riboside; Hypoxanthosine; INO; Inosin; Inosina; Inosine; Inosinum

$$$$
