
     RDKit          3D

 38 42  0  0  1  0  0  0  0  0999 V2000
    1.0647   -0.0766   -0.0238 C   0  0  0  0  0  0  0  0  0  0  0  0
    0.6312    1.3825    0.0162 C   0  0  0  0  0  0  0  0  0  0  0  0
    1.0821    2.1466   -1.1509 N   0  0  0  0  0  0  0  0  0  0  0  0
    0.0483    2.6271   -2.0594 C   0  0  0  0  0  0  0  0  0  0  0  0
    2.4689    2.3185   -1.3344 C   0  0  0  0  0  0  0  0  0  0  0  0
    3.3014    1.8454   -0.5759 O   0  0  0  0  0  0  0  0  0  0  0  0
    3.0031    3.0572   -2.5078 C   0  0  0  0  0  0  0  0  0  0  0  0
    4.1261    2.5455   -3.1867 C   0  0  0  0  0  0  0  0  0  0  0  0
    4.7093    3.2555   -4.2527 C   0  0  0  0  0  0  0  0  0  0  0  0
    4.1684    4.4769   -4.6641 C   0  0  0  0  0  0  0  0  0  0  0  0
    3.0640    4.9831   -3.9564 C   0  0  0  0  0  0  0  0  0  0  0  0
    2.5273    4.3060   -2.8733 C   0  0  0  0  0  0  0  0  0  0  0  0
    1.6010    4.9558   -2.1589 F   0  0  0  0  0  0  0  0  0  0  0  0
    4.7641    5.3254   -5.6996 C   0  0  0  0  0  0  0  0  0  0  0  0
    4.7806    4.8884   -6.9887 N   0  0  0  0  0  0  0  0  0  0  0  0
    5.1588    5.7789   -7.9523 C   0  0  0  0  0  0  0  0  0  0  0  0
    5.4863    7.0967   -7.6635 C   0  0  0  0  0  0  0  0  0  0  0  0
    5.3694    7.5276   -6.3373 C   0  0  0  0  0  0  0  0  0  0  0  0
    5.1130    6.6186   -5.3379 C   0  0  0  0  0  0  0  0  0  0  0  0
    6.0850    8.0266   -8.6973 C   0  0  2  0  0  0  0  0  0  0  0  0
    5.8535    7.4835  -10.1045 C   0  0  0  0  0  0  0  0  0  0  0  0
    6.2393    8.2562  -11.2252 C   0  0  0  0  0  0  0  0  0  0  0  0
    6.3247    7.6880  -12.4936 C   0  0  0  0  0  0  0  0  0  0  0  0
    5.9381    6.3654  -12.6744 C   0  0  0  0  0  0  0  0  0  0  0  0
    5.5129    5.5996  -11.5788 C   0  0  0  0  0  0  0  0  0  0  0  0
    5.4899    6.1443  -10.2868 C   0  0  0  0  0  0  0  0  0  0  0  0
    5.1893    5.2852   -9.2466 O   0  0  0  0  0  0  0  0  0  0  0  0
    7.6700    8.2919   -8.4331 C   0  0  0  0  0  0  0  0  0  0  0  0
    8.0835    8.0213   -6.9660 C   0  0  0  0  0  0  0  0  0  0  0  0
    8.4482    7.3360   -9.3439 C   0  0  0  0  0  0  0  0  0  0  0  0
    8.0418    9.7775   -8.7162 C   0  0  0  0  0  0  0  0  0  0  0  0
    7.1484   10.5926   -8.9889 O   0  0  0  0  0  0  0  0  0  0  0  0
    9.3226   10.2967   -8.6413 N   0  0  0  0  0  0  0  0  0  0  0  0
   10.4047    9.7231   -8.0062 C   0  0  0  0  0  0  0  0  0  0  0  0
   10.9465   10.0990   -6.8683 N   0  0  0  0  0  0  0  0  0  0  0  0
   11.8919    9.1720   -6.4279 N   0  0  0  0  0  0  0  0  0  0  0  0
   12.1131    8.2388   -7.3299 C   0  0  0  0  0  0  0  0  0  0  0  0
   11.4155    8.6156   -8.8487 S   0  0  0  0  0  0  0  0  0  0  0  0
  1  2  1  0
  2  3  1  0
  3  4  1  0
  3  5  1  0
  5  6  2  0
  5  7  1  0
  7  8  2  0
  7 12  1  0
  8  9  1  0
  9 10  2  0
 10 11  1  0
 10 14  1  0
 11 12  2  0
 12 13  1  0
 14 15  2  0
 14 19  1  0
 15 16  1  0
 16 17  2  0
 16 27  1  0
 17 18  1  0
 18 19  2  0
 20 17  1  0
 20 21  1  0
 20 28  1  1
 21 22  1  0
 21 26  2  0
 22 23  2  0
 23 24  1  0
 24 25  2  0
 25 26  1  0
 26 27  1  0
 28 29  1  0
 28 30  1  0
 28 31  1  0
 31 32  2  0
 31 33  1  0
 33 34  1  0
 34 35  2  0
 34 38  1  0
 35 36  1  0
 36 37  2  0
 37 38  1  0
M  END
>  <DRUGBANK_ID>  (1) 
DB15023

>  <COMMON_NAME>  (1) 
BMS-791826

>  <CAS_NUMBER>  (1) 
1008116-73-1

>  <UNII>  (1) 
60BN6CDL0K

$$$$
