
     RDKit          3D

 21 22  0  0  0  0  0  0  0  0999 V2000
    1.0460    0.0739   -0.0492 P   0  0  0  0  0  0  0  0  0  0  0  0
    3.8734    3.2710   -0.2352 O   0  0  0  0  0  0  0  0  0  0  0  0
    0.9799    1.7152   -0.0947 O   0  0  0  0  0  0  0  0  0  0  0  0
    1.4166    4.5135   -2.1495 O   0  0  0  0  0  0  0  0  0  0  0  0
    3.1557    0.8485   -3.0685 O   0  0  0  0  0  0  0  0  0  0  0  0
    0.9292   -0.3711   -1.6025 O   0  0  0  0  0  0  0  0  0  0  0  0
   -0.6840    0.0739   -0.0492 O   0  0  0  0  0  0  0  0  0  0  0  0
    3.7117    4.5528   -2.6582 O   0  0  0  0  0  0  0  0  0  0  0  0
    2.5944    0.0739   -0.0492 O   0  0  0  0  0  0  0  0  0  0  0  0
    7.0585    6.9581   -1.8628 O   0  0  0  0  0  0  0  0  0  0  0  0
    3.6531    5.4864   -0.5258 N   0  0  0  0  0  0  0  0  0  0  0  0
    4.9604    6.2661   -2.2979 N   0  0  0  0  0  0  0  0  0  0  0  0
    1.7707    2.3967   -1.0725 C   0  0  1  0  0  0  0  0  0  0  0  0
    1.6149    3.9014   -0.8677 C   0  0  1  0  0  0  0  0  0  0  0  0
    3.3098    2.2067   -1.0000 C   0  0  1  0  0  0  0  0  0  0  0  0
    2.9067    4.3151   -0.0734 C   0  0  1  0  0  0  0  0  0  0  0  0
    3.9262    1.8277   -2.3690 C   0  0  0  0  0  0  0  0  0  0  0  0
    4.0582    5.4061   -1.8373 C   0  0  0  0  0  0  0  0  0  0  0  0
    4.3703    6.3064    0.3451 C   0  0  0  0  0  0  0  0  0  0  0  0
    5.5005    6.9022   -0.0705 C   0  0  0  0  0  0  0  0  0  0  0  0
    5.9271    6.7194   -1.4736 C   0  0  0  0  0  0  0  0  0  0  0  0
  1  3  1  0
  1  6  1  0
  1  7  1  0
  1  9  2  0
  2 15  1  0
  2 16  1  0
  5 17  1  0
  8 18  2  0
 10 21  2  0
 11 18  1  0
 11 19  1  0
 12 18  1  0
 12 21  1  0
 13  3  1  1
 13 14  1  0
 13 15  1  0
 14  4  1  6
 14 16  1  0
 15 17  1  6
 16 11  1  6
 19 20  2  0
 20 21  1  0
M  END
>  <DRUGBANK_ID>  (1) 
DB02805

>  <SECONDARY_ACCESSION_NUMBERS>  (1) 
EXPT03163

>  <COMMON_NAME>  (1) 
Arabinouridine 3'-phosphate

>  <SYNONYMS>  (1) 
1-(3-O-phosphono-beta-L-arabinofuranosyl)Pyrimidine-2,4(1H,3H)-Dione; Arabinouridine 3'-Phosphate; Uracil arabinose-3'-phosphate

$$$$
