
     RDKit          3D

 27 29  0  0  0  0  0  0  0  0999 V2000
   -0.3495   -0.9163   -0.0570 C   0  0  0  0  0  0  0  0  0  0  0  0
   -0.0235    0.4375   -0.0262 C   0  0  0  0  0  0  0  0  0  0  0  0
    0.6078   -1.8866   -0.1105 N   0  0  0  0  0  0  0  0  0  0  0  0
   -1.7241   -1.2147   -0.0165 C   0  0  0  0  0  0  0  0  0  0  0  0
   -1.0429    1.4387   -0.0036 C   0  0  0  0  0  0  0  0  0  0  0  0
    1.3474    0.7124   -0.0331 C   0  0  0  0  0  0  0  0  0  0  0  0
    1.9135   -1.5397   -0.0985 C   0  0  0  0  0  0  0  0  0  0  0  0
   -2.7497   -0.2302    0.0054 C   0  0  0  0  0  0  0  0  0  0  0  0
   -2.3978    1.1238    0.0009 C   0  0  0  0  0  0  0  0  0  0  0  0
    2.2956   -0.2494   -0.0555 N   0  0  0  0  0  0  0  0  0  0  0  0
    1.8108    2.0161    0.1519 N   0  0  0  0  0  0  0  0  0  0  0  0
    2.8599   -2.5414    0.1031 N   0  0  0  0  0  0  0  0  0  0  0  0
   -4.0291   -0.7443    0.0212 O   0  0  0  0  0  0  0  0  0  0  0  0
   -3.3839    2.0678   -0.0002 O   0  0  0  0  0  0  0  0  0  0  0  0
    3.3421   -3.4203   -0.9803 C   0  0  0  0  0  0  0  0  0  0  0  0
    3.8388   -2.3139    1.1558 C   0  0  0  0  0  0  0  0  0  0  0  0
   -5.1195    0.1793    0.0184 C   0  0  0  0  0  0  0  0  0  0  0  0
   -3.0660    3.4502   -0.0136 C   0  0  0  0  0  0  0  0  0  0  0  0
    3.3849   -4.9040   -0.5106 C   0  0  0  0  0  0  0  0  0  0  0  0
    3.5998   -3.3077    2.2917 C   0  0  0  0  0  0  0  0  0  0  0  0
    4.2081   -5.1697    0.7003 N   0  0  0  0  0  0  0  0  0  0  0  0
    3.5651   -4.7995    1.9506 C   0  0  0  0  0  0  0  0  0  0  0  0
    5.4778   -5.7130    0.5775 C   0  0  0  0  0  0  0  0  0  0  0  0
    6.3174   -6.0400    1.8246 C   0  0  0  0  0  0  0  0  0  0  0  0
    5.9594   -5.9309   -0.5475 O   0  0  0  0  0  0  0  0  0  0  0  0
    6.6230   -7.5344    1.9962 C   0  0  0  0  0  0  0  0  0  0  0  0
    7.4857   -8.1000    0.8771 C   0  0  0  0  0  0  0  0  0  0  0  0
  1  2  1  0
  1  3  2  0
  1  4  1  0
  2  5  1  0
  2  6  2  0
  3  7  1  0
  4  8  2  0
  5  9  2  0
  6 10  1  0
  6 11  1  0
  7 12  1  0
  7 10  2  0
  8 13  1  0
  8  9  1  0
  9 14  1  0
 12 15  1  0
 12 16  1  0
 13 17  1  0
 14 18  1  0
 15 19  1  0
 16 20  1  0
 19 21  1  0
 20 22  1  0
 21 23  1  0
 21 22  1  0
 23 24  1  0
 23 25  2  0
 24 26  1  0
 26 27  1  0
M  END
>  <DRUGBANK_ID>  (1) 
DB12230

>  <COMMON_NAME>  (1) 
Bunazosin

>  <CAS_NUMBER>  (1) 
80755-51-7

>  <UNII>  (1) 
9UUW4V7G2H

>  <SYNONYMS>  (1) 
Bunazosin

$$$$
