
     RDKit          3D

 14 15  0  0  0  0  0  0  0  0999 V2000
    0.7028    1.2128    0.1219 C   0  0  0  0  0  0  0  0  0  0  0  0
    1.4347    0.0338    0.0677 C   0  0  0  0  0  0  0  0  0  0  0  0
    0.7575   -1.1748    0.0234 C   0  0  0  0  0  0  0  0  0  0  0  0
   -0.6299   -1.1473    0.0342 C   0  0  0  0  0  0  0  0  0  0  0  0
   -1.3725   -0.0126    0.0563 N   0  0  0  0  0  0  0  0  0  0  0  0
   -0.6889    1.1515    0.0605 C   0  0  0  0  0  0  0  0  0  0  0  0
   -1.4788    2.3812   -0.0691 C   0  0  0  0  0  0  0  0  0  0  0  0
   -1.3165    3.2370   -1.0900 C   0  0  0  0  0  0  0  0  0  0  0  0
   -2.1114    4.7719   -1.2501 S   0  0  0  0  0  0  0  0  0  0  0  0
   -0.3929    3.0503   -2.2538 C   0  0  0  0  0  0  0  0  0  0  0  0
    0.3331    2.1020   -2.4839 O   0  0  0  0  0  0  0  0  0  0  0  0
   -0.4160    4.1455   -3.0594 N   0  0  0  0  0  0  0  0  0  0  0  0
   -1.1809    5.1776   -2.6617 C   0  0  0  0  0  0  0  0  0  0  0  0
   -1.1877    6.3112   -3.2536 N   0  0  0  0  0  0  0  0  0  0  0  0
  1  2  2  0
  1  6  1  0
  2  3  1  0
  3  4  2  0
  4  5  1  0
  5  6  2  0
  6  7  1  0
  7  8  2  0
  8  9  1  0
  8 10  1  0
  9 13  1  0
 10 11  2  0
 10 12  1  0
 12 13  1  0
 13 14  2  0
M  END
>  <DRUGBANK_ID>  (1) 
DB07529

>  <COMMON_NAME>  (1) 
(5E)-2-Amino-5-(2-pyridinylmethylene)-1,3-thiazol-4(5H)-one

$$$$
