
     RDKit          3D

 33 32  0  0  0  0  0  0  0  0999 V2000
    0.6735   -0.2326    0.1735 C   0  0  0  0  0  0  0  0  0  0  0  0
    1.8375    0.1731   -2.5214 C   0  0  0  0  0  0  0  0  0  0  0  0
    0.0753   -1.2510    2.8521 C   0  0  0  0  0  0  0  0  0  0  0  0
   -0.0881   -1.3290   -0.0109 O   0  0  0  0  0  0  0  0  0  0  0  0
    1.7347   -1.4177   -2.5355 O   0  0  0  0  0  0  0  0  0  0  0  0
    0.6624   -2.4402    2.7091 O   0  0  0  0  0  0  0  0  0  0  0  0
    0.1332    0.8801    0.1777 O   0  0  0  0  0  0  0  0  0  0  0  0
    0.2617   -0.2031    2.2837 O   0  0  0  0  0  0  0  0  0  0  0  0
    0.5962    0.5918   -2.3883 O   0  0  0  0  0  0  0  0  0  0  0  0
    0.5708   -2.5694    0.0490 C   0  0  0  0  0  0  0  0  0  0  0  0
    2.1761   -0.4384    0.5464 C   0  0  0  0  0  0  0  0  0  0  0  0
   -0.7656   -1.1953    4.0105 C   0  0  0  0  0  0  0  0  0  0  0  0
    3.5964    1.0000   -2.0755 C   0  0  0  0  0  0  0  0  0  0  0  0
    1.0112   -2.8132   -1.6155 C   0  0  0  0  0  0  0  0  0  0  0  0
    1.4172   -2.6526    1.5687 C   0  0  0  0  0  0  0  0  0  0  0  0
    3.3002   -1.8615    0.2014 C   0  0  0  0  0  0  0  0  0  0  0  0
    2.5035    0.3444   -0.5738 C   0  0  0  0  0  0  0  0  0  0  0  0
   -1.7199   -2.3523    3.9530 C   0  0  0  0  0  0  0  0  0  0  0  0
    4.7134    0.9503   -0.3898 C   0  0  0  0  0  0  0  0  0  0  0  0
    0.2198   -1.1514    5.1617 C   0  0  0  0  0  0  0  0  0  0  0  0
    4.5166    0.7714   -3.1622 C   0  0  0  0  0  0  0  0  0  0  0  0
    2.0870    2.1545   -0.8672 C   0  0  0  0  0  0  0  0  0  0  0  0
    1.1915    0.0364    5.0725 C   0  0  0  0  0  0  0  0  0  0  0  0
    3.4621    0.8636   -4.2492 C   0  0  0  0  0  0  0  0  0  0  0  0
    2.8471    3.1126    0.0517 C   0  0  0  0  0  0  0  0  0  0  0  0
    2.5695    2.1515   -4.2226 C   0  0  0  0  0  0  0  0  0  0  0  0
    0.4490    1.3667    5.0100 C   0  0  0  0  0  0  0  0  0  0  0  0
    3.4209   -2.4411   -1.1463 C   0  0  0  0  0  0  0  0  0  0  0  0
   -1.0217   -3.7029    4.0241 C   0  0  0  0  0  0  0  0  0  0  0  0
    5.5544   -0.2287   -0.0710 C   0  0  0  0  0  0  0  0  0  0  0  0
    4.3656    3.4891   -0.1229 C   0  0  0  0  0  0  0  0  0  0  0  0
    3.4745    3.3586   -4.1068 C   0  0  0  0  0  0  0  0  0  0  0  0
   -0.4459    1.5207    6.2253 C   0  0  0  0  0  0  0  0  0  0  0  0
  2  5  1  0
  3  6  1  0
  4  1  1  0
  5 14  1  0
  6 15  1  0
  7  1  2  0
  8  3  2  0
  9  2  2  0
 10  4  1  0
 11  1  1  0
 12  3  1  0
 13  2  1  0
 14 10  1  0
 15 10  1  0
 16 11  1  0
 17 11  1  0
 18 12  1  0
 19 13  1  0
 20 12  1  0
 21 13  1  0
 22 17  1  0
 23 20  1  0
 24 21  1  0
 25 22  1  0
 26 24  1  0
 27 23  1  0
 28 16  1  0
 29 18  1  0
 30 19  1  0
 31 25  1  0
 32 26  1  0
 33 27  1  0
M  END
>  <DRUGBANK_ID>  (1) 
DB14102

>  <COMMON_NAME>  (1) 
Triethylhexanoin

>  <CAS_NUMBER>  (1) 
7360-38-5

>  <UNII>  (1) 
7K3W1BIU6K

$$$$
