FRA
     RDKit          3D

 31 34  0  0  0  0  0  0  0  0999 V2000
    0.8542    0.0265    0.0331 C   0  0  0  0  0  0  0  0  0  0  0  0
    0.4230    0.1642    1.4747 C   0  0  0  0  0  0  0  0  0  0  0  0
   -0.2796    1.1098    1.8355 O   0  0  0  0  0  0  0  0  0  0  0  0
    0.7564   -0.8379    2.3606 N   0  0  0  0  0  0  0  0  0  0  0  0
    1.5958   -1.9485    2.1340 C   0  0  0  0  0  0  0  0  0  0  0  0
    2.7924   -1.8212    1.4294 C   0  0  0  0  0  0  0  0  0  0  0  0
    3.6687   -2.9030    1.2402 C   0  0  0  0  0  0  0  0  0  0  0  0
    3.4063   -4.1421    1.8317 C   0  0  0  0  0  0  0  0  0  0  0  0
    2.2030   -4.2671    2.5476 C   0  0  0  0  0  0  0  0  0  0  0  0
    1.2922   -3.1928    2.6817 C   0  0  0  0  0  0  0  0  0  0  0  0
    4.1081   -5.3051    1.4069 N   0  0  0  0  0  0  0  0  0  0  0  0
    5.3282   -5.8373    1.7793 C   0  0  0  0  0  0  0  0  0  0  0  0
    5.7366   -7.0682    0.7946 C   0  0  2  0  0  0  0  0  0  0  0  0
    4.7595   -6.7118   -0.2571 C   0  0  2  0  0  0  0  0  0  0  0  0
    3.6026   -6.0042    0.3712 C   0  0  0  0  0  0  0  0  0  0  0  0
    5.9911   -5.4662    2.7392 O   0  0  0  0  0  0  0  0  0  0  0  0
    2.4633   -5.9329   -0.0575 O   0  0  0  0  0  0  0  0  0  0  0  0
    5.1210   -8.6275    0.8260 C   0  0  2  0  0  0  0  0  0  0  0  0
    5.2924   -9.7198    1.7087 C   0  0  0  0  0  0  0  0  0  0  0  0
    4.1021   -9.5125    0.8508 C   0  0  0  0  0  0  0  0  0  0  0  0
    3.3177   -8.0937   -1.5601 C   0  0  0  0  0  0  0  0  0  0  0  0
    3.9199   -9.2456   -0.9120 C   0  0  0  0  0  0  0  0  0  0  0  0
    4.4747   -8.1125   -0.7537 C   0  0  1  0  0  0  0  0  0  0  0  0
    5.8980   -8.5761   -1.5248 N   0  0  0  0  0  0  0  0  0  0  0  0
    6.5321   -7.8781   -2.4803 C   0  0  0  0  0  0  0  0  0  0  0  0
    7.5655   -8.2474   -3.0047 O   0  0  0  0  0  0  0  0  0  0  0  0
    5.8763   -6.7296   -2.6901 O   0  0  0  0  0  0  0  0  0  0  0  0
    6.5167   -5.7559   -3.4753 C   0  0  0  0  0  0  0  0  0  0  0  0
    7.9265   -5.4050   -3.0396 C   0  0  0  0  0  0  0  0  0  0  0  0
    8.9322   -5.5742   -3.7086 O   0  0  0  0  0  0  0  0  0  0  0  0
    7.9922   -4.8501   -1.8059 O   0  0  0  0  0  0  0  0  0  0  0  0
  1  2  1  0
  2  3  2  0
  2  4  1  0
  4  5  1  0
  5  6  2  0
  5 10  1  0
  6  7  1  0
  7  8  2  0
  8  9  1  0
  8 11  1  0
  9 10  2  0
 11 12  1  0
 11 15  1  0
 13 12  1  1
 12 16  2  0
 13 14  1  0
 13 18  1  0
 14 15  1  1
 14 23  1  0
 15 17  2  0
 18 19  1  6
 18 22  1  0
 19 20  1  0
 20 23  1  0
 21 22  1  0
 21 23  1  0
 23 24  1  6
 24 25  1  0
 25 26  2  0
 25 27  1  0
 27 28  1  0
 28 29  1  0
 29 30  2  0
 29 31  1  0
M  END
>  <DRUGBANK_ID>  (1) 
DB07784

>  <COMMON_NAME>  (1) 
[4-(4-ACETYLAMINO-PHENYL)-3,5-DIOXO-4-AZA-TRICYCLO[5.2.2.0 2,6]UNDEC-1-YLCARBAMOYLOXY]-ACETIC ACID

$$$$
