
     RDKit          3D

 21 21  0  0  0  0  0  0  0  0999 V2000
   -1.0357    2.9250   -0.0630 C   0  0  0  0  0  0  0  0  0  0  0  0
   -1.4770    2.0963   -1.0399 N   0  0  0  0  0  0  0  0  0  0  0  0
    0.2901    2.6955    0.6513 C   0  0  1  0  0  0  0  0  0  0  0  0
    0.3814    0.5385   -1.3627 C   0  0  0  0  0  0  0  0  0  0  0  0
    1.2667    5.0298    0.3711 C   0  0  0  0  0  0  0  0  0  0  0  0
   -1.1228    0.6889   -1.1919 C   0  0  2  0  0  0  0  0  0  0  0  0
    1.4268    3.5565    0.0625 C   0  0  0  0  0  0  0  0  0  0  0  0
   -1.7040    3.9461    0.1102 O   0  0  0  0  0  0  0  0  0  0  0  0
    0.1237    2.8477    2.1590 C   0  0  0  0  0  0  0  0  0  0  0  0
    1.1109    1.2749   -2.0252 O   0  0  0  0  0  0  0  0  0  0  0  0
    1.9485    5.5620    1.2471 O   0  0  0  0  0  0  0  0  0  0  0  0
    0.2871    5.7212   -0.2687 N   0  0  0  0  0  0  0  0  0  0  0  0
    0.9130   -0.4011   -0.5597 O   0  0  0  0  0  0  0  0  0  0  0  0
   -0.9933    1.9709    2.6851 C   0  0  0  0  0  0  0  0  0  0  0  0
   -0.1626    5.3646   -1.5527 O   0  0  0  0  0  0  0  0  0  0  0  0
   -1.7433    0.1403   -2.4617 C   0  0  0  0  0  0  0  0  0  0  0  0
   -0.7052    0.8055    3.3931 C   0  0  0  0  0  0  0  0  0  0  0  0
   -2.3413    2.3133    2.4773 C   0  0  0  0  0  0  0  0  0  0  0  0
   -3.3773    1.5467    2.9856 C   0  0  0  0  0  0  0  0  0  0  0  0
   -1.7466    0.0406    3.9206 C   0  0  0  0  0  0  0  0  0  0  0  0
   -3.0782    0.4086    3.7145 C   0  0  0  0  0  0  0  0  0  0  0  0
  2  1  1  0
  3  1  1  0
  3  9  1  1
  5  7  1  0
  6 16  1  6
  6  2  1  0
  6  4  1  0
  7  3  1  0
  8  1  2  0
 10  4  2  0
 11  5  2  0
 12  5  1  0
 13  4  1  0
 14  9  1  0
 15 12  1  0
 17 14  2  0
 18 14  1  0
 19 18  2  0
 20 17  1  0
 21 20  2  0
 21 19  1  0
M  END
>  <DRUGBANK_ID>  (1) 
DB08040

>  <COMMON_NAME>  (1) 
Kelatorphan

>  <CAS_NUMBER>  (1) 
92175-57-0

>  <UNII>  (1) 
46BBW2U5D6

>  <SYNONYMS>  (1) 
(3-(N-Hydroxy)carboxamido-2-benzylpropanoyl)alanine

$$$$
