
     RDKit          3D

 33 37  0  0  0  0  0  0  0  0999 V2000
    3.5564    0.1301   -0.0737 C   0  0  0  0  0  0  0  0  0  0  0  0
    2.0724   -0.0295   -0.1151 C   0  0  0  0  0  0  0  0  0  0  0  0
    1.3224    1.1696   -0.0150 C   0  0  0  0  0  0  0  0  0  0  0  0
   -0.0625    1.1639   -0.0275 C   0  0  0  0  0  0  0  0  0  0  0  0
   -0.7097   -0.0552   -0.1473 C   0  0  0  0  0  0  0  0  0  0  0  0
    0.0232   -1.2571   -0.3269 C   0  0  0  0  0  0  0  0  0  0  0  0
    1.4560   -1.2907   -0.2797 C   0  0  0  0  0  0  0  0  0  0  0  0
    2.2631   -2.5496   -0.2000 N   0  0  0  0  0  0  0  0  0  0  0  0
    2.1291   -3.7155   -1.0062 C   0  0  0  0  0  0  0  0  0  0  0  0
    1.4381   -3.8740   -1.9976 O   0  0  0  0  0  0  0  0  0  0  0  0
    3.0785   -4.7699   -0.4658 C   0  0  0  0  0  0  0  0  0  0  0  0
    3.5142   -6.0287   -0.8815 C   0  0  0  0  0  0  0  0  0  0  0  0
    4.4757   -6.7346   -0.0995 C   0  0  0  0  0  0  0  0  0  0  0  0
    5.0079   -6.1934    1.0694 C   0  0  0  0  0  0  0  0  0  0  0  0
    4.6044   -4.9358    1.4416 C   0  0  0  0  0  0  0  0  0  0  0  0
    3.6369   -4.2582    0.6860 C   0  0  0  0  0  0  0  0  0  0  0  0
    3.1106   -2.8931    0.9920 C   0  0  0  0  0  0  0  0  0  0  0  0
    2.3710   -2.9661    2.3165 C   0  0  0  0  0  0  0  0  0  0  0  0
    2.7904   -3.4055    3.5921 C   0  0  0  0  0  0  0  0  0  0  0  0
    1.8651   -3.6235    4.6841 C   0  0  0  0  0  0  0  0  0  0  0  0
    0.4965   -3.5548    4.3190 C   0  0  0  0  0  0  0  0  0  0  0  0
    0.2381   -3.5140    2.9828 C   0  0  0  0  0  0  0  0  0  0  0  0
    1.0380   -2.8423    2.1557 C   0  0  0  0  0  0  0  0  0  0  0  0
   -0.9007   -4.0218    2.5815 N   0  0  0  0  0  0  0  0  0  0  0  0
   -1.6274   -3.4472    3.4682 C   0  0  0  0  0  0  0  0  0  0  0  0
   -0.8627   -3.5814    4.7086 N   0  0  0  0  0  0  0  0  0  0  0  0
   -2.8672   -3.0150    2.9961 N   0  0  0  0  0  0  0  0  0  0  0  0
   -3.9972   -3.4905    3.5690 C   0  0  0  0  0  0  0  0  0  0  0  0
   -5.1161   -3.4518    3.1185 O   0  0  0  0  0  0  0  0  0  0  0  0
   -3.5849   -4.0326    4.7169 O   0  0  0  0  0  0  0  0  0  0  0  0
   -4.5075   -4.4326    5.6703 C   0  0  0  0  0  0  0  0  0  0  0  0
    4.2854   -2.1323    1.0300 O   0  0  0  0  0  0  0  0  0  0  0  0
   -2.4335   -0.0744   -0.0129 Cl  0  0  0  0  0  0  0  0  0  0  0  0
  1  2  1  0
  2  3  2  0
  2  7  1  0
  3  4  1  0
  4  5  2  0
  5  6  1  0
  5 33  1  0
  6  7  2  0
  7  8  1  0
  8  9  1  0
  8 17  1  0
  9 10  2  0
  9 11  1  0
 11 12  1  0
 11 16  2  0
 12 13  2  0
 13 14  1  0
 14 15  2  0
 15 16  1  0
 16 17  1  0
 17 18  1  0
 17 32  1  0
 18 19  2  0
 18 23  1  0
 19 20  1  0
 20 21  2  0
 21 22  1  0
 21 26  1  0
 22 23  2  0
 22 24  1  0
 24 25  2  0
 25 26  1  0
 25 27  1  0
 27 28  1  0
 28 29  2  0
 28 30  1  0
 30 31  1  0
M  END
>  <DRUGBANK_ID>  (1) 
DB12854

>  <COMMON_NAME>  (1) 
BMS-908662

>  <CAS_NUMBER>  (1) 
870603-16-0

>  <UNII>  (1) 
DW2NWI3TFN

$$$$
