
     RDKit          3D

 36 40  0  0  0  0  0  0  0  0999 V2000
   -2.4239   -0.7275   -0.0857 C   0  0  0  0  0  0  0  0  0  0  0  0
   -2.3814    0.6470   -0.2974 C   0  0  0  0  0  0  0  0  0  0  0  0
   -1.2286    1.3657   -0.0473 C   0  0  0  0  0  0  0  0  0  0  0  0
   -0.0294    0.6834    0.0836 C   0  0  0  0  0  0  0  0  0  0  0  0
   -0.0358   -0.7029    0.0903 C   0  0  0  0  0  0  0  0  0  0  0  0
   -1.2367   -1.4160    0.1053 C   0  0  0  0  0  0  0  0  0  0  0  0
    1.2294   -1.4094   -0.0003 C   0  0  0  0  0  0  0  0  0  0  0  0
    2.3807   -0.6410   -0.0139 N   0  0  0  0  0  0  0  0  0  0  0  0
    2.4002    0.7471   -0.0231 N   0  0  0  0  0  0  0  0  0  0  0  0
    1.2674    1.3816    0.0658 C   0  0  0  0  0  0  0  0  0  0  0  0
    1.2703    2.8699    0.1435 C   0  0  0  0  0  0  0  0  0  0  0  0
    1.7401    3.6351   -0.9291 C   0  0  0  0  0  0  0  0  0  0  0  0
    1.7326    5.0319   -0.8381 C   0  0  0  0  0  0  0  0  0  0  0  0
    1.3235    5.6525    0.3440 C   0  0  0  0  0  0  0  0  0  0  0  0
    0.8330    4.8800    1.3902 C   0  0  0  0  0  0  0  0  0  0  0  0
    0.7635    3.4975    1.2877 C   0  0  0  0  0  0  0  0  0  0  0  0
    0.4224    5.4761    2.5169 F   0  0  0  0  0  0  0  0  0  0  0  0
    3.6422   -1.3607   -0.1064 C   0  0  0  0  0  0  0  0  0  0  0  0
    3.8178   -2.2503    1.1670 C   0  0  0  0  0  0  0  0  0  0  0  0
    3.9973   -3.6357    0.9955 N   0  0  0  0  0  0  0  0  0  0  0  0
    4.2605   -4.5372    2.1201 C   0  0  0  0  0  0  0  0  0  0  0  0
    3.7979   -4.4050    3.4798 C   0  0  0  0  0  0  0  0  0  0  0  0
    4.1165   -5.4968    4.3656 C   0  0  0  0  0  0  0  0  0  0  0  0
    4.4685   -6.7213    3.8387 C   0  0  0  0  0  0  0  0  0  0  0  0
    5.1869   -6.7226    2.6626 C   0  0  0  0  0  0  0  0  0  0  0  0
    5.1000   -5.6201    1.8344 C   0  0  0  0  0  0  0  0  0  0  0  0
    4.4379   -7.6945    4.7495 N   0  0  0  0  0  0  0  0  0  0  0  0
    5.0072   -7.0745    5.7473 C   0  0  0  0  0  0  0  0  0  0  0  0
    4.7495   -5.6590    5.6992 O   0  0  0  0  0  0  0  0  0  0  0  0
    5.9505   -7.8906    6.5929 C   0  0  0  0  0  0  0  0  0  0  0  0
    4.0080   -4.2217   -0.3679 C   0  0  0  0  0  0  0  0  0  0  0  0
    3.8176   -1.7133    2.2794 O   0  0  0  0  0  0  0  0  0  0  0  0
    1.2191   -2.6460   -0.0927 O   0  0  0  0  0  0  0  0  0  0  0  0
   -3.5710   -1.4594   -0.0092 O   0  0  0  0  0  0  0  0  0  0  0  0
   -4.8033   -0.7385   -0.1032 C   0  0  0  0  0  0  0  0  0  0  0  0
   -5.0430    0.2637    1.0299 C   0  0  0  0  0  0  0  0  0  0  0  0
  1  2  2  0
  1 34  1  0
  2  3  1  0
  3  4  2  0
  4  5  1  0
  4 10  1  0
  5  6  2  0
  5  7  1  0
  6  1  1  0
  7 33  2  0
  8  7  1  0
  8 18  1  0
  9  8  1  0
 10  9  2  0
 10 11  1  0
 11 16  1  0
 12 11  2  0
 13 12  1  0
 14 13  2  0
 15 14  1  0
 15 17  1  0
 16 15  2  0
 18 19  1  0
 19 20  1  0
 19 32  2  0
 20 21  1  0
 20 31  1  0
 21 26  1  0
 22 21  2  0
 23 22  1  0
 23 29  1  0
 24 23  2  0
 24 27  1  0
 25 24  1  0
 26 25  2  0
 27 28  2  0
 28 29  1  0
 28 30  1  0
 34 35  1  0
 35 36  1  0
M  END
>  <DRUGBANK_ID>  (1) 
DB16878

>  <COMMON_NAME>  (1) 
FDL169

>  <CAS_NUMBER>  (1) 
1628416-28-3

>  <UNII>  (1) 
49PN4S4FDH

>  <SYNONYMS>  (1) 
2-(7-ethoxy-4-(3-fluorophenyl)-1-oxophthalazin-2(1H)-yl)-N-methyl-N-(2-methylbenzo(D)oxazol-6-yl)acetamide; 2-(7-ethoxy-4-(3-fluorophenyl)-1-oxophthalazin-2(1H)-yl)-N-methyl-N-(2-methylbenzo[D]oxazol-6-yl)acetamide

$$$$
