A42
     RDKit          3D

 23 24  0  0  0  0  0  0  0  0999 V2000
   -1.0557   -0.9383    0.5654 C   0  0  0  0  0  0  0  0  0  0  0  0
   -1.6921    0.1600    0.1072 N   0  0  0  0  0  0  0  0  0  0  0  0
   -0.9426    1.3220    0.0780 C   0  0  0  0  0  0  0  0  0  0  0  0
    0.4259    1.3843    0.3173 C   0  0  0  0  0  0  0  0  0  0  0  0
    0.9468    0.3717    0.9998 N   0  0  0  0  0  0  0  0  0  0  0  0
    0.1935   -0.7627    1.1221 C   0  0  0  0  0  0  0  0  0  0  0  0
   -1.5976   -2.2488    0.2811 C   0  0  0  0  0  0  0  0  0  0  0  0
   -1.9558   -3.3326   -0.0151 N   0  0  0  0  0  0  0  0  0  0  0  0
    1.2595    2.4230   -0.1431 N   0  0  0  0  0  0  0  0  0  0  0  0
    2.6026    2.4370   -0.3815 C   0  0  0  0  0  0  0  0  0  0  0  0
    3.1740    3.5313   -0.4863 O   0  0  0  0  0  0  0  0  0  0  0  0
    3.3802    1.3308   -0.5441 N   0  0  0  0  0  0  0  0  0  0  0  0
    3.0930   -0.0504   -0.5658 C   0  0  0  0  0  0  0  0  0  0  0  0
    2.1014   -0.4929   -1.4486 C   0  0  0  0  0  0  0  0  0  0  0  0
    1.5295   -1.7708   -1.3291 C   0  0  0  0  0  0  0  0  0  0  0  0
    1.9334   -2.6326   -0.2731 C   0  0  0  0  0  0  0  0  0  0  0  0
    3.0575   -2.2557    0.4883 C   0  0  0  0  0  0  0  0  0  0  0  0
    3.6448   -0.9640    0.3613 C   0  0  0  0  0  0  0  0  0  0  0  0
    4.5804   -0.7032    1.3417 O   0  0  0  0  0  0  0  0  0  0  0  0
    5.2876    0.5321    1.3011 C   0  0  0  0  0  0  0  0  0  0  0  0
    1.0376   -3.5962    0.1782 O   0  0  0  0  0  0  0  0  0  0  0  0
    1.3185   -4.3679    1.3638 C   0  0  0  0  0  0  0  0  0  0  0  0
    0.1236   -2.0010   -2.3266 Cl  0  0  0  0  0  0  0  0  0  0  0  0
  1  6  2  0
  1  2  1  0
  1  7  1  0
  2  3  2  0
  3  4  1  0
  4  9  1  0
  4  5  2  0
  5  6  1  0
  7  8  3  0
  9 10  1  0
 10 11  2  0
 10 12  1  0
 12 13  1  0
 13 14  2  0
 13 18  1  0
 14 15  1  0
 15 23  1  0
 15 16  2  0
 16 21  1  0
 16 17  1  0
 17 18  2  0
 18 19  1  0
 19 20  1  0
 21 22  1  0
M  END
>  <DRUGBANK_ID>  (1) 
DB07314

>  <COMMON_NAME>  (1) 
1-(5-CHLORO-2,4-DIMETHOXYPHENYL)-3-(5-CYANOPYRAZIN-2-YL)UREA

$$$$
