
     RDKit          3D

 30 32  0  0  1  0  0  0  0  0999 V2000
    5.8299   -3.7806   -8.5010 C   0  0  0  0  0  0  0  0  0  0  0  0
    8.4668    5.0837   -5.3127 C   0  0  0  0  0  0  0  0  0  0  0  0
    6.7820    3.0866   -2.6584 C   0  0  0  0  0  0  0  0  0  0  0  0
    4.3693    3.0505   -2.3108 C   0  0  0  0  0  0  0  0  0  0  0  0
    6.4801    3.1913   -7.3900 C   0  0  0  0  0  0  0  0  0  0  0  0
    7.9977    0.7099   -6.1355 C   0  0  0  0  0  0  0  0  0  0  0  0
    6.7673   -0.0861   -5.8728 C   0  0  0  0  0  0  0  0  0  0  0  0
    4.4548    0.0592   -6.9499 C   0  0  0  0  0  0  0  0  0  0  0  0
    4.5083   -1.2741   -7.5096 C   0  0  0  0  0  0  0  0  0  0  0  0
    4.3449    3.9938   -5.3549 C   0  0  0  0  0  0  0  0  0  0  0  0
    3.9777    2.5803   -5.7041 C   0  0  0  0  0  0  0  0  0  0  0  0
    7.8579    2.0696   -5.5226 C   0  0  0  0  0  0  0  0  0  0  0  0
    5.9631    5.1920   -1.7837 C   0  0  0  0  0  0  0  0  0  0  0  0
    7.0911    5.9281   -2.6457 C   0  0  0  0  0  0  0  0  0  0  0  0
    5.1708   -2.2527   -5.2653 C   0  0  0  0  0  0  0  0  0  0  0  0
    4.9511   -4.6772   -5.0350 C   0  0  0  0  0  0  0  0  0  0  0  0
    5.1393   -3.6311   -7.3602 C   0  0  0  0  0  0  0  0  0  0  0  0
    6.9782    5.4426   -5.2349 C   0  0  1  0  0  0  0  0  0  0  0  0
    5.4325    0.5601   -6.2568 C   0  0  0  0  0  0  0  0  0  0  0  0
    4.8883   -2.3202   -6.7734 C   0  0  0  0  0  0  0  0  0  0  0  0
    4.5725   -3.3439   -4.4308 C   0  0  2  0  0  0  0  0  0  0  0  0
    6.0445    4.1046   -5.3128 C   0  0  2  0  0  0  0  0  0  0  0  0
    5.2984    1.8516   -5.5439 C   0  0  1  0  0  0  0  0  0  0  0  0
    4.5809   -4.7660   -6.5229 C   0  0  1  0  0  0  0  0  0  0  0  0
    5.4543    4.0842   -2.6078 C   0  0  0  0  0  0  0  0  0  0  0  0
    6.4843    2.7812   -5.9404 C   0  0  1  0  0  0  0  0  0  0  0  0
    3.1668   -3.1690   -4.3371 O   0  0  0  0  0  0  0  0  0  0  0  0
    5.0381   -6.0213   -7.0099 O   0  0  0  0  0  0  0  0  0  0  0  0
    4.7575    5.0990   -3.4021 O   0  0  0  0  0  0  0  0  0  0  0  0
    6.7815    6.3143   -4.0444 O   0  0  0  0  0  0  0  0  0  0  0  0
  7  6  1  0
  9  8  1  0
 11 10  1  0
 12  6  1  0
 14 13  1  0
 17  1  2  0
 18  2  1  1
 19  7  1  0
 19  8  2  0
 20  9  2  0
 20 15  1  0
 20 17  1  0
 21 15  1  0
 21 16  1  0
 21 27  1  6
 22 10  1  6
 22 18  1  0
 23 11  1  6
 23 19  1  0
 24 16  1  0
 24 17  1  0
 24 28  1  6
 25  3  1  0
 25  4  1  0
 25 13  1  0
 26  5  1  6
 26 12  1  0
 26 22  1  0
 26 23  1  0
 29 25  1  0
 30 14  1  0
 30 18  1  0
M  END
>  <DRUGBANK_ID>  (1) 
DB06272

>  <COMMON_NAME>  (1) 
Maxacalcitol

>  <CAS_NUMBER>  (1) 
103909-75-7

>  <UNII>  (1) 
N2UJM5NBF6

>  <SYNONYMS>  (1) 
Maxacalcitol

$$$$
