U03
     RDKit          3D

 23 25  0  0  0  0  0  0  0  0999 V2000
    3.0097   -2.6586    1.3417 C   0  0  0  0  0  0  0  0  0  0  0  0
    3.7424   -2.1049    2.5315 C   0  0  0  0  0  0  0  0  0  0  0  0
    3.1574   -4.1374    3.7380 C   0  0  0  0  0  0  0  0  0  0  0  0
    2.4076   -4.6100    2.6863 C   0  0  0  0  0  0  0  0  0  0  0  0
    2.4132   -3.8701    1.4422 C   0  0  0  0  0  0  0  0  0  0  0  0
    1.7223   -0.9403    0.0525 C   0  0  0  0  0  0  0  0  0  0  0  0
    1.6110    0.4516    0.1363 C   0  0  0  0  0  0  0  0  0  0  0  0
    0.3463    1.0507   -0.0243 C   0  0  0  0  0  0  0  0  0  0  0  0
   -0.7886    0.2836   -0.3123 C   0  0  0  0  0  0  0  0  0  0  0  0
   -0.6783   -1.0827   -0.4175 C   0  0  0  0  0  0  0  0  0  0  0  0
    0.5407   -1.6638   -0.1561 C   0  0  0  0  0  0  0  0  0  0  0  0
    3.0309   -1.7333    0.1170 C   0  0  2  0  0  0  0  0  0  0  0  0
    3.2581   -2.5303   -1.2039 C   0  0  0  0  0  0  0  0  0  0  0  0
    3.2940   -1.6910   -2.4628 C   0  0  0  0  0  0  0  0  0  0  0  0
    3.2853   -4.8699    4.9058 C   0  0  0  0  0  0  0  0  0  0  0  0
    2.6225   -6.0927    5.0330 C   0  0  0  0  0  0  0  0  0  0  0  0
    1.8069   -6.5514    3.9978 C   0  0  0  0  0  0  0  0  0  0  0  0
    1.6962   -5.8094    2.8291 C   0  0  0  0  0  0  0  0  0  0  0  0
    3.5568   -6.4522    7.1663 C   0  0  0  0  0  0  0  0  0  0  0  0
    4.2893   -1.0157    2.5155 O   0  0  0  0  0  0  0  0  0  0  0  0
    3.8209   -2.9100    3.6641 O   0  0  0  0  0  0  0  0  0  0  0  0
    1.7461   -4.5819    0.4766 O   0  0  0  0  0  0  0  0  0  0  0  0
    2.7055   -6.9140    6.1228 O   0  0  0  0  0  0  0  0  0  0  0  0
  1  2  1  0
  1  5  2  0
  2 20  2  0
  2 21  1  0
  3  4  2  0
  3 15  1  0
  3 21  1  0
  4  5  1  0
  4 18  1  0
  5 22  1  0
  6  7  2  0
  6 11  1  0
  7  8  1  0
  8  9  2  0
  9 10  1  0
 10 11  2  0
 12 13  1  6
 12  6  1  0
 12  1  1  0
 13 14  1  0
 15 16  2  0
 16 17  1  0
 16 23  1  0
 17 18  2  0
 19 23  1  0
M  END
>  <DRUGBANK_ID>  (1) 
DB08663

>  <COMMON_NAME>  (1) 
4-HYDROXY-7-METHOXY-3-(1-PHENYL-PROPYL)-CHROMEN-2-ONE

$$$$
