TRU
     RDKit          3D

 20 21  0  0  0  0  0  0  0  0999 V2000
   -2.0709   -0.5693    0.0551 S   0  0  0  0  0  0  0  0  0  0  0  0
   -2.4809   -0.6921    1.4299 O   0  0  0  0  0  0  0  0  0  0  0  0
   -2.4627   -1.5093   -0.9743 O   0  0  0  0  0  0  0  0  0  0  0  0
   -2.5387    0.9144   -0.4846 N   0  0  0  0  0  0  0  0  0  0  0  0
   -1.8933    2.0308    0.1691 C   0  0  2  0  0  0  0  0  0  0  0  0
   -2.6879    3.3453   -0.1482 C   0  0  0  0  0  0  0  0  0  0  0  0
   -3.6909    3.2265   -1.6435 Cl  0  0  0  0  0  0  0  0  0  0  0  0
   -3.7637    3.7509    1.2279 Cl  0  0  0  0  0  0  0  0  0  0  0  0
   -0.5187    2.0268   -0.3300 N   0  0  0  0  0  0  0  0  0  0  0  0
    0.2396    0.8697   -0.0829 C   0  0  0  0  0  0  0  0  0  0  0  0
    1.6344    0.9485   -0.0817 C   0  0  0  0  0  0  0  0  0  0  0  0
    2.4481   -0.2007   -0.0108 C   0  0  0  0  0  0  0  0  0  0  0  0
    4.1423    0.1212    0.0112 Cl  0  0  0  0  0  0  0  0  0  0  0  0
    1.8645   -1.4711    0.0285 C   0  0  0  0  0  0  0  0  0  0  0  0
    2.8070   -2.9700   -0.1011 S   0  0  0  0  0  0  0  0  0  0  0  0
    2.4096   -3.8172    1.3036 N   0  0  0  0  0  0  0  0  0  0  0  0
    2.2777   -3.7282   -1.2104 O   0  0  0  0  0  0  0  0  0  0  0  0
    4.2200   -2.7245    0.0396 O   0  0  0  0  0  0  0  0  0  0  0  0
    0.4648   -1.5780    0.0622 C   0  0  0  0  0  0  0  0  0  0  0  0
   -0.3176   -0.4121    0.0295 C   0  0  0  0  0  0  0  0  0  0  0  0
  1  2  2  0
  1  3  2  0
  1  4  1  0
  1 20  1  0
  4  5  1  0
  5  9  1  0
  5  6  1  6
  6  7  1  0
  6  8  1  0
  9 10  1  0
 10 11  1  0
 10 20  2  0
 11 12  2  0
 12 13  1  0
 12 14  1  0
 14 15  1  0
 14 19  2  0
 15 16  1  0
 15 17  2  0
 15 18  2  0
 19 20  1  0
M  END
>  <DRUGBANK_ID>  (1) 
DB08645

>  <COMMON_NAME>  (1) 
6-CHLORO-3-(DICHLOROMETHYL)-3,4-DIHYDRO-2H-1,2,4-BENZOTHIADIAZINE-7-SULFONAMIDE 1,1-DIOXIDE

$$$$
