
     RDKit          3D

 21 22  0  0  0  0  0  0  0  0999 V2000
    0.4051   -1.3532   -0.0611 C   0  0  0  0  0  0  0  0  0  0  0  0
   -1.1332   -1.3569   -0.1334 C   0  0  0  0  0  0  0  0  0  0  0  0
    0.3865    1.1699   -0.0964 C   0  0  0  0  0  0  0  0  0  0  0  0
    1.0760    0.0148   -0.0370 C   0  0  0  0  0  0  0  0  0  0  0  0
   -1.1182    1.2094   -0.1565 C   0  0  2  0  0  0  0  0  0  0  0  0
   -1.7614   -0.0813    0.4484 C   0  0  2  0  0  0  0  0  0  0  0  0
   -1.6998   -0.1261    1.9886 C   0  0  0  0  0  0  0  0  0  0  0  0
   -0.2173   -0.2446   -2.5729 O   0  0  0  0  0  0  0  0  0  0  0  0
   -1.5636    1.5069   -1.5855 C   0  0  0  0  0  0  0  0  0  0  0  0
   -1.1892    0.7050   -2.6836 C   0  0  0  0  0  0  0  0  0  0  0  0
   -1.7031    0.8894   -3.9561 C   0  0  0  0  0  0  0  0  0  0  0  0
   -2.4695    2.0122   -4.2167 C   0  0  0  0  0  0  0  0  0  0  0  0
   -2.6970    2.9266   -3.1782 C   0  0  0  0  0  0  0  0  0  0  0  0
   -2.3363    2.6332   -1.8670 C   0  0  0  0  0  0  0  0  0  0  0  0
    2.5652    0.0099    0.0514 C   0  0  0  0  0  0  0  0  0  0  0  0
   -2.8268   -0.2413    2.7209 C   0  0  0  0  0  0  0  0  0  0  0  0
   -0.3749   -0.0479    2.7063 C   0  0  0  0  0  0  0  0  0  0  0  0
   -2.7303    3.4759   -0.8646 O   0  0  0  0  0  0  0  0  0  0  0  0
   -2.9992    2.2354   -5.6052 C   0  0  0  0  0  0  0  0  0  0  0  0
   -4.5298    2.2152   -5.6779 C   0  0  0  0  0  0  0  0  0  0  0  0
   -5.2008    3.3235   -4.8787 C   0  0  0  0  0  0  0  0  0  0  0  0
  1  2  1  0
  1  4  1  0
  3  4  2  0
  4 15  1  0
  5  3  1  0
  5  6  1  0
  5  9  1  6
  6  2  1  0
  6  7  1  1
  7 16  2  0
  7 17  1  0
  8 10  1  0
  9 10  2  0
 10 11  1  0
 11 12  2  0
 12 13  1  0
 12 19  1  0
 13 14  2  0
 14  9  1  0
 14 18  1  0
 19 20  1  0
 20 21  1  0
M  END
>  <DRUGBANK_ID>  (1) 
DB14050

>  <COMMON_NAME>  (1) 
Cannabidivarin

>  <CAS_NUMBER>  (1) 
24274-48-4

>  <UNII>  (1) 
I198VBV98I

>  <SYNONYMS>  (1) 
2-[(1R,6R)-3-methyl-6-prop-1-en-2-ylcyclohex-2-en-1-yl]-5-propylbenzene-1,3-diol; cannabidivarine; Cannabidivarol; CBD-V; CBDV

$$$$
