
     RDKit          3D

 11 11  0  0  0  0  0  0  0  0999 V2000
    0.7146    1.2684   -0.1659 C   0  0  0  0  0  0  0  0  0  0  0  0
    1.4428   -0.0235    0.2240 C   0  0  0  0  0  0  0  0  0  0  0  0
    0.7090   -1.2848   -0.3062 C   0  0  0  0  0  0  0  0  0  0  0  0
   -0.7320   -1.2619    0.2664 C   0  0  0  0  0  0  0  0  0  0  0  0
   -1.4759    0.0091   -0.1625 C   0  0  0  0  0  0  0  0  0  0  0  0
   -0.7439    1.2705    0.3193 C   0  0  0  0  0  0  0  0  0  0  0  0
    0.7878   -1.3828   -1.8674 C   0  0  0  0  0  0  0  0  0  0  0  0
    2.2394   -1.3742   -2.3616 C   0  0  0  0  0  0  0  0  0  0  0  0
    0.1090   -2.6229   -2.4565 C   0  0  0  0  0  0  0  0  0  0  0  0
   -0.8101    1.3831    1.8474 C   0  0  0  0  0  0  0  0  0  0  0  0
   -1.4695   -2.4305   -0.0539 O   0  0  0  0  0  0  0  0  0  0  0  0
  1  2  1  0
  1  6  1  0
  2  3  1  0
  3  7  1  0
  3  4  1  0
  4  5  1  0
  4 11  1  0
  5  6  1  0
  6 10  1  0
  7  8  1  0
  7  9  1  0
M  END
>  <DRUGBANK_ID>  (1) 
DB14123

>  <COMMON_NAME>  (1) 
Menthol

>  <CAS_NUMBER>  (1) 
1490-04-6

>  <UNII>  (1) 
L7T10EIP3A

>  <SYNONYMS>  (1) 
(+-)-Menthol; (1R,2S,5R)-Menthol; DL-menthol; Hexahydrothymol; Menthol natural; Menthol racemic; Menthol racemique; p-Menthan-3-ol; Racementhol; Racementholum; Racementol

$$$$
