
     RDKit          3D

 22 22  0  0  0  0  0  0  0  0999 V2000
    1.5453   -0.1721    0.4761 C   0  0  0  0  0  0  0  0  0  0  0  0
    1.1091    1.6369    2.1443 C   0  0  0  0  0  0  0  0  0  0  0  0
   -0.4375    0.8120   -1.1644 C   0  0  0  0  0  0  0  0  0  0  0  0
   -0.2523    3.3617   -0.9440 C   0  0  0  0  0  0  0  0  0  0  0  0
   -7.6861    4.0001   -2.2399 C   0  0  0  0  0  0  0  0  0  0  0  0
   -5.2911    1.2249    1.8917 C   0  0  0  0  0  0  0  0  0  0  0  0
   -3.9032    1.1779    1.9904 C   0  0  0  0  0  0  0  0  0  0  0  0
   -7.4172    1.4427    0.5620 C   0  0  0  0  0  0  0  0  0  0  0  0
   -7.7858    2.7652   -0.1511 C   0  0  0  0  0  0  0  0  0  0  0  0
   -5.1434    1.0437   -0.5120 C   0  0  0  0  0  0  0  0  0  0  0  0
    0.6768    0.2320    1.7375 C   0  0  0  0  0  0  0  0  0  0  0  0
   -1.1037    2.1527   -1.1898 C   0  0  0  0  0  0  0  0  0  0  0  0
   -5.9237    1.2005    0.6436 C   0  0  0  0  0  0  0  0  0  0  0  0
   -3.1228    1.0640    0.8452 C   0  0  0  0  0  0  0  0  0  0  0  0
   -3.7500    1.1001   -0.4380 C   0  0  0  0  0  0  0  0  0  0  0  0
   -0.9365    0.0534    1.8103 C   0  0  0  0  0  0  0  0  0  0  0  0
   -2.0139    1.9201   -2.3100 C   0  0  0  0  0  0  0  0  0  0  0  0
   -7.3641    2.7652   -1.5562 N   0  0  0  0  0  0  0  0  0  0  0  0
   -1.4818   -0.8440    2.4381 O   0  0  0  0  0  0  0  0  0  0  0  0
   -1.6886    1.9814   -3.4699 O   0  0  0  0  0  0  0  0  0  0  0  0
   -1.6907    1.0331    1.1108 O   0  0  0  0  0  0  0  0  0  0  0  0
   -3.2002    1.3159   -1.7858 O   0  0  0  0  0  0  0  0  0  0  0  0
  7  6  2  0
  9  8  1  0
 11  1  1  0
 11  2  1  0
 12  3  1  0
 12  4  1  0
 13  6  1  0
 13  8  1  0
 13 10  2  0
 14  7  1  0
 15 10  1  0
 15 14  2  0
 16 11  1  0
 17 12  1  0
 18  5  1  0
 18  9  1  0
 19 16  2  0
 20 17  2  0
 21 14  1  0
 21 16  1  0
 22 15  1  0
 22 17  1  0
M  END
>  <DRUGBANK_ID>  (1) 
DB13316

>  <COMMON_NAME>  (1) 
Ibopamine

>  <CAS_NUMBER>  (1) 
66195-31-1

>  <UNII>  (1) 
8ZCA2I2L11

>  <SYNONYMS>  (1) 
Ibopamine

$$$$
