
     RDKit          3D

 31 33  0  0  1  0  0  0  0  0999 V2000
    2.8471   -0.8783    3.2536 C   0  0  0  0  0  0  0  0  0  0  0  0
    6.4951    2.8888    3.5400 C   0  0  0  0  0  0  0  0  0  0  0  0
    8.0495   -0.8621    5.1406 C   0  0  0  0  0  0  0  0  0  0  0  0
    4.0629   -1.6927    2.7669 C   0  0  2  0  0  0  0  0  0  0  0  0
    7.9970    1.2613    5.0114 C   0  0  0  0  0  0  0  0  0  0  0  0
    4.3522   -2.8913    3.6711 C   0  0  2  0  0  0  0  0  0  0  0  0
    5.5238   -2.4387    4.5100 C   0  0  2  0  0  0  0  0  0  0  0  0
    8.1740    2.6481    5.1204 C   0  0  0  0  0  0  0  0  0  0  0  0
    7.0301    0.8169    4.1351 C   0  0  0  0  0  0  0  0  0  0  0  0
    6.2668   -1.5303    3.5382 C   0  0  2  0  0  0  0  0  0  0  0  0
    9.0941    3.2126    5.9680 N   0  0  0  0  0  0  0  0  0  0  0  0
    7.4017    3.4597    4.3586 N   0  0  0  0  0  0  0  0  0  0  0  0
    6.2265    1.5856    3.3661 N   0  0  0  0  0  0  0  0  0  0  0  0
    8.6258    0.2024    5.6407 N   0  0  0  0  0  0  0  0  0  0  0  0
    7.0713   -0.5429    4.2272 N   0  0  0  0  0  0  0  0  0  0  0  0
    4.8237   -4.0450    2.9555 O   0  0  0  0  0  0  0  0  0  0  0  0
    6.3256   -3.5524    4.9137 O   0  0  0  0  0  0  0  0  0  0  0  0
   -0.2938    0.6913    0.4315 O   0  0  0  0  0  0  0  0  0  0  0  0
   -2.1113    1.4113   -0.9626 O   0  0  0  0  0  0  0  0  0  0  0  0
   -0.9111    2.8085    0.4994 O   0  0  0  0  0  0  0  0  0  0  0  0
   -2.7286   -2.0097    2.0165 O   0  0  0  0  0  0  0  0  0  0  0  0
   -0.8977   -0.4291    2.3328 O   0  0  0  0  0  0  0  0  0  0  0  0
    1.5122   -1.1779    0.8530 O   0  0  0  0  0  0  0  0  0  0  0  0
    1.5876   -1.6334    3.2055 O   0  0  0  0  0  0  0  0  0  0  0  0
    5.2627   -0.9064    2.7194 O   0  0  0  0  0  0  0  0  0  0  0  0
   -2.5953    0.0085    0.7658 O   0  0  0  0  0  0  0  0  0  0  0  0
   -0.4362   -2.5603    1.6093 O   0  0  0  0  0  0  0  0  0  0  0  0
   -1.7065    1.4860    0.6252 P   0  0  0  0  0  0  0  0  0  0  0  0
   -1.5157   -1.2759    1.1875 P   0  0  2  0  0  0  0  0  0  0  0  0
    1.1573   -2.4004    1.8184 P   0  0  1  0  0  0  0  0  0  0  0  0
    2.0114   -4.0694    1.3905 S   0  0  0  0  0  0  0  0  0  0  0  0
  4  1  1  1
  6  4  1  0
  6 16  1  6
  7  6  1  0
  7 17  1  6
  8  5  2  0
  9  5  1  0
 10  7  1  0
 10 15  1  1
 11  8  1  0
 12  2  2  0
 12  8  1  0
 13  2  1  0
 13  9  2  0
 14  3  2  0
 14  5  1  0
 15  3  1  0
 15  9  1  0
 24  1  1  0
 25  4  1  0
 25 10  1  0
 28 18  1  0
 28 19  1  0
 28 20  2  0
 28 26  1  0
 29 21  1  1
 29 22  2  0
 29 26  1  0
 29 27  1  0
 30 27  1  0
 30 31  2  0
 30 24  1  0
 30 23  1  0
M  END
>  <DRUGBANK_ID>  (1) 
DB02355

>  <SECONDARY_ACCESSION_NUMBERS>  (1) 
EXPT03009

>  <COMMON_NAME>  (1) 
Adenosine-5'-Rp-Alpha-Thio-Triphosphate

$$$$
