
     RDKit          3D

 27 26  0  0  1  0  0  0  0  0999 V2000
    1.0425   -2.0783    1.3972 C   0  0  0  0  0  0  0  0  0  0  0  0
    0.5319   -1.4402    0.1042 C   0  0  2  0  0  0  0  0  0  0  0  0
    1.1235   -0.1013   -0.1217 N   0  0  0  0  0  0  0  0  0  0  0  0
   -1.0081   -1.3827    0.0896 C   0  0  0  0  0  0  0  0  0  0  0  0
   -1.6888   -2.0713   -0.6731 O   0  0  0  0  0  0  0  0  0  0  0  0
   -1.6734   -0.5419    0.9369 N   0  0  0  0  0  0  0  0  0  0  0  0
   -1.1278    0.1822    2.0823 C   0  0  1  0  0  0  0  0  0  0  0  0
   -1.2731    1.7063    1.9727 C   0  0  0  0  0  0  0  0  0  0  0  0
   -2.5925    2.2872    2.3850 C   0  0  0  0  0  0  0  0  0  0  0  0
   -2.6470    2.3147    3.9371 C   0  0  0  0  0  0  0  0  0  0  0  0
   -3.2445    3.4180    4.4293 O   0  0  0  0  0  0  0  0  0  0  0  0
   -2.3423    1.4473    4.6934 O   0  0  0  0  0  0  0  0  0  0  0  0
   -1.5629   -0.5217    3.3833 C   0  0  0  0  0  0  0  0  0  0  0  0
   -0.7009   -0.8157    4.2210 O   0  0  0  0  0  0  0  0  0  0  0  0
   -2.8952   -0.7540    3.6854 N   0  0  0  0  0  0  0  0  0  0  0  0
   -4.1632   -0.1804    3.1106 C   0  0  1  0  0  0  0  0  0  0  0  0
   -5.1739   -1.2280    2.7146 C   0  0  0  0  0  0  0  0  0  0  0  0
   -5.8190   -1.8064    3.9231 C   0  0  0  0  0  0  0  0  0  0  0  0
   -7.0722   -1.3538    4.1455 O   0  0  0  0  0  0  0  0  0  0  0  0
   -5.2299   -2.4930    4.7442 O   0  0  0  0  0  0  0  0  0  0  0  0
   -4.9858    1.1315    3.6963 C   0  0  0  0  0  0  0  0  0  0  0  0
   -5.2708    2.0980    2.9714 O   0  0  0  0  0  0  0  0  0  0  0  0
   -5.3968    1.2511    4.9907 N   0  0  0  0  0  0  0  0  0  0  0  0
   -5.2531    0.2126    5.9641 C   0  0  0  0  0  0  0  0  0  0  0  0
   -4.5264    0.3377    7.2789 C   0  0  0  0  0  0  0  0  0  0  0  0
   -5.2813   -0.0557    8.3309 O   0  0  0  0  0  0  0  0  0  0  0  0
   -3.3595    0.6672    7.3911 O   0  0  0  0  0  0  0  0  0  0  0  0
  2  4  1  0
  2  3  1  0
  2  1  1  1
  4  5  2  0
  4  6  1  0
  7  6  1  0
  7  8  1  1
  7 13  1  0
  8  9  1  0
  9 10  1  0
 10 11  1  0
 10 12  2  0
 13 14  2  0
 13 15  1  0
 16 15  1  0
 16 17  1  1
 16 21  1  0
 17 18  1  0
 18 19  1  0
 18 20  2  0
 21 22  2  0
 21 23  1  0
 23 24  1  0
 24 25  1  0
 25 26  1  0
 25 27  2  0
M  END
>  <DRUGBANK_ID>  (1) 
DB17882

>  <COMMON_NAME>  (1) 
Epitalon

>  <CAS_NUMBER>  (1) 
307297-39-8

>  <UNII>  (1) 
O65P17785G

>  <SYNONYMS>  (1) 
Ala-glu-asp-gly; Epithalon; Glycine, l-alanyl-l-.alpha.-glutamyl-l-.alpha.-aspartyl-

$$$$
