
     RDKit          3D

 13 14  0  0  0  0  0  0  0  0999 V2000
    1.0472    0.1009    0.1131 O   0  0  0  0  0  0  0  0  0  0  0  0
    0.4057    1.1594   -0.4983 C   0  0  0  0  0  0  0  0  0  0  0  0
    0.8995    1.6797   -1.6979 C   0  0  0  0  0  0  0  0  0  0  0  0
    2.4207    0.9325   -2.5465 Br  0  0  0  0  0  0  0  0  0  0  0  0
    0.2595    2.7496   -2.3118 C   0  0  0  0  0  0  0  0  0  0  0  0
   -0.8740    3.2978   -1.7178 C   0  0  0  0  0  0  0  0  0  0  0  0
   -1.7054    4.7402   -2.6503 Br  0  0  0  0  0  0  0  0  0  0  0  0
   -1.4106    2.7554   -0.5284 C   0  0  0  0  0  0  0  0  0  0  0  0
   -2.6143    3.1972    0.0501 C   0  0  0  0  0  0  0  0  0  0  0  0
   -3.1962    2.4970    1.0923 C   0  0  0  0  0  0  0  0  0  0  0  0
   -2.4574    1.4930    1.6771 C   0  0  0  0  0  0  0  0  0  0  0  0
   -1.2523    1.0985    1.2220 N   0  0  0  0  0  0  0  0  0  0  0  0
   -0.7569    1.6619    0.0992 C   0  0  0  0  0  0  0  0  0  0  0  0
  1  2  1  0
  2  3  2  0
  2 13  1  0
  3  4  1  0
  3  5  1  0
  5  6  2  0
  6  7  1  0
  6  8  1  0
  8  9  1  0
  8 13  2  0
  9 10  2  0
 10 11  1  0
 11 12  2  0
 12 13  1  0
M  END
>  <DRUGBANK_ID>  (1) 
DB13536

>  <COMMON_NAME>  (1) 
Broxyquinoline

>  <CAS_NUMBER>  (1) 
521-74-4

>  <UNII>  (1) 
UK4C618C8T

>  <SYNONYMS>  (1) 
Broxyquinoline

$$$$
