
     RDKit          3D

 19 19  0  0  1  0  0  0  0  0999 V2000
    1.0794   -0.2932    0.0686 C   0  0  0  0  0  0  0  0  0  0  0  0
    0.3652    0.9852    0.2899 C   0  0  0  0  0  0  0  0  0  0  0  0
   -0.4118    1.4091   -0.9311 C   0  0  0  0  0  0  0  0  0  0  0  0
    0.5088    1.6570    1.4572 C   0  0  0  0  0  0  0  0  0  0  0  0
    1.5894    1.3950    2.4999 C   0  0  0  0  0  0  0  0  0  0  0  0
    2.8117    2.3776    2.5595 C   0  0  0  0  0  0  0  0  0  0  0  0
    2.5112    3.8778    2.9011 C   0  0  1  0  0  0  0  0  0  0  0  0
    1.7856    3.9039    4.2648 C   0  0  0  0  0  0  0  0  0  0  0  0
    3.8172    4.6791    3.0533 C   0  0  0  0  0  0  0  0  0  0  0  0
    4.1466    5.7831    2.3597 C   0  0  0  0  0  0  0  0  0  0  0  0
    1.6257    4.5704    1.8807 C   0  0  0  0  0  0  0  0  0  0  0  0
    1.4778    4.1979    0.5923 C   0  0  0  0  0  0  0  0  0  0  0  0
    0.5244    4.8351   -0.2943 C   0  0  0  0  0  0  0  0  0  0  0  0
    0.8638    6.0060   -0.9321 C   0  0  0  0  0  0  0  0  0  0  0  0
    0.0818    6.4480   -1.9938 C   0  0  0  0  0  0  0  0  0  0  0  0
   -0.9432    5.6424   -2.4897 C   0  0  0  0  0  0  0  0  0  0  0  0
   -1.6403    5.9649   -3.6100 O   0  0  0  0  0  0  0  0  0  0  0  0
   -1.3283    4.5106   -1.8116 C   0  0  0  0  0  0  0  0  0  0  0  0
   -0.6963    4.2416   -0.6070 C   0  0  0  0  0  0  0  0  0  0  0  0
  1  2  1  0
  2  3  1  0
  2  4  2  3
  4  5  1  0
  5  6  1  0
  7  6  1  0
  7  8  1  1
  7  9  1  0
  7 11  1  0
  9 10  2  0
 11 12  2  0
 12 13  1  0
 13 14  2  0
 13 19  1  0
 14 15  1  0
 15 16  2  0
 16 17  1  0
 16 18  1  0
 18 19  2  0
M  END
>  <DRUGBANK_ID>  (1) 
DB16102

>  <COMMON_NAME>  (1) 
Bakuchiol

>  <CAS_NUMBER>  (1) 
10309-37-2

>  <UNII>  (1) 
OT12HJU3AR

>  <SYNONYMS>  (1) 
(+)-bakuchiol; (s)-bakuchiol; Drupanol; Sytenol a

$$$$
