S27
     RDKit          3D

 26 27  0  0  0  0  0  0  0  0999 V2000
    3.3084   -0.0813   -1.6341 C   0  0  0  0  0  0  0  0  0  0  0  0
    3.2922    1.2347   -2.0774 C   0  0  0  0  0  0  0  0  0  0  0  0
    3.4937    1.5272   -3.4331 C   0  0  0  0  0  0  0  0  0  0  0  0
    3.7616    0.5179   -4.3446 C   0  0  0  0  0  0  0  0  0  0  0  0
    3.5800   -0.7793   -3.9412 C   0  0  0  0  0  0  0  0  0  0  0  0
    3.1851   -1.0502   -2.6288 C   0  0  0  0  0  0  0  0  0  0  0  0
    3.1355   -0.5411    0.2349 P   0  0  0  0  0  0  0  0  0  0  0  0
    1.6197   -0.2737    0.0666 O   0  0  0  0  0  0  0  0  0  0  0  0
    3.1589    1.1406    1.1253 C   0  0  0  0  0  0  0  0  0  0  0  0
    4.8780   -0.8487    0.4284 N   0  0  0  0  0  0  0  0  0  0  0  0
    5.4844   -0.3037    1.7507 C   0  0  0  0  0  0  0  0  0  0  0  0
    4.9473   -0.7714    3.1251 C   0  0  0  0  0  0  0  0  0  0  0  0
    5.3271   -2.0256    3.5681 C   0  0  0  0  0  0  0  0  0  0  0  0
    4.6112   -2.7080    4.5645 C   0  0  0  0  0  0  0  0  0  0  0  0
    3.6975   -2.0454    5.3537 C   0  0  0  0  0  0  0  0  0  0  0  0
    3.5634   -0.6824    5.1681 C   0  0  0  0  0  0  0  0  0  0  0  0
    4.1414   -0.0618    4.0399 C   0  0  0  0  0  0  0  0  0  0  0  0
    5.0515   -2.4209    0.4237 C   0  0  1  0  0  0  0  0  0  0  0  0
    4.1630   -3.3754    1.3262 C   0  0  0  0  0  0  0  0  0  0  0  0
    2.8735   -3.7490    0.9838 N   0  0  0  0  0  0  0  0  0  0  0  0
    2.2879   -4.5375    2.0432 O   0  0  0  0  0  0  0  0  0  0  0  0
    4.6766   -4.0691    2.2292 O   0  0  0  0  0  0  0  0  0  0  0  0
    4.8410   -3.0586   -0.9348 C   0  0  0  0  0  0  0  0  0  0  0  0
    5.6498   -2.4881   -2.0781 C   0  0  0  0  0  0  0  0  0  0  0  0
    7.1349   -2.6108   -1.8688 C   0  0  0  0  0  0  0  0  0  0  0  0
    5.2543   -3.2344   -3.3554 C   0  0  0  0  0  0  0  0  0  0  0  0
  1  2  2  0
  1  6  1  0
  2  3  1  0
  3  4  2  0
  4  5  1  0
  5  6  2  0
  7  9  1  0
  7 10  1  0
  7  8  2  0
  7  1  1  0
 10 11  1  0
 11 12  1  0
 12 13  2  0
 12 17  1  0
 13 14  1  0
 14 15  2  0
 15 16  1  0
 16 17  2  0
 18 10  1  0
 18 19  1  0
 18 23  1  6
 19 20  1  0
 19 22  2  0
 20 21  1  0
 23 24  1  0
 24 25  1  0
 24 26  1  0
M  END
>  <DRUGBANK_ID>  (1) 
DB08507

>  <COMMON_NAME>  (1) 
N-[[2-METHYL-4-HYDROXYCARBAMOYL]BUT-4-YL-N]-BENZYL-P-[PHENYL]-P-[METHYL]PHOSPHINAMID

$$$$
