
     RDKit          3D

 38 43  0  0  0  0  0  0  0  0999 V2000
    0.0588   -0.1180   -0.6626 C   0  0  0  0  0  0  0  0  0  0  0  0
   -0.5134   -0.3731   -1.9838 C   0  0  0  0  0  0  0  0  0  0  0  0
   -0.2760   -1.7412   -2.7987 C   0  0  0  0  0  0  0  0  0  0  0  0
   -1.8934   -0.1213   -1.4080 C   0  0  0  0  0  0  0  0  0  0  0  0
   -1.9939    1.2352   -0.4291 C   0  0  0  0  0  0  0  0  0  0  0  0
   -2.4642    2.2406   -0.9969 O   0  0  0  0  0  0  0  0  0  0  0  0
   -1.5139    1.4322    0.9523 N   0  0  0  0  0  0  0  0  0  0  0  0
   -0.4485    0.8813    1.9664 C   0  0  0  0  0  0  0  0  0  0  0  0
    1.0219    0.7556    1.8907 C   0  0  0  0  0  0  0  0  0  0  0  0
    1.9999   -0.1178    2.7608 C   0  0  0  0  0  0  0  0  0  0  0  0
    1.2737   -0.5548    3.8432 C   0  0  0  0  0  0  0  0  0  0  0  0
   -0.0530   -0.2114    4.1219 N   0  0  0  0  0  0  0  0  0  0  0  0
   -0.8528    0.4737    3.2122 C   0  0  0  0  0  0  0  0  0  0  0  0
    3.5680   -0.8947    2.4058 C   0  0  0  0  0  0  0  0  0  0  0  0
    3.7179   -2.3324    2.3995 C   0  0  0  0  0  0  0  0  0  0  0  0
    4.6280   -3.1379    1.5478 C   0  0  0  0  0  0  0  0  0  0  0  0
    5.5300   -2.4587    0.7478 C   0  0  0  0  0  0  0  0  0  0  0  0
    6.2522   -3.4169    0.0736 N   0  0  0  0  0  0  0  0  0  0  0  0
    5.7801   -4.6716    0.2157 N   0  0  0  0  0  0  0  0  0  0  0  0
    4.6975   -4.4999    0.9923 C   0  0  0  0  0  0  0  0  0  0  0  0
    3.4331   -5.3419    0.7087 C   0  0  0  0  0  0  0  0  0  0  0  0
    2.5776   -4.7248   -0.1049 N   0  0  0  0  0  0  0  0  0  0  0  0
    1.8092   -4.0479    0.8016 C   0  0  0  0  0  0  0  0  0  0  0  0
    1.4465   -2.6755    0.8109 C   0  0  0  0  0  0  0  0  0  0  0  0
    0.4976   -2.5660    1.8752 C   0  0  0  0  0  0  0  0  0  0  0  0
    0.3103   -3.3921    2.9913 N   0  0  0  0  0  0  0  0  0  0  0  0
    1.0304   -4.5155    3.0958 C   0  0  0  0  0  0  0  0  0  0  0  0
    1.7038   -4.8703    1.9482 C   0  0  0  0  0  0  0  0  0  0  0  0
    2.6162   -5.8628    1.6944 N   0  0  0  0  0  0  0  0  0  0  0  0
    2.2595   -1.5868   -0.1805 C   0  0  0  0  0  0  0  0  0  0  0  0
    2.1888   -1.7692   -1.5310 C   0  0  0  0  0  0  0  0  0  0  0  0
    2.3301   -0.6348   -2.5482 C   0  0  0  0  0  0  0  0  0  0  0  0
    2.6746    0.6836   -2.2954 C   0  0  0  0  0  0  0  0  0  0  0  0
    3.0462    0.8633   -0.9905 C   0  0  0  0  0  0  0  0  0  0  0  0
    3.1067    2.1086   -0.5028 F   0  0  0  0  0  0  0  0  0  0  0  0
    2.8073   -0.2463   -0.0821 C   0  0  0  0  0  0  0  0  0  0  0  0
    5.5490   -1.0628    0.7368 C   0  0  0  0  0  0  0  0  0  0  0  0
    4.6629   -0.3270    1.6467 C   0  0  0  0  0  0  0  0  0  0  0  0
  1  2  1  0
  2  3  1  0
  2  4  1  0
  4  5  1  0
  5  6  2  0
  5  7  1  0
  7  8  1  0
  8  9  2  0
  8 13  1  0
  9 10  1  0
 10 11  2  0
 10 14  1  0
 11 12  1  0
 12 13  2  0
 14 15  2  0
 14 38  1  0
 15 16  1  0
 16 17  2  0
 16 20  1  0
 17 18  1  0
 17 37  1  0
 18 19  1  0
 19 20  2  0
 20 21  1  0
 21 22  2  0
 21 29  1  0
 22 23  1  0
 23 24  2  0
 23 28  1  0
 24 25  1  0
 24 30  1  0
 25 26  2  0
 26 27  1  0
 27 28  2  0
 28 29  1  0
 30 31  2  0
 30 36  1  0
 31 32  1  0
 32 33  2  0
 33 34  1  0
 34 35  1  0
 34 36  2  0
 37 38  2  0
M  END
>  <DRUGBANK_ID>  (1) 
DB14883

>  <COMMON_NAME>  (1) 
Lorecivivint

>  <CAS_NUMBER>  (1) 
1467093-03-3

>  <UNII>  (1) 
42EK42WHI5

>  <SYNONYMS>  (1) 
Lorecivivint

$$$$
