
     RDKit          3D

  6  5  0  0  1  0  0  0  0  0999 V2000
    3.5987    0.5178   -4.2469 C   0  0  0  0  0  0  0  0  0  0  0  0
    1.0441   -1.6788   -2.3558 C   0  0  0  0  0  0  0  0  0  0  0  0
    1.0891   -0.5565   -4.8987 C   0  0  0  0  0  0  0  0  0  0  0  0
   -1.0580   -0.3346   -3.3043 O   0  0  0  0  0  0  0  0  0  0  0  0
    2.8631   -0.9208   -5.0631 S   0  0  0  0  0  0  0  0  0  0  0  0
    0.4414   -0.2224   -3.2353 S   0  0  0  0  0  0  0  0  0  0  0  0
  5  1  1  0
  5  3  1  0
  6  4  2  0
  6  3  1  0
  6  2  1  0
M  END
>  <DRUGBANK_ID>  (1) 
DB02311

>  <SECONDARY_ACCESSION_NUMBERS>  (1) 
EXPT01278

>  <COMMON_NAME>  (1) 
Methyl Methylsulfinylmethyl Sulfide

>  <CAS_NUMBER>  (1) 
33577-16-1

$$$$
