
     RDKit          3D

 24 27  0  0  1  0  0  0  0  0999 V2000
   -1.5594   -8.7778   -1.8650 C   0  0  0  0  0  0  0  0  0  0  0  0
   -2.2118   -7.4839   -2.4335 C   0  0  0  0  0  0  0  0  0  0  0  0
   -3.1160   -6.8061   -1.3313 N   0  0  1  0  0  0  0  0  0  0  0  0
   -2.2613   -5.7803   -0.5019 C   0  0  1  0  0  0  0  0  0  0  0  0
   -1.9572   -4.5363   -1.3950 C   0  0  0  0  0  0  0  0  0  0  0  0
   -3.2692   -3.7619   -1.8934 C   0  0  2  0  0  0  0  0  0  0  0  0
   -4.3895   -4.7386   -2.3898 C   0  0  0  0  0  0  0  0  0  0  0  0
   -4.4587   -5.9180   -1.4492 C   0  0  2  0  0  0  0  0  0  0  0  0
   -4.6395   -5.4630    0.0110 C   0  0  1  0  0  0  0  0  0  0  0  0
   -3.1646   -5.4329    0.6330 C   0  0  2  0  0  0  0  0  0  0  0  0
   -4.0275   -4.3123    0.5131 O   0  0  0  0  0  0  0  0  0  0  0  0
   -2.9700   -2.5855   -2.7577 O   0  0  0  0  0  0  0  0  0  0  0  0
   -2.5979   -2.1150   -3.9790 C   0  0  0  0  0  0  0  0  0  0  0  0
   -2.5468   -0.9212   -4.1297 O   0  0  0  0  0  0  0  0  0  0  0  0
   -2.1446   -3.0944   -5.1406 C   0  0  2  0  0  0  0  0  0  0  0  0
   -2.2840   -4.6183   -5.1271 C   0  0  0  0  0  0  0  0  0  0  0  0
   -2.5614   -4.9328   -3.8375 O   0  0  0  0  0  0  0  0  0  0  0  0
   -0.6661   -2.8756   -5.3707 C   0  0  0  0  0  0  0  0  0  0  0  0
   -0.3031   -1.8810   -6.2669 C   0  0  0  0  0  0  0  0  0  0  0  0
    1.0368   -1.6928   -6.5580 C   0  0  0  0  0  0  0  0  0  0  0  0
    2.0159   -2.4832   -5.9495 C   0  0  0  0  0  0  0  0  0  0  0  0
    1.6703   -3.4460   -5.0134 C   0  0  0  0  0  0  0  0  0  0  0  0
    0.3341   -3.6421   -4.7246 C   0  0  0  0  0  0  0  0  0  0  0  0
   -3.7536   -8.0110   -0.5571 C   0  0  0  0  0  0  0  0  0  0  0  0
  1  2  1  0
  2  3  1  0
  3  4  1  0
  3  8  1  0
  3 24  1  1
  4  5  1  6
  4 10  1  0
  5  6  1  0
  6  7  1  0
  6 12  1  6
  8  7  1  6
  8  9  1  0
  9 10  1  0
  9 11  1  6
 10 11  1  6
 12 13  1  0
 13 14  2  0
 15 18  1  0
 15 16  1  1
 15 13  1  0
 16 17  1  0
 18 19  2  0
 18 23  1  0
 19 20  1  0
 20 21  2  0
 21 22  1  0
 22 23  2  0
M  CHG  1   3   1
M  END
>  <DRUGBANK_ID>  (1) 
DB12086

>  <COMMON_NAME>  (1) 
Oxitropium

>  <CAS_NUMBER>  (1) 
99571-64-9

>  <UNII>  (1) 
8G15T83E6I

$$$$
