
     RDKit          3D

 38 41  0  0  1  0  0  0  0  0999 V2000
   -6.2596   -8.5984    0.0785 C   0  0  0  0  0  0  0  0  0  0  0  0
   -5.4250   -7.3670    0.1037 C   0  0  0  0  0  0  0  0  0  0  0  0
   -5.9145   -6.1516    0.0029 N   0  0  0  0  0  0  0  0  0  0  0  0
   -4.8918   -5.2190    0.0728 C   0  0  0  0  0  0  0  0  0  0  0  0
   -5.0509   -3.8118    0.0390 C   0  0  0  0  0  0  0  0  0  0  0  0
   -3.9422   -2.9594    0.1962 C   0  0  0  0  0  0  0  0  0  0  0  0
   -2.6669   -3.5433    0.2644 C   0  0  0  0  0  0  0  0  0  0  0  0
   -2.4771   -4.9334    0.2861 C   0  0  0  0  0  0  0  0  0  0  0  0
   -3.6104   -5.7544    0.2115 C   0  0  0  0  0  0  0  0  0  0  0  0
   -3.7208   -7.4745    0.2680 S   0  0  0  0  0  0  0  0  0  0  0  0
   -4.0722   -1.4362    0.2408 C   0  0  2  0  0  0  0  0  0  0  0  0
   -4.8131   -0.7832    1.4837 C   0  0  0  0  0  0  0  0  0  0  0  0
   -3.9777   -0.5216    2.7715 C   0  0  0  0  0  3  0  0  0  0  0  0
   -3.6439    0.5897    3.7597 C   0  0  2  0  0  0  0  0  0  0  0  0
   -4.7968   -0.2336    3.8443 O   0  0  0  0  0  0  0  0  0  0  0  0
   -3.9626    2.0852    3.6169 C   0  0  0  0  0  0  0  0  0  0  0  0
   -2.6427    2.8947    3.7907 C   0  0  0  0  0  0  0  0  0  0  0  0
   -2.5043    4.2404    3.0924 C   0  0  0  0  0  0  0  0  0  0  0  0
   -2.5420    4.0030    1.6012 C   0  0  1  0  0  0  0  0  0  0  0  0
   -2.5229    5.2934    0.7619 C   0  0  1  0  0  0  0  0  0  0  0  0
   -2.3115    5.0530   -0.7849 C   0  0  2  0  0  0  0  0  0  0  0  0
   -2.6925    3.5117   -1.2261 C   0  0  0  0  0  0  0  0  0  0  0  0
   -3.4534    2.8571   -0.5072 O   0  0  0  0  0  0  0  0  0  0  0  0
   -2.3721    2.8523   -2.6739 C   0  0  0  0  0  0  0  0  0  0  0  0
   -2.7201    1.3618   -2.6103 C   0  0  2  0  0  0  0  0  0  0  0  0
   -4.0786    0.8210   -2.2793 C   0  0  0  0  0  0  0  0  0  0  0  0
   -3.8731   -0.6256   -1.9238 C   0  0  0  0  0  0  0  0  0  0  0  0
   -2.9163   -1.3524   -2.3034 O   0  0  0  0  0  0  0  0  0  0  0  0
   -4.7473   -0.9977   -0.9645 O   0  0  0  0  0  0  0  0  0  0  0  0
   -1.7401    0.7813   -1.6996 O   0  0  0  0  0  0  0  0  0  0  0  0
   -3.3884    3.7582   -3.4800 C   0  0  0  0  0  0  0  0  0  0  0  0
   -0.7227    2.4132   -3.1757 C   0  0  0  0  0  0  0  0  0  0  0  0
   -0.9081    5.5610   -1.2711 C   0  0  0  0  0  0  0  0  0  0  0  0
   -0.7876    5.0345   -2.6254 C   0  0  0  0  0  0  0  0  0  0  0  0
   -0.8846    5.2517   -3.9404 C   0  0  0  0  0  0  0  0  0  0  0  0
   -3.7457    6.0262    0.9638 O   0  0  0  0  0  0  0  0  0  0  0  0
   -1.3153    3.1186    1.2577 C   0  0  0  0  0  0  0  0  0  0  0  0
   -2.7104    0.3995    4.9800 C   0  0  0  0  0  0  0  0  0  0  0  0
  1  2  1  0
  2  3  2  0
  2 10  1  0
  3  4  1  0
  4  5  2  0
  4  9  1  0
  5  6  1  0
  6  7  2  0
  7  8  1  0
  8  9  2  0
  9 10  1  0
 11 12  1  0
 11 29  1  0
 11  6  1  1
 12 13  1  0
 13 14  1  0
 13 15  1  0
 14 15  1  0
 14 16  1  0
 14 38  1  1
 16 17  1  0
 17 18  1  0
 18 19  1  0
 19 20  1  0
 19 37  1  6
 20 21  1  0
 20 36  1  6
 21 22  1  0
 21 33  1  1
 22 24  1  0
 22 23  2  0
 24 25  1  0
 24 31  1  0
 24 32  1  0
 25 26  1  0
 25 30  1  1
 26 27  1  0
 27 29  1  0
 27 28  2  0
 33 34  1  0
 34 35  2  0
M  RAD  1  13   2
M  END
>  <DRUGBANK_ID>  (1) 
DB12391

>  <SECONDARY_ACCESSION_NUMBERS>  (1) 
DB05654

>  <COMMON_NAME>  (1) 
Sagopilone

>  <CAS_NUMBER>  (1) 
305841-29-6

>  <UNII>  (1) 
KY72JU32FO

>  <SYNONYMS>  (1) 
Sagopilone

$$$$
