
     RDKit          3D

 29 24  0  0  1  0  0  0  0  0999 V2000
    3.8751   -4.9386    3.5715 C   0  0  0  0  0  0  0  0  0  0  0  0
    3.4442   -5.0069    2.0600 C   0  0  2  0  0  0  0  0  0  0  0  0
    2.0800   -4.5182    1.7321 C   0  0  2  0  0  0  0  0  0  0  0  0
    2.0049   -3.1151    1.2415 C   0  0  1  0  0  0  0  0  0  0  0  0
    3.7010   -1.8956    0.8960 C   0  0  2  0  0  0  0  0  0  0  0  0
    4.1808   -0.7450   -0.7128 C   0  0  0  0  0  0  0  0  0  0  0  0
    3.9751   -1.4328   -1.7525 O   0  0  0  0  0  0  0  0  0  0  0  0
    4.8315    0.3263   -0.5744 O   0  0  0  0  0  0  0  0  0  0  0  0
    4.9678   -2.1209    0.5094 O   0  0  0  0  0  0  0  0  0  0  0  0
    0.8755   -3.3578   -0.1442 O   0  0  0  0  0  0  0  0  0  0  0  0
    1.0971   -5.4684    2.0349 O   0  0  0  0  0  0  0  0  0  0  0  0
    4.0498   -6.0937    1.4255 O   0  0  0  0  0  0  0  0  0  0  0  0
    2.6358   -4.7788    4.2138 O   0  0  0  0  0  0  0  0  0  0  0  0
    5.4460   -3.6181    1.7945 C   0  0  0  0  0  0  0  0  0  0  0  0
    4.9297   -4.0220   -0.0409 C   0  0  2  0  0  0  0  0  0  0  0  0
    3.1962   -3.4234   -0.6497 C   0  0  2  0  0  0  0  0  0  0  0  0
    2.1758   -1.5395   -0.2105 C   0  0  1  0  0  0  0  0  0  0  0  0
    2.8003    0.0892    0.6709 C   0  0  2  0  0  0  0  0  0  0  0  0
    2.5217    0.9565   -0.7803 C   0  0  0  0  0  0  0  0  0  0  0  0
    1.9575    0.2482   -1.7199 O   0  0  0  0  0  0  0  0  0  0  0  0
    2.3278    2.1897   -0.7323 O   0  0  0  0  0  0  0  0  0  0  0  0
    4.2755    0.2378    1.5098 O   0  0  0  0  0  0  0  0  0  0  0  0
    0.8592   -1.3360   -0.7176 O   0  0  0  0  0  0  0  0  0  0  0  0
    2.5874   -5.0205   -0.7502 O   0  0  0  0  0  0  0  0  0  0  0  0
    5.3018   -5.3348   -0.5134 O   0  0  0  0  0  0  0  0  0  0  0  0
    4.3658   -2.8357    2.8096 O   0  0  0  0  0  0  0  0  0  0  0  0
    0.0515    0.0171    1.3871 O   0  0  0  0  0  0  0  0  0  0  0  0
   -0.1038    0.9416   -1.1153 O   0  0  0  0  0  0  0  0  0  0  0  0
   -1.0339   -0.1584   -0.0530 Mg  0  0  0  0  0 15  0  0  0  0  0  0
  1 13  1  0
  2 12  1  1
  2  3  1  0
  2  1  1  0
  3 11  1  1
  3  4  1  0
  4 10  1  6
  5  9  1  6
  5  6  1  0
  5  4  1  0
  6  7  2  0
  6  8  1  0
 14 26  1  0
 15 25  1  1
 15 16  1  0
 15 14  1  0
 16 24  1  1
 16 17  1  0
 17 23  1  6
 18 22  1  6
 18 19  1  0
 18 17  1  0
 19 20  2  0
 19 21  1  0
M  CHG  3   8  -1  21  -1  29   2
M  END
>  <DRUGBANK_ID>  (1) 
DB13749

>  <COMMON_NAME>  (1) 
Magnesium gluconate

>  <CAS_NUMBER>  (1) 
59625-89-7

>  <UNII>  (1) 
T42NAD2KHC

>  <SYNONYMS>  (1) 
Magnesium (as gluconate); Magnesium D-gluconate (1:2) dihydrate; Magnesium D-gluconate (1:2) hydrate; Magnesium gluconate; Magnesium gluconate,dihydrate; Magnesium gluconicum

$$$$
