
     RDKit          3D

 34 37  0  0  1  0  0  0  0  0999 V2000
    1.0450    0.0342   -0.4391 C   0  0  0  0  0  0  0  0  0  0  0  0
    0.3552   -1.3197   -0.7412 C   0  0  2  0  0  0  0  0  0  0  0  0
   -0.3576   -1.9802    0.4534 C   0  0  0  0  0  0  0  0  0  0  0  0
    0.5850   -2.6281    1.3805 N   0  0  0  0  0  0  0  0  0  0  0  0
    1.4302   -3.6520    0.7911 C   0  0  0  0  0  0  0  0  0  0  0  0
    2.2069   -3.0599   -0.3899 C   0  0  1  0  0  0  0  0  0  0  0  0
    1.2318   -2.4213   -1.4193 C   0  0  1  0  0  0  0  0  0  0  0  0
    0.3214   -3.4649   -2.1114 C   0  0  0  0  0  0  0  0  0  0  0  0
   -0.6575   -3.0278   -3.0193 C   0  0  0  0  0  0  0  0  0  0  0  0
   -1.5394   -3.9227   -3.6209 C   0  0  0  0  0  0  0  0  0  0  0  0
   -1.4735   -5.2794   -3.3246 C   0  0  0  0  0  0  0  0  0  0  0  0
   -0.5076   -5.7470   -2.4479 C   0  0  0  0  0  0  0  0  0  0  0  0
    0.3841   -4.8514   -1.8617 C   0  0  0  0  0  0  0  0  0  0  0  0
    2.0198   -1.8153   -2.4499 O   0  0  0  0  0  0  0  0  0  0  0  0
    3.2142   -2.0508    0.1773 C   0  0  0  0  0  0  0  0  0  0  0  0
    0.7562   -2.4287    2.7320 C   0  0  0  0  0  0  0  0  0  0  0  0
    1.5728   -3.0719    3.3784 O   0  0  0  0  0  0  0  0  0  0  0  0
   -0.0405   -1.3812    3.4564 C   0  0  2  0  0  0  0  0  0  0  0  0
   -1.5205   -1.7011    3.4726 C   0  0  0  0  0  0  0  0  0  0  0  0
   -2.1908   -0.4273    3.8021 N   0  0  0  0  0  0  0  0  0  0  0  0
   -1.3942    0.6102    3.1291 C   0  0  0  0  0  0  0  0  0  0  0  0
    0.0156    0.0542    2.9617 C   0  0  1  0  0  0  0  0  0  0  0  0
    1.2289    0.8898    3.3093 C   0  0  0  0  0  0  0  0  0  0  0  0
    2.5119    0.3503    3.0996 C   0  0  0  0  0  0  0  0  0  0  0  0
    3.6629    1.1097    3.3002 C   0  0  0  0  0  0  0  0  0  0  0  0
    3.5447    2.4275    3.7082 C   0  0  0  0  0  0  0  0  0  0  0  0
    2.3031    3.0008    3.8985 C   0  0  0  0  0  0  0  0  0  0  0  0
    1.1660    2.2253    3.7324 C   0  0  0  0  0  0  0  0  0  0  0  0
    0.0089    2.8206    4.0378 F   0  0  0  0  0  0  0  0  0  0  0  0
    4.6445    3.1472    3.9543 F   0  0  0  0  0  0  0  0  0  0  0  0
   -2.3022   -0.1733    5.2630 C   0  0  0  0  0  0  0  0  0  0  0  0
   -0.9681   -0.1996    6.0314 C   0  0  0  0  0  0  0  0  0  0  0  0
   -2.9733    1.1955    5.5254 C   0  0  0  0  0  0  0  0  0  0  0  0
   -3.2203   -1.2551    5.8556 C   0  0  0  0  0  0  0  0  0  0  0  0
  2  1  1  1
  2  3  1  0
  2  7  1  0
  3  4  1  0
  4  5  1  0
  4 16  1  0
  5  6  1  0
  6  7  1  0
  6 15  1  1
  7  8  1  0
  7 14  1  6
  8  9  2  0
  8 13  1  0
  9 10  1  0
 10 11  2  0
 11 12  1  0
 12 13  2  0
 16 17  2  0
 18 16  1  6
 18 19  1  0
 18 22  1  0
 19 20  1  0
 20 21  1  0
 20 31  1  0
 21 22  1  0
 22 23  1  1
 23 24  2  0
 23 28  1  0
 24 25  1  0
 25 26  2  0
 26 27  1  0
 26 30  1  0
 27 28  2  0
 28 29  1  0
 31 32  1  0
 31 33  1  0
 31 34  1  0
M  END
>  <DRUGBANK_ID>  (1) 
DB12517

>  <COMMON_NAME>  (1) 
PF-00446687

>  <CAS_NUMBER>  (1) 
862281-92-3

>  <UNII>  (1) 
63P236Z73I

$$$$
