DLG
     RDKit          3D

 17 17  0  0  0  0  0  0  0  0999 V2000
    0.7373    1.1858   -0.5291 C   0  0  2  0  0  0  0  0  0  0  0  0
    1.5077   -0.0913   -0.1139 C   0  0  1  0  0  0  0  0  0  0  0  0
    0.8036   -1.3912   -0.4864 C   0  0  0  0  0  0  0  0  0  0  0  0
   -0.6963   -1.4541   -0.2457 C   0  0  2  0  0  0  0  0  0  0  0  0
   -1.4175   -0.1451   -0.6487 C   0  0  1  0  0  0  0  0  0  0  0  0
   -2.8083   -0.0187    0.0534 C   0  0  0  0  0  0  0  0  0  0  0  0
    1.1848    2.4138    0.1196 O   0  0  0  0  0  0  0  0  0  0  0  0
    2.8396   -0.1329   -0.6605 O   0  0  0  0  0  0  0  0  0  0  0  0
   -1.0568   -2.0323    1.0171 O   0  0  0  0  0  0  0  0  0  0  0  0
   -0.6916    1.1071   -0.5845 O   0  0  0  0  0  0  0  0  0  0  0  0
   -3.4889    1.1829   -0.3132 O   0  0  0  0  0  0  0  0  0  0  0  0
    1.3279    2.5436    1.5407 C   0  0  0  0  0  0  0  0  0  0  0  0
    0.0168    2.6871    2.3190 C   0  0  0  0  0  0  0  0  0  0  0  0
   -0.7754    1.4172    2.2989 C   0  0  0  0  0  0  0  0  0  0  0  0
   -0.0040    0.2097    2.7798 C   0  0  0  0  0  0  0  0  0  0  0  0
   -0.1432   -0.1474    4.2136 C   0  0  0  0  0  0  0  0  0  0  0  0
   -1.6037   -0.3159    4.5456 C   0  0  0  0  0  0  0  0  0  0  0  0
  1  2  1  0
  1  7  1  1
  1 10  1  0
  2  3  1  0
  2  8  1  6
  3  4  1  0
  4  5  1  0
  4  9  1  1
  5 10  1  0
  5  6  1  1
  6 11  1  0
  7 12  1  0
 12 13  1  0
 13 14  1  0
 14 15  1  0
 15 16  1  0
 16 17  1  0
M  END
>  <DRUGBANK_ID>  (1) 
DB03772

>  <SECONDARY_ACCESSION_NUMBERS>  (1) 
EXPT01217

>  <COMMON_NAME>  (1) 
2-Hexyloxy-6-Hydroxymethyl-Tetrahydro-Pyran-3,5-Diol

$$$$
