RRS
     RDKit          3D

 33 35  0  0  0  0  0  0  0  0999 V2000
    3.4827    0.9490    3.8710 C   0  0  0  0  0  0  0  0  0  0  0  0
    4.3381    1.8229    3.8004 O   0  0  0  0  0  0  0  0  0  0  0  0
    3.2275    0.4174    5.0732 N   0  0  0  0  0  0  0  0  0  0  0  0
    2.1565   -0.4227    5.3826 O   0  0  0  0  0  0  0  0  0  0  0  0
    2.6817    0.4177    2.7464 C   0  0  0  0  0  0  0  0  0  0  0  0
    3.1607    0.7233    1.3421 C   0  0  2  0  0  0  0  0  0  0  0  0
    2.4851   -0.5355    0.6871 C   0  0  0  0  0  0  0  0  0  0  0  0
    1.3541   -0.8308    1.1559 O   0  0  0  0  0  0  0  0  0  0  0  0
    2.9365   -1.0641   -0.5137 N   0  0  0  0  0  0  0  0  0  0  0  0
    2.3984   -0.2351   -1.5374 C   0  0  2  0  0  0  0  0  0  0  0  0
    0.3699   -0.4482   -1.3736 C   0  0  0  0  0  0  0  0  0  0  0  0
   -0.1545   -0.9198   -0.3738 O   0  0  0  0  0  0  0  0  0  0  0  0
   -0.9141    0.0993   -1.9054 N   0  0  0  0  0  0  0  0  0  0  0  0
   -1.7272    1.5490   -1.6725 C   0  0  0  0  0  0  0  0  0  0  0  0
   -0.9713    2.5063   -0.7649 C   0  0  0  0  0  0  0  0  0  0  0  0
    0.4403    2.1075   -0.9533 C   0  0  0  0  0  0  0  0  0  0  0  0
    0.6950    1.9605   -2.5195 C   0  0  0  0  0  0  0  0  0  0  0  0
    0.8403    3.3483   -3.0605 C   0  0  0  0  0  0  0  0  0  0  0  0
    1.9101    4.1275   -2.3009 C   0  0  0  0  0  0  0  0  0  0  0  0
    3.1583    3.4908   -2.6161 N   0  0  0  0  0  0  0  0  0  0  0  0
    4.6904    0.8311    1.2816 C   0  0  0  0  0  0  0  0  0  0  0  0
    5.2518    1.6057    0.1329 C   0  0  0  0  0  0  0  0  0  0  0  0
    4.7675    3.0396    0.0418 C   0  0  0  0  0  0  0  0  0  0  0  0
    6.7527    1.4995   -0.0126 C   0  0  0  0  0  0  0  0  0  0  0  0
    4.0010    0.0494   -2.4933 C   0  0  0  0  0  0  0  0  0  0  0  0
    4.2574    1.5377   -2.8340 C   0  0  0  0  0  0  0  0  0  0  0  0
    3.3153    2.2553   -2.2149 C   0  0  0  0  0  0  0  0  0  0  0  0
    5.1537    2.6668   -3.1798 C   0  0  0  0  0  0  0  0  0  0  0  0
    4.3306    3.8430   -3.1293 C   0  0  0  0  0  0  0  0  0  0  0  0
    6.5278    2.9505   -3.4279 C   0  0  0  0  0  0  0  0  0  0  0  0
    4.6868    5.1351   -3.4303 C   0  0  0  0  0  0  0  0  0  0  0  0
    6.9000    4.2757   -3.7887 C   0  0  0  0  0  0  0  0  0  0  0  0
    5.9838    5.3278   -3.8205 C   0  0  0  0  0  0  0  0  0  0  0  0
  1  2  2  0
  1  3  1  0
  1  5  1  0
  3  4  1  0
  6 21  1  1
  6  7  1  0
  6  5  1  0
  7  8  2  0
  7  9  1  0
 10  9  1  6
 10 11  1  0
 10 25  1  0
 11 12  2  0
 11 13  1  0
 13 14  1  0
 14 15  1  0
 15 16  1  0
 16 17  1  0
 17 18  1  0
 18 19  1  0
 19 20  1  0
 20 27  1  0
 20 29  1  0
 21 22  1  0
 22 23  1  0
 22 24  1  0
 25 26  1  0
 26 27  2  0
 26 28  1  0
 28 29  2  0
 28 30  1  0
 29 31  1  0
 30 32  2  0
 31 33  2  0
 32 33  1  0
M  END
>  <DRUGBANK_ID>  (1) 
DB08489

>  <COMMON_NAME>  (1) 
N4-HYDROXY-2-ISOBUTYL-N1-(9-OXO-1,8-DIAZA-TRICYCLO[10.6.1.013,18]NONADECA-12(19),13,15,17-TETRAEN-10-YL)-SUCCINAMIDE

$$$$
