HHG
     RDKit          3D

 17 16  0  0  0  0  0  0  0  0999 V2000
    0.9774   -0.0954   -0.0197 O   0  0  0  0  0  0  0  0  0  0  0  0
    0.4007    1.0832    1.1078 P   0  0  0  0  0  0  0  0  0  0  0  0
    1.7945    1.6986    0.9914 O   0  0  0  0  0  0  0  0  0  0  0  0
   -0.4871    1.7294   -0.0895 O   0  0  0  0  0  0  0  0  0  0  0  0
   -0.1760    2.2618    2.2353 O   0  0  0  0  0  0  0  0  0  0  0  0
    0.5453    2.2100    3.4214 C   0  0  0  0  0  0  0  0  0  0  0  0
    0.5518    0.8401    4.1048 C   0  0  1  0  0  0  0  0  0  0  0  0
    1.0737   -0.2024    3.2658 O   0  0  0  0  0  0  0  0  0  0  0  0
    1.4490    0.9388    5.3420 C   0  0  0  0  0  0  0  0  0  0  0  0
    0.9966    1.9560    6.2574 O   0  0  0  0  0  0  0  0  0  0  0  0
    1.2329    3.2669    5.9991 C   0  0  0  0  0  0  0  0  0  0  0  0
    1.9998    3.6876    5.1317 O   0  0  0  0  0  0  0  0  0  0  0  0
    0.4475    4.2019    6.8774 C   0  0  0  0  0  0  0  0  0  0  0  0
   -1.0113    3.8263    7.1607 C   0  0  0  0  0  0  0  0  0  0  0  0
   -1.1798    2.4962    7.9031 C   0  0  0  0  0  0  0  0  0  0  0  0
   -0.3113    2.4235    9.1612 C   0  0  0  0  0  0  0  0  0  0  0  0
   -0.7476    3.4708   10.1727 C   0  0  0  0  0  0  0  0  0  0  0  0
  1  2  1  0
  2  3  2  0
  2  4  1  0
  2  5  1  0
  5  6  1  0
  6  7  1  0
  7  8  1  6
  7  9  1  0
  9 10  1  0
 10 11  1  0
 11 12  2  0
 11 13  1  0
 13 14  1  0
 14 15  1  0
 15 16  1  0
 16 17  1  0
M  END
>  <DRUGBANK_ID>  (1) 
DB04199

>  <SECONDARY_ACCESSION_NUMBERS>  (1) 
EXPT01744

>  <COMMON_NAME>  (1) 
1-Monohexanoyl-2-Hydroxy-Sn-Glycero-3-Phosphate

$$$$
