
     RDKit          3D

 18 20  0  0  0  0  0  0  0  0999 V2000
   -2.5846    0.7423    0.0149 C   0  0  0  0  0  0  0  0  0  0  0  0
   -2.6048   -0.6661    0.0186 C   0  0  0  0  0  0  0  0  0  0  0  0
   -1.3739    1.4424   -0.0062 C   0  0  0  0  0  0  0  0  0  0  0  0
   -1.4144   -1.3974    0.0089 C   0  0  0  0  0  0  0  0  0  0  0  0
    3.7656    1.0175   -1.7393 C   0  0  0  0  0  0  0  0  0  0  0  0
    2.7699   -1.0887   -2.3741 C   0  0  0  0  0  0  0  0  0  0  0  0
    4.4908    1.0289   -2.9337 C   0  0  0  0  0  0  0  0  0  0  0  0
    3.5031   -1.0819   -3.5594 C   0  0  0  0  0  0  0  0  0  0  0  0
    2.8857   -0.0404   -1.4432 C   0  0  0  0  0  0  0  0  0  0  0  0
    4.3545   -0.0225   -3.8303 C   0  0  0  0  0  0  0  0  0  0  0  0
   -0.2074    0.7006   -0.0082 C   0  0  0  0  0  0  0  0  0  0  0  0
   -0.2293   -0.6847    0.0079 C   0  0  0  0  0  0  0  0  0  0  0  0
    2.1070   -0.0322   -0.1375 C   0  0  0  0  0  0  0  0  0  0  0  0
    1.1770    1.1730   -0.0208 C   0  0  0  0  0  0  0  0  0  0  0  0
    1.1373   -1.1993    0.0243 C   0  0  0  0  0  0  0  0  0  0  0  0
    5.0550   -0.0177   -4.9713 F   0  0  0  0  0  0  0  0  0  0  0  0
    1.4855    2.3480    0.0643 O   0  0  0  0  0  0  0  0  0  0  0  0
    1.4023   -2.3830    0.1315 O   0  0  0  0  0  0  0  0  0  0  0  0
  2  1  2  0
  3  1  1  0
  4  2  1  0
  7  5  2  0
  8  6  1  0
  9  5  1  0
  9  6  2  0
 10  7  1  0
 10  8  2  0
 11  3  2  0
 12  4  2  0
 12 11  1  0
 13  9  1  0
 14 11  1  0
 14 13  1  0
 15 12  1  0
 15 13  1  0
 16 10  1  0
 17 14  2  0
 18 15  2  0
M  END
>  <DRUGBANK_ID>  (1) 
DB13136

>  <COMMON_NAME>  (1) 
Fluindione

>  <CAS_NUMBER>  (1) 
957-56-2

>  <UNII>  (1) 
EQ35YMS20Q

>  <SYNONYMS>  (1) 
Fluindione

$$$$
