
     RDKit          3D

  7  6  0  0  0  0  0  0  0  0999 V2000
    1.1086    0.2459    0.0132 C   0  0  0  0  0  0  0  0  0  0  0  0
    1.2309    0.6923   -1.3135 O   0  0  0  0  0  0  0  0  0  0  0  0
    0.7757    2.1318   -1.8484 P   0  0  0  0  0  0  0  0  0  0  0  0
    0.7797    1.8038   -3.4563 N   0  0  0  0  0  0  0  0  0  0  0  0
   -0.5326    2.6382   -1.3008 O   0  0  0  0  0  0  0  0  0  0  0  0
    2.2924    3.5497   -1.7861 S   0  0  0  0  0  0  0  0  0  0  0  0
    2.1245    4.7137   -0.4369 C   0  0  0  0  0  0  0  0  0  0  0  0
  1  2  1  0
  2  3  1  0
  3  4  1  0
  3  5  2  0
  3  6  1  0
  6  7  1  0
M  END
>  <DRUGBANK_ID>  (1) 
DB14972

>  <COMMON_NAME>  (1) 
Methamidophos

>  <CAS_NUMBER>  (1) 
10265-92-6

>  <UNII>  (1) 
8Z083FM94W

>  <SYNONYMS>  (1) 
MONITOR

$$$$
