1499
     RDKit          3D

 20 21  0  0  1  0  0  0  0  0999 V2000
    0.3357    2.2242    0.4079 O   0  0  0  0  0  0  0  0  0  0  0  0
    0.1154    4.4632    0.5162 O   0  0  0  0  0  0  0  0  0  0  0  0
   -0.9128   -0.6778   -2.3598 N   0  0  0  0  0  0  0  0  0  0  0  0
    0.3603    0.9432   -0.3261 C   0  0  1  0  0  0  0  0  0  0  0  0
   -0.8999    0.0553    0.0377 C   0  0  2  0  0  0  0  0  0  0  0  0
    0.6176    1.3119   -1.7869 C   0  0  0  0  0  0  0  0  0  0  0  0
   -1.0285   -1.1010   -0.9490 C   0  0  0  0  0  0  0  0  0  0  0  0
    0.1866    0.2365   -2.7731 C   0  0  0  0  0  0  0  0  0  0  0  0
   -2.2725    0.6891    0.1621 C   0  0  0  0  0  0  0  0  0  0  0  0
    1.5483   -0.0535    0.0565 C   0  0  0  0  0  0  0  0  0  0  0  0
   -0.8695   -1.8883   -3.1850 C   0  0  0  0  0  0  0  0  0  0  0  0
   -3.4425   -0.2132    0.4987 C   0  0  0  0  0  0  0  0  0  0  0  0
    1.7083   -1.2403   -0.7080 C   0  0  0  0  0  0  0  0  0  0  0  0
    2.2700   -0.0364    1.2312 C   0  0  0  0  0  0  0  0  0  0  0  0
   -0.3272    3.3811    0.0768 C   0  0  0  0  0  0  0  0  0  0  0  0
    2.1517   -2.4517   -0.2279 C   0  0  0  0  0  0  0  0  0  0  0  0
    3.0144   -1.1875    1.5867 C   0  0  0  0  0  0  0  0  0  0  0  0
   -1.6870    3.4237   -0.6536 C   0  0  0  0  0  0  0  0  0  0  0  0
    2.8683   -2.4164    0.9235 C   0  0  0  0  0  0  0  0  0  0  0  0
   -1.8894    2.9883   -2.1063 C   0  0  0  0  0  0  0  0  0  0  0  0
  1 15  1  0
  2 15  2  0
  3  7  1  0
  3  8  1  0
  3 11  1  0
  4  5  1  0
  4  6  1  0
  4 10  1  0
  4  1  1  1
  5  7  1  0
  5  9  1  6
  6  8  1  0
  9 12  1  0
 10 13  2  0
 10 14  1  0
 13 16  1  0
 14 17  2  0
 15 18  1  0
 16 19  2  0
 17 19  1  0
 18 20  1  0
M  END
>  <DRUGBANK_ID>  (1) 
DB01499

>  <COMMON_NAME>  (1) 
Alphameprodine

>  <CAS_NUMBER>  (1) 
468-51-9

>  <UNII>  (1) 
1177I648L1

>  <SYNONYMS>  (1) 
3alpha-Ethyl-1-methyl-4-phenyl-4alpha-piperidyl propionat; Alfameprodina; alpha-3-ethyl-1-methyl-4-phenyl-4-propionoxypiperidine; alpha-3-Ethyl-1-methyl-4-phenyl-4-propionyloxypiperidine; Alphameprodine; Alphameprodinum

$$$$
