
     RDKit          3D

 20 20  0  0  0  0  0  0  0  0999 V2000
    0.9386   -0.0346   -0.1349 C   0  0  0  0  0  0  0  0  0  0  0  0
   -1.1729   -2.9874    4.3449 C   0  0  0  0  0  0  0  0  0  0  0  0
    0.5098   -1.4641    0.1629 C   0  0  0  0  0  0  0  0  0  0  0  0
    1.0429   -1.9436    1.5189 C   0  0  0  0  0  0  0  0  0  0  0  0
    0.5684   -1.0835    2.6833 C   0  0  0  0  0  0  0  0  0  0  0  0
   -0.9443   -1.0618    2.7827 C   0  0  0  0  0  0  0  0  0  0  0  0
   -3.8780   -3.5560    2.9111 C   0  0  0  0  0  0  0  0  0  0  0  0
   -6.0231   -2.4160    2.9641 C   0  0  0  0  0  0  0  0  0  0  0  0
   -1.6527   -2.4031    3.0115 C   0  0  0  0  0  0  0  0  0  0  0  0
   -5.2801   -3.5982    2.9289 C   0  0  0  0  0  0  0  0  0  0  0  0
   -3.1844   -2.3199    2.9592 C   0  0  0  0  0  0  0  0  0  0  0  0
   -5.3581   -1.1815    2.9947 C   0  0  0  0  0  0  0  0  0  0  0  0
   -3.9522   -1.1300    3.0060 C   0  0  0  0  0  0  0  0  0  0  0  0
   -5.9789   -4.8936    2.9285 N   0  0  0  0  0  0  0  0  0  0  0  0
   -6.1727    0.0536    3.0346 N   0  0  0  0  0  0  0  0  0  0  0  0
   -3.3811    0.0908    3.2148 O   0  0  0  0  0  0  0  0  0  0  0  0
   -7.2184   -4.8740    2.9497 O   0  0  0  0  0  0  0  0  0  0  0  0
   -5.2914   -5.9218    2.9072 O   0  0  0  0  0  0  0  0  0  0  0  0
   -7.4054   -0.0949    3.0843 O   0  0  0  0  0  0  0  0  0  0  0  0
   -5.6243    1.1591    2.9869 O   0  0  0  0  0  0  0  0  0  0  0  0
  3  1  1  0
  4  3  1  0
  5  4  1  0
  6  5  1  0
  9  2  1  0
  9  6  1  0
 10  7  2  0
 10  8  1  0
 11  7  1  0
 11  9  1  0
 12  8  2  0
 13 11  2  0
 13 12  1  0
 14 10  1  0
 15 12  1  0
 16 13  1  0
 17 14  1  0
 18 14  2  0
 19 15  1  0
 20 15  2  0
M  CHG  4  14   1  15   1  17  -1  19  -1
M  END
>  <DRUGBANK_ID>  (1) 
DB07671

>  <COMMON_NAME>  (1) 
2-[1-METHYLHEXYL]-4,6-DINITROPHENOL

$$$$
