
     RDKit          3D

 33 36  0  0  0  0  0  0  0  0999 V2000
   -1.2662    1.3892   -0.0028 N   0  0  0  0  0  0  0  0  0  0  0  0
   -2.3780    0.5578    0.0800 C   0  0  0  0  0  0  0  0  0  0  0  0
   -2.3537   -0.8687    0.1512 C   0  0  0  0  0  0  0  0  0  0  0  0
   -1.0468   -1.3652    0.2023 C   0  0  0  0  0  0  0  0  0  0  0  0
    0.1466   -0.4511    0.2689 C   0  0  0  0  0  0  0  0  0  0  0  0
    1.5196   -0.7548    0.5044 C   0  0  0  0  0  0  0  0  0  0  0  0
    2.6739   -0.0436    0.2381 C   0  0  0  0  0  0  0  0  0  0  0  0
    2.4863    1.2656   -0.0126 C   0  0  0  0  0  0  0  0  0  0  0  0
    1.1543    1.7321   -0.0280 C   0  0  0  0  0  0  0  0  0  0  0  0
   -0.0174    0.9041    0.0777 C   0  0  0  0  0  0  0  0  0  0  0  0
   -0.9602   -2.7338   -0.4064 C   0  0  0  0  0  0  0  0  0  0  0  0
   -1.6125   -2.9332   -1.4441 O   0  0  0  0  0  0  0  0  0  0  0  0
   -0.1391   -3.7406    0.0690 N   0  0  0  0  0  0  0  0  0  0  0  0
    1.2491   -3.4989   -0.1587 C   0  0  1  0  0  0  0  0  0  0  0  0
    2.0615   -3.7109    1.1378 C   0  0  0  0  0  0  0  0  0  0  0  0
    2.4067   -5.1553    1.3240 C   0  0  0  0  0  0  0  0  0  0  0  0
    1.9877   -3.7103   -1.4463 C   0  0  0  0  0  0  0  0  0  0  0  0
    2.6717   -2.6292   -2.0871 C   0  0  0  0  0  0  0  0  0  0  0  0
    3.5378   -2.8458   -3.1417 C   0  0  0  0  0  0  0  0  0  0  0  0
    3.7215   -4.1498   -3.5651 C   0  0  0  0  0  0  0  0  0  0  0  0
    3.0384   -5.2068   -2.9477 C   0  0  0  0  0  0  0  0  0  0  0  0
    2.1277   -4.9848   -1.9301 C   0  0  0  0  0  0  0  0  0  0  0  0
   -3.6268   -1.6774    0.3219 N   0  0  0  0  0  0  0  0  0  0  0  0
   -3.9379   -3.3868    0.0696 S   0  0  0  0  0  0  0  0  0  0  0  0
   -4.8319   -3.7310    1.5395 C   0  0  0  0  0  0  0  0  0  0  0  0
   -4.8804   -3.5142   -1.0222 O   0  0  0  0  0  0  0  0  0  0  0  0
   -2.8342   -4.3051    0.2519 O   0  0  0  0  0  0  0  0  0  0  0  0
   -3.6248    1.3482    0.0325 C   0  0  0  0  0  0  0  0  0  0  0  0
   -3.8867    2.2500   -1.0197 C   0  0  0  0  0  0  0  0  0  0  0  0
   -4.5917    1.2107    1.0358 C   0  0  0  0  0  0  0  0  0  0  0  0
   -5.1182    2.9060   -1.1135 C   0  0  0  0  0  0  0  0  0  0  0  0
   -5.8404    1.8174    0.9132 C   0  0  0  0  0  0  0  0  0  0  0  0
   -6.1014    2.6710   -0.1558 C   0  0  0  0  0  0  0  0  0  0  0  0
  1  2  2  0
  1 10  1  0
  2  3  1  0
  2 28  1  0
  3  4  2  0
  3 23  1  0
  4  5  1  0
  4 11  1  0
  5  6  1  0
  5 10  2  0
  6  7  2  0
  7  8  1  0
  8  9  2  0
  9 10  1  0
 11 12  2  0
 11 13  1  0
 14 13  1  0
 14 15  1  1
 14 17  1  0
 15 16  1  0
 17 18  2  0
 17 22  1  0
 18 19  1  0
 19 20  2  0
 20 21  1  0
 21 22  2  0
 23 24  1  0
 24 25  1  0
 24 26  2  0
 24 27  2  0
 29 28  2  0
 30 28  1  0
 31 29  1  0
 32 30  2  0
 33 31  2  0
 33 32  1  0
M  END
>  <DRUGBANK_ID>  (1) 
DB11692

>  <COMMON_NAME>  (1) 
Pavinetant

>  <CAS_NUMBER>  (1) 
941690-55-7

>  <UNII>  (1) 
3U471ZVC5K

>  <SYNONYMS>  (1) 
Pavinetant

$$$$
