
     RDKit          3D

 26 28  0  0  1  0  0  0  0  0999 V2000
    0.9499   -0.0270   -0.0822 C   0  0  0  0  0  0  0  0  0  0  0  0
    0.4432    0.0461    1.3490 C   0  0  0  0  0  0  0  0  0  0  0  0
    3.0565    1.6914    2.1901 C   0  0  0  0  0  0  0  0  0  0  0  0
   -1.1989    0.3326    4.0281 C   0  0  0  0  0  0  0  0  0  0  0  0
    0.8757   -3.3389    2.5580 C   0  0  0  0  0  0  0  0  0  0  0  0
    0.4432    1.1759   -0.8611 C   0  0  1  0  0  0  0  0  0  0  0  0
    3.5632    0.4885    2.9690 C   0  0  2  0  0  0  0  0  0  0  0  0
   -0.9083   -2.2090    3.0053 C   0  0  0  0  0  0  0  0  0  0  0  0
    4.2958   -0.3951    1.9511 C   0  0  2  0  0  0  0  0  0  0  0  0
    3.3522   -1.5942    1.7877 C   0  0  2  0  0  0  0  0  0  0  0  0
   -2.1889   -1.6581    3.2212 C   0  0  0  0  0  0  0  0  0  0  0  0
    0.2365   -1.4278    3.3283 C   0  0  0  0  0  0  0  0  0  0  0  0
    2.6705   -1.6614    3.1675 C   0  0  2  0  0  0  0  0  0  0  0  0
    0.9499    1.1028   -2.2923 C   0  0  0  0  0  0  0  0  0  0  0  0
   -1.0268    1.1759   -0.8611 N   0  0  0  0  0  0  0  0  0  0  0  0
   -3.3947   -2.4344    2.8985 N   0  0  0  0  0  0  0  0  0  0  0  0
   -2.2965   -0.4104    3.7273 N   0  0  0  0  0  0  0  0  0  0  0  0
    0.0527   -0.1447    3.8472 N   0  0  0  0  0  0  0  0  0  0  0  0
   -0.4488   -3.3687    2.5377 N   0  0  0  0  0  0  0  0  0  0  0  0
    1.3040   -2.1847    3.0269 N   0  0  0  0  0  0  0  0  0  0  0  0
    5.5235   -0.8894    2.4601 O   0  0  0  0  0  0  0  0  0  0  0  0
    4.0151   -2.7868    1.4475 O   0  0  0  0  0  0  0  0  0  0  0  0
    0.1240    1.0535   -3.2570 O   0  0  0  0  0  0  0  0  0  0  0  0
    2.3460    1.0895   -2.5515 O   0  0  0  0  0  0  0  0  0  0  0  0
    2.6335   -0.3671    3.6807 O   0  0  0  0  0  0  0  0  0  0  0  0
    1.0965    1.6914    2.1901 Se  0  0  0  0  0  2  0  0  0  0  0  0
  2  1  1  0
  6  1  1  0
  6 15  1  6
  7  3  1  6
  9  7  1  0
  9 21  1  1
 10  9  1  0
 10 22  1  1
 11  8  2  0
 12  8  1  0
 13 10  1  0
 13 20  1  6
 14  6  1  0
 16 11  1  0
 17  4  2  0
 17 11  1  0
 18  4  1  0
 18 12  2  0
 19  5  2  0
 19  8  1  0
 20  5  1  0
 20 12  1  0
 23 14  2  0
 24 14  1  0
 25  7  1  0
 25 13  1  0
 26  2  1  0
 26  3  1  0
M  END
>  <DRUGBANK_ID>  (1) 
DB03423

>  <SECONDARY_ACCESSION_NUMBERS>  (1) 
EXPT02843

>  <COMMON_NAME>  (1) 
S-Adenosyl-L-Homoselenocysteine

$$$$
