
     RDKit          3D

 24 27  0  0  1  0  0  0  0  0999 V2000
    2.0576    0.7393   -0.0065 C   0  0  0  0  0  0  0  0  0  0  0  0
    0.8713    1.4937   -0.0195 C   0  0  0  0  0  0  0  0  0  0  0  0
   -0.2554    0.6771   -0.0014 C   0  0  0  0  0  0  0  0  0  0  0  0
   -1.5462    1.1240   -0.0243 C   0  0  0  0  0  0  0  0  0  0  0  0
   -2.3212   -0.0068    0.1004 N   0  0  0  0  0  0  0  0  0  0  0  0
   -1.5904   -1.1428    0.1620 N   0  0  0  0  0  0  0  0  0  0  0  0
   -0.2989   -0.7699    0.0488 C   0  0  0  0  0  0  0  0  0  0  0  0
    0.9174   -1.5047    0.0170 C   0  0  0  0  0  0  0  0  0  0  0  0
    2.0845   -0.6871   -0.0033 C   0  0  0  0  0  0  0  0  0  0  0  0
    0.9621   -2.9815    0.0122 C   0  0  0  0  0  0  0  0  0  0  0  0
   -0.0463   -3.6880    0.0059 O   0  0  0  0  0  0  0  0  0  0  0  0
    2.1861   -3.5947    0.0049 N   0  0  0  0  0  0  0  0  0  0  0  0
   -3.7320   -0.0466    0.1066 C   0  0  0  0  0  0  0  0  0  0  0  0
   -4.4403   -0.7711    1.0776 C   0  0  0  0  0  0  0  0  0  0  0  0
   -5.8362   -0.9072    0.9901 C   0  0  0  0  0  0  0  0  0  0  0  0
   -6.5362   -0.2458   -0.0173 C   0  0  0  0  0  0  0  0  0  0  0  0
   -5.8006    0.6215   -0.8485 C   0  0  0  0  0  0  0  0  0  0  0  0
   -4.4175    0.6563   -0.8659 C   0  0  0  0  0  0  0  0  0  0  0  0
   -8.0213   -0.5318   -0.2739 C   0  0  2  0  0  0  0  0  0  0  0  0
   -8.2120   -1.2067   -1.6545 C   0  0  0  0  0  0  0  0  0  0  0  0
   -7.9584   -0.2292   -2.8036 C   0  0  0  0  0  0  0  0  0  0  0  0
   -8.7033    1.1020   -2.5849 C   0  0  0  0  0  0  0  0  0  0  0  0
   -8.5579    1.6859   -1.2488 N   0  0  0  0  0  0  0  0  0  0  0  0
   -8.8994    0.7313   -0.1945 C   0  0  0  0  0  0  0  0  0  0  0  0
  1  2  2  0
  1  9  1  0
  2  3  1  0
  3  4  2  0
  3  7  1  0
  4  5  1  0
  5  6  1  0
  5 13  1  0
  6  7  2  0
  7  8  1  0
  8  9  2  0
  8 10  1  0
 10 11  2  0
 10 12  1  0
 13 14  2  0
 13 18  1  0
 14 15  1  0
 15 16  2  0
 16 17  1  0
 17 18  2  0
 19 16  1  6
 19 20  1  0
 19 24  1  0
 20 21  1  0
 21 22  1  0
 22 23  1  0
 23 24  1  0
M  END
>  <DRUGBANK_ID>  (1) 
DB11793

>  <COMMON_NAME>  (1) 
Niraparib

>  <CAS_NUMBER>  (1) 
1038915-60-4

>  <UNII>  (1) 
HMC2H89N35

>  <SYNONYMS>  (1) 
Niraparib

$$$$
