
     RDKit          3D

 28 29  0  0  0  0  0  0  0  0999 V2000
    1.5189    0.4360    0.0833 C   0  0  0  0  0  0  0  0  0  0  0  0
    1.3774   -0.9899   -0.3711 C   0  0  0  0  0  0  0  0  0  0  0  0
    1.6653   -2.0901    0.7082 C   0  0  0  0  0  0  0  0  0  0  0  0
    0.6264   -2.0411    1.9181 C   0  0  0  0  0  0  0  0  0  0  0  0
   -0.8308   -2.2812    1.7164 O   0  0  0  0  0  0  0  0  0  0  0  0
   -1.6703   -1.3898    1.0740 C   0  0  0  0  0  0  0  0  0  0  0  0
   -1.8218   -1.4010   -0.3187 C   0  0  0  0  0  0  0  0  0  0  0  0
   -1.4430   -2.3057   -1.2926 O   0  0  0  0  0  0  0  0  0  0  0  0
   -0.4880   -3.2279   -0.8826 C   0  0  0  0  0  0  0  0  0  0  0  0
   -2.4045   -0.3263   -0.9546 C   0  0  0  0  0  0  0  0  0  0  0  0
   -3.2026    0.5746   -0.3167 C   0  0  0  0  0  0  0  0  0  0  0  0
   -3.4396    0.3306    1.0307 C   0  0  0  0  0  0  0  0  0  0  0  0
   -2.6165   -0.5850    1.7509 C   0  0  0  0  0  0  0  0  0  0  0  0
   -2.8981   -0.5841    3.0955 O   0  0  0  0  0  0  0  0  0  0  0  0
   -2.0523   -1.3769    3.9101 C   0  0  0  0  0  0  0  0  0  0  0  0
   -3.8271    1.7100   -1.0395 C   0  0  0  0  0  0  0  0  0  0  0  0
   -4.7377    2.3272   -0.5317 O   0  0  0  0  0  0  0  0  0  0  0  0
   -3.3469    2.1449   -2.2545 N   0  0  0  0  0  0  0  0  0  0  0  0
   -2.3673    1.6975   -3.2530 C   0  0  0  0  0  0  0  0  0  0  0  0
   -2.9286    0.9026   -4.5454 C   0  0  0  0  0  0  0  0  0  0  0  0
   -2.6128   -0.6322   -4.4183 C   0  0  0  0  0  0  0  0  0  0  0  0
   -2.5771   -1.4048   -5.7419 C   0  0  0  0  0  0  0  0  0  0  0  0
   -1.7522   -0.7662   -6.7137 O   0  0  0  0  0  0  0  0  0  0  0  0
   -2.0733    0.5978   -6.9622 C   0  0  0  0  0  0  0  0  0  0  0  0
   -2.0153    1.4149   -5.6905 C   0  0  0  0  0  0  0  0  0  0  0  0
   -4.4003    1.1591   -4.7484 N   0  0  0  0  0  0  0  0  0  0  0  0
   -4.7453    2.5668   -4.9534 C   0  0  0  0  0  0  0  0  0  0  0  0
   -5.0851    0.4275   -5.8151 C   0  0  0  0  0  0  0  0  0  0  0  0
  1  2  1  0
  2  3  1  0
  3  4  1  0
  4  5  1  0
  5  6  1  0
  6  7  2  0
  6 13  1  0
  7  8  1  0
  7 10  1  0
  8  9  1  0
 10 11  2  0
 11 12  1  0
 11 16  1  0
 12 13  2  0
 13 14  1  0
 14 15  1  0
 16 17  2  0
 16 18  1  0
 18 19  1  0
 19 20  1  0
 20 21  1  0
 20 25  1  0
 20 26  1  0
 21 22  1  0
 22 23  1  0
 23 24  1  0
 24 25  1  0
 26 27  1  0
 26 28  1  0
M  END
>  <DRUGBANK_ID>  (1) 
DB16271

>  <COMMON_NAME>  (1) 
Opiranserin

>  <CAS_NUMBER>  (1) 
1441000-45-8

>  <UNII>  (1) 
AP031EC2NI

>  <SYNONYMS>  (1) 
Opiranserin; Vvz-149 free base

$$$$
