
     RDKit          3D

 27 32  0  0  1  0  0  0  0  0999 V2000
   -3.2483    0.0112   -3.7638 C   0  0  0  0  0  0  0  0  0  0  0  0
   -2.1473    1.0342   -3.6572 C   0  0  0  0  0  0  0  0  0  0  0  0
   -1.1998    0.5993   -2.6022 C   0  0  0  0  0  0  0  0  0  0  0  0
   -0.5969   -0.8351   -2.9138 N   0  0  2  0  0  0  0  0  0  0  0  0
    0.5206   -2.0876   -3.7770 C   0  0  2  0  0  0  0  0  0  0  0  0
   -0.3072   -3.0418   -4.1918 C   0  0  0  0  0  0  0  0  0  0  0  0
   -0.0541   -2.7432   -2.5536 C   0  0  2  0  0  0  0  0  0  0  0  0
   -0.4065   -3.2866   -1.2838 C   0  0  1  0  0  0  0  0  0  0  0  0
   -1.1884   -1.8381   -1.3513 C   0  0  1  0  0  0  0  0  0  0  0  0
   -0.9956   -1.1951   -0.1050 O   0  0  0  0  0  0  0  0  0  0  0  0
    0.0984   -4.6883   -1.8118 C   0  0  0  0  0  0  0  0  0  0  0  0
   -0.6653   -5.7915   -1.2049 C   0  0  0  0  0  0  0  0  0  0  0  0
    0.9009   -0.9443   -1.9246 C   0  0  2  0  0  0  0  0  0  0  0  0
    1.0336   -0.2359   -3.2014 C   0  0  1  0  0  0  0  0  0  0  0  0
    2.3495   -0.9985   -3.8079 C   0  0  0  0  0  0  0  0  0  0  0  0
    2.8135   -1.5649   -2.4992 C   0  0  1  0  0  0  0  0  0  0  0  0
    2.0818   -2.8303   -2.5855 C   0  0  2  0  0  0  0  0  0  0  0  0
    3.3075   -3.9181   -2.5822 N   0  0  0  0  0  0  0  0  0  0  0  0
    4.5103   -3.0666   -2.5449 C   0  0  0  0  0  0  0  0  0  0  0  0
    4.2108   -1.7448   -2.6850 C   0  0  0  0  0  0  0  0  0  0  0  0
    5.0332   -0.7696   -3.2203 C   0  0  0  0  0  0  0  0  0  0  0  0
    6.3095   -1.1373   -3.5187 C   0  0  0  0  0  0  0  0  0  0  0  0
    6.7396   -2.4086   -3.1315 C   0  0  0  0  0  0  0  0  0  0  0  0
    5.8529   -3.3741   -2.5974 C   0  0  0  0  0  0  0  0  0  0  0  0
    3.5883   -4.9400   -1.4334 C   0  0  0  0  0  0  0  0  0  0  0  0
    2.2576   -0.8570   -1.3102 C   0  0  2  0  0  0  0  0  0  0  0  0
    1.9258   -0.8554    0.0604 O   0  0  0  0  0  0  0  0  0  0  0  0
  1  2  1  0
  2  3  1  0
  4  5  1  0
  4  9  1  0
  4 14  1  0
  4  3  1  6
  5  6  1  1
  5 17  1  0
  7  6  1  6
  7  8  1  0
  7 13  1  0
  8  9  1  0
  8 11  1  6
  9 10  1  1
 11 12  1  0
 13 14  1  0
 13 26  1  6
 14 15  1  6
 16 15  1  0
 16 17  1  0
 16 20  1  6
 16 26  1  0
 17 18  1  6
 18 19  1  0
 18 25  1  0
 19 20  2  0
 19 24  1  0
 20 21  1  0
 21 22  2  0
 22 23  1  0
 23 24  2  0
 26 27  1  1
M  CHG  1   4   1
M  END
>  <DRUGBANK_ID>  (1) 
DB13555

>  <COMMON_NAME>  (1) 
Prajmaline

>  <CAS_NUMBER>  (1) 
35080-11-6

>  <UNII>  (1) 
75934UD4GJ

>  <SYNONYMS>  (1) 
Prajmalium

$$$$
