
     RDKit          3D

 20 21  0  0  0  0  0  0  0  0999 V2000
    0.9601   -0.0583    0.0348 C   0  0  0  0  0  0  0  0  0  0  0  0
    0.4345   -0.8675   -1.1534 C   0  0  0  0  0  0  0  0  0  0  0  0
    0.9425   -2.3287   -0.9258 C   0  0  0  0  0  0  0  0  0  0  0  0
    0.4736   -2.9570    0.4017 C   0  0  0  0  0  0  0  0  0  0  0  0
    0.5937   -4.3196    0.6085 C   0  0  0  0  0  0  0  0  0  0  0  0
    0.3195   -4.8488    1.8750 C   0  0  0  0  0  0  0  0  0  0  0  0
    0.0328   -4.0191    2.9647 C   0  0  0  0  0  0  0  0  0  0  0  0
   -0.1303   -2.6724    2.7653 C   0  0  0  0  0  0  0  0  0  0  0  0
   -0.0969   -2.2238    1.4633 C   0  0  0  0  0  0  0  0  0  0  0  0
   -1.1121   -0.8751   -1.2777 C   0  0  0  0  0  0  0  0  0  0  0  0
   -1.8602   -2.0776   -1.2934 C   0  0  0  0  0  0  0  0  0  0  0  0
   -3.2371   -2.0956   -1.0997 C   0  0  0  0  0  0  0  0  0  0  0  0
   -3.9181   -0.8996   -0.9585 C   0  0  0  0  0  0  0  0  0  0  0  0
   -3.2209    0.3048   -1.0235 C   0  0  0  0  0  0  0  0  0  0  0  0
   -1.8383    0.3192   -1.2274 C   0  0  0  0  0  0  0  0  0  0  0  0
    1.0178   -0.2472   -2.3811 N   0  0  0  0  0  0  0  0  0  0  0  0
    1.7504    0.9059   -2.6022 C   0  0  0  0  0  0  0  0  0  0  0  0
    2.0347    1.1597   -3.7682 O   0  0  0  0  0  0  0  0  0  0  0  0
    2.2912    1.8498   -1.4765 C   0  0  0  0  0  0  0  0  0  0  0  0
    1.3005    2.7563   -0.8600 N   0  0  0  0  0  0  0  0  0  0  0  0
  1  2  1  0
  2  3  1  0
  2 10  1  0
  2 16  1  0
  3  4  1  0
  4  5  2  0
  4  9  1  0
  5  6  1  0
  6  7  2  0
  7  8  1  0
  8  9  2  0
 10 11  2  0
 10 15  1  0
 11 12  1  0
 12 13  2  0
 13 14  1  0
 14 15  2  0
 16 17  1  0
 17 18  2  0
 17 19  1  0
 19 20  1  0
M  END
>  <DRUGBANK_ID>  (1) 
DB06458

>  <COMMON_NAME>  (1) 
Remacemide

>  <CAS_NUMBER>  (1) 
128298-28-2

>  <UNII>  (1) 
EH6763C1IC

>  <SYNONYMS>  (1) 
Remacemide

$$$$
