132
     RDKit          3D

 20 19  0  0  0  0  0  0  0  0999 V2000
    1.0064   -0.2029    0.0812 O   0  0  0  0  0  0  0  0  0  0  0  0
    1.1081   -1.1671    2.0900 O   0  0  0  0  0  0  0  0  0  0  0  0
   -1.6804    0.8912   -1.3075 C   0  0  0  0  0  0  0  0  0  0  0  0
   -3.2130    0.8675   -1.3258 C   0  0  0  0  0  0  0  0  0  0  0  0
   -1.1683    1.5976   -0.0451 C   0  0  0  0  0  0  0  0  0  0  0  0
   -3.7601    2.2901   -1.3097 C   0  0  0  0  0  0  0  0  0  0  0  0
   -1.5752    0.8220    1.2102 C   0  0  0  0  0  0  0  0  0  0  0  0
   -3.1887    3.0816   -2.4746 C   0  0  0  0  0  0  0  0  0  0  0  0
   -1.0785   -0.6240    1.1792 C   0  0  0  0  0  0  0  0  0  0  0  0
   -3.6611    2.4917   -3.7710 C   0  0  0  0  0  0  0  0  0  0  0  0
    0.4248   -0.7061    1.1850 C   0  0  0  0  0  0  0  0  0  0  0  0
   -4.4310    3.1567   -4.6294 C   0  0  0  0  0  0  0  0  0  0  0  0
   -4.8399    4.5575   -4.3806 C   0  0  0  0  0  0  0  0  0  0  0  0
   -4.3806    5.4403   -5.4826 C   0  0  0  0  0  0  0  0  0  0  0  0
   -5.2286    6.2037   -6.1728 C   0  0  0  0  0  0  0  0  0  0  0  0
   -6.6958    6.1861   -5.9185 C   0  0  0  0  0  0  0  0  0  0  0  0
   -7.2110    7.5463   -5.6137 C   0  0  0  0  0  0  0  0  0  0  0  0
   -8.1818    8.1320   -6.3228 C   0  0  0  0  0  0  0  0  0  0  0  0
   -8.8411    7.5010   -7.5138 C   0  0  0  0  0  0  0  0  0  0  0  0
  -10.3131    7.2690   -7.2578 C   0  0  0  0  0  0  0  0  0  0  0  0
  1 11  1  0
  2 11  2  0
  3  4  1  0
  3  5  1  0
  4  6  1  0
  5  7  1  0
  6  8  1  0
  7  9  1  0
  8 10  1  0
  9 11  1  0
 10 12  2  0
 12 13  1  0
 13 14  1  0
 14 15  2  0
 15 16  1  0
 16 17  1  0
 17 18  2  0
 18 19  1  0
 19 20  1  0
M  END
>  <DRUGBANK_ID>  (1) 
DB00132

>  <SECONDARY_ACCESSION_NUMBERS>  (1) 
NUTR00034

>  <COMMON_NAME>  (1) 
alpha-Linolenic acid

>  <CAS_NUMBER>  (1) 
463-40-1

>  <UNII>  (1) 
0RBV727H71

>  <SYNONYMS>  (1) 
(9,12,15)-linolenic acid; (9Z,12Z,15Z)-Octadecatrienoic acid; (Z,Z,Z)-9,12,15-octadecatrienoic acid; 9-cis,12-cis,15-cis-octadecatrienoic acid; 9,12,15-Octadecatrienoic acid; ALA; all-cis-9,12,15-Octadecatrienoic acid; alpha-Linolenic acid; cis-delta(9,12,15)-Octadecatrienoic acid; cis,cis,cis-9,12,15-Octadecatrienoic acid; Linolenic acid; Î±-linolenic acid

$$$$
