
     RDKit          3D

 32 36  0  0  0  0  0  0  0  0999 V2000
   -2.5051   -0.2772    1.8263 C   0  0  2  0  0  0  0  0  0  0  0  0
    1.6801    2.6617   -5.0534 C   0  0  0  0  0  0  0  0  0  0  0  0
   -0.7035   -0.3002    3.5281 C   0  0  2  0  0  0  0  0  0  0  0  0
   -0.6938    2.8684   -5.6105 C   0  0  0  0  0  0  0  0  0  0  0  0
    0.3660    2.1873   -4.9752 C   0  0  0  0  0  0  0  0  0  0  0  0
   -2.7393    0.4810   -1.0985 C   0  0  1  0  0  0  0  0  0  0  0  0
   -2.0872    0.9456    0.7214 C   0  0  2  0  0  0  0  0  0  0  0  0
   -0.4633    1.0833    3.1183 O   0  0  0  0  0  0  0  0  0  0  0  0
   -0.5234    1.1591    1.5802 C   0  0  1  0  0  0  0  0  0  0  0  0
   -0.3180   -1.0919    2.2719 C   0  0  1  0  0  0  0  0  0  0  0  0
   -3.5817   -0.9260    1.0758 C   0  0  0  0  0  0  0  0  0  0  0  0
   -2.3940   -0.1423    3.3951 C   0  0  0  0  0  0  0  0  0  0  0  0
    2.8240    1.9718   -4.3939 C   0  0  0  0  0  0  0  0  0  0  0  0
   -2.0328    2.4344   -5.4002 N   0  0  0  0  0  0  0  0  0  0  0  0
   -4.2822    0.4580   -0.6216 C   0  0  0  0  0  0  0  0  0  0  0  0
   -1.6449   -1.5774    1.9009 C   0  0  0  0  0  0  0  0  0  0  0  0
   -4.5917   -0.5069    0.4530 C   0  0  0  0  0  0  0  0  0  0  0  0
    0.3089   -0.0684    1.3477 C   0  0  0  0  0  0  0  0  0  0  0  0
    1.9338    3.8188   -5.8083 C   0  0  0  0  0  0  0  0  0  0  0  0
   -3.5392    0.5967   -2.7972 C   0  0  0  0  0  0  0  0  0  0  0  0
   -2.4457    2.2560   -4.0880 C   0  0  0  0  0  0  0  0  0  0  0  0
   -0.4160    3.9954   -6.3940 C   0  0  0  0  0  0  0  0  0  0  0  0
    3.9925    2.3034   -4.4562 O   0  0  0  0  0  0  0  0  0  0  0  0
    0.8921    4.4834   -6.4777 C   0  0  0  0  0  0  0  0  0  0  0  0
   -5.2703    0.9540   -1.1499 O   0  0  0  0  0  0  0  0  0  0  0  0
   -1.7420    2.4787   -3.0976 O   0  0  0  0  0  0  0  0  0  0  0  0
   -3.8094    1.7221   -3.8194 C   0  0  0  0  0  0  0  0  0  0  0  0
    0.0652    0.9949   -4.3520 O   0  0  0  0  0  0  0  0  0  0  0  0
    2.4457    0.8846   -3.6812 O   0  0  0  0  0  0  0  0  0  0  0  0
    0.5062   -1.0095    4.4612 C   0  0  0  0  0  0  0  0  0  0  0  0
   -1.4402    4.6472   -7.0285 O   0  0  0  0  0  0  0  0  0  0  0  0
   -2.0857   -0.9066   -1.6566 C   0  0  0  0  0  0  0  0  0  0  0  0
  1 11  1  1
  1 16  1  0
  2  5  2  0
  2 19  1  0
  3 12  1  0
  3  8  1  0
  3 30  1  1
  4 14  1  0
  5  4  1  0
  7  6  1  6
  6 32  1  6
  6 20  1  0
  7  1  1  0
  8  9  1  0
  9  7  1  0
  9 18  1  6
 10 16  1  6
 10  3  1  0
 12  1  1  0
 13  2  1  0
 14 21  1  0
 15 17  1  0
 15  6  1  0
 17 11  2  0
 18 10  1  0
 19 24  2  0
 21 27  1  0
 22  4  2  0
 23 13  2  0
 24 22  1  0
 25 15  2  0
 26 21  2  0
 27 20  1  0
 28  5  1  0
 29 13  1  0
 31 22  1  0
M  END
>  <DRUGBANK_ID>  (1) 
DB08407

>  <COMMON_NAME>  (1) 
Platensimycin

>  <CAS_NUMBER>  (1) 
835876-32-9

>  <UNII>  (1) 
Q3DQ78KOFY

>  <SYNONYMS>  (1) 
(âˆ’)-platensimycin

$$$$
