LIY
     RDKit          3D

 31 34  0  0  0  0  0  0  0  0999 V2000
    0.1248    0.9313   -0.0202 N   0  0  0  0  0  0  0  0  0  0  0  0
    2.4049    0.8945   -0.3206 N   0  0  0  0  0  0  0  0  0  0  0  0
    1.1979   -1.2450   -0.2904 C   0  0  0  0  0  0  0  0  0  0  0  0
   -0.3066   -3.2595    0.0261 C   0  0  0  0  0  0  0  0  0  0  0  0
    2.7459   -3.0732   -1.2900 C   0  0  0  0  0  0  0  0  0  0  0  0
    3.8714   -3.8933   -1.0454 C   0  0  0  0  0  0  0  0  0  0  0  0
    4.4238   -2.8107    1.0828 C   0  0  0  0  0  0  0  0  0  0  0  0
    5.9583   -4.6102    0.2250 C   0  0  0  0  0  0  0  0  0  0  0  0
    6.6355   -2.9881    2.0538 C   0  0  2  0  0  0  0  0  0  0  0  0
    4.2850   -0.6300    3.7401 C   0  0  0  0  0  0  0  0  0  0  0  0
   -1.0957   -3.6481    1.2665 C   0  0  0  0  0  0  0  0  0  0  0  0
    7.3949   -1.9459    1.2416 C   0  0  0  0  0  0  0  0  0  0  0  0
    8.4048   -1.1831    1.8338 C   0  0  0  0  0  0  0  0  0  0  0  0
    8.6030    0.1548   -0.1864 C   0  0  0  0  0  0  0  0  0  0  0  0
    7.0328   -1.6267   -0.0797 C   0  0  0  0  0  0  0  0  0  0  0  0
    1.2273    0.1642   -0.1664 C   0  0  0  0  0  0  0  0  0  0  0  0
   -0.0798   -1.7710   -0.0988 C   0  0  0  0  0  0  0  0  0  0  0  0
   -1.2029   -1.0119   -0.0093 N   0  0  0  0  0  0  0  0  0  0  0  0
   -1.0558    0.3175    0.0031 C   0  0  0  0  0  0  0  0  0  0  0  0
   -2.1898    1.0743    0.0059 N   0  0  0  0  0  0  0  0  0  0  0  0
    2.4246   -2.1035   -0.3659 C   0  0  0  0  0  0  0  0  0  0  0  0
    3.2730   -2.1254    0.7363 C   0  0  0  0  0  0  0  0  0  0  0  0
    4.7099   -3.7727    0.1118 C   0  0  0  0  0  0  0  0  0  0  0  0
    6.6830   -4.4323    1.5550 C   0  0  0  0  0  0  0  0  0  0  0  0
    8.9794   -0.1203    1.1301 C   0  0  0  0  0  0  0  0  0  0  0  0
    7.6267   -0.6055   -0.7968 C   0  0  0  0  0  0  0  0  0  0  0  0
    5.2286   -2.5487    2.1974 N   0  0  0  0  0  0  0  0  0  0  0  0
    4.9264   -2.0042    3.5656 C   0  0  0  0  0  0  0  0  0  0  0  0
    2.9737   -0.4047    3.0570 C   0  0  0  0  0  0  0  0  0  0  0  0
    1.9091   -1.3552    3.3219 O   0  0  0  0  0  0  0  0  0  0  0  0
    2.0767   -2.7835    3.4213 C   0  0  0  0  0  0  0  0  0  0  0  0
  1 16  2  0
  1 19  1  0
  2 16  1  0
  3 21  1  0
  3 16  1  0
  3 17  2  0
  4 17  1  0
  4 11  1  0
  5  6  2  0
  5 21  1  0
  6 23  1  0
  7 23  2  0
  7 27  1  0
  7 22  1  0
  8 24  1  0
  8 23  1  0
  9 24  1  0
  9 27  1  0
  9 12  1  6
 10 28  1  0
 10 29  1  0
 12 15  1  0
 12 13  2  0
 13 25  1  0
 14 26  1  0
 14 25  2  0
 15 26  2  0
 17 18  1  0
 18 19  2  0
 19 20  1  0
 21 22  2  0
 27 28  1  0
 29 30  1  0
 30 31  1  0
M  END
>  <DRUGBANK_ID>  (1) 
DB08099

>  <COMMON_NAME>  (1) 
6-ethyl-5-[(2S)-1-(3-methoxypropyl)-2-phenyl-1,2,3,4-tetrahydroquinolin-7-yl]pyrimidine-2,4-diamine

$$$$
