476
     RDKit          3D

 21 23  0  0  1  0  0  0  0  0999 V2000
   -1.0694   -0.0435    0.1410 S   0  0  0  0  0  0  0  0  0  0  0  0
   -1.0413    2.9213   -1.2548 O   0  0  0  0  0  0  0  0  0  0  0  0
    1.0618    3.5256    2.5286 N   0  0  0  0  0  0  0  0  0  0  0  0
   -0.2386    2.6613   -0.0694 C   0  0  1  0  0  0  0  0  0  0  0  0
   -0.9928    3.1065    1.2029 C   0  0  0  0  0  0  0  0  0  0  0  0
   -0.2116    2.8006    2.4940 C   0  0  0  0  0  0  0  0  0  0  0  0
    0.1247    1.1953    0.0606 C   0  0  0  0  0  0  0  0  0  0  0  0
   -0.4137    2.7728   -2.4823 C   0  0  0  0  0  0  0  0  0  0  0  0
   -0.5491    3.7671   -3.4780 C   0  0  0  0  0  0  0  0  0  0  0  0
    0.0072    3.5137   -4.7721 C   0  0  0  0  0  0  0  0  0  0  0  0
    1.4047    0.6670    0.1005 C   0  0  0  0  0  0  0  0  0  0  0  0
    0.2144    1.5731   -2.8298 C   0  0  0  0  0  0  0  0  0  0  0  0
   -1.2197    4.9924   -3.2875 C   0  0  0  0  0  0  0  0  0  0  0  0
    0.6908    2.3238   -5.0370 C   0  0  0  0  0  0  0  0  0  0  0  0
    0.7954    1.3517   -4.0682 C   0  0  0  0  0  0  0  0  0  0  0  0
   -0.1447    4.4451   -5.8015 C   0  0  0  0  0  0  0  0  0  0  0  0
    1.4009   -0.7542    0.0682 C   0  0  0  0  0  0  0  0  0  0  0  0
    0.1232   -1.2673    0.0602 C   0  0  0  0  0  0  0  0  0  0  0  0
    1.8290    3.1666    3.7128 C   0  0  0  0  0  0  0  0  0  0  0  0
   -1.3561    5.9158   -4.3302 C   0  0  0  0  0  0  0  0  0  0  0  0
   -0.8235    5.6388   -5.5871 C   0  0  0  0  0  0  0  0  0  0  0  0
  1  7  1  0
  1 18  1  0
  2  8  1  0
  3  6  1  0
  3 19  1  0
  4  2  1  0
  4  5  1  1
  4  7  1  0
  5  6  1  0
  7 11  2  0
  8  9  1  0
  8 12  2  0
  9 10  2  0
  9 13  1  0
 10 14  1  0
 10 16  1  0
 11 17  1  0
 12 15  1  0
 13 20  2  0
 14 15  2  0
 16 21  2  0
 17 18  2  0
 20 21  1  0
M  END
>  <DRUGBANK_ID>  (1) 
DB00476

>  <SECONDARY_ACCESSION_NUMBERS>  (1) 
APRD00060

>  <COMMON_NAME>  (1) 
Duloxetine

>  <CAS_NUMBER>  (1) 
116539-59-4

>  <UNII>  (1) 
O5TNM5N07U

>  <SYNONYMS>  (1) 
(3S)-N-methyl-3-(1-naphthyloxy)-3-(2-thienyl)propan-1-amine; (S)-duloxetine; Duloxetina; Duloxetine

$$$$
