
     RDKit          3D

 31 33  0  0  1  0  0  0  0  0999 V2000
    1.4010   -0.0783   -0.0303 C   0  0  0  0  0  0  0  0  0  0  0  0
   -4.4483   -4.8513    0.5052 C   0  0  0  0  0  0  0  0  0  0  0  0
   -3.0437   -4.9054    0.3354 C   0  0  0  0  0  0  0  0  0  0  0  0
   -2.8443   -0.9260   -1.0512 C   0  0  0  0  0  0  0  0  0  0  0  0
   -3.0710    0.5061   -0.6324 C   0  0  0  0  0  0  0  0  0  0  0  0
   -4.2072   -5.6252    2.7698 C   0  0  0  0  0  0  0  0  0  0  0  0
    2.5060   -2.7545    0.6243 C   0  0  0  0  0  0  0  0  0  0  0  0
   -4.2310   -0.8818    1.3123 C   0  0  0  0  0  0  0  0  0  0  0  0
   -3.0829   -2.7333    2.9417 C   0  0  0  0  0  0  0  0  0  0  0  0
   -5.0334   -5.2013    1.7303 C   0  0  0  0  0  0  0  0  0  0  0  0
   -4.1610   -2.2589    1.9625 C   0  0  1  0  0  0  0  0  0  0  0  0
   -2.8395   -5.8920    2.5107 C   0  0  0  0  0  0  0  0  0  0  0  0
    2.6476   -4.1259    0.5438 C   0  0  0  0  0  0  0  0  0  0  0  0
   -2.2123   -5.4670    1.3086 C   0  0  0  0  0  0  0  0  0  0  0  0
    1.2722   -2.2247    0.8936 C   0  0  0  0  0  0  0  0  0  0  0  0
    1.5634   -4.9912    0.7490 C   0  0  0  0  0  0  0  0  0  0  0  0
    0.1527   -3.0414    1.0428 C   0  0  0  0  0  0  0  0  0  0  0  0
    0.2577   -4.4941    1.0019 C   0  0  0  0  0  0  0  0  0  0  0  0
   -3.0788   -0.5714    0.4286 C   0  0  0  0  0  0  0  0  0  0  0  0
   -2.0779   -6.2895    3.5428 F   0  0  0  0  0  0  0  0  0  0  0  0
    3.8672   -4.6040    0.2702 F   0  0  0  0  0  0  0  0  0  0  0  0
    1.7798   -6.3175    0.6626 F   0  0  0  0  0  0  0  0  0  0  0  0
   -7.0991   -4.8403    2.0483 I   0  0  0  0  0  0  0  0  0  0  0  0
   -0.8012   -5.4806    1.1316 N   0  0  0  0  0  0  0  0  0  0  0  0
   -1.0973   -2.3738    0.8444 N   0  0  0  0  0  0  0  0  0  0  0  0
   -3.1612   -2.1248    4.2001 O   0  0  0  0  0  0  0  0  0  0  0  0
   -5.3646   -2.4015    2.6807 O   0  0  0  0  0  0  0  0  0  0  0  0
   -1.8870   -0.5092    2.7773 O   0  0  0  0  0  0  0  0  0  0  0  0
   -0.8184    0.4401    0.8040 O   0  0  0  0  0  0  0  0  0  0  0  0
    1.1862   -0.8893    1.1319 O   0  0  0  0  0  0  0  0  0  0  0  0
   -1.5224   -0.6453    1.3594 S   0  0  0  0  0  0  0  0  0  0  0  0
  3  2  2  0
  5  4  1  0
 10  2  1  0
 10  6  2  0
 11  8  1  0
 11  9  1  0
 11 27  1  1
 12  6  1  0
 13  7  2  0
 14  3  1  0
 14 12  2  0
 15  7  1  0
 16 13  1  0
 17 15  2  0
 18 16  2  0
 18 17  1  0
 19  4  1  0
 19  5  1  0
 19  8  1  0
 20 12  1  0
 21 13  1  0
 22 16  1  0
 23 10  1  0
 24 14  1  0
 24 18  1  0
 25 17  1  0
 26  9  1  0
 30  1  1  0
 30 15  1  0
 31 19  1  0
 31 25  1  0
 31 28  2  0
 31 29  2  0
M  END
>  <DRUGBANK_ID>  (1) 
DB06309

>  <COMMON_NAME>  (1) 
Refametinib

>  <CAS_NUMBER>  (1) 
923032-37-5

>  <UNII>  (1) 
JPX07AFM0N

>  <SYNONYMS>  (1) 
Refametinib

$$$$
