
     RDKit          3D

 30 32  0  0  1  0  0  0  0  0999 V2000
   -1.8333   -1.4425    0.0932 C   0  0  1  0  0  0  0  0  0  0  0  0
   -0.8103    0.1420    1.0931 N   0  0  0  0  0  0  0  0  0  0  0  0
   -0.4852   -1.2897    0.8488 C   0  0  2  0  0  0  0  0  0  0  0  0
   -2.0467    0.0155    0.4780 C   0  0  0  0  0  0  0  0  0  0  0  0
    1.6087    0.3929    0.3666 C   0  0  0  0  0  0  0  0  0  0  0  0
    1.1360   -1.4028    0.0456 S   0  0  0  0  0  0  0  0  0  0  0  0
    2.5943    0.8582   -0.7785 C   0  0  0  0  0  0  0  0  0  0  0  0
    2.4932    0.3146    1.5825 C   0  0  0  0  0  0  0  0  0  0  0  0
   -2.9097    0.8477    0.1882 O   0  0  0  0  0  0  0  0  0  0  0  0
   -1.9043   -1.9258   -1.3167 N   0  0  0  0  0  0  0  0  0  0  0  0
   -1.8695   -1.2313   -2.4121 C   0  0  0  0  0  0  0  0  0  0  0  0
   -1.4559    0.0427   -2.7341 N   0  0  0  0  0  0  0  0  0  0  0  0
   -0.4438    0.5633   -1.9217 C   0  0  0  0  0  0  0  0  0  0  0  0
   -2.2083    1.0893   -3.3912 C   0  0  0  0  0  0  0  0  0  0  0  0
   -1.3699    1.4979   -4.6200 C   0  0  0  0  0  0  0  0  0  0  0  0
    0.2460    1.8412   -2.2092 C   0  0  0  0  0  0  0  0  0  0  0  0
   -0.1068    2.3700   -4.4501 C   0  0  0  0  0  0  0  0  0  0  0  0
    0.9353    1.8323   -3.5041 C   0  0  0  0  0  0  0  0  0  0  0  0
   -0.0091    4.8316   -1.4895 C   0  0  0  0  0  0  0  0  0  0  0  0
    0.5436    5.9177   -0.6355 C   0  0  0  0  0  0  0  0  0  0  0  0
   -1.0839    4.1255   -1.1080 O   0  0  0  0  0  0  0  0  0  0  0  0
   -1.5938    3.6763    0.1773 C   0  0  0  0  0  0  0  0  0  0  0  0
    0.4795    4.6791   -2.6118 O   0  0  0  0  0  0  0  0  0  0  0  0
    2.0507    5.6795   -0.5017 C   0  0  0  0  0  0  0  0  0  0  0  0
    0.2159    7.1948   -1.4076 C   0  0  0  0  0  0  0  0  0  0  0  0
    0.2445    1.1568    0.7621 C   0  0  2  0  0  0  0  0  0  0  0  0
    0.2948    2.4769    1.5225 C   0  0  0  0  0  0  0  0  0  0  0  0
   -0.6906    3.3884    1.2910 O   0  0  0  0  0  0  0  0  0  0  0  0
    1.2136    2.7786    2.2778 O   0  0  0  0  0  0  0  0  0  0  0  0
   -0.0681    6.0380    0.7341 C   0  0  0  0  0  0  0  0  0  0  0  0
  1  4  1  0
  1 10  1  6
  3  1  1  0
  3  2  1  0
  3  6  1  6
  4  2  1  0
  5 26  1  0
  6  5  1  0
  7  5  1  0
  8  5  1  0
  9  4  2  0
 11 10  2  3
 12 11  1  0
 13 12  1  0
 14 12  1  0
 15 14  1  0
 16 13  1  0
 17 15  1  0
 18 16  1  0
 18 17  1  0
 20 19  1  0
 20 30  1  0
 21 19  1  0
 22 28  1  0
 22 21  1  0
 23 19  2  0
 24 20  1  0
 25 20  1  0
 26  2  1  0
 26 27  1  1
 28 27  1  0
 29 27  2  0
M  END
>  <DRUGBANK_ID>  (1) 
DB01605

>  <COMMON_NAME>  (1) 
Pivmecillinam

>  <CAS_NUMBER>  (1) 
32886-97-8

>  <UNII>  (1) 
1WAM1OQ30B

>  <SYNONYMS>  (1) 
Amdinocillin pivoxil; amdinocillin, pivaloyloxymethyl ester; Pivmecilinamo; Pivmecillinam; Pivmecillinamum

$$$$
