
     RDKit          3D

 18 17  0  0  0  0  0  0  0  0999 V2000
   -3.2597    3.3442    2.3065 S   0  0  0  0  0  0  0  0  0  0  0  0
   -0.7007    3.6775    2.6452 O   0  0  0  0  0  0  0  0  0  0  0  0
   -6.9903    2.6223    5.7524 O   0  0  0  0  0  0  0  0  0  0  0  0
   -5.8015    3.6529    4.1367 N   0  0  0  0  0  0  0  0  0  0  0  0
   -4.5579   -1.1913   -1.0085 C   0  0  0  0  0  0  0  0  0  0  0  0
   -3.8918    0.0397   -1.6459 C   0  0  0  0  0  0  0  0  0  0  0  0
   -6.0663   -0.9797   -0.8120 C   0  0  0  0  0  0  0  0  0  0  0  0
   -4.0803    1.2482   -0.7536 C   0  0  0  0  0  0  0  0  0  0  0  0
   -6.7531   -0.7037   -2.1478 C   0  0  0  0  0  0  0  0  0  0  0  0
   -3.5401    0.9175    0.6240 C   0  0  0  0  0  0  0  0  0  0  0  0
   -6.5211   -1.8636   -3.1026 C   0  0  0  0  0  0  0  0  0  0  0  0
   -2.0409    0.9343    0.6543 C   0  0  0  0  0  0  0  0  0  0  0  0
   -1.2329    1.8080    1.2795 C   0  0  0  0  0  0  0  0  0  0  0  0
   -1.5722    3.0025    2.1382 C   0  0  0  0  0  0  0  0  0  0  0  0
   -3.6026    4.6688    3.4041 C   0  0  0  0  0  0  0  0  0  0  0  0
   -5.1432    4.7869    3.4857 C   0  0  0  0  0  0  0  0  0  0  0  0
   -6.4929    3.6568    5.3154 C   0  0  0  0  0  0  0  0  0  0  0  0
   -6.6114    4.9706    6.0355 C   0  0  0  0  0  0  0  0  0  0  0  0
  1 14  1  0
  1 15  1  0
  2 14  2  0
  3 17  2  0
  4 16  1  0
  4 17  1  0
  5  6  1  0
  5  7  1  0
  6  8  1  0
  7  9  1  0
  8 10  1  0
  9 11  1  0
 10 12  1  0
 12 13  2  0
 13 14  1  0
 15 16  1  0
 17 18  1  0
M  END
>  <DRUGBANK_ID>  (1) 
DB03813

>  <SECONDARY_ACCESSION_NUMBERS>  (1) 
EXPT01103

>  <COMMON_NAME>  (1) 
2-Decenoyl N-acetyl cysteamine

$$$$
