
     RDKit          3D

 25 27  0  0  0  0  0  0  0  0999 V2000
    0.8278    0.1627   -0.0355 C   0  0  0  0  0  0  0  0  0  0  0  0
    0.5266    0.1868   -1.5279 C   0  0  0  0  0  0  0  0  0  0  0  0
    0.9881   -0.9336   -2.2998 O   0  0  0  0  0  0  0  0  0  0  0  0
    2.3349   -1.1330   -2.4099 C   0  0  0  0  0  0  0  0  0  0  0  0
    3.1872   -1.1770   -1.3104 C   0  0  0  0  0  0  0  0  0  0  0  0
    4.5394   -1.4348   -1.4420 C   0  0  0  0  0  0  0  0  0  0  0  0
    5.0460   -1.7819   -2.6812 C   0  0  0  0  0  0  0  0  0  0  0  0
    4.1828   -1.8771   -3.7797 C   0  0  0  0  0  0  0  0  0  0  0  0
    2.8416   -1.4942   -3.6583 C   0  0  0  0  0  0  0  0  0  0  0  0
    6.4745   -2.0041   -2.7950 C   0  0  0  0  0  0  0  0  0  0  0  0
    7.2661   -2.9073   -2.1046 C   0  0  0  0  0  0  0  0  0  0  0  0
    8.5952   -2.7790   -2.5758 C   0  0  0  0  0  0  0  0  0  0  0  0
    8.5733   -1.7951   -3.5430 C   0  0  0  0  0  0  0  0  0  0  0  0
    7.2946   -1.2980   -3.6552 N   0  0  0  0  0  0  0  0  0  0  0  0
    6.9143   -0.2716   -4.5509 C   0  0  0  0  0  0  0  0  0  0  0  0
    6.3294    0.9128   -4.0838 C   0  0  0  0  0  0  0  0  0  0  0  0
    5.9499    1.9020   -5.0002 C   0  0  0  0  0  0  0  0  0  0  0  0
    6.1453    1.6854   -6.3691 C   0  0  0  0  0  0  0  0  0  0  0  0
    6.7642    0.5129   -6.8233 C   0  0  0  0  0  0  0  0  0  0  0  0
    7.1231   -0.4809   -5.9152 C   0  0  0  0  0  0  0  0  0  0  0  0
    5.5686    2.8234   -7.6009 S   0  0  0  0  0  0  0  0  0  0  0  0
    6.7127    3.4030   -8.2531 O   0  0  0  0  0  0  0  0  0  0  0  0
    4.5045    2.1709   -8.3380 O   0  0  0  0  0  0  0  0  0  0  0  0
    4.8445    4.0868   -6.7516 N   0  0  0  0  0  0  0  0  0  0  0  0
    9.7784   -3.5490   -2.1293 C   0  0  0  0  0  0  0  0  0  0  0  0
  1  2  1  0
  2  3  1  0
  3  4  1  0
  4  5  2  0
  4  9  1  0
  5  6  1  0
  6  7  2  0
  7  8  1  0
  7 10  1  0
  8  9  2  0
 10 11  2  0
 10 14  1  0
 11 12  1  0
 12 13  2  0
 12 25  1  0
 13 14  1  0
 14 15  1  0
 15 16  2  0
 15 20  1  0
 16 17  1  0
 17 18  2  0
 18 19  1  0
 18 21  1  0
 19 20  2  0
 21 22  2  0
 21 23  2  0
 21 24  1  0
M  END
>  <DRUGBANK_ID>  (1) 
DB12378

>  <COMMON_NAME>  (1) 
Apricoxib

>  <CAS_NUMBER>  (1) 
197904-84-0

>  <UNII>  (1) 
5X5HB3VZ3Z

>  <SYNONYMS>  (1) 
Apricoxib

$$$$
