
     RDKit          3D

 30 33  0  0  1  0  0  0  0  0999 V2000
    0.9005   -1.1538    2.1865 C   0  0  0  0  0  0  0  0  0  0  0  0
    0.3938   -1.2092    0.7545 C   0  0  2  0  0  0  0  0  0  0  0  0
    0.9005    0.0032   -0.0095 C   0  0  0  0  0  0  0  0  0  0  0  0
    2.3587   -0.0944    0.4083 C   0  0  0  0  0  0  0  0  0  0  0  0
    2.9104   -1.4531    0.0085 C   0  0  0  0  0  0  0  0  0  0  0  0
    2.8028   -1.6202   -1.4985 C   0  0  0  0  0  0  0  0  0  0  0  0
    3.6017   -0.5262   -2.1879 C   0  0  0  0  0  0  0  0  0  0  0  0
    3.3545   -2.9789   -1.8983 C   0  0  0  0  0  0  0  0  0  0  0  0
   -1.1262   -1.2092    0.7545 C   0  0  1  0  0  0  0  0  0  0  0  0
   -2.7825   -5.0224    1.0342 C   0  0  0  0  0  0  0  0  0  0  0  0
   -1.6941   -4.8272    2.0771 C   0  0  0  0  0  0  0  0  0  0  0  0
   -0.7836   -3.6868    1.6520 C   0  0  1  0  0  0  0  0  0  0  0  0
   -1.6328   -2.4216    1.5185 C   0  0  1  0  0  0  0  0  0  0  0  0
   -2.1072   -1.8963    2.8670 C   0  0  0  0  0  0  0  0  0  0  0  0
   -0.9109   -1.6253    3.7805 C   0  0  0  0  0  0  0  0  0  0  0  0
   -0.1516   -2.9292    4.0174 C   0  0  1  0  0  0  0  0  0  0  0  0
    0.2937   -3.5271    2.6999 C   0  0  1  0  0  0  0  0  0  0  0  0
    1.0636   -4.8156    2.9870 C   0  0  0  0  0  0  0  0  0  0  0  0
    2.3579   -4.4256    3.6965 C   0  0  2  0  0  0  0  0  0  0  0  0
    2.1711   -3.3359    4.7301 C   0  0  0  0  0  0  0  0  0  0  0  0
    1.0725   -2.6588    4.8804 C   0  0  0  0  0  0  0  0  0  0  0  0
    0.9034   -1.5666    5.9114 C   0  0  0  0  0  0  0  0  0  0  0  0
    1.9419   -1.6991    7.0212 C   0  0  0  0  0  0  0  0  0  0  0  0
    3.3183   -1.7789    6.3484 C   0  0  1  0  0  0  0  0  0  0  0  0
    3.3947   -3.0981    5.5945 C   0  0  0  0  0  0  0  0  0  0  0  0
    3.4967   -0.6885    5.4564 O   0  0  0  0  0  0  0  0  0  0  0  0
    3.3504   -3.9365    2.6544 C   0  0  0  0  0  0  0  0  0  0  0  0
    2.3896   -3.6799    0.9654 Se  0  0  0  0  0  2  0  0  0  0  0  0
    1.6106   -5.3845    0.3915 C   0  0  0  0  0  0  0  0  0  0  0  0
   -2.7179   -3.0149    0.6348 C   0  0  0  0  0  0  0  0  0  0  0  0
  2  3  1  0
  2  1  1  1
  3  4  1  0
  4  5  1  0
  5  6  1  0
  6  7  1  0
  6  8  1  0
  9  2  1  0
  9 10  1  6
  9 13  1  0
 10 11  1  0
 12 11  1  1
 12 13  1  0
 12 17  1  0
 13 14  1  0
 13 30  1  6
 14 15  1  0
 16 15  1  6
 16 17  1  0
 16 21  1  0
 17 18  1  1
 18 19  1  0
 19 20  1  0
 19 27  1  6
 20 21  2  0
 20 25  1  0
 21 22  1  0
 22 23  1  0
 23 24  1  0
 24 25  1  0
 24 26  1  6
 27 28  1  0
 28 29  1  0
M  ISO  1  28  75
M  END
>  <DRUGBANK_ID>  (1) 
DB13622

>  <COMMON_NAME>  (1) 
Selenium (75Se) norcholesterol

>  <CAS_NUMBER>  (1) 
63795-61-9

>  <UNII>  (1) 
XWR21TJ99H

>  <SYNONYMS>  (1) 
Selenium se-75 norcholesterol

$$$$
