
     RDKit          3D

 23 26  0  0  1  0  0  0  0  0999 V2000
   -2.0903   -0.0463   -0.0598 C   0  0  0  0  0  0  0  0  0  0  0  0
   -0.6488   -0.0750    0.0073 N   0  0  0  0  0  0  0  0  0  0  0  0
    0.1487   -1.1830    0.0232 C   0  0  0  0  0  0  0  0  0  0  0  0
    1.4411   -0.7106    0.0383 C   0  0  0  0  0  0  0  0  0  0  0  0
    1.3200    0.6892    0.0197 C   0  0  0  0  0  0  0  0  0  0  0  0
    0.0407    1.0833   -0.0012 N   0  0  0  0  0  0  0  0  0  0  0  0
    2.6720   -1.4666   -0.0226 C   0  0  0  0  0  0  0  0  0  0  0  0
    2.9611   -2.3707   -1.0583 C   0  0  0  0  0  0  0  0  0  0  0  0
    4.1559   -2.9346   -0.9258 N   0  0  0  0  0  0  0  0  0  0  0  0
    4.6552   -2.3834    0.2108 N   0  0  0  0  0  0  0  0  0  0  0  0
    3.7722   -1.4892    0.8213 C   0  0  0  0  0  0  0  0  0  0  0  0
    4.0897   -0.8538    1.9944 N   0  0  0  0  0  0  0  0  0  0  0  0
    5.2103   -1.1958    2.6067 C   0  0  0  0  0  0  0  0  0  0  0  0
    6.1633   -2.2756    2.0277 C   0  0  0  0  0  0  0  0  0  0  0  0
    5.8829   -2.7083    0.7935 C   0  0  0  0  0  0  0  0  0  0  0  0
    6.7670   -3.5339    0.0745 N   0  0  0  0  0  0  0  0  0  0  0  0
    7.6332   -3.2251    2.7546 Br  0  0  0  0  0  0  0  0  0  0  0  0
    5.4909   -0.3541    3.9100 C   0  0  2  0  0  0  0  0  0  0  0  0
    6.6967    0.5963    3.8327 C   0  0  0  0  0  0  0  0  0  0  0  0
    7.9943   -0.1834    3.8578 C   0  0  0  0  0  0  0  0  0  0  0  0
    8.0033   -1.1917    5.0316 C   0  0  0  0  0  0  0  0  0  0  0  0
    6.7782   -1.9830    5.1549 N   0  0  0  0  0  0  0  0  0  0  0  0
    5.5547   -1.2245    5.1593 C   0  0  0  0  0  0  0  0  0  0  0  0
  1  2  1  0
  2  3  1  0
  2  6  1  0
  3  4  2  0
  4  5  1  0
  4  7  1  0
  5  6  2  0
  7  8  1  0
  7 11  2  0
  8  9  2  0
  9 10  1  0
 10 11  1  0
 10 15  1  0
 11 12  1  0
 12 13  2  0
 13 14  1  0
 14 15  2  0
 14 17  1  0
 15 16  1  0
 18 13  1  6
 18 19  1  0
 18 23  1  0
 19 20  1  0
 20 21  1  0
 21 22  1  0
 22 23  1  0
M  END
>  <DRUGBANK_ID>  (1) 
DB11899

>  <COMMON_NAME>  (1) 
MK-8776

>  <CAS_NUMBER>  (1) 
891494-63-6

>  <UNII>  (1) 
K2ZSF0992C

$$$$
