
     RDKit          3D

 10  9  0  0  0  0  0  0  0  0999 V2000
    3.7084    2.0204    3.1676 C   0  0  0  0  0  0  0  0  0  0  0  0
    4.1007    1.9662    1.7053 C   0  0  1  0  0  0  0  0  0  0  0  0
    4.9953    0.7865    1.3014 C   0  0  1  0  0  0  0  0  0  0  0  0
    4.4281   -0.6423    1.4712 C   0  0  1  0  0  0  0  0  0  0  0  0
    4.9869   -1.2606    2.7563 C   0  0  0  0  0  0  0  0  0  0  0  0
    4.5278   -2.6002    2.8970 O   0  0  0  0  0  0  0  0  0  0  0  0
    2.9388    2.0415    0.8771 O   0  0  0  0  0  0  0  0  0  0  0  0
    5.3266    0.9877   -0.0926 O   0  0  0  0  0  0  0  0  0  0  0  0
    2.9983   -0.7076    1.5365 O   0  0  0  0  0  0  0  0  0  0  0  0
    4.5326    2.1070    4.0793 O   0  0  0  0  0  0  0  0  0  0  0  0
  2  7  1  6
  2  1  1  0
  3  8  1  6
  3  2  1  0
  4  5  1  0
  4  9  1  1
  4  3  1  0
  6  5  1  0
 10  1  2  0
M  END
>  <DRUGBANK_ID>  (1) 
DB15073

>  <COMMON_NAME>  (1) 
Ribose

>  <CAS_NUMBER>  (1) 
50-69-1

>  <UNII>  (1) 
681HV46001

>  <SYNONYMS>  (1) 
aldehydo-D-ribose; D-ribo-2,3,4,5-tetrahydroxyvaleraldehyde; D-Ribose; Ribose

$$$$
