
     RDKit          3D

 36 38  0  0  1  0  0  0  0  0999 V2000
    0.9920   -0.0979   -0.0190 P   0  0  0  0  0  0  0  0  0  0  0  0
   -0.0828    0.7848   -0.5547 P   0  0  1  0  0  0  0  0  0  0  0  0
    1.9613    2.4332    2.0033 O   0  0  0  0  0  0  0  0  0  0  0  0
    2.8367   -2.8489   -1.1010 O   0  0  0  0  0  0  0  0  0  0  0  0
   -0.1473    4.8768    2.2937 O   0  0  0  0  0  0  0  0  0  0  0  0
    2.1186    5.8211    3.2787 O   0  0  0  0  0  0  0  0  0  0  0  0
    1.0532   -1.7457    0.2771 O   0  0  0  0  0  0  0  0  0  0  0  0
    5.7299   -0.0832    0.7732 O   0  0  0  0  0  0  0  0  0  0  0  0
    5.2167   -1.2249   -1.9153 O   0  0  0  0  0  0  0  0  0  0  0  0
    0.4641    2.2752   -1.0893 O   0  0  0  0  0  0  0  0  0  0  0  0
    3.3689   -1.6121    2.4341 O   0  0  0  0  0  0  0  0  0  0  0  0
    0.9920    0.1187   -1.7354 O   0  0  0  0  0  0  0  0  0  0  0  0
    1.0601   -2.1405   -3.5737 O   0  0  0  0  0  0  0  0  0  0  0  0
    4.4848    3.3073    1.0389 O   0  0  0  0  0  0  0  0  0  0  0  0
   -0.7380   -0.0979   -0.0190 O   0  0  0  0  0  0  0  0  0  0  0  0
   -1.2051    0.6882   -1.9160 O   0  0  0  0  0  0  0  0  0  0  0  0
    2.5404   -0.0979   -0.0190 O   0  0  0  0  0  0  0  0  0  0  0  0
   -1.0448    1.3809    0.5020 O   0  0  0  0  0  0  0  0  0  0  0  0
    7.5068    1.6921    3.9334 O   0  0  0  0  0  0  0  0  0  0  0  0
    3.8447    3.0872    3.2556 N   0  0  0  0  0  0  0  0  0  0  0  0
    6.0530    2.7878    2.5696 N   0  0  0  0  0  0  0  0  0  0  0  0
    1.0088    4.6012    1.4837 C   0  0  1  0  0  0  0  0  0  0  0  0
    2.2625    4.7957    2.3021 C   0  0  2  0  0  0  0  0  0  0  0  0
    1.0828    3.1362    1.1021 C   0  0  1  0  0  0  0  0  0  0  0  0
    2.4669    3.4106    2.9365 C   0  0  1  0  0  0  0  0  0  0  0  0
    4.4308   -0.5169    0.3988 C   0  0  1  0  0  0  0  0  0  0  0  0
    4.0711   -0.6224   -1.3569 C   0  0  2  0  0  0  0  0  0  0  0  0
    3.7308   -1.8106    1.0535 C   0  0  2  0  0  0  0  0  0  0  0  0
    2.8251   -1.6388   -1.8692 C   0  0  1  0  0  0  0  0  0  0  0  0
    2.4238   -2.4495    0.2646 C   0  0  2  0  0  0  0  0  0  0  0  0
    1.4947    2.9214   -0.3609 C   0  0  0  0  0  0  0  0  0  0  0  0
    2.3832   -1.5603   -3.3669 C   0  0  0  0  0  0  0  0  0  0  0  0
    4.7699    3.0754    2.2201 C   0  0  0  0  0  0  0  0  0  0  0  0
    4.2085    2.7540    4.5491 C   0  0  0  0  0  0  0  0  0  0  0  0
    5.4199    2.2777    4.8301 C   0  0  0  0  0  0  0  0  0  0  0  0
    6.4325    2.2027    3.7532 C   0  0  0  0  0  0  0  0  0  0  0  0
  1 15  1  0
  1 17  2  0
  1 12  1  0
  1  7  1  0
  2 10  1  0
  2 12  1  0
  2 16  1  0
  2 18  2  0
  3 24  1  0
  3 25  1  0
  4 29  1  0
  4 30  1  0
 10 31  1  0
 13 32  1  0
 14 33  2  0
 19 36  2  0
 20 33  1  0
 20 34  1  0
 21 33  1  0
 21 36  1  0
 22  5  1  1
 22 23  1  0
 22 24  1  0
 23  6  1  1
 23 25  1  0
 24 31  1  6
 25 20  1  6
 26  8  1  6
 26 27  1  0
 26 28  1  0
 27  9  1  6
 27 29  1  0
 28 11  1  1
 28 30  1  0
 29 32  1  6
 30  7  1  6
 34 35  2  0
 35 36  1  0
M  END
>  <DRUGBANK_ID>  (1) 
DB03501

>  <SECONDARY_ACCESSION_NUMBERS>  (1) 
EXPT01576

>  <COMMON_NAME>  (1) 
Galactose-uridine-5'-diphosphate

>  <CAS_NUMBER>  (1) 
2956-16-3

>  <UNII>  (1) 
O2HY4WY2W1

>  <SYNONYMS>  (1) 
UDP galactose; UDP-alpha-D-galactose; UDP-D-galactopyranose; UDP-galactose; UDP-α-D-galactopyranose; UDP-α-D-galactose; UDPgal; Uridine diphosphate galactose; Uridine diphosphategalactose; Uridine diphosphogalactose; Uridine pyrophosphogalactose; Uridinediphosphogalactose

$$$$
