
     RDKit          3D

 31 33  0  0  1  0  0  0  0  0999 V2000
    3.3976   -6.9077    3.1776 O   0  0  0  0  0  0  0  0  0  0  0  0
   -4.5965   -3.8854    4.4014 O   0  0  0  0  0  0  0  0  0  0  0  0
   -5.5638   -9.2286    1.6482 O   0  0  0  0  0  0  0  0  0  0  0  0
   -4.3527   -8.8071    3.4148 O   0  0  0  0  0  0  0  0  0  0  0  0
   -3.3727   -5.0114   -0.3648 N   0  0  0  0  0  0  0  0  0  0  0  0
   -5.5174   -5.4882    3.1388 N   0  0  0  0  0  0  0  0  0  0  0  0
   -1.0298   -6.7020    0.8291 C   0  0  1  0  0  0  0  0  0  0  0  0
   -2.6362   -6.9742    1.2954 C   0  0  2  0  0  0  0  0  0  0  0  0
   -1.0562   -5.1979    0.0200 C   0  0  0  0  0  0  0  0  0  0  0  0
   -3.4827   -6.4126    0.0110 C   0  0  0  0  0  0  0  0  0  0  0  0
   -2.0562   -4.8669   -1.0102 C   0  0  0  0  0  0  0  0  0  0  0  0
    0.5337   -6.6075    0.9375 C   0  0  0  0  0  0  0  0  0  0  0  0
   -0.9286   -8.2863    0.8859 C   0  0  0  0  0  0  0  0  0  0  0  0
   -2.9286   -6.8628    2.9102 C   0  0  0  0  0  0  0  0  0  0  0  0
   -3.8249   -4.0046    0.6813 C   0  0  0  0  0  0  0  0  0  0  0  0
   -3.4662   -3.9347    2.2646 C   0  0  2  0  0  0  0  0  0  0  0  0
    1.2888   -6.9739    2.0411 C   0  0  0  0  0  0  0  0  0  0  0  0
    1.2731   -6.0025   -0.1531 C   0  0  0  0  0  0  0  0  0  0  0  0
   -2.0667   -4.4994    2.6279 C   0  0  0  0  0  0  0  0  0  0  0  0
   -4.6179   -4.4063    3.2739 C   0  0  0  0  0  0  0  0  0  0  0  0
    2.6151   -6.5417    2.1247 C   0  0  0  0  0  0  0  0  0  0  0  0
    2.4560   -5.3236    0.0776 C   0  0  0  0  0  0  0  0  0  0  0  0
    3.1665   -5.6532    1.2044 C   0  0  0  0  0  0  0  0  0  0  0  0
   -0.7912   -3.8669    2.8721 C   0  0  0  0  0  0  0  0  0  0  0  0
   -0.6370   -2.6333    2.3284 C   0  0  0  0  0  0  0  0  0  0  0  0
    0.1673   -4.5314    3.6756 C   0  0  0  0  0  0  0  0  0  0  0  0
   -5.5741   -6.7098    2.2317 C   0  0  0  0  0  0  0  0  0  0  0  0
    0.3167   -1.8707    2.9043 C   0  0  0  0  0  0  0  0  0  0  0  0
    1.2018   -3.7951    4.1571 C   0  0  0  0  0  0  0  0  0  0  0  0
    1.2214   -2.4437    3.8151 C   0  0  0  0  0  0  0  0  0  0  0  0
   -5.1375   -8.3338    2.5440 C   0  0  0  0  0  0  0  0  0  0  0  0
  1 21  1  0
  2 20  2  0
  3 31  1  0
  4 31  2  0
  5 10  1  0
  5 11  1  0
  5 15  1  0
  6 20  1  0
  6 27  1  0
  7  8  1  0
  7  9  1  0
  7 13  1  6
  7 12  1  0
  8 10  1  0
  8 14  1  1
  9 11  1  0
 12 17  2  0
 12 18  1  0
 16 20  1  0
 16 19  1  6
 16 15  1  0
 17 21  1  0
 18 22  2  0
 19 24  1  0
 21 23  2  0
 22 23  1  0
 24 25  2  0
 24 26  1  0
 25 28  1  0
 26 29  2  0
 27 31  1  0
 28 30  2  0
 29 30  1  0
M  END
>  <DRUGBANK_ID>  (1) 
DB06274

>  <COMMON_NAME>  (1) 
Alvimopan

>  <CAS_NUMBER>  (1) 
156053-89-3

>  <UNII>  (1) 
Q153V49P3Z

>  <SYNONYMS>  (1) 
Alvimopan; Alvimopan anhydrous; Anhydrous alvimopan

$$$$
