
     RDKit          3D

 36 40  0  0  0  0  0  0  0  0999 V2000
   -2.5381   -0.7792   -0.0121 C   0  0  0  0  0  0  0  0  0  0  0  0
   -1.2199   -0.0573   -0.0161 C   0  0  0  0  0  0  0  0  0  0  0  0
   -1.2316    1.3446   -0.0507 C   0  0  0  0  0  0  0  0  0  0  0  0
   -0.0531    2.0883   -0.0084 C   0  0  0  0  0  0  0  0  0  0  0  0
    1.1653    1.4014    0.0112 C   0  0  0  0  0  0  0  0  0  0  0  0
    1.2035   -0.0117    0.0050 C   0  0  0  0  0  0  0  0  0  0  0  0
    0.0018   -0.7496   -0.0035 C   0  0  0  0  0  0  0  0  0  0  0  0
    0.0163   -2.1372    0.0510 N   0  0  0  0  0  0  0  0  0  0  0  0
    2.5299   -0.7258   -0.0103 C   0  0  0  0  0  0  0  0  0  0  0  0
    0.0024    3.4737   -0.0174 O   0  0  0  0  0  0  0  0  0  0  0  0
   -1.1809    4.1899    0.0383 C   0  0  0  0  0  0  0  0  0  0  0  0
   -1.4460    5.0946   -0.9934 C   0  0  0  0  0  0  0  0  0  0  0  0
   -2.6542    5.8125   -1.0251 C   0  0  0  0  0  0  0  0  0  0  0  0
   -3.6113    5.5725   -0.0255 C   0  0  0  0  0  0  0  0  0  0  0  0
   -3.3061    4.6991    1.0112 C   0  0  0  0  0  0  0  0  0  0  0  0
   -2.0758    4.0366    1.1082 C   0  0  0  0  0  0  0  0  0  0  0  0
   -4.4284    4.7061    1.8144 N   0  0  0  0  0  0  0  0  0  0  0  0
   -5.3459    5.5886    1.2688 C   0  0  0  0  0  0  0  0  0  0  0  0
   -4.8711    6.0955    0.1393 N   0  0  0  0  0  0  0  0  0  0  0  0
   -6.5927    6.0399    1.9737 C   0  0  0  0  0  0  0  0  0  0  0  0
   -6.5968    7.4519    2.2702 O   0  0  0  0  0  0  0  0  0  0  0  0
   -5.6451    7.9445    3.1164 C   0  0  0  0  0  0  0  0  0  0  0  0
   -4.2831    7.6894    2.9907 C   0  0  0  0  0  0  0  0  0  0  0  0
   -3.3190    8.3160    3.7614 C   0  0  0  0  0  0  0  0  0  0  0  0
   -3.7049    9.2846    4.6703 C   0  0  0  0  0  0  0  0  0  0  0  0
   -5.0760    9.5571    4.8045 C   0  0  0  0  0  0  0  0  0  0  0  0
   -6.0417    8.8920    4.0440 C   0  0  0  0  0  0  0  0  0  0  0  0
   -2.6442    9.9720    5.4891 C   0  0  0  0  0  0  0  0  0  0  0  0
   -2.4869   11.4876    5.3145 C   0  0  0  0  0  0  0  0  0  0  0  0
   -2.2594   11.9234    3.8786 C   0  0  0  0  0  0  0  0  0  0  0  0
   -1.2419   11.7000    3.2348 O   0  0  0  0  0  0  0  0  0  0  0  0
   -3.3216   12.6226    3.3855 N   0  0  0  0  0  0  0  0  0  0  0  0
   -4.3779   12.8494    4.2035 C   0  0  0  0  0  0  0  0  0  0  0  0
   -5.4700   13.2610    3.8711 O   0  0  0  0  0  0  0  0  0  0  0  0
   -3.9325   12.4702    5.8543 S   0  0  0  0  0  0  0  0  0  0  0  0
   -4.4926    4.0278    3.0884 C   0  0  0  0  0  0  0  0  0  0  0  0
  1  2  1  0
  2  3  2  0
  2  7  1  0
  3  4  1  0
  4  5  2  0
  4 10  1  0
  5  6  1  0
  6  7  2  0
  6  9  1  0
  7  8  1  0
 10 11  1  0
 11 12  2  0
 11 16  1  0
 12 13  1  0
 13 14  2  0
 14 15  1  0
 14 19  1  0
 15 16  2  0
 15 17  1  0
 17 18  1  0
 17 36  1  0
 18 19  2  0
 18 20  1  0
 20 21  1  0
 21 22  1  0
 22 23  2  0
 22 27  1  0
 23 24  1  0
 24 25  2  0
 25 26  1  0
 25 28  1  0
 26 27  2  0
 28 29  1  0
 29 30  1  0
 29 35  1  0
 30 31  2  0
 30 32  1  0
 32 33  1  0
 33 34  2  0
 33 35  1  0
M  END
>  <DRUGBANK_ID>  (1) 
DB11894

>  <COMMON_NAME>  (1) 
Efatutazone

>  <CAS_NUMBER>  (1) 
223132-37-4

>  <UNII>  (1) 
M17ILL71MC

>  <SYNONYMS>  (1) 
Efatutazone

$$$$
