
     RDKit          3D

 10  9  0  0  1  0  0  0  0  0999 V2000
    3.1473   -2.5829   -1.1165 S   0  0  0  0  0  0  0  0  0  0  0  0
   -0.4242   -2.3322   -4.1427 O   0  0  0  0  0  0  0  0  0  0  0  0
    0.5118   -3.7604   -2.6872 O   0  0  0  0  0  0  0  0  0  0  0  0
   -0.9510   -0.4958    0.7627 O   0  0  0  0  0  0  0  0  0  0  0  0
    0.2736   -1.3121   -0.9330 N   0  0  0  0  0  0  0  0  0  0  0  0
    0.8346   -1.3736   -2.2849 C   0  0  1  0  0  0  0  0  0  0  0  0
    2.3723   -1.3723   -2.2521 C   0  0  0  0  0  0  0  0  0  0  0  0
    0.3171   -2.6048   -3.0428 C   0  0  0  0  0  0  0  0  0  0  0  0
   -0.5844   -0.3958   -0.4045 C   0  0  0  0  0  0  0  0  0  0  0  0
   -1.0426    0.7255   -1.2932 C   0  0  0  0  0  0  0  0  0  0  0  0
  1  7  1  0
  2  8  1  0
  3  8  2  0
  4  9  2  0
  5  9  1  0
  6  8  1  0
  6  7  1  1
  6  5  1  0
  9 10  1  0
M  END
>  <DRUGBANK_ID>  (1) 
DB06151

>  <SECONDARY_ACCESSION_NUMBERS>  (1) 
DB05436

>  <COMMON_NAME>  (1) 
Acetylcysteine

>  <CAS_NUMBER>  (1) 
616-91-1

>  <UNII>  (1) 
WYQ7N0BPYC

>  <SYNONYMS>  (1) 
(2R)-2-acetylamino-3-sulfanylpropanoic acid; (R)-2-acetylamino-3-mercaptopropanoic acid; (R)-mercapturic acid; Acetilcisteina; Acetylcysteine; Acetylcysteinum; L-acetylcysteine; L-α-acetamido-β-mercaptopropionic acid; Mercapturic acid; N-acetyl-L-(+)-cysteine; N-acetyl-L-cysteine; N-acetylcysteine; NAC

$$$$
