
     RDKit          3D

 17 17  0  0  0  0  0  0  0  0999 V2000
    1.5851   -0.5112   -0.0967 C   0  0  0  0  0  0  0  0  0  0  0  0
    0.6019   -1.5100   -0.1606 C   0  0  0  0  0  0  0  0  0  0  0  0
   -0.7624   -1.2295   -0.4490 C   0  0  0  0  0  0  0  0  0  0  0  0
   -1.1759    0.0822   -0.6569 C   0  0  0  0  0  0  0  0  0  0  0  0
   -0.1380    1.0057   -0.4483 C   0  0  0  0  0  0  0  0  0  0  0  0
    1.2072    0.7825   -0.2541 C   0  0  0  0  0  0  0  0  0  0  0  0
   -2.6960    0.4219   -0.7854 C   0  0  0  0  0  0  0  0  0  0  0  0
   -3.2192    1.6920   -0.5309 O   0  0  0  0  0  0  0  0  0  0  0  0
   -2.4679    2.8977   -0.2139 C   0  0  0  0  0  0  0  0  0  0  0  0
   -1.8907    2.8331    1.3406 C   0  0  0  0  0  0  0  0  0  0  0  0
   -1.2987    1.5924    1.8686 N   0  0  0  0  0  0  0  0  0  0  0  0
   -0.2758    1.6324    2.8943 C   0  0  0  0  0  0  0  0  0  0  0  0
   -3.4836   -0.4882   -0.9410 O   0  0  0  0  0  0  0  0  0  0  0  0
   -1.5767    3.1668   -1.4900 C   0  0  0  0  0  0  0  0  0  0  0  0
   -3.3601    4.1676   -0.1834 C   0  0  0  0  0  0  0  0  0  0  0  0
   -2.1766    0.4581    2.0822 C   0  0  0  0  0  0  0  0  0  0  0  0
   -2.3095    3.1583   -2.8215 C   0  0  0  0  0  0  0  0  0  0  0  0
  1  2  2  0
  1  6  1  0
  2  3  1  0
  3  4  2  0
  4  5  1  0
  4  7  1  0
  5  6  2  0
  7  8  1  0
  7 13  2  0
  8  9  1  0
  9 10  1  0
  9 14  1  0
  9 15  1  0
 10 11  1  0
 11 12  1  0
 11 16  1  0
 14 17  1  0
M  END
>  <DRUGBANK_ID>  (1) 
DB09088

>  <COMMON_NAME>  (1) 
Amylocaine

>  <CAS_NUMBER>  (1) 
644-26-8

>  <UNII>  (1) 
QRW683O56T

>  <SYNONYMS>  (1) 
1-(Dimethylamino)-2-methyl-2-butanol benzoate; Amyl√©ine; Amylocaine; Stovaine

$$$$
