PIX
     RDKit          3D

 27 29  0  0  0  0  0  0  0  0999 V2000
    0.9790    0.2076    0.0306 O   0  0  0  0  0  0  0  0  0  0  0  0
    2.1918    0.0574   -0.0452 C   0  0  0  0  0  0  0  0  0  0  0  0
    2.9754    0.5216   -1.0699 N   0  0  0  0  0  0  0  0  0  0  0  0
    4.0653   -0.2321   -1.6653 C   0  0  0  0  0  0  0  0  0  0  0  0
    5.2957    0.6494   -1.7124 C   0  0  0  0  0  0  0  0  0  0  0  0
    2.5626    1.6814   -1.8483 C   0  0  0  0  0  0  0  0  0  0  0  0
    3.7353    2.6635   -1.8907 C   0  0  0  0  0  0  0  0  0  0  0  0
    5.0142    1.9892   -2.4275 C   0  0  0  0  0  0  0  0  0  0  0  0
    6.2219    2.9267   -2.2588 C   0  0  0  0  0  0  0  0  0  0  0  0
    7.4893    2.3345   -2.8252 C   0  0  0  0  0  0  0  0  0  0  0  0
    7.5407    2.0129   -4.1887 C   0  0  0  0  0  0  0  0  0  0  0  0
    8.6843    1.4569   -4.7384 C   0  0  0  0  0  0  0  0  0  0  0  0
    9.7964    1.2453   -3.9373 C   0  0  0  0  0  0  0  0  0  0  0  0
    8.6186    2.1110   -2.0197 C   0  0  0  0  0  0  0  0  0  0  0  0
    9.8049    1.6500   -2.5993 C   0  0  0  0  0  0  0  0  0  0  0  0
   10.9365    1.6526   -1.8069 O   0  0  0  0  0  0  0  0  0  0  0  0
   12.1598    1.4507   -2.4179 C   0  0  0  0  0  0  0  0  0  0  0  0
   12.5927    2.2088   -3.5074 C   0  0  0  0  0  0  0  0  0  0  0  0
   13.7739    1.8417   -4.1507 C   0  0  0  0  0  0  0  0  0  0  0  0
   12.8861    0.4395   -1.8989 N   0  0  0  0  0  0  0  0  0  0  0  0
   14.0488    0.1320   -2.5175 C   0  0  0  0  0  0  0  0  0  0  0  0
   14.5281    0.7803   -3.6476 C   0  0  0  0  0  0  0  0  0  0  0  0
   15.8161    0.3384   -4.2676 C   0  0  0  0  0  0  0  0  0  0  0  0
   16.8684    0.4500   -3.4127 F   0  0  0  0  0  0  0  0  0  0  0  0
   15.7879   -0.9639   -4.6619 F   0  0  0  0  0  0  0  0  0  0  0  0
   16.1562    1.0550   -5.3750 F   0  0  0  0  0  0  0  0  0  0  0  0
    2.8969   -0.5013    0.9600 O   0  0  0  0  0  0  0  0  0  0  0  0
  1  2  2  0
  2  3  1  0
  2 27  1  0
  3  4  1  0
  3  6  1  0
  4  5  1  0
  5  8  1  0
  6  7  1  0
  7  8  1  0
  8  9  1  0
  9 10  1  0
 10 11  2  0
 10 14  1  0
 11 12  1  0
 12 13  2  0
 13 15  1  0
 14 15  2  0
 15 16  1  0
 16 17  1  0
 17 18  2  0
 17 20  1  0
 18 19  1  0
 19 22  2  0
 20 21  2  0
 21 22  1  0
 22 23  1  0
 23 24  1  0
 23 25  1  0
 23 26  1  0
M  END
>  <DRUGBANK_ID>  (1) 
DB08400

>  <COMMON_NAME>  (1) 
4-(3-{[5-(trifluoromethyl)pyridin-2-yl]oxy}benzyl)piperidine-1-carboxylic acid

$$$$
