
     RDKit          3D

 12 11  0  0  0  0  0  0  0  0999 V2000
    0.9829    0.0426   -0.0758 C   0  0  0  0  0  0  0  0  0  0  0  0
   -1.6241    1.5690   -1.9008 C   0  0  0  0  0  0  0  0  0  0  0  0
   -1.1160    0.2260   -1.3743 C   0  0  2  0  0  0  0  0  0  0  0  0
    0.3456    0.1894   -1.2648 N   0  0  0  0  0  0  0  0  0  0  0  0
   -1.6536   -0.9271   -2.2265 C   0  0  0  0  0  0  0  0  0  0  0  0
   -1.1846    1.8386   -3.3131 C   0  0  0  0  0  0  0  0  0  0  0  0
    0.4247   -0.0970    1.0033 O   0  0  0  0  0  0  0  0  0  0  0  0
   -2.4637   -1.7701   -1.8712 O   0  0  0  0  0  0  0  0  0  0  0  0
   -1.9225    2.0256   -4.2694 O   0  0  0  0  0  0  0  0  0  0  0  0
    2.3313    0.0622   -0.1605 N   0  0  0  0  0  0  0  0  0  0  0  0
   -1.2181   -0.9090   -3.5056 O   0  0  0  0  0  0  0  0  0  0  0  0
    0.1563    1.8676   -3.4622 O   0  0  0  0  0  0  0  0  0  0  0  0
  3  2  1  6
  3  4  1  0
  4  1  1  0
  5  3  1  0
  6  2  1  0
  7  1  2  0
  8  5  2  0
  9  6  2  0
 10  1  1  0
 11  5  1  0
 12  6  1  0
M  END
>  <DRUGBANK_ID>  (1) 
DB04252

>  <SECONDARY_ACCESSION_NUMBERS>  (1) 
EXPT02310

>  <COMMON_NAME>  (1) 
N-Carbamoylaspartic acid

>  <CAS_NUMBER>  (1) 
13184-27-5

>  <UNII>  (1) 
R2521024DK

>  <SYNONYMS>  (1) 
2-Ureidobutanedioic acid; L-N-Carbamoylaspartic acid; N-Carbamoyl-S-aspartic acid; N-Carbamoylaspartic acid; Ureidosuccinic acid

$$$$
