
     RDKit          3D

 30 33  0  0  0  0  0  0  0  0999 V2000
    1.4179   -0.2337    0.0143 C   0  0  0  0  0  0  0  0  0  0  0  0
    0.5522   -1.3288    0.0180 C   0  0  0  0  0  0  0  0  0  0  0  0
   -0.8232   -1.1303   -0.0066 C   0  0  0  0  0  0  0  0  0  0  0  0
   -1.3371    0.1664   -0.0122 C   0  0  0  0  0  0  0  0  0  0  0  0
   -0.4583    1.2629    0.0271 C   0  0  0  0  0  0  0  0  0  0  0  0
    0.9150    1.0646    0.0044 C   0  0  0  0  0  0  0  0  0  0  0  0
   -2.7646    0.3983   -0.1232 C   0  0  0  0  0  0  0  0  0  0  0  0
   -3.6804   -0.0901    0.8185 C   0  0  0  0  0  0  0  0  0  0  0  0
   -5.0360    0.2158    0.7252 C   0  0  0  0  0  0  0  0  0  0  0  0
   -5.4862    1.0518   -0.2901 C   0  0  0  0  0  0  0  0  0  0  0  0
   -4.5386    1.5771   -1.1836 C   0  0  0  0  0  0  0  0  0  0  0  0
   -3.2191    1.1909   -1.1650 C   0  0  0  0  0  0  0  0  0  0  0  0
   -6.9660    1.3116   -0.4319 C   0  0  0  0  0  0  0  0  0  0  0  0
   -7.3353    2.7985   -0.4647 C   0  0  0  0  0  0  0  0  0  0  0  0
   -6.7660    3.5148   -1.6143 N   0  0  0  0  0  0  0  0  0  0  0  0
   -7.2328    4.8996   -1.6438 C   0  0  0  0  0  0  0  0  0  0  0  0
   -6.6023    5.6871   -2.7967 C   0  0  0  0  0  0  0  0  0  0  0  0
   -6.6565    4.9066   -4.0781 C   0  0  0  0  0  0  0  0  0  0  0  0
   -6.7982    3.5845   -4.0971 C   0  0  0  0  0  0  0  0  0  0  0  0
   -6.9931    2.7821   -2.8697 C   0  0  0  0  0  0  0  0  0  0  0  0
   -6.5318    5.6028   -5.3503 C   0  0  0  0  0  0  0  0  0  0  0  0
   -5.3896    6.3498   -5.6221 C   0  0  0  0  0  0  0  0  0  0  0  0
   -5.2284    6.9284   -6.8741 C   0  0  0  0  0  0  0  0  0  0  0  0
   -6.1890    6.7220   -7.8640 C   0  0  0  0  0  0  0  0  0  0  0  0
   -7.3124    5.9209   -7.6191 C   0  0  0  0  0  0  0  0  0  0  0  0
   -7.5138    5.4200   -6.3316 C   0  0  0  0  0  0  0  0  0  0  0  0
   -8.2192    5.4911   -8.7393 C   0  0  0  0  0  0  0  0  0  0  0  0
   -8.2247    4.1358   -8.8950 F   0  0  0  0  0  0  0  0  0  0  0  0
   -9.5169    5.8512   -8.5530 F   0  0  0  0  0  0  0  0  0  0  0  0
   -7.8534    5.9970   -9.9497 F   0  0  0  0  0  0  0  0  0  0  0  0
  1  2  2  0
  1  6  1  0
  2  3  1  0
  3  4  2  0
  4  5  1  0
  4  7  1  0
  5  6  2  0
  7  8  2  0
  7 12  1  0
  8  9  1  0
  9 10  2  0
 10 11  1  0
 10 13  1  0
 11 12  2  0
 13 14  1  0
 14 15  1  0
 15 16  1  0
 15 20  1  0
 16 17  1  0
 17 18  1  0
 18 19  2  0
 18 21  1  0
 19 20  1  0
 21 22  2  0
 21 26  1  0
 22 23  1  0
 23 24  2  0
 24 25  1  0
 25 26  2  0
 25 27  1  0
 27 28  1  0
 27 29  1  0
 27 30  1  0
M  END
>  <DRUGBANK_ID>  (1) 
DB05454

>  <COMMON_NAME>  (1) 
Paliroden

>  <CAS_NUMBER>  (1) 
188396-77-2

>  <UNII>  (1) 
17VJ76L90T

>  <SYNONYMS>  (1) 
1-(2-(Biphenyl-4-yl)ethyl)-4-(3-(trifluoromethyl)phenyl)-1,2,3,6-tetrahydropyridine; Paliroden; Palirodenum

$$$$
