
     RDKit          3D

 10  9  0  0  0  0  0  0  0  0999 V2000
    1.0304   -1.1535    2.1490 C   0  0  2  0  0  0  0  0  0  0  0  0
    0.6014   -1.1936    0.6626 C   0  0  2  0  0  0  0  0  0  0  0  0
    0.1594   -0.2664    3.0779 C   0  0  1  0  0  0  0  0  0  0  0  0
    2.0223   -0.4105   -1.1823 O   0  0  0  0  0  0  0  0  0  0  0  0
    1.3689   -0.1503   -0.1718 C   0  0  0  0  0  0  0  0  0  0  0  0
    2.4254   -0.8499    2.2779 O   0  0  0  0  0  0  0  0  0  0  0  0
   -0.8124   -1.1615    0.4793 O   0  0  0  0  0  0  0  0  0  0  0  0
    0.6522   -0.3275    4.4219 O   0  0  0  0  0  0  0  0  0  0  0  0
   -0.7086    1.4760    1.5264 O   0  0  0  0  0  0  0  0  0  0  0  0
    0.1089    1.2104    2.6608 C   0  0  0  0  0  0  0  0  0  0  0  0
  1  6  1  6
  2  7  1  1
  2  5  1  0
  2  1  1  0
  3  1  1  0
  3  8  1  1
  4  5  2  0
  9 10  1  0
 10  3  1  0
M  END
>  <DRUGBANK_ID>  (1) 
DB16873

>  <COMMON_NAME>  (1) 
L-Arabinose

>  <CAS_NUMBER>  (1) 
5328-37-0

>  <UNII>  (1) 
B40ROO395Z

>  <SYNONYMS>  (1) 
Arabinose, L-; Pectinose

$$$$
