
     RDKit          3D

 10 10  0  0  1  0  0  0  0  0999 V2000
    1.0298    0.0238   -0.0151 O   0  0  0  0  0  0  0  0  0  0  0  0
    0.4766    0.1996    1.2828 C   0  0  0  0  0  0  0  0  0  0  0  0
    0.9242   -0.8629    2.2974 C   0  0  2  0  0  0  0  0  0  0  0  0
    1.0958   -2.1628    1.7110 O   0  0  0  0  0  0  0  0  0  0  0  0
    0.6387   -3.1515    2.6432 C   0  0  1  0  0  0  0  0  0  0  0  0
    1.6596   -4.0994    2.9119 O   0  0  0  0  0  0  0  0  0  0  0  0
    0.2266   -2.4139    3.9264 C   0  0  2  0  0  0  0  0  0  0  0  0
   -0.8516   -3.0532    4.6044 O   0  0  0  0  0  0  0  0  0  0  0  0
   -0.1075   -1.0287    3.4087 C   0  0  1  0  0  0  0  0  0  0  0  0
   -0.0254   -0.0097    4.3936 O   0  0  0  0  0  0  0  0  0  0  0  0
  1  2  1  0
  3  2  1  6
  3  4  1  0
  3  9  1  0
  4  5  1  0
  5  7  1  0
  5  6  1  1
  7  8  1  6
  7  9  1  0
  9 10  1  1
M  END
>  <DRUGBANK_ID>  (1) 
DB03142

>  <SECONDARY_ACCESSION_NUMBERS>  (1) 
EXPT00554; DB02769

>  <COMMON_NAME>  (1) 
Alpha-L-Arabinose

>  <UNII>  (1) 
R0L7IU6KYJ

$$$$
