
     RDKit          3D

 41 46  0  0  1  0  0  0  0  0999 V2000
   -1.0632    0.1719   -0.4869 C   0  0  1  0  0  0  0  0  0  0  0  0
    0.6472    0.6485   -0.9338 C   0  0  0  0  0  0  0  0  0  0  0  0
    1.0552    1.9940   -0.2009 C   0  0  0  0  0  0  0  0  0  0  0  0
   -0.2212    2.5713    0.1089 N   0  0  0  0  0  0  0  0  0  0  0  0
   -1.1735    2.4858   -1.0205 C   0  0  0  0  0  0  0  0  0  0  0  0
   -2.2064    1.4189   -0.7657 C   0  0  1  0  0  0  0  0  0  0  0  0
   -3.0013    1.3349   -2.0841 C   0  0  0  0  0  0  0  0  0  0  0  0
   -3.3465   -0.0373   -2.4206 C   0  0  0  0  0  0  0  0  0  0  0  0
   -2.7955   -1.1738   -1.8670 C   0  0  0  0  0  0  0  0  0  0  0  0
   -1.7417   -1.2345   -0.7797 C   0  0  0  0  0  0  0  0  0  0  0  0
   -3.5242   -2.2109   -2.4419 N   0  0  0  0  0  0  0  0  0  0  0  0
   -4.3404   -1.7775   -3.4414 N   0  0  0  0  0  0  0  0  0  0  0  0
   -4.2720   -0.4540   -3.3822 C   0  0  0  0  0  0  0  0  0  0  0  0
   -3.4435   -3.5884   -2.1843 C   0  0  0  0  0  0  0  0  0  0  0  0
   -3.8922   -4.1252   -0.9717 C   0  0  0  0  0  0  0  0  0  0  0  0
   -3.7335   -5.4950   -0.7435 C   0  0  0  0  0  0  0  0  0  0  0  0
   -3.1358   -6.2934   -1.7173 C   0  0  0  0  0  0  0  0  0  0  0  0
   -2.9506   -7.5981   -1.4776 F   0  0  0  0  0  0  0  0  0  0  0  0
   -2.7229   -5.7596   -2.9340 C   0  0  0  0  0  0  0  0  0  0  0  0
   -2.9002   -4.4019   -3.1838 C   0  0  0  0  0  0  0  0  0  0  0  0
   -3.2859    1.9980    0.2435 C   0  0  0  0  0  0  0  0  0  0  0  0
   -3.0775    2.8254    1.1004 O   0  0  0  0  0  0  0  0  0  0  0  0
   -4.7506    1.9857    0.1091 C   0  0  0  0  0  0  0  0  0  0  0  0
   -5.5149    0.8594    0.0411 C   0  0  0  0  0  0  0  0  0  0  0  0
   -6.8887    1.0606   -0.1086 C   0  0  0  0  0  0  0  0  0  0  0  0
   -7.4264    2.3635   -0.0921 C   0  0  0  0  0  0  0  0  0  0  0  0
   -6.5803    3.4293    0.0764 C   0  0  0  0  0  0  0  0  0  0  0  0
   -5.2637    3.2548    0.1344 N   0  0  0  0  0  0  0  0  0  0  0  0
   -7.7896   -0.1130   -0.3319 C   0  0  0  0  0  0  0  0  0  0  0  0
   -8.7689   -0.1973    0.6036 F   0  0  0  0  0  0  0  0  0  0  0  0
   -8.4044   -0.0518   -1.5405 F   0  0  0  0  0  0  0  0  0  0  0  0
   -7.1242   -1.2998   -0.2962 F   0  0  0  0  0  0  0  0  0  0  0  0
   -0.5849    3.1447    1.6476 S   0  0  0  0  0  0  0  0  0  0  0  0
    0.6714    3.2186    2.4142 O   0  0  0  0  0  0  0  0  0  0  0  0
   -1.3110    4.3551    1.4227 O   0  0  0  0  0  0  0  0  0  0  0  0
   -1.5813    1.9839    2.6885 C   0  0  0  0  0  0  0  0  0  0  0  0
   -2.0061    0.7043    2.4213 N   0  0  0  0  0  0  0  0  0  0  0  0
   -3.0701    0.5778    3.2725 N   0  0  0  0  0  0  0  0  0  0  0  0
   -3.9713   -0.5634    3.2392 C   0  0  0  0  0  0  0  0  0  0  0  0
   -3.2687    1.5759    4.1539 N   0  0  0  0  0  0  0  0  0  0  0  0
   -2.3504    2.4745    3.7621 C   0  0  0  0  0  0  0  0  0  0  0  0
  1  2  1  6
  1  6  1  0
  1 10  1  0
  2  3  1  0
  3  4  1  0
  4  5  1  0
  4 33  1  0
  6  5  1  0
  6  7  1  0
  6 21  1  1
  7  8  1  0
  8  9  2  0
  8 13  1  0
  9 10  1  0
  9 11  1  0
 11 12  1  0
 11 14  1  0
 12 13  2  0
 14 15  2  0
 14 20  1  0
 15 16  1  0
 16 17  2  0
 17 18  1  0
 17 19  1  0
 19 20  2  0
 21 22  2  0
 21 23  1  0
 23 24  2  0
 23 28  1  0
 24 25  1  0
 25 26  2  0
 25 29  1  0
 26 27  1  0
 27 28  2  0
 29 30  1  0
 29 31  1  0
 29 32  1  0
 33 34  2  0
 33 35  2  0
 33 36  1  0
 36 37  2  0
 36 41  1  0
 37 38  1  0
 38 39  1  0
 38 40  1  0
 40 41  2  0
M  END
>  <DRUGBANK_ID>  (1) 
DB16162

>  <COMMON_NAME>  (1) 
Exicorilant

>  <CAS_NUMBER>  (1) 
1781244-77-6

>  <UNII>  (1) 
GTB859B7K8

>  <SYNONYMS>  (1) 
Exicorilant

$$$$
