1445
     RDKit          3D

 15 16  0  0  0  0  0  0  0  0999 V2000
    3.1910   -0.5884    0.0464 O   0  0  0  0  0  0  0  0  0  0  0  0
   -4.0598   -3.0114    1.3584 N   0  0  0  0  0  0  0  0  0  0  0  0
   -2.0301    0.9037   -0.1885 N   0  0  0  0  0  0  0  0  0  0  0  0
   -1.9202   -2.8104   -0.1355 C   0  0  0  0  0  0  0  0  0  0  0  0
   -1.6801   -1.3035   -0.2389 C   0  0  0  0  0  0  0  0  0  0  0  0
   -0.4287   -0.6289   -0.0879 C   0  0  0  0  0  0  0  0  0  0  0  0
   -2.6339   -3.3753    1.1560 C   0  0  0  0  0  0  0  0  0  0  0  0
   -0.6729    0.7438   -0.0790 C   0  0  0  0  0  0  0  0  0  0  0  0
   -2.5490   -0.2879   -0.6286 C   0  0  0  0  0  0  0  0  0  0  0  0
    0.8980   -1.0721    0.0138 C   0  0  0  0  0  0  0  0  0  0  0  0
    0.3232    1.7126    0.0165 C   0  0  0  0  0  0  0  0  0  0  0  0
    1.9094   -0.1183    0.0428 C   0  0  0  0  0  0  0  0  0  0  0  0
   -4.7001   -3.6318    2.5084 C   0  0  0  0  0  0  0  0  0  0  0  0
   -4.1836   -1.5844    1.5662 C   0  0  0  0  0  0  0  0  0  0  0  0
    1.6394    1.2481    0.0435 C   0  0  0  0  0  0  0  0  0  0  0  0
  1 12  1  0
  2  7  1  0
  2 13  1  0
  2 14  1  0
  3  8  1  0
  3  9  1  0
  4  5  1  0
  4  7  1  0
  5  6  1  0
  5  9  2  0
  6  8  2  0
  6 10  1  0
  8 11  1  0
 10 12  2  0
 11 15  2  0
 12 15  1  0
M  END
>  <DRUGBANK_ID>  (1) 
DB01445

>  <COMMON_NAME>  (1) 
Bufotenine

>  <CAS_NUMBER>  (1) 
487-93-4

>  <UNII>  (1) 
0A31347TZK

>  <SYNONYMS>  (1) 
3-[2-(dimethylamino)ethyl]-5-indolol; 3-[2-(dimethylamino)ethyl]indol-5-ol; 3-[Î²-(dimethylamino)ethyl]-5-hydroxyindole; 5-hydroxy-N,N-dimethyltryptamine; Bufotenin; DM5-HT; N,N-dimethylserotonin

$$$$
