
     RDKit          3D

 14 14  0  0  0  0  0  0  0  0999 V2000
    0.4725   -0.6925   -0.0014 C   0  0  0  0  0  0  0  0  0  0  0  0
    0.4991    0.7090    0.0048 C   0  0  0  0  0  0  0  0  0  0  0  0
   -0.7025    1.4239    0.0171 C   0  0  0  0  0  0  0  0  0  0  0  0
   -1.9294    0.7298    0.0049 C   0  0  0  0  0  0  0  0  0  0  0  0
   -1.9334   -0.6745   -0.0130 C   0  0  0  0  0  0  0  0  0  0  0  0
   -0.7303   -1.3962   -0.0094 C   0  0  0  0  0  0  0  0  0  0  0  0
    1.6797   -1.3403   -0.0009 O   0  0  0  0  0  0  0  0  0  0  0  0
    1.7188    1.3244   -0.0069 O   0  0  0  0  0  0  0  0  0  0  0  0
   -3.2168   -1.3963   -0.0401 N   0  0  0  0  0  0  0  0  0  0  0  0
   -4.2553   -0.7248   -0.0460 O   0  0  0  0  0  0  0  0  0  0  0  0
   -3.1761   -2.6352   -0.0582 O   0  0  0  0  0  0  0  0  0  0  0  0
   -0.7302    2.8966    0.0476 N   0  0  0  0  0  0  0  0  0  0  0  0
    0.3302    3.5293    0.0708 O   0  0  0  0  0  0  0  0  0  0  0  0
   -1.8499    3.4329    0.0537 O   0  0  0  0  0  0  0  0  0  0  0  0
  1  2  2  0
  1  6  1  0
  1  7  1  0
  2  3  1  0
  2  8  1  0
  3  4  2  0
  3 12  1  0
  4  5  1  0
  5  6  2  0
  5  9  1  0
  9 10  2  0
  9 11  1  0
 12 13  2  0
 12 14  1  0
M  CHG  4   9   1  11  -1  12   1  14  -1
M  END
>  <DRUGBANK_ID>  (1) 
DB02105

>  <SECONDARY_ACCESSION_NUMBERS>  (1) 
EXPT01233

>  <COMMON_NAME>  (1) 
3,5-Dinitrocatechol

>  <CAS_NUMBER>  (1) 
7659-29-2

>  <UNII>  (1) 
VK0VA22GY2

$$$$
