
     RDKit          3D

 40 41  0  0  0  0  0  0  0  0999 V2000
    1.5145   -0.2592   -0.9362 O   0  0  0  0  0  0  0  0  0  0  0  0
    2.3574    5.2211    0.9801 O   0  0  0  0  0  0  0  0  0  0  0  0
    4.3072    0.5329    2.8304 O   0  0  0  0  0  0  0  0  0  0  0  0
   -0.9910    3.9816    4.9931 O   0  0  0  0  0  0  0  0  0  0  0  0
    2.0547    0.7642    7.2031 O   0  0  0  0  0  0  0  0  0  0  0  0
    4.6754    2.6463    2.5164 O   0  0  0  0  0  0  0  0  0  0  0  0
    0.1807    1.8975    7.2970 O   0  0  0  0  0  0  0  0  0  0  0  0
   -0.2698   -1.1742    0.0852 N   0  0  0  0  0  0  0  0  0  0  0  0
    1.1195    3.3978    1.5988 N   0  0  0  0  0  0  0  0  0  0  0  0
    0.6263    5.1251    3.9498 N   0  0  0  0  0  0  0  0  0  0  0  0
    2.3458    1.8657    3.8274 N   0  0  0  0  0  0  0  0  0  0  0  0
   -0.3344    1.1912   -0.0018 C   0  0  1  0  0  0  0  0  0  0  0  0
   -1.6712    0.6703   -0.4362 C   0  0  0  0  0  0  0  0  0  0  0  0
   -0.7199    1.6137    1.4224 C   0  0  0  0  0  0  0  0  0  0  0  0
   -1.6426   -0.7979    0.0385 C   0  0  0  0  0  0  0  0  0  0  0  0
    0.4369    1.9485    2.2330 C   0  0  2  0  0  0  0  0  0  0  0  0
    0.4520   -0.1106   -0.3508 C   0  0  0  0  0  0  0  0  0  0  0  0
   -0.0265    1.5713    3.7591 C   0  0  0  0  0  0  0  0  0  0  0  0
    2.0003    5.2319    3.3823 C   0  0  2  0  0  0  0  0  0  0  0  0
    1.7990    4.6115    1.9104 C   0  0  0  0  0  0  0  0  0  0  0  0
    1.4347    3.0818    5.0679 C   0  0  1  0  0  0  0  0  0  0  0  0
    2.1362    3.7794    6.4825 C   0  0  0  0  0  0  0  0  0  0  0  0
    0.2212    4.1429    4.7540 C   0  0  0  0  0  0  0  0  0  0  0  0
    3.3730    4.8046    4.0986 C   0  0  0  0  0  0  0  0  0  0  0  0
    0.4550    0.7844    4.9281 C   0  0  0  0  0  0  0  0  0  0  0  0
    1.3836    4.5735    7.5180 C   0  0  0  0  0  0  0  0  0  0  0  0
    3.1552    3.0998    7.3994 C   0  0  0  0  0  0  0  0  0  0  0  0
    4.4043    4.9414    4.9627 C   0  0  0  0  0  0  0  0  0  0  0  0
    3.5084    3.5259    4.2206 C   0  0  0  0  0  0  0  0  0  0  0  0
    3.5236   -0.0076    1.8411 C   0  0  0  0  0  0  0  0  0  0  0  0
    3.8375    1.7515    2.9378 C   0  0  0  0  0  0  0  0  0  0  0  0
    0.8391    1.0925    6.6377 C   0  0  0  0  0  0  0  0  0  0  0  0
    5.3575    3.7743    5.6885 C   0  0  0  0  0  0  0  0  0  0  0  0
    4.2363    2.2281    4.9994 C   0  0  0  0  0  0  0  0  0  0  0  0
    2.7671   -1.0340    2.6843 C   0  0  0  0  0  0  0  0  0  0  0  0
    2.8407    1.0565    1.0004 C   0  0  0  0  0  0  0  0  0  0  0  0
    4.4879   -0.5493    0.8647 C   0  0  0  0  0  0  0  0  0  0  0  0
    5.3323    2.3925    5.6620 C   0  0  0  0  0  0  0  0  0  0  0  0
    3.1754   -0.1226    6.9758 C   0  0  0  0  0  0  0  0  0  0  0  0
    2.5107   -1.2679    6.3453 C   0  0  0  0  0  0  0  0  0  0  0  0
  1 17  2  0
  2 20  2  0
  3 30  1  0
  3 31  1  0
  4 23  2  0
  5 32  1  0
  5 39  1  0
  6 31  2  0
  7 32  2  0
  8 15  1  0
  8 17  1  0
  9 16  1  0
  9 20  1  0
 10 23  1  0
 11 31  1  0
 12 13  1  0
 12 14  1  1
 12 17  1  0
 13 15  1  0
 16 14  1  6
 16 18  1  0
 18 25  2  0
 19 10  1  1
 19 20  1  0
 19 24  1  0
 21 11  1  6
 21 22  1  0
 21 23  1  0
 22 26  1  0
 22 27  1  0
 24 28  2  0
 24 29  1  0
 25 32  1  0
 28 33  1  0
 29 34  2  0
 30 35  1  0
 30 36  1  0
 30 37  1  0
 33 38  2  0
 34 38  1  0
 39 40  1  0
M  END
>  <DRUGBANK_ID>  (1) 
DB04692

>  <COMMON_NAME>  (1) 
Ethyl (2E)-4-({(2S)-2-[(N-{[(2-methyl-2-propanyl)oxy]carbonyl}-L-valyl)amino]-2-phenylacetyl}amino)-5-[(3S)-2-oxo-3-pyrrolidinyl]-2-pentenoate

$$$$
