SC9
     RDKit          3D

 24 27  0  0  0  0  0  0  0  0999 V2000
   -1.5985   -1.2254    0.0025 C   0  0  0  0  0  0  0  0  0  0  0  0
   -0.3043   -0.7806   -0.0018 N   0  0  0  0  0  0  0  0  0  0  0  0
   -0.3548    0.5840   -0.0085 C   0  0  0  0  0  0  0  0  0  0  0  0
   -1.5917    1.0286   -0.0086 N   0  0  0  0  0  0  0  0  0  0  0  0
   -2.3744   -0.0884   -0.0040 C   0  0  0  0  0  0  0  0  0  0  0  0
    0.9054   -1.4337   -0.0074 C   0  0  0  0  0  0  0  0  0  0  0  0
    2.0305   -0.6938   -0.0214 C   0  0  0  0  0  0  0  0  0  0  0  0
    2.0324    0.7023   -0.0232 N   0  0  0  0  0  0  0  0  0  0  0  0
    0.8846    1.3483   -0.0180 C   0  0  0  0  0  0  0  0  0  0  0  0
    0.9264    2.7247   -0.0234 N   0  0  0  0  0  0  0  0  0  0  0  0
   -0.2159    3.6091    0.0051 C   0  0  0  0  0  0  0  0  0  0  0  0
   -0.2347    4.4347    1.2549 C   0  0  0  0  0  0  0  0  0  0  0  0
   -0.0915    3.8715    2.5273 C   0  0  0  0  0  0  0  0  0  0  0  0
   -0.1225    4.6924    3.6483 C   0  0  0  0  0  0  0  0  0  0  0  0
   -0.3256    6.0490    3.4582 C   0  0  0  0  0  0  0  0  0  0  0  0
   -0.5282    6.6204    2.2514 N   0  0  0  0  0  0  0  0  0  0  0  0
   -0.4890    5.7987    1.1813 C   0  0  0  0  0  0  0  0  0  0  0  0
    3.3239   -1.4058   -0.0316 C   0  0  0  0  0  0  0  0  0  0  0  0
    4.2440   -1.2454    1.0095 C   0  0  0  0  0  0  0  0  0  0  0  0
    5.4576   -1.9331    1.0135 C   0  0  0  0  0  0  0  0  0  0  0  0
    5.7729   -2.7954   -0.0356 C   0  0  0  0  0  0  0  0  0  0  0  0
    4.8679   -2.9742   -1.0808 C   0  0  0  0  0  0  0  0  0  0  0  0
    3.6504   -2.2853   -1.0794 C   0  0  0  0  0  0  0  0  0  0  0  0
    3.9639   -0.4493    2.0528 F   0  0  0  0  0  0  0  0  0  0  0  0
  1  5  2  0
  1  2  1  0
  2  6  1  0
  2  3  1  0
  3  9  1  0
  4  3  2  0
  5  4  1  0
  6  7  2  0
  7 18  1  0
  7  8  1  0
  9  8  2  0
  9 10  1  0
 10 11  1  0
 12 11  1  0
 13 12  2  0
 14 13  1  0
 15 14  2  0
 15 16  1  0
 16 17  2  0
 17 12  1  0
 18 23  2  0
 19 20  2  0
 19 18  1  0
 20 21  1  0
 21 22  2  0
 23 22  1  0
 24 19  1  0
M  END
>  <DRUGBANK_ID>  (1) 
DB08532

>  <COMMON_NAME>  (1) 
6-(2-fluorophenyl)-N-(pyridin-3-ylmethyl)imidazo[1,2-a]pyrazin-8-amine

$$$$
