
     RDKit          3D

  9  9  0  0  0  0  0  0  0  0999 V2000
   -2.6586   -0.9405   -0.0114 C   0  0  0  0  0  0  0  0  0  0  0  0
   -1.2043   -0.5616   -0.0067 C   0  0  0  0  0  0  0  0  0  0  0  0
   -0.2313   -1.5698   -0.0092 C   0  0  0  0  0  0  0  0  0  0  0  0
    1.1312   -1.2563   -0.0078 C   0  0  0  0  0  0  0  0  0  0  0  0
    1.5582    0.0725   -0.0213 C   0  0  0  0  0  0  0  0  0  0  0  0
    2.9075    0.3788    0.1466 N   0  0  0  0  0  0  0  0  0  0  0  0
    0.5883    1.0773    0.0172 C   0  0  0  0  0  0  0  0  0  0  0  0
   -0.7900    0.7836    0.0008 C   0  0  0  0  0  0  0  0  0  0  0  0
   -1.7624    1.9315   -0.0190 C   0  0  0  0  0  0  0  0  0  0  0  0
  1  2  1  0
  2  3  2  0
  2  8  1  0
  3  4  1  0
  4  5  2  0
  5  6  1  0
  5  7  1  0
  7  8  2  0
  8  9  1  0
M  END
>  <DRUGBANK_ID>  (1) 
DB03018

>  <SECONDARY_ACCESSION_NUMBERS>  (1) 
EXPT00155

>  <COMMON_NAME>  (1) 
3,4-dimethylaniline

>  <CAS_NUMBER>  (1) 
95-64-7

>  <UNII>  (1) 
R27I33AIDT

>  <SYNONYMS>  (1) 
1-amino-3,4-dimethylbenzene; 3,4-dimethylaminobenzene; 3,4-dimethylbenzenamine; 3,4-dimethylbenzene-1-amine; 3,4-dimethylbenzeneamine; 3,4-dimethylphenylamine; 3,4-xylidine; 3,4-xylylamine; 4-amino-1,2-dimethylbenzene; 4-amino-o-xylene

$$$$
