
     RDKit          3D

 14 14  0  0  1  0  0  0  0  0999 V2000
    0.8303    0.4969    2.3812 C   0  0  0  0  0  0  0  0  0  0  0  0
    0.2257   -0.4916    1.3455 C   0  0  2  0  0  0  0  0  0  0  0  0
    0.7493   -0.0969    0.0169 N   0  0  0  0  0  0  0  0  0  0  0  0
   -1.3109   -0.4575    1.3546 C   0  0  0  0  0  0  0  0  0  0  0  0
   -1.9630    0.6985    1.3315 N   0  0  0  0  0  0  0  0  0  0  0  0
   -3.3001    0.4232    1.3399 C   0  0  0  0  0  0  0  0  0  0  0  0
   -4.2921    1.5230    1.3316 C   0  0  0  0  0  0  0  0  0  0  0  0
   -3.5068   -0.9378    1.3452 C   0  0  0  0  0  0  0  0  0  0  0  0
   -4.6310   -1.6499    1.3282 O   0  0  0  0  0  0  0  0  0  0  0  0
   -2.2406   -1.5130    1.3875 N   0  0  0  0  0  0  0  0  0  0  0  0
   -2.0351   -2.9637    1.3896 C   0  0  0  0  0  0  0  0  0  0  0  0
   -2.5818   -3.6708    2.6186 C   0  0  0  0  0  0  0  0  0  0  0  0
   -3.4291   -4.7087    2.4024 O   0  0  0  0  0  0  0  0  0  0  0  0
   -2.2168   -3.4054    3.7649 O   0  0  0  0  0  0  0  0  0  0  0  0
  2  4  1  0
  2  3  1  0
  2  1  1  1
  4  5  2  0
  4 10  1  0
  5  6  1  0
  6  7  1  0
  6  8  2  0
  8  9  1  0
  8 10  1  0
 10 11  1  0
 11 12  1  0
 12 13  1  0
 12 14  2  0
M  END
>  <DRUGBANK_ID>  (1) 
DB03071

>  <SECONDARY_ACCESSION_NUMBERS>  (1) 
EXPT02146

>  <COMMON_NAME>  (1) 
4-Methylidene-5-One

$$$$
