
     RDKit          3D

 13 12  0  0  1  0  0  0  0  0999 V2000
   -1.5354   -0.5557   -7.6844 P   0  0  0  0  0  0  0  0  0  0  0  0
   -1.3688   -1.4214   -6.3096 O   0  0  0  0  0  0  0  0  0  0  0  0
   -0.2216    1.4325   -6.1282 O   0  0  0  0  0  0  0  0  0  0  0  0
   -1.3700    3.5365   -4.0762 O   0  0  0  0  0  0  0  0  0  0  0  0
   -2.7733    1.7972   -3.8004 O   0  0  0  0  0  0  0  0  0  0  0  0
   -1.4387   -1.7126   -8.8215 O   0  0  0  0  0  0  0  0  0  0  0  0
    0.1946   -0.5563   -7.6836 O   0  0  0  0  0  0  0  0  0  0  0  0
   -3.0838   -0.5551   -7.6852 O   0  0  0  0  0  0  0  0  0  0  0  0
   -0.3068    0.5456   -2.5931 N   0  0  0  0  0  0  0  0  0  0  0  0
   -0.3279    0.4557   -5.0669 C   0  0  1  0  0  0  0  0  0  0  0  0
   -0.3619    1.3368   -3.8237 C   0  0  1  0  0  0  0  0  0  0  0  0
   -1.5045   -0.5661   -5.1669 C   0  0  0  0  0  0  0  0  0  0  0  0
   -1.6143    2.2217   -3.8943 C   0  0  0  0  0  0  0  0  0  0  0  0
  1  2  1  0
  1  6  1  0
  1  7  1  0
  1  8  2  0
  2 12  1  0
  4 13  1  0
  5 13  2  0
 10  3  1  6
 10 12  1  0
 11 13  1  0
 11 10  1  0
 11  9  1  1
M  END
>  <DRUGBANK_ID>  (1) 
DB02609

>  <SECONDARY_ACCESSION_NUMBERS>  (1) 
EXPT00231

>  <COMMON_NAME>  (1) 
4-Hydroxy-L-Threonine-5-Monophosphate

$$$$
