
     RDKit          3D

 20 21  0  0  1  0  0  0  0  0999 V2000
   -1.7582    0.0010   -0.5853 O   0  0  0  0  0  0  0  0  0  0  0  0
   -0.8924   -0.0421    0.5474 C   0  0  1  0  0  0  0  0  0  0  0  0
   -0.0696   -1.2885    0.4954 C   0  0  0  0  0  0  0  0  0  0  0  0
    1.1248   -0.9081   -0.3915 C   0  0  1  0  0  0  0  0  0  0  0  0
    1.3744    0.4381   -0.0977 O   0  0  0  0  0  0  0  0  0  0  0  0
    0.1852    1.0076    0.4722 C   0  0  2  0  0  0  0  0  0  0  0  0
    0.5191    1.5790    1.8692 C   0  0  0  0  0  0  0  0  0  0  0  0
    0.0099    2.9214    2.0023 O   0  0  0  0  0  0  0  0  0  0  0  0
    0.6226    4.0370    0.8306 P   0  0  0  0  0  0  0  0  0  0  0  0
    1.7217    2.9662    0.3324 O   0  0  0  0  0  0  0  0  0  0  0  0
   -0.7202    3.6579   -0.0186 O   0  0  0  0  0  0  0  0  0  0  0  0
    1.1710    5.0355   -0.2181 O   0  0  0  0  0  0  0  0  0  0  0  0
    2.2918   -1.7550   -0.1076 N   0  0  0  0  0  0  0  0  0  0  0  0
    2.0341   -3.1050   -0.2124 C   0  0  0  0  0  0  0  0  0  0  0  0
    2.8272   -4.0275    0.3231 C   0  0  0  0  0  0  0  0  0  0  0  0
    4.1077   -3.5957    0.8785 C   0  0  0  0  0  0  0  0  0  0  0  0
    4.8302   -4.3945    1.4776 O   0  0  0  0  0  0  0  0  0  0  0  0
    4.4298   -2.2894    0.6757 N   0  0  0  0  0  0  0  0  0  0  0  0
    3.5241   -1.2868    0.3706 C   0  0  0  0  0  0  0  0  0  0  0  0
    3.8576   -0.1239    0.5764 O   0  0  0  0  0  0  0  0  0  0  0  0
  2  1  1  6
  2  3  1  0
  2  6  1  0
  3  4  1  0
  4  5  1  0
  4 13  1  1
  5  6  1  0
  6  7  1  1
  7  8  1  0
  8  9  1  0
  9 10  1  0
  9 11  1  0
  9 12  2  0
 13 14  1  0
 13 19  1  0
 14 15  2  0
 15 16  1  0
 16 17  2  0
 16 18  1  0
 18 19  1  0
 19 20  2  0
M  END
>  <DRUGBANK_ID>  (1) 
DB03800

>  <SECONDARY_ACCESSION_NUMBERS>  (1) 
EXPT03187

>  <COMMON_NAME>  (1) 
Deoxyuridine monophosphate

>  <CAS_NUMBER>  (1) 
964-26-1

>  <UNII>  (1) 
N9J10KFG94

>  <SYNONYMS>  (1) 
2'-deoxyuridine 5'-monophosphate; 2'-Deoxyuridine 5'-phosphate; Deoxyuridine 5'-phosphate; Deoxyuridylate; Deoxyuridylic acid; dUMP

$$$$
