IBM
     RDKit          3D

 16 17  0  0  0  0  0  0  0  0999 V2000
   -1.5621    0.9195    0.3717 N   0  0  0  0  0  0  0  0  0  0  0  0
   -2.3174   -0.1943    0.1193 C   0  0  0  0  0  0  0  0  0  0  0  0
   -1.5608   -1.2618    0.0061 N   0  0  0  0  0  0  0  0  0  0  0  0
   -0.2680   -0.7878    0.0776 C   0  0  0  0  0  0  0  0  0  0  0  0
   -0.2514    0.5773    0.1799 C   0  0  0  0  0  0  0  0  0  0  0  0
    0.8732    1.3823    0.0727 N   0  0  0  0  0  0  0  0  0  0  0  0
    2.1213    0.7197    0.0085 C   0  0  0  0  0  0  0  0  0  0  0  0
    2.1077   -0.6895    0.0030 N   0  0  0  0  0  0  0  0  0  0  0  0
    0.9715   -1.5170    0.0014 C   0  0  0  0  0  0  0  0  0  0  0  0
    1.0232   -2.7480   -0.0361 O   0  0  0  0  0  0  0  0  0  0  0  0
    3.1810    1.3511   -0.0320 O   0  0  0  0  0  0  0  0  0  0  0  0
    3.3821   -1.3816   -0.0134 C   0  0  0  0  0  0  0  0  0  0  0  0
    0.8598    2.8517   -0.0070 C   0  0  0  0  0  0  0  0  0  0  0  0
    0.2401    3.4325   -1.3053 C   0  0  0  0  0  0  0  0  0  0  0  0
   -1.2212    3.0624   -1.5092 C   0  0  0  0  0  0  0  0  0  0  0  0
    0.2887    4.9587   -1.2768 C   0  0  0  0  0  0  0  0  0  0  0  0
  1  2  1  0
  1  5  1  0
  2  3  2  0
  3  4  1  0
  4  5  2  0
  4  9  1  0
  5  6  1  0
  6  7  1  0
  6 13  1  0
  7  8  1  0
  7 11  2  0
  8  9  1  0
  8 12  1  0
  9 10  2  0
 13 14  1  0
 14 15  1  0
 14 16  1  0
M  END
>  <DRUGBANK_ID>  (1) 
DB07954

>  <COMMON_NAME>  (1) 
3-isobutyl-1-methyl-7H-xanthine

>  <CAS_NUMBER>  (1) 
28822-58-4

>  <UNII>  (1) 
TBT296U68M

>  <SYNONYMS>  (1) 
1-methyl-3-(2-methylpropyl)-7H-purine-2,6-dione; 1-methyl-3-isobutylxanthine; 3-isobutyl-1-methyl-3,7-dihydro-1H-purine-2,6-dione; 3-isobutyl-1-methylxanthine; 3-Isobutyl-1-methyxanthine; IBMX

$$$$
