
     RDKit          3D

 13 13  0  0  1  0  0  0  0  0999 V2000
    0.9840   -0.2174    0.1965 C   0  0  0  0  0  0  0  0  0  0  0  0
    0.5295   -1.1574   -0.7600 O   0  0  0  0  0  0  0  0  0  0  0  0
    1.0135   -1.0032   -2.0981 C   0  0  1  0  0  0  0  0  0  0  0  0
    0.1827   -1.8131   -2.9667 O   0  0  0  0  0  0  0  0  0  0  0  0
   -1.2041   -1.3905   -2.9122 C   0  0  2  0  0  0  0  0  0  0  0  0
   -2.0613   -2.3785   -3.7120 C   0  0  0  0  0  0  0  0  0  0  0  0
   -1.9319   -3.6957   -3.1771 O   0  0  0  0  0  0  0  0  0  0  0  0
   -1.3230    0.0457   -3.4547 C   0  0  2  0  0  0  0  0  0  0  0  0
   -0.9191    0.1082   -4.8356 O   0  0  0  0  0  0  0  0  0  0  0  0
   -0.4122    0.9834   -2.6413 C   0  0  2  0  0  0  0  0  0  0  0  0
   -0.4464    2.3182   -3.1525 O   0  0  0  0  0  0  0  0  0  0  0  0
    1.0299    0.4413   -2.6577 C   0  0  1  0  0  0  0  0  0  0  0  0
    1.9827    1.2788   -1.9970 O   0  0  0  0  0  0  0  0  0  0  0  0
  1  2  1  0
  3  2  1  1
  3  4  1  0
  3 12  1  0
  4  5  1  0
  5  6  1  6
  5  8  1  0
  6  7  1  0
  8  9  1  6
  8 10  1  0
 10 11  1  6
 10 12  1  0
 12 13  1  1
M  END
>  <DRUGBANK_ID>  (1) 
DB02100

>  <SECONDARY_ACCESSION_NUMBERS>  (1) 
EXPT00507

>  <COMMON_NAME>  (1) 
Methyl alpha-galactoside

>  <CAS_NUMBER>  (1) 
34004-14-3

>  <UNII>  (1) 
ESJ6UY55QN

$$$$
