
     RDKit          3D

 25 27  0  0  0  0  0  0  0  0999 V2000
    1.4640   -1.7569    0.1917 C   0  0  0  0  0  0  0  0  0  0  0  0
    2.7714   -0.8049    0.4847 C   0  0  0  0  0  0  0  0  0  0  0  0
    2.7352    0.7464    0.0431 C   0  0  0  0  0  0  0  0  0  0  0  0
    1.3542    1.5231    0.4277 C   0  0  2  0  0  0  0  0  0  0  0  0
   -0.0170   -0.9832    0.5641 C   0  0  1  0  0  0  0  0  0  0  0  0
    0.0623    0.5759    0.1106 C   0  0  1  0  0  0  0  0  0  0  0  0
   -1.2747    1.3555   -0.1223 C   0  0  0  0  0  0  0  0  0  0  0  0
   -2.6215    0.6797   -0.0986 C   0  0  0  0  0  0  0  0  0  0  0  0
   -2.6351   -0.7842    0.3000 C   0  0  2  0  0  0  0  0  0  0  0  0
   -1.3998   -1.6139   -0.2078 C   0  0  2  0  0  0  0  0  0  0  0  0
   -3.8672   -1.3173   -0.1997 O   0  0  0  0  0  0  0  0  0  0  0  0
   -1.5019   -3.0731    0.2339 C   0  0  0  0  0  0  0  0  0  0  0  0
   -1.5031   -1.6398   -1.8333 C   0  0  0  0  0  0  0  0  0  0  0  0
    0.4929    0.2467   -1.2826 C   0  0  0  0  0  0  0  0  0  0  0  0
    1.1060    2.8573   -0.4296 C   0  0  0  0  0  0  0  0  0  0  0  0
    1.4473    6.2668    1.2531 C   0  0  0  0  0  0  0  0  0  0  0  0
    2.5797    6.9902    1.1928 O   0  0  0  0  0  0  0  0  0  0  0  0
    3.1931    6.7390   -0.0787 C   0  0  0  0  0  0  0  0  0  0  0  0
    2.7598    5.3642   -0.5148 C   0  0  2  0  0  0  0  0  0  0  0  0
    1.5954    5.1259    0.3670 C   0  0  0  0  0  0  0  0  0  0  0  0
    0.8199    4.0355    0.4290 C   0  0  0  0  0  0  0  0  0  0  0  0
    3.7964    4.4123   -0.3129 O   0  0  0  0  0  0  0  0  0  0  0  0
    0.4497    6.5239    1.9706 O   0  0  0  0  0  0  0  0  0  0  0  0
    3.5952    1.2107   -0.9092 C   0  0  0  0  0  0  0  0  0  0  0  0
   -0.5394   -2.4862   -2.4789 O   0  0  0  0  0  0  0  0  0  0  0  0
  1  2  1  0
  2  3  1  0
  3  4  1  0
  3 24  2  0
  4  6  1  0
  4 15  1  6
  5  1  1  6
  5 10  1  0
  5  6  1  0
  6 14  1  6
  6  7  1  0
  7  8  1  0
  8  9  1  0
  9 10  1  0
  9 11  1  6
 10 13  1  0
 10 12  1  1
 13 25  1  0
 15 21  1  0
 16 17  1  0
 16 23  2  0
 17 18  1  0
 18 19  1  0
 19 20  1  0
 19 22  1  1
 20 16  1  0
 20 21  2  0
M  END
>  <DRUGBANK_ID>  (1) 
DB05767

>  <COMMON_NAME>  (1) 
Andrographolide

>  <CAS_NUMBER>  (1) 
5508-58-7

>  <UNII>  (1) 
410105JHGR

>  <SYNONYMS>  (1) 
3α,14,15,18-tetrahydroxy-5b,9bH,10a-labda-8(20),12-dien-16-oic acid γ-Lactone

$$$$
