
     RDKit          3D

 28 33  0  0  1  0  0  0  0  0999 V2000
    1.1209    0.8972    1.8688 C   0  0  0  0  0  0  0  0  0  0  0  0
   -0.3891    0.7263    1.4955 C   0  0  0  0  0  0  0  0  0  0  0  0
   -1.5009    2.1740    1.7186 C   0  0  1  0  0  0  0  0  0  0  0  0
   -1.0711    3.9141    1.6366 C   0  0  1  0  0  0  0  0  0  0  0  0
   -0.1996    3.2587    0.6500 C   0  0  0  0  0  0  0  0  0  0  0  0
   -1.1651    3.0124   -0.6047 C   0  0  2  0  0  0  0  0  0  0  0  0
   -0.7876    3.3378   -1.9662 C   0  0  1  0  0  0  0  0  0  0  0  0
   -0.3302    4.8760   -1.9834 C   0  0  1  0  0  0  0  0  0  0  0  0
   -1.5653    5.3420   -2.5702 C   0  0  0  0  0  0  0  0  0  0  0  0
   -2.3598    5.0193   -1.0002 C   0  0  2  0  0  0  0  0  0  0  0  0
   -1.2085    5.3561    0.3414 C   0  0  2  0  0  0  0  0  0  0  0  0
    0.0830    5.4632   -0.6173 C   0  0  1  0  0  0  0  0  0  0  0  0
    1.2814    4.7073   -0.2249 O   0  0  0  0  0  0  0  0  0  0  0  0
    1.8064    3.6358   -0.9431 C   0  0  0  0  0  0  0  0  0  0  0  0
    1.9544    2.4848   -0.5368 O   0  0  0  0  0  0  0  0  0  0  0  0
    2.6348    4.1931   -2.1004 C   0  0  0  0  0  0  0  0  0  0  0  0
    2.1349    4.4060   -4.5275 Cl  0  0  0  0  0  0  0  0  0  0  0  0
   -2.6657    3.2554   -0.7101 N   0  0  0  0  0  0  0  0  0  0  0  0
   -2.6664    2.1290    0.5808 C   0  0  2  0  0  0  0  0  0  0  0  0
   -3.8568    2.1111    1.2907 O   0  0  0  0  0  0  0  0  0  0  0  0
    0.8179    4.8786   -2.8591 C   0  0  0  0  0  0  0  0  0  0  0  0
    2.1289    6.0632   -2.9874 C   0  0  0  0  0  0  0  0  0  0  0  0
    3.7578    5.4012   -3.3572 C   0  0  0  0  0  0  0  0  0  0  0  0
    4.0112    3.6318   -3.5929 C   0  0  0  0  0  0  0  0  0  0  0  0
    2.6636    2.4818   -3.4169 C   0  0  0  0  0  0  0  0  0  0  0  0
    1.0866    3.1111   -3.0963 C   0  0  0  0  0  0  0  0  0  0  0  0
    0.0754    2.3884   -2.5541 N   0  0  0  0  0  0  0  0  0  0  0  0
    0.0274    0.9838   -2.3305 C   0  0  0  0  0  0  0  0  0  0  0  0
  1  2  1  0
  3  4  1  0
  3 19  1  0
  3  2  1  6
  4  5  1  6
  4 11  1  0
  6  5  1  1
  6  7  1  0
  6 18  1  0
  7  8  1  0
  7 27  1  1
  8  9  1  0
  8 12  1  0
  8 21  1  6
 10  9  1  6
 10 18  1  0
 11 10  1  6
 11 12  1  0
 12 13  1  1
 13 14  1  0
 14 15  2  0
 14 16  1  0
 16 17  1  0
 18 19  1  0
 19 20  1  1
 21 22  2  0
 21 26  1  0
 22 23  1  0
 23 24  2  0
 24 25  1  0
 25 26  2  0
 26 27  1  0
 27 28  1  0
M  END
>  <DRUGBANK_ID>  (1) 
DB13651

>  <COMMON_NAME>  (1) 
Lorajmine

>  <CAS_NUMBER>  (1) 
47562-08-3

>  <UNII>  (1) 
F96VX65849

>  <SYNONYMS>  (1) 
Lorajmine

$$$$
