
     RDKit          3D

 12 11  0  0  0  0  0  0  0  0999 V2000
    1.0522    0.0172   -0.0835 O   0  0  0  0  0  0  0  0  0  0  0  0
    0.3422   -0.6586    0.9439 C   0  0  0  0  0  0  0  0  0  0  0  0
    0.9777   -1.2635    1.8634 O   0  0  0  0  0  0  0  0  0  0  0  0
   -1.1778   -0.6586    0.9439 C   0  0  0  0  0  0  0  0  0  0  0  0
   -1.6845    0.7720    1.0273 C   0  0  0  0  0  0  0  0  0  0  0  0
   -1.0311    1.7876   -0.5165 Se  0  0  0  0  0  2  0  0  0  0  0  0
    1.3689    1.7876   -0.5165 Se  0  0  0  0  0  2  0  0  0  0  0  0
    2.0222    2.8032   -2.0603 C   0  0  0  0  0  0  0  0  0  0  0  0
    1.5155    2.1602   -3.3410 C   0  0  0  0  0  0  0  0  0  0  0  0
   -0.0045    2.1602   -3.3410 C   0  0  0  0  0  0  0  0  0  0  0  0
   -0.7145    2.8360   -4.3684 O   0  0  0  0  0  0  0  0  0  0  0  0
   -0.6399    1.5553   -2.4215 O   0  0  0  0  0  0  0  0  0  0  0  0
  1  2  1  0
  2  3  2  0
  2  4  1  0
  4  5  1  0
  5  6  1  0
  6  7  1  0
  7  8  1  0
  8  9  1  0
  9 10  1  0
 10 11  1  0
 10 12  2  0
M  END
>  <DRUGBANK_ID>  (1) 
DB18043

>  <COMMON_NAME>  (1) 
3',3-diselenodipropionic acid

>  <CAS_NUMBER>  (1) 
7370-58-3

>  <UNII>  (1) 
2SP2QS73W9

>  <SYNONYMS>  (1) 
3',3-diseleno dipropionic acid; Diseleno-3,3'-dipropionic acid; Diselenodipropionic acid; Propionic acid, 3,3'-diselenodi-

$$$$
