956
     RDKit          3D

 22 26  0  0  1  0  0  0  0  0999 V2000
   -1.0495    0.1887    2.2757 O   0  0  0  0  0  0  0  0  0  0  0  0
   -0.4554    3.4254    1.8181 O   0  0  0  0  0  0  0  0  0  0  0  0
   -1.6272   -2.9248    1.6578 O   0  0  0  0  0  0  0  0  0  0  0  0
   -5.5084    1.3162    2.7050 N   0  0  0  0  0  0  0  0  0  0  0  0
   -2.7999    1.4209    3.1719 C   0  0  2  0  0  0  0  0  0  0  0  0
   -3.6417    2.2629    4.1006 C   0  0  1  0  0  0  0  0  0  0  0  0
   -5.0412    1.4929    4.1689 C   0  0  2  0  0  0  0  0  0  0  0  0
   -1.2840    1.4416    3.0779 C   0  0  2  0  0  0  0  0  0  0  0  0
   -3.3240    1.9150    1.7771 C   0  0  0  0  0  0  0  0  0  0  0  0
   -2.9182   -0.0380    3.5040 C   0  0  0  0  0  0  0  0  0  0  0  0
   -2.8000    3.3195    4.8207 C   0  0  0  0  0  0  0  0  0  0  0  0
   -5.0270    0.1350    4.8568 C   0  0  0  0  0  0  0  0  0  0  0  0
   -4.8258    2.1313    1.7328 C   0  0  0  0  0  0  0  0  0  0  0  0
   -3.9079   -0.6540    4.2840 C   0  0  0  0  0  0  0  0  0  0  0  0
   -1.8765    4.0063    3.7215 C   0  0  0  0  0  0  0  0  0  0  0  0
   -1.0484    3.0062    2.7899 C   0  0  0  0  0  0  0  0  0  0  0  0
   -2.0007   -0.7444    2.7609 C   0  0  0  0  0  0  0  0  0  0  0  0
   -6.2700    0.2606    2.0622 C   0  0  0  0  0  0  0  0  0  0  0  0
   -4.0715   -2.0194    4.2605 C   0  0  0  0  0  0  0  0  0  0  0  0
   -2.2778   -2.1235    2.5759 C   0  0  0  0  0  0  0  0  0  0  0  0
   -3.3413   -2.7154    3.3292 C   0  0  0  0  0  0  0  0  0  0  0  0
   -1.9272   -4.3372    1.7918 C   0  0  0  0  0  0  0  0  0  0  0  0
  8  1  1  6
  1 17  1  0
  2 16  2  0
  3 22  1  0
  3 20  1  0
  4  7  1  0
  4 13  1  0
  4 18  1  0
  5  6  1  0
  5  8  1  0
  5  9  1  6
  5 10  1  0
  6  7  1  0
  6 11  1  1
  7 12  1  6
  8 16  1  0
  9 13  1  0
 10 14  2  0
 10 17  1  0
 11 15  1  0
 12 14  1  0
 14 19  1  0
 15 16  1  0
 17 20  2  0
 19 21  2  0
 20 21  1  0
M  END
>  <DRUGBANK_ID>  (1) 
DB00956

>  <SECONDARY_ACCESSION_NUMBERS>  (1) 
APRD00591; DB09475

>  <COMMON_NAME>  (1) 
Hydrocodone

>  <CAS_NUMBER>  (1) 
125-29-1

>  <UNII>  (1) 
6YKS4Y3WQ7

>  <SYNONYMS>  (1) 
(-)-Dihydrocodeinone; 4,5-alpha-Epoxy-3-methoxy-17-methylmorphinan-6-one; Dihydrocodeinone; Hidrocodona; Hydrocodon; Hydrocodone; Hydrocodonum; Hydrocone; Hydroconum; Idrocodone

$$$$
