
     RDKit          3D

 29 31  0  0  0  0  0  0  0  0999 V2000
   -0.5109    0.6211    0.6806 N   0  0  0  0  0  0  0  0  0  0  0  0
   -1.5171   -2.1788    0.7362 C   0  0  0  0  0  0  0  0  0  0  0  0
   -1.3231   -3.3536    0.7919 O   0  0  0  0  0  0  0  0  0  0  0  0
   -0.3546   -0.9438    0.3530 C   0  0  2  0  0  0  0  0  0  0  0  0
    0.6079    1.3410    0.1508 C   0  0  0  0  0  0  0  0  0  0  0  0
    1.6624    0.2035    0.0175 C   0  0  2  0  0  0  0  0  0  0  0  0
    1.0838   -1.1829    0.4556 C   0  0  0  0  0  0  0  0  0  0  0  0
   -2.8062   -1.6731    0.7723 O   0  0  0  0  0  0  0  0  0  0  0  0
   -1.5729    1.1677    1.3847 C   0  0  0  0  0  0  0  0  0  0  0  0
   -2.2122    2.6626    1.1955 C   0  0  1  0  0  0  0  0  0  0  0  0
   -2.1719    0.3841    2.1345 O   0  0  0  0  0  0  0  0  0  0  0  0
   -3.4144    3.1305    0.1579 C   0  0  0  0  0  0  0  0  0  0  0  0
   -2.8069    2.8643    2.5954 C   0  0  0  0  0  0  0  0  0  0  0  0
   -5.2845    2.5292    0.2322 S   0  0  0  0  0  0  0  0  0  0  0  0
   -5.4555    0.8421   -0.4981 C   0  0  0  0  0  0  0  0  0  0  0  0
   -4.4264    0.3268   -1.4255 C   0  0  0  0  0  0  0  0  0  0  0  0
   -6.2919    0.0550   -0.0629 O   0  0  0  0  0  0  0  0  0  0  0  0
   -3.2681    0.7090   -0.9198 C   0  0  0  0  0  0  0  0  0  0  0  0
   -2.1417    0.0711   -1.3122 C   0  0  0  0  0  0  0  0  0  0  0  0
   -1.9593   -0.9488   -2.2095 C   0  0  0  0  0  0  0  0  0  0  0  0
   -3.1354   -1.4717   -2.6044 C   0  0  0  0  0  0  0  0  0  0  0  0
   -4.3539   -0.8037   -2.2663 C   0  0  0  0  0  0  0  0  0  0  0  0
    3.1123    0.5595    1.0208 S   0  0  0  0  0  0  0  0  0  0  0  0
    2.3747    0.6309    2.6571 C   0  0  0  0  0  0  0  0  0  0  0  0
    1.8102   -0.4684    3.3199 C   0  0  0  0  0  0  0  0  0  0  0  0
    2.5577    1.7962    3.3847 C   0  0  0  0  0  0  0  0  0  0  0  0
    1.3916   -0.4211    4.6379 C   0  0  0  0  0  0  0  0  0  0  0  0
    2.3026    1.7931    4.7570 C   0  0  0  0  0  0  0  0  0  0  0  0
    1.6854    0.7042    5.3741 C   0  0  0  0  0  0  0  0  0  0  0  0
  1  5  1  0
  1  9  1  0
  2  3  2  0
  4  1  1  0
  4  7  1  0
  4  2  1  1
  5  6  1  0
  6  7  1  0
  6 23  1  1
  8  2  1  0
  9 10  1  0
  9 11  2  0
 10 12  1  0
 10 13  1  1
 12 14  1  0
 14 15  1  0
 15 16  1  0
 15 17  2  0
 16 18  2  0
 16 22  1  0
 18 19  1  0
 19 20  2  0
 20 21  1  0
 21 22  2  0
 23 24  1  0
 25 24  2  0
 26 24  1  0
 27 25  1  0
 28 26  2  0
 29 27  2  0
 29 28  1  0
M  END
>  <DRUGBANK_ID>  (1) 
DB13166

>  <COMMON_NAME>  (1) 
Zofenopril

>  <CAS_NUMBER>  (1) 
81872-10-8

>  <UNII>  (1) 
290ZY759PI

>  <SYNONYMS>  (1) 
Zofenil; Zof√©nopril; Zofenopril; Zofenoprilum

$$$$
