BXZ
     RDKit          3D

 19 21  0  0  0  0  0  0  0  0999 V2000
   -2.1940    0.6622    0.0065 C   0  0  0  0  0  0  0  0  0  0  0  0
   -1.0244    1.4281    0.0250 C   0  0  0  0  0  0  0  0  0  0  0  0
    0.2140    0.7675    0.0439 C   0  0  0  0  0  0  0  0  0  0  0  0
    0.2380   -0.6179    0.0183 C   0  0  0  0  0  0  0  0  0  0  0  0
   -0.9020   -1.4144    0.0071 C   0  0  0  0  0  0  0  0  0  0  0  0
   -2.1209   -0.7321    0.0052 C   0  0  0  0  0  0  0  0  0  0  0  0
   -3.2622   -1.4825   -0.0032 O   0  0  0  0  0  0  0  0  0  0  0  0
    1.5335   -1.0340   -0.0082 O   0  0  0  0  0  0  0  0  0  0  0  0
    2.3818    0.0695   -0.0235 N   0  0  0  0  0  0  0  0  0  0  0  0
    1.5844    1.1456    0.0545 C   0  0  0  0  0  0  0  0  0  0  0  0
    2.0961    2.5121    0.0419 C   0  0  0  0  0  0  0  0  0  0  0  0
    1.6732    3.4086    1.0361 C   0  0  0  0  0  0  0  0  0  0  0  0
    1.9595    4.7721    0.9231 C   0  0  0  0  0  0  0  0  0  0  0  0
    2.7511    5.2365   -0.1287 C   0  0  0  0  0  0  0  0  0  0  0  0
    3.2608    4.3402   -1.0666 C   0  0  0  0  0  0  0  0  0  0  0  0
    2.8933    2.9932   -1.0055 C   0  0  0  0  0  0  0  0  0  0  0  0
    3.2969    2.2126   -2.0559 O   0  0  0  0  0  0  0  0  0  0  0  0
    3.0014    6.5752   -0.2508 O   0  0  0  0  0  0  0  0  0  0  0  0
    1.1832    5.9635    2.1788 Br  0  0  0  0  0  0  0  0  0  0  0  0
  1  2  2  0
  1  6  1  0
  2  3  1  0
  3  4  2  0
  3 10  1  0
  4  5  1  0
  4  8  1  0
  5  6  2  0
  6  7  1  0
  8  9  1  0
  9 10  2  0
 10 11  1  0
 11 12  2  0
 11 16  1  0
 12 13  1  0
 13 14  2  0
 13 19  1  0
 14 15  1  0
 14 18  1  0
 15 16  2  0
 16 17  1  0
M  END
>  <DRUGBANK_ID>  (1) 
DB07502

>  <COMMON_NAME>  (1) 
4-bromo-6-(6-hydroxy-1,2-benzisoxazol-3-yl)benzene-1,3-diol

$$$$
