
     RDKit          3D

 18 19  0  0  0  0  0  0  0  0999 V2000
    1.0252   -0.1221    0.0118 C   0  0  0  0  0  0  0  0  0  0  0  0
    1.0596    4.5810   -2.4580 C   0  0  0  0  0  0  0  0  0  0  0  0
    1.3820    4.2719   -1.0011 C   0  0  0  0  0  0  0  0  0  0  0  0
    1.6751    3.5109   -3.3538 C   0  0  0  0  0  0  0  0  0  0  0  0
    0.9404    2.8682   -0.6780 C   0  0  0  0  0  0  0  0  0  0  0  0
    1.1180    2.1097   -3.0573 C   0  0  0  0  0  0  0  0  0  0  0  0
   -2.0106    2.7211   -0.3530 C   0  0  0  0  0  0  0  0  0  0  0  0
   -2.2128    3.0255    2.0247 C   0  0  0  0  0  0  0  0  0  0  0  0
   -0.9791    0.5381   -1.2674 C   0  0  0  0  0  0  0  0  0  0  0  0
   -1.7508    1.3340   -0.1907 C   0  0  0  0  0  0  0  0  0  0  0  0
   -2.0806    3.5636    0.7533 C   0  0  0  0  0  0  0  0  0  0  0  0
    1.3086    1.7058   -1.5783 C   0  0  0  0  0  0  0  0  0  0  0  0
   -2.3618    1.6426    2.1272 C   0  0  0  0  0  0  0  0  0  0  0  0
   -2.1430    0.7721    1.0388 C   0  0  0  0  0  0  0  0  0  0  0  0
   -1.8612    5.4407    0.5995 Br  0  0  0  0  0  0  0  0  0  0  0  0
   -2.9353    0.9813    3.8166 Br  0  0  0  0  0  0  0  0  0  0  0  0
   -2.0965   -0.6205    1.2492 N   0  0  0  0  0  0  0  0  0  0  0  0
    0.5265    0.4851   -1.2271 N   0  0  0  0  0  0  0  0  0  0  0  0
  3  2  1  0
  4  2  1  0
  5  3  1  0
  6  4  1  0
 10  7  2  0
 10  9  1  0
 11  7  1  0
 11  8  2  0
 12  5  1  0
 12  6  1  0
 13  8  1  0
 14 10  1  0
 14 13  2  0
 15 11  1  0
 16 13  1  0
 17 14  1  0
 18  1  1  0
 18  9  1  0
 18 12  1  0
M  END
>  <DRUGBANK_ID>  (1) 
DB09019

>  <COMMON_NAME>  (1) 
Bromhexine

>  <CAS_NUMBER>  (1) 
3572-43-8

>  <UNII>  (1) 
Q1J152VB1P

>  <SYNONYMS>  (1) 
3,5-dibromo-N(alpha)-cyclohexyl-N(alpha)-methyltoluene-alpha-2-diamine; Bromexina; Bromhexina; Bromhexine; Bromhexinum; N-cyclohexyl-N-methyl-(2-amino-3,5-dibrombenzyl)amine

$$$$
