1505
     RDKit          3D

 23 24  0  0  0  0  0  0  0  0999 V2000
    0.8803    0.0885    0.0224 O   0  0  0  0  0  0  0  0  0  0  0  0
    0.7866   -1.9453   -0.9966 O   0  0  0  0  0  0  0  0  0  0  0  0
    0.8065   -1.6808   -5.5160 O   0  0  0  0  0  0  0  0  0  0  0  0
    1.5056    0.8190   -4.0294 O   0  0  0  0  0  0  0  0  0  0  0  0
   -2.1998   -0.7418   -3.7995 N   0  0  0  0  0  0  0  0  0  0  0  0
   -1.3789   -0.6747   -0.8430 C   0  0  0  0  0  0  0  0  0  0  0  0
   -2.1332   -1.8982   -1.4597 C   0  0  0  0  0  0  0  0  0  0  0  0
   -1.8343    0.5742   -1.6673 C   0  0  0  0  0  0  0  0  0  0  0  0
   -1.9374   -1.9210   -2.9573 C   0  0  0  0  0  0  0  0  0  0  0  0
   -1.7608    0.4959   -3.1850 C   0  0  0  0  0  0  0  0  0  0  0  0
   -1.8737   -0.6092    0.5810 C   0  0  0  0  0  0  0  0  0  0  0  0
    0.2214   -0.9371   -0.6366 C   0  0  0  0  0  0  0  0  0  0  0  0
   -1.7507   -0.8290   -5.2617 C   0  0  0  0  0  0  0  0  0  0  0  0
   -1.5028   -1.6624    1.4362 C   0  0  0  0  0  0  0  0  0  0  0  0
   -2.5884    0.4839    1.0629 C   0  0  0  0  0  0  0  0  0  0  0  0
   -0.2459   -0.7583   -5.8858 C   0  0  0  0  0  0  0  0  0  0  0  0
   -1.8205   -1.5992    2.7702 C   0  0  0  0  0  0  0  0  0  0  0  0
   -2.8726    0.5591    2.4056 C   0  0  0  0  0  0  0  0  0  0  0  0
   -2.5094   -0.4889    3.2482 C   0  0  0  0  0  0  0  0  0  0  0  0
    2.3318   -0.0315    0.0949 C   0  0  0  0  0  0  0  0  0  0  0  0
    0.9258   -1.7028   -4.1209 C   0  0  0  0  0  0  0  0  0  0  0  0
    2.8856    0.6232    1.3533 C   0  0  0  0  0  0  0  0  0  0  0  0
    1.3909   -0.4369   -3.3735 C   0  0  0  0  0  0  0  0  0  0  0  0
  1 12  1  0
  1 20  1  0
  2 12  2  0
  3 16  1  0
  3 21  1  0
  4 23  1  0
  5  9  1  0
  5 10  1  0
  5 13  1  0
  6  7  1  0
  6  8  1  0
  6 11  1  0
  6 12  1  0
  7  9  1  0
  8 10  1  0
 11 14  2  0
 11 15  1  0
 13 16  1  0
 14 17  1  0
 15 18  2  0
 17 19  2  0
 18 19  1  0
 20 22  1  0
 21 23  1  0
M  END
>  <DRUGBANK_ID>  (1) 
DB01505

>  <COMMON_NAME>  (1) 
Etoxeridine

>  <CAS_NUMBER>  (1) 
469-82-9

>  <UNII>  (1) 
RHW35E1G7E

>  <SYNONYMS>  (1) 
Etoxeridine

$$$$
