
     RDKit          3D

 23 25  0  0  0  0  0  0  0  0999 V2000
    1.3958   -0.4051   -0.1439 C   0  0  0  0  0  0  0  0  0  0  0  0
   -1.3515    0.0852    3.2587 C   0  0  0  0  0  0  0  0  0  0  0  0
    0.3797   -1.3618   -0.1983 C   0  0  0  0  0  0  0  0  0  0  0  0
    1.0292    0.8745   -0.4617 C   0  0  0  0  0  0  0  0  0  0  0  0
   -2.7597    0.0337    2.8025 C   0  0  0  0  0  0  0  0  0  0  0  0
   -0.9302    1.5760    3.2249 C   0  0  0  0  0  0  0  0  0  0  0  0
   -1.0315   -1.0592   -0.5301 C   0  0  0  0  0  0  0  0  0  0  0  0
   -0.3260    1.1597   -0.8118 C   0  0  0  0  0  0  0  0  0  0  0  0
   -4.0899    3.0778    1.4222 C   0  0  0  0  0  0  0  0  0  0  0  0
   -5.3227    1.0498    1.3946 C   0  0  0  0  0  0  0  0  0  0  0  0
   -4.2227    3.3490    2.8148 C   0  0  0  0  0  0  0  0  0  0  0  0
   -5.5958    1.4406    2.8230 C   0  0  0  0  0  0  0  0  0  0  0  0
   -2.5732    0.5986    1.4356 C   0  0  0  0  0  0  0  0  0  0  0  0
   -0.9103    2.3341    1.8633 C   0  0  0  0  0  0  0  0  0  0  0  0
   -2.3473    3.0829   -0.3905 C   0  0  0  0  0  0  0  0  0  0  0  0
   -2.4343    2.6624   -1.8907 C   0  0  0  0  0  0  0  0  0  0  0  0
   -1.5119    0.2784   -0.8399 C   0  0  0  0  0  0  0  0  0  0  0  0
   -4.4517    1.7853    0.5682 C   0  0  0  0  0  0  0  0  0  0  0  0
   -5.0385    2.5616    3.5009 C   0  0  0  0  0  0  0  0  0  0  0  0
   -3.3120    0.8966   -0.7967 C   0  0  0  0  0  0  0  0  0  0  0  0
   -5.2801    2.9122    5.1727 Cl  0  0  0  0  0  0  0  0  0  0  0  0
   -2.0286    2.0315    1.0139 N   0  0  0  0  0  0  0  0  0  0  0  0
   -3.3900    1.6206   -2.0128 O   0  0  0  0  0  0  0  0  0  0  0  0
  3  1  2  0
  4  1  1  0
  5  2  1  0
  6  2  1  0
  7  3  1  0
  8  4  2  0
 11  9  2  0
 12 10  1  0
 13  5  1  0
 14  6  1  0
 16 15  1  0
 17  7  2  0
 17  8  1  0
 18  9  1  0
 18 10  2  0
 19 11  1  0
 19 12  2  0
 20 17  1  0
 20 18  1  0
 21 19  1  0
 22 13  1  0
 22 14  1  0
 22 15  1  0
 23 16  1  0
 23 20  1  0
M  END
>  <DRUGBANK_ID>  (1) 
DB09002

>  <COMMON_NAME>  (1) 
Cloperastine

>  <CAS_NUMBER>  (1) 
3703-76-2

>  <UNII>  (1) 
69M5L7BXEK

>  <SYNONYMS>  (1) 
Cloperastina; Cloperastine

$$$$
