539
     RDKit          3D

 29 31  0  0  0  0  0  0  0  0999 V2000
    1.1679    0.9374   -0.6744 Cl  0  0  0  0  0  0  0  0  0  0  0  0
    2.3497   -6.4443    5.6236 O   0  0  0  0  0  0  0  0  0  0  0  0
   -0.3136   -4.9355    4.7870 N   0  0  0  0  0  0  0  0  0  0  0  0
    3.6276   -1.6409    2.9071 C   0  0  0  0  0  0  0  0  0  0  0  0
    2.6981   -0.8443    2.2645 C   0  0  0  0  0  0  0  0  0  0  0  0
    3.2682   -2.9055    3.6446 C   0  0  0  0  0  0  0  0  0  0  0  0
    3.0565    0.3056    1.2899 C   0  0  0  0  0  0  0  0  0  0  0  0
    5.0961   -1.3767    2.7683 C   0  0  0  0  0  0  0  0  0  0  0  0
    1.2286   -1.0168    2.4709 C   0  0  0  0  0  0  0  0  0  0  0  0
    2.5048   -3.8811    2.9981 C   0  0  0  0  0  0  0  0  0  0  0  0
    3.8850   -3.2534    4.8671 C   0  0  0  0  0  0  0  0  0  0  0  0
    2.7187    0.1917   -0.2056 C   0  0  0  0  0  0  0  0  0  0  0  0
    2.8620   -5.4649    4.7931 C   0  0  0  0  0  0  0  0  0  0  0  0
    2.3302   -5.1581    3.5402 C   0  0  0  0  0  0  0  0  0  0  0  0
    3.7188   -4.5394    5.4143 C   0  0  0  0  0  0  0  0  0  0  0  0
    5.6556   -0.1090    2.9512 C   0  0  0  0  0  0  0  0  0  0  0  0
    5.9667   -2.4701    2.5804 C   0  0  0  0  0  0  0  0  0  0  0  0
    0.3931   -1.2911    1.3739 C   0  0  0  0  0  0  0  0  0  0  0  0
    0.6330   -0.9880    3.7296 C   0  0  0  0  0  0  0  0  0  0  0  0
   -0.2675   -6.1966    5.5124 C   0  0  0  0  0  0  0  0  0  0  0  0
    1.0578   -7.0261    5.3151 C   0  0  0  0  0  0  0  0  0  0  0  0
    7.0286    0.0849    2.8431 C   0  0  0  0  0  0  0  0  0  0  0  0
    7.3453   -2.2937    2.5988 C   0  0  0  0  0  0  0  0  0  0  0  0
   -0.9883   -1.4183    1.5036 C   0  0  0  0  0  0  0  0  0  0  0  0
   -0.7385   -1.2464    3.8799 C   0  0  0  0  0  0  0  0  0  0  0  0
    7.8752   -1.0126    2.6885 C   0  0  0  0  0  0  0  0  0  0  0  0
   -1.5550   -1.4254    2.7570 C   0  0  0  0  0  0  0  0  0  0  0  0
   -1.6286   -4.3961    4.5004 C   0  0  0  0  0  0  0  0  0  0  0  0
    0.4410   -3.9164    5.5075 C   0  0  0  0  0  0  0  0  0  0  0  0
  1 12  1  0
  2 13  1  0
  2 21  1  0
  3 20  1  0
  3 28  1  0
  3 29  1  0
  4  5  2  0
  4  6  1  0
  4  8  1  0
  5  7  1  0
  5  9  1  0
  6 10  2  0
  6 11  1  0
  7 12  1  0
  8 16  2  0
  8 17  1  0
  9 18  2  0
  9 19  1  0
 10 14  1  0
 11 15  2  0
 13 14  2  0
 13 15  1  0
 16 22  1  0
 17 23  2  0
 18 24  1  0
 19 25  2  0
 20 21  1  0
 22 26  2  0
 23 26  1  0
 24 27  2  0
 25 27  1  0
M  END
>  <DRUGBANK_ID>  (1) 
DB00539

>  <SECONDARY_ACCESSION_NUMBERS>  (1) 
APRD00391

>  <COMMON_NAME>  (1) 
Toremifene

>  <CAS_NUMBER>  (1) 
89778-26-7

>  <UNII>  (1) 
7NFE54O27T

>  <SYNONYMS>  (1) 
Toremifene; Toremifeno; Toremifenum

$$$$
