8IP
     RDKit          3D

 21 23  0  0  0  0  0  0  0  0999 V2000
    2.2882   -0.1387    0.2086 N   0  0  0  0  0  0  0  0  0  0  0  0
    0.9003   -0.1042    0.0480 C   0  0  0  0  0  0  0  0  0  0  0  0
    0.3547    1.1326    0.0051 N   0  0  0  0  0  0  0  0  0  0  0  0
   -0.9911    1.2229   -0.0117 C   0  0  0  0  0  0  0  0  0  0  0  0
   -1.8357    0.1301   -0.0413 C   0  0  0  0  0  0  0  0  0  0  0  0
   -1.2573   -1.1299   -0.0125 C   0  0  0  0  0  0  0  0  0  0  0  0
    0.1262   -1.2940    0.0799 C   0  0  0  0  0  0  0  0  0  0  0  0
    0.7214   -2.5445    0.1531 N   0  0  0  0  0  0  0  0  0  0  0  0
    0.0097   -3.8079    0.2157 C   0  0  0  0  0  0  0  0  0  0  0  0
    0.3428   -4.6996   -0.9552 C   0  0  0  0  0  0  0  0  0  0  0  0
   -0.1243   -6.0210   -0.9568 C   0  0  0  0  0  0  0  0  0  0  0  0
    0.1929   -6.8845   -2.0039 C   0  0  0  0  0  0  0  0  0  0  0  0
    0.9408   -6.4240   -3.0866 C   0  0  0  0  0  0  0  0  0  0  0  0
    1.4048   -5.1034   -3.1202 C   0  0  0  0  0  0  0  0  0  0  0  0
    1.0865   -4.2521   -2.0537 C   0  0  0  0  0  0  0  0  0  0  0  0
    2.2446   -4.6120   -4.2075 C   0  0  0  0  0  0  0  0  0  0  0  0
    3.5491   -4.1660   -3.9592 C   0  0  0  0  0  0  0  0  0  0  0  0
    4.3282   -3.6753   -4.9993 C   0  0  0  0  0  0  0  0  0  0  0  0
    3.7774   -3.6478   -6.2690 C   0  0  0  0  0  0  0  0  0  0  0  0
    2.5265   -4.0685   -6.5574 N   0  0  0  0  0  0  0  0  0  0  0  0
    1.7908   -4.5361   -5.5217 C   0  0  0  0  0  0  0  0  0  0  0  0
  1  2  1  0
  2  3  2  0
  2  7  1  0
  3  4  1  0
  4  5  2  0
  5  6  1  0
  6  7  2  0
  7  8  1  0
  8  9  1  0
  9 10  1  0
 10 15  1  0
 10 11  2  0
 11 12  1  0
 12 13  2  0
 13 14  1  0
 14 16  1  0
 14 15  2  0
 16 21  1  0
 16 17  2  0
 17 18  1  0
 18 19  2  0
 19 20  1  0
 20 21  2  0
M  END
>  <DRUGBANK_ID>  (1) 
DB07284

>  <COMMON_NAME>  (1) 
N~3~-(3-PYRIDIN-3-YLBENZYL)PYRIDINE-2,3-DIAMINE

$$$$
