
     RDKit          3D

 28 30  0  0  0  0  0  0  0  0999 V2000
    1.4315    0.1571    0.5756 C   0  0  0  0  0  0  0  0  0  0  0  0
    1.6019   -1.3998    0.1737 O   0  0  0  0  0  0  0  0  0  0  0  0
    1.1508   -2.0804   -1.3047 C   0  0  0  0  0  0  0  0  0  0  0  0
    2.4621   -1.7514   -2.0595 C   0  0  0  0  0  0  0  0  0  0  0  0
    2.5508   -1.8863   -3.6034 C   0  0  0  0  0  0  0  0  0  0  0  0
    1.2683   -2.2786   -4.6417 C   0  0  0  0  0  0  0  0  0  0  0  0
   -0.3655   -2.5786   -4.0491 C   0  0  0  0  0  0  0  0  0  0  0  0
   -0.6108   -2.4389   -2.2239 C   0  0  0  0  0  0  0  0  0  0  0  0
   -1.9732   -2.2863   -2.0259 O   0  0  0  0  0  0  0  0  0  0  0  0
   -2.3790   -1.5585   -0.8855 C   0  0  0  0  0  0  0  0  0  0  0  0
   -1.7841   -2.2536    0.2908 C   0  0  0  0  0  0  0  0  0  0  0  0
   -0.3797   -2.1074    0.1440 N   0  0  0  0  0  0  0  0  0  0  0  0
   -0.1157   -0.6341   -1.0410 C   0  0  0  0  0  0  0  0  0  0  0  0
    0.4005   -1.0136   -2.7843 C   0  0  0  0  0  0  0  0  0  0  0  0
    0.9636   -3.0269   -2.8225 O   0  0  0  0  0  0  0  0  0  0  0  0
    0.1745   -4.2499   -1.7054 C   0  0  0  0  0  0  0  0  0  0  0  0
    0.3417   -3.7437   -0.2024 C   0  0  0  0  0  0  0  0  0  0  0  0
   -1.0955   -3.5763   -4.6672 O   0  0  0  0  0  0  0  0  0  0  0  0
   -0.3955   -4.1598   -5.7690 C   0  0  0  0  0  0  0  0  0  0  0  0
    3.9461   -1.9468   -4.0025 C   0  0  0  0  0  0  0  0  0  0  0  0
    4.2449   -2.3817   -5.1029 O   0  0  0  0  0  0  0  0  0  0  0  0
    4.9906   -1.5081   -3.0312 C   0  0  0  0  0  0  0  0  0  0  0  0
    5.1812   -2.1521   -1.7870 C   0  0  0  0  0  0  0  0  0  0  0  0
    6.1918   -1.7466   -0.9259 C   0  0  0  0  0  0  0  0  0  0  0  0
    7.0529   -0.7419   -1.3390 C   0  0  0  0  0  0  0  0  0  0  0  0
    6.8818   -0.1281   -2.5825 C   0  0  0  0  0  0  0  0  0  0  0  0
    5.7802   -0.4264   -3.3799 C   0  0  0  0  0  0  0  0  0  0  0  0
    8.3088   -0.2111   -0.2947 Cl  0  0  0  0  0  0  0  0  0  0  0  0
  1  2  1  0
  2  3  1  0
  3  4  2  0
  3  8  1  0
  4  5  1  0
  5  6  2  0
  5 20  1  0
  6  7  1  0
  7  8  2  0
  7 18  1  0
  8  9  1  0
  9 10  1  0
 10 11  1  0
 11 12  1  0
 12 13  1  0
 12 17  1  0
 13 14  1  0
 14 15  1  0
 15 16  1  0
 16 17  1  0
 18 19  1  0
 20 21  2  0
 20 22  1  0
 22 23  2  0
 22 27  1  0
 23 24  1  0
 24 25  2  0
 25 26  1  0
 25 28  1  0
 26 27  2  0
M  END
>  <DRUGBANK_ID>  (1) 
DB13558

>  <COMMON_NAME>  (1) 
Morclofone

>  <CAS_NUMBER>  (1) 
31848-01-8

>  <UNII>  (1) 
VY62TIB872

>  <SYNONYMS>  (1) 
Morclofone

$$$$
