
     RDKit          3D

 25 24  0  0  1  0  0  0  0  0999 V2000
  -13.3749    2.1846   27.8025 C   0  0  0  0  0  0  0  0  0  0  0  0
  -12.9313   11.1611   10.1956 C   0  0  0  0  0  0  0  0  0  0  0  0
  -14.5324    2.7839   27.0184 C   0  0  0  0  0  0  0  0  0  0  0  0
  -14.3135    4.2770   26.7578 C   0  0  0  0  0  0  0  0  0  0  0  0
  -13.0474    4.5389   25.9464 C   0  0  0  0  0  0  0  0  0  0  0  0
  -13.0541    3.7597   24.6399 C   0  0  0  0  0  0  0  0  0  0  0  0
  -14.1480    4.2524   23.7383 C   0  0  0  0  0  0  0  0  0  0  0  0
  -13.9180    4.8152   22.5501 C   0  0  0  0  0  0  0  0  0  0  0  0
  -12.5492    4.9693   22.0087 C   0  0  0  0  0  0  0  0  0  0  0  0
  -12.4218    4.2754   20.7008 C   0  0  0  0  0  0  0  0  0  0  0  0
  -12.0092    4.9125   19.6051 C   0  0  0  0  0  0  0  0  0  0  0  0
  -11.7027    6.3639   19.6226 C   0  0  0  0  0  0  0  0  0  0  0  0
  -10.3142    6.6246   19.1691 C   0  0  0  0  0  0  0  0  0  0  0  0
  -10.0589    7.4333   18.1415 C   0  0  0  0  0  0  0  0  0  0  0  0
  -11.1493    8.0795   17.3678 C   0  0  0  0  0  0  0  0  0  0  0  0
  -10.9707    9.5465   17.3616 C   0  0  0  0  0  0  0  0  0  0  0  0
  -10.8230   10.2328   16.2249 C   0  0  0  0  0  0  0  0  0  0  0  0
  -10.8831    9.5919   14.8781 C   0  0  0  0  0  0  0  0  0  0  0  0
  -12.0847   10.1243   14.1259 C   0  0  0  0  0  0  0  0  0  0  0  0
  -11.9564   11.6322   13.8750 C   0  0  0  0  0  0  0  0  0  0  0  0
  -10.6907   11.9371   13.0780 C   0  0  0  0  0  0  0  0  0  0  0  0
   -8.9702   10.9172   11.4724 F   0  0  0  0  0  0  0  0  0  0  0  0
  -10.5050   11.9460   10.3358 O   0  0  0  0  0  0  0  0  0  0  0  0
  -12.3402   10.9172   11.4724 O   0  0  0  0  0  0  0  0  0  0  0  0
  -10.6102   10.9172   11.4724 P   0  0  0  0  0  0  0  0  0  0  0  0
  3  1  1  0
  4  3  1  0
  5  4  1  0
  6  5  1  0
  7  6  1  0
  8  7  2  0
  9  8  1  0
 10  9  1  0
 11 10  2  0
 12 11  1  0
 13 12  1  0
 14 13  2  0
 15 14  1  0
 16 15  1  0
 17 16  2  0
 18 17  1  0
 19 18  1  0
 20 19  1  0
 21 20  1  0
 24  2  1  0
 25 23  2  0
 25 24  1  0
 25 22  1  0
 25 21  1  0
M  END
>  <DRUGBANK_ID>  (1) 
DB02465

>  <SECONDARY_ACCESSION_NUMBERS>  (1) 
EXPT02119

>  <COMMON_NAME>  (1) 
Methoxy arachidonyl fluorophosphonate

>  <CAS_NUMBER>  (1) 
180509-15-3

>  <SYNONYMS>  (1) 
MAFP; Methoxy arachidonyl fluorophosphonate; Methyl arachidonylfluorophosphonate

$$$$
