
     RDKit          3D

 28 30  0  0  0  0  0  0  0  0999 V2000
    1.1229    7.2570    0.6120 N   0  0  0  0  0  0  0  0  0  0  0  0
    1.0168    5.8839    0.6473 C   0  0  0  0  0  0  0  0  0  0  0  0
    2.4185    7.9151    0.8070 C   0  0  2  0  0  0  0  0  0  0  0  0
    0.0304    8.1127    0.6273 N   0  0  0  0  0  0  0  0  0  0  0  0
    0.0456    5.1931   -0.3646 C   0  0  1  0  0  0  0  0  0  0  0  0
    2.5853    8.5664    2.1858 C   0  0  0  0  0  0  0  0  0  0  0  0
    0.5032    3.7868   -0.5433 N   0  0  0  0  0  0  0  0  0  0  0  0
    2.5981    2.4481   -0.5801 C   0  0  0  0  0  0  0  0  0  0  0  0
    1.8290    3.6249   -1.2579 C   0  0  2  0  0  0  0  0  0  0  0  0
    1.7588    5.2089    1.3696 O   0  0  0  0  0  0  0  0  0  0  0  0
    3.4843    8.3303    2.9768 O   0  0  0  0  0  0  0  0  0  0  0  0
    2.1117    1.4974   -0.0055 O   0  0  0  0  0  0  0  0  0  0  0  0
    2.7021    4.9096   -1.3300 C   0  0  0  0  0  0  0  0  0  0  0  0
    1.6900    9.5389    2.4693 O   0  0  0  0  0  0  0  0  0  0  0  0
    3.9420    2.5373   -0.6930 O   0  0  0  0  0  0  0  0  0  0  0  0
    2.5872    8.9011   -0.3638 C   0  0  0  0  0  0  0  0  0  0  0  0
    3.9855    4.9337   -2.1329 C   0  0  0  0  0  0  0  0  0  0  0  0
   -1.2112    7.5914    1.1635 C   0  0  0  0  0  0  0  0  0  0  0  0
    0.0259    9.0169   -0.5089 C   0  0  0  0  0  0  0  0  0  0  0  0
    3.6833    4.5648   -3.5374 C   0  0  0  0  0  0  0  0  0  0  0  0
   -1.3475    5.2291    0.2495 C   0  0  0  0  0  0  0  0  0  0  0  0
    1.3525    9.8116   -0.5189 C   0  0  0  0  0  0  0  0  0  0  0  0
   -1.9246    6.6463    0.2051 C   0  0  0  0  0  0  0  0  0  0  0  0
    3.8114    3.2293   -3.9273 C   0  0  0  0  0  0  0  0  0  0  0  0
    3.1342    5.5135   -4.4011 C   0  0  0  0  0  0  0  0  0  0  0  0
    3.4394    2.8481   -5.2027 C   0  0  0  0  0  0  0  0  0  0  0  0
    2.7236    5.1194   -5.6643 C   0  0  0  0  0  0  0  0  0  0  0  0
    2.9173    3.7994   -6.0766 C   0  0  0  0  0  0  0  0  0  0  0  0
  2  1  1  0
  3  1  1  0
  3  6  1  1
  4  1  1  0
  5  2  1  0
  5  7  1  1
  9  7  1  0
  9  8  1  0
 10  2  2  0
 11  6  2  0
 12  8  2  0
  9 13  1  1
 14  6  1  0
 15  8  1  0
 16  3  1  0
 16 22  1  0
 17 13  1  0
 18  4  1  0
 19  4  1  0
 20 17  1  0
 21  5  1  0
 22 19  1  0
 23 18  1  0
 23 21  1  0
 24 20  2  0
 25 20  1  0
 26 24  1  0
 26 28  2  0
 27 25  2  0
 28 27  1  0
M  END
>  <DRUGBANK_ID>  (1) 
DB15565

>  <COMMON_NAME>  (1) 
Cilazaprilat

>  <CAS_NUMBER>  (1) 
90139-06-3

>  <UNII>  (1) 
WBL76FH528

>  <SYNONYMS>  (1) 
Cilazaprilat; Cilazaprilate; Cilazaprilatum

$$$$
