
     RDKit          3D

 25 28  0  0  0  0  0  0  0  0999 V2000
    1.0539   -0.0493    0.1266 O   0  0  0  0  0  0  0  0  0  0  0  0
    0.3301    0.6954    1.0105 C   0  0  0  0  0  0  0  0  0  0  0  0
   -2.8132    0.2596    2.8326 O   0  0  0  0  0  0  0  0  0  0  0  0
   -1.6547    0.8693    2.4083 C   0  0  0  0  0  0  0  0  0  0  0  0
   -0.1242    2.7137    2.1937 C   0  0  0  0  0  0  0  0  0  0  0  0
    0.7074    1.9818    1.3475 C   0  0  0  0  0  0  0  0  0  0  0  0
   -1.2900    2.1610    2.7769 C   0  0  0  0  0  0  0  0  0  0  0  0
   -3.5006    2.3064    3.9967 C   0  0  0  0  0  0  0  0  0  0  0  0
   -3.7340    0.9930    3.5570 C   0  0  0  0  0  0  0  0  0  0  0  0
   -4.4347    2.9196    4.8660 C   0  0  0  0  0  0  0  0  0  0  0  0
   -0.8377    0.1386    1.5321 C   0  0  0  0  0  0  0  0  0  0  0  0
   -4.8474    0.2838    4.0403 C   0  0  0  0  0  0  0  0  0  0  0  0
   -5.5118    2.1886    5.3836 C   0  0  0  0  0  0  0  0  0  0  0  0
   -5.7096    0.8750    4.9663 C   0  0  0  0  0  0  0  0  0  0  0  0
   -6.6863    0.0955    5.5223 O   0  0  0  0  0  0  0  0  0  0  0  0
   -2.1218    2.9234    3.8098 C   0  0  0  0  0  0  0  0  0  0  0  0
   -1.3165    3.1209    5.1312 C   0  0  0  0  0  0  0  0  0  0  0  0
   -0.1219    3.8844    5.0413 C   0  0  0  0  0  0  0  0  0  0  0  0
    0.8381    3.8840    6.0473 C   0  0  0  0  0  0  0  0  0  0  0  0
    0.5102    3.3727    7.2824 C   0  0  0  0  0  0  0  0  0  0  0  0
   -0.7486    2.8313    7.4860 C   0  0  0  0  0  0  0  0  0  0  0  0
   -1.6105    2.5717    6.4078 C   0  0  0  0  0  0  0  0  0  0  0  0
   -2.6302    1.5318    6.7249 C   0  0  0  0  0  0  0  0  0  0  0  0
   -2.7885    0.5104    6.0724 O   0  0  0  0  0  0  0  0  0  0  0  0
   -3.2639    1.7308    7.9004 O   0  0  0  0  0  0  0  0  0  0  0  0
  2  1  1  0
  4  3  1  0
  4 11  2  0
  5  6  1  0
  6  2  2  0
  7  5  2  0
  7  4  1  0
  8  9  2  0
  8 10  1  0
  9  3  1  0
  9 12  1  0
 10 13  2  0
 11  2  1  0
 12 14  2  0
 13 14  1  0
 14 15  1  0
 16  8  1  0
 16  7  1  0
 16 17  1  0
 17 18  2  0
 18 19  1  0
 19 20  2  0
 20 21  1  0
 21 22  2  0
 22 17  1  0
 22 23  1  0
 23 25  1  0
 23 24  2  0
M  END
>  <DRUGBANK_ID>  (1) 
DB07764

>  <COMMON_NAME>  (1) 
Fluorescin

>  <CAS_NUMBER>  (1) 
518-44-5

>  <UNII>  (1) 
ES5WQ31089

>  <SYNONYMS>  (1) 
2-(3,6-dihydroxyxanthen-9-yl)benzoic acid

$$$$
