
     RDKit          3D

  8  7  0  0  0  0  0  0  0  0999 V2000
    1.0609    0.0057    0.0740 O   0  0  0  0  0  0  0  0  0  0  0  0
    3.9723   -1.0839   -1.4142 N   0  0  0  0  0  0  0  0  0  0  0  0
    4.6912   -2.9458    0.7169 N   0  0  0  0  0  0  0  0  0  0  0  0
    3.0832   -1.8853    2.2425 C   0  0  0  0  0  0  0  0  0  0  0  0
    3.9543   -1.6972    1.0039 C   0  0  2  0  0  0  0  0  0  0  0  0
    3.1044   -1.2791   -0.2224 C   0  0  1  0  0  0  0  0  0  0  0  0
    2.2874   -0.0130    0.0551 C   0  0  0  0  0  0  0  0  0  0  0  0
    3.0260    1.0972    0.2845 O   0  0  0  0  0  0  0  0  0  0  0  0
  5  4  1  1
  5  3  1  0
  6  2  1  6
  6  5  1  0
  6  7  1  0
  7  1  2  0
  7  8  1  0
M  END
>  <DRUGBANK_ID>  (1) 
DB04804

>  <COMMON_NAME>  (1) 
(2S)-2,3-Diaminobutanoic acid

>  <CAS_NUMBER>  (1) 
25023-80-7

>  <UNII>  (1) 
0CA9BP8DFV

>  <SYNONYMS>  (1) 
(2S,3R)-2,3-Diaminobutanoic acid; L-threo-2,3-diamino-butyric acid; L-Threo-alpha,beta-diaminobutyric acid

$$$$
