
     RDKit          3D

 23 25  0  0  1  0  0  0  0  0999 V2000
    1.0819   -0.1373    0.0009 C   0  0  0  0  0  0  0  0  0  0  0  0
    2.7370    4.1821    0.0626 C   0  0  0  0  0  0  0  0  0  0  0  0
    2.6009    3.0010   -4.1425 C   0  0  0  0  0  0  0  0  0  0  0  0
    0.5971   -0.1873   -1.4529 C   0  0  2  0  0  0  0  0  0  0  0  0
    3.5050    3.9348   -2.4660 C   0  0  0  0  0  0  0  0  0  0  0  0
    1.6283   -0.8405   -2.3989 C   0  0  2  0  0  0  0  0  0  0  0  0
    2.3263    0.3233   -3.0202 C   0  0  2  0  0  0  0  0  0  0  0  0
    4.3333    4.6081   -1.5606 C   0  0  0  0  0  0  0  0  0  0  0  0
    2.3425    3.3644   -1.9659 C   0  0  0  0  0  0  0  0  0  0  0  0
    1.2122    1.3646   -3.0502 C   0  0  2  0  0  0  0  0  0  0  0  0
    5.5500    5.1202   -1.9470 N   0  0  0  0  0  0  0  0  0  0  0  0
    0.5149   -3.0428   -1.1729 N   0  0  0  0  0  0  0  0  0  0  0  0
    3.9167    4.7462   -0.2847 N   0  0  0  0  0  0  0  0  0  0  0  0
    1.9037    3.4287   -0.6949 N   0  0  0  0  0  0  0  0  0  0  0  0
    3.6559    3.7003   -3.8140 N   0  0  0  0  0  0  0  0  0  0  0  0
    1.8374    2.6725   -3.0390 N   0  0  0  0  0  0  0  0  0  0  0  0
    1.0251   -1.6209   -3.4471 O   0  0  0  0  0  0  0  0  0  0  0  0
    2.8395    0.0186   -4.3163 O   0  0  0  0  0  0  0  0  0  0  0  0
    2.6028   -2.6958    0.1390 O   0  0  0  0  0  0  0  0  0  0  0  0
    0.5554   -3.7408    1.1893 O   0  0  0  0  0  0  0  0  0  0  0  0
    0.6276   -1.2882    0.7148 O   0  0  0  0  0  0  0  0  0  0  0  0
    0.3537    1.1473   -1.9356 O   0  0  0  0  0  0  0  0  0  0  0  0
    1.1793   -2.7664    0.3207 S   0  0  0  0  0  0  0  0  0  0  0  0
  4  1  1  1
  6  4  1  0
  6 17  1  6
  7  6  1  0
  7 18  1  6
  8  5  2  0
  9  5  1  0
 10  7  1  0
 10 16  1  1
 11  8  1  0
 13  2  2  0
 13  8  1  0
 14  2  1  0
 14  9  2  0
 15  3  2  0
 15  5  1  0
 16  3  1  0
 16  9  1  0
 21  1  1  0
 22  4  1  0
 22 10  1  0
 23 12  1  0
 23 19  2  0
 23 20  2  0
 23 21  1  0
M  END
>  <DRUGBANK_ID>  (1) 
DB02916

>  <SECONDARY_ACCESSION_NUMBERS>  (1) 
EXPT02043

>  <COMMON_NAME>  (1) 
[(2r,3s,4r,5r)-5-(6-Amino-9h-Purin-9-Yl)-3,4-Dihydroxytetrahydro-2-Furanyl]Methyl Sulfamate

$$$$
