
     RDKit          3D

 23 26  0  0  0  0  0  0  0  0999 V2000
  -10.7821   -5.1468    7.9792 C   0  0  0  0  0  0  0  0  0  0  0  0
  -11.4580   -4.5338    6.9250 C   0  0  0  0  0  0  0  0  0  0  0  0
  -10.7449   -4.0155    5.8367 C   0  0  0  0  0  0  0  0  0  0  0  0
   -9.3438   -4.0990    5.7876 C   0  0  0  0  0  0  0  0  0  0  0  0
   -8.6817   -4.6897    6.8811 C   0  0  0  0  0  0  0  0  0  0  0  0
   -9.3930   -5.2289    7.9561 C   0  0  0  0  0  0  0  0  0  0  0  0
   -8.5859   -3.7036    4.5919 C   0  0  0  0  0  0  0  0  0  0  0  0
   -8.6541   -2.4150    4.1744 N   0  0  0  0  0  0  0  0  0  0  0  0
   -7.9478   -2.0323    3.0746 C   0  0  0  0  0  0  0  0  0  0  0  0
   -7.1995   -3.0294    2.3973 C   0  0  0  0  0  0  0  0  0  0  0  0
   -7.2525   -4.3133    2.9172 C   0  0  0  0  0  0  0  0  0  0  0  0
   -7.8973   -4.7085    4.0140 N   0  0  0  0  0  0  0  0  0  0  0  0
   -6.5287   -5.1474    2.1101 N   0  0  0  0  0  0  0  0  0  0  0  0
   -6.0304   -4.4562    1.0457 C   0  0  0  0  0  0  0  0  0  0  0  0
   -6.3507   -3.1345    1.2488 C   0  0  0  0  0  0  0  0  0  0  0  0
   -8.0567   -0.7004    2.7053 N   0  0  0  0  0  0  0  0  0  0  0  0
   -7.4061   -0.1391    1.5396 C   0  0  1  0  0  0  0  0  0  0  0  0
   -8.0345   -0.7132    0.2555 C   0  0  0  0  0  0  0  0  0  0  0  0
   -7.2420   -0.2571   -0.9591 C   0  0  0  0  0  0  0  0  0  0  0  0
   -7.3939    1.2506   -1.0728 C   0  0  1  0  0  0  0  0  0  0  0  0
   -6.8771    1.9427    0.1943 C   0  0  0  0  0  0  0  0  0  0  0  0
   -7.5282    1.3942    1.4768 C   0  0  0  0  0  0  0  0  0  0  0  0
   -6.7035    1.7211   -2.2194 O   0  0  0  0  0  0  0  0  0  0  0  0
  1  2  2  0
  1  6  1  0
  2  3  1  0
  3  4  2  0
  4  5  1  0
  4  7  1  0
  5  6  2  0
  7  8  2  0
  7 12  1  0
  8  9  1  0
  9 10  2  0
  9 16  1  0
 10 11  1  0
 10 15  1  0
 11 12  2  0
 11 13  1  0
 13 14  1  0
 14 15  2  0
 17 18  1  0
 17 22  1  0
 17 16  1  1
 18 19  1  0
 19 20  1  0
 20 21  1  0
 20 23  1  6
 21 22  1  0
M  END
>  <DRUGBANK_ID>  (1) 
DB12446

>  <COMMON_NAME>  (1) 
Derenofylline

>  <CAS_NUMBER>  (1) 
251945-92-3

>  <UNII>  (1) 
O1Q96UZ63W

>  <SYNONYMS>  (1) 
Derenofylline

$$$$
