175
     RDKit          3D

 30 31  0  0  1  0  0  0  0  0999 V2000
    1.1446    0.6768   -0.8091 O   0  0  0  0  0  0  0  0  0  0  0  0
    5.4075    0.8567    1.0470 O   0  0  0  0  0  0  0  0  0  0  0  0
    1.3577    2.3108   -0.1760 O   0  0  0  0  0  0  0  0  0  0  0  0
   -1.0645    1.6349   -2.0192 O   0  0  0  0  0  0  0  0  0  0  0  0
    4.4099    2.7402   -3.4070 O   0  0  0  0  0  0  0  0  0  0  0  0
    2.9780   -0.6694   -5.8459 O   0  0  0  0  0  0  0  0  0  0  0  0
    2.8303   -1.3866   -3.7342 O   0  0  0  0  0  0  0  0  0  0  0  0
    2.9928    3.1604    0.4148 C   0  0  1  0  0  0  0  0  0  0  0  0
    2.0401    4.5670   -0.5027 C   0  0  2  0  0  0  0  0  0  0  0  0
    2.9414    1.2474   -0.1185 C   0  0  2  0  0  0  0  0  0  0  0  0
    1.5823    5.7425    0.5690 C   0  0  2  0  0  0  0  0  0  0  0  0
    0.9947    4.2160   -1.7418 C   0  0  0  0  0  0  0  0  0  0  0  0
    4.2293    3.9122    0.7371 C   0  0  0  0  0  0  0  0  0  0  0  0
    4.4220    1.5398   -0.8734 C   0  0  0  0  0  0  0  0  0  0  0  0
    5.5090    1.8600    0.0762 C   0  0  1  0  0  0  0  0  0  0  0  0
    2.9086    6.0544    1.2188 C   0  0  0  0  0  0  0  0  0  0  0  0
    1.3072    3.1234   -2.6947 C   0  0  0  0  0  0  0  0  0  0  0  0
    5.3885    3.2570    0.6332 C   0  0  0  0  0  0  0  0  0  0  0  0
    4.0227    5.2788    1.2649 C   0  0  0  0  0  0  0  0  0  0  0  0
    0.5319    5.7070    1.8245 C   0  0  0  0  0  0  0  0  0  0  0  0
    2.0963    2.2954   -1.7861 C   0  0  2  0  0  0  0  0  0  0  0  0
    2.6930    1.0330   -2.4833 C   0  0  0  0  0  0  0  0  0  0  0  0
   -0.3101    1.6722   -0.9699 C   0  0  0  0  0  0  0  0  0  0  0  0
    3.4911    1.6381   -3.6210 C   0  0  2  0  0  0  0  0  0  0  0  0
   -0.6353    3.1781    0.1376 C   0  0  2  0  0  0  0  0  0  0  0  0
    4.2639    0.5196   -4.2273 C   0  0  0  0  0  0  0  0  0  0  0  0
    0.1709    3.2880    1.4078 C   0  0  0  0  0  0  0  0  0  0  0  0
   -2.0643    3.3244    0.3919 C   0  0  0  0  0  0  0  0  0  0  0  0
    0.0202    2.1944    2.3256 C   0  0  0  0  0  0  0  0  0  0  0  0
    3.3150   -0.6153   -4.5500 C   0  0  0  0  0  0  0  0  0  0  0  0
  1 23  1  0
  4 23  2  0
  6 30  1  0
  7 30  2  0
  8  9  1  0
  8 10  1  0
  8 13  1  6
  9 11  1  0
  9 12  1  1
 10 14  1  0
 10  1  1  6
 11 16  1  0
 11 20  1  1
 12 17  1  0
 13 18  2  0
 13 19  1  0
 14 15  1  0
 15  2  1  1
 15 18  1  0
 16 19  2  0
 17 21  1  0
 21  3  1  1
 21 22  1  0
 22 24  1  0
 24  5  1  1
 24 26  1  0
 25 28  1  1
 25 27  1  0
 25 23  1  0
 26 30  1  0
 27 29  1  0
M  END
>  <DRUGBANK_ID>  (1) 
DB00175

>  <SECONDARY_ACCESSION_NUMBERS>  (1) 
APRD00328

>  <COMMON_NAME>  (1) 
Pravastatin

>  <CAS_NUMBER>  (1) 
81093-37-0

>  <UNII>  (1) 
KXO2KT9N0G

>  <SYNONYMS>  (1) 
(+)-(3R,5R)-3,5-dihydroxy-7-[(1S,2S,6S,8S,8aR)-6-hydroxy-2-methyl-8-{[(S)-2-methylbutyryl]oxy}-1,2,6,7,8,8a-hexahydro-1-naphthyl]heptanoic acid; Pravastatin; Pravastatin acid; Pravastatina; Pravastatine; Pravastatinum

$$$$
