RMC
     RDKit          3D

 27 29  0  0  0  0  0  0  0  0999 V2000
    0.9279   -0.0521   -0.0873 O   0  0  0  0  0  0  0  0  0  0  0  0
    0.4715   -1.3385   -0.5172 C   0  0  0  0  0  0  0  0  0  0  0  0
    1.0177   -1.7232   -1.9194 C   0  0  1  0  0  0  0  0  0  0  0  0
    2.5626   -1.7548   -1.9069 C   0  0  0  0  0  0  0  0  0  0  0  0
    3.1494   -2.7414   -0.9007 C   0  0  0  0  0  0  0  0  0  0  0  0
    0.5050   -3.0233   -2.3707 N   0  0  0  0  0  0  0  0  0  0  0  0
   -0.3125   -3.1171   -3.4793 C   0  0  0  0  0  0  0  0  0  0  0  0
   -1.3693   -3.9600   -3.4153 N   0  0  0  0  0  0  0  0  0  0  0  0
   -2.0789   -4.0022   -4.5587 C   0  0  0  0  0  0  0  0  0  0  0  0
   -3.2408   -4.6883   -4.8484 N   0  0  0  0  0  0  0  0  0  0  0  0
   -4.0299   -5.5382   -3.9734 C   0  0  0  0  0  0  0  0  0  0  0  0
   -3.2317   -6.7548   -3.5280 C   0  0  0  0  0  0  0  0  0  0  0  0
   -4.6005   -4.7465   -2.8048 C   0  0  0  0  0  0  0  0  0  0  0  0
   -3.5823   -4.4460   -6.1487 C   0  0  0  0  0  0  0  0  0  0  0  0
   -1.7812   -3.3468   -5.7468 C   0  0  0  0  0  0  0  0  0  0  0  0
   -2.7123   -3.6491   -6.7211 N   0  0  0  0  0  0  0  0  0  0  0  0
    0.0594   -2.4338   -4.5812 N   0  0  0  0  0  0  0  0  0  0  0  0
   -0.6214   -2.5459   -5.7636 C   0  0  0  0  0  0  0  0  0  0  0  0
   -0.1311   -1.8970   -6.8876 N   0  0  0  0  0  0  0  0  0  0  0  0
   -0.8641   -1.8452   -8.1525 C   0  0  0  0  0  0  0  0  0  0  0  0
   -0.8016    0.7141   -8.0222 C   0  0  0  0  0  0  0  0  0  0  0  0
   -1.1877    1.9716   -8.4590 C   0  0  0  0  0  0  0  0  0  0  0  0
   -2.2230    2.0854   -9.3687 C   0  0  0  0  0  0  0  0  0  0  0  0
   -2.8632    0.9382   -9.8373 C   0  0  0  0  0  0  0  0  0  0  0  0
   -2.4409   -0.3299   -9.4231 C   0  0  0  0  0  0  0  0  0  0  0  0
   -1.3837   -0.4628   -8.5106 C   0  0  0  0  0  0  0  0  0  0  0  0
    1.1672   -1.2580   -6.7675 C   0  0  0  0  0  0  0  0  0  0  0  0
  1  2  1  0
  3  2  1  1
  3  4  1  0
  3  6  1  0
  4  5  1  0
  6  7  1  0
  7  8  2  0
  7 17  1  0
  8  9  1  0
  9 10  1  0
  9 15  2  0
 10 11  1  0
 10 14  1  0
 11 12  1  0
 11 13  1  0
 14 16  2  0
 15 16  1  0
 15 18  1  0
 17 18  2  0
 18 19  1  0
 19 20  1  0
 19 27  1  0
 20 26  1  0
 21 22  2  0
 21 26  1  0
 22 23  1  0
 23 24  2  0
 24 25  1  0
 25 26  2  0
M  END
>  <DRUGBANK_ID>  (1) 
DB04776

>  <COMMON_NAME>  (1) 
(2R)-2-({6-[benzyl(methyl)amino]-9-isopropyl-9H-purin-2-yl}amino)butan-1-ol

>  <SYNONYMS>  (1) 
(2R)-2-({6-[Benzyl(methyl)amino]-9-isopropyl-9H-purin-2-yl}amino)-1-butanol; Aftin-4

$$$$
