
     RDKit          3D

 39 41  0  0  1  0  0  0  0  0999 V2000
   -1.2483    0.2239    0.2698 C   0  0  0  0  0  0  0  0  0  0  0  0
   -0.6005    0.0116   -0.9795 N   0  0  0  0  0  0  0  0  0  0  0  0
    0.2783   -1.1095   -1.2115 C   0  0  0  0  0  0  0  0  0  0  0  0
    1.1138   -1.4811   -0.1659 C   0  0  0  0  0  0  0  0  0  0  0  0
    2.0152   -2.5347   -0.3143 C   0  0  0  0  0  0  0  0  0  0  0  0
    2.1444   -3.2106   -1.5257 C   0  0  0  0  0  0  0  0  0  0  0  0
    1.3748   -2.8329   -2.6098 C   0  0  0  0  0  0  0  0  0  0  0  0
    0.4298   -1.8168   -2.4462 C   0  0  0  0  0  0  0  0  0  0  0  0
   -0.3262   -1.4654   -3.6559 C   0  0  0  0  0  0  0  0  0  0  0  0
   -0.5741   -0.2403   -3.9044 N   0  0  0  0  0  0  0  0  0  0  0  0
    0.0447    0.8265   -3.0660 C   0  0  1  0  0  0  0  0  0  0  0  0
   -0.7751    1.0296   -1.8728 C   0  0  0  0  0  0  0  0  0  0  0  0
   -1.4777    2.0568   -1.7105 O   0  0  0  0  0  0  0  0  0  0  0  0
    1.6774    0.9719   -2.8854 N   0  0  0  0  0  0  0  0  0  0  0  0
    2.5636    1.9518   -3.4936 C   0  0  0  0  0  0  0  0  0  0  0  0
    3.7916    1.7797   -3.4309 O   0  0  0  0  0  0  0  0  0  0  0  0
    2.0263    3.2542   -4.3904 C   0  0  2  0  0  0  0  0  0  0  0  0
    2.3149    4.5666   -3.6259 C   0  0  0  0  0  0  0  0  0  0  0  0
    1.4387    4.8223   -2.3874 C   0  0  0  0  0  0  0  0  0  0  0  0
    1.5353    3.7361   -1.3627 C   0  0  0  0  0  0  0  0  0  0  0  0
    2.8033    3.3879   -1.0877 F   0  0  0  0  0  0  0  0  0  0  0  0
    0.8830    3.9624   -0.2173 F   0  0  0  0  0  0  0  0  0  0  0  0
    0.9114    2.7012   -1.8931 F   0  0  0  0  0  0  0  0  0  0  0  0
    0.6074    3.2357   -5.0311 C   0  0  2  0  0  0  0  0  0  0  0  0
    0.4134    2.2073   -6.2816 C   0  0  0  0  0  0  0  0  0  0  0  0
    1.6368    1.1691   -6.6693 C   0  0  0  0  0  0  0  0  0  0  0  0
    1.7442    0.1862   -5.5992 C   0  0  0  0  0  0  0  0  0  0  0  0
    0.8889   -0.7751   -5.6792 F   0  0  0  0  0  0  0  0  0  0  0  0
    2.8872   -0.2819   -5.1233 F   0  0  0  0  0  0  0  0  0  0  0  0
    1.2088    0.9878   -4.7456 F   0  0  0  0  0  0  0  0  0  0  0  0
   -0.1209    4.5340   -5.3219 C   0  0  0  0  0  0  0  0  0  0  0  0
   -1.0715    4.9595   -4.6467 O   0  0  0  0  0  0  0  0  0  0  0  0
    0.3243    5.2348   -6.3726 N   0  0  0  0  0  0  0  0  0  0  0  0
   -0.7983   -2.5089   -4.6511 C   0  0  0  0  0  0  0  0  0  0  0  0
   -0.4080   -2.6290   -6.0145 C   0  0  0  0  0  0  0  0  0  0  0  0
   -1.0450   -3.4557   -6.9177 C   0  0  0  0  0  0  0  0  0  0  0  0
   -1.9875   -4.3220   -6.4265 C   0  0  0  0  0  0  0  0  0  0  0  0
   -2.2831   -4.3367   -5.0579 C   0  0  0  0  0  0  0  0  0  0  0  0
   -1.7479   -3.3912   -4.1831 C   0  0  0  0  0  0  0  0  0  0  0  0
  1  2  1  0
  2  3  1  0
  2 12  1  0
  3  4  2  0
  3  8  1  0
  4  5  1  0
  5  6  2  0
  6  7  1  0
  7  8  2  0
  8  9  1  0
  9 10  2  0
  9 34  1  0
 10 11  1  0
 11 12  1  0
 11 14  1  1
 12 13  2  0
 14 15  1  0
 15 16  2  0
 17 18  1  1
 17 15  1  0
 18 19  1  0
 19 20  1  0
 20 21  1  0
 20 22  1  0
 20 23  1  0
 24 31  1  0
 24 25  1  6
 24 17  1  0
 25 26  1  0
 26 27  1  0
 27 28  1  0
 27 29  1  0
 27 30  1  0
 31 32  2  0
 31 33  1  0
 34 35  2  0
 34 39  1  0
 35 36  1  0
 36 37  2  0
 37 38  1  0
 38 39  2  0
M  END
>  <DRUGBANK_ID>  (1) 
DB12006

>  <COMMON_NAME>  (1) 
Osugacestat

>  <CAS_NUMBER>  (1) 
1401066-79-2

>  <UNII>  (1) 
DRL23N424R

>  <SYNONYMS>  (1) 
(2R,3S)-N1-((S)-1-methyl-2-oxo-5-phenyl-2,3-dihydro-1H-benzo[e][1,4]diazepin-3-yl)-2,3-bis(3,3,3-trifluoropropyl)succinamide; Butanediamide, N1-((3S)-2,3-dihydro-1-methyl-2-oxo-5-phenyl-1H-1,4-benzodiazepin-3-yl)-2,3-bis(3,3,3-trifluorophenyl)-, (2R,3S)-

$$$$
