1441
     RDKit          3D

 20 21  0  0  0  0  0  0  0  0999 V2000
    1.1444    0.1377    0.1689 O   0  0  0  0  0  0  0  0  0  0  0  0
   -3.9864   -4.8969   -3.0754 N   0  0  0  0  0  0  0  0  0  0  0  0
   -1.6974   -4.2853    0.9322 N   0  0  0  0  0  0  0  0  0  0  0  0
   -3.3779   -3.5194   -3.2014 C   0  0  0  0  0  0  0  0  0  0  0  0
   -4.1604   -5.7504   -4.2657 C   0  0  0  0  0  0  0  0  0  0  0  0
   -3.4160   -5.6941   -1.9984 C   0  0  0  0  0  0  0  0  0  0  0  0
   -3.2779   -2.4933   -1.9071 C   0  0  0  0  0  0  0  0  0  0  0  0
   -2.4634   -2.9344   -0.6111 C   0  0  0  0  0  0  0  0  0  0  0  0
   -2.8210   -6.1158   -4.9015 C   0  0  0  0  0  0  0  0  0  0  0  0
   -4.9325   -7.0569   -3.8774 C   0  0  0  0  0  0  0  0  0  0  0  0
   -1.8738   -5.7431   -1.9601 C   0  0  0  0  0  0  0  0  0  0  0  0
   -4.2043   -5.2473   -0.8199 C   0  0  0  0  0  0  0  0  0  0  0  0
   -1.1772   -2.5002   -0.2054 C   0  0  0  0  0  0  0  0  0  0  0  0
   -0.7374   -3.3736    0.8101 C   0  0  0  0  0  0  0  0  0  0  0  0
   -2.8288   -3.5825    0.5954 C   0  0  0  0  0  0  0  0  0  0  0  0
   -0.4515   -1.3866   -0.5177 C   0  0  0  0  0  0  0  0  0  0  0  0
    0.3985   -3.1880    1.5837 C   0  0  0  0  0  0  0  0  0  0  0  0
    0.6039   -1.0992    0.3413 C   0  0  0  0  0  0  0  0  0  0  0  0
    1.0030   -1.9728    1.3751 C   0  0  0  0  0  0  0  0  0  0  0  0
    2.5543    0.0370    0.1000 C   0  0  0  0  0  0  0  0  0  0  0  0
  1 18  1  0
  1 20  1  0
  2  4  1  0
  2  5  1  0
  2  6  1  0
  3 14  1  0
  3 15  1  0
  4  7  1  0
  5  9  1  0
  5 10  1  0
  6 11  1  0
  6 12  1  0
  7  8  1  0
  8 13  1  0
  8 15  2  0
 13 14  2  0
 13 16  1  0
 14 17  1  0
 16 18  2  0
 17 19  2  0
 18 19  1  0
M  END
>  <DRUGBANK_ID>  (1) 
DB01441

>  <COMMON_NAME>  (1) 
5-Methoxy-N,N-diisopropyltryptamine

>  <CAS_NUMBER>  (1) 
4021-34-5

>  <UNII>  (1) 
12D06G8W8E

>  <SYNONYMS>  (1) 
5-MeO-DIPT; 5-methoxy-N,N-bis(1-methylethyl)-1H-indole-3-ethanamine; Foxy; Foxy methoxy; N-(1-methylethyl)-N-{2-[5-(methyloxy)-1H-indol-3-yl]ethyl}propan-2-amine

$$$$
