
     RDKit          3D

 35 38  0  0  0  0  0  0  0  0999 V2000
    1.0727   -0.1409   -0.0052 C   0  0  0  0  0  0  0  0  0  0  0  0
    0.4730    1.2294    0.0109 C   0  0  0  0  0  0  0  0  0  0  0  0
    0.8449    2.0965   -1.0711 N   0  0  0  0  0  0  0  0  0  0  0  0
   -0.0313    2.8222   -1.8434 C   0  0  0  0  0  0  0  0  0  0  0  0
    0.4238    3.5302   -2.7586 O   0  0  0  0  0  0  0  0  0  0  0  0
   -1.4651    2.7392   -1.5369 C   0  0  0  0  0  0  0  0  0  0  0  0
   -2.1052    2.8885   -0.2677 C   0  0  0  0  0  0  0  0  0  0  0  0
   -3.4305    2.6297   -0.5054 C   0  0  0  0  0  0  0  0  0  0  0  0
   -3.6062    2.3467   -1.8206 O   0  0  0  0  0  0  0  0  0  0  0  0
   -2.3802    2.4403   -2.4798 N   0  0  0  0  0  0  0  0  0  0  0  0
   -4.5746    2.6719    0.3909 C   0  0  0  0  0  0  0  0  0  0  0  0
   -5.3289    1.5170    0.6450 C   0  0  0  0  0  0  0  0  0  0  0  0
   -6.3266    1.4760    1.6573 C   0  0  0  0  0  0  0  0  0  0  0  0
   -6.5032    2.6441    2.4239 C   0  0  0  0  0  0  0  0  0  0  0  0
   -5.7493    3.7847    2.1931 C   0  0  0  0  0  0  0  0  0  0  0  0
   -4.8095    3.8043    1.1810 C   0  0  0  0  0  0  0  0  0  0  0  0
   -4.1314    4.9862    1.0529 O   0  0  0  0  0  0  0  0  0  0  0  0
   -7.3982    2.8015    3.4430 O   0  0  0  0  0  0  0  0  0  0  0  0
   -7.1715    0.2108    1.8802 C   0  0  0  0  0  0  0  0  0  0  0  0
   -6.9870   -0.3288    3.3178 C   0  0  0  0  0  0  0  0  0  0  0  0
   -8.6556    0.5300    1.5854 C   0  0  0  0  0  0  0  0  0  0  0  0
   -6.7768   -0.9461    0.9304 C   0  0  0  0  0  0  0  0  0  0  0  0
   -1.6218    3.1868    1.0659 C   0  0  0  0  0  0  0  0  0  0  0  0
   -1.7221    2.2338    2.0950 C   0  0  0  0  0  0  0  0  0  0  0  0
   -1.0611    2.4395    3.3082 C   0  0  0  0  0  0  0  0  0  0  0  0
   -0.3897    3.6474    3.5482 C   0  0  0  0  0  0  0  0  0  0  0  0
   -0.5477    4.6872    2.6106 C   0  0  0  0  0  0  0  0  0  0  0  0
   -1.0399    4.4173    1.3280 C   0  0  0  0  0  0  0  0  0  0  0  0
    0.6010    3.7708    4.7088 C   0  0  0  0  0  0  0  0  0  0  0  0
    2.0735    3.7463    4.4574 N   0  0  0  0  0  0  0  0  0  0  0  0
    2.5626    4.7714    3.5130 C   0  0  0  0  0  0  0  0  0  0  0  0
    2.3715    4.3692    2.0366 C   0  0  0  0  0  0  0  0  0  0  0  0
    2.9280    3.0866    1.7339 O   0  0  0  0  0  0  0  0  0  0  0  0
    2.3547    2.1076    2.6215 C   0  0  0  0  0  0  0  0  0  0  0  0
    2.6556    2.4431    4.0671 C   0  0  0  0  0  0  0  0  0  0  0  0
  1  2  1  0
  2  3  1  0
  3  4  1  0
  4  5  2  0
  4  6  1  0
  6  7  1  0
  6 10  2  0
  7  8  2  0
  7 23  1  0
  8  9  1  0
  8 11  1  0
  9 10  1  0
 11 12  2  0
 11 16  1  0
 12 13  1  0
 13 14  2  0
 13 19  1  0
 14 15  1  0
 14 18  1  0
 15 16  2  0
 16 17  1  0
 19 20  1  0
 19 21  1  0
 19 22  1  0
 23 24  2  0
 23 28  1  0
 24 25  1  0
 25 26  2  0
 26 27  1  0
 26 29  1  0
 27 28  2  0
 29 30  1  0
 30 31  1  0
 30 35  1  0
 31 32  1  0
 32 33  1  0
 33 34  1  0
 34 35  1  0
M  END
>  <DRUGBANK_ID>  (1) 
DB11881

>  <COMMON_NAME>  (1) 
AUY922

>  <CAS_NUMBER>  (1) 
747412-64-2

>  <UNII>  (1) 
G1G66XE93W

$$$$
