
     RDKit          3D

 27 29  0  0  0  0  0  0  0  0999 V2000
   -3.6045   -1.5721    1.1527 C   0  0  0  0  0  0  0  0  0  0  0  0
   -2.0978   -3.1779    2.4156 C   0  0  0  0  0  0  0  0  0  0  0  0
    2.7023   -0.0256   -0.3619 C   0  0  0  0  0  0  0  0  0  0  0  0
   -6.7472   -3.8769    9.7120 C   0  0  0  0  0  0  0  0  0  0  0  0
   -5.3872   -3.9890    9.4349 C   0  0  0  0  0  0  0  0  0  0  0  0
   -7.5400   -3.0498    8.9209 C   0  0  0  0  0  0  0  0  0  0  0  0
   -4.8170   -3.2518    8.3827 C   0  0  0  0  0  0  0  0  0  0  0  0
   -6.9785   -2.3519    7.8413 C   0  0  0  0  0  0  0  0  0  0  0  0
    0.6271    1.0469    0.5934 C   0  0  0  0  0  0  0  0  0  0  0  0
    1.3081   -1.2760    1.3058 C   0  0  0  0  0  0  0  0  0  0  0  0
   -0.3193    1.1278    1.7970 C   0  0  0  0  0  0  0  0  0  0  0  0
    0.4553   -1.1280    2.5621 C   0  0  0  0  0  0  0  0  0  0  0  0
   -4.2434   -1.9683    5.4302 C   0  0  0  0  0  0  0  0  0  0  0  0
   -3.1893   -2.1228    2.5242 C   0  0  0  0  0  0  0  0  0  0  0  0
    1.8069    0.1007    0.8629 C   0  0  1  0  0  0  0  0  0  0  0  0
   -5.5994   -2.3931    7.5879 C   0  0  0  0  0  0  0  0  0  0  0  0
   -0.7745   -0.2709    2.2404 C   0  0  1  0  0  0  0  0  0  0  0  0
   -3.7167   -0.8791    4.6406 C   0  0  0  0  0  0  0  0  0  0  0  0
   -4.9909   -1.5633    6.5201 C   0  0  0  0  0  0  0  0  0  0  0  0
   -4.1849    0.3545    5.0990 C   0  0  0  0  0  0  0  0  0  0  0  0
   -1.7198   -0.2107    3.4457 C   0  0  0  0  0  0  0  0  0  0  0  0
   -4.0189    1.6568    4.4387 C   0  0  0  0  0  0  0  0  0  0  0  0
   -2.8549   -1.0547    3.5078 N   0  0  0  0  0  0  0  0  0  0  0  0
   -1.3943    0.5193    4.3935 O   0  0  0  0  0  0  0  0  0  0  0  0
   -4.4410    2.7358    5.1494 O   0  0  0  0  0  0  0  0  0  0  0  0
   -3.6042    1.8232    3.2888 O   0  0  0  0  0  0  0  0  0  0  0  0
   -5.1276    0.1566    6.5315 S   0  0  0  0  0  0  0  0  0  0  0  0
  5  4  2  0
  6  4  1  0
  7  5  1  0
  8  6  2  0
 11  9  1  0
 12 10  1  0
 14  1  1  0
 14  2  1  0
 15  3  1  6
 15  9  1  0
 15 10  1  0
 16  7  2  0
 16  8  1  0
 17 11  1  0
 17 12  1  0
 17 21  1  1
 18 13  1  0
 19 13  2  0
 19 16  1  0
 20 18  2  0
 22 20  1  0
 23 14  1  0
 23 18  1  0
 23 21  1  0
 24 21  2  0
 25 22  1  0
 26 22  2  0
 27 19  1  0
 27 20  1  0
M  END
>  <DRUGBANK_ID>  (1) 
DB08279

>  <COMMON_NAME>  (1) 
3-{ISOPROPYL[(TRANS-4-METHYLCYCLOHEXYL)CARBONYL]AMINO}-5-PHENYLTHIOPHENE-2-CARBOXYLIC ACID

$$$$
