
     RDKit          3D

 20 22  0  0  1  0  0  0  0  0999 V2000
    1.5674    1.0339    0.1180 N   0  0  0  0  0  0  0  0  0  0  0  0
    0.2745    0.5804    0.0755 C   0  0  0  0  0  0  0  0  0  0  0  0
    2.0822    2.3960    0.0439 C   0  0  2  0  0  0  0  0  0  0  0  0
    2.3668   -0.0818    0.0566 C   0  0  0  0  0  0  0  0  0  0  0  0
    0.3548   -0.7941    0.0405 C   0  0  0  0  0  0  0  0  0  0  0  0
   -0.8613    1.2924    0.0410 N   0  0  0  0  0  0  0  0  0  0  0  0
    1.5637    3.2083    1.1156 O   0  0  0  0  0  0  0  0  0  0  0  0
    1.7359    3.0911   -1.2610 C   0  0  1  0  0  0  0  0  0  0  0  0
    1.6755   -1.1990    0.0315 N   0  0  0  0  0  0  0  0  0  0  0  0
   -0.8593   -1.5082    0.0025 C   0  0  0  0  0  0  0  0  0  0  0  0
   -1.9585    0.5193    0.0125 C   0  0  0  0  0  0  0  0  0  0  0  0
    1.2466    4.5241    0.5968 C   0  0  1  0  0  0  0  0  0  0  0  0
    1.6828    4.5677   -0.8619 C   0  0  1  0  0  0  0  0  0  0  0  0
    2.6341    2.8274   -2.3326 O   0  0  0  0  0  0  0  0  0  0  0  0
   -2.0243   -0.8212   -0.0047 N   0  0  0  0  0  0  0  0  0  0  0  0
   -0.9258   -2.8787   -0.0397 N   0  0  0  0  0  0  0  0  0  0  0  0
   -0.2270    4.9086    0.8407 C   0  0  0  0  0  0  0  0  0  0  0  0
    2.9787    5.1644   -1.0328 O   0  0  0  0  0  0  0  0  0  0  0  0
   -1.6528    4.0743    0.0502 S   0  0  0  0  0  0  0  0  0  0  0  0
   -1.3372    4.0309   -1.7392 C   0  0  0  0  0  0  0  0  0  0  0  0
  1  2  1  0
  1  4  1  0
  2  5  2  0
  2  6  1  0
  3  1  1  6
  3  7  1  0
  3  8  1  0
  4  9  2  0
  5 10  1  0
  5  9  1  0
  6 11  2  0
  7 12  1  0
  8 13  1  0
  8 14  1  6
 10 15  2  0
 10 16  1  0
 11 15  1  0
 12 13  1  0
 12 17  1  6
 13 18  1  1
 17 19  1  0
 19 20  1  0
M  END
>  <DRUGBANK_ID>  (1) 
DB02282

>  <SECONDARY_ACCESSION_NUMBERS>  (1) 
EXPT02241

>  <COMMON_NAME>  (1) 
5'-S-methyl-5'-thioadenosine

>  <CAS_NUMBER>  (1) 
2457-80-9

>  <UNII>  (1) 
634Z2VK3UQ

>  <SYNONYMS>  (1) 
5-Methylthioadenosine; 5'-Deoxy-5'-(methylthio)adenosine; 5'-Methylthioadenosine; 9-(5-S-methyl-5-thio-Î²-D-ribofuranosyl)-9H-purin-6-amine; Methylthioadenosine; MTA; S-Methyl-5'-thioadenosine; Thiomethyladenosine; Vitamin L2

$$$$
