
     RDKit          3D

 26 27  0  0  1  0  0  0  0  0999 V2000
    2.0625   -2.1128   -1.3855 O   0  0  0  0  0  0  0  0  0  0  0  0
    0.9499   -2.5676   -0.6719 C   0  0  0  0  0  0  0  0  0  0  0  0
    0.9637   -2.3352    0.8649 C   0  0  1  0  0  0  0  0  0  0  0  0
    1.0168   -3.7802    1.3461 C   0  0  0  0  0  0  0  0  0  0  0  0
    0.8821   -4.0407    2.8193 C   0  0  1  0  0  0  0  0  0  0  0  0
    1.2982   -5.7930    3.1346 S   0  0  0  0  0  0  0  0  0  0  0  0
    2.9886   -6.0844    2.6849 C   0  0  0  0  0  0  0  0  0  0  0  0
    3.9480   -4.9494    2.2764 C   0  0  0  0  0  0  0  0  0  0  0  0
    5.0029   -4.6464    3.3183 C   0  0  0  0  0  0  0  0  0  0  0  0
    5.2851   -3.3231    3.6992 C   0  0  0  0  0  0  0  0  0  0  0  0
    6.1489   -3.0643    4.7625 C   0  0  0  0  0  0  0  0  0  0  0  0
    6.7418   -4.1227    5.4460 C   0  0  0  0  0  0  0  0  0  0  0  0
    6.4937   -5.4325    5.0527 C   0  0  0  0  0  0  0  0  0  0  0  0
    5.6850   -5.6855    3.9541 C   0  0  0  0  0  0  0  0  0  0  0  0
    3.4949   -7.2873    2.6826 N   0  0  0  0  0  0  0  0  0  0  0  0
    2.6407   -8.2874    3.2076 O   0  0  0  0  0  0  0  0  0  0  0  0
    3.3784   -9.7348    3.5196 S   0  0  0  0  0  0  0  0  0  0  0  0
    4.0704  -10.1307    2.1112 O   0  0  0  0  0  0  0  0  0  0  0  0
    4.4561   -9.5401    4.4843 O   0  0  0  0  0  0  0  0  0  0  0  0
    2.3534  -10.7186    3.7376 O   0  0  0  0  0  0  0  0  0  0  0  0
    1.6003   -3.0631    3.7403 C   0  0  2  0  0  0  0  0  0  0  0  0
    1.1150   -3.2191    5.0767 O   0  0  0  0  0  0  0  0  0  0  0  0
    1.4725   -1.6083    3.2365 C   0  0  1  0  0  0  0  0  0  0  0  0
    2.1859   -0.7206    4.1029 O   0  0  0  0  0  0  0  0  0  0  0  0
    1.9340   -1.4709    1.7268 C   0  0  2  0  0  0  0  0  0  0  0  0
    1.8936   -0.1023    1.3173 O   0  0  0  0  0  0  0  0  0  0  0  0
  1  2  1  0
  3  4  1  0
  3 25  1  0
  3  2  1  6
  4  5  1  0
  5  6  1  6
  5 21  1  0
  6  7  1  0
  7  8  1  0
  7 15  2  0
  8  9  1  0
  9 10  2  0
  9 14  1  0
 10 11  1  0
 11 12  2  0
 12 13  1  0
 13 14  2  0
 15 16  1  0
 16 17  1  0
 17 18  1  0
 17 19  2  0
 17 20  2  0
 21 22  1  1
 21 23  1  0
 23 24  1  1
 23 25  1  0
 25 26  1  6
M  END
>  <DRUGBANK_ID>  (1) 
DB04659

>  <COMMON_NAME>  (1) 
(1S,2S,3R,4S,5S)-2,3,4-TRIHYDROXY-5-(HYDROXYMETHYL)CYCLOHEXYL (1E)-2-PHENYL-N-(SULFOOXY)ETHANIMIDOTHIOATE

$$$$
