MBP
     RDKit          3D

 17 18  0  0  0  0  0  0  0  0999 V2000
    2.0408   -0.6405   -0.0285 C   0  0  0  0  0  0  0  0  0  0  0  0
   -0.2062   -0.6631   -0.0095 C   0  0  0  0  0  0  0  0  0  0  0  0
   -0.2221    0.7118   -0.0593 C   0  0  0  0  0  0  0  0  0  0  0  0
    3.0008    3.1338    1.2508 C   0  0  0  0  0  0  0  0  0  0  0  0
    4.1789    2.7579    1.1825 O   0  0  0  0  0  0  0  0  0  0  0  0
    2.1340    4.9429    2.7689 C   0  0  0  0  0  0  0  0  0  0  0  0
    2.3698    3.4462    2.6076 C   0  0  0  0  0  0  0  0  0  0  0  0
    1.0791    2.6764    2.8487 C   0  0  0  0  0  0  0  0  0  0  0  0
   -1.4884   -1.1527    0.0203 N   0  0  0  0  0  0  0  0  0  0  0  0
    0.9292   -1.3831    0.0030 N   0  0  0  0  0  0  0  0  0  0  0  0
    3.2374   -1.3041   -0.0072 N   0  0  0  0  0  0  0  0  0  0  0  0
    2.1026    0.7055   -0.0843 N   0  0  0  0  0  0  0  0  0  0  0  0
    0.9556    1.4026   -0.1189 C   0  0  0  0  0  0  0  0  0  0  0  0
    0.9267    2.7784   -0.1457 O   0  0  0  0  0  0  0  0  0  0  0  0
    2.1893    3.4029   -0.0213 C   0  0  0  0  0  0  0  0  0  0  0  0
   -1.5376    1.0672   -0.0218 N   0  0  0  0  0  0  0  0  0  0  0  0
   -2.2657   -0.0895    0.0039 C   0  0  0  0  0  0  0  0  0  0  0  0
  1 10  2  0
  1 11  1  0
  1 12  1  0
  2  3  2  0
  2  9  1  0
  2 10  1  0
  3 13  1  0
  3 16  1  0
  4  5  2  0
  4  7  1  0
  4 15  1  0
  6  7  1  0
  7  8  1  0
  9 17  2  0
 12 13  2  0
 13 14  1  0
 14 15  1  0
 16 17  1  0
M  END
>  <DRUGBANK_ID>  (1) 
DB03663

>  <SECONDARY_ACCESSION_NUMBERS>  (1) 
EXPT02125

>  <COMMON_NAME>  (1) 
1-[(2-Amino-6,9-Dihydro-1h-Purin-6-Yl)Oxy]-3-Methyl-2-Butanol

$$$$
