SN0
     RDKit          3D

 15 14  0  0  0  0  0  0  0  0999 V2000
    0.6651    0.1724   -0.1624 C   0  0  2  0  0  0  0  0  0  0  0  0
    0.2185    1.4236   -0.9341 C   0  0  0  0  0  0  0  0  0  0  0  0
   -0.4401    1.1970   -2.0881 O   0  0  0  0  0  0  0  0  0  0  0  0
    0.5476    2.5593   -0.6058 O   0  0  0  0  0  0  0  0  0  0  0  0
    0.2000   -1.3178   -0.8101 C   0  0  0  0  0  0  0  0  0  0  0  0
    0.5240   -2.7873   -0.1385 C   0  0  0  0  0  0  0  0  0  0  0  0
    0.2121   -2.8081    1.3664 C   0  0  0  0  0  0  0  0  0  0  0  0
    0.5075    0.2962    1.3142 N   0  0  0  0  0  0  0  0  0  0  0  0
    1.4497    0.1657    2.3303 C   0  0  0  0  0  0  0  0  0  0  0  0
    1.0022    0.1045    3.4864 O   0  0  0  0  0  0  0  0  0  0  0  0
    3.0373    0.1191    2.1240 C   0  0  0  0  0  0  0  0  0  0  0  0
    3.8163   -1.1217    1.5360 C   0  0  0  0  0  0  0  0  0  0  0  0
    3.2995   -1.2960    0.2204 C   0  0  0  0  0  0  0  0  0  0  0  0
    3.7322   -1.2820   -1.0006 O   0  0  0  0  0  0  0  0  0  0  0  0
    2.1094   -1.4472    0.3946 O   0  0  0  0  0  0  0  0  0  0  0  0
  1  2  1  0
  1  5  1  6
  1  8  1  0
  2  3  1  0
  2  4  2  0
  5  6  1  0
  6  7  1  0
  8  9  1  0
  9 10  2  0
  9 11  1  0
 11 12  1  0
 12 13  1  0
 13 14  1  0
 13 15  2  0
M  END
>  <DRUGBANK_ID>  (1) 
DB08554

>  <COMMON_NAME>  (1) 
N-(3-carboxypropanoyl)-L-norvaline

$$$$
