
     RDKit          3D

 11 10  0  0  1  0  0  0  0  0999 V2000
   -3.0699   -4.5181    0.6060 C   0  0  0  0  0  0  0  0  0  0  0  0
   -2.6327   -3.2175   -0.0538 C   0  0  2  0  0  0  0  0  0  0  0  0
   -1.4112   -3.4722   -0.7685 O   0  0  0  0  0  0  0  0  0  0  0  0
   -2.3592   -2.0702    0.9258 C   0  0  1  0  0  0  0  0  0  0  0  0
   -1.9415   -0.9256    0.1624 O   0  0  0  0  0  0  0  0  0  0  0  0
   -3.5336   -1.6575    1.8349 C   0  0  1  0  0  0  0  0  0  0  0  0
   -4.0341   -2.7694    2.5904 O   0  0  0  0  0  0  0  0  0  0  0  0
   -3.0705   -0.5499    2.8152 C   0  0  2  0  0  0  0  0  0  0  0  0
   -1.6432   -0.5783    2.9856 O   0  0  0  0  0  0  0  0  0  0  0  0
   -3.6501   -0.7948    4.1913 C   0  0  0  0  0  0  0  0  0  0  0  0
   -4.3436    0.0241    4.8009 O   0  0  0  0  0  0  0  0  0  0  0  0
  2  3  1  0
  2  1  1  1
  4  2  1  0
  4  5  1  6
  4  6  1  0
  6  7  1  1
  8 10  1  0
  8  9  1  1
  8  6  1  0
 10 11  2  0
M  END
>  <DRUGBANK_ID>  (1) 
DB15236

>  <COMMON_NAME>  (1) 
Fucose

>  <CAS_NUMBER>  (1) 
2438-80-4

>  <UNII>  (1) 
28RYY2IV3F

>  <SYNONYMS>  (1) 
L-FUCOSE

$$$$
