
     RDKit          3D

 31 32  0  0  0  0  0  0  0  0999 V2000
    1.2337   -0.0874    0.2366 C   0  0  0  0  0  0  0  0  0  0  0  0
    0.6227    0.8283    1.2965 C   0  0  0  0  0  0  0  0  0  0  0  0
    1.4778    2.1106    1.2679 C   0  0  0  0  0  0  0  0  0  0  0  0
   -0.8574    0.9414    1.1692 N   0  0  0  0  0  0  0  0  0  0  0  0
   -1.4846    1.6668    2.3367 C   0  0  0  0  0  0  0  0  0  0  0  0
   -1.3247    3.2043    2.5072 C   0  0  0  0  0  0  0  0  0  0  0  0
   -1.9801    3.9570    1.4334 N   0  0  0  0  0  0  0  0  0  0  0  0
   -2.4732    5.1598    1.3008 C   0  0  0  0  0  0  0  0  0  0  0  0
   -2.8001    5.5718    0.1704 O   0  0  0  0  0  0  0  0  0  0  0  0
   -2.7220    5.8114    2.4980 C   0  0  0  0  0  0  0  0  0  0  0  0
   -3.9813    6.3030    2.7121 C   0  0  0  0  0  0  0  0  0  0  0  0
   -3.7025    7.5173    3.8456 S   0  0  0  0  0  0  0  0  0  0  0  0
   -2.3312    6.6491    4.4341 C   0  0  0  0  0  0  0  0  0  0  0  0
   -1.8060    5.8739    3.5306 N   0  0  0  0  0  0  0  0  0  0  0  0
   -1.7635    6.8370    5.6642 N   0  0  0  0  0  0  0  0  0  0  0  0
   -2.2988    7.4414    6.7802 C   0  0  0  0  0  0  0  0  0  0  0  0
   -1.5834    7.6950    7.7476 O   0  0  0  0  0  0  0  0  0  0  0  0
   -3.7407    7.7863    6.8486 C   0  0  0  0  0  0  0  0  0  0  0  0
   -4.1106    9.1199    7.0772 C   0  0  0  0  0  0  0  0  0  0  0  0
   -5.4513    9.5171    6.9175 C   0  0  0  0  0  0  0  0  0  0  0  0
   -6.4036    8.5777    6.4634 C   0  0  0  0  0  0  0  0  0  0  0  0
   -6.0226    7.2507    6.2448 C   0  0  0  0  0  0  0  0  0  0  0  0
   -4.7197    6.8409    6.5137 C   0  0  0  0  0  0  0  0  0  0  0  0
   -4.3728    5.5356    6.2767 O   0  0  0  0  0  0  0  0  0  0  0  0
   -7.6803    9.0119    6.2531 O   0  0  0  0  0  0  0  0  0  0  0  0
   -8.6732    8.1026    5.8221 C   0  0  0  0  0  0  0  0  0  0  0  0
   -5.6877   10.8407    7.2190 O   0  0  0  0  0  0  0  0  0  0  0  0
   -7.0369   11.3025    7.1434 C   0  0  0  0  0  0  0  0  0  0  0  0
   -1.4126    1.3387   -0.1578 C   0  0  0  0  0  0  0  0  0  0  0  0
   -0.8243    2.6443   -0.6485 C   0  0  0  0  0  0  0  0  0  0  0  0
   -1.2251    0.4679   -1.3895 C   0  0  0  0  0  0  0  0  0  0  0  0
  1  2  1  0
  2  3  1  0
  2  4  1  0
  4  5  1  0
  4 29  1  0
  5  6  1  0
  6  7  1  0
  7  8  1  0
  8  9  2  0
  8 10  1  0
 10 11  2  0
 10 14  1  0
 11 12  1  0
 12 13  1  0
 13 14  2  0
 13 15  1  0
 15 16  1  0
 16 17  2  0
 16 18  1  0
 18 19  2  0
 18 23  1  0
 19 20  1  0
 20 21  2  0
 20 27  1  0
 21 22  1  0
 21 25  1  0
 22 23  2  0
 23 24  1  0
 25 26  1  0
 27 28  1  0
 29 30  1  0
 29 31  1  0
M  END
>  <DRUGBANK_ID>  (1) 
DB12482

>  <COMMON_NAME>  (1) 
Acotiamide

>  <CAS_NUMBER>  (1) 
185106-16-5

>  <UNII>  (1) 
D42OWK5383

>  <SYNONYMS>  (1) 
Acotiamide

$$$$
