BN5
     RDKit          3D

 29 30  0  0  0  0  0  0  0  0999 V2000
    1.2076   -1.4612    0.0048 C   0  0  0  0  0  0  0  0  0  0  0  0
    0.0055   -2.1891    0.0120 C   0  0  0  0  0  0  0  0  0  0  0  0
   -1.2378   -1.5437    0.0267 C   0  0  0  0  0  0  0  0  0  0  0  0
   -1.2207   -0.1126    0.0078 C   0  0  0  0  0  0  0  0  0  0  0  0
   -2.6277    0.9047    0.0102 Cl  0  0  0  0  0  0  0  0  0  0  0  0
   -0.0083    0.6097   -0.0033 C   0  0  0  0  0  0  0  0  0  0  0  0
    1.1988   -0.0706    0.0002 C   0  0  0  0  0  0  0  0  0  0  0  0
   -2.5278   -3.7981    0.1264 N   0  0  0  0  0  0  0  0  0  0  0  0
   -2.5217   -2.3635    0.0589 C   0  0  0  0  0  0  0  0  0  0  0  0
   -3.5653   -1.7435   -0.1289 O   0  0  0  0  0  0  0  0  0  0  0  0
   -3.7465   -5.9278    0.0965 N   0  0  0  0  0  0  0  0  0  0  0  0
   -5.0318   -6.7894    0.1594 C   0  0  0  0  0  0  0  0  0  0  0  0
   -5.1818   -7.8176    1.0431 C   0  0  0  0  0  0  0  0  0  0  0  0
   -6.4339   -8.5018    1.0510 C   0  0  0  0  0  0  0  0  0  0  0  0
   -5.9141   -6.1125   -2.0675 C   0  0  0  0  0  0  0  0  0  0  0  0
   -7.5629   -8.1577    0.2264 C   0  0  0  0  0  0  0  0  0  0  0  0
   -8.5270   -6.6828   -1.4394 O   0  0  0  0  0  0  0  0  0  0  0  0
   -8.4919   -5.4735   -2.3123 C   0  0  0  0  0  0  0  0  0  0  0  0
   -8.0456   -4.0270   -1.6603 C   0  0  0  0  0  0  0  0  0  0  0  0
   -6.5551   -3.7211   -1.0280 C   0  0  0  0  0  0  0  0  0  0  0  0
   -5.1350   -3.7322   -2.0165 C   0  0  0  0  0  0  0  0  0  0  0  0
   -5.0603   -2.7800   -3.0906 C   0  0  0  0  0  0  0  0  0  0  0  0
   -3.8047   -2.3190   -3.2224 O   0  0  0  0  0  0  0  0  0  0  0  0
   -5.9657   -2.7080   -3.9437 O   0  0  0  0  0  0  0  0  0  0  0  0
   -7.4613   -7.1512   -0.6940 C   0  0  0  0  0  0  0  0  0  0  0  0
   -6.1655   -6.6895   -0.7847 C   0  0  0  0  0  0  0  0  0  0  0  0
   -3.7041   -4.5363    0.4810 C   0  0  0  0  0  0  0  0  0  0  0  0
   -4.6632   -3.9479    0.9661 O   0  0  0  0  0  0  0  0  0  0  0  0
    2.6852    0.7937    0.0019 Cl  0  0  0  0  0  0  0  0  0  0  0  0
  1  2  2  0
  1  7  1  0
  2  3  1  0
  3  4  2  0
  3  9  1  0
  4  5  1  0
  4  6  1  0
  6  7  2  0
  7 29  1  0
  8  9  1  0
  8 27  1  0
  9 10  2  0
 11 12  1  0
 11 27  1  0
 12 13  2  0
 12 26  1  0
 13 14  1  0
 14 16  2  0
 15 26  1  0
 16 25  1  0
 17 18  1  0
 17 25  1  0
 18 19  1  0
 19 20  1  0
 20 21  1  0
 21 22  1  0
 22 23  1  0
 22 24  2  0
 25 26  2  0
 27 28  2  0
M  END
>  <DRUGBANK_ID>  (1) 
DB04645

>  <COMMON_NAME>  (1) 
5-{3-[3-(2,4-DICHLORO-BENZOYL)-UREIDO]-2-METHYL-PHENOXY}-PENTANOIC ACID

$$$$
