K05
     RDKit          3D

 25 27  0  0  0  0  0  0  0  0999 V2000
    0.9100   -0.0308    0.1040 N   0  0  0  0  0  0  0  0  0  0  0  0
    2.2709   -0.0596    0.1279 N   0  0  0  0  0  0  0  0  0  0  0  0
    2.9983    0.4905    1.1801 C   0  0  0  0  0  0  0  0  0  0  0  0
    4.2293    0.5406    1.1478 O   0  0  0  0  0  0  0  0  0  0  0  0
    2.2654    1.0434    2.3574 C   0  0  0  0  0  0  0  0  0  0  0  0
    2.6491    2.2754    2.9030 C   0  0  0  0  0  0  0  0  0  0  0  0
    1.9110    2.8134    3.9545 C   0  0  0  0  0  0  0  0  0  0  0  0
    0.8087    2.1367    4.4786 C   0  0  0  0  0  0  0  0  0  0  0  0
    0.4512    0.8908    3.9770 C   0  0  0  0  0  0  0  0  0  0  0  0
    1.1953    0.3384    2.9300 C   0  0  0  0  0  0  0  0  0  0  0  0
    0.1023    2.7335    5.4869 O   0  0  0  0  0  0  0  0  0  0  0  0
    2.2756    4.0307    4.4610 O   0  0  0  0  0  0  0  0  0  0  0  0
    0.2847   -0.4934   -0.9318 C   0  0  0  0  0  0  0  0  0  0  0  0
   -1.2112   -0.4697   -0.9873 C   0  0  0  0  0  0  0  0  0  0  0  0
   -1.8905    0.6830   -0.5344 C   0  0  0  0  0  0  0  0  0  0  0  0
   -1.1275    1.7444   -0.1257 O   0  0  0  0  0  0  0  0  0  0  0  0
   -3.2858    0.7111   -0.5641 C   0  0  0  0  0  0  0  0  0  0  0  0
   -4.0081   -0.3787   -1.0458 C   0  0  0  0  0  0  0  0  0  0  0  0
   -3.3560   -1.5165   -1.5299 C   0  0  0  0  0  0  0  0  0  0  0  0
   -4.1194   -2.5797   -2.0422 C   0  0  0  0  0  0  0  0  0  0  0  0
   -3.5058   -3.7303   -2.5271 C   0  0  0  0  0  0  0  0  0  0  0  0
   -2.1218   -3.8328   -2.4943 C   0  0  0  0  0  0  0  0  0  0  0  0
   -1.3489   -2.7830   -1.9840 C   0  0  0  0  0  0  0  0  0  0  0  0
   -1.9362   -1.5876   -1.5033 C   0  0  0  0  0  0  0  0  0  0  0  0
   -1.7905    2.9105    0.3368 C   0  0  0  0  0  0  0  0  0  0  0  0
  1 13  2  0
  1  2  1  0
  2  3  1  0
  3  4  2  0
  3  5  1  0
  5  6  2  0
  5 10  1  0
  6  7  1  0
  7 12  1  0
  7  8  2  0
  8  9  1  0
  8 11  1  0
  9 10  2  0
 13 14  1  0
 14 15  2  0
 14 24  1  0
 15 17  1  0
 15 16  1  0
 16 25  1  0
 17 18  2  0
 18 19  1  0
 19 20  1  0
 19 24  2  0
 20 21  2  0
 21 22  1  0
 22 23  2  0
 23 24  1  0
M  END
>  <DRUGBANK_ID>  (1) 
DB08034

>  <COMMON_NAME>  (1) 
(E)-3,4-DIHYDROXY-N'-[(2-METHOXYNAPHTHALEN-1-YL)METHYLENE]BENZOHYDRAZIDE

$$$$
