
     RDKit          3D

 31 34  0  0  0  0  0  0  0  0999 V2000
    2.5739    0.2371   -0.1481 C   0  0  0  0  0  0  0  0  0  0  0  0
    3.5514   -1.8339    2.4282 C   0  0  0  0  0  0  0  0  0  0  0  0
    1.2288   -1.6191    3.1140 C   0  0  0  0  0  0  0  0  0  0  0  0
   -1.7222    0.5103    0.0817 C   0  0  0  0  0  0  0  0  0  0  0  0
    3.9621   -1.1339    3.5477 C   0  0  0  0  0  0  0  0  0  0  0  0
    1.6410   -1.0177    4.2969 C   0  0  0  0  0  0  0  0  0  0  0  0
    1.6886   -4.3615   -0.5855 C   0  0  0  0  0  0  0  0  0  0  0  0
    0.0444   -3.3508   -2.2296 C   0  0  0  0  0  0  0  0  0  0  0  0
   -1.0152   -0.6562    0.2443 C   0  0  0  0  0  0  0  0  0  0  0  0
    2.2676   -4.0117    0.6308 C   0  0  0  0  0  0  0  0  0  0  0  0
   -1.4153   -3.6762   -1.9928 C   0  0  0  0  0  0  0  0  0  0  0  0
    4.2043    1.5870    6.8466 C   0  0  0  0  0  0  0  0  0  0  0  0
    4.1447    1.1509    5.5454 C   0  0  0  0  0  0  0  0  0  0  0  0
    0.3818    1.5437   -0.0414 C   0  0  0  0  0  0  0  0  0  0  0  0
    3.0898   -0.2308    6.9035 C   0  0  0  0  0  0  0  0  0  0  0  0
    1.0786    0.2756   -0.0826 C   0  0  0  0  0  0  0  0  0  0  0  0
    2.1846   -2.0573    2.1960 C   0  0  0  0  0  0  0  0  0  0  0  0
   -1.0289    1.6570   -0.0240 C   0  0  0  0  0  0  0  0  0  0  0  0
    3.0017   -0.7544    4.4836 C   0  0  0  0  0  0  0  0  0  0  0  0
    0.8736   -3.3082   -0.9799 C   0  0  0  0  0  0  0  0  0  0  0  0
    0.3411   -0.9007   -0.0206 C   0  0  0  0  0  0  0  0  0  0  0  0
    1.8128   -2.7488    0.9749 C   0  0  0  0  0  0  0  0  0  0  0  0
   -2.0241   -2.7783   -1.0243 C   0  0  0  0  0  0  0  0  0  0  0  0
   -1.8499    2.8826    0.0027 C   0  0  0  0  0  0  0  0  0  0  0  0
   -3.2271    2.7758    0.0187 N   0  0  0  0  0  0  0  0  0  0  0  0
    3.5685    0.7100    7.6879 N   0  0  0  0  0  0  0  0  0  0  0  0
    3.4034   -0.0016    5.5905 N   0  0  0  0  0  0  0  0  0  0  0  0
    0.9734   -2.2471   -0.0325 N   0  0  0  0  0  0  0  0  0  0  0  0
   -2.6540   -1.7825   -1.3520 O   0  0  0  0  0  0  0  0  0  0  0  0
   -1.7464   -3.2686    0.2334 O   0  0  0  0  0  0  0  0  0  0  0  0
   -1.2923    3.9899    0.0280 O   0  0  0  0  0  0  0  0  0  0  0  0
  5  2  2  0
  6  3  1  0
  9  4  2  0
 10  7  1  0
 11  8  1  0
 13 12  2  0
 16  1  1  0
 16 14  1  0
 17  2  1  0
 17  3  2  0
 18  4  1  0
 18 14  2  0
 19  5  1  0
 19  6  2  0
 20  7  2  0
 20  8  1  0
 21  9  1  0
 21 16  2  0
 22 10  2  0
 22 17  1  0
 23 11  1  0
 24 18  1  0
 25 24  1  0
 26 12  1  0
 26 15  2  0
 27 13  1  0
 27 15  1  0
 27 19  1  0
 28 20  1  0
 28 21  1  0
 28 22  1  0
 29 23  2  0
 30 23  1  0
 31 24  2  0
M  END
>  <DRUGBANK_ID>  (1) 
DB12206

>  <COMMON_NAME>  (1) 
N-6022

>  <CAS_NUMBER>  (1) 
1208315-24-5

>  <UNII>  (1) 
80LIU5P95D

$$$$
