
     RDKit          3D

  6  4  0  0  0  0  0  0  0  0999 V2000
    1.0019    0.0703   -0.0711 S   0  0  0  0  0  0  0  0  0  0  0  0
    0.4918   -0.4324    1.2814 O   0  0  0  0  0  0  0  0  0  0  0  0
    0.4918    1.4930   -0.3120 O   0  0  0  0  0  0  0  0  0  0  0  0
    0.4319   -0.9576   -1.3131 O   0  0  0  0  0  0  0  0  0  0  0  0
    2.7119    0.0703   -0.0711 O   0  0  0  0  0  0  0  0  0  0  0  0
    1.0283   -0.0959   -0.0002 Co  0  0  0  0  0 15  0  0  0  0  0  0
  1  2  2  0
  1  3  2  0
  1  4  1  0
  1  5  1  0
M  CHG  3   4  -1   5  -1   6   2
M  END
>  <DRUGBANK_ID>  (1) 
DB15760

>  <COMMON_NAME>  (1) 
Cobaltous sulfate

>  <CAS_NUMBER>  (1) 
10124-43-3

>  <UNII>  (1) 
H7965X29HX

$$$$
