
     RDKit          3D

 21 23  0  0  0  0  0  0  0  0999 V2000
    1.2594    1.4289   -0.0069 C   0  0  0  0  0  0  0  0  0  0  0  0
   -0.0537    0.6650    0.0535 C   0  0  0  0  0  0  0  0  0  0  0  0
    1.1768   -1.4178   -0.0249 N   0  0  0  0  0  0  0  0  0  0  0  0
    2.2974   -0.7901    0.0184 C   0  0  0  0  0  0  0  0  0  0  0  0
    2.4311    0.5554    0.1044 O   0  0  0  0  0  0  0  0  0  0  0  0
   -0.0207   -0.7173    0.0106 C   0  0  0  0  0  0  0  0  0  0  0  0
   -1.3077    1.3111    0.1090 C   0  0  0  0  0  0  0  0  0  0  0  0
    1.3498    2.2235   -1.3321 C   0  0  0  0  0  0  0  0  0  0  0  0
   -1.2218   -1.4352    0.0028 C   0  0  0  0  0  0  0  0  0  0  0  0
    3.5110   -1.4205   -0.0161 N   0  0  0  0  0  0  0  0  0  0  0  0
   -2.4947    0.5997    0.0488 C   0  0  0  0  0  0  0  0  0  0  0  0
    1.3409    2.3400    1.2302 C   0  0  0  0  0  0  0  0  0  0  0  0
   -2.4581   -0.7815    0.0079 C   0  0  0  0  0  0  0  0  0  0  0  0
   -3.9857    1.4540    0.0173 Cl  0  0  0  0  0  0  0  0  0  0  0  0
    0.3701    3.1703   -1.6977 C   0  0  0  0  0  0  0  0  0  0  0  0
    2.3355    1.9350   -2.2864 C   0  0  0  0  0  0  0  0  0  0  0  0
    3.6487   -2.8641    0.0029 C   0  0  0  0  0  0  0  0  0  0  0  0
    4.3843   -3.3610   -1.2291 C   0  0  0  0  0  0  0  0  0  0  0  0
    2.2964    2.5136   -3.5575 C   0  0  0  0  0  0  0  0  0  0  0  0
    0.2323    3.6091   -3.0126 C   0  0  0  0  0  0  0  0  0  0  0  0
    1.2039    3.2837   -3.9445 C   0  0  0  0  0  0  0  0  0  0  0  0
  2  1  1  0
  3  4  2  0
  4  5  1  0
  5  1  1  0
  6  2  2  0
  6  3  1  0
  7  2  1  0
  8  1  1  0
  9  6  1  0
  9 13  2  0
 10  4  1  0
 11  7  2  0
 12  1  1  0
 13 11  1  0
 14 11  1  0
 15  8  2  0
 16  8  1  0
 17 10  1  0
 18 17  1  0
 19 16  2  0
 20 15  1  0
 20 21  2  0
 21 19  1  0
M  END
>  <DRUGBANK_ID>  (1) 
DB08986

>  <COMMON_NAME>  (1) 
Etifoxine

>  <CAS_NUMBER>  (1) 
21715-46-8

>  <UNII>  (1) 
X24X82MX4X

>  <SYNONYMS>  (1) 
Etifoxina; Etifoxine; Etifoxinum

$$$$
