
     RDKit          3D

 20 19  0  0  1  0  0  0  0  0999 V2000
   -0.4433   -0.3577    5.8336 O   0  0  0  0  0  0  0  0  0  0  0  0
    0.4622   -1.3153    5.2379 C   0  0  2  0  0  0  0  0  0  0  0  0
    1.5511   -1.6852    6.2210 C   0  0  0  0  0  0  0  0  0  0  0  0
    3.0358   -1.6402    5.7563 O   0  0  0  0  0  0  0  0  0  0  0  0
    2.7772   -3.2515    5.1820 P   0  0  0  0  0  0  0  0  0  0  0  0
    4.4087   -3.3537    5.2449 O   0  0  0  0  0  0  0  0  0  0  0  0
    2.5865   -3.8906    6.6885 O   0  0  0  0  0  0  0  0  0  0  0  0
    2.5458   -4.6936    4.6681 O   0  0  0  0  0  0  0  0  0  0  0  0
    0.9541   -0.7450    3.8863 C   0  0  2  0  0  0  0  0  0  0  0  0
    2.3590   -0.8623    3.6118 O   0  0  0  0  0  0  0  0  0  0  0  0
    0.5296    0.6947    3.5370 C   0  0  2  0  0  0  0  0  0  0  0  0
    0.9866    0.9692    2.2114 O   0  0  0  0  0  0  0  0  0  0  0  0
    1.1007    1.7963    4.4346 C   0  0  0  0  0  0  0  0  0  0  0  0
    0.3440    2.5341    5.1174 O   0  0  0  0  0  0  0  0  0  0  0  0
    2.6188    1.9427    4.5992 C   0  0  0  0  0  0  0  0  0  0  0  0
    3.1796    0.8372    5.3275 O   0  0  0  0  0  0  0  0  0  0  0  0
    2.4636    0.4962    6.8651 P   0  0  0  0  0  0  0  0  0  0  0  0
    3.9790    0.6627    7.4568 O   0  0  0  0  0  0  0  0  0  0  0  0
    2.0942    2.0865    7.0301 O   0  0  0  0  0  0  0  0  0  0  0  0
    1.8228    0.1910    8.2411 O   0  0  0  0  0  0  0  0  0  0  0  0
  2  3  1  0
  2  1  1  1
  3  4  1  0
  4  5  1  0
  5  6  1  0
  5  7  1  0
  5  8  2  0
  9 10  1  1
  9  2  1  0
 11 13  1  0
 11 12  1  6
 11  9  1  0
 13 14  2  0
 13 15  1  0
 15 16  1  0
 16 17  1  0
 17 18  1  0
 17 19  1  0
 17 20  2  0
M  END
>  <DRUGBANK_ID>  (1) 
DB02512

>  <SECONDARY_ACCESSION_NUMBERS>  (1) 
EXPT00120

>  <COMMON_NAME>  (1) 
1,6-Fructose Diphosphate (Linear Form)

$$$$
