
     RDKit          3D

  8  7  0  0  1  0  0  0  0  0999 V2000
    0.9507   -0.0026    0.0548 C   0  0  0  0  0  0  0  0  0  0  0  0
    0.4029   -1.4202   -0.1056 C   0  0  1  0  0  0  0  0  0  0  0  0
    0.8771   -2.1728    1.0166 O   0  0  0  0  0  0  0  0  0  0  0  0
   -1.1417   -1.4429   -0.1279 C   0  0  1  0  0  0  0  0  0  0  0  0
   -1.6841   -0.5962   -1.2137 N   0  0  0  0  0  0  0  0  0  0  0  0
   -1.6154   -2.8967   -0.3327 C   0  0  0  0  0  0  0  0  0  0  0  0
   -2.4110   -3.3762    0.6569 O   0  0  0  0  0  0  0  0  0  0  0  0
   -1.3572   -3.5781   -1.3198 O   0  0  0  0  0  0  0  0  0  0  0  0
  2  1  1  1
  2  3  1  0
  2  4  1  0
  4  5  1  6
  4  6  1  0
  6  7  1  0
  6  8  2  0
M  END
>  <DRUGBANK_ID>  (1) 
DB03700

>  <SECONDARY_ACCESSION_NUMBERS>  (1) 
EXPT01284

>  <COMMON_NAME>  (1) 
D-Threonine

>  <CAS_NUMBER>  (1) 
632-20-2

>  <UNII>  (1) 
0756UWA0SA

$$$$
