998
     RDKit          3D

 18 20  0  0  1  0  0  0  0  0999 V2000
    1.0460    0.1588   -0.0472 O   0  0  0  0  0  0  0  0  0  0  0  0
    4.9835    0.0387   -4.9773 N   0  0  0  0  0  0  0  0  0  0  0  0
    1.8805    4.2250   -7.0284 N   0  0  0  0  0  0  0  0  0  0  0  0
    2.9873    0.0646    1.1106 N   0  0  0  0  0  0  0  0  0  0  0  0
    2.8715    3.2954   -6.4422 C   0  0  1  0  0  0  0  0  0  0  0  0
    2.2624    2.3856   -5.3402 C   0  0  0  0  0  0  0  0  0  0  0  0
    3.5046    2.4323   -7.5691 C   0  0  0  0  0  0  0  0  0  0  0  0
    3.2406    1.3906   -4.8754 C   0  0  0  0  0  0  0  0  0  0  0  0
    4.5630    1.4238   -7.0660 C   0  0  0  0  0  0  0  0  0  0  0  0
    4.2585    0.9519   -5.6869 C   0  0  0  0  0  0  0  0  0  0  0  0
    3.3525    0.7544   -3.6139 C   0  0  0  0  0  0  0  0  0  0  0  0
    4.4538   -0.0972   -3.7079 C   0  0  0  0  0  0  0  0  0  0  0  0
    2.6295    0.8190   -2.4023 C   0  0  0  0  0  0  0  0  0  0  0  0
    4.8617   -0.9091   -2.6458 C   0  0  0  0  0  0  0  0  0  0  0  0
    3.0418    0.0265   -1.3208 C   0  0  0  0  0  0  0  0  0  0  0  0
    0.9057    4.6804   -6.0402 C   0  0  0  0  0  0  0  0  0  0  0  0
    4.1353   -0.8352   -1.4502 C   0  0  0  0  0  0  0  0  0  0  0  0
    2.2706    0.0813   -0.0537 C   0  0  0  0  0  0  0  0  0  0  0  0
  1 18  2  0
  2 10  1  0
  2 12  1  0
  3 16  1  0
  4 18  1  0
  5  6  1  0
  5  7  1  0
  5  3  1  6
  6  8  1  0
  7  9  1  0
  8 10  2  0
  8 11  1  0
  9 10  1  0
 11 12  2  0
 11 13  1  0
 12 14  1  0
 13 15  2  0
 14 17  2  0
 15 17  1  0
 15 18  1  0
M  END
>  <DRUGBANK_ID>  (1) 
DB00998

>  <SECONDARY_ACCESSION_NUMBERS>  (1) 
APRD00270

>  <COMMON_NAME>  (1) 
Frovatriptan

>  <CAS_NUMBER>  (1) 
158747-02-5

>  <UNII>  (1) 
H82Q2D5WA7

>  <SYNONYMS>  (1) 
Frovatriptan

$$$$
