I45
     RDKit          3D

 30 32  0  0  0  0  0  0  0  0999 V2000
    1.2181   -1.1619   -0.2753 C   0  0  0  0  0  0  0  0  0  0  0  0
    1.1941    0.2395   -0.2650 C   0  0  0  0  0  0  0  0  0  0  0  0
   -0.0063    0.9422   -0.2725 C   0  0  0  0  0  0  0  0  0  0  0  0
   -1.2012    0.2337   -0.3204 C   0  0  0  0  0  0  0  0  0  0  0  0
   -1.2101   -1.1606   -0.3979 C   0  0  0  0  0  0  0  0  0  0  0  0
    0.0029   -1.8643   -0.3845 C   0  0  0  0  0  0  0  0  0  0  0  0
    2.4940   -1.8926    0.0618 C   0  0  0  0  0  0  0  0  0  0  0  0
    2.3855   -2.6658    1.2892 O   0  0  0  0  0  0  0  0  0  0  0  0
    2.4208   -1.9485    2.4771 C   0  0  0  0  0  0  0  0  0  0  0  0
    1.4285   -1.1956    3.0056 C   0  0  0  0  0  0  0  0  0  0  0  0
    1.6716   -0.4267    4.2506 C   0  0  0  0  0  0  0  0  0  0  0  0
    2.6585   -0.9382    5.0857 N   0  0  0  0  0  0  0  0  0  0  0  0
    3.5360   -1.9283    4.6700 C   0  0  0  0  0  0  0  0  0  0  0  0
    3.4753   -2.3849    3.4001 C   0  0  0  0  0  0  0  0  0  0  0  0
    2.7084   -0.3014    6.3493 C   0  0  0  0  0  0  0  0  0  0  0  0
    1.6013   -0.4687    7.1792 C   0  0  0  0  0  0  0  0  0  0  0  0
    1.3404    0.3890    8.2282 C   0  0  0  0  0  0  0  0  0  0  0  0
    2.4205    1.1620    8.6643 C   0  0  0  0  0  0  0  0  0  0  0  0
    3.6497    1.1438    7.9731 C   0  0  0  0  0  0  0  0  0  0  0  0
    3.7608    0.5153    6.7311 C   0  0  0  0  0  0  0  0  0  0  0  0
    2.3366    0.9201   -0.0931 F   0  0  0  0  0  0  0  0  0  0  0  0
   -2.3555    0.8847   -0.1202 F   0  0  0  0  0  0  0  0  0  0  0  0
   -0.3885   -1.1242    2.6254 Br  0  0  0  0  0  0  0  0  0  0  0  0
    0.9786    0.5507    4.5128 O   0  0  0  0  0  0  0  0  0  0  0  0
    4.5318   -2.4473    5.6720 C   0  0  0  0  0  0  0  0  0  0  0  0
    0.0055    0.5099    8.9068 C   0  0  0  0  0  0  0  0  0  0  0  0
   -0.1011    1.2313    9.8867 O   0  0  0  0  0  0  0  0  0  0  0  0
   -1.1337   -0.1333    8.4538 N   0  0  0  0  0  0  0  0  0  0  0  0
   -1.3992   -0.9620    7.2994 C   0  0  0  0  0  0  0  0  0  0  0  0
    4.9758    0.6791    5.8695 C   0  0  0  0  0  0  0  0  0  0  0  0
  1  2  2  0
  1  6  1  0
  1  7  1  0
  2  3  1  0
  2 21  1  0
  3  4  2  0
  4  5  1  0
  4 22  1  0
  5  6  2  0
  7  8  1  0
  8  9  1  0
  9 10  2  0
  9 14  1  0
 10 11  1  0
 10 23  1  0
 11 12  1  0
 11 24  2  0
 12 13  1  0
 12 15  1  0
 13 14  2  0
 13 25  1  0
 15 16  2  0
 15 20  1  0
 16 17  1  0
 17 18  2  0
 17 26  1  0
 18 19  1  0
 19 20  2  0
 20 30  1  0
 26 27  2  0
 26 28  1  0
 28 29  1  0
M  END
>  <DRUGBANK_ID>  (1) 
DB07941

>  <SECONDARY_ACCESSION_NUMBERS>  (1) 
DB11722

>  <COMMON_NAME>  (1) 
PH-797804

>  <CAS_NUMBER>  (1) 
586379-66-0

>  <UNII>  (1) 
SI09I1V827

$$$$
