
     RDKit          3D

 25 24  0  0  0  0  0  0  0  0999 V2000
    0.9716    0.0283    0.0252 C   0  0  0  0  0  0  0  0  0  0  0  0
   -1.6348   -3.8227    0.5188 C   0  0  0  0  0  0  0  0  0  0  0  0
    0.4952   -1.2031   -0.7324 C   0  0  0  0  0  0  0  0  0  0  0  0
   -1.0818   -2.6505    1.3108 C   0  0  0  0  0  0  0  0  0  0  0  0
    1.0021   -2.4986   -0.1014 C   0  0  0  0  0  0  0  0  0  0  0  0
    0.4456   -2.7836    1.2926 C   0  0  0  0  0  0  0  0  0  0  0  0
    0.5268    0.1021    1.4837 C   0  0  0  0  0  0  0  0  0  0  0  0
    1.0152    1.3079    2.2267 C   0  0  0  0  0  0  0  0  0  0  0  0
   -1.1437   -5.1168    1.1714 C   0  0  0  0  0  0  0  0  0  0  0  0
   -1.6197   -5.1597    2.6289 C   0  0  0  0  0  0  0  0  0  0  0  0
    0.4201    2.5363    1.5930 C   0  0  0  0  0  0  0  0  0  0  0  0
   -1.1147    2.4589    1.6282 C   0  0  0  0  0  0  0  0  0  0  0  0
   -3.1488   -5.1440    2.6458 C   0  0  0  0  0  0  0  0  0  0  0  0
   -3.6704   -6.3432    1.8490 C   0  0  0  0  0  0  0  0  0  0  0  0
   -1.6201    2.3359    3.0719 C   0  0  0  0  0  0  0  0  0  0  0  0
   -1.1213    3.5249    3.8982 C   0  0  0  0  0  0  0  0  0  0  0  0
   -3.1586   -7.6457    2.4751 C   0  0  0  0  0  0  0  0  0  0  0  0
   -3.6634   -7.7812    3.9154 C   0  0  0  0  0  0  0  0  0  0  0  0
   -1.6603    4.8443    3.3332 C   0  0  0  0  0  0  0  0  0  0  0  0
   -3.1887    4.8780    3.3135 C   0  0  0  0  0  0  0  0  0  0  0  0
   -5.1915   -7.7680    3.9659 C   0  0  0  0  0  0  0  0  0  0  0  0
   -5.7551   -8.9247    3.1568 C   0  0  0  0  0  0  0  0  0  0  0  0
   -3.7557    4.7138    4.7129 C   0  0  0  0  0  0  0  0  0  0  0  0
   -4.4835    5.7705    5.1343 O   0  0  0  0  0  0  0  0  0  0  0  0
   -3.5944    3.7383    5.4132 O   0  0  0  0  0  0  0  0  0  0  0  0
  3  1  1  0
  4  2  1  0
  5  3  1  0
  6  4  1  0
  6  5  1  0
  7  1  1  0
  8  7  1  0
  9  2  1  0
 10  9  1  0
 11  8  1  0
 12 11  1  0
 13 10  1  0
 14 13  1  0
 15 12  1  0
 16 15  1  0
 17 14  1  0
 18 17  1  0
 19 16  1  0
 20 19  1  0
 20 23  1  0
 21 18  1  0
 22 21  1  0
 23 24  1  0
 23 25  2  0
M  END
>  <DRUGBANK_ID>  (1) 
DB03500

>  <SECONDARY_ACCESSION_NUMBERS>  (1) 
EXPT01377

>  <COMMON_NAME>  (1) 
Tricosanoic acid

>  <CAS_NUMBER>  (1) 
2433-96-7

>  <UNII>  (1) 
MUC9A0MS6V

>  <SYNONYMS>  (1) 
n-Tricosanoic acid

$$$$
