
     RDKit          3D

 29 32  0  0  1  0  0  0  0  0999 V2000
    2.5676   -1.9005    0.0236 C   0  0  0  0  0  0  0  0  0  0  0  0
   -0.5224   -2.1935   -0.3629 C   0  0  0  0  0  0  0  0  0  0  0  0
    3.6895    0.2446   -0.4422 C   0  0  1  0  0  0  0  0  0  0  0  0
    1.5679    1.7214   -0.4035 C   0  0  0  0  0  0  0  0  0  0  0  0
    3.9524   -1.2413   -0.1227 C   0  0  0  0  0  0  0  0  0  0  0  0
   -2.0578    0.1052   -0.3890 C   0  0  0  0  0  0  0  0  0  0  0  0
    0.0609    1.6656   -0.0711 C   0  0  0  0  0  0  0  0  0  0  0  0
   -1.9324   -2.3332    0.2021 C   0  0  0  0  0  0  0  0  0  0  0  0
   -2.7368   -1.1010   -0.0217 C   0  0  0  0  0  0  0  0  0  0  0  0
   -2.8300    1.1152   -0.8228 C   0  0  0  0  0  0  0  0  0  0  0  0
   -4.1717   -1.2301    0.0933 C   0  0  0  0  0  0  0  0  0  0  0  0
   -4.1761    0.8344   -0.8331 C   0  0  0  0  0  0  0  0  0  0  0  0
    0.1546   -0.8994    0.1108 C   0  0  2  0  0  0  0  0  0  0  0  0
   -0.5713    0.3007   -0.5114 C   0  0  1  0  0  0  0  0  0  0  0  0
    2.2943    0.4934    0.1551 C   0  0  2  0  0  0  0  0  0  0  0  0
    2.3551    0.6086    1.6986 C   0  0  0  0  0  0  0  0  0  0  0  0
    1.6000   -0.7904   -0.3494 C   0  0  1  0  0  0  0  0  0  0  0  0
   -6.2486    0.2974    0.1263 O   0  0  0  0  0  0  0  0  0  0  0  0
   -4.9161   -0.2019   -0.3763 C   0  0  0  0  0  0  0  0  0  0  0  0
    4.6955    1.1073    0.0460 O   0  0  0  0  0  0  0  0  0  0  0  0
   -6.9664    1.6428    0.3321 C   0  0  0  0  0  0  0  0  0  0  0  0
   -6.3450    2.9521    0.2314 N   0  0  0  0  0  0  0  0  0  0  0  0
   -7.1294    4.1861    0.2110 C   0  0  0  0  0  0  0  0  0  0  0  0
   -6.7067    5.2162    1.2972 C   0  0  0  0  0  0  0  0  0  0  0  0
   -4.9225    3.2710    0.1774 C   0  0  0  0  0  0  0  0  0  0  0  0
   -4.1438    2.8719    1.4922 C   0  0  0  0  0  0  0  0  0  0  0  0
   -5.1375    6.1031    1.1489 Cl  0  0  0  0  0  0  0  0  0  0  0  0
   -4.6041    1.4023    2.4342 Cl  0  0  0  0  0  0  0  0  0  0  0  0
   -8.1927    1.5681    0.6224 O   0  0  0  0  0  0  0  0  0  0  0  0
  2  8  1  0
  3  5  1  0
  3 20  1  1
  4  7  1  0
  5  1  1  0
  6  9  2  0
  6 10  1  0
  8  9  1  0
  9 11  1  0
 10 12  2  0
 11 19  2  0
 12 19  1  0
 13 14  1  0
 13  2  1  6
 14  6  1  0
 14  7  1  1
 15  3  1  0
 15  4  1  0
 15 16  1  1
 17 13  1  0
 17 15  1  0
 17  1  1  1
 18 21  1  0
 19 18  1  0
 21 22  1  0
 21 29  2  0
 22 23  1  0
 22 25  1  0
 23 24  1  0
 24 27  1  0
 25 26  1  0
 26 28  1  0
M  END
>  <DRUGBANK_ID>  (1) 
DB01196

>  <SECONDARY_ACCESSION_NUMBERS>  (1) 
APRD00625

>  <COMMON_NAME>  (1) 
Estramustine

>  <CAS_NUMBER>  (1) 
2998-57-4

>  <UNII>  (1) 
35LT29625A

>  <SYNONYMS>  (1) 
17Î²-Estradiol 3-(bis(2-chloroethyl)carbamate); Estradiol 3-(N,N-bis(2-chloroethyl)carbamate); Estramustina; Estramustine; Estramustinum

$$$$
