
     RDKit          3D

 17 20  0  0  1  0  0  0  0  0999 V2000
    2.6812   -1.2102   -0.1636 C   0  0  0  0  0  0  0  0  0  0  0  0
    3.0646    0.0171    0.3350 C   0  0  0  0  0  0  0  0  0  0  0  0
    2.1502    1.0913    0.4040 C   0  0  0  0  0  0  0  0  0  0  0  0
    0.8223    0.9661   -0.0687 C   0  0  0  0  0  0  0  0  0  0  0  0
    0.4437   -0.3111   -0.5445 C   0  0  0  0  0  0  0  0  0  0  0  0
    1.3755   -1.3734   -0.6108 C   0  0  0  0  0  0  0  0  0  0  0  0
   -1.0024   -0.6103   -0.9097 C   0  0  1  0  0  0  0  0  0  0  0  0
   -1.5857   -1.8261   -0.1627 C   0  0  0  0  0  0  0  0  0  0  0  0
   -2.3778   -1.2898    1.0304 C   0  0  0  0  0  0  0  0  0  0  0  0
   -2.3087    0.2239    0.9459 C   0  0  0  0  0  0  0  0  0  0  0  0
   -1.9647    0.5138   -0.5187 C   0  0  1  0  0  0  0  0  0  0  0  0
   -1.3375    1.8738   -0.7404 C   0  0  0  0  0  0  0  0  0  0  0  0
   -0.1221    1.9870    0.0526 N   0  0  0  0  0  0  0  0  0  0  0  0
   -0.0340    3.1358    0.9717 C   0  0  0  0  0  0  0  0  0  0  0  0
    0.4189    2.7404    2.3992 C   0  0  0  0  0  0  0  0  0  0  0  0
    1.7292    2.0728    2.5345 N   0  0  0  0  0  0  0  0  0  0  0  0
    2.5182    2.2395    1.3021 C   0  0  0  0  0  0  0  0  0  0  0  0
  1  2  2  0
  1  6  1  0
  2  3  1  0
  3  4  2  0
  3 17  1  0
  4  5  1  0
  4 13  1  0
  5  6  2  0
  5  7  1  0
  7  8  1  1
  7 11  1  0
  8  9  1  0
  9 10  1  0
 11 10  1  1
 11 12  1  0
 12 13  1  0
 13 14  1  0
 14 15  1  0
 15 16  1  0
 16 17  1  0
M  END
>  <DRUGBANK_ID>  (1) 
DB12071

>  <COMMON_NAME>  (1) 
Vabicaserin

>  <CAS_NUMBER>  (1) 
887258-95-9

>  <UNII>  (1) 
WD9550HPNL

>  <SYNONYMS>  (1) 
Vabicaserin

$$$$
