
     RDKit          3D

 25 27  0  0  0  0  0  0  0  0999 V2000
    0.5218    0.2652   -1.0419 C   0  0  2  0  0  0  0  0  0  0  0  0
    2.2969   -0.2721    2.3725 C   0  0  0  0  0  0  0  0  0  0  0  0
    1.4806    0.9656   -3.4037 N   0  0  0  0  0  0  0  0  0  0  0  0
    1.6748    0.1457   -0.0121 C   0  0  0  0  0  0  0  0  0  0  0  0
    1.0510    0.6238   -2.3898 C   0  0  0  0  0  0  0  0  0  0  0  0
   -3.1889   -0.2752   -0.6080 C   0  0  0  0  0  0  0  0  0  0  0  0
    1.3938   -0.1158    1.3305 C   0  0  0  0  0  0  0  0  0  0  0  0
    1.8918   -0.4531    3.6682 O   0  0  0  0  0  0  0  0  0  0  0  0
    3.6404   -0.2057    2.0399 C   0  0  0  0  0  0  0  0  0  0  0  0
   -2.0672   -0.2659    0.3766 C   0  0  1  0  0  0  0  0  0  0  0  0
   -0.4808    1.4166   -0.7010 C   0  0  0  0  0  0  0  0  0  0  0  0
   -0.2259   -1.1039   -1.1406 C   0  0  0  0  0  0  0  0  0  0  0  0
   -3.1072    0.0204   -1.7856 O   0  0  0  0  0  0  0  0  0  0  0  0
    3.0249    0.2609   -0.3064 C   0  0  0  0  0  0  0  0  0  0  0  0
    3.9870    0.1310    0.7144 C   0  0  0  0  0  0  0  0  0  0  0  0
   -1.1139   -1.4203    0.0609 C   0  0  0  0  0  0  0  0  0  0  0  0
   -1.4359    1.1209    0.4320 C   0  0  0  0  0  0  0  0  0  0  0  0
   -4.3464   -0.6763   -0.0577 O   0  0  0  0  0  0  0  0  0  0  0  0
    0.5263   -0.4672    4.0881 C   0  0  0  0  0  0  0  0  0  0  0  0
    4.6967   -0.4569    2.8775 O   0  0  0  0  0  0  0  0  0  0  0  0
    4.3700   -0.9741    4.1681 C   0  0  0  0  0  0  0  0  0  0  0  0
   -0.2466   -1.6841    3.5878 C   0  0  0  0  0  0  0  0  0  0  0  0
   -0.2822    0.7757    3.7337 C   0  0  0  0  0  0  0  0  0  0  0  0
   -1.7271    0.2882    3.6875 C   0  0  0  0  0  0  0  0  0  0  0  0
   -1.7017   -1.2484    3.5508 C   0  0  0  0  0  0  0  0  0  0  0  0
  1  5  1  6
  1  4  1  0
  2  7  2  0
  3  5  3  0
  7  4  1  0
  8  2  1  0
  9 15  2  0
  9  2  1  0
 10 17  1  0
 10  6  1  6
 11  1  1  0
 12  1  1  0
 13  6  2  0
 14  4  2  0
 15 14  1  0
 16 12  1  0
 16 10  1  0
 17 11  1  0
 18  6  1  0
 19  8  1  0
 20  9  1  0
 21 20  1  0
 22 19  1  0
 23 19  1  0
 24 23  1  0
 24 25  1  0
 25 22  1  0
M  END
>  <DRUGBANK_ID>  (1) 
DB03849

>  <SECONDARY_ACCESSION_NUMBERS>  (1) 
EXPT00920

>  <COMMON_NAME>  (1) 
Cilomilast

>  <CAS_NUMBER>  (1) 
153259-65-5

>  <UNII>  (1) 
8ATB1C1R6X

>  <SYNONYMS>  (1) 
Ariflo; Cilomilast; cis-4-cyano-4-(3-(cyclopentyloxy)-4-methoxyphenyl)cyclohexanecarboxylic acid

$$$$
