
     RDKit          3D

 33 36  0  0  0  0  0  0  0  0999 V2000
   -1.0309    1.2024   -0.5547 C   0  0  2  0  0  0  0  0  0  0  0  0
    0.0384    0.4312    0.1412 C   0  0  1  0  0  0  0  0  0  0  0  0
   -2.5469    1.0683   -0.0636 C   0  0  1  0  0  0  0  0  0  0  0  0
   -1.0997    1.3189   -2.0731 C   0  0  0  0  0  0  0  0  0  0  0  0
   -0.1520   -0.9369   -0.3361 C   0  0  1  0  0  0  0  0  0  0  0  0
    1.5203    0.7915   -0.0688 C   0  0  0  0  0  0  0  0  0  0  0  0
   -2.8920    2.5881   -0.9228 C   0  0  2  0  0  0  0  0  0  0  0  0
   -2.7618   -0.4587   -0.6386 C   0  0  0  0  0  0  0  0  0  0  0  0
   -2.7829    0.9425    1.5646 C   0  0  0  0  0  0  0  0  0  0  0  0
   -2.4058    2.0610   -2.2885 C   0  0  0  0  0  0  0  0  0  0  0  0
    0.8360   -1.7925    0.3814 C   0  0  1  0  0  0  0  0  0  0  0  0
   -1.6212   -1.4311   -0.1788 C   0  0  2  0  0  0  0  0  0  0  0  0
    2.6344   -0.2690    0.6093 C   0  0  0  0  0  0  0  0  0  0  0  0
   -2.1927    3.7097   -0.0834 C   0  0  0  0  0  0  0  0  0  0  0  0
    2.2172   -1.8976    0.7640 C   0  0  0  0  0  0  0  0  0  0  0  0
    0.7366   -1.3695    2.1501 C   0  0  0  0  0  0  0  0  0  0  0  0
    1.0873   -2.9599   -0.7296 C   0  0  0  0  0  0  0  0  0  0  0  0
   -1.9563   -1.6074    1.1705 O   0  0  0  0  0  0  0  0  0  0  0  0
   -1.2926    3.4589    1.1271 C   0  0  0  0  0  0  0  0  0  0  0  0
   -2.4834    4.9054   -0.1578 O   0  0  0  0  0  0  0  0  0  0  0  0
    2.0700   -3.1436    1.5382 C   0  0  0  0  0  0  0  0  0  0  0  0
   -0.0660   -2.4078    2.8404 C   0  0  0  0  0  0  0  0  0  0  0  0
    0.3850   -3.5034    1.9046 C   0  0  0  0  0  0  0  0  0  0  0  0
   -0.3374   -4.2832    1.3530 O   0  0  0  0  0  0  0  0  0  0  0  0
   -4.1400    3.3528   -1.4649 O   0  0  0  0  0  0  0  0  0  0  0  0
   -4.7972    4.5492   -1.1050 C   0  0  0  0  0  0  0  0  0  0  0  0
   -5.3273    5.2976   -1.9182 O   0  0  0  0  0  0  0  0  0  0  0  0
   -4.9157    4.8307    0.3825 C   0  0  0  0  0  0  0  0  0  0  0  0
   -4.9045    3.4741    1.0548 C   0  0  0  0  0  0  0  0  0  0  0  0
   -0.0254    3.0218    1.4741 O   0  0  0  0  0  0  0  0  0  0  0  0
    0.9050    3.9135    0.9836 C   0  0  0  0  0  0  0  0  0  0  0  0
    0.7408    4.1769   -0.5267 C   0  0  0  0  0  0  0  0  0  0  0  0
    1.7480    4.3925    1.6742 O   0  0  0  0  0  0  0  0  0  0  0  0
  1  2  1  0
  1  3  1  0
  1  4  1  6
  2  5  1  0
  2  6  1  6
  3  7  1  0
  3  8  1  0
  3  9  1  1
  4 10  1  0
  5 11  1  0
  5 12  1  1
  6 13  1  0
  7 10  1  0
  7 25  1  6
  7 14  1  0
  8 12  1  0
 11 15  1  0
 11 16  1  0
 11 17  1  1
 12 18  1  1
 13 15  1  0
 14 19  1  0
 14 20  2  0
 15 21  2  0
 16 22  1  0
 19 30  1  0
 21 23  1  0
 22 23  1  0
 23 24  2  0
 25 26  1  0
 26 27  2  0
 26 28  1  0
 28 29  1  0
 30 31  1  0
 31 32  1  0
 31 33  2  0
M  END
>  <DRUGBANK_ID>  (1) 
DB14538

>  <SECONDARY_ACCESSION_NUMBERS>  (1) 
DBSALT001278

>  <COMMON_NAME>  (1) 
Hydrocortisone aceponate

>  <CAS_NUMBER>  (1) 
74050-20-7

>  <UNII>  (1) 
2340UP1L2G

>  <SYNONYMS>  (1) 
Hydrocortisone aceponate

$$$$
