
     RDKit          3D

 33 35  0  0  0  0  0  0  0  0999 V2000
   -2.2324    0.3070   -2.0220 C   0  0  1  0  0  0  0  0  0  0  0  0
    0.6952   -2.6656    1.6307 C   0  0  0  0  0  0  0  0  0  0  0  0
    1.1554   -1.2955    1.9527 C   0  0  0  0  0  0  0  0  0  0  0  0
   -2.2800    0.0922   -0.4929 C   0  0  2  0  0  0  0  0  0  0  0  0
   -3.4036    1.3178   -2.1973 C   0  0  2  0  0  0  0  0  0  0  0  0
   -0.4495   -2.9947    0.9860 C   0  0  0  0  0  0  0  0  0  0  0  0
    2.5635   -0.9665    1.4475 C   0  0  2  0  0  0  0  0  0  0  0  0
   -1.2486   -0.9357   -0.1323 C   0  0  0  0  0  0  0  0  0  0  0  0
   -1.4830   -2.0837    0.5313 C   0  0  0  0  0  0  0  0  0  0  0  0
   -3.7668   -0.1034   -0.2016 C   0  0  0  0  0  0  0  0  0  0  0  0
   -4.4562    0.8925   -1.1421 C   0  0  0  0  0  0  0  0  0  0  0  0
    3.5673   -2.0069    1.9147 C   0  0  0  0  0  0  0  0  0  0  0  0
    1.6951   -3.7413    1.9910 C   0  0  0  0  0  0  0  0  0  0  0  0
    3.1267   -3.4197    1.5341 C   0  0  1  0  0  0  0  0  0  0  0  0
    0.3477   -0.3722    2.5105 C   0  0  0  0  0  0  0  0  0  0  0  0
   -1.4619    2.6596   -6.2398 C   0  0  0  0  0  0  0  0  0  0  0  0
   -2.4043    1.8792   -5.5300 C   0  0  0  0  0  0  0  0  0  0  0  0
   -0.9240    2.2839   -7.4196 C   0  0  0  0  0  0  0  0  0  0  0  0
   -0.1398    3.2160   -8.3070 C   0  0  0  0  0  0  0  0  0  0  0  0
   -3.0619    2.3466   -4.4469 C   0  0  0  0  0  0  0  0  0  0  0  0
   -4.0086    1.5218   -3.6113 C   0  0  1  0  0  0  0  0  0  0  0  0
   -0.8598    0.8979   -2.4172 C   0  0  0  0  0  0  0  0  0  0  0  0
    2.9926    0.3299    1.8558 O   0  0  0  0  0  0  0  0  0  0  0  0
   -2.4027   -1.0777   -2.7097 C   0  0  0  0  0  0  0  0  0  0  0  0
    1.1847    2.6646   -8.3791 O   0  0  0  0  0  0  0  0  0  0  0  0
    3.2706   -3.6272    0.1265 O   0  0  0  0  0  0  0  0  0  0  0  0
    0.1260   -0.5059   -0.6211 C   0  0  0  0  0  0  0  0  0  0  0  0
    0.2523   -0.0690   -2.0629 C   0  0  0  0  0  0  0  0  0  0  0  0
   -0.6849    3.1981   -9.7569 C   0  0  0  0  0  0  0  0  0  0  0  0
   -0.0191    4.6575   -7.7409 C   0  0  0  0  0  0  0  0  0  0  0  0
   -4.3979    0.2247   -4.3243 C   0  0  0  0  0  0  0  0  0  0  0  0
   -1.3245    5.4479   -7.5690 C   0  0  0  0  0  0  0  0  0  0  0  0
   -2.1333    3.6353   -9.9388 C   0  0  0  0  0  0  0  0  0  0  0  0
  1 24  1  6
  2  6  2  0
  3  2  1  0
  4  1  1  0
  5  1  1  0
  5 11  1  1
  5 21  1  0
  6  9  1  0
  7  3  1  0
  7 23  1  1
  7 12  1  0
  8  4  1  0
  8 27  1  0
  9  8  2  0
  4 10  1  6
 10 11  1  0
 12 14  1  0
 13  2  1  0
 14 13  1  0
 14 26  1  6
 15  3  2  0
 16 17  1  0
 17 20  2  0
 18 16  2  0
 19 18  1  0
 20 21  1  0
 21 31  1  6
 22  1  1  0
 25 19  1  0
 27 28  1  0
 28 22  1  0
 29 19  1  0
 30 19  1  0
 32 30  1  0
 33 29  1  0
M  END
>  <DRUGBANK_ID>  (1) 
DB04258

>  <SECONDARY_ACCESSION_NUMBERS>  (1) 
EXPT01322

>  <COMMON_NAME>  (1) 
Seocalcitol

>  <CAS_NUMBER>  (1) 
134404-52-7

>  <UNII>  (1) 
Q0OZ0D9223

>  <SYNONYMS>  (1) 
(5Z,7E,22E,24E)-(1S,3R)-26,27-dimethyl-24a-homo-9,10-seco-5,7,10(19),22,24-cholestapentaene-1,3,25-triol; Seocalcitol

$$$$
