
     RDKit          3D

 41 45  0  0  0  0  0  0  0  0999 V2000
   -1.1848    1.3584    0.0058 N   0  0  0  0  0  0  0  0  0  0  0  0
   -0.0283    0.6807    0.1124 C   0  0  0  0  0  0  0  0  0  0  0  0
    0.0060   -0.7313    0.1976 C   0  0  0  0  0  0  0  0  0  0  0  0
   -1.2028   -1.4292    0.0830 C   0  0  0  0  0  0  0  0  0  0  0  0
   -2.3975   -0.7272   -0.0014 C   0  0  0  0  0  0  0  0  0  0  0  0
   -2.3379    0.6531   -0.0117 C   0  0  0  0  0  0  0  0  0  0  0  0
    1.1790    1.3748    0.1131 C   0  0  0  0  0  0  0  0  0  0  0  0
    2.4113    0.7169    0.2153 C   0  0  0  0  0  0  0  0  0  0  0  0
    2.4268   -0.6812    0.3087 C   0  0  0  0  0  0  0  0  0  0  0  0
    1.2299   -1.4097    0.3302 C   0  0  0  0  0  0  0  0  0  0  0  0
    3.6479   -1.3489    0.0638 N   0  0  0  0  0  0  0  0  0  0  0  0
    4.0016   -2.2479   -0.9689 C   0  0  0  0  0  0  0  0  0  0  0  0
    5.2618   -2.6944   -0.6099 C   0  0  0  0  0  0  0  0  0  0  0  0
    5.6075   -2.0312    0.6042 C   0  0  0  0  0  0  0  0  0  0  0  0
    4.6520   -1.1685    0.9566 N   0  0  0  0  0  0  0  0  0  0  0  0
    0.1168   -1.9394   -3.9264 C   0  0  0  0  0  0  0  0  0  0  0  0
    1.4121   -2.5241   -3.6446 N   0  0  0  0  0  0  0  0  0  0  0  0
    2.1877   -1.9629   -2.6521 C   0  0  0  0  0  0  0  0  0  0  0  0
    3.3421   -2.6599   -2.1745 N   0  0  0  0  0  0  0  0  0  0  0  0
   -2.2519   -2.1504   -4.5266 C   0  0  0  0  0  0  0  0  0  0  0  0
   -2.4798   -0.7791   -4.3091 C   0  0  0  0  0  0  0  0  0  0  0  0
   -1.4088   -0.0098   -3.8918 C   0  0  0  0  0  0  0  0  0  0  0  0
   -0.1470   -0.5662   -3.7525 C   0  0  0  0  0  0  0  0  0  0  0  0
   -0.9640   -2.7306   -4.3367 C   0  0  0  0  0  0  0  0  0  0  0  0
   -3.9432    1.1081   -4.4006 C   0  0  0  0  0  0  0  0  0  0  0  0
   -3.7530   -0.2638   -4.5078 O   0  0  0  0  0  0  0  0  0  0  0  0
   -4.3113    3.8837   -4.0506 N   0  0  0  0  0  0  0  0  0  0  0  0
   -3.4638    3.3776   -4.9803 C   0  0  0  0  0  0  0  0  0  0  0  0
   -3.2680    2.0202   -5.2100 C   0  0  0  0  0  0  0  0  0  0  0  0
   -4.8553    1.5883   -3.4637 C   0  0  0  0  0  0  0  0  0  0  0  0
   -5.0025    2.9721   -3.3135 C   0  0  0  0  0  0  0  0  0  0  0  0
   -5.9587    3.4887   -2.2678 C   0  0  0  0  0  0  0  0  0  0  0  0
   -6.0878    4.8610   -2.1258 N   0  0  0  0  0  0  0  0  0  0  0  0
   -6.9842    5.4461   -1.1484 C   0  0  0  0  0  0  0  0  0  0  0  0
   -6.5846    2.6883   -1.5763 O   0  0  0  0  0  0  0  0  0  0  0  0
    0.8304    0.3247   -3.5427 F   0  0  0  0  0  0  0  0  0  0  0  0
    1.9400   -0.9082   -2.1126 O   0  0  0  0  0  0  0  0  0  0  0  0
    6.8624   -2.1712    1.4694 C   0  0  0  0  0  0  0  0  0  0  0  0
    7.5744   -0.8123    1.6327 C   0  0  0  0  0  0  0  0  0  0  0  0
    6.5061   -2.7005    2.8766 C   0  0  0  0  0  0  0  0  0  0  0  0
    7.8596   -3.1589    0.8336 C   0  0  0  0  0  0  0  0  0  0  0  0
  1  2  2  0
  2  3  1  0
  2  7  1  0
  3  4  2  0
  4  5  1  0
  5  6  2  0
  6  1  1  0
  7  8  2  0
  8  9  1  0
  9 10  2  0
 10  3  1  0
 11 12  1  0
 11  9  1  0
 12 13  2  0
 13 14  1  0
 14 15  2  0
 14 38  1  0
 15 11  1  0
 16 17  1  0
 16 24  2  0
 17 18  1  0
 18 19  1  0
 18 37  2  0
 19 12  1  0
 20 21  2  0
 21 22  1  0
 22 23  2  0
 23 16  1  0
 23 36  1  0
 24 20  1  0
 25 26  1  0
 25 30  1  0
 26 21  1  0
 27 28  2  0
 28 29  1  0
 29 25  2  0
 30 31  2  0
 31 27  1  0
 31 32  1  0
 32 33  1  0
 32 35  2  0
 33 34  1  0
 38 39  1  0
 38 40  1  0
 38 41  1  0
M  END
>  <DRUGBANK_ID>  (1) 
DB13005

>  <COMMON_NAME>  (1) 
Rebastinib

>  <CAS_NUMBER>  (1) 
1020172-07-9

>  <UNII>  (1) 
75017Q6I97

>  <SYNONYMS>  (1) 
Rebastinib

$$$$
