2BF
     RDKit          3D

 19 20  0  0  0  0  0  0  0  0999 V2000
    1.3596   -0.3108   -0.0878 C   0  0  0  0  0  0  0  0  0  0  0  0
    0.4850   -1.3877   -0.0310 C   0  0  0  0  0  0  0  0  0  0  0  0
   -0.8919   -1.1670   -0.0488 C   0  0  0  0  0  0  0  0  0  0  0  0
   -1.3983    0.1339   -0.0366 C   0  0  0  0  0  0  0  0  0  0  0  0
   -0.5265    1.2284   -0.0135 C   0  0  0  0  0  0  0  0  0  0  0  0
    0.8536    0.9845   -0.1341 C   0  0  0  0  0  0  0  0  0  0  0  0
   -1.0577    2.5980    0.3859 C   0  0  1  0  0  0  0  0  0  0  0  0
   -0.5392    6.1570    0.6620 C   0  0  0  0  0  0  0  0  0  0  0  0
   -0.9522    7.4646    0.9389 C   0  0  0  0  0  0  0  0  0  0  0  0
   -0.6105    8.1417    2.1732 C   0  0  0  0  0  0  0  0  0  0  0  0
   -0.0580    7.4729    3.2304 C   0  0  0  0  0  0  0  0  0  0  0  0
    0.3625    6.2315    2.9121 C   0  0  0  0  0  0  0  0  0  0  0  0
    0.4363    5.8435    1.5582 C   0  0  0  0  0  0  0  0  0  0  0  0
   -0.3522    3.1931    1.9661 P   0  0  0  0  0  0  0  0  0  0  0  0
    1.0395    3.3638    1.3929 O   0  0  0  0  0  0  0  0  0  0  0  0
   -1.6150    4.1527    2.2598 O   0  0  0  0  0  0  0  0  0  0  0  0
    0.3147    3.7557    3.4599 O   0  0  0  0  0  0  0  0  0  0  0  0
   -0.6633    3.7266   -0.6063 N   0  0  0  0  0  0  0  0  0  0  0  0
   -1.0655    5.1897   -0.4518 C   0  0  0  0  0  0  0  0  0  0  0  0
  1  2  2  0
  1  6  1  0
  2  3  1  0
  3  4  2  0
  4  5  1  0
  5  6  2  0
  5  7  1  0
  7 14  1  0
  7 18  1  6
  8  9  2  0
  8 13  1  0
  8 19  1  0
  9 10  1  0
 10 11  2  0
 11 12  1  0
 12 13  2  0
 14 15  2  0
 14 16  1  0
 14 17  1  0
 18 19  1  0
M  END
>  <DRUGBANK_ID>  (1) 
DB03577

>  <SECONDARY_ACCESSION_NUMBERS>  (1) 
EXPT00105

>  <COMMON_NAME>  (1) 
Alpha-Benzyl-Aminobenzyl-Phosphonic Acid

$$$$
