
     RDKit          3D

 22 22  0  0  0  0  0  0  0  0999 V2000
    1.1268    0.1424    0.3049 O   0  0  0  0  0  0  0  0  0  0  0  0
    6.5032    1.0605    5.7214 O   0  0  0  0  0  0  0  0  0  0  0  0
    5.7784    3.6181    5.2092 O   0  0  0  0  0  0  0  0  0  0  0  0
    3.0893   -0.3519    1.2230 N   0  0  0  0  0  0  0  0  0  0  0  0
    1.1615   -0.5118   -2.6143 C   0  0  0  0  0  0  0  0  0  0  0  0
    2.6423   -0.6103   -2.2355 C   0  0  0  0  0  0  0  0  0  0  0  0
    0.7509    0.9008   -3.0361 C   0  0  0  0  0  0  0  0  0  0  0  0
    3.0386    0.3806   -1.1464 C   0  0  0  0  0  0  0  0  0  0  0  0
    1.6312    1.9479   -6.6740 C   0  0  0  0  0  0  0  0  0  0  0  0
    1.4962    1.3147   -4.2673 C   0  0  0  0  0  0  0  0  0  0  0  0
    2.3509    0.0604    0.1656 C   0  0  0  0  0  0  0  0  0  0  0  0
    0.8836    1.6035   -5.4196 C   0  0  0  0  0  0  0  0  0  0  0  0
    4.5252   -0.3286    1.3702 C   0  0  0  0  0  0  0  0  0  0  0  0
    4.9283    0.7155    2.3714 C   0  0  0  0  0  0  0  0  0  0  0  0
    1.2783    0.9462   -7.7686 C   0  0  0  0  0  0  0  0  0  0  0  0
    1.2784    3.3673   -7.0970 C   0  0  0  0  0  0  0  0  0  0  0  0
    5.5769    0.3467    3.5582 C   0  0  0  0  0  0  0  0  0  0  0  0
    4.6376    2.0676    2.1324 C   0  0  0  0  0  0  0  0  0  0  0  0
    5.8865    1.3089    4.5216 C   0  0  0  0  0  0  0  0  0  0  0  0
    4.9313    3.0303    3.0917 C   0  0  0  0  0  0  0  0  0  0  0  0
    5.5388    2.6439    4.2787 C   0  0  0  0  0  0  0  0  0  0  0  0
    6.8862   -0.2918    5.9594 C   0  0  0  0  0  0  0  0  0  0  0  0
  1 11  2  0
  2 19  1  0
  2 22  1  0
  3 21  1  0
  4 11  1  0
  4 13  1  0
  5  6  1  0
  5  7  1  0
  6  8  1  0
  7 10  1  0
  8 11  1  0
  9 12  1  0
  9 15  1  0
  9 16  1  0
 10 12  2  0
 13 14  1  0
 14 17  2  0
 14 18  1  0
 17 19  1  0
 18 20  2  0
 19 21  2  0
 20 21  1  0
M  END
>  <DRUGBANK_ID>  (1) 
DB06774

>  <SECONDARY_ACCESSION_NUMBERS>  (1) 
DB05674; DB05318

>  <COMMON_NAME>  (1) 
Capsaicin

>  <CAS_NUMBER>  (1) 
404-86-4

>  <UNII>  (1) 
S07O44R1ZM

>  <SYNONYMS>  (1) 
(E)-8-Methyl-N-vanillyl-6-nonenamide; Capsaicin; Capsaicina; Isodecenoic acid vanillylamide; trans-8-Methyl-N-vanillyl-6-nonenamide

$$$$
