
     RDKit          3D

 15 17  0  0  0  0  0  0  0  0999 V2000
   -2.4529    0.7099    0.0348 C   0  0  0  0  0  0  0  0  0  0  0  0
   -2.4554   -0.6842   -0.0297 C   0  0  0  0  0  0  0  0  0  0  0  0
   -1.2433    1.4069    0.0650 C   0  0  0  0  0  0  0  0  0  0  0  0
   -1.2478   -1.3823   -0.0559 C   0  0  0  0  0  0  0  0  0  0  0  0
    4.8599   -3.0079   -0.9367 C   0  0  0  0  0  0  0  0  0  0  0  0
    5.7051   -1.7600   -0.6740 C   0  0  0  0  0  0  0  0  0  0  0  0
    2.2472    0.6803   -0.3427 C   0  0  0  0  0  0  0  0  0  0  0  0
   -0.0375    0.7090    0.0320 C   0  0  0  0  0  0  0  0  0  0  0  0
   -0.0408   -0.6861   -0.0081 C   0  0  0  0  0  0  0  0  0  0  0  0
    2.2633   -0.6857    0.3321 C   0  0  0  0  0  0  0  0  0  0  0  0
    3.5100   -1.4521   -0.1104 C   0  0  0  0  0  0  0  0  0  0  0  0
    3.4415   -2.5791   -0.7767 N   0  0  0  0  0  0  0  0  0  0  0  0
    4.7880   -1.0067    0.1417 N   0  0  0  0  0  0  0  0  0  0  0  0
    1.1106    1.4562    0.0561 O   0  0  0  0  0  0  0  0  0  0  0  0
    1.0982   -1.4409   -0.0092 O   0  0  0  0  0  0  0  0  0  0  0  0
  2  1  2  0
  3  1  1  0
  4  2  1  0
  6  5  1  0
  8  3  2  0
  9  4  2  0
  9  8  1  0
 10  7  1  0
 11 10  1  0
 12  5  1  0
 12 11  2  0
 13  6  1  0
 13 11  1  0
 14  7  1  0
 14  8  1  0
 15  9  1  0
 15 10  1  0
M  END
>  <DRUGBANK_ID>  (1) 
DB12551

>  <COMMON_NAME>  (1) 
Idazoxan

>  <CAS_NUMBER>  (1) 
79944-58-4

>  <UNII>  (1) 
Y310PA316B

>  <SYNONYMS>  (1) 
Idazoxan; idazoxano

$$$$
