
     RDKit          3D

 16 15  0  0  0  0  0  0  0  0999 V2000
    1.0240   -0.0910   -0.0337 P   0  0  0  0  0  0  0  0  0  0  0  0
    1.0680    1.4731   -0.4441 O   0  0  0  0  0  0  0  0  0  0  0  0
    1.0305   -1.0325   -1.3660 O   0  0  0  0  0  0  0  0  0  0  0  0
    4.1357    1.9361   -0.0829 O   0  0  0  0  0  0  0  0  0  0  0  0
    3.1756   -1.1685   -4.3104 O   0  0  0  0  0  0  0  0  0  0  0  0
   -0.5243   -0.0910   -0.0337 O   0  0  0  0  0  0  0  0  0  0  0  0
    3.5113    0.8979   -5.1451 O   0  0  0  0  0  0  0  0  0  0  0  0
    0.7239    2.6180   -5.4173 O   0  0  0  0  0  0  0  0  0  0  0  0
    1.9300    3.5322   -3.7447 O   0  0  0  0  0  0  0  0  0  0  0  0
    3.1994    1.4223   -2.0690 N   0  0  0  0  0  0  0  0  0  0  0  0
    2.3415    0.7135   -3.0269 C   0  0  1  0  0  0  0  0  0  0  0  0
    0.9954    1.3615   -3.3928 C   0  0  0  0  0  0  0  0  0  0  0  0
    2.8540   -0.0910   -0.0337 C   0  0  0  0  0  0  0  0  0  0  0  0
    3.4439    1.1507   -0.7370 C   0  0  0  0  0  0  0  0  0  0  0  0
    3.0583    0.1845   -4.2560 C   0  0  0  0  0  0  0  0  0  0  0  0
    1.2628    2.6048   -4.1821 C   0  0  0  0  0  0  0  0  0  0  0  0
  1  2  1  0
  1  3  1  0
  1  6  2  0
  1 13  1  0
  4 14  2  0
  5 15  1  0
  7 15  2  0
  8 16  1  0
  9 16  2  0
 10 14  1  0
 11 10  1  0
 11 12  1  6
 11 15  1  0
 12 16  1  0
 13 14  1  0
M  END
>  <DRUGBANK_ID>  (1) 
DB03459

>  <SECONDARY_ACCESSION_NUMBERS>  (1) 
EXPT02494

>  <COMMON_NAME>  (1) 
Sparfosic acid

>  <CAS_NUMBER>  (1) 
51321-79-0

>  <UNII>  (1) 
78QVZ7RG8L

>  <SYNONYMS>  (1) 
ácido esparfósico; Acidum sparfosicum; N-(phosphonacetyl)-L-aspartic acid; N-(phosphonoacetyl)-L-aspartic acid; N-phosphonacetyl-L-aspartic acid; PALA; phosphonoacetyl-L-aspartic acid; Sparfosic acid

$$$$
