
     RDKit          3D

 37 40  0  0  0  0  0  0  0  0999 V2000
    0.4009    0.0236    0.2606 C   0  0  0  0  0  0  0  0  0  0  0  0
   -0.1531   -1.1493   -0.3392 O   0  0  0  0  0  0  0  0  0  0  0  0
    0.4403   -1.5967   -1.4707 C   0  0  0  0  0  0  0  0  0  0  0  0
    1.7735   -1.6842   -1.5929 C   0  0  0  0  0  0  0  0  0  0  0  0
    3.0037   -1.4872   -1.0641 O   0  0  0  0  0  0  0  0  0  0  0  0
    3.2521   -0.5711   -0.0306 C   0  0  0  0  0  0  0  0  0  0  0  0
    1.8612   -1.9150   -2.9158 C   0  0  0  0  0  0  0  0  0  0  0  0
    1.1989   -2.2876   -4.4139 C   0  0  0  0  0  0  0  0  0  0  0  0
    1.7283   -2.4307   -6.0594 C   0  0  0  0  0  0  0  0  0  0  0  0
    3.3695   -2.3159   -6.6871 O   0  0  0  0  0  0  0  0  0  0  0  0
    4.9047   -2.1388   -6.0709 C   0  0  0  0  0  0  0  0  0  0  0  0
    5.5369   -2.9269   -5.0893 C   0  0  0  0  0  0  0  0  0  0  0  0
    6.2758   -2.2714   -4.0103 C   0  0  0  0  0  0  0  0  0  0  0  0
    6.7821   -0.9679   -4.1181 C   0  0  0  0  0  0  0  0  0  0  0  0
    6.5247   -0.3264   -5.3257 C   0  0  0  0  0  0  0  0  0  0  0  0
    7.0915    0.9437   -5.6645 N   0  0  0  0  0  0  0  0  0  0  0  0
    6.9358    1.7570   -6.7782 C   0  0  0  0  0  0  0  0  0  0  0  0
    7.8796    2.4979   -7.0724 O   0  0  0  0  0  0  0  0  0  0  0  0
    5.8397    1.7689   -7.6109 N   0  0  0  0  0  0  0  0  0  0  0  0
    4.5330    1.4053   -7.3523 C   0  0  0  0  0  0  0  0  0  0  0  0
    3.7289    0.7054   -8.1724 N   0  0  0  0  0  0  0  0  0  0  0  0
    2.8705   -0.0108   -7.2854 O   0  0  0  0  0  0  0  0  0  0  0  0
    3.2711    0.2718   -5.9929 C   0  0  0  0  0  0  0  0  0  0  0  0
    4.0514    1.3916   -6.0640 C   0  0  0  0  0  0  0  0  0  0  0  0
    2.8141   -0.4779   -4.7132 C   0  0  0  0  0  0  0  0  0  0  0  0
    1.2073    0.1561   -4.7988 C   0  0  0  0  0  0  0  0  0  0  0  0
    3.3790   -2.3858   -4.4069 C   0  0  0  0  0  0  0  0  0  0  0  0
    3.2753    0.5383   -3.4797 C   0  0  0  0  0  0  0  0  0  0  0  0
    4.4916    0.2446   -2.9902 F   0  0  0  0  0  0  0  0  0  0  0  0
    3.2693    1.8547   -3.8102 F   0  0  0  0  0  0  0  0  0  0  0  0
    2.4006    0.5627   -2.4495 F   0  0  0  0  0  0  0  0  0  0  0  0
    5.6349   -0.9654   -6.2450 C   0  0  0  0  0  0  0  0  0  0  0  0
    0.8393   -2.5249   -7.0305 N   0  0  0  0  0  0  0  0  0  0  0  0
   -0.4386   -2.5473   -6.5476 C   0  0  0  0  0  0  0  0  0  0  0  0
   -0.9393   -2.4809   -5.2362 N   0  0  0  0  0  0  0  0  0  0  0  0
   -0.1587   -2.3272   -4.1323 C   0  0  0  0  0  0  0  0  0  0  0  0
   -0.4600   -1.9763   -2.6716 C   0  0  0  0  0  0  0  0  0  0  0  0
  1  2  1  0
  2  3  1  0
  3  4  2  0
  3 37  1  0
  4  5  1  0
  4  7  1  0
  5  6  1  0
  7  8  2  0
  8  9  1  0
  8 36  1  0
  9 10  1  0
  9 33  2  0
 10 11  1  0
 11 12  2  0
 11 32  1  0
 12 13  1  0
 13 14  2  0
 14 15  1  0
 15 16  1  0
 15 32  2  0
 16 17  1  0
 17 18  2  0
 17 19  1  0
 19 20  1  0
 20 21  2  0
 20 24  1  0
 21 22  1  0
 22 23  1  0
 23 24  2  0
 23 25  1  0
 25 26  1  0
 25 27  1  0
 25 28  1  0
 28 29  1  0
 28 30  1  0
 28 31  1  0
 33 34  1  0
 34 35  2  0
 35 36  1  0
 36 37  2  0
M  END
>  <DRUGBANK_ID>  (1) 
DB15068

>  <COMMON_NAME>  (1) 
Agerafenib

>  <CAS_NUMBER>  (1) 
1188910-76-0

>  <UNII>  (1) 
78I4VEX88N

>  <SYNONYMS>  (1) 
Agerafenib

$$$$
