
     RDKit          3D

 20 20  0  0  0  0  0  0  0  0999 V2000
    1.0315    0.1788   -0.2284 N   0  0  0  0  0  0  0  0  0  0  0  0
    0.4257    1.0440    0.7023 C   0  0  0  0  0  0  0  0  0  0  0  0
    0.5813   -0.7657   -1.2270 C   0  0  0  0  0  0  0  0  0  0  0  0
   -1.1344    1.1921    0.8679 C   0  0  0  0  0  0  0  0  0  0  0  0
    1.1841    1.6666    1.4323 O   0  0  0  0  0  0  0  0  0  0  0  0
   -1.7224    0.6734    2.1726 N   0  0  0  0  0  0  0  0  0  0  0  0
   -0.4670   -0.5329   -2.1469 C   0  0  0  0  0  0  0  0  0  0  0  0
    1.0761   -2.1098   -1.1661 C   0  0  0  0  0  0  0  0  0  0  0  0
   -0.6082   -2.8606   -2.7971 C   0  0  0  0  0  0  0  0  0  0  0  0
   -1.6371    2.6375    0.5157 C   0  0  0  0  0  0  0  0  0  0  0  0
   -3.2106    0.7271    2.2073 C   0  0  0  0  0  0  0  0  0  0  0  0
   -1.2285   -0.6418    2.6475 C   0  0  0  0  0  0  0  0  0  0  0  0
   -1.0582   -1.5665   -2.8970 C   0  0  0  0  0  0  0  0  0  0  0  0
    0.4543   -3.1305   -1.9430 C   0  0  0  0  0  0  0  0  0  0  0  0
    1.9933   -2.5912   -0.0564 C   0  0  0  0  0  0  0  0  0  0  0  0
   -1.1346    0.7642   -2.3462 C   0  0  0  0  0  0  0  0  0  0  0  0
   -1.6735   -1.9622    1.9714 C   0  0  0  0  0  0  0  0  0  0  0  0
   -4.0027   -0.1038    1.1867 C   0  0  0  0  0  0  0  0  0  0  0  0
   -1.2084    3.2280   -0.8253 C   0  0  0  0  0  0  0  0  0  0  0  0
   -1.4707   -1.9442    0.5009 C   0  0  0  0  0  0  0  0  0  0  0  0
  2  1  1  0
  3  1  1  0
  4  2  1  0
  5  2  2  0
  6  4  1  0
  7  3  2  0
  8  3  1  0
  9 14  1  0
 10  4  1  0
 11  6  1  0
 12  6  1  0
 13  7  1  0
 13  9  2  0
 14  8  2  0
 15  8  1  0
 16  7  1  0
 17 12  1  0
 18 11  1  0
 19 10  1  0
 20 17  1  0
M  END
>  <DRUGBANK_ID>  (1) 
DB08987

>  <COMMON_NAME>  (1) 
Etidocaine

>  <CAS_NUMBER>  (1) 
36637-18-0

>  <UNII>  (1) 
I6CQM0F31V

>  <SYNONYMS>  (1) 
Etidocaina; Etidocaine; Etidocainum

$$$$
