73Q
     RDKit          3D

 18 20  0  0  0  0  0  0  0  0999 V2000
    0.7313   -0.2313   -0.2315 C   0  0  0  0  0  0  0  0  0  0  0  0
    1.2160    0.0849   -1.6455 C   0  0  0  0  0  0  0  0  0  0  0  0
    2.4915   -0.1860   -2.0587 N   0  0  0  0  0  0  0  0  0  0  0  0
    3.0954    0.9496   -1.5566 N   0  0  0  0  0  0  0  0  0  0  0  0
    3.3956    0.6460   -0.1436 C   0  0  0  0  0  0  0  0  0  0  0  0
    2.2680    1.9531   -2.1755 C   0  0  0  0  0  0  0  0  0  0  0  0
    2.6417    2.9160   -3.0858 N   0  0  0  0  0  0  0  0  0  0  0  0
    3.9873    3.2166   -3.3038 O   0  0  0  0  0  0  0  0  0  0  0  0
    1.7114    3.2275   -4.1534 C   0  0  0  0  0  0  0  0  0  0  0  0
    2.1112    3.9959   -5.2562 C   0  0  0  0  0  0  0  0  0  0  0  0
    1.2459    4.2005   -6.3389 C   0  0  0  0  0  0  0  0  0  0  0  0
   -0.0990    3.8527   -6.2290 C   0  0  0  0  0  0  0  0  0  0  0  0
   -1.2170    4.3828   -7.4237 Cl  0  0  0  0  0  0  0  0  0  0  0  0
   -0.5482    3.1280   -5.1327 C   0  0  0  0  0  0  0  0  0  0  0  0
    0.3781    2.7444   -4.1520 C   0  0  0  0  0  0  0  0  0  0  0  0
   -0.0505    1.7513   -3.1255 C   0  0  0  0  0  0  0  0  0  0  0  0
   -1.1500    1.2561   -3.1290 O   0  0  0  0  0  0  0  0  0  0  0  0
    1.0089    1.3515   -2.2235 C   0  0  0  0  0  0  0  0  0  0  0  0
  1  2  1  0
  2  3  2  0
  2 18  1  0
  3  4  1  0
  4  5  1  0
  4  6  1  0
  6  7  1  0
  6 18  2  0
  7  8  1  0
  7  9  1  0
  9 10  1  0
  9 15  2  0
 10 11  2  0
 11 12  1  0
 12 13  1  0
 12 14  2  0
 14 15  1  0
 15 16  1  0
 16 17  2  0
 16 18  1  0
M  END
>  <DRUGBANK_ID>  (1) 
DB07218

>  <COMMON_NAME>  (1) 
6-CHLORO-9-HYDROXY-1,3-DIMETHYL-1,9-DIHYDRO-4H-PYRAZOLO[3,4-B]QUINOLIN-4-ONE

$$$$
