
     RDKit          3D

 22 24  0  0  0  0  0  0  0  0999 V2000
    1.0217   -0.3473    0.1031 C   0  0  0  0  0  0  0  0  0  0  0  0
   -0.7214    0.3466    2.0439 C   0  0  0  0  0  0  0  0  0  0  0  0
   -0.7355    6.7834   -1.5930 C   0  0  0  0  0  0  0  0  0  0  0  0
   -0.4982    6.4723    0.7980 C   0  0  0  0  0  0  0  0  0  0  0  0
    3.1101    0.3984    3.7489 C   0  0  0  0  0  0  0  0  0  0  0  0
   -1.8641    2.1173   -1.5520 C   0  0  0  0  0  0  0  0  0  0  0  0
    3.5127    1.7105    3.8958 C   0  0  0  0  0  0  0  0  0  0  0  0
   -1.4857    3.3862   -1.4482 C   0  0  0  0  0  0  0  0  0  0  0  0
    2.4387    5.5731    0.1804 C   0  0  0  0  0  0  0  0  0  0  0  0
    2.1448    0.1089    2.8125 C   0  0  0  0  0  0  0  0  0  0  0  0
   -1.2044    1.2747   -0.6919 C   0  0  0  0  0  0  0  0  0  0  0  0
    2.9527    2.7228    3.0954 C   0  0  0  0  0  0  0  0  0  0  0  0
   -0.4592    3.7408   -0.5286 C   0  0  0  0  0  0  0  0  0  0  0  0
    1.4337    5.9164   -0.8949 C   0  0  0  0  0  0  0  0  0  0  0  0
    1.9133    4.7998    1.3859 C   0  0  0  0  0  0  0  0  0  0  0  0
    1.5743    1.1181    2.0109 C   0  0  0  0  0  0  0  0  0  0  0  0
   -0.1371    1.7243    0.2168 C   0  0  0  0  0  0  0  0  0  0  0  0
    1.9808    2.4536    2.1008 C   0  0  0  0  0  0  0  0  0  0  0  0
    0.3236    2.9963    0.3320 C   0  0  0  0  0  0  0  0  0  0  0  0
    0.4539    0.6819    1.0976 C   0  0  0  0  0  0  0  0  0  0  0  0
    0.2351    6.7487   -0.4836 N   0  0  0  0  0  0  0  0  0  0  0  0
    1.3856    3.4004    1.1887 N   0  0  0  0  0  0  0  0  0  0  0  0
  7  5  2  0
  8  6  2  0
 10  5  1  0
 11  6  1  0
 12  7  1  0
 13  8  1  0
 14  9  1  0
 15  9  1  0
 16 10  2  0
 17 11  2  0
 18 12  2  0
 18 16  1  0
 19 13  2  0
 19 17  1  0
 20  1  1  0
 20  2  1  0
 20 16  1  0
 20 17  1  0
 21  3  1  0
 21  4  1  0
 21 14  1  0
 22 15  1  0
 22 18  1  0
 22 19  1  0
M  END
>  <DRUGBANK_ID>  (1) 
DB08996

>  <COMMON_NAME>  (1) 
Dimetacrine

>  <CAS_NUMBER>  (1) 
4757-55-5

>  <UNII>  (1) 
O341NY501N

>  <SYNONYMS>  (1) 
3-(9,9-dimethylacridin-10-yl)-N,N-dimethyl-propan-1-amine; Dimetacrine; Istonil; Istonyl; Linostil; Miroistonil

$$$$
