
     RDKit          3D

 36 39  0  0  0  0  0  0  0  0999 V2000
    1.1785    0.0450    0.0172 C   0  0  0  0  0  0  0  0  0  0  0  0
    0.5616    1.1826    0.6626 N   0  0  0  0  0  0  0  0  0  0  0  0
   -0.1950    2.1953    0.1101 C   0  0  0  0  0  0  0  0  0  0  0  0
   -0.5084    3.1580    0.7925 O   0  0  0  0  0  0  0  0  0  0  0  0
   -0.6282    2.1146   -1.3145 C   0  0  0  0  0  0  0  0  0  0  0  0
   -1.1531    0.8976   -1.7864 C   0  0  0  0  0  0  0  0  0  0  0  0
   -1.5436    0.7541   -3.1133 C   0  0  0  0  0  0  0  0  0  0  0  0
   -1.5285    1.8589   -3.9492 C   0  0  0  0  0  0  0  0  0  0  0  0
   -1.0924    3.0930   -3.4660 C   0  0  0  0  0  0  0  0  0  0  0  0
   -0.5663    3.2381   -2.1698 C   0  0  0  0  0  0  0  0  0  0  0  0
    0.0230    4.4612   -1.7766 N   0  0  0  0  0  0  0  0  0  0  0  0
    0.1806    5.6545   -2.5056 C   0  0  0  0  0  0  0  0  0  0  0  0
   -0.9645    6.3674   -2.8981 C   0  0  0  0  0  0  0  0  0  0  0  0
   -0.8317    7.5824   -3.5613 C   0  0  0  0  0  0  0  0  0  0  0  0
   -1.9590    8.2106   -4.1157 N   0  0  0  0  0  0  0  0  0  0  0  0
   -1.9130    9.1390   -5.1851 C   0  0  0  0  0  0  0  0  0  0  0  0
   -1.3723    8.9417   -6.4742 C   0  0  0  0  0  0  0  0  0  0  0  0
   -0.8131    7.8112   -7.0322 O   0  0  0  0  0  0  0  0  0  0  0  0
   -0.7579    6.6016   -6.2993 C   0  0  0  0  0  0  0  0  0  0  0  0
   -1.3711   10.0343   -7.3914 C   0  0  0  0  0  0  0  0  0  0  0  0
   -1.9274   11.2892   -7.0899 C   0  0  0  0  0  0  0  0  0  0  0  0
   -2.5700   11.4042   -5.8587 C   0  0  0  0  0  0  0  0  0  0  0  0
   -2.5551   10.3620   -4.9262 C   0  0  0  0  0  0  0  0  0  0  0  0
   -1.8481   12.3836   -7.9232 N   0  0  0  0  0  0  0  0  0  0  0  0
   -2.2743   12.3840   -9.3233 C   0  0  0  0  0  0  0  0  0  0  0  0
   -1.1017   12.7787  -10.2346 C   0  0  0  0  0  0  0  0  0  0  0  0
   -0.5181   14.0345   -9.8387 O   0  0  0  0  0  0  0  0  0  0  0  0
   -0.0312   13.9467   -8.4861 C   0  0  0  0  0  0  0  0  0  0  0  0
   -1.1689   13.6199   -7.4971 C   0  0  0  0  0  0  0  0  0  0  0  0
    0.3880    8.0947   -3.8317 N   0  0  0  0  0  0  0  0  0  0  0  0
    1.4755    7.3427   -3.5692 C   0  0  0  0  0  0  0  0  0  0  0  0
    1.4386    6.1450   -2.8723 C   0  0  0  0  0  0  0  0  0  0  0  0
    2.7470    5.5001   -2.5538 C   0  0  0  0  0  0  0  0  0  0  0  0
    3.4444    5.1111   -3.6595 F   0  0  0  0  0  0  0  0  0  0  0  0
    3.5716    6.3613   -1.8906 F   0  0  0  0  0  0  0  0  0  0  0  0
    2.6663    4.3978   -1.7591 F   0  0  0  0  0  0  0  0  0  0  0  0
  1  2  1  0
  2  3  1  0
  3  4  2  0
  3  5  1  0
  5  6  2  0
  5 10  1  0
  6  7  1  0
  7  8  2  0
  8  9  1  0
  9 10  2  0
 10 11  1  0
 11 12  1  0
 12 13  2  0
 12 32  1  0
 13 14  1  0
 14 15  1  0
 14 30  2  0
 15 16  1  0
 16 17  2  0
 16 23  1  0
 17 18  1  0
 17 20  1  0
 18 19  1  0
 20 21  2  0
 21 22  1  0
 21 24  1  0
 22 23  2  0
 24 25  1  0
 24 29  1  0
 25 26  1  0
 26 27  1  0
 27 28  1  0
 28 29  1  0
 30 31  1  0
 31 32  2  0
 32 33  1  0
 33 34  1  0
 33 35  1  0
 33 36  1  0
M  END
>  <DRUGBANK_ID>  (1) 
DB15273

>  <COMMON_NAME>  (1) 
VS-4718

>  <CAS_NUMBER>  (1) 
1061353-68-1

>  <UNII>  (1) 
L2BD0MW4OL

$$$$
