
     RDKit          3D

 39 43  0  0  0  0  0  0  0  0999 V2000
   -1.7853   -0.0938    0.1132 N   0  0  0  0  0  0  0  0  0  0  0  0
   -1.0903   -1.3429   -0.2555 C   0  0  0  0  0  0  0  0  0  0  0  0
    0.4240   -1.3678    0.0639 C   0  0  0  0  0  0  0  0  0  0  0  0
    1.1518   -0.3035   -0.6619 N   0  0  0  0  0  0  0  0  0  0  0  0
    0.4285    0.9528   -0.4442 C   0  0  0  0  0  0  0  0  0  0  0  0
   -1.1109    0.9909   -0.6324 C   0  0  0  0  0  0  0  0  0  0  0  0
    2.5016   -0.1396   -0.0827 C   0  0  0  0  0  0  0  0  0  0  0  0
   -2.0252    0.0237    1.5859 C   0  0  0  0  0  0  0  0  0  0  0  0
   -0.8428    0.2074    2.5561 C   0  0  0  0  0  0  0  0  0  0  0  0
   -0.0490    1.3950    2.6412 C   0  0  0  0  0  0  0  0  0  0  0  0
    1.2346    1.3358    3.2316 C   0  0  0  0  0  0  0  0  0  0  0  0
    1.5992    0.2437    4.0079 C   0  0  0  0  0  0  0  0  0  0  0  0
    0.6819   -0.8027    4.1408 C   0  0  0  0  0  0  0  0  0  0  0  0
   -0.4655   -0.8817    3.3532 C   0  0  0  0  0  0  0  0  0  0  0  0
   -0.4092    2.6722    1.9049 C   0  0  0  0  0  0  0  0  0  0  0  0
   -0.5063    3.7982    2.6504 F   0  0  0  0  0  0  0  0  0  0  0  0
    0.5053    3.0051    0.9441 F   0  0  0  0  0  0  0  0  0  0  0  0
   -1.6150    2.5783    1.3121 F   0  0  0  0  0  0  0  0  0  0  0  0
    2.8687    0.2416    4.6335 N   0  0  0  0  0  0  0  0  0  0  0  0
    3.2964   -0.7517    5.4971 C   0  0  0  0  0  0  0  0  0  0  0  0
    4.6041   -0.5837    6.1590 C   0  0  0  0  0  0  0  0  0  0  0  0
    2.6838   -1.7716    5.7990 O   0  0  0  0  0  0  0  0  0  0  0  0
    4.9929    0.6332    6.7441 C   0  0  0  0  0  0  0  0  0  0  0  0
    6.1415    0.6920    7.5510 C   0  0  0  0  0  0  0  0  0  0  0  0
    6.8910   -0.4861    7.7531 C   0  0  0  0  0  0  0  0  0  0  0  0
    6.4483   -1.7111    7.2147 C   0  0  0  0  0  0  0  0  0  0  0  0
    5.3416   -1.7522    6.3792 C   0  0  0  0  0  0  0  0  0  0  0  0
    8.2050   -0.4903    8.4819 C   0  0  0  0  0  0  0  0  0  0  0  0
    6.5167    1.9401    8.2147 C   0  0  0  0  0  0  0  0  0  0  0  0
    6.8444    2.9342    8.7929 C   0  0  0  0  0  0  0  0  0  0  0  0
    7.1646    4.1986    9.4215 C   0  0  0  0  0  0  0  0  0  0  0  0
    6.7926    5.4412    8.9470 C   0  0  0  0  0  0  0  0  0  0  0  0
    7.1842    6.4554    9.7827 N   0  0  0  0  0  0  0  0  0  0  0  0
    7.8105    5.8570   10.7715 C   0  0  0  0  0  0  0  0  0  0  0  0
    7.8555    4.4717   10.5958 N   0  0  0  0  0  0  0  0  0  0  0  0
    8.4117    6.4032   11.9318 C   0  0  0  0  0  0  0  0  0  0  0  0
    9.0148    5.5897   12.8042 C   0  0  0  0  0  0  0  0  0  0  0  0
    9.0102    4.1420   12.4794 C   0  0  0  0  0  0  0  0  0  0  0  0
    8.4671    3.5759   11.4438 N   0  0  0  0  0  0  0  0  0  0  0  0
  1  2  1  0
  1  6  1  0
  1  8  1  0
  2  3  1  0
  3  4  1  0
  4  5  1  0
  4  7  1  0
  5  6  1  0
  8  9  1  0
  9 10  2  0
  9 14  1  0
 10 11  1  0
 10 15  1  0
 11 12  2  0
 12 13  1  0
 12 19  1  0
 13 14  2  0
 15 16  1  0
 15 17  1  0
 15 18  1  0
 19 20  1  0
 20 21  1  0
 20 22  2  0
 21 23  2  0
 21 27  1  0
 23 24  1  0
 24 25  2  0
 24 29  1  0
 25 26  1  0
 25 28  1  0
 26 27  2  0
 29 30  3  0
 30 31  1  0
 31 32  2  0
 31 35  1  0
 32 33  1  0
 33 34  2  0
 34 35  1  0
 34 36  1  0
 35 39  1  0
 36 37  2  0
 37 38  1  0
 38 39  2  0
M  END
>  <DRUGBANK_ID>  (1) 
DB08901

>  <SECONDARY_ACCESSION_NUMBERS>  (1) 
DB06300

>  <COMMON_NAME>  (1) 
Ponatinib

>  <CAS_NUMBER>  (1) 
943319-70-8

>  <UNII>  (1) 
4340891KFS

>  <SYNONYMS>  (1) 
Ponatinib; Ponatinibum

$$$$
