
     RDKit          3D

 17 18  0  0  1  0  0  0  0  0999 V2000
    0.9577    0.1969   -0.1152 O   0  0  0  0  0  0  0  0  0  0  0  0
    0.4907    0.6320    1.1518 C   0  0  0  0  0  0  0  0  0  0  0  0
    0.9196   -0.2636    2.3310 C   0  0  1  0  0  0  0  0  0  0  0  0
    0.4148    0.3477    3.5266 O   0  0  0  0  0  0  0  0  0  0  0  0
    0.4629   -0.4231    4.7037 C   0  0  1  0  0  0  0  0  0  0  0  0
    1.7861   -0.3987    5.2686 N   0  0  0  0  0  0  0  0  0  0  0  0
    1.7519   -0.2567    6.6349 C   0  0  0  0  0  0  0  0  0  0  0  0
    2.7297   -0.2858    7.3649 O   0  0  0  0  0  0  0  0  0  0  0  0
    0.4780   -0.0232    7.0211 N   0  0  0  0  0  0  0  0  0  0  0  0
   -0.2845    0.2031    5.9130 C   0  0  0  0  0  0  0  0  0  0  0  0
   -1.3920    0.7166    5.9152 O   0  0  0  0  0  0  0  0  0  0  0  0
   -0.1124   -1.8546    4.5456 C   0  0  2  0  0  0  0  0  0  0  0  0
    0.0555   -2.6721    5.7144 O   0  0  0  0  0  0  0  0  0  0  0  0
    0.5907   -2.5374    3.3702 C   0  0  1  0  0  0  0  0  0  0  0  0
    0.0911   -3.8636    3.1636 O   0  0  0  0  0  0  0  0  0  0  0  0
    0.4057   -1.6973    2.1070 C   0  0  2  0  0  0  0  0  0  0  0  0
    1.0641   -2.3254    1.0060 O   0  0  0  0  0  0  0  0  0  0  0  0
  1  2  1  0
  3  2  1  6
  3  4  1  0
  3 16  1  0
  5  4  1  0
  5  6  1  1
  5 10  1  0
  5 12  1  0
  6  7  1  0
  7  8  2  0
  7  9  1  0
  9 10  1  0
 10 11  2  0
 12 14  1  0
 12 13  1  1
 14 15  1  6
 14 16  1  0
 16 17  1  6
M  END
>  <DRUGBANK_ID>  (1) 
DB01823

>  <SECONDARY_ACCESSION_NUMBERS>  (1) 
EXPT01612

>  <COMMON_NAME>  (1) 
Beta-D-Glucopyranose Spirohydantoin

$$$$
