
     RDKit          3D

 26 27  0  0  0  0  0  0  0  0999 V2000
    1.0831   -1.1102   -0.1349 C   0  0  0  0  0  0  0  0  0  0  0  0
    2.2785   -1.9947   -0.0115 C   0  0  0  0  0  0  0  0  0  0  0  0
    1.1624    0.2667   -0.1188 C   0  0  0  0  0  0  0  0  0  0  0  0
   -0.1839   -1.6657   -0.0875 C   0  0  0  0  0  0  0  0  0  0  0  0
    2.1527   -2.8487    1.1875 N   0  0  0  0  0  0  0  0  0  0  0  0
    0.0630    1.0256   -0.0579 N   0  0  0  0  0  0  0  0  0  0  0  0
    2.3829    0.9319   -0.2726 N   0  0  0  0  0  0  0  0  0  0  0  0
   -1.3039   -0.9443   -0.0300 N   0  0  0  0  0  0  0  0  0  0  0  0
    2.2257   -4.2905    1.0502 C   0  0  0  0  0  0  0  0  0  0  0  0
    1.9893   -2.0410    2.3447 C   0  0  0  0  0  0  0  0  0  0  0  0
   -1.1267    0.3865   -0.0111 C   0  0  0  0  0  0  0  0  0  0  0  0
    2.3224   -5.1932    2.0758 C   0  0  0  0  0  0  0  0  0  0  0  0
    2.3309   -4.7123   -0.4027 C   0  0  0  0  0  0  0  0  0  0  0  0
    2.1804   -0.8125    2.4101 O   0  0  0  0  0  0  0  0  0  0  0  0
   -2.3589    1.2262    0.0105 C   0  0  0  0  0  0  0  0  0  0  0  0
    2.4326   -7.0023    2.0072 S   0  0  0  0  0  0  0  0  0  0  0  0
    2.4866   -4.7191    3.5187 C   0  0  0  0  0  0  0  0  0  0  0  0
    1.6970   -7.6998    0.2163 S   0  0  0  0  0  0  0  0  0  0  0  0
    3.8113   -3.9553    3.8212 C   0  0  0  0  0  0  0  0  0  0  0  0
    2.2528   -9.4166   -0.0777 C   0  0  0  0  0  0  0  0  0  0  0  0
    4.3016   -2.9757    2.9120 O   0  0  0  0  0  0  0  0  0  0  0  0
    3.5904   -9.8951    0.4695 C   0  0  0  0  0  0  0  0  0  0  0  0
    4.8124   -9.2162   -0.1303 C   0  0  0  0  0  0  0  0  0  0  0  0
    3.7211  -11.3042    0.1689 O   0  0  0  0  0  0  0  0  0  0  0  0
    5.8528  -10.3086   -0.0855 C   0  0  0  0  0  0  0  0  0  0  0  0
    5.0394  -11.5591   -0.3276 C   0  0  0  0  0  0  0  0  0  0  0  0
  1  2  1  0
  1  3  2  0
  1  4  1  0
  2  5  1  0
  3  6  1  0
  3  7  1  0
  4  8  2  0
  5  9  1  0
  5 10  1  0
  6 11  2  0
  8 11  1  0
  9 12  2  0
  9 13  1  0
 10 14  2  0
 11 15  1  0
 12 16  1  0
 12 17  1  0
 16 18  1  0
 17 19  1  0
 18 20  1  0
 19 21  1  0
 20 22  1  0
 22 23  1  0
 22 24  1  0
 23 25  1  0
 24 26  1  0
 25 26  1  0
M  END
>  <DRUGBANK_ID>  (1) 
DB08966

>  <COMMON_NAME>  (1) 
Fursultiamine

>  <CAS_NUMBER>  (1) 
804-30-8

>  <UNII>  (1) 
05J61265PX

>  <SYNONYMS>  (1) 
Fursultiamina; Fursultiamine; Fursultiaminum; Thiamin tetrahydrofurfuryl disulfide; Thiamine tetrahydrofurfuryl disulfide; TTFD

$$$$
