
     RDKit          3D

 33 33  0  0  0  0  0  0  0  0999 V2000
    1.1319   -3.0452   -0.5876 C   0  0  1  0  0  0  0  0  0  0  0  0
    2.1820   -3.1011   -1.5985 C   0  0  1  0  0  0  0  0  0  0  0  0
    3.2156   -1.8436   -1.2712 C   0  0  0  0  0  0  0  0  0  0  0  0
    3.9729   -1.7857    0.0050 O   0  0  0  0  0  0  0  0  0  0  0  0
    2.7576   -4.3487   -1.9216 O   0  0  0  0  0  0  0  0  0  0  0  0
    2.1689   -3.2682    0.3711 O   0  0  0  0  0  0  0  0  0  0  0  0
    2.9423   -4.3635    0.8444 C   0  0  0  0  0  0  0  0  0  0  0  0
    0.3213   -1.4600   -0.9247 C   0  0  1  0  0  0  0  0  0  0  0  0
    0.1755   -1.1607   -2.4609 C   0  0  2  0  0  0  0  0  0  0  0  0
    1.4250   -1.3512   -3.2764 N   0  0  0  0  0  0  0  0  0  0  0  0
    1.5695   -2.4143   -4.1873 C   0  0  0  0  0  0  0  0  0  0  0  0
    3.0066   -2.7361   -4.5621 C   0  0  0  0  0  0  0  0  0  0  0  0
    0.6290   -3.1444   -4.4747 O   0  0  0  0  0  0  0  0  0  0  0  0
   -0.2296    0.3206   -2.6324 C   0  0  1  0  0  0  0  0  0  0  0  0
   -0.6897    0.5593   -4.0023 N   0  0  0  0  0  0  0  0  0  0  0  0
    0.0039    0.2926   -5.1495 C   0  0  0  0  0  0  0  0  0  0  0  0
   -0.5355    0.0131   -6.2791 N   0  0  0  0  0  0  0  0  0  0  0  0
    1.3491    0.3302   -5.1450 N   0  0  0  0  0  0  0  0  0  0  0  0
   -1.2555    0.7560   -1.6282 C   0  0  0  0  0  0  0  0  0  0  0  0
   -1.5855    0.0360   -0.5302 C   0  0  0  0  0  0  0  0  0  0  0  0
   -0.9610   -1.2210   -0.2442 O   0  0  0  0  0  0  0  0  0  0  0  0
   -2.6167    0.5619    0.4610 C   0  0  0  0  0  0  0  0  0  0  0  0
   -3.2514    1.7159    0.1645 O   0  0  0  0  0  0  0  0  0  0  0  0
   -2.8737   -0.0229    1.5190 O   0  0  0  0  0  0  0  0  0  0  0  0
    3.5515   -1.5288    1.3158 C   0  0  0  0  0  0  0  0  0  0  0  0
    2.0109   -1.3943    1.6255 C   0  0  0  0  0  0  0  0  0  0  0  0
    4.3688   -1.4791    2.1919 O   0  0  0  0  0  0  0  0  0  0  0  0
    1.0793   -2.6387    2.1498 C   0  0  0  0  0  0  0  0  0  0  0  0
    1.6997   -3.1433    3.4134 C   0  0  0  0  0  0  0  0  0  0  0  0
    1.4761   -1.9898    4.3359 C   0  0  0  0  0  0  0  0  0  0  0  0
   -0.0379   -1.7526    4.4373 C   0  0  0  0  0  0  0  0  0  0  0  0
   -0.7217   -3.0321    4.9213 C   0  0  0  0  0  0  0  0  0  0  0  0
   -0.0859   -3.4199    6.2428 C   0  0  0  0  0  0  0  0  0  0  0  0
  1  6  1  1
  1  2  1  0
  2  3  1  0
  2  5  1  1
  3  4  1  0
  4 25  1  0
  6  7  1  0
  8 21  1  6
  8  1  1  0
  9  8  1  0
  9 10  1  6
 10 11  1  0
 11 12  1  0
 11 13  2  0
 14  9  1  0
 14 19  1  0
 14 15  1  6
 15 16  1  0
 16 17  2  0
 16 18  1  0
 20 19  2  0
 20 22  1  0
 21 20  1  0
 22 23  1  0
 22 24  2  0
 25 26  1  0
 25 27  2  0
 26 28  1  0
 28 29  1  0
 29 30  1  0
 30 31  1  0
 31 32  1  0
 32 33  1  0
M  END
>  <DRUGBANK_ID>  (1) 
DB11888

>  <COMMON_NAME>  (1) 
Laninamivir octanoate

>  <CAS_NUMBER>  (1) 
203120-46-1

>  <UNII>  (1) 
E026V904RL

$$$$
