
     RDKit          3D

 25 27  0  0  0  0  0  0  0  0999 V2000
    1.0928   -0.3565   -0.6734 C   0  0  0  0  0  0  0  0  0  0  0  0
    0.9915    1.1440   -2.4968 C   0  0  0  0  0  0  0  0  0  0  0  0
   -1.7591   -0.9904    3.5264 C   0  0  0  0  0  0  0  0  0  0  0  0
   -0.4669   -1.4862    3.7528 C   0  0  0  0  0  0  0  0  0  0  0  0
   -2.0165   -0.0910    2.4715 C   0  0  0  0  0  0  0  0  0  0  0  0
    4.5805   -3.9240    3.2016 C   0  0  0  0  0  0  0  0  0  0  0  0
    5.5471   -1.2646    3.3479 C   0  0  0  0  0  0  0  0  0  0  0  0
   -0.9438    1.0701   -0.6944 C   0  0  0  0  0  0  0  0  0  0  0  0
    0.5576    1.0208   -1.0406 C   0  0  0  0  0  0  0  0  0  0  0  0
    0.6008   -0.9646    3.0338 C   0  0  0  0  0  0  0  0  0  0  0  0
    5.9675   -3.6904    3.3832 C   0  0  0  0  0  0  0  0  0  0  0  0
    6.4271   -2.3546    3.4518 C   0  0  0  0  0  0  0  0  0  0  0  0
    3.6871   -2.8391    3.1494 C   0  0  0  0  0  0  0  0  0  0  0  0
    4.1931   -1.5544    3.2241 C   0  0  0  0  0  0  0  0  0  0  0  0
   -0.9642    0.4407    1.7278 C   0  0  0  0  0  0  0  0  0  0  0  0
    0.3316    0.1311    2.1835 C   0  0  0  0  0  0  0  0  0  0  0  0
    6.8797   -4.8875    3.5184 C   0  0  0  0  0  0  0  0  0  0  0  0
    1.9571   -1.5395    3.1287 C   0  0  0  0  0  0  0  0  0  0  0  0
    8.0814   -1.8781    3.6937 Cl  0  0  0  0  0  0  0  0  0  0  0  0
    6.4970   -6.1157    3.4696 N   0  0  0  0  0  0  0  0  0  0  0  0
    8.2190   -4.7357    3.7124 N   0  0  0  0  0  0  0  0  0  0  0  0
    2.3105   -2.8145    3.0605 N   0  0  0  0  0  0  0  0  0  0  0  0
    3.0889   -0.7552    3.1802 N   0  0  0  0  0  0  0  0  0  0  0  0
    1.4108    0.8601    1.7371 O   0  0  0  0  0  0  0  0  0  0  0  0
   -1.2538    1.3357    0.7200 O   0  0  0  0  0  0  0  0  0  0  0  0
  4  3  2  0
  5  3  1  0
  9  1  1  0
  9  2  1  0
  9  8  1  0
 10  4  1  0
 11  6  2  0
 12  7  2  0
 12 11  1  0
 13  6  1  0
 14  7  1  0
 14 13  2  0
 15  5  2  0
 16 10  2  0
 16 15  1  0
 17 11  1  0
 18 10  1  0
 19 12  1  0
 20 17  2  0
 21 17  1  0
 22 13  1  0
 22 18  2  0
 23 14  1  0
 23 18  1  0
 24 16  1  0
 25  8  1  0
 25 15  1  0
M  END
>  <DRUGBANK_ID>  (1) 
DB02989

>  <SECONDARY_ACCESSION_NUMBERS>  (1) 
EXPT00346

>  <COMMON_NAME>  (1) 
CRA_10972

$$$$
