
     RDKit          3D

 31 33  0  0  0  0  0  0  0  0999 V2000
    0.8369   -0.1830   -0.1791 N   0  0  0  0  0  0  0  0  0  0  0  0
    0.2098    0.9494   -0.7073 C   0  0  0  0  0  0  0  0  0  0  0  0
    0.5886    1.3707   -1.9362 N   0  0  0  0  0  0  0  0  0  0  0  0
    0.0134    2.4783   -2.4487 C   0  0  0  0  0  0  0  0  0  0  0  0
   -0.7835    3.3365   -1.7991 N   0  0  0  0  0  0  0  0  0  0  0  0
   -1.1699    2.8467   -0.6313 C   0  0  0  0  0  0  0  0  0  0  0  0
   -0.7689    1.6628   -0.0118 C   0  0  0  0  0  0  0  0  0  0  0  0
   -1.4222    1.5168    1.1948 N   0  0  0  0  0  0  0  0  0  0  0  0
   -2.2158    2.5740    1.2982 C   0  0  0  0  0  0  0  0  0  0  0  0
   -2.0587    3.4037    0.2236 N   0  0  0  0  0  0  0  0  0  0  0  0
   -2.7308    4.6436   -0.1058 C   0  0  2  0  0  0  0  0  0  0  0  0
   -3.3886    4.4397   -1.3539 O   0  0  0  0  0  0  0  0  0  0  0  0
   -3.2925    5.5384   -2.2823 C   0  0  1  0  0  0  0  0  0  0  0  0
   -2.3728    6.7063   -1.4541 C   0  0  1  0  0  0  0  0  0  0  0  0
   -2.9285    7.9397   -0.7439 O   0  0  0  0  0  0  0  0  0  0  0  0
   -1.8202    5.8573   -0.2637 C   0  0  1  0  0  0  0  0  0  0  0  0
   -1.7736    6.4899    1.0290 O   0  0  0  0  0  0  0  0  0  0  0  0
   -4.4875    3.9822   -3.9569 O   0  0  0  0  0  0  0  0  0  0  0  0
   -2.8966    2.4665   -3.0453 O   0  0  0  0  0  0  0  0  0  0  0  0
   -4.3967    2.5419   -3.0028 P   0  0  2  0  0  0  0  0  0  0  0  0
   -4.3059    1.1017   -2.0488 O   0  0  0  0  0  0  0  0  0  0  0  0
   -6.0187    2.0107    0.6890 O   0  0  0  0  0  0  0  0  0  0  0  0
   -6.5681    2.7130   -0.5119 P   0  0  1  0  0  0  0  0  0  0  0  0
   -7.8930    2.0002   -1.0467 O   0  0  0  0  0  0  0  0  0  0  0  0
   -6.5534    6.1688   -1.5022 O   0  0  0  0  0  0  0  0  0  0  0  0
   -6.0346    6.0867    0.9415 O   0  0  0  0  0  0  0  0  0  0  0  0
   -5.7010    5.4091   -0.4932 P   0  0  0  0  0  0  0  0  0  0  0  0
   -4.4473    6.5628   -0.7933 O   0  0  0  0  0  0  0  0  0  0  0  0
   -3.2885    4.9690   -3.7133 C   0  0  0  0  0  0  0  0  0  0  0  0
   -6.9547    4.2555   -0.1930 O   0  0  0  0  0  0  0  0  0  0  0  0
   -5.4719    3.0400   -1.7794 C   0  0  0  0  0  0  0  0  0  0  0  0
  1  2  1  0
  2  3  2  0
  2  7  1  0
  3  4  1  0
  4  5  2  0
  5  6  1  0
  6  7  2  0
  6 10  1  0
  7  8  1  0
  8  9  2  0
  9 10  1  0
 11 10  1  6
 11 12  1  0
 11 16  1  0
 12 13  1  0
 13 14  1  0
 13 29  1  6
 14 15  1  1
 14 16  1  0
 16 17  1  1
 18 20  1  0
 20 19  2  0
 20 31  1  0
 20 21  1  6
 23 22  2  0
 23 30  1  0
 23 24  1  6
 27 25  2  0
 27 26  1  0
 27 28  1  0
 29 18  1  0
 30 27  1  0
 31 23  1  0
M  END
>  <DRUGBANK_ID>  (1) 
DB02596

>  <SECONDARY_ACCESSION_NUMBERS>  (1) 
EXPT00539

>  <COMMON_NAME>  (1) 
alpha,beta-Methyleneadenosine 5'-triphosphate

>  <CAS_NUMBER>  (1) 
7292-42-4

>  <UNII>  (1) 
NYX13NT29D

>  <SYNONYMS>  (1) 
adenosine 5'-[alpha,beta-methylene]triphosphate; adenosine 5'-[α,β-methylene]triphosphate; alpha,beta-MeATP; alpha,beta-Methylene ATP

$$$$
