
     RDKit          3D

 35 37  0  0  1  0  0  0  0  0999 V2000
    1.8949   -5.0686    6.0905 C   0  0  0  0  0  0  0  0  0  0  0  0
    2.2723   -5.3510    4.7874 C   0  0  0  0  0  0  0  0  0  0  0  0
    4.2437   -4.7617    6.6599 C   0  0  0  0  0  0  0  0  0  0  0  0
   -0.9402   -4.4233   -2.8465 C   0  0  0  0  0  0  0  0  0  0  0  0
    5.8043   -3.7608    1.1982 C   0  0  0  0  0  0  0  0  0  0  0  0
    2.8936   -4.8794    7.0354 C   0  0  0  0  0  0  0  0  0  0  0  0
    4.6243   -5.0406    5.3428 C   0  0  0  0  0  0  0  0  0  0  0  0
    3.6353   -5.3396    4.3962 C   0  0  0  0  0  0  0  0  0  0  0  0
   -0.0733   -4.5929   -1.6235 C   0  0  2  0  0  0  0  0  0  0  0  0
    4.4659   -3.6352    0.4752 C   0  0  2  0  0  0  0  0  0  0  0  0
    2.7067   -3.4088    2.6415 C   0  0  2  0  0  0  0  0  0  0  0  0
   -1.0644   -5.0252   -0.5350 C   0  0  2  0  0  0  0  0  0  0  0  0
    3.3907   -2.1570    2.3350 C   0  0  2  0  0  0  0  0  0  0  0  0
   -0.3729   -5.0528    0.7549 C   0  0  1  0  0  0  0  0  0  0  0  0
    0.1266   -3.6580    0.9896 C   0  0  2  0  0  0  0  0  0  0  0  0
    3.6607   -2.3405    0.7763 C   0  0  2  0  0  0  0  0  0  0  0  0
    3.1932   -4.8267    2.1500 C   0  0  2  0  0  0  0  0  0  0  0  0
    1.3936   -3.4155   -0.1643 C   0  0  1  0  0  0  0  0  0  0  0  0
    1.7445   -2.9882    1.8509 F   0  0  0  0  0  0  0  0  0  0  0  0
    2.5741   -5.0486    8.4545 N   0  0  0  0  0  0  0  0  0  0  0  0
    6.0697   -5.0513    5.0153 N   0  0  0  0  0  0  0  0  0  0  0  0
   -0.1397   -4.0274   -3.9424 O   0  0  0  0  0  0  0  0  0  0  0  0
    5.6635   -3.5119    2.5801 O   0  0  0  0  0  0  0  0  0  0  0  0
   -1.5879   -6.3248   -0.7745 O   0  0  0  0  0  0  0  0  0  0  0  0
    4.3098   -1.9566    3.3867 O   0  0  0  0  0  0  0  0  0  0  0  0
   -1.2629   -5.4429    1.8223 O   0  0  0  0  0  0  0  0  0  0  0  0
    0.2178   -3.8774    2.4517 O   0  0  0  0  0  0  0  0  0  0  0  0
    3.4949   -5.0455    9.2555 O   0  0  0  0  0  0  0  0  0  0  0  0
    1.3714   -5.2739    8.7389 O   0  0  0  0  0  0  0  0  0  0  0  0
    6.8375   -4.6353    5.9090 O   0  0  0  0  0  0  0  0  0  0  0  0
    6.4574   -5.4990    3.9433 O   0  0  0  0  0  0  0  0  0  0  0  0
    4.0062   -5.5235    3.0931 O   0  0  0  0  0  0  0  0  0  0  0  0
    0.6255   -3.3372   -1.3934 O   0  0  0  0  0  0  0  0  0  0  0  0
    3.7241   -4.8155    0.8195 O   0  0  0  0  0  0  0  0  0  0  0  0
    2.3741   -2.2741   -0.0877 O   0  0  0  0  0  0  0  0  0  0  0  0
  2  1  2  0
  6  1  1  0
  6  3  2  0
  7  3  1  0
  8  2  1  0
  8  7  2  0
  9  4  1  6
 10  5  1  1
 11 19  1  6
 12  9  1  0
 12 24  1  6
 13 11  1  0
 13 25  1  1
 14 12  1  0
 14 26  1  1
 15 14  1  0
 15 27  1  1
 16 10  1  0
 16 13  1  0
 16 35  1  6
 17 11  1  0
 17 32  1  1
 18 15  1  0
 18 35  1  1
 20  6  1  0
 21  7  1  0
 22  4  1  0
 23  5  1  0
 28 20  1  0
 29 20  2  0
 30 21  1  0
 31 21  2  0
 32  8  1  0
 33  9  1  0
 33 18  1  0
 34 10  1  0
 34 17  1  0
M  CHG  4  20   1  21   1  28  -1  30  -1
M  END
>  <DRUGBANK_ID>  (1) 
DB04086

>  <SECONDARY_ACCESSION_NUMBERS>  (1) 
EXPT01130

>  <COMMON_NAME>  (1) 
2',4'-Dinitrophenyl-2deoxy-2-Fluro-B-D-Cellobioside

$$$$
