
     RDKit          3D

  9  9  0  0  0  0  0  0  0  0999 V2000
    0.7187   -1.0116   -0.2589 C   0  0  0  0  0  0  0  0  0  0  0  0
   -0.7262   -1.0376    0.1722 C   0  0  0  0  0  0  0  0  0  0  0  0
   -1.1766    0.3111   -0.0282 O   0  0  0  0  0  0  0  0  0  0  0  0
    0.0036    1.1295   -0.0693 C   0  0  0  0  0  0  0  0  0  0  0  0
    1.1572    0.2927    0.1241 O   0  0  0  0  0  0  0  0  0  0  0  0
    0.1240    1.8498   -1.4198 C   0  0  0  0  0  0  0  0  0  0  0  0
   -1.5122    3.1775   -1.7849 I   0  0  0  0  0  0  0  0  0  0  0  0
   -0.8859   -1.4160    1.6468 C   0  0  0  0  0  0  0  0  0  0  0  0
   -2.2620   -1.3740    2.0201 O   0  0  0  0  0  0  0  0  0  0  0  0
  1  2  1  0
  1  5  1  0
  2  3  1  0
  2  8  1  0
  3  4  1  0
  4  5  1  0
  4  6  1  0
  6  7  1  0
  8  9  1  0
M  END
>  <DRUGBANK_ID>  (1) 
DB13768

>  <COMMON_NAME>  (1) 
Domiodol

>  <CAS_NUMBER>  (1) 
61869-07-6

>  <UNII>  (1) 
C1PXF8V06N

>  <SYNONYMS>  (1) 
Domiodol

$$$$
