
     RDKit          3D

 10  9  0  0  1  0  0  0  0  0999 V2000
   -1.2915   -1.6490    1.3406 N   0  0  0  0  0  0  0  0  0  0  0  0
    0.1271   -1.6578    1.0255 C   0  0  0  0  0  0  0  0  0  0  0  0
    0.6234   -2.6551   -0.0245 C   0  0  0  0  0  0  0  0  0  0  0  0
    0.3147   -2.4808   -1.5137 C   0  0  0  0  0  0  0  0  0  0  0  0
    0.8609   -0.9452   -2.3723 S   0  0  0  0  0  0  0  0  0  0  0  0
   -0.0014    0.4559   -1.5424 C   0  0  0  0  0  0  0  0  0  0  0  0
   -1.5495    0.5090   -1.4457 C   0  0  2  0  0  0  0  0  0  0  0  0
   -1.9554    1.0648   -0.1287 N   0  0  0  0  0  0  0  0  0  0  0  0
   -2.2772   -0.8096   -1.7320 C   0  0  0  0  0  0  0  0  0  0  0  0
   -3.6889   -0.6773   -1.5795 O   0  0  0  0  0  0  0  0  0  0  0  0
  1  2  1  0
  2  3  1  0
  3  4  1  0
  4  5  1  0
  5  6  1  0
  7  9  1  0
  7  8  1  1
  7  6  1  0
  9 10  1  0
M  END
>  <DRUGBANK_ID>  (1) 
DB04648

>  <COMMON_NAME>  (1) 
S-propylamine-L-cysteine

$$$$
