
     RDKit          3D

 27 29  0  0  0  0  0  0  0  0999 V2000
    1.0949   -0.0678   -0.0553 C   0  0  0  0  0  0  0  0  0  0  0  0
    0.4018   -1.2005    0.5983 C   0  0  0  0  0  0  0  0  0  0  0  0
    0.8090   -1.6580    1.8539 C   0  0  0  0  0  0  0  0  0  0  0  0
    0.0219   -2.5894    2.5622 C   0  0  0  0  0  0  0  0  0  0  0  0
   -1.1904   -3.0736    2.0357 C   0  0  0  0  0  0  0  0  0  0  0  0
   -1.6002   -2.5533    0.7996 C   0  0  0  0  0  0  0  0  0  0  0  0
   -0.7907   -1.6848    0.0558 C   0  0  0  0  0  0  0  0  0  0  0  0
    0.4601    0.8510   -0.5947 O   0  0  0  0  0  0  0  0  0  0  0  0
    2.4357   -0.0780    0.0036 O   0  0  0  0  0  0  0  0  0  0  0  0
   -1.9805   -4.1256    2.7383 C   0  0  0  0  0  0  0  0  0  0  0  0
   -3.1289   -4.6690    2.2724 C   0  0  0  0  0  0  0  0  0  0  0  0
   -3.9065   -5.7401    2.9945 C   0  0  0  0  0  0  0  0  0  0  0  0
   -5.2506   -6.5838    1.0152 C   0  0  0  0  0  0  0  0  0  0  0  0
   -5.1941   -6.2682    2.3664 C   0  0  0  0  0  0  0  0  0  0  0  0
   -6.3295   -6.6002    3.1265 C   0  0  0  0  0  0  0  0  0  0  0  0
   -7.5100   -7.2510    2.5660 C   0  0  0  0  0  0  0  0  0  0  0  0
   -7.5721   -7.6209    1.2070 C   0  0  0  0  0  0  0  0  0  0  0  0
   -8.7439   -8.4087    0.3167 C   0  0  0  0  0  0  0  0  0  0  0  0
   -7.8223   -9.6178   -0.0106 C   0  0  0  0  0  0  0  0  0  0  0  0
   -6.5486   -9.3499   -0.8225 C   0  0  0  0  0  0  0  0  0  0  0  0
   -6.2273   -7.8557   -1.0181 C   0  0  0  0  0  0  0  0  0  0  0  0
   -6.3705   -7.2719    0.4294 C   0  0  0  0  0  0  0  0  0  0  0  0
   -7.0382   -7.2173   -2.1984 C   0  0  0  0  0  0  0  0  0  0  0  0
   -4.8054   -7.6805   -1.5665 C   0  0  0  0  0  0  0  0  0  0  0  0
  -10.1991   -9.0826    0.2896 C   0  0  0  0  0  0  0  0  0  0  0  0
   -9.1685   -7.1301   -0.4206 C   0  0  0  0  0  0  0  0  0  0  0  0
   -3.4994   -6.1902    4.0609 O   0  0  0  0  0  0  0  0  0  0  0  0
  1  2  1  0
  1  8  2  0
  1  9  1  0
  2  3  2  0
  2  7  1  0
  3  4  1  0
  4  5  2  0
  5  6  1  0
  5 10  1  0
  6  7  2  0
 10 11  2  0
 11 12  1  0
 12 14  1  0
 12 27  2  0
 13 14  2  0
 13 22  1  0
 14 15  1  0
 15 16  2  0
 16 17  1  0
 17 18  1  0
 17 22  2  0
 18 19  1  0
 18 25  1  0
 18 26  1  0
 19 20  1  0
 20 21  1  0
 21 22  1  0
 21 23  1  0
 21 24  1  0
M  END
>  <DRUGBANK_ID>  (1) 
DB02466

>  <SECONDARY_ACCESSION_NUMBERS>  (1) 
EXPT00042

>  <COMMON_NAME>  (1) 
BMS-181156

>  <CAS_NUMBER>  (1) 
110368-35-9

>  <UNII>  (1) 
C9FL8WH6S4

>  <SYNONYMS>  (1) 
(E)-4-(3-Oxo-3-(5,6,7,8-tetrahydro-5,5,8,8-tetramethyl-2-naphthalenyl)-1-propenyl)benzoic acid

$$$$
