
     RDKit          3D

 36 38  0  0  1  0  0  0  0  0999 V2000
    1.2543   -1.0474   -0.4441 C   0  0  2  0  0  0  0  0  0  0  0  0
    2.4393   -1.7912   -0.2497 N   0  0  0  0  0  0  0  0  0  0  0  0
    1.6154    0.3086   -0.3078 O   0  0  0  0  0  0  0  0  0  0  0  0
    0.1176   -1.4764    0.4327 C   0  0  0  0  0  0  0  0  0  0  0  0
    3.1283   -1.7751    0.9636 C   0  0  0  0  0  0  0  0  0  0  0  0
    2.7717   -2.5462   -1.3104 C   0  0  0  0  0  0  0  0  0  0  0  0
    0.4954    0.9264    0.2718 C   0  0  1  0  0  0  0  0  0  0  0  0
   -0.6420   -0.2281    0.3600 C   0  0  1  0  0  0  0  0  0  0  0  0
    4.2097   -2.6365    0.9741 N   0  0  0  0  0  0  0  0  0  0  0  0
    2.8385   -1.1121    1.9352 O   0  0  0  0  0  0  0  0  0  0  0  0
    3.6372   -3.5538   -1.1818 C   0  0  0  0  0  0  0  0  0  0  0  0
    0.9306    1.6091    1.6578 C   0  0  0  0  0  0  0  0  0  0  0  0
   -1.5891   -0.1919   -0.7140 O   0  0  0  0  0  0  0  0  0  0  0  0
    4.3807   -3.6462    0.0787 C   0  0  0  0  0  0  0  0  0  0  0  0
    3.7181   -4.5585   -2.2520 C   0  0  0  0  0  0  0  0  0  0  0  0
    0.0099    2.9214    2.0023 O   0  0  0  0  0  0  0  0  0  0  0  0
    5.1346   -4.6115    0.2995 O   0  0  0  0  0  0  0  0  0  0  0  0
    0.6226    4.0370    0.8306 P   0  0  2  0  0  0  0  0  0  0  0  0
   -0.9514    4.7379    0.6749 O   0  0  0  0  0  0  0  0  0  0  0  0
    1.1548    4.8439    2.1536 O   0  0  0  0  0  0  0  0  0  0  0  0
    1.1710    5.0355   -0.2181 O   0  0  0  0  0  0  0  0  0  0  0  0
   -1.8289    3.9145   -0.5680 P   0  0  1  0  0  0  0  0  0  0  0  0
   -3.1916    4.4347    0.3643 O   0  0  0  0  0  0  0  0  0  0  0  0
   -1.5233    5.2741   -1.4334 O   0  0  0  0  0  0  0  0  0  0  0  0
   -2.6143    3.1775   -1.6804 O   0  0  0  0  0  0  0  0  0  0  0  0
   -3.9445    3.4249    1.0493 C   0  0  1  0  0  0  0  0  0  0  0  0
   -3.1415    2.4436    1.5687 O   0  0  0  0  0  0  0  0  0  0  0  0
   -4.7523    3.5637    2.3739 C   0  0  1  0  0  0  0  0  0  0  0  0
   -2.2821    2.8634    2.6374 C   0  0  1  0  0  0  0  0  0  0  0  0
   -3.9644    4.0077    3.6685 C   0  0  2  0  0  0  0  0  0  0  0  0
   -5.9120    4.3235    2.1826 O   0  0  0  0  0  0  0  0  0  0  0  0
   -2.7731    3.1381    3.9723 C   0  0  2  0  0  0  0  0  0  0  0  0
   -1.5081    1.6245    2.7245 C   0  0  0  0  0  0  0  0  0  0  0  0
   -4.7732    3.8488    4.8311 O   0  0  0  0  0  0  0  0  0  0  0  0
   -1.7544    3.7429    4.7886 O   0  0  0  0  0  0  0  0  0  0  0  0
   -1.3320    1.5898    1.2741 O   0  0  0  0  0  0  0  0  0  0  0  0
  1  3  1  0
  1  4  1  0
  1  2  1  1
  2  5  1  0
  2  6  1  0
  3  7  1  0
  4  8  1  0
  5  9  1  0
  5 10  2  0
  6 11  2  0
  7  8  1  0
  7 12  1  1
  8 13  1  6
  9 14  1  0
 11 15  1  0
 11 14  1  0
 12 16  1  0
 14 17  2  0
 16 18  1  0
 18 19  1  0
 18 20  1  1
 18 21  2  0
 19 22  1  0
 22 23  1  0
 22 24  1  6
 22 25  2  0
 26 23  1  1
 26 27  1  0
 26 28  1  0
 27 29  1  0
 28 30  1  0
 28 31  1  6
 29 32  1  0
 29 33  1  1
 30 34  1  1
 30 32  1  0
 32 35  1  1
 33 36  1  0
M  END
>  <DRUGBANK_ID>  (1) 
DB03751

>  <SECONDARY_ACCESSION_NUMBERS>  (1) 
EXPT01115

>  <COMMON_NAME>  (1) 
2'deoxy-Thymidine-5'-Diphospho-Alpha-D-Glucose

>  <UNII>  (1) 
Q9XRK94HEF

$$$$
