
     RDKit          3D

 32 34  0  0  0  0  0  0  0  0999 V2000
    2.5919    1.2690    0.0260 C   0  0  0  0  0  0  0  0  0  0  0  0
    3.7990    0.6347    0.0064 C   0  0  0  0  0  0  0  0  0  0  0  0
    3.7861   -0.7591    0.0016 C   0  0  0  0  0  0  0  0  0  0  0  0
    2.5811   -1.5088    0.0024 C   0  0  0  0  0  0  0  0  0  0  0  0
    1.3418   -0.8861    0.0164 C   0  0  0  0  0  0  0  0  0  0  0  0
    1.3882    0.4866    0.0389 C   0  0  0  0  0  0  0  0  0  0  0  0
    0.1512    1.1891   -0.0587 C   0  0  0  0  0  0  0  0  0  0  0  0
    0.0119   -1.5806   -0.0010 C   0  0  0  0  0  0  0  0  0  0  0  0
   -1.2683   -0.7712    0.0160 C   0  0  0  0  0  0  0  0  0  0  0  0
   -1.1984    0.6382    0.0214 C   0  0  0  0  0  0  0  0  0  0  0  0
   -2.3484    1.4837    0.0220 C   0  0  0  0  0  0  0  0  0  0  0  0
   -2.5285   -1.4071    0.0181 C   0  0  0  0  0  0  0  0  0  0  0  0
   -3.6604   -0.5839    0.0034 C   0  0  0  0  0  0  0  0  0  0  0  0
   -3.5760    0.8108    0.0026 C   0  0  0  0  0  0  0  0  0  0  0  0
    2.5824    2.6456    0.0391 O   0  0  0  0  0  0  0  0  0  0  0  0
    2.6371   -2.8688   -0.0078 O   0  0  0  0  0  0  0  0  0  0  0  0
    0.3565    2.2975   -0.4274 O   0  0  0  0  0  0  0  0  0  0  0  0
   -0.0498   -2.8059   -0.0219 O   0  0  0  0  0  0  0  0  0  0  0  0
   -2.4392    2.8750   -0.0008 N   0  0  0  0  0  0  0  0  0  0  0  0
   -2.6421   -2.7830   -0.0010 N   0  0  0  0  0  0  0  0  0  0  0  0
   -1.3840    3.8834    0.1536 C   0  0  0  0  0  0  0  0  0  0  0  0
   -1.0621    4.5662   -1.1626 C   0  0  0  0  0  0  0  0  0  0  0  0
   -3.8732   -3.5496    0.0545 C   0  0  0  0  0  0  0  0  0  0  0  0
   -3.9827   -4.4174   -1.1938 C   0  0  0  0  0  0  0  0  0  0  0  0
   -2.0881    5.5869   -1.2999 N   0  0  0  0  0  0  0  0  0  0  0  0
   -2.9233   -5.4302   -1.2403 N   0  0  0  0  0  0  0  0  0  0  0  0
   -1.9153    6.3366   -2.5295 C   0  0  0  0  0  0  0  0  0  0  0  0
   -2.0393    5.4484   -3.7689 C   0  0  0  0  0  0  0  0  0  0  0  0
   -3.0129   -6.2282   -2.4657 C   0  0  0  0  0  0  0  0  0  0  0  0
   -2.8652   -5.3890   -3.7412 C   0  0  0  0  0  0  0  0  0  0  0  0
   -3.2824    4.7456   -3.7516 O   0  0  0  0  0  0  0  0  0  0  0  0
   -1.6198   -4.6971   -3.7489 O   0  0  0  0  0  0  0  0  0  0  0  0
  1  2  2  0
  1  6  1  0
  1 15  1  0
  2  3  1  0
  3  4  2  0
  4  5  1  0
  4 16  1  0
  5  8  1  0
  6  5  2  0
  7  6  1  0
  7 10  1  0
  7 17  2  0
  8  9  1  0
  8 18  2  0
  9 12  1  0
 10  9  2  0
 11 10  1  0
 11 14  2  0
 11 19  1  0
 12 13  2  0
 12 20  1  0
 13 14  1  0
 19 21  1  0
 20 23  1  0
 21 22  1  0
 22 25  1  0
 23 24  1  0
 24 26  1  0
 25 27  1  0
 26 29  1  0
 27 28  1  0
 28 31  1  0
 29 30  1  0
 30 32  1  0
M  END
>  <DRUGBANK_ID>  (1) 
DB01204

>  <SECONDARY_ACCESSION_NUMBERS>  (1) 
APRD00371

>  <COMMON_NAME>  (1) 
Mitoxantrone

>  <CAS_NUMBER>  (1) 
65271-80-9

>  <UNII>  (1) 
BZ114NVM5P

>  <SYNONYMS>  (1) 
1,4-Bis(2-(2-hydroxyethylamino)ethyl)amino)-5,8-dihydroxyanthraquinone; Mitoxantrona; Mitoxantrone; Mitoxantronum

$$$$
