
     RDKit          3D

  1  0  0  0  0  0  0  0  0  0999 V2000
    0.9058    0.0283   -0.0183 Cu  0  0  0  0  0 15  0  0  0  0  0  0
M  ISO  1   1  64
M  END
>  <DRUGBANK_ID>  (1) 
DB13980

>  <COMMON_NAME>  (1) 
Copper Cu-64

>  <CAS_NUMBER>  (1) 
13981-25-4

>  <UNII>  (1) 
2MK2L64N0S

>  <SYNONYMS>  (1) 
Copper, Cu-64

$$$$
