IHH
     RDKit          3D

 29 33  0  0  0  0  0  0  0  0999 V2000
    2.4813    0.7139    0.0134 C   0  0  0  0  0  0  0  0  0  0  0  0
    2.4476   -0.6726    0.0009 C   0  0  0  0  0  0  0  0  0  0  0  0
    1.2165   -1.3351   -0.0163 C   0  0  0  0  0  0  0  0  0  0  0  0
    1.2879    1.4302    0.0065 C   0  0  0  0  0  0  0  0  0  0  0  0
    0.0397    0.7649   -0.0031 C   0  0  0  0  0  0  0  0  0  0  0  0
    0.0059   -0.6446   -0.0109 C   0  0  0  0  0  0  0  0  0  0  0  0
   -2.2740   -0.6549    0.0236 C   0  0  0  0  0  0  0  0  0  0  0  0
   -1.2055    1.4041   -0.0111 C   0  0  0  0  0  0  0  0  0  0  0  0
   -4.7507   -0.7458    0.0568 C   0  0  0  0  0  0  0  0  0  0  0  0
   -5.0911    0.0987   -1.0086 C   0  0  0  0  0  0  0  0  0  0  0  0
   -6.3454    0.7044   -1.0795 C   0  0  0  0  0  0  0  0  0  0  0  0
   -7.2941    0.4646   -0.0818 C   0  0  0  0  0  0  0  0  0  0  0  0
   -5.7950    4.9429    2.7144 C   0  0  0  0  0  0  0  0  0  0  0  0
   -6.2810    3.5468    2.4905 C   0  0  0  0  0  0  0  0  0  0  0  0
   -5.8682    4.3905    1.3037 C   0  0  0  0  0  0  0  0  0  0  0  0
   -4.5565    4.1450    0.5905 C   0  0  0  0  0  0  0  0  0  0  0  0
   -3.5090    3.3569    0.9887 C   0  0  0  0  0  0  0  0  0  0  0  0
   -4.1774    4.6737   -0.6099 N   0  0  0  0  0  0  0  0  0  0  0  0
   -2.9124    4.3498   -0.9649 N   0  0  0  0  0  0  0  0  0  0  0  0
   -2.5363    3.4655   -0.0311 C   0  0  0  0  0  0  0  0  0  0  0  0
   -1.3452    2.8158    0.0459 N   0  0  0  0  0  0  0  0  0  0  0  0
   -2.3260    0.6790    0.0148 N   0  0  0  0  0  0  0  0  0  0  0  0
   -1.1345   -1.3490   -0.0013 N   0  0  0  0  0  0  0  0  0  0  0  0
   -3.4825   -1.3315    0.1406 N   0  0  0  0  0  0  0  0  0  0  0  0
   -5.6949   -0.9728    1.0570 C   0  0  0  0  0  0  0  0  0  0  0  0
   -6.9694   -0.4100    0.9665 C   0  0  0  0  0  0  0  0  0  0  0  0
   -8.6231    1.1786   -0.0915 C   0  0  0  0  0  0  0  0  0  0  0  0
   -9.7585    0.2551   -0.1517 C   0  0  0  0  0  0  0  0  0  0  0  0
  -10.6630   -0.4832   -0.1769 N   0  0  0  0  0  0  0  0  0  0  0  0
  1  2  2  0
  1  4  1  0
  2  3  1  0
  3  6  2  0
  4  5  2  0
  5  6  1  0
  5  8  1  0
  6 23  1  0
  7 22  1  0
  7 23  2  0
  7 24  1  0
  8 21  1  0
  8 22  2  0
  9 10  2  0
  9 24  1  0
  9 25  1  0
 10 11  1  0
 11 12  2  0
 12 26  1  0
 12 27  1  0
 13 14  1  0
 13 15  1  0
 14 15  1  0
 15 16  1  0
 16 17  2  0
 16 18  1  0
 17 20  1  0
 18 19  1  0
 19 20  2  0
 20 21  1  0
 25 26  2  0
 27 28  1  0
 28 29  3  0
M  END
>  <DRUGBANK_ID>  (1) 
DB07966

>  <COMMON_NAME>  (1) 
[4-({4-[(5-cyclopropyl-1H-pyrazol-3-yl)amino]quinazolin-2-yl}amino)phenyl]acetonitrile

$$$$
