
     RDKit          3D

  7  7  0  0  1  0  0  0  0  0999 V2000
    1.0514    0.1047    0.0034 N   0  0  0  0  0  0  0  0  0  0  0  0
    0.5670    1.2066   -0.8324 C   0  0  2  0  0  0  0  0  0  0  0  0
    1.3656    2.4657   -0.5987 C   0  0  0  0  0  0  0  0  0  0  0  0
    0.3528    3.5834   -0.6882 C   0  0  0  0  0  0  0  0  0  0  0  0
   -0.9429    2.9964   -0.7677 O   0  0  0  0  0  0  0  0  0  0  0  0
   -0.8421    1.6593   -0.5024 C   0  0  0  0  0  0  0  0  0  0  0  0
   -1.7835    0.9638   -0.1503 O   0  0  0  0  0  0  0  0  0  0  0  0
  2  1  1  1
  2  3  1  0
  2  6  1  0
  3  4  1  0
  4  5  1  0
  5  6  1  0
  6  7  2  0
M  END
>  <DRUGBANK_ID>  (1) 
DB02624

>  <SECONDARY_ACCESSION_NUMBERS>  (1) 
EXPT01784

>  <COMMON_NAME>  (1) 
Homoserine Lactone

>  <CAS_NUMBER>  (1) 
1192-20-7

$$$$
