PG2
     RDKit          3D

 25 25  0  0  0  0  0  0  0  0999 V2000
    3.0881    0.3321   -3.5568 C   0  0  0  0  0  0  0  0  0  0  0  0
    2.5551    1.6973   -3.9211 C   0  0  0  0  0  0  0  0  0  0  0  0
    1.8222    1.7371   -5.2524 C   0  0  0  0  0  0  0  0  0  0  0  0
    0.5699    0.8872   -5.2489 C   0  0  0  0  0  0  0  0  0  0  0  0
   -0.3959    1.3940   -4.2060 C   0  0  0  0  0  0  0  0  0  0  0  0
   -1.6256    1.8345   -4.4918 C   0  0  0  0  0  0  0  0  0  0  0  0
   -2.1985    1.7665   -5.8745 C   0  0  0  0  0  0  0  0  0  0  0  0
   -3.2914    0.7172   -5.9305 C   0  0  1  0  0  0  0  0  0  0  0  0
   -3.7394    0.3609   -7.3682 C   0  0  2  0  0  0  0  0  0  0  0  0
   -3.0376   -0.9404   -7.7832 C   0  0  0  0  0  0  0  0  0  0  0  0
   -2.2776   -1.3106   -6.5453 C   0  0  0  0  0  0  0  0  0  0  0  0
   -2.8430   -0.6171   -5.3347 C   0  0  2  0  0  0  0  0  0  0  0  0
   -3.9709   -1.4231   -4.8288 C   0  0  0  0  0  0  0  0  0  0  0  0
   -5.2746   -1.0996   -4.8736 C   0  0  0  0  0  0  0  0  0  0  0  0
   -6.2850   -2.0192   -4.3216 C   0  0  2  0  0  0  0  0  0  0  0  0
   -6.1453   -1.9926   -2.7941 C   0  0  0  0  0  0  0  0  0  0  0  0
   -6.8645   -3.1490   -2.1235 C   0  0  0  0  0  0  0  0  0  0  0  0
   -6.2749   -4.5199   -2.4819 C   0  0  0  0  0  0  0  0  0  0  0  0
   -4.7724   -4.6230   -2.1936 C   0  0  0  0  0  0  0  0  0  0  0  0
   -4.5208   -4.5112   -0.7023 C   0  0  0  0  0  0  0  0  0  0  0  0
    2.1878   -0.6237   -3.2581 O   0  0  0  0  0  0  0  0  0  0  0  0
    4.2936    0.0976   -3.4906 O   0  0  0  0  0  0  0  0  0  0  0  0
   -3.4183    1.4210   -8.2552 O   0  0  0  0  0  0  0  0  0  0  0  0
   -1.3697   -2.1328   -6.5097 O   0  0  0  0  0  0  0  0  0  0  0  0
   -6.0297   -3.2546   -4.9710 O   0  0  0  0  0  0  0  0  0  0  0  0
  1  2  1  0
  1 21  1  0
  1 22  2  0
  2  3  1  0
  3  4  1  0
  4  5  1  0
  5  6  2  0
  6  7  1  0
  8  9  1  0
  8 12  1  0
  8  7  1  6
  9 10  1  0
  9 23  1  6
 10 11  1  0
 11 12  1  0
 11 24  2  0
 12 13  1  6
 13 14  2  0
 15 25  1  6
 15 16  1  0
 15 14  1  0
 16 17  1  0
 17 18  1  0
 18 19  1  0
 19 20  1  0
M  END
>  <DRUGBANK_ID>  (1) 
DB02056

>  <SECONDARY_ACCESSION_NUMBERS>  (1) 
EXPT02562; DB08863

>  <COMMON_NAME>  (1) 
Prostaglandin D2

>  <CAS_NUMBER>  (1) 
41598-07-6

>  <UNII>  (1) 
RXY07S6CZ2

>  <SYNONYMS>  (1) 
(5Z,13E,15S)-9alpha,15-Dihydroxy-11-oxoprosta-5,13-dienoate; (5Z,13E)-(15S)-9alpha,15-Dihydroxy-11-oxoprosta-5,13-dienoate; 11-Dehydroprostaglandin F2-alpha; PGD2

$$$$
