
     RDKit          3D

 17 17  0  0  0  0  0  0  0  0999 V2000
    1.0130    1.0392    0.3044 C   0  0  0  0  0  0  0  0  0  0  0  0
   -0.2594    1.3056    0.0535 C   0  0  0  0  0  0  0  0  0  0  0  0
   -0.8402    0.0959    0.1073 C   0  0  0  0  0  0  0  0  0  0  0  0
   -0.1611   -1.1754    0.5460 C   0  0  0  0  0  0  0  0  0  0  0  0
    1.0996   -1.3980    1.2373 C   0  0  0  0  0  0  0  0  0  0  0  0
    1.8572   -0.3507    1.0172 C   0  0  0  0  0  0  0  0  0  0  0  0
   -2.5318    0.0840   -0.1074 Cl  0  0  0  0  0  0  0  0  0  0  0  0
    3.7234   -0.5202    0.9642 N   0  0  0  0  0  0  0  0  0  0  0  0
    4.6279   -1.4814    0.3692 C   0  0  0  0  0  0  0  0  0  0  0  0
    5.8911   -1.3346    0.0485 N   0  0  0  0  0  0  0  0  0  0  0  0
    4.0124   -2.6208    0.0008 N   0  0  0  0  0  0  0  0  0  0  0  0
    2.7760   -2.7546   -0.5068 C   0  0  0  0  0  0  0  0  0  0  0  0
    1.9799   -3.7846   -0.3119 N   0  0  0  0  0  0  0  0  0  0  0  0
    2.2217   -1.5270   -1.0012 N   0  0  0  0  0  0  0  0  0  0  0  0
    2.7688    0.2779   -0.6397 C   0  0  0  0  0  0  0  0  0  0  0  0
    2.2050    0.9367   -1.8976 C   0  0  0  0  0  0  0  0  0  0  0  0
    2.8366    1.2978    1.1805 C   0  0  0  0  0  0  0  0  0  0  0  0
  1  2  2  0
  1  6  1  0
  2  3  1  0
  3  4  2  0
  3  7  1  0
  4  5  1  0
  5  6  2  0
  6  8  1  0
  8  9  1  0
  9 10  2  0
  9 11  1  0
 11 12  1  0
 12 13  2  0
 12 14  1  0
 14 15  1  0
 15 16  1  0
 15 17  1  0
M  END
>  <DRUGBANK_ID>  (1) 
DB01131

>  <SECONDARY_ACCESSION_NUMBERS>  (1) 
APRD00188

>  <COMMON_NAME>  (1) 
Proguanil

>  <CAS_NUMBER>  (1) 
500-92-5

>  <UNII>  (1) 
S61K3P7B2V

>  <SYNONYMS>  (1) 
1-(p-Chlorophenyl)-5-isopropylbiguanide; Chlorguanide; Chloroguanide; Proguanil; Proguanile; Proguanilo; Proguanilum

$$$$
