
     RDKit          3D

 23 24  0  0  1  0  0  0  0  0999 V2000
    1.2736   -0.2790    0.2222 C   0  0  0  0  0  0  0  0  0  0  0  0
    0.9387   -2.2941   -0.9784 C   0  0  0  0  0  0  0  0  0  0  0  0
    0.5163    1.0516   -0.0631 C   0  0  2  0  0  0  0  0  0  0  0  0
    1.0893   -0.9001   -1.7024 C   0  0  2  0  0  0  0  0  0  0  0  0
   -0.0173    2.7337   -2.6870 C   0  0  2  0  0  0  0  0  0  0  0  0
   -1.1814    1.2031   -1.1549 C   0  0  1  0  0  0  0  0  0  0  0  0
   -0.6677    1.3790   -2.6316 C   0  0  2  0  0  0  0  0  0  0  0  0
    2.1467    1.6139    0.6252 C   0  0  2  0  0  0  0  0  0  0  0  0
    0.2100    2.3335    0.9686 C   0  0  2  0  0  0  0  0  0  0  0  0
    2.5159    0.5914   -1.2428 C   0  0  2  0  0  0  0  0  0  0  0  0
   -1.0159    0.6377    0.7826 C   0  0  2  0  0  0  0  0  0  0  0  0
    1.3933    2.8197   -1.9914 C   0  0  1  0  0  0  0  0  0  0  0  0
   -0.9443    3.6513   -2.3512 F   0  0  0  0  0  0  0  0  0  0  0  0
    0.7705    0.6820   -0.8074 O   0  0  0  0  0  0  0  0  0  0  0  0
   -0.3530   -2.9425   -1.0985 O   0  0  0  0  0  0  0  0  0  0  0  0
   -2.2810   -0.2022   -0.7961 O   0  0  0  0  0  0  0  0  0  0  0  0
    0.3073    0.6426   -3.4189 O   0  0  0  0  0  0  0  0  0  0  0  0
    2.6342    0.5888    1.7749 O   0  0  0  0  0  0  0  0  0  0  0  0
   -0.4612    3.4733    0.0556 O   0  0  0  0  0  0  0  0  0  0  0  0
   -0.9098   -0.2928    1.8234 O   0  0  0  0  0  0  0  0  0  0  0  0
   -0.5023   -0.6052   -0.7415 O   0  0  0  0  0  0  0  0  0  0  0  0
    1.2599    2.6103   -0.6579 O   0  0  0  0  0  0  0  0  0  0  0  0
    2.3664    1.7670   -2.3112 O   0  0  0  0  0  0  0  0  0  0  0  0
  3  1  1  6
  4  2  1  1
  5 13  1  1
  6  3  1  0
  6 16  1  6
  7  5  1  0
  7  6  1  0
  7 17  1  1
  8 18  1  1
  9  8  1  0
  9 19  1  6
 10  4  1  0
 10  8  1  0
 10 23  1  6
 11  9  1  0
 11 20  1  1
 12  5  1  0
 12 23  1  6
 14  1  1  0
 15  2  1  0
 21  4  1  0
 21 11  1  0
 22  3  1  0
 22 12  1  0
M  END
>  <DRUGBANK_ID>  (1) 
DB04155

>  <SECONDARY_ACCESSION_NUMBERS>  (1) 
EXPT00118

>  <COMMON_NAME>  (1) 
2-Fluoro-2-Deoxy-Beta-D-Galactopyranosyl-Beta-D-Glucopyranose

$$$$
