
     RDKit          3D

 13 13  0  0  1  0  0  0  0  0999 V2000
   -0.2436   -8.6404   -0.9720 C   0  0  0  0  0  0  0  0  0  0  0  0
    0.3239   -7.4243   -1.6406 C   0  0  0  0  0  0  0  0  0  0  0  0
    1.0764   -7.5027   -2.8112 C   0  0  0  0  0  0  0  0  0  0  0  0
    1.5247   -6.3370   -3.4379 C   0  0  0  0  0  0  0  0  0  0  0  0
    1.1740   -5.0817   -2.9346 C   0  0  0  0  0  0  0  0  0  0  0  0
    0.4054   -4.9864   -1.7724 C   0  0  0  0  0  0  0  0  0  0  0  0
   -0.0329   -3.6582   -1.2118 C   0  0  0  0  0  0  0  0  0  0  0  0
   -1.5526   -3.3638   -1.2264 C   0  0  2  0  0  0  0  0  0  0  0  0
   -1.8591   -2.4681   -0.0803 N   0  0  0  0  0  0  0  0  0  0  0  0
   -2.4896   -4.5934   -1.1464 C   0  0  0  0  0  0  0  0  0  0  0  0
   -3.1800   -4.8625   -2.2770 O   0  0  0  0  0  0  0  0  0  0  0  0
   -2.6788   -5.2378   -0.1183 O   0  0  0  0  0  0  0  0  0  0  0  0
    0.0541   -6.1662   -1.1009 C   0  0  0  0  0  0  0  0  0  0  0  0
  1  2  1  0
  2  3  2  0
  2 13  1  0
  3  4  1  0
  4  5  2  0
  5  6  1  0
  6  7  1  0
  6 13  2  0
  8 10  1  0
  8  9  1  1
  8  7  1  0
 10 11  1  0
 10 12  2  0
M  END
>  <DRUGBANK_ID>  (1) 
DB02685

>  <SECONDARY_ACCESSION_NUMBERS>  (1) 
EXPT00540

>  <COMMON_NAME>  (1) 
3-Methylphenylalanine

>  <UNII>  (1) 
Y3C5V2444R

$$$$
