1460
     RDKit          3D

 16 17  0  0  0  0  0  0  0  0999 V2000
    0.9562   -0.2403   -0.4561 N   0  0  0  0  0  0  0  0  0  0  0  0
   -0.0893    0.3982    4.9911 N   0  0  0  0  0  0  0  0  0  0  0  0
    0.5634   -1.4320    0.4095 C   0  0  0  0  0  0  0  0  0  0  0  0
    1.1957   -1.7147    1.9599 C   0  0  0  0  0  0  0  0  0  0  0  0
    1.0613   -0.6636    3.3075 C   0  0  0  0  0  0  0  0  0  0  0  0
    1.6092    0.8128    3.5670 C   0  0  0  0  0  0  0  0  0  0  0  0
    0.1804    0.9636   -0.0591 C   0  0  0  0  0  0  0  0  0  0  0  0
    2.4260   -0.0453   -0.3828 C   0  0  0  0  0  0  0  0  0  0  0  0
    0.6695    1.4208    4.4049 C   0  0  0  0  0  0  0  0  0  0  0  0
    0.0698   -0.7974    4.2739 C   0  0  0  0  0  0  0  0  0  0  0  0
    2.4108    1.7625    2.7671 C   0  0  0  0  0  0  0  0  0  0  0  0
    0.1567    0.9023    1.3876 C   0  0  0  0  0  0  0  0  0  0  0  0
    3.0936   -1.0316   -1.3127 C   0  0  0  0  0  0  0  0  0  0  0  0
    0.4817    2.8438    4.4623 C   0  0  0  0  0  0  0  0  0  0  0  0
    1.9905    3.1157    2.6045 C   0  0  0  0  0  0  0  0  0  0  0  0
    1.0871    3.6648    3.4848 C   0  0  0  0  0  0  0  0  0  0  0  0
  1  3  1  0
  1  7  1  0
  1  8  1  0
  2  9  1  0
  2 10  1  0
  3  4  1  0
  4  5  1  0
  5  6  1  0
  5 10  2  0
  6  9  2  0
  6 11  1  0
  7 12  1  0
  8 13  1  0
  9 14  1  0
 11 15  2  0
 14 16  2  0
 15 16  1  0
M  END
>  <DRUGBANK_ID>  (1) 
DB01460

>  <COMMON_NAME>  (1) 
Diethyltryptamine

>  <CAS_NUMBER>  (1) 
61-51-8

>  <UNII>  (1) 
916E8V4S2V

>  <SYNONYMS>  (1) 
3-(2-Diethylaminoethyl)indole; DET; N,N-Diethyltryptamine

$$$$
