
     RDKit          3D

  7  7  0  0  0  0  0  0  0  0999 V2000
    2.4870   -0.0045   -0.0124 C   0  0  0  0  0  0  0  0  0  0  0  0
    0.9874    0.0037    0.0012 C   0  0  0  0  0  0  0  0  0  0  0  0
    0.2777    1.2105    0.0025 C   0  0  0  0  0  0  0  0  0  0  0  0
   -1.1177    1.2100   -0.0006 C   0  0  0  0  0  0  0  0  0  0  0  0
   -1.8159    0.0038   -0.0055 C   0  0  0  0  0  0  0  0  0  0  0  0
   -1.1185   -1.2030   -0.0007 C   0  0  0  0  0  0  0  0  0  0  0  0
    0.2774   -1.2039    0.0031 C   0  0  0  0  0  0  0  0  0  0  0  0
  1  2  1  0
  2  3  2  0
  2  7  1  0
  3  4  1  0
  4  5  2  0
  5  6  1  0
  6  7  2  0
M  END
>  <DRUGBANK_ID>  (1) 
DB11558

>  <SECONDARY_ACCESSION_NUMBERS>  (1) 
DB01900; EXPT02123

>  <COMMON_NAME>  (1) 
Toluene

>  <CAS_NUMBER>  (1) 
108-88-3

>  <UNII>  (1) 
3FPU23BG52

$$$$
