
     RDKit          3D

 31 33  0  0  0  0  0  0  0  0999 V2000
    1.6176   -0.6367    0.5005 C   0  0  0  0  0  0  0  0  0  0  0  0
    0.8114   -0.4345    1.7610 C   0  0  0  0  0  0  0  0  0  0  0  0
    1.2116    0.9037    2.3844 C   0  0  0  0  0  0  0  0  0  0  0  0
    0.6123    2.1616    1.6886 C   0  0  0  0  0  0  0  0  0  0  0  0
   -0.2093    2.9406    2.3442 N   0  0  0  0  0  0  0  0  0  0  0  0
   -0.2522    2.6489    3.7298 O   0  0  0  0  0  0  0  0  0  0  0  0
   -1.1866    3.5071    4.3887 C   0  0  0  0  0  0  0  0  0  0  0  0
   -0.7020    4.9537    4.6186 C   0  0  1  0  0  0  0  0  0  0  0  0
   -0.4179    5.6848    3.3119 C   0  0  0  0  0  0  0  0  0  0  0  0
   -1.5520    5.7574    5.4881 O   0  0  0  0  0  0  0  0  0  0  0  0
   -2.8025    6.0858    5.0357 C   0  0  0  0  0  0  0  0  0  0  0  0
   -3.7299    5.1324    4.6241 C   0  0  0  0  0  0  0  0  0  0  0  0
   -4.9672    5.4927    4.1034 C   0  0  0  0  0  0  0  0  0  0  0  0
   -5.3479    6.8230    4.1226 C   0  0  0  0  0  0  0  0  0  0  0  0
   -6.9122    7.2507    3.5552 Cl  0  0  0  0  0  0  0  0  0  0  0  0
   -4.4847    7.7880    4.6418 C   0  0  0  0  0  0  0  0  0  0  0  0
   -3.2032    7.4221    5.0858 C   0  0  0  0  0  0  0  0  0  0  0  0
    1.0274    2.5514    0.2305 C   0  0  0  0  0  0  0  0  0  0  0  0
    0.7356    1.8490   -0.9168 C   0  0  0  0  0  0  0  0  0  0  0  0
   -0.0877    0.7336   -1.0088 O   0  0  0  0  0  0  0  0  0  0  0  0
    1.0044    2.2904   -2.3161 C   0  0  0  0  0  0  0  0  0  0  0  0
    0.5668    3.7294   -2.3936 C   0  0  2  0  0  0  0  0  0  0  0  0
    1.5014    4.5089   -1.4674 C   0  0  0  0  0  0  0  0  0  0  0  0
    1.4807    3.9813   -0.0418 C   0  0  0  0  0  0  0  0  0  0  0  0
    1.8010    4.7538    0.8850 O   0  0  0  0  0  0  0  0  0  0  0  0
   -0.9804    3.8915   -2.0867 C   0  0  2  0  0  0  0  0  0  0  0  0
   -1.3593    5.3477   -2.3434 C   0  0  0  0  0  0  0  0  0  0  0  0
   -2.8552    5.5804   -2.1741 C   0  0  0  0  0  0  0  0  0  0  0  0
   -3.3273    5.3731   -0.7395 C   0  0  0  0  0  0  0  0  0  0  0  0
   -3.2380    3.6362   -0.3427 S   0  0  0  0  0  0  0  0  0  0  0  0
   -1.4864    3.5056   -0.6712 C   0  0  0  0  0  0  0  0  0  0  0  0
  1  2  1  0
  2  3  1  0
  3  4  1  0
  4  5  2  3
  4 18  1  0
  5  6  1  0
  6  7  1  0
  7  8  1  0
  8  9  1  6
  8 10  1  0
 10 11  1  0
 11 12  2  0
 11 17  1  0
 12 13  1  0
 13 14  2  0
 14 15  1  0
 14 16  1  0
 16 17  2  0
 18 19  2  0
 18 24  1  0
 19 20  1  0
 19 21  1  0
 22 21  1  1
 22 23  1  0
 22 26  1  0
 23 24  1  0
 24 25  2  0
 26 27  1  1
 26 31  1  0
 27 28  1  0
 28 29  1  0
 29 30  1  0
 30 31  1  0
M  END
>  <DRUGBANK_ID>  (1) 
DB14820

>  <COMMON_NAME>  (1) 
Profoxydim

>  <CAS_NUMBER>  (1) 
139001-49-3

>  <UNII>  (1) 
T7QYT6EW74

>  <SYNONYMS>  (1) 
TETRIS

$$$$
