
     RDKit          3D

 32 36  0  0  0  0  0  0  0  0999 V2000
    0.9934   -0.0592   -0.1358 C   0  0  0  0  0  0  0  0  0  0  0  0
    0.5307   -1.3846    0.4642 C   0  0  0  0  0  0  0  0  0  0  0  0
    1.0167   -1.6313    1.8659 C   0  0  0  0  0  0  0  0  0  0  0  0
    1.0920   -2.8942    2.4112 C   0  0  0  0  0  0  0  0  0  0  0  0
    1.5239   -3.1573    3.6718 N   0  0  0  0  0  0  0  0  0  0  0  0
    1.8230   -2.1061    4.4487 C   0  0  0  0  0  0  0  0  0  0  0  0
    1.7433   -0.8411    4.0284 N   0  0  0  0  0  0  0  0  0  0  0  0
    1.3756   -0.6354    2.7451 C   0  0  0  0  0  0  0  0  0  0  0  0
    2.2267   -2.3125    5.7449 N   0  0  0  0  0  0  0  0  0  0  0  0
    3.3186   -3.1939    6.0646 C   0  0  0  0  0  0  0  0  0  0  0  0
    2.8070   -4.3519    6.9085 C   0  0  0  0  0  0  0  0  0  0  0  0
    1.9607   -3.8866    8.1115 C   0  0  0  0  0  0  0  0  0  0  0  0
    0.9350   -2.8041    7.7018 C   0  0  0  0  0  0  0  0  0  0  0  0
    1.5246   -1.6913    6.8391 C   0  0  0  0  0  0  0  0  0  0  0  0
    1.3088   -5.1168    8.7416 C   0  0  0  0  0  0  0  0  0  0  0  0
    1.9865   -6.1507    9.2103 N   0  0  0  0  0  0  0  0  0  0  0  0
    1.1171   -7.1334    9.7000 C   0  0  0  0  0  0  0  0  0  0  0  0
   -0.2230   -6.8379    9.5444 C   0  0  0  0  0  0  0  0  0  0  0  0
   -0.4076   -5.2843    8.8735 S   0  0  0  0  0  0  0  0  0  0  0  0
    1.6702   -8.2858   10.4840 C   0  0  0  0  0  0  0  0  0  0  0  0
    1.2167   -8.4129   11.8533 O   0  0  0  0  0  0  0  0  0  0  0  0
    1.4090   -7.3908   12.7427 C   0  0  0  0  0  0  0  0  0  0  0  0
    1.3478   -6.0316   12.4371 C   0  0  0  0  0  0  0  0  0  0  0  0
    1.3511   -5.0426   13.4133 C   0  0  0  0  0  0  0  0  0  0  0  0
    1.4901   -5.4217   14.7378 C   0  0  0  0  0  0  0  0  0  0  0  0
    1.5916   -6.7731   15.0832 C   0  0  0  0  0  0  0  0  0  0  0  0
    1.5416   -7.7542   14.0839 C   0  0  0  0  0  0  0  0  0  0  0  0
    1.5687   -4.4376   15.7276 N   0  0  0  0  0  0  0  0  0  0  0  0
    0.7959   -3.3203   15.8870 C   0  0  0  0  0  0  0  0  0  0  0  0
    1.2437   -2.6392   16.9163 N   0  0  0  0  0  0  0  0  0  0  0  0
    2.3251   -3.3443   17.3862 N   0  0  0  0  0  0  0  0  0  0  0  0
    2.5026   -4.4629   16.6966 N   0  0  0  0  0  0  0  0  0  0  0  0
  1  2  1  0
  2  3  1  0
  3  4  2  0
  3  8  1  0
  4  5  1  0
  5  6  2  0
  6  7  1  0
  6  9  1  0
  7  8  2  0
  9 10  1  0
  9 14  1  0
 10 11  1  0
 11 12  1  0
 12 13  1  0
 12 15  1  0
 13 14  1  0
 15 16  2  0
 15 19  1  0
 16 17  1  0
 17 18  2  0
 17 20  1  0
 18 19  1  0
 20 21  1  0
 21 22  1  0
 22 23  2  0
 22 27  1  0
 23 24  1  0
 24 25  2  0
 25 26  1  0
 25 28  1  0
 26 27  2  0
 28 29  1  0
 28 32  1  0
 29 30  2  0
 30 31  1  0
 31 32  2  0
M  END
>  <DRUGBANK_ID>  (1) 
DB12345

>  <COMMON_NAME>  (1) 
MBX-2982

>  <CAS_NUMBER>  (1) 
1037792-44-1

>  <UNII>  (1) 
B5TRY67L51

$$$$
