DMZ
     RDKit          3D

 23 25  0  0  0  0  0  0  0  0999 V2000
    0.4681    1.0815    0.0079 C   0  0  0  0  0  0  0  0  0  0  0  0
    1.0827   -0.1392   -0.0100 C   0  0  0  0  0  0  0  0  0  0  0  0
    0.2820   -1.2871   -0.0060 C   0  0  0  0  0  0  0  0  0  0  0  0
   -1.1326   -1.1932   -0.0089 C   0  0  0  0  0  0  0  0  0  0  0  0
   -1.7591    0.0667    0.0073 C   0  0  0  0  0  0  0  0  0  0  0  0
   -0.9051    1.1637    0.0476 C   0  0  0  0  0  0  0  0  0  0  0  0
    2.5734   -0.1201   -0.0189 C   0  0  0  0  0  0  0  0  0  0  0  0
   -3.5884    0.1257   -0.0136 S   0  0  0  0  0  0  0  0  0  0  0  0
   -3.9365   -0.5117   -1.2829 O   0  0  0  0  0  0  0  0  0  0  0  0
   -3.9783   -0.5261    1.2156 O   0  0  0  0  0  0  0  0  0  0  0  0
   -4.2350    1.6565   -0.0450 N   0  0  0  0  0  0  0  0  0  0  0  0
   -3.5034    2.8963    0.0142 C   0  0  0  0  0  0  0  0  0  0  0  0
   -5.6265    1.8428   -0.1356 C   0  0  0  0  0  0  0  0  0  0  0  0
   -6.5939    1.2292    0.6233 C   0  0  0  0  0  0  0  0  0  0  0  0
   -7.7770    1.9292    0.3105 C   0  0  0  0  0  0  0  0  0  0  0  0
   -7.5721    2.9605   -0.5151 N   0  0  0  0  0  0  0  0  0  0  0  0
   -6.2731    2.8511   -0.8538 N   0  0  0  0  0  0  0  0  0  0  0  0
   -5.6967    3.6457   -1.8760 C   0  0  0  0  0  0  0  0  0  0  0  0
   -4.9737    2.9971   -2.8913 C   0  0  0  0  0  0  0  0  0  0  0  0
   -4.2757    3.7468   -3.8355 C   0  0  0  0  0  0  0  0  0  0  0  0
   -4.2939    5.1391   -3.7689 C   0  0  0  0  0  0  0  0  0  0  0  0
   -5.0074    5.7866   -2.7551 C   0  0  0  0  0  0  0  0  0  0  0  0
   -5.6931    5.0448   -1.7845 C   0  0  0  0  0  0  0  0  0  0  0  0
  1  2  2  0
  1  6  1  0
  2  3  1  0
  2  7  1  0
  3  4  2  0
  4  5  1  0
  5  6  2  0
  5  8  1  0
  8  9  2  0
  8 10  2  0
  8 11  1  0
 11 12  1  0
 11 13  1  0
 13 14  2  0
 13 17  1  0
 14 15  1  0
 15 16  2  0
 16 17  1  0
 17 18  1  0
 18 19  2  0
 18 23  1  0
 19 20  1  0
 20 21  2  0
 21 22  1  0
 22 23  2  0
M  END
>  <DRUGBANK_ID>  (1) 
DB07670

>  <COMMON_NAME>  (1) 
N,4-Dimethyl-N-(1-phenyl-1H-pyrazol-5-yl)benzenesulfonamide

>  <CAS_NUMBER>  (1) 
374632-71-0

>  <UNII>  (1) 
AJJ39UGP8V

$$$$
