
     RDKit          3D

 23 25  0  0  0  0  0  0  0  0999 V2000
    1.3970    0.7192    0.0030 C   0  0  0  0  0  0  0  0  0  0  0  0
    1.4093   -0.7054    0.0160 C   0  0  0  0  0  0  0  0  0  0  0  0
    0.1159    1.2210   -0.0196 C   0  0  0  0  0  0  0  0  0  0  0  0
   -4.6251   -3.8161    1.7167 C   0  0  0  0  0  0  0  0  0  0  0  0
   -2.5329   -4.6728    0.1170 C   0  0  0  0  0  0  0  0  0  0  0  0
   -0.2378   -2.7097    0.0025 C   0  0  0  0  0  0  0  0  0  0  0  0
    0.1385   -1.2505    0.0077 C   0  0  0  0  0  0  0  0  0  0  0  0
   -3.3422   -3.2228    1.8595 C   0  0  0  0  0  0  0  0  0  0  0  0
   -3.7966   -5.2656   -0.0310 C   0  0  0  0  0  0  0  0  0  0  0  0
   -2.2655   -3.6720    1.0632 C   0  0  0  0  0  0  0  0  0  0  0  0
   -4.8506   -4.8540    0.7827 C   0  0  0  0  0  0  0  0  0  0  0  0
   -3.1411   -2.1565    2.8331 C   0  0  0  0  0  0  0  0  0  0  0  0
   -3.8761   -6.4839   -1.2502 Cl  0  0  0  0  0  0  0  0  0  0  0  0
   -6.7996   -6.1973    2.1610 N   0  0  0  0  0  0  0  0  0  0  0  0
   -0.9545   -3.1989    1.1848 N   0  0  0  0  0  0  0  0  0  0  0  0
   -3.2191   -2.3183    4.1657 N   0  0  0  0  0  0  0  0  0  0  0  0
   -2.7335   -0.8908    2.4846 N   0  0  0  0  0  0  0  0  0  0  0  0
   -2.8103   -1.1041    4.5745 N   0  0  0  0  0  0  0  0  0  0  0  0
   -2.5203   -0.2262    3.6108 N   0  0  0  0  0  0  0  0  0  0  0  0
   -7.4183   -4.4513    0.4509 O   0  0  0  0  0  0  0  0  0  0  0  0
   -6.5092   -6.7003   -0.2201 O   0  0  0  0  0  0  0  0  0  0  0  0
   -1.0540   -0.0240   -0.0950 S   0  0  0  0  0  0  0  0  0  0  0  0
   -6.4844   -5.5432    0.6338 S   0  0  0  0  0  0  0  0  0  0  0  0
  2  1  1  0
  3  1  2  0
  7  2  2  0
  7  6  1  0
  8  4  2  0
  9  5  1  0
 10  5  2  0
 10  8  1  0
 11  4  1  0
 11  9  2  0
 12  8  1  0
 13  9  1  0
 15  6  1  0
 15 10  1  0
 16 12  2  0
 17 12  1  0
 18 16  1  0
 19 17  2  0
 19 18  1  0
 22  3  1  0
 22  7  1  0
 23 11  1  0
 23 14  1  0
 23 20  2  0
 23 21  2  0
M  END
>  <DRUGBANK_ID>  (1) 
DB08961

>  <COMMON_NAME>  (1) 
Azosemide

>  <CAS_NUMBER>  (1) 
27589-33-9

>  <UNII>  (1) 
MR40VT1L8Z

>  <SYNONYMS>  (1) 
2-chloro-5-(1H-tetrazol-5-yl)-N4-2-thenylsulfanilamide; 5-(4'-chloro-5'-sulfamoyl-2'-thenylaminophenyl)tetrazole; azosemida; Azosemide; azos√©mide; azosemidum

$$$$
