
     RDKit          3D

 25 28  0  0  0  0  0  0  0  0999 V2000
    1.2629    1.3977   -0.1591 N   0  0  0  0  0  0  0  0  0  0  0  0
    2.4720   -0.7484   -0.0321 C   0  0  0  0  0  0  0  0  0  0  0  0
   -0.0405    0.7707   -0.1013 C   0  0  0  0  0  0  0  0  0  0  0  0
   -0.0731   -0.6456   -0.0430 C   0  0  0  0  0  0  0  0  0  0  0  0
   -1.3074    1.4501   -0.0976 C   0  0  0  0  0  0  0  0  0  0  0  0
    2.3961    0.5892   -0.0750 C   0  0  0  0  0  0  0  0  0  0  0  0
    1.1781   -1.4565   -0.0294 C   0  0  0  0  0  0  0  0  0  0  0  0
   -2.5528    0.7575   -0.0175 C   0  0  0  0  0  0  0  0  0  0  0  0
   -3.7795    1.3964   -0.0090 N   0  0  0  0  0  0  0  0  0  0  0  0
   -2.4857   -0.6482    0.0337 C   0  0  0  0  0  0  0  0  0  0  0  0
    1.4383    2.8462    0.1330 C   0  0  0  0  0  0  0  0  0  0  0  0
   -1.2822   -1.3437    0.0134 C   0  0  0  0  0  0  0  0  0  0  0  0
    3.7694   -1.4611    0.0072 C   0  0  0  0  0  0  0  0  0  0  0  0
    1.7672    3.9360   -0.8649 C   0  0  0  0  0  0  0  0  0  0  0  0
    2.7711    3.5373    0.1729 C   0  0  0  0  0  0  0  0  0  0  0  0
   -4.2540    2.3406   -1.0243 C   0  0  0  0  0  0  0  0  0  0  0  0
   -4.7588    1.2685    1.0543 C   0  0  0  0  0  0  0  0  0  0  0  0
    1.1089   -2.6803    0.0003 O   0  0  0  0  0  0  0  0  0  0  0  0
   -1.4217    3.1933   -0.1442 Cl  0  0  0  0  0  0  0  0  0  0  0  0
    3.9481   -2.6699    0.0201 O   0  0  0  0  0  0  0  0  0  0  0  0
   -6.0739    1.3750    0.2902 C   0  0  0  0  0  0  0  0  0  0  0  0
   -3.6162   -1.3741    0.0466 F   0  0  0  0  0  0  0  0  0  0  0  0
   -5.7952    2.3826   -0.8342 C   0  0  0  0  0  0  0  0  0  0  0  0
    4.8446   -0.6455    0.0092 O   0  0  0  0  0  0  0  0  0  0  0  0
   -6.2959    3.7258   -0.5054 N   0  0  0  0  0  0  0  0  0  0  0  0
  1  3  1  0
  1  6  1  0
  1 11  1  0
  2  6  2  0
  2  7  1  0
  2 13  1  0
  3  4  2  0
  3  5  1  0
  4  7  1  0
  4 12  1  0
  5  8  2  0
  5 19  1  0
  7 18  2  0
  8  9  1  0
  8 10  1  0
  9 16  1  0
  9 17  1  0
 10 12  2  0
 10 22  1  0
 11 14  1  0
 11 15  1  0
 13 20  2  0
 13 24  1  0
 14 15  1  0
 16 23  1  0
 17 21  1  0
 21 23  1  0
 23 25  1  0
M  END
>  <DRUGBANK_ID>  (1) 
DB14025

>  <COMMON_NAME>  (1) 
Clinafloxacin

>  <CAS_NUMBER>  (1) 
105956-97-6

>  <UNII>  (1) 
8N86XTF9QD

>  <SYNONYMS>  (1) 
Clinafloxacin

$$$$
