ASF
     RDKit          3D

 12 11  0  0  0  0  0  0  0  0999 V2000
    1.0813   -0.0317    0.0062 C   0  0  0  0  0  0  0  0  0  0  0  0
    0.6485    1.4267    0.0108 C   0  0  0  0  0  0  0  0  0  0  0  0
    1.0201    2.1289   -1.2963 C   0  0  0  0  0  0  0  0  0  0  0  0
    0.4501    1.4465   -2.5440 C   0  0  0  0  0  0  0  0  0  0  0  0
   -1.8956    3.0554   -2.6388 C   0  0  0  0  0  0  0  0  0  0  0  0
   -1.4053    3.8411   -3.8434 C   0  0  0  0  0  0  0  0  0  0  0  0
   -1.8117    3.2508   -5.1694 C   0  0  0  0  0  0  0  0  0  0  0  0
   -1.7828    0.6168   -3.7275 O   0  0  0  0  0  0  0  0  0  0  0  0
   -1.8388    0.8314   -1.2799 O   0  0  0  0  0  0  0  0  0  0  0  0
   -2.6868    3.9747   -5.8875 O   0  0  0  0  0  0  0  0  0  0  0  0
   -1.3203    2.2251   -5.6226 O   0  0  0  0  0  0  0  0  0  0  0  0
   -1.3607    1.3407   -2.5501 S   0  0  0  0  0  0  0  0  0  0  0  0
  1  2  1  0
  2  3  1  0
  3  4  1  0
  4 12  1  0
  5  6  1  0
  5 12  1  0
  6  7  1  0
  7 10  1  0
  7 11  2  0
  8 12  2  0
  9 12  2  0
M  END
>  <DRUGBANK_ID>  (1) 
DB07387

>  <COMMON_NAME>  (1) 
3-(BUTYLSULPHONYL)-PROPANOIC ACID

$$$$
