
     RDKit          3D

 23 19  0  0  0  0  0  0  0  0999 V2000
    1.0019    0.6072    2.0473 Na  0  0  0  0  0 15  0  0  0  0  0  0
    1.1190    2.3410   -0.8555 Na  0  0  0  0  0 15  0  0  0  0  0  0
    0.6948   -0.2644   -0.3585 O   0  0  0  0  0  0  0  0  0  0  0  0
    1.9783   -0.0820   -0.3810 C   0  0  0  0  0  0  0  0  0  0  0  0
    2.3953    0.7572    0.4453 O   0  0  0  0  0  0  0  0  0  0  0  0
    2.6795   -1.1032   -1.2982 C   0  0  0  0  0  0  0  0  0  0  0  0
    2.5610   -2.5046   -0.7540 N   0  0  0  0  0  0  0  0  0  0  0  0
    3.3793   -3.4710   -1.7374 C   0  0  0  0  0  0  0  0  0  0  0  0
    4.8943   -3.8303   -1.5433 C   0  0  0  0  0  0  0  0  0  0  0  0
    5.1400   -5.0186   -1.4136 O   0  0  0  0  0  0  0  0  0  0  0  0
    5.6636   -2.8185   -1.3880 O   0  0  0  0  0  0  0  0  0  0  0  0
    3.2624   -2.5795    0.6011 C   0  0  0  0  0  0  0  0  0  0  0  0
    4.7538   -2.2467    0.9061 C   0  0  0  0  0  0  0  0  0  0  0  0
    5.2971   -0.9033    0.5465 N   0  0  0  0  0  0  0  0  0  0  0  0
    6.7252   -0.8217    0.8865 C   0  0  0  0  0  0  0  0  0  0  0  0
    7.7044   -1.7379    0.0728 C   0  0  0  0  0  0  0  0  0  0  0  0
    8.5707   -1.0765   -0.5795 O   0  0  0  0  0  0  0  0  0  0  0  0
    7.7356   -2.9484    0.4648 O   0  0  0  0  0  0  0  0  0  0  0  0
    5.2262   -0.1857   -0.8177 C   0  0  0  0  0  0  0  0  0  0  0  0
    5.6205   -0.8097   -2.4198 C   0  0  0  0  0  0  0  0  0  0  0  0
    4.6078   -1.1223   -3.1739 O   0  0  0  0  0  0  0  0  0  0  0  0
    6.7721   -0.5219   -2.8501 O   0  0  0  0  0  0  0  0  0  0  0  0
    0.4612   -2.6029   -0.3680 Ca  0  0  0  0  0 15  0  0  0  0  0  0
  3  4  1  0
  4  5  2  0
  4  6  1  0
  6  7  1  0
  7  8  1  0
  7 12  1  0
  8  9  1  0
  9 10  1  0
  9 11  2  0
 12 13  1  0
 13 14  1  0
 14 15  1  0
 14 19  1  0
 15 16  1  0
 16 17  1  0
 16 18  2  0
 19 20  1  0
 20 21  1  0
 20 22  2  0
M  CHG  7   1   1   2   1   3  -1  10  -1  17  -1  21  -1  23   2
M  END
>  <DRUGBANK_ID>  (1) 
DB14598

>  <SECONDARY_ACCESSION_NUMBERS>  (1) 
DBSALT000837

>  <COMMON_NAME>  (1) 
Edetate calcium disodium anhydrous

>  <CAS_NUMBER>  (1) 
62-33-9

>  <UNII>  (1) 
8U5D034955

>  <SYNONYMS>  (1) 
Edetate calcium disodium (anhydrous); Edetic acid calcium disodium salt

$$$$
