
     RDKit          3D

 10  9  0  0  1  0  0  0  0  0999 V2000
    0.9111   -0.1199   -0.0142 O   0  0  0  0  0  0  0  0  0  0  0  0
    0.2873    0.8317    0.6972 C   0  0  0  0  0  0  0  0  0  0  0  0
   -1.2376    0.7652    0.6446 C   0  0  2  0  0  0  0  0  0  0  0  0
   -2.0136    0.5123    3.9565 S   0  0  0  0  0  0  0  0  0  0  0  0
   -1.7802   -0.4977    1.2995 C   0  0  0  0  0  0  0  0  0  0  0  0
   -1.2920   -0.6551    2.7416 C   0  0  0  0  0  0  0  0  0  0  0  0
   -1.2986    2.1223    3.5331 C   0  0  0  0  0  0  0  0  0  0  0  0
    0.9356    1.6373    1.3578 O   0  0  0  0  0  0  0  0  0  0  0  0
   -1.7614    1.0385   -0.7006 N   0  0  0  0  0  0  0  0  0  0  0  0
   -1.4249    0.1452    5.2874 O   0  0  0  0  0  0  0  0  0  0  0  0
  1  2  1  0
  2  8  2  0
  2  3  1  0
  3  9  1  6
  3  5  1  0
  4 10  2  0
  4  6  1  0
  4  7  1  0
  5  6  1  0
M  END
>  <DRUGBANK_ID>  (1) 
DB02467

>  <SECONDARY_ACCESSION_NUMBERS>  (1) 
EXPT02173

>  <COMMON_NAME>  (1) 
L-methionine (S)-S-oxide

$$$$
