
     RDKit          3D

 34 36  0  0  1  0  0  0  0  0999 V2000
    1.4418    0.9479    0.3569 C   0  0  1  0  0  0  0  0  0  0  0  0
    0.0291    0.0491    0.7381 C   0  0  2  0  0  0  0  0  0  0  0  0
    0.0410   -1.2438   -0.0220 C   0  0  2  0  0  0  0  0  0  0  0  0
   -0.8641   -2.1962    0.5623 O   0  0  0  0  0  0  0  0  0  0  0  0
    1.4827   -1.5012    0.0511 C   0  0  2  0  0  0  0  0  0  0  0  0
    2.2146   -0.2256   -0.1803 O   0  0  0  0  0  0  0  0  0  0  0  0
    1.7841   -2.4998   -1.0531 C   0  0  0  0  0  0  0  0  0  0  0  0
    2.2400   -3.7000   -0.4593 O   0  0  0  0  0  0  0  0  0  0  0  0
   -1.3186    0.2598    0.4609 O   0  0  0  0  0  0  0  0  0  0  0  0
    1.5608    2.3583   -0.4998 O   0  0  0  0  0  0  0  0  0  0  0  0
    0.4717    3.5347   -0.5457 C   0  0  2  0  0  0  0  0  0  0  0  0
    0.8169    4.5770    0.4469 C   0  0  1  0  0  0  0  0  0  0  0  0
    0.3667    4.0042    1.8171 C   0  0  2  0  0  0  0  0  0  0  0  0
   -1.0895    3.4330    2.0318 C   0  0  2  0  0  0  0  0  0  0  0  0
   -1.0564    2.4226    3.0971 O   0  0  0  0  0  0  0  0  0  0  0  0
   -1.5637    2.7735    0.7417 C   0  0  2  0  0  0  0  0  0  0  0  0
   -1.0138    3.3374   -0.4674 O   0  0  0  0  0  0  0  0  0  0  0  0
   -3.0137    1.9335    0.5932 C   0  0  0  0  0  0  0  0  0  0  0  0
   -3.2240    1.0181   -0.5970 O   0  0  0  0  0  0  0  0  0  0  0  0
   -3.1461    1.4788   -1.9621 C   0  0  2  0  0  0  0  0  0  0  0  0
   -3.5215    0.4472   -3.1047 C   0  0  1  0  0  0  0  0  0  0  0  0
   -2.4544   -0.6664   -3.4439 C   0  0  2  0  0  0  0  0  0  0  0  0
   -1.0844   -0.0797   -3.7538 C   0  0  1  0  0  0  0  0  0  0  0  0
   -0.9738    0.7742   -4.8737 O   0  0  0  0  0  0  0  0  0  0  0  0
   -0.9509    0.7518   -2.6096 C   0  0  2  0  0  0  0  0  0  0  0  0
   -1.8441    1.8873   -2.3894 O   0  0  0  0  0  0  0  0  0  0  0  0
    0.4249    1.1958   -2.4673 C   0  0  0  0  0  0  0  0  0  0  0  0
    0.0164    1.3251   -1.1700 O   0  0  0  0  0  0  0  0  0  0  0  0
   -2.7544   -1.4065   -4.6077 O   0  0  0  0  0  0  0  0  0  0  0  0
   -4.7928   -0.1349   -2.8955 O   0  0  0  0  0  0  0  0  0  0  0  0
    0.7672    4.8482    2.8720 O   0  0  0  0  0  0  0  0  0  0  0  0
    2.2225    4.8280    0.2774 O   0  0  0  0  0  0  0  0  0  0  0  0
    2.2295    1.4617    1.5572 C   0  0  0  0  0  0  0  0  0  0  0  0
    3.5370    1.0062    1.7890 O   0  0  0  0  0  0  0  0  0  0  0  0
  1 33  1  1
  1 10  1  0
  2  1  1  0
  2  9  1  6
  3  2  1  0
  3  4  1  1
  3  5  1  0
  5  6  1  0
  5  7  1  6
  6  1  1  0
  8  7  1  0
 11 10  1  1
 12 11  1  0
 12 32  1  1
 13 12  1  0
 13 31  1  1
 14 13  1  0
 14 15  1  1
 16 14  1  0
 16 17  1  0
 16 18  1  6
 17 11  1  0
 19 18  1  0
 20 19  1  1
 21 20  1  0
 21 30  1  1
 22 21  1  0
 22 29  1  6
 23 22  1  0
 23 24  1  6
 25 23  1  0
 25 26  1  0
 25 27  1  6
 26 20  1  0
 28 27  1  0
 34 33  1  0
M  END
>  <DRUGBANK_ID>  (1) 
DB16839

>  <COMMON_NAME>  (1) 
Raffinose

>  <CAS_NUMBER>  (1) 
512-69-6

>  <UNII>  (1) 
N5O3QU595M

>  <SYNONYMS>  (1) 
Gossypose; Melitose; Melitriose

$$$$
