
     RDKit          3D

 27 29  0  0  0  0  0  0  0  0999 V2000
   -1.5414    0.7590    0.2449 S   0  0  0  0  0  0  0  0  0  0  0  0
   -4.5519    2.3932    2.1901 O   0  0  0  0  0  0  0  0  0  0  0  0
   -3.3870   -2.6816   -0.0356 O   0  0  0  0  0  0  0  0  0  0  0  0
   -4.5388    0.4919    1.0196 N   0  0  0  0  0  0  0  0  0  0  0  0
   -0.7784   -1.6755    0.0256 N   0  0  0  0  0  0  0  0  0  0  0  0
   -7.0426   -0.2849   -2.6638 N   0  0  0  0  0  0  0  0  0  0  0  0
   -7.2122    0.2535   -0.3609 N   0  0  0  0  0  0  0  0  0  0  0  0
   -8.4578    1.3081   -1.7709 N   0  0  0  0  0  0  0  0  0  0  0  0
   -4.4578    2.7243   -0.1887 C   0  0  0  0  0  0  0  0  0  0  0  0
   -3.4582    3.8485   -0.2919 C   0  0  0  0  0  0  0  0  0  0  0  0
   -5.7786    3.3650   -0.5802 C   0  0  0  0  0  0  0  0  0  0  0  0
   -3.9489    4.6346   -1.5163 C   0  0  0  0  0  0  0  0  0  0  0  0
   -5.4054    4.2423   -1.7585 C   0  0  0  0  0  0  0  0  0  0  0  0
   -4.4926    1.8707    1.0790 C   0  0  0  0  0  0  0  0  0  0  0  0
   -4.3200   -0.5141   -0.0712 C   0  0  1  0  0  0  0  0  0  0  0  0
   -4.3112    0.1040   -1.4779 C   0  0  0  0  0  0  0  0  0  0  0  0
   -4.5844   -0.7175   -2.6952 C   0  0  0  0  0  0  0  0  0  0  0  0
   -3.1561   -1.4825    0.0569 C   0  0  0  0  0  0  0  0  0  0  0  0
   -5.9829   -1.3172   -2.6233 C   0  0  0  0  0  0  0  0  0  0  0  0
   -1.8351   -0.9128    0.1172 C   0  0  0  0  0  0  0  0  0  0  0  0
    0.1101    0.4957    0.0591 C   0  0  0  0  0  0  0  0  0  0  0  0
    0.3350   -0.8766    0.0211 C   0  0  0  0  0  0  0  0  0  0  0  0
    1.1274    1.4443    0.0005 C   0  0  0  0  0  0  0  0  0  0  0  0
    1.6444   -1.3477   -0.0076 C   0  0  0  0  0  0  0  0  0  0  0  0
   -7.5222    0.3496   -1.6699 C   0  0  0  0  0  0  0  0  0  0  0  0
    2.4274    0.9529   -0.0209 C   0  0  0  0  0  0  0  0  0  0  0  0
    2.6825   -0.4196   -0.0116 C   0  0  0  0  0  0  0  0  0  0  0  0
  1 20  1  0
  1 21  1  0
  2 14  2  0
  3 18  2  0
  4 14  1  0
  5 20  2  0
  5 22  1  0
  6 19  1  0
  6 25  2  3
  7 25  1  0
  8 25  1  0
  9 10  1  0
  9 11  1  0
  9 14  1  0
 10 12  1  0
 11 13  1  0
 12 13  1  0
 15  4  1  0
 15 16  1  6
 15 18  1  0
 16 17  1  0
 17 19  1  0
 18 20  1  0
 21 22  2  0
 21 23  1  0
 22 24  1  0
 23 26  2  0
 24 27  2  0
 26 27  1  0
M  END
>  <DRUGBANK_ID>  (1) 
DB03251

>  <SECONDARY_ACCESSION_NUMBERS>  (1) 
EXPT02826

>  <COMMON_NAME>  (1) 
RWJ-51084

$$$$
