2375
     RDKit          3D

 29 30  0  0  1  0  0  0  0  0999 V2000
    1.0942   -0.0251   -0.0363 S   0  0  0  0  0  0  0  0  0  0  0  0
    6.9953    0.0243    0.1049 F   0  0  0  0  0  0  0  0  0  0  0  0
    2.0544    6.5798    1.2944 F   0  0  0  0  0  0  0  0  0  0  0  0
    0.6426    7.4260    2.7088 F   0  0  0  0  0  0  0  0  0  0  0  0
    2.7202    8.0510    2.7234 F   0  0  0  0  0  0  0  0  0  0  0  0
    2.2872    2.5474    1.5178 O   0  0  0  0  0  0  0  0  0  0  0  0
    0.6512   -0.5427   -1.3175 O   0  0  0  0  0  0  0  0  0  0  0  0
    0.8055   -0.7485    1.1843 O   0  0  0  0  0  0  0  0  0  0  0  0
   -0.5166    0.9919    2.7267 O   0  0  0  0  0  0  0  0  0  0  0  0
    0.8113    2.3802    3.9022 N   0  0  0  0  0  0  0  0  0  0  0  0
    4.6226    7.9664    4.8628 N   0  0  0  0  0  0  0  0  0  0  0  0
    0.8780    2.4281    1.3406 C   0  0  0  0  0  0  0  0  0  0  0  0
    0.4867    1.6290    0.0963 C   0  0  0  0  0  0  0  0  0  0  0  0
    0.4032    3.8370    1.0170 C   0  0  0  0  0  0  0  0  0  0  0  0
    0.3114    1.9024    2.6948 C   0  0  0  0  0  0  0  0  0  0  0  0
    2.8811    0.0293   -0.1346 C   0  0  0  0  0  0  0  0  0  0  0  0
    1.6136    3.5137    4.1621 C   0  0  0  0  0  0  0  0  0  0  0  0
    3.6082    1.2193   -0.2576 C   0  0  0  0  0  0  0  0  0  0  0  0
    3.5632   -1.1795    0.0131 C   0  0  0  0  0  0  0  0  0  0  0  0
    1.2903    4.7542    3.6244 C   0  0  0  0  0  0  0  0  0  0  0  0
    4.9895    1.2301   -0.0735 C   0  0  0  0  0  0  0  0  0  0  0  0
    4.9598   -1.1783    0.0578 C   0  0  0  0  0  0  0  0  0  0  0  0
    2.7170    3.4629    5.0009 C   0  0  0  0  0  0  0  0  0  0  0  0
    2.1902    5.8352    3.5705 C   0  0  0  0  0  0  0  0  0  0  0  0
    5.6587    0.0256    0.0429 C   0  0  0  0  0  0  0  0  0  0  0  0
    3.2924    5.7831    4.4140 C   0  0  0  0  0  0  0  0  0  0  0  0
    3.5296    4.6073    5.1520 C   0  0  0  0  0  0  0  0  0  0  0  0
    1.9176    6.9662    2.5986 C   0  0  0  0  0  0  0  0  0  0  0  0
    4.0722    6.9573    4.6513 C   0  0  0  0  0  0  0  0  0  0  0  0
  1  7  2  0
  1  8  2  0
  1 13  1  0
  1 16  1  0
  2 25  1  0
  3 28  1  0
  4 28  1  0
  5 28  1  0
  6 12  1  0
  9 15  2  0
 10 15  1  0
 10 17  1  0
 11 29  3  0
 12 13  1  0
 12 14  1  0
 12 15  1  0
 16 18  2  0
 16 19  1  0
 17 20  2  0
 17 23  1  0
 18 21  1  0
 19 22  2  0
 20 24  1  0
 21 25  2  0
 22 25  1  0
 23 27  2  0
 24 26  2  0
 24 28  1  0
 26 27  1  0
 26 29  1  0
M  END
>  <DRUGBANK_ID>  (1) 
DB01128

>  <SECONDARY_ACCESSION_NUMBERS>  (1) 
APRD00042; DB06284

>  <COMMON_NAME>  (1) 
Bicalutamide

>  <CAS_NUMBER>  (1) 
90357-06-5

>  <UNII>  (1) 
A0Z3NAU9DP

>  <SYNONYMS>  (1) 
Bicalutamida; Bicalutamide; Bicalutamidum

$$$$
