D42
     RDKit          3D

 31 35  0  0  0  0  0  0  0  0999 V2000
    0.3753   -1.1986    0.2317 C   0  0  0  0  0  0  0  0  0  0  0  0
   -1.1231   -1.1976   -0.1467 C   0  0  0  0  0  0  0  0  0  0  0  0
   -1.8443    0.0294    0.2878 N   0  0  0  0  0  0  0  0  0  0  0  0
   -1.0920    1.1902   -0.2753 C   0  0  0  0  0  0  0  0  0  0  0  0
    0.4108    1.1792    0.1224 C   0  0  0  0  0  0  0  0  0  0  0  0
    1.0755   -0.0430   -0.3699 N   0  0  0  0  0  0  0  0  0  0  0  0
    2.4788   -0.0234    0.0290 C   0  0  0  0  0  0  0  0  0  0  0  0
   -1.9952    0.0609    1.7497 N   0  0  0  0  0  0  0  0  0  0  0  0
   -1.6665    1.1732    2.5201 C   0  0  0  0  0  0  0  0  0  0  0  0
   -1.8646    1.0583    3.8847 N   0  0  0  0  0  0  0  0  0  0  0  0
   -1.4769    2.1457    4.7322 C   0  0  0  0  0  0  0  0  0  0  0  0
   -1.6560    3.4760    4.2960 C   0  0  0  0  0  0  0  0  0  0  0  0
   -1.3339    4.5892    5.0882 C   0  0  0  0  0  0  0  0  0  0  0  0
   -0.8139    4.4232    6.3718 C   0  0  0  0  0  0  0  0  0  0  0  0
   -0.6117    3.1289    6.8174 C   0  0  0  0  0  0  0  0  0  0  0  0
   -0.9426    1.9968    6.0048 C   0  0  0  0  0  0  0  0  0  0  0  0
   -0.1331    2.6250    8.0808 C   0  0  0  0  0  0  0  0  0  0  0  0
   -0.1695    1.2266    8.0648 C   0  0  0  0  0  0  0  0  0  0  0  0
   -0.5943    0.7558    6.7709 C   0  0  0  0  0  0  0  0  0  0  0  0
    0.3178    3.1149    9.2299 N   0  0  0  0  0  0  0  0  0  0  0  0
    0.5709    1.9775    9.9584 N   0  0  0  0  0  0  0  0  0  0  0  0
    0.2402    0.8001    9.3078 C   0  0  0  0  0  0  0  0  0  0  0  0
    0.5615   -0.5223    9.7566 C   0  0  0  0  0  0  0  0  0  0  0  0
    1.8129   -1.2656    8.8525 S   0  0  0  0  0  0  0  0  0  0  0  0
    1.5924   -2.7305    9.6889 C   0  0  0  0  0  0  0  0  0  0  0  0
    0.7186   -2.6803   10.6805 N   0  0  0  0  0  0  0  0  0  0  0  0
    0.1144   -1.3948   10.7529 C   0  0  0  0  0  0  0  0  0  0  0  0
   -0.9227   -1.1714   11.8274 C   0  0  0  0  0  0  0  0  0  0  0  0
    2.4278   -3.8758    9.2035 C   0  0  0  0  0  0  0  0  0  0  0  0
   -1.1588    2.1944    2.0612 O   0  0  0  0  0  0  0  0  0  0  0  0
   -0.6625   -0.3983    6.3560 O   0  0  0  0  0  0  0  0  0  0  0  0
  1  2  1  0
  1  6  1  0
  2  3  1  0
  3  4  1  0
  3  8  1  0
  4  5  1  0
  5  6  1  0
  6  7  1  0
  8  9  1  0
  9 10  1  0
  9 30  2  0
 10 11  1  0
 11 12  2  0
 11 16  1  0
 12 13  1  0
 13 14  2  0
 14 15  1  0
 15 16  2  0
 15 17  1  0
 16 19  1  0
 17 18  1  0
 17 20  2  0
 18 19  1  0
 18 22  2  0
 19 31  2  0
 20 21  1  0
 21 22  1  0
 22 23  1  0
 23 24  1  0
 23 27  2  0
 24 25  1  0
 25 26  2  0
 25 29  1  0
 26 27  1  0
 27 28  1  0
M  END
>  <DRUGBANK_ID>  (1) 
DB07622

>  <COMMON_NAME>  (1) 
1-(3-(2,4-DIMETHYLTHIAZOL-5-YL)-4-OXO-2,4-DIHYDROINDENO[1,2-C]PYRAZOL-5-YL)-3-(4-METHYLPIPERAZIN-1-YL)UREA

$$$$
