
     RDKit          3D

 30 31  0  0  1  0  0  0  0  0999 V2000
   -6.8108    1.8532   -3.2534 C   0  0  0  0  0  0  0  0  0  0  0  0
   -6.8354    0.3469   -3.2741 C   0  0  0  0  0  0  0  0  0  0  0  0
   -6.5426   -0.0315   -4.7092 C   0  0  0  0  0  0  0  0  0  0  0  0
   -5.8471   -0.4902   -2.4570 C   0  0  0  0  0  0  0  0  0  0  0  0
   -6.1978   -1.4853   -1.8310 O   0  0  0  0  0  0  0  0  0  0  0  0
   -4.5605   -0.0515   -2.4710 O   0  0  0  0  0  0  0  0  0  0  0  0
   -3.6106   -0.6476   -1.5361 C   0  0  0  0  0  0  0  0  0  0  0  0
   -3.6950   -0.0933   -0.0598 C   0  0  1  0  0  0  0  0  0  0  0  0
   -3.0197    1.2024    0.0120 O   0  0  0  0  0  0  0  0  0  0  0  0
   -3.9963    2.2910   -0.1088 C   0  0  2  0  0  0  0  0  0  0  0  0
   -5.2432    1.7251    0.6347 C   0  0  1  0  0  0  0  0  0  0  0  0
   -6.6382    2.2401    0.3262 C   0  0  0  0  0  0  0  0  0  0  0  0
   -5.1487    0.2328    0.3657 C   0  0  2  0  0  0  0  0  0  0  0  0
   -5.7428   -0.6401    1.3336 O   0  0  0  0  0  0  0  0  0  0  0  0
   -5.1895   -0.6192    2.5686 C   0  0  0  0  0  0  0  0  0  0  0  0
   -4.2963    0.1380    2.9266 O   0  0  0  0  0  0  0  0  0  0  0  0
   -5.8179   -1.6285    3.4867 C   0  0  0  0  0  0  0  0  0  0  0  0
   -7.2967   -1.3268    3.6621 C   0  0  0  0  0  0  0  0  0  0  0  0
   -5.5905   -3.0623    3.0313 C   0  0  0  0  0  0  0  0  0  0  0  0
   -4.0163    2.7725   -1.5342 N   0  0  0  0  0  0  0  0  0  0  0  0
   -3.1647    2.2206   -2.4827 C   0  0  0  0  0  0  0  0  0  0  0  0
   -3.4093    2.3337   -3.7882 C   0  0  0  0  0  0  0  0  0  0  0  0
   -4.2885    3.4485   -4.1691 C   0  0  0  0  0  0  0  0  0  0  0  0
   -4.5236    3.6746   -5.4929 N   0  0  0  0  0  0  0  0  0  0  0  0
   -4.8861    4.1863   -3.2812 N   0  0  0  0  0  0  0  0  0  0  0  0
   -4.8438    3.8340   -1.9364 C   0  0  0  0  0  0  0  0  0  0  0  0
   -5.5777    4.4011   -1.1336 O   0  0  0  0  0  0  0  0  0  0  0  0
   -3.1623   -1.1554    0.8244 N   0  0  0  0  0  0  0  0  0  0  0  0
   -2.0075   -1.5999    0.6649 N   0  0  0  0  0  0  0  0  0  0  0  0
   -0.9891   -2.0690    0.5342 N   0  0  0  0  0  0  0  0  0  0  0  0
  1  2  1  0
  2  3  1  0
  2  4  1  0
  4  5  2  0
  4  6  1  0
  6  7  1  0
  8  9  1  0
  8 28  1  0
  8  7  1  6
 10  9  1  0
 10 20  1  6
 11 10  1  0
 11 12  1  6
 11 13  1  0
 13  8  1  0
 13 14  1  1
 14 15  1  0
 15 16  2  0
 15 17  1  0
 17 18  1  0
 17 19  1  0
 20 21  1  0
 20 26  1  0
 21 22  2  0
 22 23  1  0
 23 24  1  0
 23 25  2  0
 25 26  1  0
 26 27  2  0
 28 29  2  0
 29 30  2  0
M  CHG  2  29   1  30  -1
M  END
>  <DRUGBANK_ID>  (1) 
DB15152

>  <COMMON_NAME>  (1) 
TMC-649128

>  <CAS_NUMBER>  (1) 
1019639-33-8

>  <UNII>  (1) 
9GE48QZN6X

$$$$
