
     RDKit          3D

 22 22  0  0  0  0  0  0  0  0999 V2000
    1.1024   -0.1136   -0.1611 C   0  0  0  0  0  0  0  0  0  0  0  0
    0.6774   -1.1280    0.8865 C   0  0  0  0  0  0  0  0  0  0  0  0
    1.1892   -0.7085    2.2646 C   0  0  0  0  0  0  0  0  0  0  0  0
    0.6248    0.6575    2.6760 C   0  0  0  0  0  0  0  0  0  0  0  0
   -0.9041    0.6082    2.7296 C   0  0  0  0  0  0  0  0  0  0  0  0
   -1.3338   -0.4679    3.7336 C   0  0  0  0  0  0  0  0  0  0  0  0
   -0.6994   -0.1876    5.1161 C   0  0  0  0  0  0  0  0  0  0  0  0
   -1.1100    1.1808    5.6325 C   0  0  0  0  0  0  0  0  0  0  0  0
   -2.6047    1.1603    5.7072 C   0  0  0  0  0  0  0  0  0  0  0  0
   -3.1802    0.1123    6.6406 C   0  0  0  0  0  0  0  0  0  0  0  0
   -2.9418    0.5775    8.0569 C   0  0  0  0  0  0  0  0  0  0  0  0
   -3.5203    1.9662    8.3695 C   0  0  0  0  0  0  0  0  0  0  0  0
   -5.0604    2.0537    8.3402 N   0  0  0  0  0  0  0  0  0  0  0  0
   -5.6003    1.0032    9.3077 C   0  0  0  0  0  0  0  0  0  0  0  0
   -5.4283    3.4196    8.9194 C   0  0  0  0  0  0  0  0  0  0  0  0
   -5.7994    1.9153    6.9211 C   0  0  0  0  0  0  0  0  0  0  0  0
   -5.4539    2.9116    5.8252 C   0  0  0  0  0  0  0  0  0  0  0  0
   -5.7761    4.2642    5.9926 C   0  0  0  0  0  0  0  0  0  0  0  0
   -5.2026    5.2437    5.1854 C   0  0  0  0  0  0  0  0  0  0  0  0
   -4.2827    4.9143    4.2116 C   0  0  0  0  0  0  0  0  0  0  0  0
   -4.0609    3.5658    3.9344 C   0  0  0  0  0  0  0  0  0  0  0  0
   -4.7939    2.5988    4.6398 C   0  0  0  0  0  0  0  0  0  0  0  0
  1  2  1  0
  2  3  1  0
  3  4  1  0
  4  5  1  0
  5  6  1  0
  6  7  1  0
  7  8  1  0
  8  9  1  0
  9 10  1  0
 10 11  1  0
 11 12  1  0
 12 13  1  0
 13 14  1  0
 13 15  1  0
 13 16  1  0
 16 17  1  0
 17 18  2  0
 17 22  1  0
 18 19  1  0
 19 20  2  0
 20 21  1  0
 21 22  2  0
M  CHG  1  13   1
M  END
>  <DRUGBANK_ID>  (1) 
DB13282

>  <COMMON_NAME>  (1) 
Benzododecinium

>  <CAS_NUMBER>  (1) 
10328-35-5

>  <UNII>  (1) 
N0BN0O8CSL

$$$$
