0AY
     RDKit          3D

 14 13  0  0  0  0  0  0  0  0999 V2000
    1.0574    0.0131   -0.0809 N   0  0  0  0  0  0  0  0  0  0  0  0
    0.5674    0.5124    1.2120 C   0  0  1  0  0  0  0  0  0  0  0  0
    1.0740   -0.3871    2.3276 C   0  0  0  0  0  0  0  0  0  0  0  0
    0.5674   -1.8030    2.1063 C   0  0  0  0  0  0  0  0  0  0  0  0
    1.0740   -2.3193    0.7695 C   0  0  0  0  0  0  0  0  0  0  0  0
    2.5940   -2.3194    0.7695 C   0  0  0  0  0  0  0  0  0  0  0  0
    3.0840   -3.1893    1.8484 N   0  0  0  0  0  0  0  0  0  0  0  0
    1.1007    2.0029    1.4448 B   0  0  0  0  0  0  0  0  0  0  0  0
    2.5754    2.2737    1.4871 O   0  0  0  0  0  0  0  0  0  0  0  0
    2.7962    3.6596    1.7037 C   0  0  0  0  0  0  0  0  0  0  0  0
    2.1671    4.4557    0.5719 C   0  0  0  0  0  0  0  0  0  0  0  0
    0.1259    3.1293    1.6208 O   0  0  0  0  0  0  0  0  0  0  0  0
   -1.1992    2.6252    1.5420 C   0  0  0  0  0  0  0  0  0  0  0  0
   -1.4146    1.9762    0.1845 C   0  0  0  0  0  0  0  0  0  0  0  0
  2  1  1  6
  2  8  1  0
  3  2  1  0
  4  3  1  0
  5  4  1  0
  6  5  1  0
  7  6  1  0
  8 12  1  0
  8  9  1  0
  9 10  1  0
 10 11  1  0
 12 13  1  0
 14 13  1  0
M  END
>  <DRUGBANK_ID>  (1) 
DB06840

>  <COMMON_NAME>  (1) 
diethyl [(1R)-1,5-diaminopentyl]boronate

$$$$
