AN1
     RDKit          3D

 20 22  0  0  0  0  0  0  0  0999 V2000
    0.8899    0.0052   -0.3189 O   0  0  0  0  0  0  0  0  0  0  0  0
    0.2946    0.2430   -1.5021 C   0  0  0  0  0  0  0  0  0  0  0  0
    0.9680    0.5504   -2.4603 O   0  0  0  0  0  0  0  0  0  0  0  0
   -1.2320    0.1268   -1.5185 C   0  0  0  0  0  0  0  0  0  0  0  0
   -1.7676   -1.0641   -0.7327 C   0  0  0  0  0  0  0  0  0  0  0  0
   -1.3652   -1.2606    0.7413 C   0  0  0  0  0  0  0  0  0  0  0  0
   -1.0250   -0.1542    1.6143 C   0  0  0  0  0  0  0  0  0  0  0  0
   -1.0540    1.2199    1.2465 C   0  0  0  0  0  0  0  0  0  0  0  0
   -0.5839    2.2798    2.0006 C   0  0  0  0  0  0  0  0  0  0  0  0
   -0.1204    2.0216    3.2526 C   0  0  0  0  0  0  0  0  0  0  0  0
   -0.1077    0.7052    3.6983 C   0  0  0  0  0  0  0  0  0  0  0  0
   -0.5344   -0.4042    2.9139 C   0  0  0  0  0  0  0  0  0  0  0  0
   -0.4536   -1.7381    3.3852 C   0  0  0  0  0  0  0  0  0  0  0  0
   -0.8413   -2.8281    2.5560 C   0  0  0  0  0  0  0  0  0  0  0  0
   -1.2936   -2.6027    1.2308 C   0  0  0  0  0  0  0  0  0  0  0  0
   -1.6535   -3.7402    0.4563 C   0  0  0  0  0  0  0  0  0  0  0  0
   -1.5884   -5.0384    0.9563 C   0  0  0  0  0  0  0  0  0  0  0  0
   -1.1592   -5.2453    2.2508 C   0  0  0  0  0  0  0  0  0  0  0  0
   -0.7870   -4.1568    3.0311 C   0  0  0  0  0  0  0  0  0  0  0  0
    0.0324   -2.0328    4.7921 C   0  0  0  0  0  0  0  0  0  0  0  0
  1  2  1  0
  2  3  2  0
  2  4  1  0
  4  5  1  0
  5  6  1  0
  6  7  2  0
  6 15  1  0
  7  8  1  0
  7 12  1  0
  8  9  2  0
  9 10  1  0
 10 11  2  0
 11 12  1  0
 12 13  2  0
 13 14  1  0
 13 20  1  0
 14 15  2  0
 14 19  1  0
 15 16  1  0
 16 17  2  0
 17 18  1  0
 18 19  2  0
M  END
>  <DRUGBANK_ID>  (1) 
DB07371

>  <COMMON_NAME>  (1) 
3-(10-methyl-9-anthryl)propanoic acid

>  <SYNONYMS>  (1) 
3-(10-methyl-9-anthryl)propionic acid; 3-(10-METHYL-ANTHRACEN-9-YL)-PROPIONIC ACID

$$$$
