
     RDKit          3D

 32 34  0  0  0  0  0  0  0  0999 V2000
   -1.5945    0.8081    0.2119 C   0  0  2  0  0  0  0  0  0  0  0  0
   -2.8080    1.4766   -0.3621 C   0  0  0  0  0  0  0  0  0  0  0  0
   -0.3061    1.4458   -0.3323 C   0  0  0  0  0  0  0  0  0  0  0  0
   -1.8005   -0.9882   -0.0854 S   0  0  0  0  0  0  0  0  0  0  0  0
   -3.2488    1.5375   -1.6731 C   0  0  0  0  0  0  0  0  0  0  0  0
   -3.9000    2.2387    0.7141 S   0  0  0  0  0  0  0  0  0  0  0  0
    0.8979    1.1279    0.4387 N   0  0  0  0  0  0  0  0  0  0  0  0
   -0.2497   -1.5871    0.6487 C   0  0  0  0  0  0  0  0  0  0  0  0
   -4.4931    2.2199   -1.7818 C   0  0  0  0  0  0  0  0  0  0  0  0
   -4.9532    2.6498   -0.5585 C   0  0  0  0  0  0  0  0  0  0  0  0
    1.6905    0.0283    0.1536 C   0  0  0  0  0  0  0  0  0  0  0  0
    1.2799    1.9650    1.5779 C   0  0  0  0  0  0  0  0  0  0  0  0
    0.9231   -1.2516   -0.2757 C   0  0  1  0  0  0  0  0  0  0  0  0
    2.9139    0.1032    0.2738 O   0  0  0  0  0  0  0  0  0  0  0  0
    1.1894    1.1653    2.8842 C   0  0  0  0  0  0  0  0  0  0  0  0
    1.8635   -2.3866   -0.3894 N   0  0  0  0  0  0  0  0  0  0  0  0
    2.3208    1.1306    3.6210 O   0  0  0  0  0  0  0  0  0  0  0  0
    0.1758    0.5789    3.2432 O   0  0  0  0  0  0  0  0  0  0  0  0
    2.1806   -2.6783   -1.8189 C   0  0  1  0  0  0  0  0  0  0  0  0
    3.3091   -3.7166   -1.8217 C   0  0  0  0  0  0  0  0  0  0  0  0
    0.8502   -3.0372   -2.5627 C   0  0  0  0  0  0  0  0  0  0  0  0
    2.9633   -5.0612   -1.1730 C   0  0  0  0  0  0  0  0  0  0  0  0
    0.6386   -2.5708   -3.8110 O   0  0  0  0  0  0  0  0  0  0  0  0
   -0.0650   -3.6471   -1.9953 O   0  0  0  0  0  0  0  0  0  0  0  0
    1.8766   -5.7937   -1.9150 C   0  0  0  0  0  0  0  0  0  0  0  0
    1.1808   -1.3364   -4.3104 C   0  0  0  0  0  0  0  0  0  0  0  0
    1.9004   -5.8701   -3.3174 C   0  0  0  0  0  0  0  0  0  0  0  0
    0.7583   -6.2875   -1.2273 C   0  0  0  0  0  0  0  0  0  0  0  0
    0.9607   -0.1542   -3.3927 C   0  0  0  0  0  0  0  0  0  0  0  0
    0.8134   -6.3818   -4.0187 C   0  0  0  0  0  0  0  0  0  0  0  0
   -0.3019   -6.8606   -1.9316 C   0  0  0  0  0  0  0  0  0  0  0  0
   -0.2823   -6.8864   -3.3257 C   0  0  0  0  0  0  0  0  0  0  0  0
  1  3  1  0
  1  4  1  0
  1  2  1  6
  2  5  2  0
  2  6  1  0
  3  7  1  0
  4  8  1  0
  5  9  1  0
  6 10  1  0
  7 11  1  0
  7 12  1  0
  8 13  1  0
  9 10  2  0
 11 14  2  0
 11 13  1  0
 12 15  1  0
 13 16  1  1
 15 17  1  0
 15 18  2  0
 16 19  1  0
 19 20  1  1
 19 21  1  0
 20 22  1  0
 21 23  1  0
 21 24  2  0
 22 25  1  0
 23 26  1  0
 25 27  2  0
 25 28  1  0
 26 29  1  0
 27 30  1  0
 28 31  2  0
 30 32  2  0
 31 32  1  0
M  END
>  <DRUGBANK_ID>  (1) 
DB08836

>  <COMMON_NAME>  (1) 
Temocapril

>  <CAS_NUMBER>  (1) 
111902-57-9

>  <UNII>  (1) 
18IZ008EU6

>  <SYNONYMS>  (1) 
Temocapril; Temocaprilum

$$$$
