
     RDKit          3D

 11 11  0  0  0  0  0  0  0  0999 V2000
    2.3040    0.0010    0.0040 N   0  0  0  0  0  0  0  0  0  0  0  0
    0.9560   -0.0010    0.0020 C   0  0  0  0  0  0  0  0  0  0  0  0
    0.2380    1.2040   -0.0120 C   0  0  0  0  0  0  0  0  0  0  0  0
   -1.1400    1.2110    0.0070 C   0  0  0  0  0  0  0  0  0  0  0  0
   -1.8370   -0.0000    0.0040 C   0  0  0  0  0  0  0  0  0  0  0  0
   -1.1430   -1.2080   -0.0050 C   0  0  0  0  0  0  0  0  0  0  0  0
    0.2400   -1.2070   -0.0000 C   0  0  0  0  0  0  0  0  0  0  0  0
   -3.7870    0.0007    0.0124 As  0  0  0  0  0  5  0  0  0  0  0  0
   -4.4105   -0.8636   -1.4997 O   0  0  0  0  0  0  0  0  0  0  0  0
   -4.3975   -0.8786    1.5213 O   0  0  0  0  0  0  0  0  0  0  0  0
   -4.3383    1.5620    0.0226 O   0  0  0  0  0  0  0  0  0  0  0  0
  1  2  1  0
  2  3  2  0
  2  7  1  0
  3  4  1  0
  4  5  2  0
  5  6  1  0
  5  8  1  0
  6  7  2  0
  8  9  1  0
  8 10  1  0
  8 11  2  0
M  END
>  <DRUGBANK_ID>  (1) 
DB03006

>  <SECONDARY_ACCESSION_NUMBERS>  (1) 
EXPT00575

>  <COMMON_NAME>  (1) 
Arsanilic acid

>  <CAS_NUMBER>  (1) 
98-50-0

>  <UNII>  (1) 
UDX9AKS7GM

>  <SYNONYMS>  (1) 
(p-aminophenyl)arsonic acid; 4-aminobenzenearsonic acid; 4-Aminophenylarsonic acid; 4-Aminophenylarsonsäure; 4-arsanilic acid; Arsanilic acid; Arsanilsäure; atoxylic acid; p-arsanilic acid

$$$$
