PLH
     RDKit          3D

 25 25  0  0  0  0  0  0  0  0999 V2000
    1.1498   -0.0236   -0.0458 C   0  0  0  0  0  0  0  0  0  0  0  0
    0.3559   -1.3231   -0.0825 C   0  0  0  0  0  0  0  0  0  0  0  0
   -0.5454   -1.5764    1.1444 C   0  0  1  0  0  0  0  0  0  0  0  0
   -1.6770   -0.5119    1.2560 C   0  0  0  0  0  0  0  0  0  0  0  0
   -2.5545   -0.3485   -0.0168 C   0  0  0  0  0  0  0  0  0  0  0  0
   -3.4318   -1.5665   -0.2437 C   0  0  0  0  0  0  0  0  0  0  0  0
   -3.4608    0.8743    0.0439 C   0  0  0  0  0  0  0  0  0  0  0  0
   -1.0438   -3.0379    1.0722 C   0  0  0  0  0  0  0  0  0  0  0  0
   -1.8851   -5.0658    2.2127 C   0  0  2  0  0  0  0  0  0  0  0  0
   -2.8657   -5.1523    3.3828 C   0  0  0  0  0  0  0  0  0  0  0  0
   -3.1919   -4.7217    5.7822 C   0  0  0  0  0  0  0  0  0  0  0  0
   -0.8208   -6.1846    2.1215 C   0  0  0  0  0  0  0  0  0  0  0  0
   -1.0518   -7.6188    2.5689 C   0  0  0  0  0  0  0  0  0  0  0  0
   -0.4464   -8.6656    1.8494 C   0  0  0  0  0  0  0  0  0  0  0  0
   -0.4261   -9.9733    2.3513 C   0  0  0  0  0  0  0  0  0  0  0  0
   -0.9972  -10.2585    3.5875 C   0  0  0  0  0  0  0  0  0  0  0  0
   -1.5917   -9.2389    4.3158 C   0  0  0  0  0  0  0  0  0  0  0  0
   -1.6430   -7.9445    3.7962 C   0  0  0  0  0  0  0  0  0  0  0  0
    0.4369    1.1447   -0.1206 N   0  0  0  0  0  0  0  0  0  0  0  0
   -1.2342   -3.7172    2.2458 N   0  0  0  0  0  0  0  0  0  0  0  0
   -2.4134   -4.6245    4.5759 N   0  0  0  0  0  0  0  0  0  0  0  0
    1.1326    2.3629    0.0153 O   0  0  0  0  0  0  0  0  0  0  0  0
    2.3771   -0.0147    0.0422 O   0  0  0  0  0  0  0  0  0  0  0  0
   -1.2703   -3.6052   -0.0021 O   0  0  0  0  0  0  0  0  0  0  0  0
   -3.9210   -5.7785    3.2978 O   0  0  0  0  0  0  0  0  0  0  0  0
  1  2  1  0
  1 19  1  0
  1 23  2  0
  3  2  1  6
  3  4  1  0
  3  8  1  0
  4  5  1  0
  5  6  1  0
  5  7  1  0
  8 20  1  0
  8 24  2  0
  9 20  1  0
  9 12  1  1
  9 10  1  0
 10 21  1  0
 10 25  2  0
 11 21  1  0
 12 13  1  0
 13 14  2  0
 13 18  1  0
 14 15  1  0
 15 16  2  0
 16 17  1  0
 17 18  2  0
 19 22  1  0
M  END
>  <DRUGBANK_ID>  (1) 
DB08403

>  <COMMON_NAME>  (1) 
METHYLAMINO-PHENYLALANYL-LEUCYL-HYDROXAMIC ACID

$$$$
