347
     RDKit          3D

 32 33  0  0  0  0  0  0  0  0999 V2000
    0.9391    0.0458    0.0648 C   0  0  0  0  0  0  0  0  0  0  0  0
    0.4324   -0.6074   -1.2108 C   0  0  0  0  0  0  0  0  0  0  0  0
   -0.0022   -1.1677   -2.3050 C   0  0  0  0  0  0  0  0  0  0  0  0
   -0.5089   -1.8209   -3.5805 C   0  0  0  0  0  0  0  0  0  0  0  0
   -1.6312   -2.6495   -3.1855 N   0  0  0  0  0  0  0  0  0  0  0  0
   -2.8690   -2.6508   -3.7882 C   0  0  0  0  0  0  0  0  0  0  0  0
   -3.0502   -2.4154   -5.1464 C   0  0  0  0  0  0  0  0  0  0  0  0
   -4.3282   -2.4788   -5.7198 C   0  0  0  0  0  0  0  0  0  0  0  0
   -5.4670   -2.6651   -4.9120 C   0  0  0  0  0  0  0  0  0  0  0  0
   -5.3020   -2.8908   -3.5525 C   0  0  0  0  0  0  0  0  0  0  0  0
   -4.0136   -2.8703   -3.0034 C   0  0  0  0  0  0  0  0  0  0  0  0
   -7.1579   -2.3167   -5.4656 S   0  0  0  0  0  0  0  0  0  0  0  0
   -7.7856   -3.6233   -5.6431 O   0  0  0  0  0  0  0  0  0  0  0  0
   -7.7542   -1.3248   -4.6048 O   0  0  0  0  0  0  0  0  0  0  0  0
   -7.0850   -1.5983   -7.0624 C   0  0  0  0  0  0  0  0  0  0  0  0
   -6.1532   -0.4834   -7.5933 C   0  0  0  0  0  0  0  0  0  0  0  0
   -5.4801    0.1165   -6.2914 C   0  0  0  0  0  0  0  0  0  0  0  0
   -6.1348    1.4034   -5.7370 C   0  0  0  0  0  0  0  0  0  0  0  0
   -5.8618    2.4652   -6.6510 N   0  0  0  0  0  0  0  0  0  0  0  0
   -6.4591    2.2370   -7.9354 C   0  0  0  0  0  0  0  0  0  0  0  0
   -6.1147    0.8545   -8.4600 C   0  0  0  0  0  0  0  0  0  0  0  0
   -4.9859    3.4738   -6.2911 C   0  0  0  0  0  0  0  0  0  0  0  0
   -4.5383    3.5602   -5.1486 O   0  0  0  0  0  0  0  0  0  0  0  0
   -4.6675    4.3423   -7.2993 O   0  0  0  0  0  0  0  0  0  0  0  0
   -3.8023    5.4805   -6.9949 C   0  0  0  0  0  0  0  0  0  0  0  0
   -2.4121    5.0318   -6.5205 C   0  0  0  0  0  0  0  0  0  0  0  0
   -4.4734    6.4055   -5.9708 C   0  0  0  0  0  0  0  0  0  0  0  0
   -3.6026    6.2949   -8.2901 C   0  0  0  0  0  0  0  0  0  0  0  0
   -5.8452   -1.3234   -9.0458 C   0  0  0  0  0  0  0  0  0  0  0  0
   -4.9467   -1.0360   -9.8408 O   0  0  0  0  0  0  0  0  0  0  0  0
   -6.8800   -2.1826   -9.5207 N   0  0  0  0  0  0  0  0  0  0  0  0
   -6.7386   -2.7147  -10.8189 O   0  0  0  0  0  0  0  0  0  0  0  0
  1  2  1  0
  2  3  3  0
  3  4  1  0
  4  5  1  0
  5  6  1  0
  6  7  2  0
  6 11  1  0
  7  8  1  0
  8  9  2  0
  9 12  1  0
  9 10  1  0
 10 11  2  0
 12 13  2  0
 12 14  2  0
 12 15  1  0
 15 16  1  0
 16 17  1  0
 16 29  1  0
 16 21  1  0
 17 18  1  0
 18 19  1  0
 19 22  1  0
 19 20  1  0
 20 21  1  0
 22 23  2  0
 22 24  1  0
 24 25  1  0
 25 27  1  0
 25 26  1  0
 25 28  1  0
 29 31  1  0
 29 30  2  0
 31 32  1  0
M  END
>  <DRUGBANK_ID>  (1) 
DB07013

>  <COMMON_NAME>  (1) 
TERT-BUTYL 4-({[4-(BUT-2-YN-1-YLAMINO)PHENYL]SULFONYL}METHYL)-4-[(HYDROXYAMINO)CARBONYL]PIPERIDINE-1-CARBOXYLATE

$$$$
