
     RDKit          3D

 24 25  0  0  0  0  0  0  0  0999 V2000
   -1.1410   -0.3030    0.0050 C   0  0  0  0  0  0  0  0  0  0  0  0
   -1.1880    1.0470    0.0200 N   0  0  0  0  0  0  0  0  0  0  0  0
    0.0110    1.6450    0.0020 C   0  0  0  0  0  0  0  0  0  0  0  0
    1.1960    1.0370   -0.0250 N   0  0  0  0  0  0  0  0  0  0  0  0
    1.1340   -0.3100    0.0060 C   0  0  0  0  0  0  0  0  0  0  0  0
   -0.0070   -1.0210    0.0290 N   0  0  0  0  0  0  0  0  0  0  0  0
   -2.2920   -0.9690   -0.0290 N   0  0  0  0  0  0  0  0  0  0  0  0
    0.0196    3.1149    0.0131 N   0  0  0  0  0  0  0  0  0  0  0  0
    2.2870   -0.9780   -0.0060 N   0  0  0  0  0  0  0  0  0  0  0  0
    2.2850   -2.4480    0.0059 C   0  0  0  0  0  0  0  0  0  0  0  0
    2.8935   -3.1396    1.0403 C   0  0  0  0  0  0  0  0  0  0  0  0
    3.0676   -4.5199    0.7826 C   0  0  0  0  0  0  0  0  0  0  0  0
    2.4218   -5.1948   -0.1509 C   0  0  0  0  0  0  0  0  0  0  0  0
    1.7837   -4.4532   -1.1060 C   0  0  0  0  0  0  0  0  0  0  0  0
    1.6851   -3.0875   -0.9912 C   0  0  0  0  0  0  0  0  0  0  0  0
    2.3804   -7.1443   -0.1663 As  0  0  0  0  0  3  0  0  0  0  0  0
    1.4463   -7.8863    1.7296 S   0  0  0  0  0  0  0  0  0  0  0  0
    2.4186   -7.3147    3.1452 C   0  0  0  0  0  0  0  0  0  0  0  0
    3.8367   -7.8507    3.0355 C   0  0  0  0  0  0  0  0  0  0  0  0
    4.4497   -7.3638    1.7913 N   0  0  0  0  0  0  0  0  0  0  0  0
    1.1771   -7.8518   -1.9182 S   0  0  0  0  0  0  0  0  0  0  0  0
    1.1387   -9.6614   -1.9325 C   0  0  0  0  0  0  0  0  0  0  0  0
    2.5568  -10.1974   -2.0422 C   0  0  0  0  0  0  0  0  0  0  0  0
    3.3465   -9.7331   -0.8925 N   0  0  0  0  0  0  0  0  0  0  0  0
  1  7  1  0
  1  2  2  0
  1  6  1  0
  2  3  1  0
  3  8  1  0
  3  4  2  0
  4  5  1  0
  5  6  2  0
  5  9  1  0
  9 10  1  0
 10 11  2  0
 11 12  1  0
 12 13  2  0
 13 14  1  0
 13 16  1  0
 14 15  2  0
 15 10  1  0
 16 17  1  0
 16 21  1  0
 17 18  1  0
 18 19  1  0
 19 20  1  0
 21 22  1  0
 22 23  1  0
 23 24  1  0
M  END
>  <DRUGBANK_ID>  (1) 
DB11528

>  <COMMON_NAME>  (1) 
Melarsomine

>  <CAS_NUMBER>  (1) 
128470-15-5

>  <UNII>  (1) 
374GJ0S41A

>  <SYNONYMS>  (1) 
Melarsomina; Melarsomine; Melarsominum

$$$$
