
     RDKit          3D

 30 34  0  0  0  0  0  0  0  0999 V2000
   -2.0896   -0.6908    0.0128 C   0  0  0  0  0  0  0  0  0  0  0  0
   -2.1375    0.7033    0.0189 C   0  0  0  0  0  0  0  0  0  0  0  0
   -0.8595   -1.3550    0.0123 C   0  0  0  0  0  0  0  0  0  0  0  0
   -0.9677    1.4771    0.0421 C   0  0  0  0  0  0  0  0  0  0  0  0
    5.3655    5.2082   -1.8556 C   0  0  0  0  0  0  0  0  0  0  0  0
    3.5614    4.6795   -3.4342 C   0  0  0  0  0  0  0  0  0  0  0  0
    1.0551    6.6771    1.9153 C   0  0  0  0  0  0  0  0  0  0  0  0
    2.1321    5.0752    3.4236 C   0  0  0  0  0  0  0  0  0  0  0  0
    5.4688    6.6052   -2.4949 C   0  0  0  0  0  0  0  0  0  0  0  0
    3.7179    6.1105   -4.0036 C   0  0  0  0  0  0  0  0  0  0  0  0
    1.7891    7.8165    2.6513 C   0  0  0  0  0  0  0  0  0  0  0  0
    2.8586    6.2689    4.0887 C   0  0  0  0  0  0  0  0  0  0  0  0
    0.3227   -0.5929    0.0126 C   0  0  0  0  0  0  0  0  0  0  0  0
    0.2592    0.7989    0.0491 C   0  0  0  0  0  0  0  0  0  0  0  0
    3.8537    0.0988   -0.0346 C   0  0  0  0  0  0  0  0  0  0  0  0
    2.3657    0.0776   -0.0637 C   0  0  0  0  0  0  0  0  0  0  0  0
    3.2302    4.2350   -1.0012 C   0  0  0  0  0  0  0  0  0  0  0  0
    2.1181    4.6237    0.9773 C   0  0  0  0  0  0  0  0  0  0  0  0
    2.0369    2.5844   -0.0066 C   0  0  0  0  0  0  0  0  0  0  0  0
    4.3224   -0.5518    1.0701 F   0  0  0  0  0  0  0  0  0  0  0  0
    4.3757   -0.5606   -1.1053 F   0  0  0  0  0  0  0  0  0  0  0  0
    1.6182   -1.0182   -0.0380 N   0  0  0  0  0  0  0  0  0  0  0  0
    2.8978    5.0828   -0.0200 N   0  0  0  0  0  0  0  0  0  0  0  0
    2.8432    2.9576   -1.0120 N   0  0  0  0  0  0  0  0  0  0  0  0
    1.6554    3.3723    1.0024 N   0  0  0  0  0  0  0  0  0  0  0  0
    4.0201    4.6683   -2.0429 N   0  0  0  0  0  0  0  0  0  0  0  0
    1.8365    5.4451    2.0372 N   0  0  0  0  0  0  0  0  0  0  0  0
    1.5840    1.2233    0.0036 N   0  0  0  0  0  0  0  0  0  0  0  0
    5.0734    6.5811   -3.8796 O   0  0  0  0  0  0  0  0  0  0  0  0
    2.0630    7.4688    4.0235 O   0  0  0  0  0  0  0  0  0  0  0  0
  2  1  2  0
  3  1  1  0
  4  2  1  0
  9  5  1  0
 10  6  1  0
 11  7  1  0
 12  8  1  0
 13  3  2  0
 14  4  2  0
 14 13  1  0
 16 15  1  0
 20 15  1  0
 21 15  1  0
 22 13  1  0
 22 16  2  0
 23 17  2  0
 23 18  1  0
 24 17  1  0
 24 19  2  0
 25 18  2  0
 25 19  1  0
 26  5  1  0
 26  6  1  0
 26 17  1  0
 27  7  1  0
 27  8  1  0
 27 18  1  0
 28 14  1  0
 28 16  1  0
 28 19  1  0
 29  9  1  0
 29 10  1  0
 30 11  1  0
 30 12  1  0
M  END
>  <DRUGBANK_ID>  (1) 
DB12904

>  <COMMON_NAME>  (1) 
ZSTK-474

>  <CAS_NUMBER>  (1) 
475110-96-4

>  <UNII>  (1) 
K0068GK39A

$$$$
