
     RDKit          3D

 33 34  0  0  1  0  0  0  0  0999 V2000
    0.3865    0.7464   -0.0137 C   0  0  0  0  0  0  0  0  0  0  0  0
   -1.0321    1.0914   -0.0265 C   0  0  0  0  0  0  0  0  0  0  0  0
    0.7953   -0.5838   -0.0059 C   0  0  0  0  0  0  0  0  0  0  0  0
   -0.1948   -1.6673    0.0168 C   0  0  0  0  0  0  0  0  0  0  0  0
    2.1593   -0.8900   -0.0046 C   0  0  0  0  0  0  0  0  0  0  0  0
    1.3285    1.7773   -0.0055 C   0  0  0  0  0  0  0  0  0  0  0  0
   -1.6325   -1.3024    0.0820 C   0  0  0  0  0  0  0  0  0  0  0  0
    3.1002    0.1396    0.0110 C   0  0  0  0  0  0  0  0  0  0  0  0
   -2.0166   -0.0074    0.0126 C   0  0  0  0  0  0  0  0  0  0  0  0
    2.6847    1.4714    0.0132 C   0  0  0  0  0  0  0  0  0  0  0  0
    0.1728   -2.8436   -0.0218 O   0  0  0  0  0  0  0  0  0  0  0  0
   -1.3949    2.2708   -0.0479 O   0  0  0  0  0  0  0  0  0  0  0  0
   -2.5790   -2.4694    0.2161 C   0  0  0  0  0  0  0  0  0  0  0  0
   -4.7723   -2.2124    1.4043 C   0  0  0  0  0  0  0  0  0  0  0  0
   -5.5251   -1.8617    2.6750 C   0  0  0  0  0  0  0  0  0  0  0  0
   -5.4945   -2.3685    0.0769 C   0  0  0  0  0  0  0  0  0  0  0  0
   -6.2188   -0.4885    2.6297 C   0  0  0  0  0  0  0  0  0  0  0  0
   -7.2501   -0.3867    1.5026 C   0  0  0  0  0  0  0  0  0  0  0  0
   -8.2842   -1.5338    1.5974 C   0  0  1  0  0  0  0  0  0  0  0  0
   -9.0975   -1.3359    2.8866 C   0  0  0  0  0  0  0  0  0  0  0  0
   -9.0413   -1.7128    0.2736 C   0  0  0  0  0  0  0  0  0  0  0  0
   -9.8088    0.0176    2.9146 C   0  0  0  0  0  0  0  0  0  0  0  0
  -10.8210    0.1468    1.7793 C   0  0  0  0  0  0  0  0  0  0  0  0
  -11.8040   -1.0376    1.8041 C   0  0  1  0  0  0  0  0  0  0  0  0
  -12.6356   -0.8736    3.0857 C   0  0  0  0  0  0  0  0  0  0  0  0
  -12.5342   -1.2131    0.4715 C   0  0  0  0  0  0  0  0  0  0  0  0
  -13.3513    0.4836    3.1468 C   0  0  0  0  0  0  0  0  0  0  0  0
  -14.3923    0.6481    2.0416 C   0  0  0  0  0  0  0  0  0  0  0  0
  -15.3617   -0.5414    2.0345 C   0  0  0  0  0  0  0  0  0  0  0  0
  -16.1693   -0.4660    3.3206 C   0  0  0  0  0  0  0  0  0  0  0  0
  -16.2347   -0.5494    0.7939 C   0  0  0  0  0  0  0  0  0  0  0  0
   -3.4336   -2.3371    1.4481 C   0  0  0  0  0  0  0  0  0  0  0  0
   -3.4243    0.4949   -0.0116 C   0  0  0  0  0  0  0  0  0  0  0  0
  1  2  1  0
  1  6  1  0
  2 12  2  0
  2  9  1  0
  3  1  2  0
  3  4  1  0
  3  5  1  0
  4 11  2  0
  4  7  1  0
  5  8  2  0
  6 10  2  0
  7 13  1  0
  7  9  2  0
  8 10  1  0
  9 33  1  0
 13 32  1  0
 14 15  1  0
 14 16  1  0
 15 17  1  0
 17 18  1  0
 18 19  1  0
 19 20  1  0
 19 21  1  6
 20 22  1  0
 22 23  1  0
 23 24  1  0
 24 25  1  0
 24 26  1  6
 25 27  1  0
 27 28  1  0
 28 29  1  0
 29 30  1  0
 29 31  1  0
 32 14  2  0
M  END
>  <DRUGBANK_ID>  (1) 
DB01022

>  <SECONDARY_ACCESSION_NUMBERS>  (1) 
APRD00464; DB09528

>  <COMMON_NAME>  (1) 
Phylloquinone

>  <CAS_NUMBER>  (1) 
84-80-0

>  <UNII>  (1) 
S5Z3U87QHF

>  <SYNONYMS>  (1) 
2-Methyl-3-(3,7,11,15-tetramethyl-2-hexadecenyl)-1,4-naphthalenedione; 2-Methyl-3-[(2E)-3,7,11,15-tetramethyl-2-hexadecenyl]naphthoquinone; 2-Methyl-3-phytyl-1,4-naphthochinon; 2-Methyl-3-phytyl-1,4-naphthoquinone; 3-Phytylmenadione; alpha-Phylloquinone; Fitomenadiona; Phyllochinon; Phyllochinonum; Phylloquinone; Phythyl-menadion; Phytomenadione; Phytomenadionum; Phytonadione; Phytonadionum; Phytylmenadione; trans-Phylloquinone; Vitamin K; Vitamin K1; Î±-phylloquinone

$$$$
