PHI
     RDKit          3D

 13 13  0  0  0  0  0  0  0  0999 V2000
    1.0344    0.1536   -0.2020 N   0  0  0  0  0  0  0  0  0  0  0  0
    0.4229   -0.7202   -1.2457 C   0  0  1  0  0  0  0  0  0  0  0  0
    0.9160   -2.1820   -1.1733 C   0  0  0  0  0  0  0  0  0  0  0  0
    0.5480   -2.9825    0.0652 C   0  0  0  0  0  0  0  0  0  0  0  0
   -0.0564   -2.4104    1.1973 C   0  0  0  0  0  0  0  0  0  0  0  0
    0.8009   -4.3547    0.1083 C   0  0  0  0  0  0  0  0  0  0  0  0
   -0.4166   -3.1318    2.3189 C   0  0  0  0  0  0  0  0  0  0  0  0
    0.4524   -5.0984    1.2468 C   0  0  0  0  0  0  0  0  0  0  0  0
   -0.1547   -4.4831    2.3448 C   0  0  0  0  0  0  0  0  0  0  0  0
   -0.6985   -5.5443    4.0324 I   0  0  0  0  0  0  0  0  0  0  0  0
   -1.1207   -0.6292   -1.3598 C   0  0  0  0  0  0  0  0  0  0  0  0
   -1.7332   -0.1237   -2.2959 O   0  0  0  0  0  0  0  0  0  0  0  0
   -1.8198   -1.2035   -0.3642 O   0  0  0  0  0  0  0  0  0  0  0  0
  2  1  1  1
  2  3  1  0
  2 11  1  0
  3  4  1  0
  4  5  2  0
  4  6  1  0
  5  7  1  0
  6  8  2  0
  7  9  2  0
  8  9  1  0
  9 10  1  0
 11 12  2  0
 11 13  1  0
M  END
>  <DRUGBANK_ID>  (1) 
DB03660

>  <SECONDARY_ACCESSION_NUMBERS>  (1) 
EXPT02587

>  <COMMON_NAME>  (1) 
4-Iodo-L-phenylalanine

>  <CAS_NUMBER>  (1) 
24250-85-9

>  <UNII>  (1) 
J882Z73MPL

>  <SYNONYMS>  (1) 
4-iodophenylalanine; p-Iodo-L-phenylalanine; p-iodophenylalanine

$$$$
