
     RDKit          3D

 21 23  0  0  0  0  0  0  0  0999 V2000
   -0.3018    0.6962    0.1962 C   0  0  0  0  0  0  0  0  0  0  0  0
    0.9867    1.3490    0.4204 C   0  0  0  0  0  0  0  0  0  0  0  0
   -0.6005   -0.6642    0.1813 C   0  0  0  0  0  0  0  0  0  0  0  0
   -1.5464    1.3483   -0.0328 C   0  0  0  0  0  0  0  0  0  0  0  0
    1.0388    2.6321    1.1687 C   0  0  0  0  0  0  0  0  0  0  0  0
    2.0963    0.8939   -0.0433 N   0  0  0  0  0  0  0  0  0  0  0  0
   -1.9731   -0.7453   -0.0340 N   0  0  0  0  0  0  0  0  0  0  0  0
    0.3374   -1.6887    0.4021 N   0  0  0  0  0  0  0  0  0  0  0  0
   -2.5485    0.4761   -0.1894 N   0  0  0  0  0  0  0  0  0  0  0  0
   -1.7444    2.8268   -0.1268 C   0  0  0  0  0  0  0  0  0  0  0  0
    0.5569    2.6995    2.4745 C   0  0  0  0  0  0  0  0  0  0  0  0
    1.5410    3.7896    0.5530 C   0  0  0  0  0  0  0  0  0  0  0  0
    2.1074   -0.3225   -0.8498 C   0  0  0  0  0  0  0  0  0  0  0  0
   -2.8230   -1.9064   -0.2210 C   0  0  0  0  0  0  0  0  0  0  0  0
    1.7191   -1.5327   -0.0310 C   0  0  0  0  0  0  0  0  0  0  0  0
    0.0430   -2.8689    1.2326 C   0  0  0  0  0  0  0  0  0  0  0  0
    0.5526    3.9090    3.1666 C   0  0  0  0  0  0  0  0  0  0  0  0
    0.0587    1.6072    3.0704 F   0  0  0  0  0  0  0  0  0  0  0  0
    1.5272    5.0067    1.2442 C   0  0  0  0  0  0  0  0  0  0  0  0
    2.5158   -2.4300    0.2370 O   0  0  0  0  0  0  0  0  0  0  0  0
    1.0342    5.0654    2.5497 C   0  0  0  0  0  0  0  0  0  0  0  0
  1  2  1  0
  1  3  2  0
  1  4  1  0
  2  5  1  0
  2  6  2  0
  3  7  1  0
  3  8  1  0
  4  9  2  0
  4 10  1  0
  5 11  2  0
  5 12  1  0
  6 13  1  0
  7 14  1  0
  7  9  1  0
  8 15  1  0
  8 16  1  0
 11 17  1  0
 11 18  1  0
 12 19  2  0
 13 15  1  0
 15 20  2  0
 17 21  2  0
 19 21  1  0
M  END
>  <DRUGBANK_ID>  (1) 
DB11555

>  <COMMON_NAME>  (1) 
Zolazepam

>  <CAS_NUMBER>  (1) 
31352-82-6

>  <UNII>  (1) 
G1R474U58U

>  <SYNONYMS>  (1) 
Zolazepam; Zolazepamum

$$$$
