
     RDKit          3D

 11 10  0  0  0  0  0  0  0  0999 V2000
    0.9711   -0.0047   -0.1868 N   0  0  0  0  0  0  0  0  0  0  0  0
    0.4413   -1.1811    0.5362 C   0  0  0  0  0  0  0  0  0  0  0  0
    0.9398   -1.1078    2.0300 C   0  0  0  0  0  0  0  0  0  0  0  0
    0.5416    0.1189    2.8661 C   0  0  0  0  0  0  0  0  0  0  0  0
   -0.8370    0.1419    3.1886 O   0  0  0  0  0  0  0  0  0  0  0  0
   -1.1160   -1.1698    0.5227 C   0  0  0  0  0  0  0  0  0  0  0  0
   -1.8827   -0.9758   -0.7742 C   0  0  0  0  0  0  0  0  0  0  0  0
   -1.7957   -2.0993   -1.6114 O   0  0  0  0  0  0  0  0  0  0  0  0
    1.0943   -2.4691   -0.0868 C   0  0  0  0  0  0  0  0  0  0  0  0
    0.9892   -2.7597   -1.5893 C   0  0  0  0  0  0  0  0  0  0  0  0
    0.8994   -1.5888   -2.3913 O   0  0  0  0  0  0  0  0  0  0  0  0
  1  2  1  0
  2  3  1  0
  2  6  1  0
  2  9  1  0
  3  4  1  0
  4  5  1  0
  6  7  1  0
  7  8  1  0
  9 10  1  0
 10 11  1  0
M  END
>  <DRUGBANK_ID>  (1) 
DB04237

>  <SECONDARY_ACCESSION_NUMBERS>  (1) 
EXPT03004

>  <COMMON_NAME>  (1) 
Tris(Hydroxyethyl)Aminomethane

$$$$
