
     RDKit          3D

 34 38  0  0  1  0  0  0  0  0999 V2000
   -3.2101    0.9331   -0.5782 C   0  0  0  0  0  0  0  0  0  0  0  0
   -2.1230    0.3739    1.4452 C   0  0  0  0  0  0  0  0  0  0  0  0
    3.5354    3.4048    0.0229 C   0  0  0  0  0  0  0  0  0  0  0  0
   -1.6045   -0.8133   -5.0196 C   0  0  0  0  0  0  0  0  0  0  0  0
   -1.3972   -2.0486   -4.4047 C   0  0  0  0  0  0  0  0  0  0  0  0
   -1.7008    0.3226   -4.2465 C   0  0  0  0  0  0  0  0  0  0  0  0
   -2.5383   -2.4174    3.5433 C   0  0  0  0  0  0  0  0  0  0  0  0
   -3.5395   -1.4675    3.1006 C   0  0  0  0  0  0  0  0  0  0  0  0
   -1.3870   -2.1678   -3.0069 C   0  0  0  0  0  0  0  0  0  0  0  0
   -1.5220    0.2091   -2.8776 C   0  0  0  0  0  0  0  0  0  0  0  0
   -0.7955   -3.8850    1.3024 C   0  0  0  0  0  0  0  0  0  0  0  0
    0.5352   -2.2629    2.4110 C   0  0  0  0  0  0  0  0  0  0  0  0
   -0.8072   -4.6845    2.5017 C   0  0  0  0  0  0  0  0  0  0  0  0
    0.3536   -2.9584    3.6546 C   0  0  0  0  0  0  0  0  0  0  0  0
    3.1659   -0.1842   -0.0027 C   0  0  0  0  0  0  0  0  0  0  0  0
    2.1507   -1.1409   -0.0725 C   0  0  0  0  0  0  0  0  0  0  0  0
   -3.2287   -3.6768    2.9762 C   0  0  0  0  0  0  0  0  0  0  0  0
   -4.8170   -2.1750    3.4189 C   0  0  0  0  0  0  0  0  0  0  0  0
   -4.0279   -4.0096    5.0569 C   0  0  0  0  0  0  0  0  0  0  0  0
   -2.5140   -4.8011    5.3037 C   0  0  0  0  0  0  0  0  0  0  0  0
    1.5054    1.5717   -0.0586 C   0  0  0  0  0  0  0  0  0  0  0  0
   -0.1703   -2.6350    1.2362 C   0  0  0  0  0  0  0  0  0  0  0  0
   -1.4894   -1.0295   -2.2028 C   0  0  0  0  0  0  0  0  0  0  0  0
   -0.4643   -4.1105    3.7391 C   0  0  0  0  0  0  0  0  0  0  0  0
    2.8350    1.1594   -0.0006 C   0  0  0  0  0  0  0  0  0  0  0  0
    0.8125   -0.7211   -0.1085 C   0  0  0  0  0  0  0  0  0  0  0  0
    0.4828    0.6228   -0.1179 C   0  0  0  0  0  0  0  0  0  0  0  0
   -0.2458   -1.7941   -0.0766 C   0  0  2  0  0  0  0  0  0  0  0  0
   -1.5779   -1.1341   -0.6388 C   0  0  1  0  0  0  0  0  0  0  0  0
   -1.8727    0.2977   -0.0370 C   0  0  0  0  0  0  0  0  0  0  0  0
   -4.4708   -3.5965    3.6802 N   0  0  0  0  0  0  0  0  0  0  0  0
    3.8960    2.0300    0.0594 O   0  0  0  0  0  0  0  0  0  0  0  0
   -1.1453   -4.2559    4.9734 O   0  0  0  0  0  0  0  0  0  0  0  0
   -0.7615    1.1831   -0.2176 O   0  0  0  0  0  0  0  0  0  0  0  0
  5  4  2  0
  6  4  1  0
  8  7  1  0
  9  5  1  0
 10  6  2  0
 13 11  2  0
 14 12  1  0
 16 15  2  0
 17  7  1  0
 18  8  1  0
 20 19  1  0
 22 11  1  0
 22 12  2  0
 23  9  2  0
 23 10  1  0
 24 13  1  0
 24 14  2  0
 25 15  1  0
 25 21  2  0
 26 16  1  0
 27 21  1  0
 27 26  2  0
 28 22  1  1
 28 26  1  0
 29 28  1  0
 29 23  1  6
 30  1  1  0
 30  2  1  0
 30 29  1  0
 31 17  1  0
 31 18  1  0
 31 19  1  0
 32  3  1  0
 32 25  1  0
 33 20  1  0
 33 24  1  0
 34 27  1  0
 34 30  1  0
M  END
>  <DRUGBANK_ID>  (1) 
DB13310

>  <COMMON_NAME>  (1) 
Ormeloxifene

>  <CAS_NUMBER>  (1) 
31477-60-8

>  <UNII>  (1) 
44AXY5VE90

>  <SYNONYMS>  (1) 
Centchroman; Ormeloxifene

$$$$
