
     RDKit          3D

 23 24  0  0  1  0  0  0  0  0999 V2000
    1.2807    2.7049    0.1378 C   0  0  0  0  0  0  0  0  0  0  0  0
    4.3181   -2.4099   -3.4872 C   0  0  0  0  0  0  0  0  0  0  0  0
    6.0170   -0.7440   -3.8911 C   0  0  0  0  0  0  0  0  0  0  0  0
    5.2998   -3.3491   -3.1540 C   0  0  0  0  0  0  0  0  0  0  0  0
    7.0000   -1.6822   -3.5564 C   0  0  0  0  0  0  0  0  0  0  0  0
    3.6191   -0.1157   -4.1757 C   0  0  0  0  0  0  0  0  0  0  0  0
   -0.3976    1.9888   -2.3469 C   0  0  0  0  0  0  0  0  0  0  0  0
    0.7002    1.4013    0.6946 C   0  0  2  0  0  0  0  0  0  0  0  0
    4.6648   -1.0979   -3.8499 C   0  0  0  0  0  0  0  0  0  0  0  0
    6.6374   -2.9755   -3.1957 C   0  0  0  0  0  0  0  0  0  0  0  0
    2.6511    0.2094   -3.3095 C   0  0  0  0  0  0  0  0  0  0  0  0
   -1.6800    1.2738   -2.0330 C   0  0  0  0  0  0  0  0  0  0  0  0
    1.0761    0.1184   -0.0713 C   0  0  1  0  0  0  0  0  0  0  0  0
    1.4581    0.3416   -1.5560 C   0  0  0  0  0  0  0  0  0  0  0  0
    1.5268    1.1396   -3.6117 C   0  0  0  0  0  0  0  0  0  0  0  0
    2.2110   -0.4847    0.6840 N   0  0  0  0  0  0  0  0  0  0  0  0
    2.5360   -0.2308   -2.0165 N   0  0  0  0  0  0  0  0  0  0  0  0
    0.7634    1.0846   -2.4654 N   0  0  0  0  0  0  0  0  0  0  0  0
   -0.7065    1.5041    0.8907 O   0  0  0  0  0  0  0  0  0  0  0  0
    7.6400   -3.8478   -2.8892 O   0  0  0  0  0  0  0  0  0  0  0  0
   -2.4438    1.5823   -1.1323 O   0  0  0  0  0  0  0  0  0  0  0  0
   -1.9308    0.1871   -2.7670 O   0  0  0  0  0  0  0  0  0  0  0  0
    1.3832    1.8293   -4.5912 O   0  0  0  0  0  0  0  0  0  0  0  0
  4  2  2  0
  5  3  1  0
  8 19  1  0
  8 13  1  0
  8  1  1  6
  9  2  1  0
  9  3  2  0
  9  6  1  0
 10  4  1  0
 10  5  2  0
 11  6  2  0
 12  7  1  0
 13 16  1  1
 14 13  1  0
 15 11  1  0
 17 11  1  0
 17 14  2  0
 18  7  1  0
 18 14  1  0
 18 15  1  0
 20 10  1  0
 21 12  2  0
 22 12  1  0
 23 15  2  0
M  END
>  <DRUGBANK_ID>  (1) 
DB04567

>  <SECONDARY_ACCESSION_NUMBERS>  (1) 
EXPT01025

>  <COMMON_NAME>  (1) 
Chromophore (Gly-Tyr-Gly)

$$$$
