
     RDKit          3D

 19 20  0  0  0  0  0  0  0  0999 V2000
    1.1193   -0.0918    0.0488 O   0  0  0  0  0  0  0  0  0  0  0  0
    6.1115    4.9761   -0.1665 N   0  0  0  0  0  0  0  0  0  0  0  0
    4.6178    6.6108   -1.1057 N   0  0  0  0  0  0  0  0  0  0  0  0
    6.5214    7.2399   -0.2058 N   0  0  0  0  0  0  0  0  0  0  0  0
    3.1607    0.1748   -1.2248 C   0  0  0  0  0  0  0  0  0  0  0  0
    4.0493    1.3906   -1.1689 C   0  0  0  0  0  0  0  0  0  0  0  0
    2.3401   -0.0532    0.0605 C   0  0  0  0  0  0  0  0  0  0  0  0
    3.0619   -0.3960    1.3250 C   0  0  0  0  0  0  0  0  0  0  0  0
    3.4240    2.6149   -1.3280 C   0  0  0  0  0  0  0  0  0  0  0  0
    5.3743    1.3629   -0.7031 C   0  0  0  0  0  0  0  0  0  0  0  0
    4.0570    3.7693   -0.8991 C   0  0  0  0  0  0  0  0  0  0  0  0
    6.0034    2.5563   -0.2889 C   0  0  0  0  0  0  0  0  0  0  0  0
    5.3803    3.8004   -0.4553 C   0  0  0  0  0  0  0  0  0  0  0  0
    2.6704   -1.5162    2.0520 C   0  0  0  0  0  0  0  0  0  0  0  0
    4.1540    0.3391    1.7773 C   0  0  0  0  0  0  0  0  0  0  0  0
    3.4487   -1.9417    3.1355 C   0  0  0  0  0  0  0  0  0  0  0  0
    5.0118   -0.1544    2.7525 C   0  0  0  0  0  0  0  0  0  0  0  0
    4.6391   -1.2852    3.4583 C   0  0  0  0  0  0  0  0  0  0  0  0
    5.7384    6.1748   -0.4862 C   0  0  0  0  0  0  0  0  0  0  0  0
  1  7  2  0
  2 13  1  0
  2 19  2  3
  3 19  1  0
  4 19  1  0
  5  6  1  0
  5  7  1  0
  6  9  2  0
  6 10  1  0
  7  8  1  0
  8 14  2  0
  8 15  1  0
  9 11  1  0
 10 12  2  0
 11 13  2  0
 12 13  1  0
 14 16  1  0
 15 17  2  0
 16 18  2  0
 17 18  1  0
M  END
>  <DRUGBANK_ID>  (1) 
DB07122

>  <COMMON_NAME>  (1) 
1-[4-(2-oxo-2-phenylethyl)phenyl]guanidine

$$$$
