
     RDKit          3D

 34 37  0  0  1  0  0  0  0  0999 V2000
    0.9281   -0.2446   -0.1365 N   0  0  0  0  0  0  0  0  0  0  0  0
    0.2934   -0.9042    0.8764 C   0  0  0  0  0  0  0  0  0  0  0  0
   -1.0800   -0.7852    0.8545 N   0  0  0  0  0  0  0  0  0  0  0  0
   -1.8690   -0.7956    2.0885 C   0  0  0  0  0  0  0  0  0  0  0  0
   -2.7346   -2.0448    2.1878 C   0  0  0  0  0  0  0  0  0  0  0  0
   -3.6123   -2.2294    0.9459 C   0  0  0  0  0  0  0  0  0  0  0  0
   -2.7587   -2.1357   -0.3296 C   0  0  0  0  0  0  0  0  0  0  0  0
   -1.8899   -0.8742   -0.3572 C   0  0  0  0  0  0  0  0  0  0  0  0
   -4.3269   -3.5808    0.9914 C   0  0  0  0  0  0  0  0  0  0  0  0
   -5.2556   -3.6621    2.1030 N   0  0  0  0  0  0  0  0  0  0  0  0
   -6.5932   -3.9405    2.0615 C   0  0  0  0  0  0  0  0  0  0  0  0
   -7.2199   -3.9705    3.1209 O   0  0  0  0  0  0  0  0  0  0  0  0
   -7.2572   -4.0676    0.6795 C   0  0  2  0  0  0  0  0  0  0  0  0
   -7.8757   -2.7314    0.2664 C   0  0  0  0  0  0  0  0  0  0  0  0
   -9.3863   -2.8658    0.4734 C   0  0  0  0  0  0  0  0  0  0  0  0
   -9.6096   -4.2977    0.9127 C   0  0  1  0  0  0  0  0  0  0  0  0
  -10.7442   -5.0432    0.2264 C   0  0  0  0  0  0  0  0  0  0  0  0
  -10.7608   -6.4515    0.7710 N   0  0  0  0  0  0  0  0  0  0  0  0
   -9.4968   -7.1555    0.3776 C   0  0  0  0  0  0  0  0  0  0  0  0
   -8.2117   -6.3448    0.5207 C   0  0  0  0  0  0  0  0  0  0  0  0
   -7.1103   -6.8799    0.3859 O   0  0  0  0  0  0  0  0  0  0  0  0
   -8.3601   -4.9822    0.6672 N   0  0  0  0  0  0  0  0  0  0  0  0
  -11.0791   -6.4978    2.4643 S   0  0  0  0  0  0  0  0  0  0  0  0
   -9.8676   -6.1142    3.1675 O   0  0  0  0  0  0  0  0  0  0  0  0
  -12.2944   -5.7522    2.6863 O   0  0  0  0  0  0  0  0  0  0  0  0
  -11.2995   -8.2248    2.8290 C   0  0  0  0  0  0  0  0  0  0  0  0
  -12.3691   -8.9088    2.0317 C   0  0  0  0  0  0  0  0  0  0  0  0
  -12.3085  -10.3070    1.9323 C   0  0  0  0  0  0  0  0  0  0  0  0
  -13.3411  -11.0164    1.3224 C   0  0  0  0  0  0  0  0  0  0  0  0
  -14.4576  -10.3427    0.8325 C   0  0  0  0  0  0  0  0  0  0  0  0
  -14.5425   -8.9632    0.9491 C   0  0  0  0  0  0  0  0  0  0  0  0
  -13.4880   -8.2524    1.5051 C   0  0  0  0  0  0  0  0  0  0  0  0
    0.9336   -1.5688    1.7988 N   0  0  0  0  0  0  0  0  0  0  0  0
    2.3267   -1.5223    1.5941 O   0  0  0  0  0  0  0  0  0  0  0  0
  1  2  1  0
  2  3  1  0
  2 33  2  0
  3  4  1  0
  3  8  1  0
  4  5  1  0
  5  6  1  0
  6  7  1  0
  6  9  1  0
  7  8  1  0
  9 10  1  0
 10 11  1  0
 11 12  2  0
 13 11  1  1
 13 14  1  0
 13 22  1  0
 14 15  1  0
 16 15  1  6
 16 17  1  0
 16 22  1  0
 17 18  1  0
 18 19  1  0
 18 23  1  0
 19 20  1  0
 20 21  2  0
 20 22  1  0
 23 24  2  0
 23 25  2  0
 23 26  1  0
 26 27  1  0
 27 28  2  0
 27 32  1  0
 28 29  1  0
 29 30  2  0
 30 31  1  0
 31 32  2  0
 33 34  1  0
M  END
>  <DRUGBANK_ID>  (1) 
DB02723

>  <SECONDARY_ACCESSION_NUMBERS>  (1) 
EXPT00716

>  <COMMON_NAME>  (1) 
4-Oxo-2-Phenylmethanesulfonyl-Octahydro-Pyrrolo[1,2-a]Pyrazine-6-Carboxylic Acid [1-(N-Hydroxycarbamimidoyl)-Piperidin-4-Ylmethyl]-Amide

$$$$
