
     RDKit          3D

 13 12  0  0  0  0  0  0  0  0999 V2000
    0.9500    0.1543   -0.0663 N   0  0  0  0  0  0  0  0  0  0  0  0
   -4.3059   -1.3521    1.8719 C   0  0  0  0  0  0  0  0  0  0  0  0
   -5.6341   -1.4441    1.6566 O   0  0  0  0  0  0  0  0  0  0  0  0
    0.2821   -1.0696    0.3869 C   0  0  0  0  0  0  0  0  0  0  0  0
   -3.4413   -1.5565    0.6215 C   0  0  1  0  0  0  0  0  0  0  0  0
   -3.8638   -1.1250    2.9972 O   0  0  0  0  0  0  0  0  0  0  0  0
   -4.2368   -1.9393   -0.5605 N   0  0  0  0  0  0  0  0  0  0  0  0
   -0.5756   -0.8845    1.6540 C   0  0  0  0  0  0  0  0  0  0  0  0
   -2.6600   -0.2867    0.3155 C   0  0  0  0  0  0  0  0  0  0  0  0
   -1.7104    0.1213    1.4683 C   0  0  0  0  0  0  0  0  0  0  0  0
    0.3304    1.2878   -0.4845 C   0  0  0  0  0  0  0  0  0  0  0  0
    1.0461    2.4201   -0.3672 N   0  0  0  0  0  0  0  0  0  0  0  0
   -0.8826    1.3726   -0.8893 N   0  0  0  0  0  0  0  0  0  0  0  0
  1 11  1  0
  3  2  1  0
  4  1  1  0
  5  2  1  0
  5  7  1  6
  6  2  2  0
  8  4  1  0
  9  5  1  0
 10  8  1  0
 10  9  1  0
 11 12  1  0
 11 13  2  0
M  END
>  <DRUGBANK_ID>  (1) 
DB03974

>  <SECONDARY_ACCESSION_NUMBERS>  (1) 
EXPT01779

>  <COMMON_NAME>  (1) 
L-homoarginine

>  <CAS_NUMBER>  (1) 
156-86-5

>  <UNII>  (1) 
JF751CK38I

>  <SYNONYMS>  (1) 
Homo-L-arginine; Homoarginine; N6-(Aminoiminomethyl)-L-lysine; N6-amidino-L-Lysine; N6-amidino-Lysine

$$$$
