
     RDKit          3D

 28 27  0  0  0  0  0  0  0  0999 V2000
    0.9085   -0.1472    0.0462 C   0  0  0  0  0  0  0  0  0  0  0  0
    0.4502   -0.1544   -1.3884 C   0  0  0  0  0  0  0  0  0  0  0  0
   -0.3931   -1.2810   -1.8020 C   0  0  0  0  0  0  0  0  0  0  0  0
   -0.8854   -1.4403   -3.0396 C   0  0  0  0  0  0  0  0  0  0  0  0
   -1.7184   -2.5294   -3.4958 C   0  0  0  0  0  0  0  0  0  0  0  0
   -2.2046   -2.6708   -4.7501 C   0  0  0  0  0  0  0  0  0  0  0  0
   -1.9213   -1.6674   -5.8607 C   0  0  0  0  0  0  0  0  0  0  0  0
   -3.0518   -3.8159   -5.1389 C   0  0  0  0  0  0  0  0  0  0  0  0
   -3.4411   -4.8312   -4.3401 C   0  0  0  0  0  0  0  0  0  0  0  0
   -4.2943   -5.9321   -4.8364 C   0  0  0  0  0  0  0  0  0  0  0  0
   -4.5768   -6.8519   -3.8902 O   0  0  0  0  0  0  0  0  0  0  0  0
   -4.7112   -6.0179   -5.9825 O   0  0  0  0  0  0  0  0  0  0  0  0
    0.8190    0.8435   -2.2175 C   0  0  0  0  0  0  0  0  0  0  0  0
    1.6479    1.9684   -1.8461 C   0  0  0  0  0  0  0  0  0  0  0  0
    1.9701    2.9195   -2.7291 C   0  0  0  0  0  0  0  0  0  0  0  0
    2.7950    4.0566   -2.3945 C   0  0  0  0  0  0  0  0  0  0  0  0
    3.1578    5.0502   -3.2341 C   0  0  0  0  0  0  0  0  0  0  0  0
    2.7234    5.0862   -4.6794 C   0  0  0  0  0  0  0  0  0  0  0  0
    4.0046    6.1819   -2.8197 C   0  0  0  0  0  0  0  0  0  0  0  0
    4.5011    6.3490   -1.5840 C   0  0  0  0  0  0  0  0  0  0  0  0
    5.3350    7.4398   -1.1286 C   0  0  0  0  0  0  0  0  0  0  0  0
    5.8224    7.5829    0.1259 C   0  0  0  0  0  0  0  0  0  0  0  0
    5.5403    6.5806    1.2381 C   0  0  0  0  0  0  0  0  0  0  0  0
    6.6700    8.7283    0.5157 C   0  0  0  0  0  0  0  0  0  0  0  0
    7.0601    9.7442   -0.2820 C   0  0  0  0  0  0  0  0  0  0  0  0
    7.9135   10.8450    0.2150 C   0  0  0  0  0  0  0  0  0  0  0  0
    8.1962   11.7652   -0.7310 O   0  0  0  0  0  0  0  0  0  0  0  0
    8.3303   10.9307    1.3611 O   0  0  0  0  0  0  0  0  0  0  0  0
  1  2  1  0
  2  3  1  0
  2 13  2  0
  3  4  2  0
  4  5  1  0
  5  6  2  0
  6  7  1  0
  6  8  1  0
  8  9  2  0
  9 10  1  0
 10 11  1  0
 10 12  2  0
 13 14  1  0
 14 15  2  0
 15 16  1  0
 16 17  2  0
 17 18  1  0
 17 19  1  0
 19 20  2  0
 20 21  1  0
 21 22  2  0
 22 23  1  0
 22 24  1  0
 24 25  2  0
 25 26  1  0
 26 27  1  0
 26 28  2  0
M  END
>  <DRUGBANK_ID>  (1) 
DB15201

>  <COMMON_NAME>  (1) 
Norbixin

>  <CAS_NUMBER>  (1) 
542-40-5

>  <UNII>  (1) 
E8M59E17AI

$$$$
