HI5
     RDKit          3D

 21 20  0  0  0  0  0  0  0  0999 V2000
    0.9305    0.0410    0.0591 P   0  0  0  0  0  0  0  0  0  0  0  0
    0.9305    1.6502    0.6944 O   0  0  0  0  0  0  0  0  0  0  0  0
    0.9305   -0.2134   -1.6521 O   0  0  0  0  0  0  0  0  0  0  0  0
    0.9305   -1.3137    1.1350 O   0  0  0  0  0  0  0  0  0  0  0  0
   -0.7995    0.0410    0.0591 O   0  0  0  0  0  0  0  0  0  0  0  0
    2.6605    0.0410    0.0591 O   0  0  0  0  0  0  0  0  0  0  0  0
    2.2693   -1.6844    1.4294 C   0  0  0  0  0  0  0  0  0  0  0  0
    2.9859   -2.0594    0.1424 C   0  0  1  0  0  0  0  0  0  0  0  0
    2.9859   -0.8691   -0.8029 C   0  0  0  0  0  0  0  0  0  0  0  0
    3.6553    0.2226   -0.1894 O   0  0  0  0  0  0  0  0  0  0  0  0
    3.1701    0.7560    1.0339 C   0  0  0  0  0  0  0  0  0  0  0  0
    2.1368    0.2564    1.5797 O   0  0  0  0  0  0  0  0  0  0  0  0
    3.8867    1.9246    1.6907 C   0  0  0  0  0  0  0  0  0  0  0  0
    5.3197    1.5279    2.0058 C   0  0  0  0  0  0  0  0  0  0  0  0
    6.0363    1.1528    0.7188 C   0  0  0  0  0  0  0  0  0  0  0  0
    4.3247   -2.4301    0.4368 O   0  0  0  0  0  0  0  0  0  0  0  0
    5.1990   -1.4991    1.0574 C   0  0  0  0  0  0  0  0  0  0  0  0
    4.7019   -0.1058    1.4067 C   0  0  0  0  0  0  0  0  0  0  0  0
    4.8226    0.1142    2.9058 C   0  0  0  0  0  0  0  0  0  0  0  0
    6.2779   -0.0237    3.3225 C   0  0  0  0  0  0  0  0  0  0  0  0
    6.3972   -1.8309    1.3209 O   0  0  0  0  0  0  0  0  0  0  0  0
  1  2  1  0
  1  3  1  0
  1  4  1  0
  1  5  1  0
  1  6  1  0
  4  7  1  0
  8  7  1  1
  8  9  1  0
  8 16  1  0
  9 10  1  0
 10 11  1  0
 11 12  2  0
 11 13  1  0
 13 14  1  0
 14 15  1  0
 16 17  1  0
 17 18  1  0
 17 21  2  0
 18 19  1  0
 19 20  1  0
M  END
>  <DRUGBANK_ID>  (1) 
DB07898

>  <COMMON_NAME>  (1) 
(2R)-3-[(tetrahydroxyphosphoranyl)oxy]-1,2-propanediyl dibutanoate

>  <SYNONYMS>  (1) 
2-(butyryloxy)-1-{[(tetrahydroxyphosphoranyl)oxy]methyl}ethyl butyrate

$$$$
