
     RDKit          3D

 31 34  0  0  1  0  0  0  0  0999 V2000
    0.2679   -2.4346    1.8317 C   0  0  0  0  0  0  0  0  0  0  0  0
    0.4138   -1.4217    2.8000 C   0  0  0  0  0  0  0  0  0  0  0  0
   -0.4634   -0.3470    2.9067 C   0  0  0  0  0  0  0  0  0  0  0  0
   -1.4165   -0.2066    1.9360 C   0  0  0  0  0  0  0  0  0  0  0  0
   -1.4122   -1.1677    0.8232 C   0  0  0  0  0  0  0  0  0  0  0  0
   -0.7128   -2.3548    0.8787 C   0  0  0  0  0  0  0  0  0  0  0  0
   -2.6644    0.6558    2.3343 C   0  0  0  0  0  0  0  0  0  0  0  0
   -3.6007    0.2285    1.2636 C   0  0  1  0  0  0  0  0  0  0  0  0
   -3.7380   -1.3403    1.8946 C   0  0  0  0  0  0  0  0  0  0  0  0
   -4.9811   -1.3892    2.4968 O   0  0  0  0  0  0  0  0  0  0  0  0
   -5.6889   -1.2328    1.3706 C   0  0  0  0  0  0  0  0  0  0  0  0
   -5.9461   -2.3641    0.6994 C   0  0  0  0  0  0  0  0  0  0  0  0
   -7.0942   -2.2778    0.0044 C   0  0  0  0  0  0  0  0  0  0  0  0
   -7.7227   -1.0387   -0.2470 C   0  0  0  0  0  0  0  0  0  0  0  0
   -7.1210    0.1467    0.1459 C   0  0  0  0  0  0  0  0  0  0  0  0
   -5.9734    0.0276    0.8798 C   0  0  0  0  0  0  0  0  0  0  0  0
   -4.9056    1.0494    1.0786 C   0  0  2  0  0  0  0  0  0  0  0  0
   -4.7673    1.8743   -0.1080 O   0  0  0  0  0  0  0  0  0  0  0  0
   -7.6703   -3.5432   -0.2757 C   0  0  0  0  0  0  0  0  0  0  0  0
   -7.9447   -4.3560    0.8529 C   0  0  0  0  0  0  0  0  0  0  0  0
   -8.6241   -5.5430    0.7081 C   0  0  0  0  0  0  0  0  0  0  0  0
   -9.0206   -5.8915   -0.5872 C   0  0  0  0  0  0  0  0  0  0  0  0
   -8.6982   -5.0943   -1.7073 C   0  0  0  0  0  0  0  0  0  0  0  0
   -7.9278   -3.9494   -1.5704 C   0  0  0  0  0  0  0  0  0  0  0  0
   -7.3822   -3.2495   -2.7912 C   0  0  0  0  0  0  0  0  0  0  0  0
   -7.6563   -3.5401   -3.9190 O   0  0  0  0  0  0  0  0  0  0  0  0
   -6.4699   -2.2773   -2.5307 O   0  0  0  0  0  0  0  0  0  0  0  0
   -8.9929   -6.3523    1.9202 C   0  0  0  0  0  0  0  0  0  0  0  0
  -10.3413   -6.4560    2.0614 F   0  0  0  0  0  0  0  0  0  0  0  0
   -8.5108   -7.6215    1.8684 F   0  0  0  0  0  0  0  0  0  0  0  0
   -8.5373   -5.8277    3.0945 F   0  0  0  0  0  0  0  0  0  0  0  0
  1  2  2  0
  1  6  1  0
  2  3  1  0
  3  4  2  0
  4  5  1  0
  4  7  1  0
  5  6  2  0
  8  9  1  0
  8 17  1  0
  8  7  1  1
  9 10  1  0
 10 11  1  0
 11 12  2  0
 11 16  1  0
 12 13  1  0
 13 14  2  0
 13 19  1  0
 14 15  1  0
 15 16  2  0
 16 17  1  0
 17 18  1  6
 19 20  2  0
 19 24  1  0
 20 21  1  0
 21 22  2  0
 21 28  1  0
 22 23  1  0
 23 24  2  0
 24 25  1  0
 25 26  2  0
 25 27  1  0
 28 29  1  0
 28 30  1  0
 28 31  1  0
M  END
>  <DRUGBANK_ID>  (1) 
DB13053

>  <COMMON_NAME>  (1) 
CP-195543

>  <CAS_NUMBER>  (1) 
204981-48-6

>  <UNII>  (1) 
YB1F0V77MK

$$$$
