
     RDKit          3D

 33 34  0  0  1  0  0  0  0  0999 V2000
    1.6477    0.4986    1.2809 C   0  0  0  0  0  0  0  0  0  0  0  0
    2.2167    0.0554   -1.0716 C   0  0  0  0  0  0  0  0  0  0  0  0
   -1.2462    0.0793    2.3266 C   0  0  0  0  0  0  0  0  0  0  0  0
   -6.8554   -1.2391   -0.7131 C   0  0  0  0  0  0  0  0  0  0  0  0
   -4.2155   -2.5245    3.0410 C   0  0  0  0  0  0  0  0  0  0  0  0
   -3.2303   -1.6178    2.7766 C   0  0  0  0  0  0  0  0  0  0  0  0
   -5.4442   -2.3439    2.4151 C   0  0  0  0  0  0  0  0  0  0  0  0
   -2.3577   -4.3567   -1.4264 C   0  0  0  0  0  0  0  0  0  0  0  0
   -3.0739   -4.9106   -0.1825 C   0  0  1  0  0  0  0  0  0  0  0  0
   -3.4608   -0.5274    1.9127 C   0  0  0  0  0  0  0  0  0  0  0  0
   -5.6259   -1.3940    1.3458 C   0  0  0  0  0  0  0  0  0  0  0  0
   -4.5849   -0.4632    1.0411 C   0  0  0  0  0  0  0  0  0  0  0  0
   -2.6619   -0.5904   -1.6137 C   0  0  1  0  0  0  0  0  0  0  0  0
    0.1116    1.4189   -0.7045 C   0  0  1  0  0  0  0  0  0  0  0  0
   -4.5378    0.4386   -0.2326 C   0  0  0  0  0  0  0  0  0  0  0  0
   -1.5532   -0.3287   -0.6010 C   0  0  2  0  0  0  0  0  0  0  0  0
   -4.4055   -4.1644   -0.1377 C   0  0  0  0  0  0  0  0  0  0  0  0
    0.5017    2.8288   -0.2818 C   0  0  0  0  0  0  0  0  0  0  0  0
   -3.0208   -2.0585   -1.8753 C   0  0  0  0  0  0  0  0  0  0  0  0
    1.0377    0.3180   -0.1467 C   0  0  0  0  0  0  0  0  0  0  0  0
   -3.4037   -6.3682   -0.2020 N   0  0  0  0  0  0  0  0  0  0  0  0
   -3.8250    0.3105   -1.3069 N   0  0  0  0  0  0  0  0  0  0  0  0
   -1.2903    1.1259   -0.4665 N   0  0  0  0  0  0  0  0  0  0  0  0
   -5.3501    1.3663   -0.0069 O   0  0  0  0  0  0  0  0  0  0  0  0
   -5.4590   -4.8269   -0.2457 O   0  0  0  0  0  0  0  0  0  0  0  0
   -4.1833   -2.9486    0.1033 O   0  0  0  0  0  0  0  0  0  0  0  0
    0.9217    3.7075   -1.0309 O   0  0  0  0  0  0  0  0  0  0  0  0
    0.4823    3.0580    1.0486 O   0  0  0  0  0  0  0  0  0  0  0  0
   -3.9468   -2.4273   -2.5968 O   0  0  0  0  0  0  0  0  0  0  0  0
   -2.5496    0.4983    1.9598 O   0  0  0  0  0  0  0  0  0  0  0  0
   -6.7739   -1.7035    0.6301 O   0  0  0  0  0  0  0  0  0  0  0  0
   -2.0637   -2.9357   -1.3898 O   0  0  0  0  0  0  0  0  0  0  0  0
    0.0698   -1.1870   -0.4901 S   0  0  0  0  0  0  0  0  0  0  0  0
  6  5  2  0
  7  5  1  0
  9  8  1  0
  9 21  1  6
 10  6  1  0
 11  7  2  0
 12 10  2  0
 12 11  1  0
 13 22  1  1
 14 18  1  1
 15 12  1  0
 15 24  1  0
 16 13  1  0
 17  9  1  0
 19 13  1  0
 20  1  1  0
 20  2  1  0
 20 14  1  0
 22 15  2  3
 23 14  1  0
 16 23  1  6
 25 17  2  0
 26 17  1  0
 27 18  2  0
 28 18  1  0
 29 19  2  0
 30  3  1  0
 30 10  1  0
 31  4  1  0
 31 11  1  0
 32  8  1  0
 32 19  1  0
 33 16  1  0
 33 20  1  0
M  CHG  2  24  -1  26  -1
M  END
>  <DRUGBANK_ID>  (1) 
DB02443

>  <SECONDARY_ACCESSION_NUMBERS>  (1) 
EXPT02130

>  <COMMON_NAME>  (1) 
Methicillin Acyl-Serine

$$$$
