
     RDKit          3D

 21 23  0  0  1  0  0  0  0  0999 V2000
    1.5037   -1.3818   -1.2669 C   0  0  0  0  0  0  0  0  0  0  0  0
    0.3734   -1.4742   -0.2340 C   0  0  2  0  0  0  0  0  0  0  0  0
    0.0781   -1.4673    1.2954 C   0  0  0  0  0  0  0  0  0  0  0  0
    0.4470   -2.6685    2.0643 N   0  0  0  0  0  0  0  0  0  0  0  0
   -0.1756   -4.1187    1.4825 S   0  0  0  0  0  0  0  0  0  0  0  0
    0.5361   -5.1858    2.1364 O   0  0  0  0  0  0  0  0  0  0  0  0
   -1.6151   -4.0159    1.5195 O   0  0  0  0  0  0  0  0  0  0  0  0
    0.3030   -3.9058   -0.0887 N   0  0  0  0  0  0  0  0  0  0  0  0
   -0.3155   -2.7372   -0.7746 C   0  0  0  0  0  0  0  0  0  0  0  0
    1.2980   -4.7716   -0.6351 C   0  0  0  0  0  0  0  0  0  0  0  0
    2.6039   -4.3725   -0.9257 C   0  0  0  0  0  0  0  0  0  0  0  0
    3.5142   -5.2569   -1.5121 C   0  0  0  0  0  0  0  0  0  0  0  0
    4.8430   -4.8786   -1.6961 C   0  0  0  0  0  0  0  0  0  0  0  0
    5.7184   -5.8069   -2.2232 C   0  0  0  0  0  0  0  0  0  0  0  0
    5.3591   -7.0517   -2.6066 N   0  0  0  0  0  0  0  0  0  0  0  0
    4.0532   -7.3924   -2.4490 C   0  0  0  0  0  0  0  0  0  0  0  0
    3.7092   -8.7506   -2.8247 C   0  0  0  0  0  0  0  0  0  0  0  0
    3.3519   -9.8075   -3.0981 N   0  0  0  0  0  0  0  0  0  0  0  0
    3.0860   -6.5416   -1.8964 C   0  0  0  0  0  0  0  0  0  0  0  0
    1.7541   -6.9124   -1.6367 C   0  0  0  0  0  0  0  0  0  0  0  0
    0.9394   -6.0913   -0.8696 C   0  0  0  0  0  0  0  0  0  0  0  0
  2  3  1  0
  2  9  1  0
  2  1  1  1
  3  4  1  0
  4  5  1  0
  5  6  2  0
  5  7  2  0
  5  8  1  0
  8  9  1  0
  8 10  1  0
 10 11  2  0
 10 21  1  0
 11 12  1  0
 12 13  2  0
 12 19  1  0
 13 14  1  0
 14 15  2  0
 15 16  1  0
 16 17  1  0
 16 19  2  0
 17 18  3  0
 19 20  1  0
 20 21  2  0
M  END
>  <DRUGBANK_ID>  (1) 
DB15221

>  <COMMON_NAME>  (1) 
PF-06260414

>  <CAS_NUMBER>  (1) 
1612755-71-1

>  <UNII>  (1) 
3I487UHH95

$$$$
