
     RDKit          3D

 34 36  0  0  0  0  0  0  0  0999 V2000
    1.1713   -0.0000    0.3203 O   0  0  0  0  0  0  0  0  0  0  0  0
    2.3843   -0.2254    0.2066 N   0  0  0  0  0  0  0  0  0  0  0  0
    2.9439   -0.5002   -0.8675 O   0  0  0  0  0  0  0  0  0  0  0  0
    3.2505   -0.0021    1.3876 C   0  0  0  0  0  0  0  0  0  0  0  0
    4.4649    0.6882    1.1808 C   0  0  0  0  0  0  0  0  0  0  0  0
    5.1019    1.5201    2.1525 C   0  0  0  0  0  0  0  0  0  0  0  0
    6.0304    2.7126    1.7872 C   0  0  0  0  0  0  0  0  0  0  0  0
    6.2060    3.3090    0.5652 C   0  0  0  0  0  0  0  0  0  0  0  0
    5.5861    2.8966   -0.7430 C   0  0  0  0  0  0  0  0  0  0  0  0
    4.5829    3.8561   -1.2707 N   0  0  0  0  0  0  0  0  0  0  0  0
    5.1681    4.6290   -2.3639 C   0  0  0  0  0  0  0  0  0  0  0  0
    6.5810    5.1611   -2.0336 C   0  0  0  0  0  0  0  0  0  0  0  0
    6.7425    5.5674   -0.5814 C   0  0  0  0  0  0  0  0  0  0  0  0
    6.5288    6.8119   -0.1048 C   0  0  0  0  0  0  0  0  0  0  0  0
    5.9733    7.9042   -0.9343 C   0  0  0  0  0  0  0  0  0  0  0  0
    4.7272    7.7492   -1.5665 C   0  0  0  0  0  0  0  0  0  0  0  0
    4.2203    8.7155   -2.4491 C   0  0  0  0  0  0  0  0  0  0  0  0
    4.9050    9.9091   -2.6060 C   0  0  0  0  0  0  0  0  0  0  0  0
    4.4441   10.9016   -3.3775 F   0  0  0  0  0  0  0  0  0  0  0  0
    6.1046   10.1157   -1.9224 C   0  0  0  0  0  0  0  0  0  0  0  0
    6.6511    9.1122   -1.1072 C   0  0  0  0  0  0  0  0  0  0  0  0
    2.9942    8.4525   -3.2057 N   0  0  0  0  0  0  0  0  0  0  0  0
    2.4949    7.3264   -3.1149 O   0  0  0  0  0  0  0  0  0  0  0  0
    2.5317    9.3491   -3.9206 O   0  0  0  0  0  0  0  0  0  0  0  0
    7.1867    4.4596    0.3550 C   0  0  0  0  0  0  0  0  0  0  0  0
    8.3448    4.3933    0.7541 O   0  0  0  0  0  0  0  0  0  0  0  0
    3.2067    4.0884   -1.0220 C   0  0  0  0  0  0  0  0  0  0  0  0
    2.5772    4.9606   -1.6330 O   0  0  0  0  0  0  0  0  0  0  0  0
    2.3534    3.4322   -0.0041 C   0  0  0  0  0  0  0  0  0  0  0  0
    2.9184    3.0451    1.1312 C   0  0  0  0  0  0  0  0  0  0  0  0
    4.5371    1.4421    3.4389 C   0  0  0  0  0  0  0  0  0  0  0  0
    3.4039    0.6142    3.6893 C   0  0  0  0  0  0  0  0  0  0  0  0
    2.7439   -0.0759    2.6603 C   0  0  0  0  0  0  0  0  0  0  0  0
    1.5900   -0.7045    2.9153 F   0  0  0  0  0  0  0  0  0  0  0  0
  1  2  1  0
  2  3  2  0
  2  4  1  0
  4  5  2  0
  4 33  1  0
  5  6  1  0
  6  7  1  0
  6 31  2  0
  7  8  2  0
  8  9  1  0
  8 25  1  0
  9 10  1  0
 10 11  1  0
 10 27  1  0
 11 12  1  0
 12 13  1  0
 13 14  2  0
 13 25  1  0
 14 15  1  0
 15 16  2  0
 15 21  1  0
 16 17  1  0
 17 18  2  0
 17 22  1  0
 18 19  1  0
 18 20  1  0
 20 21  2  0
 22 23  1  0
 22 24  2  0
 25 26  2  0
 27 28  2  0
 27 29  1  0
 29 30  2  0
 31 32  1  0
 32 33  2  0
 33 34  1  0
M  CHG  4   1  -1   2   1  22   1  23  -1
M  END
>  <DRUGBANK_ID>  (1) 
DB16030

>  <COMMON_NAME>  (1) 
VLX-1570

>  <CAS_NUMBER>  (1) 
1956378-23-6

>  <UNII>  (1) 
K6067N5M6N

>  <SYNONYMS>  (1) 
(3E,5E)-3,5-Bis[(4-Fluoro-3-Nitrophenyl)Methylidene]-1-(Prop-2-Enoyl)Azepan-4-0Ne

$$$$
