186
     RDKit          3D

 30 31  0  0  0  0  0  0  0  0999 V2000
    2.7397    1.9297   -5.3459 O   0  0  0  0  0  0  0  0  0  0  0  0
    3.0306    2.5716   -4.3289 C   0  0  0  0  0  0  0  0  0  0  0  0
    3.8184    3.6507   -4.5088 O   0  0  0  0  0  0  0  0  0  0  0  0
    4.1401    4.5797   -3.4750 C   0  0  0  0  0  0  0  0  0  0  0  0
    2.8622    5.2292   -3.1603 C   0  0  0  0  0  0  0  0  0  0  0  0
    2.4146    5.2482   -1.8450 C   0  0  0  0  0  0  0  0  0  0  0  0
    1.1455    5.7199   -1.6042 C   0  0  0  0  0  0  0  0  0  0  0  0
    0.3724    6.2004   -2.6681 C   0  0  0  0  0  0  0  0  0  0  0  0
    0.8443    6.1980   -3.9806 C   0  0  0  0  0  0  0  0  0  0  0  0
    2.0819    5.6689   -4.2356 C   0  0  0  0  0  0  0  0  0  0  0  0
    2.7817    2.1917   -3.0155 N   0  0  0  0  0  0  0  0  0  0  0  0
    2.3527    0.8397   -2.6427 C   0  0  2  0  0  0  0  0  0  0  0  0
    3.0025    0.3018   -1.3144 C   0  0  0  0  0  0  0  0  0  0  0  0
    3.1782   -1.2114   -1.1648 C   0  0  0  0  0  0  0  0  0  0  0  0
    3.5679   -1.7652    0.0490 C   0  0  0  0  0  0  0  0  0  0  0  0
    3.6862   -3.1635    0.1747 C   0  0  0  0  0  0  0  0  0  0  0  0
    3.4093   -4.0315   -0.8873 C   0  0  0  0  0  0  0  0  0  0  0  0
    3.0400   -3.5108   -2.0894 C   0  0  0  0  0  0  0  0  0  0  0  0
    3.0087   -2.1419   -2.2048 C   0  0  0  0  0  0  0  0  0  0  0  0
    2.7357   -0.0064   -3.8508 C   0  0  0  0  0  0  0  0  0  0  0  0
    1.8644   -0.5975   -4.4990 O   0  0  0  0  0  0  0  0  0  0  0  0
    4.0943   -0.1741   -4.1261 N   0  0  0  0  0  0  0  0  0  0  0  0
    5.2407    0.4865   -3.5045 C   0  0  1  0  0  0  0  0  0  0  0  0
    6.2260   -0.4515   -2.8441 C   0  0  0  0  0  0  0  0  0  0  0  0
    5.9542    1.2751   -4.5509 C   0  0  0  0  0  0  0  0  0  0  0  0
    6.2639    2.5660   -4.3728 C   0  0  0  0  0  0  0  0  0  0  0  0
    6.6735    3.5275   -5.4216 C   0  0  0  0  0  0  0  0  0  0  0  0
    6.5959    4.7402   -5.2473 O   0  0  0  0  0  0  0  0  0  0  0  0
    7.2148    3.0545   -6.7369 C   0  0  0  0  0  0  0  0  0  0  0  0
    7.3374    1.8753   -7.0201 O   0  0  0  0  0  0  0  0  0  0  0  0
  1  2  2  0
  2  3  1  0
  2 11  1  0
  3  4  1  0
  4  5  1  0
  5  6  2  0
  5 10  1  0
  6  7  1  0
  7  8  2  0
  8  9  1  0
  9 10  2  0
 12 20  1  0
 12 13  1  1
 12 11  1  0
 13 14  1  0
 14 15  2  0
 14 19  1  0
 15 16  1  0
 16 17  2  0
 17 18  1  0
 18 19  2  0
 20 21  2  0
 20 22  1  0
 22 23  1  0
 23 24  1  6
 23 25  1  0
 25 26  2  0
 26 27  1  0
 27 28  2  0
 27 29  1  0
 29 30  2  0
M  END
>  <DRUGBANK_ID>  (1) 
DB01810

>  <SECONDARY_ACCESSION_NUMBERS>  (1) 
EXPT00058

>  <COMMON_NAME>  (1) 
[1-(1-Methyl-4,5-Dioxo-Pent-2-Enylcarbamoyl)-2-Phenyl-Ethyl]-Carbamic Acid Benzyl Ester

$$$$
