
     RDKit          3D

 12 11  0  0  0  0  0  0  0  0999 V2000
    0.9270   -1.2676   -2.0942 N   0  0  0  0  0  0  0  0  0  0  0  0
    0.4716   -0.0309   -1.4172 C   0  0  2  0  0  0  0  0  0  0  0  0
    1.0028    0.0032    0.0221 C   0  0  0  0  0  0  0  0  0  0  0  0
    1.3412   -0.9612    0.6949 O   0  0  0  0  0  0  0  0  0  0  0  0
   -1.0570    0.0213   -1.4382 C   0  0  0  0  0  0  0  0  0  0  0  0
   -1.6234    1.3065   -0.8351 C   0  0  0  0  0  0  0  0  0  0  0  0
   -1.2349    2.4710   -1.6204 N   0  0  0  0  0  0  0  0  0  0  0  0
   -2.1426    3.3409   -2.1442 C   0  0  0  0  0  0  0  0  0  0  0  0
   -1.5796    4.3985   -2.8019 N   0  0  0  0  0  0  0  0  0  0  0  0
   -3.4005    3.1031   -1.9932 N   0  0  0  0  0  0  0  0  0  0  0  0
   -2.3679    5.3547   -3.4362 O   0  0  0  0  0  0  0  0  0  0  0  0
    1.0592    1.2506    0.5325 O   0  0  0  0  0  0  0  0  0  0  0  0
  2  5  1  0
  2  3  1  0
  2  1  1  1
  3  4  2  0
  3 12  1  0
  5  6  1  0
  6  7  1  0
  8  7  1  0
  8  9  1  0
  8 10  2  0
  9 11  1  0
M  END
>  <DRUGBANK_ID>  (1) 
DB02381

>  <SECONDARY_ACCESSION_NUMBERS>  (1) 
EXPT02371; DB12913

>  <COMMON_NAME>  (1) 
nor-NOHA

>  <CAS_NUMBER>  (1) 
189302-40-7

>  <UNII>  (1) 
U0F1149OFR

>  <SYNONYMS>  (1) 
(2S)-2-amino-4-(((hydroxyamino)iminomethyl)amino)butanoic acid; N-hydroxy-nor-arginine; N-hydroxy-nor-L-arginine; Nomega-Hydroxy-nor-L-arginine

$$$$
