
     RDKit          3D

 11 11  0  0  0  0  0  0  0  0999 V2000
    1.3571   -0.2199   -0.0009 C   0  0  0  0  0  0  0  0  0  0  0  0
   -0.5099    1.3011    0.0300 C   0  0  0  0  0  0  0  0  0  0  0  0
    0.4644   -1.2980    0.0249 C   0  0  0  0  0  0  0  0  0  0  0  0
   -1.4038    0.2272    0.0144 C   0  0  0  0  0  0  0  0  0  0  0  0
    1.7961    2.2593   -0.2943 C   0  0  0  0  0  0  0  0  0  0  0  0
    0.8728    1.0905   -0.0538 C   0  0  0  0  0  0  0  0  0  0  0  0
   -0.9259   -1.0868    0.0160 C   0  0  0  0  0  0  0  0  0  0  0  0
   -1.8103   -2.2899    0.0437 C   0  0  0  0  0  0  0  0  0  0  0  0
    1.4326    2.9371   -1.5384 N   0  0  0  0  0  0  0  0  0  0  0  0
   -3.1406   -2.0717    0.0531 O   0  0  0  0  0  0  0  0  0  0  0  0
   -1.3532   -3.4256    0.0731 O   0  0  0  0  0  0  0  0  0  0  0  0
  3  1  2  0
  4  2  1  0
  6  1  1  0
  6  2  2  0
  6  5  1  0
  7  3  1  0
  7  4  2  0
  8  7  1  0
  9  5  1  0
 10  8  1  0
 11  8  2  0
M  END
>  <DRUGBANK_ID>  (1) 
DB13244

>  <COMMON_NAME>  (1) 
Aminomethylbenzoic acid

>  <CAS_NUMBER>  (1) 
56-91-7

>  <UNII>  (1) 
68WG9JKC7L

$$$$
