
     RDKit          3D

 16 16  0  0  0  0  0  0  0  0999 V2000
    1.0043   -0.1118   -0.3978 C   0  0  0  0  0  0  0  0  0  0  0  0
    0.6592    1.2028   -0.2086 C   0  0  0  0  0  0  0  0  0  0  0  0
   -0.6885    1.4169   -0.0129 C   0  0  0  0  0  0  0  0  0  0  0  0
   -1.5818    0.3129   -0.0083 C   0  0  0  0  0  0  0  0  0  0  0  0
   -1.1189   -1.0191   -0.0336 C   0  0  0  0  0  0  0  0  0  0  0  0
    0.2209   -1.2246   -0.1841 C   0  0  0  0  0  0  0  0  0  0  0  0
   -1.9812   -2.2349    0.0935 C   0  0  0  0  0  0  0  0  0  0  0  0
   -2.7616   -2.1962    1.3835 C   0  0  0  0  0  0  0  0  0  0  0  0
   -4.1178   -2.1209    1.1823 N   0  0  0  0  0  0  0  0  0  0  0  0
   -2.2588   -2.1945    2.4912 O   0  0  0  0  0  0  0  0  0  0  0  0
   -4.9133   -1.9901    2.3361 O   0  0  0  0  0  0  0  0  0  0  0  0
    1.5793    2.2173   -0.1703 O   0  0  0  0  0  0  0  0  0  0  0  0
    2.9994    1.9446   -0.3662 C   0  0  0  0  0  0  0  0  0  0  0  0
    3.7639    1.3665    0.8559 C   0  0  0  0  0  0  0  0  0  0  0  0
    3.4305   -0.0828    1.2193 C   0  0  0  0  0  0  0  0  0  0  0  0
    3.8087   -1.0774    0.0909 C   0  0  0  0  0  0  0  0  0  0  0  0
  1  2  2  0
  2  3  1  0
  2 12  1  0
  3  4  2  0
  4  5  1  0
  5  6  2  0
  5  7  1  0
  6  1  1  0
  7  8  1  0
  8  9  1  0
  8 10  2  0
  9 11  1  0
 12 13  1  0
 13 14  1  0
 14 15  1  0
 15 16  1  0
M  END
>  <DRUGBANK_ID>  (1) 
DB13346

>  <COMMON_NAME>  (1) 
Bufexamac

>  <CAS_NUMBER>  (1) 
2438-72-4

>  <UNII>  (1) 
4T3C38J78L

>  <SYNONYMS>  (1) 
2-(p-Butoxyphenyl)-acetohydroxamic acid; 4-Butoxy-N-hydroxybenzeneacetamide; 4-Butoxyphenylacetohydroxamic acid; Acide p-butoxyphenylacethydroxamique; Bufexamac; bufexamaco; bufexamacum; Bufexamic acid; p-Butoxyphenylacetohydroxamic acid

$$$$
