TGN
     RDKit          3D

 23 25  0  0  0  0  0  0  0  0999 V2000
    0.4742   -0.9340    1.4856 C   0  0  2  0  0  0  0  0  0  0  0  0
   -0.1705    0.4488    1.1812 C   0  0  2  0  0  0  0  0  0  0  0  0
   -1.0012    0.5034   -0.0349 N   0  0  0  0  0  0  0  0  0  0  0  0
   -2.3881    0.0807   -0.1646 C   0  0  0  0  0  0  0  0  0  0  0  0
    0.9151    1.4572    0.7569 C   0  0  0  0  0  0  0  0  0  0  0  0
    0.9297    1.4580   -0.7802 C   0  0  0  0  0  0  0  0  0  0  0  0
   -0.1026    0.4195   -1.1794 C   0  0  1  0  0  0  0  0  0  0  0  0
    0.6323   -0.9158   -1.3050 C   0  0  0  0  0  0  0  0  0  0  0  0
    1.1976   -1.4393    0.1051 C   0  0  2  0  0  0  0  0  0  0  0  0
    1.2964   -2.8585    0.0425 O   0  0  0  0  0  0  0  0  0  0  0  0
   -0.2787   -3.5730    0.0805 P   0  0  1  0  0  0  0  0  0  0  0  0
   -0.0156   -4.1151    1.4646 O   0  0  0  0  0  0  0  0  0  0  0  0
   -1.0594   -2.2696   -0.2878 O   0  0  0  0  0  0  0  0  0  0  0  0
   -1.9448   -4.3288    0.1207 C   0  0  0  0  0  0  0  0  0  0  0  0
   -2.0254   -5.7401    0.2191 C   0  0  0  0  0  0  0  0  0  0  0  0
   -3.1417   -3.7934   -0.3612 C   0  0  0  0  0  0  0  0  0  0  0  0
   -3.2520   -6.4307    0.2834 C   0  0  0  0  0  0  0  0  0  0  0  0
   -4.4300   -5.7086    0.3213 C   0  0  0  0  0  0  0  0  0  0  0  0
   -4.3636   -4.3685    0.0074 C   0  0  0  0  0  0  0  0  0  0  0  0
   -0.5975   -1.7877    2.3944 C   0  0  0  0  0  0  0  0  0  0  0  0
   -0.3552   -2.5351    3.3016 O   0  0  0  0  0  0  0  0  0  0  0  0
   -1.8738   -1.5449    1.9395 O   0  0  0  0  0  0  0  0  0  0  0  0
   -2.9764   -2.4627    2.1133 C   0  0  0  0  0  0  0  0  0  0  0  0
  1  2  1  0
  1  9  1  0
  1 20  1  6
  2  3  1  0
  2  5  1  6
  3  4  1  0
  3  7  1  0
  5  6  1  0
  7  6  1  1
  7  8  1  0
  8  9  1  0
  9 10  1  6
 11 10  1  0
 11 12  2  0
 11 13  1  0
 11 14  1  0
 14 15  2  0
 14 16  1  0
 15 17  1  0
 16 19  2  0
 17 18  2  0
 18 19  1  0
 20 21  2  0
 20 22  1  0
 22 23  1  0
M  END
>  <DRUGBANK_ID>  (1) 
DB08618

>  <COMMON_NAME>  (1) 
3-(HYDROXY-PHENYL-PHOSPHINOYLOXY)-8-METHYL-8-AZA-BICYCLO[3.2.1]OCTANE-2-CARBOXYLIC ACID METHYL ESTER

$$$$
