
     RDKit          3D

 36 39  0  0  0  0  0  0  0  0999 V2000
    1.3180    0.9243    0.0626 C   0  0  0  0  0  0  0  0  0  0  0  0
    1.2841   -0.4917    0.6165 C   0  0  0  0  0  0  0  0  0  0  0  0
    0.1130   -0.9596    0.0499 C   0  0  0  0  0  0  0  0  0  0  0  0
   -1.1653   -0.3764   -0.0609 C   0  0  0  0  0  0  0  0  0  0  0  0
   -1.1827    0.9173    0.1424 C   0  0  0  0  0  0  0  0  0  0  0  0
    0.0331    1.5746    0.0375 N   0  0  0  0  0  0  0  0  0  0  0  0
    2.6951   -1.5383    0.9529 C   0  0  0  0  0  0  0  0  0  0  0  0
    3.8640   -1.0742    0.6991 O   0  0  0  0  0  0  0  0  0  0  0  0
    2.5505   -3.2102    1.2884 N   0  0  0  0  0  0  0  0  0  0  0  0
    2.3636    1.4414   -0.3259 O   0  0  0  0  0  0  0  0  0  0  0  0
    0.0011    2.9333   -0.2437 C   0  0  0  0  0  0  0  0  0  0  0  0
    0.5599    3.4295   -1.4224 C   0  0  0  0  0  0  0  0  0  0  0  0
    0.7756    4.7901   -1.5179 C   0  0  0  0  0  0  0  0  0  0  0  0
    0.2933    5.6177   -0.5090 C   0  0  0  0  0  0  0  0  0  0  0  0
   -0.4200    5.1176    0.5786 C   0  0  0  0  0  0  0  0  0  0  0  0
   -0.5225    3.7550    0.7458 C   0  0  0  0  0  0  0  0  0  0  0  0
    0.5273    6.9316   -0.5789 F   0  0  0  0  0  0  0  0  0  0  0  0
    0.0437   -2.0675   -0.7315 O   0  0  0  0  0  0  0  0  0  0  0  0
    1.3458   -2.4499   -0.6048 C   0  0  0  0  0  0  0  0  0  0  0  0
    2.4227   -2.7315   -1.5878 C   0  0  0  0  0  0  0  0  0  0  0  0
    1.2074   -4.3634    0.9438 C   0  0  0  0  0  0  0  0  0  0  0  0
    0.1174   -4.4338   -0.3652 C   0  0  0  0  0  0  0  0  0  0  0  0
   -1.2246   -4.4863   -0.3169 C   0  0  0  0  0  0  0  0  0  0  0  0
   -1.5175   -5.1936    0.7341 C   0  0  0  0  0  0  0  0  0  0  0  0
   -0.4475   -5.6554    1.7063 C   0  0  0  0  0  0  0  0  0  0  0  0
    0.8294   -5.1064    1.9565 C   0  0  0  0  0  0  0  0  0  0  0  0
   -2.0674   -3.8471   -1.1652 F   0  0  0  0  0  0  0  0  0  0  0  0
   -2.8641   -5.4589    0.7630 O   0  0  0  0  0  0  0  0  0  0  0  0
   -2.8581   -6.9914    3.9698 C   0  0  0  0  0  0  0  0  0  0  0  0
   -2.9358   -5.9592    3.0676 C   0  0  0  0  0  0  0  0  0  0  0  0
   -3.1454   -6.3314    1.7446 C   0  0  0  0  0  0  0  0  0  0  0  0
   -3.3144   -7.6371    1.3228 C   0  0  0  0  0  0  0  0  0  0  0  0
   -3.0131   -8.5798    2.2633 C   0  0  0  0  0  0  0  0  0  0  0  0
   -2.8269   -8.2894    3.5780 N   0  0  0  0  0  0  0  0  0  0  0  0
   -2.5777   -4.3159    3.5527 Cl  0  0  0  0  0  0  0  0  0  0  0  0
   -2.7353   -6.6984    5.3104 N   0  0  0  0  0  0  0  0  0  0  0  0
  1  2  1  0
  1  6  1  0
  1 10  2  0
  2  3  2  0
  2  7  1  0
  3  4  1  0
  3 18  1  0
  4  5  2  0
  5  6  1  0
  6 11  1  0
  7  8  2  0
  7  9  1  0
  9 21  1  0
 11 12  2  0
 11 16  1  0
 12 13  1  0
 13 14  2  0
 14 15  1  0
 14 17  1  0
 15 16  2  0
 18 19  1  0
 19 20  1  0
 21 22  2  0
 21 26  1  0
 22 23  1  0
 23 24  2  0
 23 27  1  0
 24 25  1  0
 24 28  1  0
 25 26  2  0
 28 31  1  0
 29 30  2  0
 29 34  1  0
 29 36  1  0
 30 31  1  0
 30 35  1  0
 31 32  2  0
 32 33  1  0
 33 34  2  0
M  END
>  <DRUGBANK_ID>  (1) 
DB12064

>  <COMMON_NAME>  (1) 
BMS-777607

>  <CAS_NUMBER>  (1) 
1025720-94-8

>  <UNII>  (1) 
A3MMS6HDO1

$$$$
