
     RDKit          3D

 30 34  0  0  0  0  0  0  0  0999 V2000
   -0.1186   -0.6982    0.0276 C   0  0  0  0  0  0  0  0  0  0  0  0
    1.1563   -1.3823    0.0260 N   0  0  0  0  0  0  0  0  0  0  0  0
   -0.1057    0.6985    0.0023 C   0  0  0  0  0  0  0  0  0  0  0  0
   -1.3118   -1.3933    0.0718 N   0  0  0  0  0  0  0  0  0  0  0  0
    1.2209   -2.8109    0.0041 C   0  0  0  0  0  0  0  0  0  0  0  0
    2.3387   -0.6240    0.0248 C   0  0  0  0  0  0  0  0  0  0  0  0
    1.1626    1.4581    0.0062 C   0  0  0  0  0  0  0  0  0  0  0  0
   -1.3108    1.3888   -0.0164 C   0  0  0  0  0  0  0  0  0  0  0  0
   -2.5047   -0.7265    0.0302 C   0  0  0  0  0  0  0  0  0  0  0  0
    1.8442   -3.5422    1.0292 C   0  0  0  0  0  0  0  0  0  0  0  0
    0.6309   -3.5332   -1.0479 C   0  0  0  0  0  0  0  0  0  0  0  0
    2.4377    0.7182    0.0123 C   0  0  0  0  0  0  0  0  0  0  0  0
    1.1678    2.6872    0.0030 O   0  0  0  0  0  0  0  0  0  0  0  0
   -2.5013    0.6716   -0.0243 C   0  0  0  0  0  0  0  0  0  0  0  0
   -3.6923   -1.4222    0.0174 N   0  0  0  0  0  0  0  0  0  0  0  0
    1.7945   -4.9337    1.0606 C   0  0  0  0  0  0  0  0  0  0  0  0
    2.4672   -2.9024    2.0306 F   0  0  0  0  0  0  0  0  0  0  0  0
    0.7713   -4.9199   -1.1253 C   0  0  0  0  0  0  0  0  0  0  0  0
    3.7560    1.4002   -0.0057 C   0  0  0  0  0  0  0  0  0  0  0  0
   -3.6530    1.3592   -0.0353 F   0  0  0  0  0  0  0  0  0  0  0  0
    1.2827   -5.6111   -0.0358 C   0  0  0  0  0  0  0  0  0  0  0  0
    3.7139    2.7503   -0.0139 O   0  0  0  0  0  0  0  0  0  0  0  0
    4.8255    0.7928   -0.0195 O   0  0  0  0  0  0  0  0  0  0  0  0
    1.2568   -6.9500   -0.0365 F   0  0  0  0  0  0  0  0  0  0  0  0
   -4.6900   -1.3165   -1.0434 C   0  0  0  0  0  0  0  0  0  0  0  0
   -5.2565   -2.7187   -1.0983 C   0  0  1  0  0  0  0  0  0  0  0  0
   -4.8953   -3.3966    0.1982 C   0  0  1  0  0  0  0  0  0  0  0  0
   -4.1094   -2.3978    1.0137 C   0  0  0  0  0  0  0  0  0  0  0  0
   -6.3448   -3.2166   -0.1824 C   0  0  2  0  0  0  0  0  0  0  0  0
   -7.1189   -4.3934   -0.6033 N   0  0  0  0  0  0  0  0  0  0  0  0
  1  2  1  0
  1  3  1  0
  1  4  2  0
  2  5  1  0
  2  6  1  0
  3  7  1  0
  3  8  2  0
  4  9  1  0
  5 10  2  0
  5 11  1  0
  6 12  2  0
  7 13  2  0
  7 12  1  0
  8 14  1  0
  9 15  1  0
  9 14  2  0
 10 16  1  0
 10 17  1  0
 11 18  2  0
 12 19  1  0
 14 20  1  0
 15 25  1  0
 15 28  1  0
 16 21  2  0
 18 21  1  0
 19 22  1  0
 19 23  2  0
 21 24  1  0
 26 25  1  1
 26 27  1  0
 26 29  1  0
 27 28  1  1
 29 27  1  0
 29 30  1  6
M  END
>  <DRUGBANK_ID>  (1) 
DB00685

>  <SECONDARY_ACCESSION_NUMBERS>  (1) 
APRD01281

>  <COMMON_NAME>  (1) 
Trovafloxacin

>  <CAS_NUMBER>  (1) 
147059-72-1

>  <UNII>  (1) 
9F388J00UK

>  <SYNONYMS>  (1) 
Trovafloxacin; trovafloxacino

$$$$
