
     RDKit          3D

 27 28  0  0  1  0  0  0  0  0999 V2000
    8.1431    2.5299    7.0696 C   0  0  0  0  0  0  0  0  0  0  0  0
    8.0452    1.1342    7.5602 C   0  0  0  0  0  0  0  0  0  0  0  0
    8.1482    0.2457    6.6099 N   0  0  0  0  0  0  0  0  0  0  0  0
    8.2390   -1.0048    7.0398 C   0  0  0  0  0  0  0  0  0  0  0  0
    8.0488   -1.5111    8.3308 C   0  0  0  0  0  0  0  0  0  0  0  0
    8.0909   -2.9538    8.8536 C   0  0  0  0  0  0  0  0  0  0  0  0
    6.9323   -3.7163    8.4607 N   0  0  0  0  0  0  0  0  0  0  0  0
    5.8276   -4.1192    9.2405 C   0  0  0  0  0  0  0  0  0  0  0  0
    4.5206   -4.4013    8.7128 C   0  0  0  0  0  0  0  0  0  0  0  0
    4.3603   -4.3844    7.4233 C   0  0  0  0  0  0  0  0  0  0  0  0
    5.5780   -4.0795    6.8510 C   0  0  0  0  0  0  0  0  0  0  0  0
    5.4849   -4.1577    5.6131 C   0  0  0  0  0  0  0  0  0  0  0  0
    5.3870   -6.0561    5.6643 C   0  0  0  0  0  0  0  0  0  0  0  0
    4.0859   -6.5412    5.1094 O   0  0  0  0  0  0  0  0  0  0  0  0
    3.3087   -5.7445    3.8365 P   0  0  2  0  0  0  0  0  0  0  0  0
    1.7784   -5.9732    4.1711 O   0  0  0  0  0  0  0  0  0  0  0  0
    3.2606   -6.2806    2.4339 O   0  0  0  0  0  0  0  0  0  0  0  0
    4.1625   -4.3627    3.7585 O   0  0  0  0  0  0  0  0  0  0  0  0
    5.7831   -4.9671    3.7925 P   0  0  0  0  0  0  0  0  0  0  0  0
    5.4007   -6.4884    3.1231 O   0  0  0  0  0  0  0  0  0  0  0  0
    5.9078   -4.2584    2.3202 O   0  0  0  0  0  0  0  0  0  0  0  0
    7.2336   -5.5081    3.8229 O   0  0  0  0  0  0  0  0  0  0  0  0
    6.9097   -3.8557    7.1773 C   0  0  0  0  0  0  0  0  0  0  0  0
    8.0215   -3.5488    6.0853 C   0  0  0  0  0  0  0  0  0  0  0  0
    7.8977   -0.4910    9.2180 C   0  0  0  0  0  0  0  0  0  0  0  0
    7.6616   -0.7518   10.5422 N   0  0  0  0  0  0  0  0  0  0  0  0
    7.9261    0.8137    8.8633 N   0  0  0  0  0  0  0  0  0  0  0  0
  1  2  1  0
  2  3  2  0
  2 27  1  0
  3  4  1  0
  4  5  2  0
  5  6  1  0
  5 25  1  0
  6  7  1  0
  7  8  2  0
  7 23  1  0
  8  9  1  0
  9 10  2  0
 10 11  1  0
 11 12  1  0
 11 23  2  0
 12 13  1  0
 13 14  1  0
 15 17  2  0
 15 18  1  0
 15 16  1  0
 15 14  1  0
 18 19  1  0
 19 20  1  0
 19 21  1  0
 19 22  2  0
 23 24  1  0
 25 26  1  0
 25 27  2  0
M  CHG  1   7   1
M  END
>  <DRUGBANK_ID>  (1) 
DB04768

>  <COMMON_NAME>  (1) 
Pyrithiamine Pyrophosphate

$$$$
