
     RDKit          3D

 13 14  0  0  0  0  0  0  0  0999 V2000
   -1.4609    0.0607    0.1705 N   0  0  0  0  0  0  0  0  0  0  0  0
   -0.8272   -1.2096   -0.1864 C   0  0  0  0  0  0  0  0  0  0  0  0
    0.6464   -1.2320    0.2771 C   0  0  0  0  0  0  0  0  0  0  0  0
    1.4337   -0.0649   -0.1846 N   0  0  0  0  0  0  0  0  0  0  0  0
    0.7422    1.1725    0.2485 C   0  0  0  0  0  0  0  0  0  0  0  0
   -0.7298    1.2658   -0.2335 C   0  0  0  0  0  0  0  0  0  0  0  0
   -2.5925    0.1285    0.9549 C   0  0  0  0  0  0  0  0  0  0  0  0
   -2.6700   -0.4919    2.2084 C   0  0  0  0  0  0  0  0  0  0  0  0
   -3.8368   -0.4089    2.9811 C   0  0  0  0  0  0  0  0  0  0  0  0
   -4.9523    0.2771    2.5131 C   0  0  0  0  0  0  0  0  0  0  0  0
   -4.8990    0.8896    1.2656 C   0  0  0  0  0  0  0  0  0  0  0  0
   -3.7240    0.8220    0.5045 C   0  0  0  0  0  0  0  0  0  0  0  0
   -3.8969   -1.1613    4.5300 Cl  0  0  0  0  0  0  0  0  0  0  0  0
  1  2  1  0
  1  6  1  0
  1  7  1  0
  2  3  1  0
  3  4  1  0
  4  5  1  0
  5  6  1  0
  7  8  2  0
  8  9  1  0
  9 10  2  0
  9 13  1  0
 10 11  1  0
 11 12  2  0
 12  7  1  0
M  END
>  <DRUGBANK_ID>  (1) 
DB12110

>  <COMMON_NAME>  (1) 
m-Chlorophenylpiperazine

>  <CAS_NUMBER>  (1) 
6640-24-0

>  <UNII>  (1) 
REY0CNO998

>  <SYNONYMS>  (1) 
1-(3-chlorophenyl)piperazine; M-CPP; MCPP

$$$$
