PPT
     RDKit          3D

 12 12  0  0  0  0  0  0  0  0999 V2000
    0.9009   -0.0910    0.0824 C   0  0  0  0  0  0  0  0  0  0  0  0
    0.1794    1.0338    0.7982 C   0  0  0  0  0  0  0  0  0  0  0  0
   -0.9711    1.4193    0.6293 O   0  0  0  0  0  0  0  0  0  0  0  0
    0.9902    1.7105    1.6389 O   0  0  0  0  0  0  0  0  0  0  0  0
    0.5106   -0.3186   -1.3942 C   0  0  0  0  0  0  0  0  0  0  0  0
    0.2287    0.9099   -2.2334 C   0  0  0  0  0  0  0  0  0  0  0  0
    0.4925    2.1931   -1.7477 C   0  0  0  0  0  0  0  0  0  0  0  0
   -0.3901    0.8036   -3.4836 C   0  0  0  0  0  0  0  0  0  0  0  0
   -0.1124    3.3077   -2.2924 C   0  0  0  0  0  0  0  0  0  0  0  0
   -0.8170    1.9594   -4.1513 C   0  0  0  0  0  0  0  0  0  0  0  0
   -0.7258    3.2116   -3.5297 C   0  0  0  0  0  0  0  0  0  0  0  0
   -1.1606    4.4713   -4.2027 C   0  0  0  0  0  0  0  0  0  0  0  0
  1  2  1  0
  1  5  1  0
  2  3  2  0
  2  4  1  0
  5  6  1  0
  6  7  2  0
  6  8  1  0
  7  9  1  0
  8 10  2  0
  9 11  2  0
 10 11  1  0
 11 12  1  0
M  END
>  <DRUGBANK_ID>  (1) 
DB03400

>  <SECONDARY_ACCESSION_NUMBERS>  (1) 
EXPT02648

>  <COMMON_NAME>  (1) 
3-(P-Tolyl)Propionic Acid

>  <UNII>  (1) 
BG327JNM0V

$$$$
