
     RDKit          3D

 23 24  0  0  0  0  0  0  0  0999 V2000
    2.6052    1.1001    0.0228 C   0  0  0  0  0  0  0  0  0  0  0  0
    1.3043    0.3573   -0.0204 C   0  0  0  0  0  0  0  0  0  0  0  0
    1.3657   -1.0799    0.0233 C   0  0  0  0  0  0  0  0  0  0  0  0
    0.2294   -1.8857    0.0265 C   0  0  0  0  0  0  0  0  0  0  0  0
   -0.9656   -1.2755   -0.1538 C   0  0  0  0  0  0  0  0  0  0  0  0
   -0.9734    0.0893   -0.4058 C   0  0  0  0  0  0  0  0  0  0  0  0
   -2.2454    0.5558   -0.9046 C   0  0  0  0  0  0  0  0  0  0  0  0
    0.0586    0.9925   -0.1292 C   0  0  0  0  0  0  0  0  0  0  0  0
   -0.1738    2.4431    0.0181 N   0  0  0  0  0  0  0  0  0  0  0  0
   -1.3276    3.3254    0.1501 C   0  0  0  0  0  0  0  0  0  0  0  0
   -1.1333    4.5301   -0.0586 O   0  0  0  0  0  0  0  0  0  0  0  0
   -2.8213    2.9431    0.4859 C   0  0  0  0  0  0  0  0  0  0  0  0
   -3.7801    3.1849   -0.5586 C   0  0  0  0  0  0  0  0  0  0  0  0
   -4.9814    2.4166   -0.6665 C   0  0  0  0  0  0  0  0  0  0  0  0
   -5.2297    1.3649    0.2277 C   0  0  0  0  0  0  0  0  0  0  0  0
   -6.5156    0.2164    0.0284 Cl  0  0  0  0  0  0  0  0  0  0  0  0
   -4.3280    1.1367    1.2820 C   0  0  0  0  0  0  0  0  0  0  0  0
   -3.1780    1.9589    1.4667 C   0  0  0  0  0  0  0  0  0  0  0  0
   -2.2620    1.4196    2.3474 O   0  0  0  0  0  0  0  0  0  0  0  0
   -6.1781    2.7113   -1.9518 S   0  0  0  0  0  0  0  0  0  0  0  0
   -6.2291    1.6155   -2.8622 O   0  0  0  0  0  0  0  0  0  0  0  0
   -7.3675    3.2416   -1.2844 O   0  0  0  0  0  0  0  0  0  0  0  0
   -5.5769    3.9980   -2.8605 N   0  0  0  0  0  0  0  0  0  0  0  0
  1  2  1  0
  2  3  2  0
  2  8  1  0
  3  4  1  0
  4  5  2  0
  5  6  1  0
  6  7  1  0
  6  8  2  0
  8  9  1  0
  9 10  1  0
 10 11  2  0
 10 12  1  0
 12 13  2  0
 12 18  1  0
 13 14  1  0
 14 15  2  0
 14 20  1  0
 15 16  1  0
 15 17  1  0
 17 18  2  0
 18 19  1  0
 20 21  2  0
 20 22  2  0
 20 23  1  0
M  END
>  <DRUGBANK_ID>  (1) 
DB13803

>  <COMMON_NAME>  (1) 
Xipamide

>  <CAS_NUMBER>  (1) 
14293-44-8

>  <UNII>  (1) 
4S9EY0NUEC

>  <SYNONYMS>  (1) 
Xipamida; Xipamide; Xipamidum

$$$$
