IHE
     RDKit          3D

 27 30  0  0  0  0  0  0  0  0999 V2000
   -1.2494    1.0859   -0.4527 C   0  0  0  0  0  0  0  0  0  0  0  0
    0.2343   -1.4496   -0.0464 C   0  0  0  0  0  0  0  0  0  0  0  0
    0.8341   -0.3968   -0.8696 N   0  0  0  0  0  0  0  0  0  0  0  0
    0.2669    0.8976   -0.4461 C   0  0  0  0  0  0  0  0  0  0  0  0
   -1.2649   -1.3371   -0.2443 C   0  0  0  0  0  0  0  0  0  0  0  0
   -1.8935   -0.0699    0.2094 N   0  0  0  0  0  0  0  0  0  0  0  0
    2.2427   -0.5118   -0.5949 C   0  0  0  0  0  0  0  0  0  0  0  0
   -1.9380    0.0504    1.6906 C   0  0  0  0  0  0  0  0  0  0  0  0
   -0.6391    0.1662    2.6576 C   0  0  0  0  0  0  0  0  0  0  0  0
    0.2260    1.3619    2.5978 N   0  0  0  0  0  0  0  0  0  0  0  0
   -0.4369    2.5600    2.4985 C   0  0  0  0  0  0  0  0  0  0  0  0
    0.2572    3.4048    1.8020 N   0  0  0  0  0  0  0  0  0  0  0  0
    1.5853    1.5945    2.1343 C   0  0  0  0  0  0  0  0  0  0  0  0
    2.6908    0.8023    1.9609 N   0  0  0  0  0  0  0  0  0  0  0  0
    3.6559    1.3678    1.1047 C   0  0  0  0  0  0  0  0  0  0  0  0
    3.6348    2.5794    0.5250 N   0  0  0  0  0  0  0  0  0  0  0  0
    2.6037    3.3786    0.8139 C   0  0  0  0  0  0  0  0  0  0  0  0
    1.4994    2.8546    1.5550 C   0  0  0  0  0  0  0  0  0  0  0  0
    2.7147    4.6787    0.3645 N   0  0  0  0  0  0  0  0  0  0  0  0
    1.8060    5.6844    0.8763 C   0  0  0  0  0  0  0  0  0  0  0  0
    1.6937    5.6707    2.4246 C   0  0  0  0  0  0  0  0  0  0  0  0
    0.5436    6.5259    2.9173 C   0  0  0  0  0  0  0  0  0  0  0  0
   -0.7649    6.2669    2.1702 C   0  0  0  0  0  0  0  0  0  0  0  0
   -0.6081    6.4215    0.6602 C   0  0  0  0  0  0  0  0  0  0  0  0
    0.4927    5.5605    0.0809 C   0  0  0  0  0  0  0  0  0  0  0  0
    5.2719   -0.2530   -0.2298 N   0  0  0  0  0  0  0  0  0  0  0  0
    4.6288    0.4826    0.4424 C   0  0  0  0  0  0  0  0  0  0  0  0
  1  4  1  0
  1  6  1  0
  2  3  1  0
  2  5  1  0
  3  4  1  0
  3  7  1  0
  5  6  1  0
  6  8  1  0
  8  9  1  0
  9 10  1  0
 10 11  1  0
 10 13  1  0
 11 12  2  0
 12 18  1  0
 13 14  2  0
 13 18  1  0
 14 15  1  0
 15 16  2  0
 15 27  1  0
 16 17  1  0
 17 18  2  0
 17 19  1  0
 19 20  1  0
 20 21  1  0
 20 25  1  0
 21 22  1  0
 22 23  1  0
 23 24  1  0
 24 25  1  0
 26 27  3  0
M  END
>  <DRUGBANK_ID>  (1) 
DB07965

>  <COMMON_NAME>  (1) 
6-(cyclohexylamino)-9-[2-(4-methylpiperazin-1-yl)-ethyl]-9H-purine-2-carbonitrile

>  <SYNONYMS>  (1) 
6-(Cyclohexylamino)-9-[2-(4-methyl-1-piperazinyl)ethyl]-9H-purine-2-carbonitrile

$$$$
