SCW
     RDKit          3D

 24 27  0  0  0  0  0  0  0  0999 V2000
    1.5540   -1.1769   -0.0002 C   0  0  0  0  0  0  0  0  0  0  0  0
    0.2534   -0.7308   -0.0077 N   0  0  0  0  0  0  0  0  0  0  0  0
    0.3255    0.6589   -0.0053 C   0  0  0  0  0  0  0  0  0  0  0  0
    1.5853    1.0657   -0.0080 N   0  0  0  0  0  0  0  0  0  0  0  0
    2.3498   -0.0612   -0.0016 C   0  0  0  0  0  0  0  0  0  0  0  0
   -0.9472   -1.4362   -0.0210 C   0  0  0  0  0  0  0  0  0  0  0  0
   -2.1125   -0.7638   -0.0380 C   0  0  0  0  0  0  0  0  0  0  0  0
   -2.0590    0.7014   -0.0210 C   0  0  0  0  0  0  0  0  0  0  0  0
   -0.9045    1.4127   -0.0040 C   0  0  0  0  0  0  0  0  0  0  0  0
   -0.9239    2.7976    0.0119 N   0  0  0  0  0  0  0  0  0  0  0  0
   -3.3938   -1.4922   -0.0361 C   0  0  0  0  0  0  0  0  0  0  0  0
    0.2232    3.6831    0.0208 C   0  0  0  0  0  0  0  0  0  0  0  0
    0.2319    4.5332   -1.2009 C   0  0  0  0  0  0  0  0  0  0  0  0
    0.3572    4.0173   -2.4764 C   0  0  0  0  0  0  0  0  0  0  0  0
    0.3898    4.7799   -3.5877 N   0  0  0  0  0  0  0  0  0  0  0  0
    0.3050    6.1035   -3.3835 C   0  0  0  0  0  0  0  0  0  0  0  0
    0.2035    6.7191   -2.1951 N   0  0  0  0  0  0  0  0  0  0  0  0
    0.1753    5.9072   -1.1236 C   0  0  0  0  0  0  0  0  0  0  0  0
   -4.3434   -1.2400   -1.0351 C   0  0  0  0  0  0  0  0  0  0  0  0
   -5.6308   -1.7669   -0.9297 C   0  0  0  0  0  0  0  0  0  0  0  0
   -5.9447   -2.6295    0.1187 C   0  0  0  0  0  0  0  0  0  0  0  0
   -4.9721   -2.9711    1.0568 C   0  0  0  0  0  0  0  0  0  0  0  0
   -3.7153   -2.3678    1.0079 C   0  0  0  0  0  0  0  0  0  0  0  0
    2.1756   -2.9306    0.0000 Br  0  0  0  0  0  0  0  0  0  0  0  0
  1  2  1  0
  1 24  1  0
  2  6  1  0
  3  9  1  0
  3  2  1  0
  4  5  1  0
  4  3  2  0
  5  1  2  0
  6  7  2  0
  7 11  1  0
  8  7  1  0
  9  8  2  0
 10 12  1  0
 10  9  1  0
 11 19  2  0
 13 14  2  0
 13 12  1  0
 15 14  1  0
 16 15  2  0
 17 16  1  0
 17 18  2  0
 18 13  1  0
 19 20  1  0
 21 20  2  0
 22 21  1  0
 23 11  1  0
 23 22  2  0
M  END
>  <DRUGBANK_ID>  (1) 
DB08537

>  <COMMON_NAME>  (1) 
3-bromo-6-phenyl-N-(pyrimidin-5-ylmethyl)imidazo[1,2-a]pyridin-8-amine

$$$$
