
     RDKit          3D

 21 23  0  0  0  0  0  0  0  0999 V2000
    2.1763   -0.0409    0.0019 F   0  0  0  0  0  0  0  0  0  0  0  0
    0.8434    3.3788    0.8917 O   0  0  0  0  0  0  0  0  0  0  0  0
    4.0612    7.2066   -5.5183 O   0  0  0  0  0  0  0  0  0  0  0  0
    2.1456    6.0843   -5.2117 O   0  0  0  0  0  0  0  0  0  0  0  0
    1.8076    2.8029   -1.0434 N   0  0  0  0  0  0  0  0  0  0  0  0
    1.7484    4.4071    0.5785 N   0  0  0  0  0  0  0  0  0  0  0  0
    3.2237    4.7920   -1.3694 C   0  0  0  0  0  0  0  0  0  0  0  0
    2.2836    4.0051   -0.5870 C   0  0  0  0  0  0  0  0  0  0  0  0
    0.1743    1.2388    0.0069 C   0  0  0  0  0  0  0  0  0  0  0  0
    0.9531    2.4555   -0.1089 C   0  0  0  0  0  0  0  0  0  0  0  0
    2.8743    5.1885   -2.6697 C   0  0  0  0  0  0  0  0  0  0  0  0
    3.7324    5.9923   -3.4436 C   0  0  0  0  0  0  0  0  0  0  0  0
    4.4605    5.1829   -0.8483 C   0  0  0  0  0  0  0  0  0  0  0  0
    4.9609    6.3840   -2.8990 C   0  0  0  0  0  0  0  0  0  0  0  0
    5.3079    6.0027   -1.5986 C   0  0  0  0  0  0  0  0  0  0  0  0
    0.8354    0.0073    0.0059 C   0  0  0  0  0  0  0  0  0  0  0  0
   -1.2281    1.2449    0.0288 C   0  0  0  0  0  0  0  0  0  0  0  0
    0.1334   -1.1961    0.0112 C   0  0  0  0  0  0  0  0  0  0  0  0
   -1.9391    0.0363    0.0208 C   0  0  0  0  0  0  0  0  0  0  0  0
   -1.2587   -1.1826    0.0085 C   0  0  0  0  0  0  0  0  0  0  0  0
    3.2462    6.4177   -4.7908 C   0  0  0  0  0  0  0  0  0  0  0  0
  1 16  1  0
  2  6  1  0
  2 10  1  0
  3 21  1  0
  4 21  2  0
  5  8  1  0
  5 10  2  0
  6  8  2  0
  7  8  1  0
  7 11  2  0
  7 13  1  0
  9 10  1  0
  9 16  2  0
  9 17  1  0
 11 12  1  0
 12 14  2  0
 12 21  1  0
 13 15  2  0
 14 15  1  0
 16 18  1  0
 17 19  2  0
 18 20  2  0
 19 20  1  0
M  END
>  <DRUGBANK_ID>  (1) 
DB05016

>  <COMMON_NAME>  (1) 
Ataluren

>  <CAS_NUMBER>  (1) 
775304-57-9

>  <UNII>  (1) 
K16AME9I3V

>  <SYNONYMS>  (1) 
3-[5-(2-fluorophenyl)-1,2,4-oxadiazol-3-yl]benzoic acid; Ataluren

$$$$
