MOJ
     RDKit          3D

 27 30  0  0  0  0  0  0  0  0999 V2000
    2.1934   -0.0449   -0.0135 F   0  0  0  0  0  0  0  0  0  0  0  0
    0.8553   -0.0157    0.0073 C   0  0  0  0  0  0  0  0  0  0  0  0
    0.2041    1.2111    0.0254 C   0  0  0  0  0  0  0  0  0  0  0  0
   -1.1969    1.2879    0.0632 C   0  0  0  0  0  0  0  0  0  0  0  0
   -1.7974    2.6362    0.0910 C   0  0  0  0  0  0  0  0  0  0  0  0
   -2.4560    3.1340    1.2130 C   0  0  0  0  0  0  0  0  0  0  0  0
   -3.2653    4.2188    1.2231 N   0  0  0  0  0  0  0  0  0  0  0  0
   -3.2989    4.9498    0.0965 C   0  0  0  0  0  0  0  0  0  0  0  0
   -2.5150    4.6694   -1.0087 C   0  0  0  0  0  0  0  0  0  0  0  0
   -1.7680    3.4894   -1.0159 C   0  0  0  0  0  0  0  0  0  0  0  0
    0.1461   -1.2047    0.0122 C   0  0  0  0  0  0  0  0  0  0  0  0
   -1.2454   -1.1670    0.0227 C   0  0  0  0  0  0  0  0  0  0  0  0
   -1.9415    0.0655    0.0465 C   0  0  0  0  0  0  0  0  0  0  0  0
   -3.4689   -0.0279   -0.0235 C   0  0  2  0  0  0  0  0  0  0  0  0
   -4.0029    0.6641   -1.2750 C   0  0  0  0  0  0  0  0  0  0  0  0
   -5.4858    0.3968   -1.3495 C   0  0  0  0  0  0  0  0  0  0  0  0
   -6.0733   -0.0782   -2.4136 N   0  0  0  0  0  0  0  0  0  0  0  0
   -5.2091   -0.2193   -3.4957 O   0  0  0  0  0  0  0  0  0  0  0  0
   -6.2767    0.7092   -0.1230 C   0  0  0  0  0  0  0  0  0  0  0  0
   -4.1724    0.5095    1.2213 C   0  0  0  0  0  0  0  0  0  0  0  0
   -5.6468    0.7199    1.1099 C   0  0  0  0  0  0  0  0  0  0  0  0
   -6.2546    1.0870    2.2689 N   0  0  0  0  0  0  0  0  0  0  0  0
   -7.5396    1.4223    2.2041 C   0  0  0  0  0  0  0  0  0  0  0  0
   -8.1608    1.7953    3.3605 N   0  0  0  0  0  0  0  0  0  0  0  0
   -8.2497    1.4022    1.0712 N   0  0  0  0  0  0  0  0  0  0  0  0
   -7.6148    1.0519   -0.0877 C   0  0  0  0  0  0  0  0  0  0  0  0
   -8.4926    1.0562   -1.3004 C   0  0  0  0  0  0  0  0  0  0  0  0
  1  2  1  0
  2  3  2  0
  3  4  1  0
  4 13  2  0
  4  5  1  0
  5  6  2  0
  6  7  1  0
  8  7  2  0
  9  8  1  0
 10  5  1  0
 10  9  2  0
 11  2  1  0
 11 12  2  0
 12 13  1  0
 14 13  1  1
 14 15  1  0
 15 16  1  0
 16 17  2  0
 17 18  1  0
 19 16  1  0
 19 26  2  0
 20 14  1  0
 20 21  1  0
 21 19  1  0
 22 21  2  0
 22 23  1  0
 23 25  2  0
 24 23  1  0
 25 26  1  0
 26 27  1  0
M  END
>  <DRUGBANK_ID>  (1) 
DB08197

>  <COMMON_NAME>  (1) 
(5E,7S)-2-amino-7-(4-fluoro-2-pyridin-3-ylphenyl)-4-methyl-7,8-dihydroquinazolin-5(6H)-one oxime

$$$$
