711
     RDKit          3D

 14 14  0  0  0  0  0  0  0  0999 V2000
    1.1155    0.0907    0.1848 O   0  0  0  0  0  0  0  0  0  0  0  0
    3.1073    1.1511   -0.1956 N   0  0  0  0  0  0  0  0  0  0  0  0
    4.7576    3.6216   -0.5478 N   0  0  0  0  0  0  0  0  0  0  0  0
    3.0146   -1.1363    0.5879 N   0  0  0  0  0  0  0  0  0  0  0  0
    2.5469    2.4519    0.1867 C   0  0  0  0  0  0  0  0  0  0  0  0
    4.5481    1.2436   -0.2045 C   0  0  0  0  0  0  0  0  0  0  0  0
    3.2677    3.6535   -0.4989 C   0  0  0  0  0  0  0  0  0  0  0  0
    5.1491    2.3212   -1.0752 C   0  0  0  0  0  0  0  0  0  0  0  0
    2.3673    0.0265    0.1719 C   0  0  0  0  0  0  0  0  0  0  0  0
    5.3688    3.7948    0.7774 C   0  0  0  0  0  0  0  0  0  0  0  0
    2.2349   -2.2199    1.1952 C   0  0  0  0  0  0  0  0  0  0  0  0
    4.4519   -1.3938    0.5711 C   0  0  0  0  0  0  0  0  0  0  0  0
    2.5356   -3.5596    0.5322 C   0  0  0  0  0  0  0  0  0  0  0  0
    4.9657   -1.6291   -0.8610 C   0  0  0  0  0  0  0  0  0  0  0  0
  1  9  2  0
  2  5  1  0
  2  6  1  0
  2  9  1  0
  3  7  1  0
  3  8  1  0
  3 10  1  0
  4  9  1  0
  4 11  1  0
  4 12  1  0
  5  7  1  0
  6  8  1  0
 11 13  1  0
 12 14  1  0
M  END
>  <DRUGBANK_ID>  (1) 
DB00711

>  <SECONDARY_ACCESSION_NUMBERS>  (1) 
APRD00918

>  <COMMON_NAME>  (1) 
Diethylcarbamazine

>  <CAS_NUMBER>  (1) 
90-89-1

>  <UNII>  (1) 
V867Q8X3ZD

>  <SYNONYMS>  (1) 
Diethylcarbamazin; Di√©thylcarbamazine; Diethylcarbamazine; Diethylcarbamazinum; Dietilcarbamazina

$$$$
