
     RDKit          3D

 12 12  0  0  0  0  0  0  0  0999 V2000
    1.3816   -0.2303    0.0133 C   0  0  0  0  0  0  0  0  0  0  0  0
    0.4959   -1.3186   -0.0062 C   0  0  0  0  0  0  0  0  0  0  0  0
   -0.8812   -1.0943   -0.0393 C   0  0  0  0  0  0  0  0  0  0  0  0
   -1.3763    0.2098   -0.0144 C   0  0  0  0  0  0  0  0  0  0  0  0
   -0.4843    1.2912    0.0485 C   0  0  0  0  0  0  0  0  0  0  0  0
    0.9016    1.0866   -0.0045 C   0  0  0  0  0  0  0  0  0  0  0  0
    2.8237   -0.4793    0.1522 N   0  0  0  0  0  0  0  0  0  0  0  0
    3.5762    0.5001    0.1904 O   0  0  0  0  0  0  0  0  0  0  0  0
    3.1945   -1.6598    0.2487 O   0  0  0  0  0  0  0  0  0  0  0  0
   -1.0120    2.6381    0.3099 N   0  0  0  0  0  0  0  0  0  0  0  0
   -0.1956    3.5617    0.4261 O   0  0  0  0  0  0  0  0  0  0  0  0
   -2.2374    2.7586    0.4448 O   0  0  0  0  0  0  0  0  0  0  0  0
  1  2  2  0
  1  6  1  0
  1  7  1  0
  2  3  1  0
  3  4  2  0
  4  5  1  0
  5  6  2  0
  5 10  1  0
  7  8  2  0
  7  9  1  0
 10 11  1  0
 10 12  2  0
M  CHG  4   7   1   9  -1  10   1  11  -1
M  END
>  <DRUGBANK_ID>  (1) 
DB02680

>  <SECONDARY_ACCESSION_NUMBERS>  (1) 
EXPT02350

>  <COMMON_NAME>  (1) 
1,3-Dinitrobenzene

>  <CAS_NUMBER>  (1) 
99-65-0

>  <UNII>  (1) 
DK8B627BU0

>  <SYNONYMS>  (1) 
1,3-dinitro-benzene; 2,4-Dinitrobenzene; m-Dinitrobenzene; m-DNB; meta-Dinitrobenzene

$$$$
