328
     RDKit          3D

 25 27  0  0  0  0  0  0  0  0999 V2000
    1.6542   -1.1663    0.0519 C   0  0  0  0  0  0  0  0  0  0  0  0
    0.2493   -1.1880   -0.0380 C   0  0  0  0  0  0  0  0  0  0  0  0
   -0.4681    0.0092   -0.0472 C   0  0  0  0  0  0  0  0  0  0  0  0
   -1.9077    0.0008   -0.0220 C   0  0  0  0  0  0  0  0  0  0  0  0
    9.0774    9.4229    0.8192 C   0  0  0  0  0  0  0  0  0  0  0  0
    4.5624    2.3343    1.1568 C   0  0  0  0  0  0  0  0  0  0  0  0
    5.2801    1.5907   -1.0664 C   0  0  0  0  0  0  0  0  0  0  0  0
    6.7271    2.0166   -0.7939 C   0  0  0  0  0  0  0  0  0  0  0  0
    6.7960    3.1706    0.2284 C   0  0  0  0  0  0  0  0  0  0  0  0
    5.9889    2.7956    1.4828 C   0  0  0  0  0  0  0  0  0  0  0  0
    3.8679    0.0574    0.2180 C   0  0  0  0  0  0  0  0  0  0  0  0
    8.9459    7.0638    0.5193 C   0  0  0  0  0  0  0  0  0  0  0  0
   10.0392    7.0423   -0.3287 C   0  0  0  0  0  0  0  0  0  0  0  0
   10.4541    5.8124   -0.8123 C   0  0  0  0  0  0  0  0  0  0  0  0
    8.3026    5.8573    0.8104 C   0  0  0  0  0  0  0  0  0  0  0  0
   -3.0612    0.0004    0.0333 N   0  0  0  0  0  0  0  0  0  0  0  0
    2.3616    0.0541    0.1264 C   0  0  0  0  0  0  0  0  0  0  0  0
    1.6289    1.2390    0.0346 C   0  0  0  0  0  0  0  0  0  0  0  0
    0.2283    1.2202   -0.0376 C   0  0  0  0  0  0  0  0  0  0  0  0
    8.1744    3.4573    0.6799 N   0  0  0  0  0  0  0  0  0  0  0  0
    4.5626    1.2720    0.1523 N   0  0  0  0  0  0  0  0  0  0  0  0
    4.4595   -1.0203    0.1793 O   0  0  0  0  0  0  0  0  0  0  0  0
    8.4337    8.1844    1.1203 O   0  0  0  0  0  0  0  0  0  0  0  0
    8.7799    4.6543    0.2894 C   0  0  0  0  0  0  0  0  0  0  0  0
    9.8675    4.6237   -0.5060 N   0  0  0  0  0  0  0  0  0  0  0  0
  1  2  2  0
  1 17  1  0
  2  3  1  0
  3  4  1  0
  3 19  2  0
  4 16  3  0
  5 23  1  0
  6 10  1  0
  6 21  1  0
  7  8  1  0
  7 21  1  0
  8  9  1  0
  9 10  1  0
  9 20  1  0
 11 17  1  0
 11 21  1  0
 11 22  2  0
 12 13  2  0
 12 15  1  0
 12 23  1  0
 13 14  1  0
 14 25  2  0
 15 24  2  0
 17 18  2  0
 18 19  1  0
 20 24  1  0
 24 25  1  0
M  END
>  <DRUGBANK_ID>  (1) 
DB07002

>  <COMMON_NAME>  (1) 
4-({4-[(4-methoxypyridin-2-yl)amino]piperidin-1-yl}carbonyl)benzonitrile

$$$$
