
     RDKit          3D

 32 33  0  0  0  0  0  0  0  0999 V2000
    0.9024    0.0465    0.0317 C   0  0  0  0  0  0  0  0  0  0  0  0
    0.5217   -1.3622   -0.0926 N   0  0  0  0  0  0  0  0  0  0  0  0
   -0.8225   -1.6047   -0.4577 C   0  0  0  0  0  0  0  0  0  0  0  0
   -1.5964   -0.6668   -0.6700 O   0  0  0  0  0  0  0  0  0  0  0  0
   -1.2190   -2.9537   -0.5166 N   0  0  0  0  0  0  0  0  0  0  0  0
   -0.3699   -4.0135   -0.2710 C   0  0  0  0  0  0  0  0  0  0  0  0
   -0.6510   -5.2054   -0.3754 O   0  0  0  0  0  0  0  0  0  0  0  0
    1.0030   -3.6650    0.1034 C   0  0  0  0  0  0  0  0  0  0  0  0
    1.4151   -2.3938    0.2080 C   0  0  0  0  0  0  0  0  0  0  0  0
    2.8607   -2.1966    0.6448 C   0  0  0  0  0  0  0  0  0  0  0  0
    3.0978   -2.8376    1.8204 F   0  0  0  0  0  0  0  0  0  0  0  0
    3.7113   -2.7362   -0.2679 F   0  0  0  0  0  0  0  0  0  0  0  0
    3.2665   -0.9205    0.8379 F   0  0  0  0  0  0  0  0  0  0  0  0
   -2.5759   -3.2604   -0.8696 C   0  0  0  0  0  0  0  0  0  0  0  0
   -3.0799   -2.8317   -2.1015 C   0  0  0  0  0  0  0  0  0  0  0  0
   -4.4016   -3.0974   -2.4449 C   0  0  0  0  0  0  0  0  0  0  0  0
   -5.2775   -3.6536   -1.5088 C   0  0  0  0  0  0  0  0  0  0  0  0
   -6.9337   -3.6956   -2.0230 Cl  0  0  0  0  0  0  0  0  0  0  0  0
   -4.7987   -4.0939   -0.2564 C   0  0  0  0  0  0  0  0  0  0  0  0
   -3.4168   -3.9778    0.0109 C   0  0  0  0  0  0  0  0  0  0  0  0
   -5.7582   -4.5970    0.7740 C   0  0  0  0  0  0  0  0  0  0  0  0
   -6.9669   -4.6226    0.5742 O   0  0  0  0  0  0  0  0  0  0  0  0
   -5.1971   -4.9767    1.9507 O   0  0  0  0  0  0  0  0  0  0  0  0
   -6.0947   -5.4618    3.0139 C   0  0  0  0  0  0  0  0  0  0  0  0
   -7.0663   -4.3547    3.4561 C   0  0  0  0  0  0  0  0  0  0  0  0
   -6.8469   -6.7177    2.5488 C   0  0  0  0  0  0  0  0  0  0  0  0
   -5.2022   -5.8243    4.2301 C   0  0  0  0  0  0  0  0  0  0  0  0
   -3.9954   -5.6095    4.2750 O   0  0  0  0  0  0  0  0  0  0  0  0
   -5.9226   -6.3870    5.2540 O   0  0  0  0  0  0  0  0  0  0  0  0
   -5.1908   -6.7253    6.4508 C   0  0  0  0  0  0  0  0  0  0  0  0
   -4.2127   -7.8330    6.1918 C   0  0  0  0  0  0  0  0  0  0  0  0
   -2.8912   -7.6855    6.3608 C   0  0  0  0  0  0  0  0  0  0  0  0
  1  2  1  0
  2  3  1  0
  2  9  1  0
  3  4  2  0
  3  5  1  0
  5  6  1  0
  5 14  1  0
  6  7  2  0
  6  8  1  0
  8  9  2  0
  9 10  1  0
 10 11  1  0
 10 12  1  0
 10 13  1  0
 14 15  2  0
 14 20  1  0
 15 16  1  0
 16 17  2  0
 17 18  1  0
 17 19  1  0
 19 20  2  0
 19 21  1  0
 21 22  2  0
 21 23  1  0
 23 24  1  0
 24 25  1  0
 24 26  1  0
 24 27  1  0
 27 28  2  0
 27 29  1  0
 29 30  1  0
 30 31  1  0
 31 32  2  0
M  END
>  <DRUGBANK_ID>  (1) 
DB15261

>  <COMMON_NAME>  (1) 
Butafenacil

>  <CAS_NUMBER>  (1) 
134605-64-4

>  <UNII>  (1) 
7Z141CCP2R

>  <SYNONYMS>  (1) 
INSPIRE

$$$$
