
     RDKit          3D

 37 41  0  0  0  0  0  0  0  0999 V2000
    1.0051    0.0562   -0.0533 N   0  0  0  0  0  0  0  0  0  0  0  0
    0.3079   -0.8793   -0.8326 C   0  0  0  0  0  0  0  0  0  0  0  0
   -0.6547   -0.4742   -1.4469 O   0  0  0  0  0  0  0  0  0  0  0  0
    0.6504   -2.3856   -0.7410 C   0  0  0  0  0  0  0  0  0  0  0  0
    1.7553   -2.8927   -0.0193 C   0  0  0  0  0  0  0  0  0  0  0  0
    2.0225   -4.3005    0.2189 C   0  0  0  0  0  0  0  0  0  0  0  0
    3.1707   -4.5276    0.9985 N   0  0  0  0  0  0  0  0  0  0  0  0
    3.7121   -5.8509    1.2175 C   0  0  1  0  0  0  0  0  0  0  0  0
    5.0468   -6.1373    0.5719 C   0  0  0  0  0  0  0  0  0  0  0  0
    6.1455   -5.3874    1.2545 C   0  0  0  0  0  0  0  0  0  0  0  0
    3.5357   -6.3593    2.6382 C   0  0  0  0  0  0  0  0  0  0  0  0
    1.1468   -5.2746   -0.3720 C   0  0  0  0  0  0  0  0  0  0  0  0
    0.0700   -4.7453   -1.1133 C   0  0  0  0  0  0  0  0  0  0  0  0
   -0.2159   -3.3539   -1.2806 C   0  0  0  0  0  0  0  0  0  0  0  0
   -1.4830   -3.0733   -2.0519 C   0  0  0  0  0  0  0  0  0  0  0  0
    1.1902   -6.8555   -0.3125 C   0  0  0  0  0  0  0  0  0  0  0  0
    0.4449   -7.6042   -1.1785 N   0  0  0  0  0  0  0  0  0  0  0  0
    1.7902   -7.6248    0.4369 O   0  0  0  0  0  0  0  0  0  0  0  0
    0.1839    1.0443    0.7008 C   0  0  1  0  0  0  0  0  0  0  0  0
   -0.8753    0.2786    1.5482 C   0  0  0  0  0  0  0  0  0  0  0  0
   -0.2917   -0.2451    2.8856 C   0  0  2  0  0  0  0  0  0  0  0  0
    0.0928    0.9475    3.5925 N   0  0  0  0  0  0  0  0  0  0  0  0
    1.3196    1.4485    2.9967 C   0  0  2  0  0  0  0  0  0  0  0  0
    0.9528    2.0443    1.6193 C   0  0  0  0  0  0  0  0  0  0  0  0
    2.1305    0.1593    2.8030 C   0  0  0  0  0  0  0  0  0  0  0  0
    1.0627   -0.9482    2.7435 C   0  0  0  0  0  0  0  0  0  0  0  0
   -0.5180    1.3626    4.7320 C   0  0  0  0  0  0  0  0  0  0  0  0
   -0.9690    2.6717    4.8128 C   0  0  0  0  0  0  0  0  0  0  0  0
   -1.6755    3.1088    5.9288 C   0  0  0  0  0  0  0  0  0  0  0  0
   -1.9007    2.2458    6.9838 C   0  0  0  0  0  0  0  0  0  0  0  0
   -1.4162    0.9468    6.8375 C   0  0  0  0  0  0  0  0  0  0  0  0
   -0.7573    0.4895    5.7321 N   0  0  0  0  0  0  0  0  0  0  0  0
   -2.6368    2.6241    8.2092 C   0  0  0  0  0  0  0  0  0  0  0  0
   -2.7993    1.7572    9.0633 O   0  0  0  0  0  0  0  0  0  0  0  0
   -3.2524    3.9588    8.4914 C   0  0  0  0  0  0  0  0  0  0  0  0
   -4.3210    4.4317    7.5104 C   0  0  0  0  0  0  0  0  0  0  0  0
   -3.2050    5.3426    7.9072 C   0  0  0  0  0  0  0  0  0  0  0  0
  1  2  1  0
  2  3  2  0
  2  4  1  0
  4  5  2  0
  4 14  1  0
  5  6  1  0
  6  7  1  0
  6 12  2  0
  7  8  1  0
  8  9  1  0
  8 11  1  1
  9 10  1  0
 12 16  1  0
 13 12  1  0
 14 13  2  0
 14 15  1  0
 16 17  1  0
 16 18  2  0
 19  1  1  1
 19 20  1  0
 19 24  1  0
 21 20  1  6
 21 22  1  0
 21 26  1  0
 22 27  1  0
 23 22  1  0
 23 25  1  6
 24 23  1  0
 26 25  1  0
 27 28  2  0
 27 32  1  0
 28 29  1  0
 29 30  2  0
 30 33  1  0
 31 30  1  0
 32 31  2  0
 33 34  2  0
 33 35  1  0
 35 36  1  0
 35 37  1  0
 36 37  1  0
M  END
>  <DRUGBANK_ID>  (1) 
DB12981

>  <COMMON_NAME>  (1) 
XL-888

>  <CAS_NUMBER>  (1) 
1149705-71-4

>  <UNII>  (1) 
7M346920EV

>  <SYNONYMS>  (1) 
EXEL-4888; XL888

$$$$
