Structure #1
     RDKit          3D

  6  5  0  0  0  0  0  0  0  0999 V2000
    0.9045    0.1334   -0.1257 C   0  0  0  0  0  0  0  0  0  0  0  0
    0.8815   -2.3023    0.7541 C   0  0  0  0  0  0  0  0  0  0  0  0
    0.3794   -1.2998   -0.3055 C   0  0  0  0  0  0  0  0  0  0  0  0
    0.4667    0.7650    1.0667 O   0  0  0  0  0  0  0  0  0  0  0  0
    0.2201   -2.1774    2.4616 S   0  0  0  0  0  0  0  0  0  0  0  0
   -1.4469   -1.3233   -0.4631 S   0  0  0  0  0  0  0  0  0  0  0  0
  1  3  1  0
  1  4  1  0
  2  3  1  0
  2  5  1  0
  3  6  1  0
M  END
>  <DRUGBANK_ID>  (1) 
DB06782

>  <COMMON_NAME>  (1) 
Dimercaprol

>  <CAS_NUMBER>  (1) 
59-52-9

>  <UNII>  (1) 
0CPP32S55X

>  <SYNONYMS>  (1) 
1,2-dimercapto-3-propanol; 1,2-dithioglycerol; 2,3-dimercapto-1-propanol; 2,3-dimercaptol-1-propanol; 2,3-dimercaptopropanol; 2,3-dithiopropanol; 2,3-mercaptopropan-1-ol; 2,3-Mercaptopropanol; 3-hydroxy-1,2-propanedithiol; BAL; British anti-lewisite; British antilewisite; Dimercaprol; Dimercaprolum; Dimercaptopropanol; Dithioglycerine; Dithioglycerol; Sulfactin; α,β-dithioglycerol

$$$$
