
     RDKit          3D

  8  7  0  0  0  0  0  0  0  0999 V2000
    0.9422    0.0565    0.0978 C   0  0  0  0  0  0  0  0  0  0  0  0
    0.4533    0.2838    1.5018 C   0  0  0  0  0  0  0  0  0  0  0  0
   -0.2510    1.2459    1.7993 O   0  0  0  0  0  0  0  0  0  0  0  0
    0.7801   -0.6375    2.4550 N   0  0  0  0  0  0  0  0  0  0  0  0
    1.6528   -1.7930    2.3117 C   0  0  0  0  0  0  0  0  0  0  0  0
    2.9352   -1.6584    3.1281 C   0  0  0  0  0  0  0  0  0  0  0  0
    3.1746   -2.6817    3.9808 O   0  0  0  0  0  0  0  0  0  0  0  0
    3.7029   -0.7085    3.0359 O   0  0  0  0  0  0  0  0  0  0  0  0
  1  2  1  0
  2  3  2  0
  2  4  1  0
  4  5  1  0
  5  6  1  0
  6  7  1  0
  6  8  2  0
M  END
>  <DRUGBANK_ID>  (1) 
DB02713

>  <SECONDARY_ACCESSION_NUMBERS>  (1) 
EXPT00379

>  <COMMON_NAME>  (1) 
Acetylamino-Acetic Acid

>  <CAS_NUMBER>  (1) 
543-24-8

>  <UNII>  (1) 
U2UT4677KR

$$$$
