2EQ
     RDKit          3D

 32 35  0  0  0  0  0  0  0  0999 V2000
   -1.1365    1.1666    0.4349 C   0  0  0  0  0  0  0  0  0  0  0  0
    0.3435    1.2863    0.3473 C   0  0  0  0  0  0  0  0  0  0  0  0
    1.0296    0.1595    0.9440 O   0  0  0  0  0  0  0  0  0  0  0  0
    0.6194   -1.0849    0.3709 C   0  0  0  0  0  0  0  0  0  0  0  0
   -0.8984   -1.2220    0.3973 C   0  0  0  0  0  0  0  0  0  0  0  0
   -1.5764   -0.0754   -0.2356 N   0  0  0  0  0  0  0  0  0  0  0  0
   -1.6148   -0.0874   -1.7366 C   0  0  0  0  0  0  0  0  0  0  0  0
   -0.3922   -0.3303   -2.6524 C   0  0  0  0  0  0  0  0  0  0  0  0
    0.3519   -1.5202   -2.6296 C   0  0  0  0  0  0  0  0  0  0  0  0
    1.6908   -1.5251   -3.0812 C   0  0  0  0  0  0  0  0  0  0  0  0
    0.0559    0.6480   -3.5555 C   0  0  0  0  0  0  0  0  0  0  0  0
    1.2477    0.4820   -4.3048 C   0  0  0  0  0  0  0  0  0  0  0  0
    2.1701   -0.5037   -3.9141 C   0  0  0  0  0  0  0  0  0  0  0  0
    3.6455   -0.3254   -4.1682 C   0  0  0  0  0  0  0  0  0  0  0  0
    4.7278    0.6757   -3.9054 C   0  0  0  0  0  0  0  0  0  0  0  0
    4.8378    2.0318   -3.1933 C   0  0  0  0  0  0  0  0  0  0  0  0
    5.9104    2.6847   -3.1444 O   0  0  0  0  0  0  0  0  0  0  0  0
    3.7889    2.6386   -2.5399 N   0  0  0  0  0  0  0  0  0  0  0  0
    2.6321    1.9319   -2.2756 C   0  0  0  0  0  0  0  0  0  0  0  0
    2.6570    1.1336   -1.0454 C   0  0  0  0  0  0  0  0  0  0  0  0
    5.8735    0.1882   -4.4337 N   0  0  0  0  0  0  0  0  0  0  0  0
    5.6056   -1.0563   -4.9608 O   0  0  0  0  0  0  0  0  0  0  0  0
    4.3048   -1.3593   -4.7832 C   0  0  0  0  0  0  0  0  0  0  0  0
    3.7819   -2.6030   -5.3051 C   0  0  0  0  0  0  0  0  0  0  0  0
    2.6279   -2.5003   -6.1112 C   0  0  0  0  0  0  0  0  0  0  0  0
    1.9380   -3.6244   -6.5259 C   0  0  0  0  0  0  0  0  0  0  0  0
    0.5054   -3.4273   -7.4590 Cl  0  0  0  0  0  0  0  0  0  0  0  0
    2.4279   -4.8776   -6.1842 C   0  0  0  0  0  0  0  0  0  0  0  0
    1.7893   -6.0235   -6.5665 O   0  0  0  0  0  0  0  0  0  0  0  0
    3.5818   -5.0018   -5.4075 C   0  0  0  0  0  0  0  0  0  0  0  0
    4.2155   -3.8653   -4.9040 C   0  0  0  0  0  0  0  0  0  0  0  0
    5.1778   -4.0704   -3.9536 O   0  0  0  0  0  0  0  0  0  0  0  0
  1  2  1  0
  1  6  1  0
  2  3  1  0
  3  4  1  0
  4  5  1  0
  5  6  1  0
  6  7  1  0
  7  8  1  0
  8  9  2  0
  8 11  1  0
  9 10  1  0
 10 13  2  0
 11 12  2  0
 12 13  1  0
 13 14  1  0
 14 15  1  0
 14 23  2  0
 15 16  1  0
 15 21  2  0
 16 17  2  0
 16 18  1  0
 18 19  1  0
 19 20  1  0
 21 22  1  0
 22 23  1  0
 23 24  1  0
 24 25  2  0
 24 31  1  0
 25 26  1  0
 26 27  1  0
 26 28  2  0
 28 29  1  0
 28 30  1  0
 30 31  2  0
 31 32  1  0
M  END
>  <DRUGBANK_ID>  (1) 
DB06961

>  <COMMON_NAME>  (1) 
5-(5-chloro-2,4-dihydroxyphenyl)-N-ethyl-4-[4-(morpholin-4-ylmethyl)phenyl]isoxazole-3-carboxamide

$$$$
