
     RDKit          3D

 24 24  0  0  0  0  0  0  0  0999 V2000
    1.5325   -0.0760   -0.2098 C   0  0  0  0  0  0  0  0  0  0  0  0
    0.5957   -1.0855   -0.3187 C   0  0  0  0  0  0  0  0  0  0  0  0
    1.0939    1.3154   -0.1208 C   0  0  0  0  0  0  0  0  0  0  0  0
    2.8387   -0.2338    0.1845 O   0  0  0  0  0  0  0  0  0  0  0  0
   -0.6555   -0.4136    0.1890 C   0  0  0  0  0  0  0  0  0  0  0  0
    1.0769   -2.7714   -0.9779 C   0  0  0  0  0  0  0  0  0  0  0  0
   -0.2679    1.7397   -0.1041 C   0  0  0  0  0  0  0  0  0  0  0  0
    3.3196   -1.5440    0.4892 C   0  0  0  0  0  0  0  0  0  0  0  0
   -1.2268    0.7977   -0.1136 C   0  0  0  0  0  0  0  0  0  0  0  0
    0.7229   -4.6084   -0.8004 C   0  0  0  0  0  0  0  0  0  0  0  0
    2.0952   -2.7361   -1.6969 O   0  0  0  0  0  0  0  0  0  0  0  0
    2.6544   -2.3467    1.6884 C   0  0  0  0  0  0  0  0  0  0  0  0
   -2.6633    0.8802   -0.1510 N   0  0  0  0  0  0  0  0  0  0  0  0
    0.9959   -2.3972    1.9931 C   0  0  0  0  0  0  0  0  0  0  0  0
    3.1947   -3.6883    1.7249 O   0  0  0  0  0  0  0  0  0  0  0  0
   -3.2938    2.0914   -0.3959 C   0  0  0  0  0  0  0  0  0  0  0  0
    0.1980   -3.4069    1.2029 N   0  0  0  0  0  0  0  0  0  0  0  0
   -4.8277    2.0958   -0.4259 C   0  0  0  0  0  0  0  0  0  0  0  0
   -2.6952    3.1016   -0.5512 O   0  0  0  0  0  0  0  0  0  0  0  0
   -1.2261   -3.5535    0.2151 C   0  0  0  0  0  0  0  0  0  0  0  0
   -5.3557    2.8783    0.7826 C   0  0  0  0  0  0  0  0  0  0  0  0
   -1.8180   -2.3250   -0.3019 C   0  0  0  0  0  0  0  0  0  0  0  0
   -1.6310   -4.1302   -1.3794 C   0  0  0  0  0  0  0  0  0  0  0  0
   -4.7003    4.2498    0.9405 C   0  0  0  0  0  0  0  0  0  0  0  0
  1  2  2  0
  1  3  1  0
  1  4  1  0
  2  5  1  0
  2  6  1  0
  3  7  2  0
  4  8  1  0
  5  9  2  0
  6 10  1  0
  6 11  2  0
  7  9  1  0
  8 12  1  0
  9 13  1  0
 12 14  1  0
 12 15  1  0
 13 16  1  0
 14 17  1  0
 16 18  1  0
 16 19  2  0
 17 20  1  0
 18 21  1  0
 20 22  1  0
 20 23  1  0
 21 24  1  0
M  END
>  <DRUGBANK_ID>  (1) 
DB01193

>  <SECONDARY_ACCESSION_NUMBERS>  (1) 
APRD00772

>  <COMMON_NAME>  (1) 
Acebutolol

>  <CAS_NUMBER>  (1) 
37517-30-9

>  <UNII>  (1) 
67P356D8GH

>  <SYNONYMS>  (1) 
(Â±)-acebutolol; 3'-acetyl-4'-(2-hydroxy-3-(isopropylamino)propoxy)butyranilide; 5'-butyramido-2'-(2-hydroxy-3-isopropylaminopropoxy)acetophenone; Acebutolol; Acebutololum; Acetobutolol; N-(3-acetyl-4-[2-hydroxy-3-(isopropylamino)propoxy]phenyl)butanamide; N-[3-acetyl-4-[2-hydroxy-3-[(1-methylethyl)amino]propoxy]phenyl]butanamide

$$$$
