60714
     RDKit          3D

 29 28  0  0  1  0  0  0  0  0999 V2000
    0.9496   -0.0572   -0.0648 Gd  0  0  0  0  0 15  0  0  0  0  0  0
    0.9541    0.0720    0.0520 O   0  0  0  0  0  0  0  0  0  0  0  0
    3.3486    7.5271    2.0852 O   0  0  0  0  0  0  0  0  0  0  0  0
    2.2693    2.8410    0.9967 O   0  0  0  0  0  0  0  0  0  0  0  0
    1.9395    6.7790    0.3850 O   0  0  0  0  0  0  0  0  0  0  0  0
    4.2917    2.4744    2.0976 O   0  0  0  0  0  0  0  0  0  0  0  0
    8.8849    1.9698    3.0560 O   0  0  0  0  0  0  0  0  0  0  0  0
    7.7615    4.0129    3.0569 O   0  0  0  0  0  0  0  0  0  0  0  0
    2.4574    2.3167   -0.8001 N   0  0  0  0  0  0  0  0  0  0  0  0
    4.3555    0.0271    0.4815 N   0  0  0  0  0  0  0  0  0  0  0  0
    4.1930    5.0170   -0.2647 N   0  0  0  0  0  0  0  0  0  0  0  0
    6.0918    2.7273    1.0161 N   0  0  0  0  0  0  0  0  0  0  0  0
    2.9433    3.3960   -1.6719 C   0  0  0  0  0  0  0  0  0  0  0  0
    2.9423    1.0195   -1.2839 C   0  0  0  0  0  0  0  0  0  0  0  0
    4.3534    0.7222   -0.8134 C   0  0  0  0  0  0  0  0  0  0  0  0
    2.9829    4.7665   -1.0382 C   0  0  0  0  0  0  0  0  0  0  0  0
    5.5663    0.2775    1.2542 C   0  0  0  0  0  0  0  0  0  0  0  0
    4.1958    4.3218    1.0295 C   0  0  0  0  0  0  0  0  0  0  0  0
    5.6059    1.6481    1.8880 C   0  0  0  0  0  0  0  0  0  0  0  0
    5.6069    4.0245    1.4999 C   0  0  0  0  0  0  0  0  0  0  0  0
    0.9874    2.3167   -0.8001 C   0  0  0  0  0  0  0  0  0  0  0  0
    0.4807    0.8979   -1.0017 C   0  0  0  0  0  0  0  0  0  0  0  0
    3.1969    0.4842    1.2622 C   0  0  0  0  0  0  0  0  0  0  0  0
    4.3042    6.4625   -0.0216 C   0  0  0  0  0  0  0  0  0  0  0  0
    7.5618    2.7273    1.0161 C   0  0  0  0  0  0  0  0  0  0  0  0
    0.9874    0.3632   -2.3313 C   0  0  0  0  0  0  0  0  0  0  0  0
    3.1252    6.9272    0.8177 C   0  0  0  0  0  0  0  0  0  0  0  0
    3.2938    1.9852    1.4811 C   0  0  0  0  0  0  0  0  0  0  0  0
    8.0685    2.9498    2.4318 C   0  0  0  0  0  0  0  0  0  0  0  0
  2 22  1  0
  3 27  1  0
  4 28  1  0
  5 27  2  0
  6 28  2  0
  7 29  1  0
  8 29  2  0
  9 13  1  0
  9 14  1  0
  9 21  1  0
 10 15  1  0
 10 17  1  0
 10 23  1  0
 11 16  1  0
 11 18  1  0
 11 24  1  0
 12 19  1  0
 12 20  1  0
 12 25  1  0
 13 16  1  0
 14 15  1  0
 17 19  1  0
 18 20  1  0
 21 22  1  0
 22 26  1  0
 23 28  1  0
 24 27  1  0
 25 29  1  0
M  CHG  4   1   3   3  -1   4  -1   7  -1
M  END
>  <DRUGBANK_ID>  (1) 
DB00597

>  <SECONDARY_ACCESSION_NUMBERS>  (1) 
APRD00992

>  <COMMON_NAME>  (1) 
Gadoteridol

>  <CAS_NUMBER>  (1) 
120066-54-8

>  <UNII>  (1) 
0199MV609F

>  <SYNONYMS>  (1) 
gadolinium 2,2',2''-[10-(2-hydroxypropyl)-1,4,7,10-tetraazacyclododecane-1,4,7-triyl]triacetate; gadolinium-HP-DO3A; Gadoteridol; Gadoteridolum; GD-HP-DO 3A; Gd-HPDO3A

$$$$
