
     RDKit          3D

 12 13  0  0  0  0  0  0  0  0999 V2000
   -0.3460   -0.7368    1.1952 O   0  0  0  0  0  0  0  0  0  0  0  0
   -1.7600   -1.3328    1.1931 C   0  0  1  0  0  0  0  0  0  0  0  0
   -2.3780   -2.2417    2.2988 N   0  0  0  0  0  0  0  0  0  0  0  0
   -1.7166   -0.4945    2.4972 C   0  0  0  0  0  0  0  0  0  0  0  0
   -0.8227   -1.4137    3.4291 C   0  0  0  0  0  0  0  0  0  0  0  0
   -1.3348   -2.8373    3.1037 C   0  0  2  0  0  0  0  0  0  0  0  0
   -1.0263   -2.4312    0.1791 C   0  0  1  0  0  0  0  0  0  0  0  0
   -0.3115   -1.7260   -0.8899 O   0  0  0  0  0  0  0  0  0  0  0  0
   -0.0944   -3.4181    0.9982 C   0  0  2  0  0  0  0  0  0  0  0  0
    0.4012   -4.5686    0.3035 O   0  0  0  0  0  0  0  0  0  0  0  0
   -1.0575   -3.9184    2.0431 C   0  0  1  0  0  0  0  0  0  0  0  0
   -0.9001   -5.2313    2.5695 O   0  0  0  0  0  0  0  0  0  0  0  0
  2  3  1  0
  2  4  1  0
  2  7  1  0
  2  1  1  6
  5  4  1  0
  6  3  1  0
  6  5  1  6
  7  9  1  0
  7  8  1  6
  9 11  1  0
  9 10  1  6
 11  6  1  0
 11 12  1  1
M  END
>  <DRUGBANK_ID>  (1) 
DB04658

>  <COMMON_NAME>  (1) 
Calystegine B2

>  <CAS_NUMBER>  (1) 
127414-85-1

>  <UNII>  (1) 
7LZN33KW88

>  <SYNONYMS>  (1) 
Calystegine B(2)

$$$$
