
     RDKit          3D

 35 38  0  0  0  0  0  0  0  0999 V2000
   -0.8771    1.4537   -0.4206 C   0  0  2  0  0  0  0  0  0  0  0  0
    0.1054    0.5605    0.2243 C   0  0  1  0  0  0  0  0  0  0  0  0
   -2.4061    1.1936   -0.0510 C   0  0  1  0  0  0  0  0  0  0  0  0
   -0.8502    1.5211   -1.9448 C   0  0  0  0  0  0  0  0  0  0  0  0
   -0.1200   -0.8099   -0.2910 C   0  0  1  0  0  0  0  0  0  0  0  0
    1.5638    0.9071   -0.0140 C   0  0  0  0  0  0  0  0  0  0  0  0
   -2.7145    2.7175   -0.9242 C   0  0  2  0  0  0  0  0  0  0  0  0
   -2.6476   -0.3216   -0.6434 C   0  0  0  0  0  0  0  0  0  0  0  0
   -2.7329    1.0367    1.5786 C   0  0  0  0  0  0  0  0  0  0  0  0
   -2.1198    2.2282   -2.2626 C   0  0  0  0  0  0  0  0  0  0  0  0
    0.8341   -1.7273    0.3897 C   0  0  1  0  0  0  0  0  0  0  0  0
   -1.5751   -1.3116   -0.1565 C   0  0  2  0  0  0  0  0  0  0  0  0
    2.6418   -0.2017    0.6312 C   0  0  0  0  0  0  0  0  0  0  0  0
   -2.5148    3.6247    0.3025 C   0  0  0  0  0  0  0  0  0  0  0  0
    2.2129   -1.8499    0.7671 C   0  0  0  0  0  0  0  0  0  0  0  0
    0.7290   -1.3465    2.1563 C   0  0  0  0  0  0  0  0  0  0  0  0
    1.0597   -2.9015   -0.7336 C   0  0  0  0  0  0  0  0  0  0  0  0
   -1.9561   -1.5160    1.1760 O   0  0  0  0  0  0  0  0  0  0  0  0
   -1.9046    3.1821    1.2815 O   0  0  0  0  0  0  0  0  0  0  0  0
    2.0556   -3.1129    1.5220 C   0  0  0  0  0  0  0  0  0  0  0  0
   -0.0806   -2.3930    2.8250 C   0  0  0  0  0  0  0  0  0  0  0  0
    0.3721   -3.4704    1.8834 C   0  0  0  0  0  0  0  0  0  0  0  0
   -0.3540   -4.2698    1.3343 O   0  0  0  0  0  0  0  0  0  0  0  0
   -3.1909    4.9198    0.6490 C   0  0  0  0  0  0  0  0  0  0  0  0
   -2.4363    6.0687    0.3019 O   0  0  0  0  0  0  0  0  0  0  0  0
   -1.1572    6.3132    0.6693 C   0  0  0  0  0  0  0  0  0  0  0  0
   -0.2525    5.2792    1.2961 C   0  0  0  0  0  0  0  0  0  0  0  0
    0.8102    4.8183    0.3212 C   0  0  0  0  0  0  0  0  0  0  0  0
   -0.6756    7.4155    0.4099 O   0  0  0  0  0  0  0  0  0  0  0  0
   -3.6572    3.6411   -1.4746 O   0  0  0  0  0  0  0  0  0  0  0  0
   -4.8967    3.2777   -1.8434 C   0  0  0  0  0  0  0  0  0  0  0  0
   -5.0938    1.8644   -1.4028 C   0  0  0  0  0  0  0  0  0  0  0  0
   -5.5936    1.8175    0.0047 C   0  0  0  0  0  0  0  0  0  0  0  0
   -7.0510    2.0492   -0.1402 C   0  0  0  0  0  0  0  0  0  0  0  0
   -5.6959    4.0234   -2.3128 O   0  0  0  0  0  0  0  0  0  0  0  0
  1  2  1  0
  1  3  1  0
  1  4  1  6
  2  5  1  0
  2  6  1  6
  3  7  1  0
  3  8  1  0
  3  9  1  1
  4 10  1  0
  5 11  1  0
  5 12  1  1
  6 13  1  0
  7 10  1  0
  7 30  1  6
  7 14  1  0
  8 12  1  0
 11 15  1  0
 11 16  1  0
 11 17  1  1
 12 18  1  1
 13 15  1  0
 14 19  2  0
 14 24  1  0
 15 20  2  0
 16 21  1  0
 20 22  1  0
 21 22  1  0
 22 23  2  0
 24 25  1  0
 25 26  1  0
 26 27  1  0
 26 29  2  0
 27 28  1  0
 30 31  1  0
 31 32  1  0
 31 35  2  0
 32 33  1  0
 33 34  1  0
M  END
>  <DRUGBANK_ID>  (1) 
DB14543

>  <SECONDARY_ACCESSION_NUMBERS>  (1) 
DBSALT000783

>  <COMMON_NAME>  (1) 
Hydrocortisone probutate

>  <CAS_NUMBER>  (1) 
72590-77-3

>  <UNII>  (1) 
O6550D6K3A

>  <SYNONYMS>  (1) 
Hydrocortisone buteprate; Hydrocortisone butyrate propionate; Hydrocortisone probutate

$$$$
