
     RDKit          3D

 28 31  0  0  0  0  0  0  0  0999 V2000
    1.0192    0.0028   -0.0115 C   0  0  0  0  0  0  0  0  0  0  0  0
    0.5834    1.3442    0.5097 C   0  0  0  0  0  0  0  0  0  0  0  0
    1.1560    2.5157    0.0097 C   0  0  0  0  0  0  0  0  0  0  0  0
    0.7759    3.7816    0.5185 C   0  0  0  0  0  0  0  0  0  0  0  0
    1.4444    4.9980   -0.0411 C   0  0  0  0  0  0  0  0  0  0  0  0
   -0.1909    3.8179    1.5215 C   0  0  0  0  0  0  0  0  0  0  0  0
   -0.8520    4.9276    2.3230 C   0  0  0  0  0  0  0  0  0  0  0  0
   -1.8225    4.2089    3.2098 N   0  0  0  0  0  0  0  0  0  0  0  0
   -1.7458    2.7777    2.9844 C   0  0  0  0  0  0  0  0  0  0  0  0
   -0.7010    2.5931    1.9351 C   0  0  0  0  0  0  0  0  0  0  0  0
   -0.3636    1.3701    1.4681 N   0  0  0  0  0  0  0  0  0  0  0  0
   -2.6941    4.7827    4.1245 C   0  0  0  0  0  0  0  0  0  0  0  0
   -2.7269    6.0056    4.3173 O   0  0  0  0  0  0  0  0  0  0  0  0
   -3.6325    3.8526    4.9496 C   0  0  0  0  0  0  0  0  0  0  0  0
   -4.6472    3.0557    4.1232 C   0  0  0  0  0  0  0  0  0  0  0  0
   -6.1821    3.1256    4.3222 C   0  0  0  0  0  0  0  0  0  0  0  0
   -6.1899    1.7174    4.0677 N   0  0  0  0  0  0  0  0  0  0  0  0
   -4.8297    1.5445    4.4604 C   0  0  0  0  0  0  0  0  0  0  0  0
   -7.1572    0.8227    3.5895 C   0  0  0  0  0  0  0  0  0  0  0  0
   -7.8267    1.0375    2.3829 C   0  0  0  0  0  0  0  0  0  0  0  0
   -8.7477    0.0959    1.9373 C   0  0  0  0  0  0  0  0  0  0  0  0
   -9.0704   -1.0210    2.6193 N   0  0  0  0  0  0  0  0  0  0  0  0
   -8.4340   -1.2308    3.8045 C   0  0  0  0  0  0  0  0  0  0  0  0
   -7.4690   -0.3401    4.2972 C   0  0  0  0  0  0  0  0  0  0  0  0
   -8.7787   -2.4628    4.6301 C   0  0  0  0  0  0  0  0  0  0  0  0
   -7.6884   -3.2517    4.8642 F   0  0  0  0  0  0  0  0  0  0  0  0
   -9.2653   -2.1420    5.8659 F   0  0  0  0  0  0  0  0  0  0  0  0
   -9.7129   -3.2831    4.0691 F   0  0  0  0  0  0  0  0  0  0  0  0
  1  2  1  0
  2  3  2  0
  2 11  1  0
  3  4  1  0
  4  5  1  0
  4  6  2  0
  6  7  1  0
  6 10  1  0
  7  8  1  0
  8  9  1  0
  8 12  1  0
  9 10  1  0
 10 11  2  0
 12 13  2  0
 12 14  1  0
 14 15  1  0
 15 16  1  0
 15 18  1  0
 16 17  1  0
 17 18  1  0
 17 19  1  0
 19 20  2  0
 19 24  1  0
 20 21  1  0
 21 22  2  0
 22 23  1  0
 23 24  2  0
 23 25  1  0
 25 26  1  0
 25 27  1  0
 25 28  1  0
M  END
>  <DRUGBANK_ID>  (1) 
DB18706

>  <COMMON_NAME>  (1) 
Emraclidine

>  <CAS_NUMBER>  (1) 
2170722-84-4

>  <UNII>  (1) 
J241Y80EEO

>  <SYNONYMS>  (1) 
CVL-231; Emraclidine; Ethanone, 1-(5,7-dihydro-2,4-dimethyl-6h-pyrrolo(3,4-b)pyridin-6-yl)-2-(1-(2-(trifluoromethyl)-4-pyridinyl)-3-azetidinyl)-

$$$$
