W02
     RDKit          3D

 24 26  0  0  0  0  0  0  0  0999 V2000
   -0.9390    0.7442    0.2323 O   0  0  0  0  0  0  0  0  0  0  0  0
    0.3419    1.1969   -0.0337 N   0  0  0  0  0  0  0  0  0  0  0  0
    1.0894    0.0896   -0.0172 C   0  0  0  0  0  0  0  0  0  0  0  0
    2.5410    0.1300   -0.0435 C   0  0  0  0  0  0  0  0  0  0  0  0
    0.3630   -1.0778    0.1321 C   0  0  0  0  0  0  0  0  0  0  0  0
   -0.8712   -0.5799    0.4814 C   0  0  0  0  0  0  0  0  0  0  0  0
   -2.0531   -1.3634    0.5927 C   0  0  0  0  0  0  0  0  0  0  0  0
   -3.2016   -1.0316    1.5091 C   0  0  0  0  0  0  0  0  0  0  0  0
   -3.8517    0.2900    1.0968 C   0  0  0  0  0  0  0  0  0  0  0  0
   -4.6995    0.2255   -0.1059 O   0  0  0  0  0  0  0  0  0  0  0  0
   -4.1418    0.0678   -1.3673 C   0  0  0  0  0  0  0  0  0  0  0  0
   -3.7228   -1.1988   -1.8599 C   0  0  0  0  0  0  0  0  0  0  0  0
   -3.9475   -2.5472   -1.1469 C   0  0  0  0  0  0  0  0  0  0  0  0
   -2.9106   -1.2168   -3.0461 C   0  0  0  0  0  0  0  0  0  0  0  0
   -2.7193   -0.0980   -3.8961 C   0  0  0  0  0  0  0  0  0  0  0  0
   -3.3611    1.0851   -3.5158 C   0  0  0  0  0  0  0  0  0  0  0  0
   -4.0726    1.1795   -2.2614 C   0  0  0  0  0  0  0  0  0  0  0  0
   -4.8106    2.4689   -1.9612 C   0  0  0  0  0  0  0  0  0  0  0  0
   -2.0615   -0.2829   -5.1824 N   0  0  0  0  0  0  0  0  0  0  0  0
   -2.2825   -1.4370   -5.8713 N   0  0  0  0  0  0  0  0  0  0  0  0
   -1.2479    0.6001   -5.8925 N   0  0  0  0  0  0  0  0  0  0  0  0
   -0.9781   -0.1352   -7.0048 C   0  0  0  0  0  0  0  0  0  0  0  0
   -0.0670    0.1875   -8.1592 C   0  0  0  0  0  0  0  0  0  0  0  0
   -1.6523   -1.3219   -7.0275 N   0  0  0  0  0  0  0  0  0  0  0  0
  1  2  1  0
  1  6  1  0
  2  3  2  0
  3  4  1  0
  3  5  1  0
  5  6  2  0
  6  7  1  0
  7  8  1  0
  8  9  1  0
  9 10  1  0
 10 11  1  0
 11 12  2  0
 11 17  1  0
 12 13  1  0
 12 14  1  0
 14 15  2  0
 15 16  1  0
 15 19  1  0
 16 17  2  0
 17 18  1  0
 19 20  1  0
 19 21  1  0
 20 24  2  0
 21 22  2  0
 22 23  1  0
 22 24  1  0
M  END
>  <DRUGBANK_ID>  (1) 
DB08714

>  <COMMON_NAME>  (1) 
2,6-DIMETHYL-1-(3-[3-METHYL-5-ISOXAZOLYL]-PROPANYL)-4-[4-METHYL-2H-TETRAZOL-2-YL]-PHENOL

>  <UNII>  (1) 
A5HE3QC9H5

$$$$
