
     RDKit          3D

 20 22  0  0  0  0  0  0  0  0999 V2000
    0.7298   -0.0677    0.0036 C   0  0  0  0  0  0  0  0  0  0  0  0
    3.3818    0.9648    1.8652 C   0  0  0  0  0  0  0  0  0  0  0  0
    3.3217    0.3113    3.0986 C   0  0  0  0  0  0  0  0  0  0  0  0
    2.9695    2.9658    0.3864 C   0  0  0  0  0  0  0  0  0  0  0  0
    1.2435    2.4915    5.1976 C   0  0  0  0  0  0  0  0  0  0  0  0
    0.1920   -0.9556    1.1306 C   0  0  0  0  0  0  0  0  0  0  0  0
    0.3211    1.4013    0.0810 C   0  0  0  0  0  0  0  0  0  0  0  0
    2.3802    2.2805   -0.8593 C   0  0  0  0  0  0  0  0  0  0  0  0
    1.1960    1.4733    6.1073 C   0  0  0  0  0  0  0  0  0  0  0  0
    2.2055    2.8491    2.8064 C   0  0  0  0  0  0  0  0  0  0  0  0
    0.8008   -1.6049    3.4016 C   0  0  0  0  0  0  0  0  0  0  0  0
   -0.4930    0.0571    3.2489 C   0  0  0  0  0  0  0  0  0  0  0  0
    2.8649    2.2500    1.7141 C   0  0  0  0  0  0  0  0  0  0  0  0
    2.0645    2.1878    4.0490 C   0  0  0  0  0  0  0  0  0  0  0  0
   -0.5030   -1.2185    4.1138 C   0  0  0  0  0  0  0  0  0  0  0  0
    2.6820    0.9370    4.1962 C   0  0  0  0  0  0  0  0  0  0  0  0
    0.6128   -0.4944    2.4475 N   0  0  0  0  0  0  0  0  0  0  0  0
   -1.5936   -2.1285    3.8804 O   0  0  0  0  0  0  0  0  0  0  0  0
    0.9522    2.2131   -0.9141 O   0  0  0  0  0  0  0  0  0  0  0  0
    2.4202    0.3209    5.7976 S   0  0  0  0  0  0  0  0  0  0  0  0
  3  2  2  0
  6  1  1  0
  7  1  1  0
  8  4  1  0
  9  5  2  0
 13  2  1  0
 13  4  1  0
 13 10  2  0
 14  5  1  0
 14 10  1  0
 15 11  1  0
 15 12  1  0
 16  3  1  0
 16 14  2  0
 17  6  1  0
 17 11  1  0
 17 12  1  0
 18 15  1  0
 19  7  1  0
 19  8  1  0
 20  9  1  0
 20 16  1  0
M  END
>  <DRUGBANK_ID>  (1) 
DB05938

>  <COMMON_NAME>  (1) 
Edonerpic

>  <CAS_NUMBER>  (1) 
519187-23-6

>  <UNII>  (1) 
QY49O94S2W

>  <SYNONYMS>  (1) 
Edonerpic

$$$$
