
     RDKit          3D

 26 26  0  0  0  0  0  0  0  0999 V2000
   -0.7821    1.1104    0.0323 C   0  0  0  0  0  0  0  0  0  0  0  0
    0.5990    1.1330   -0.1052 C   0  0  0  0  0  0  0  0  0  0  0  0
    1.3155   -0.0156   -0.2064 N   0  0  0  0  0  0  0  0  0  0  0  0
    0.6981   -1.2030   -0.0398 C   0  0  0  0  0  0  0  0  0  0  0  0
   -0.6859   -1.2779   -0.0328 C   0  0  0  0  0  0  0  0  0  0  0  0
   -1.4343   -0.1090   -0.0243 C   0  0  0  0  0  0  0  0  0  0  0  0
    2.7797   -0.0207   -0.4904 C   0  0  0  0  0  0  0  0  0  0  0  0
    3.1090    0.6558   -1.8554 C   0  0  0  0  0  0  0  0  0  0  0  0
    4.0460    1.6599   -1.9825 N   0  0  0  0  0  0  0  0  0  0  0  0
    4.2471    2.5850   -3.1113 C   0  0  0  0  0  0  0  0  0  0  0  0
    3.6474    4.0002   -2.9118 C   0  0  0  0  0  0  0  0  0  0  0  0
    4.2961    4.7700   -1.8630 O   0  0  0  0  0  0  0  0  0  0  0  0
    4.0501    4.7081   -0.5327 C   0  0  0  0  0  0  0  0  0  0  0  0
    3.3252    3.5016   -0.0346 C   0  0  0  0  0  0  0  0  0  0  0  0
    4.3337    2.6109    0.7206 C   0  0  0  0  0  0  0  0  0  0  0  0
    4.7434    3.1148    2.0623 C   0  0  0  0  0  0  0  0  0  0  0  0
    3.4683    3.3177    2.8683 C   0  0  0  0  0  0  0  0  0  0  0  0
    2.6969    1.9932    3.0755 C   0  0  0  0  0  0  0  0  0  0  0  0
    3.5868    0.9668    3.7807 C   0  0  0  0  0  0  0  0  0  0  0  0
    4.0820    1.5709    5.0956 C   0  0  0  0  0  0  0  0  0  0  0  0
    2.8858    1.9336    5.9852 C   0  0  0  0  0  0  0  0  0  0  0  0
    2.0774    0.6807    6.3371 C   0  0  0  0  0  0  0  0  0  0  0  0
    2.9459   -0.3456    7.0643 C   0  0  0  0  0  0  0  0  0  0  0  0
    3.4930    0.2466    8.3529 C   0  0  0  0  0  0  0  0  0  0  0  0
    2.4674    0.2964   -2.8420 O   0  0  0  0  0  0  0  0  0  0  0  0
    4.4927    5.5171    0.2465 O   0  0  0  0  0  0  0  0  0  0  0  0
  1  2  2  0
  2  3  1  0
  3  7  1  0
  3  4  2  0
  4  5  1  0
  5  6  2  0
  6  1  1  0
  7  8  1  0
  8  9  1  0
  8 25  2  0
  9 10  1  0
 10 11  1  0
 11 12  1  0
 12 13  1  0
 13 14  1  0
 13 26  2  0
 14 15  1  0
 15 16  1  0
 16 17  1  0
 17 18  1  0
 18 19  1  0
 19 20  1  0
 20 21  1  0
 21 22  1  0
 22 23  1  0
 23 24  1  0
M  CHG  1   3   1
M  END
>  <DRUGBANK_ID>  (1) 
DB09376

>  <COMMON_NAME>  (1) 
Lapyrium

>  <CAS_NUMBER>  (1) 
109260-82-4

>  <UNII>  (1) 
5172AI8LRR

$$$$
