
     RDKit          3D

 23 26  0  0  1  0  0  0  0  0999 V2000
   -1.1468   -1.8216    1.7318 C   0  0  0  0  0  0  0  0  0  0  0  0
   -1.1816   -3.1612    1.0474 C   0  0  0  0  0  0  0  0  0  0  0  0
   -2.5155   -2.3324    2.9027 C   0  0  0  0  0  0  0  0  0  0  0  0
   -2.2954   -3.8283    0.7130 C   0  0  0  0  0  0  0  0  0  0  0  0
   -3.6949   -3.4432    2.5247 C   0  0  0  0  0  0  0  0  0  0  0  0
   -3.5060   -3.1058    1.1212 C   0  0  0  0  0  0  0  0  0  0  0  0
    1.3282   -1.4491    0.7360 C   0  0  2  0  0  0  0  0  0  0  0  0
    1.2533   -3.0147    0.7433 C   0  0  0  0  0  0  0  0  0  0  0  0
   -0.2903   -0.9983    0.8405 C   0  0  0  0  0  0  0  0  0  0  0  0
   -0.0397   -3.7093    0.3324 C   0  0  0  0  0  0  0  0  0  0  0  0
    2.1405   -0.3692   -1.7920 C   0  0  2  0  0  0  0  0  0  0  0  0
    2.5480   -0.8051   -0.4164 C   0  0  2  0  0  0  0  0  0  0  0  0
    0.7865    0.5488   -1.0460 C   0  0  0  0  0  0  0  0  0  0  0  0
   -0.1714    0.2894   -0.0305 C   0  0  0  0  0  0  0  0  0  0  0  0
    2.6001   -2.0765   -2.6663 C   0  0  2  0  0  0  0  0  0  0  0  0
    3.7619   -2.5304   -1.4559 C   0  0  0  0  0  0  0  0  0  0  0  0
    4.0107   -1.2603   -0.7167 C   0  0  0  0  0  0  0  0  0  0  0  0
    2.8391    0.7693   -2.6722 C   0  0  0  0  0  0  0  0  0  0  0  0
   -3.9386   -2.1099    0.6418 O   0  0  0  0  0  0  0  0  0  0  0  0
    1.1371   -2.4334   -3.2015 C   0  0  0  0  0  0  0  0  0  0  0  0
    2.5772   -3.6389   -2.4493 O   0  0  0  0  0  0  0  0  0  0  0  0
    1.9763    0.8749   -3.9312 C   0  0  0  0  0  0  0  0  0  0  0  0
    0.1868   -2.0745   -2.1586 C   0  0  0  0  0  0  0  0  0  0  0  0
  1  9  2  0
  2 10  1  0
  2  1  1  0
  3  1  1  0
  4  2  2  0
  5  3  1  0
  6  4  1  0
  6  5  1  0
  6 19  2  0
  7 12  1  0
  7  8  1  6
  9  7  1  0
  9 14  1  0
 10  8  1  0
 11 18  1  6
 12 11  1  0
 13 11  1  0
 14 13  2  0
 15 11  1  0
 15 21  1  1
 15 20  1  0
 16 15  1  0
 12 17  1  1
 17 16  1  0
 18 22  1  0
 20 23  1  0
M  END
>  <DRUGBANK_ID>  (1) 
DB06870

>  <COMMON_NAME>  (1) 
Tetrahydrogestrinone

>  <CAS_NUMBER>  (1) 
618903-56-3

>  <UNII>  (1) 
643MR6L9LB

$$$$
