
     RDKit          3D

 26 29  0  0  0  0  0  0  0  0999 V2000
    1.0518    0.0582   -0.0740 C   0  0  0  0  0  0  0  0  0  0  0  0
    0.6882   -0.6997   -1.2221 O   0  0  0  0  0  0  0  0  0  0  0  0
    1.0962   -0.1462   -2.4105 C   0  0  0  0  0  0  0  0  0  0  0  0
    0.0858    0.0156   -3.3499 C   0  0  0  0  0  0  0  0  0  0  0  0
    0.2833    0.4611   -4.6710 C   0  0  0  0  0  0  0  0  0  0  0  0
    1.5909    0.8139   -5.0152 C   0  0  0  0  0  0  0  0  0  0  0  0
    2.6274    0.6555   -4.0588 C   0  0  0  0  0  0  0  0  0  0  0  0
    2.4005    0.1477   -2.7650 C   0  0  0  0  0  0  0  0  0  0  0  0
    3.3334   -0.1261   -1.8056 O   0  0  0  0  0  0  0  0  0  0  0  0
    4.6661    0.2835   -2.0307 C   0  0  0  0  0  0  0  0  0  0  0  0
    3.9198    0.9087   -4.4291 O   0  0  0  0  0  0  0  0  0  0  0  0
    4.1300    1.9792   -5.3524 C   0  0  0  0  0  0  0  0  0  0  0  0
    3.1285    1.9511   -6.4653 C   0  0  0  0  0  0  0  0  0  0  0  0
    1.9437    1.3362   -6.3338 C   0  0  0  0  0  0  0  0  0  0  0  0
    5.5715    1.8269   -5.7781 C   0  0  0  0  0  0  0  0  0  0  0  0
    6.2411    2.7939   -6.7177 C   0  0  0  0  0  0  0  0  0  0  0  0
    5.9376    1.3921   -7.1791 C   0  0  0  0  0  0  0  0  0  0  0  0
   -0.8926    0.5599   -5.6338 C   0  0  0  0  0  0  0  0  0  0  0  0
   -1.5154   -0.7495   -6.0391 C   0  0  0  0  0  0  0  0  0  0  0  0
   -1.4184   -1.2187   -7.3355 C   0  0  0  0  0  0  0  0  0  0  0  0
   -1.9121   -2.4008   -7.7470 N   0  0  0  0  0  0  0  0  0  0  0  0
   -2.4985   -3.1467   -6.8102 C   0  0  0  0  0  0  0  0  0  0  0  0
   -2.6685   -2.7842   -5.5412 N   0  0  0  0  0  0  0  0  0  0  0  0
   -2.2229   -1.5771   -5.1851 C   0  0  0  0  0  0  0  0  0  0  0  0
   -2.4734   -1.2390   -3.8733 N   0  0  0  0  0  0  0  0  0  0  0  0
   -3.0026   -4.3600   -7.1702 N   0  0  0  0  0  0  0  0  0  0  0  0
  1  2  1  0
  2  3  1  0
  3  4  2  0
  3  8  1  0
  4  5  1  0
  5  6  2  0
  5 18  1  0
  6  7  1  0
  6 14  1  0
  7  8  2  0
  7 11  1  0
  8  9  1  0
  9 10  1  0
 11 12  1  0
 12 13  1  0
 12 15  1  0
 13 14  2  0
 15 16  1  0
 15 17  1  0
 16 17  1  0
 18 19  1  0
 19 20  2  0
 19 24  1  0
 20 21  1  0
 21 22  2  0
 22 23  1  0
 22 26  1  0
 23 24  2  0
 24 25  1  0
M  END
>  <DRUGBANK_ID>  (1) 
DB06358

>  <COMMON_NAME>  (1) 
Iclaprim

>  <CAS_NUMBER>  (1) 
192314-93-5

>  <UNII>  (1) 
42445HUU0O

>  <SYNONYMS>  (1) 
Iclaprim

$$$$
