
     RDKit          3D

 29 31  0  0  0  0  0  0  0  0999 V2000
    8.5704    0.3648    1.6954 C   0  0  0  0  0  0  0  0  0  0  0  0
    7.2104    0.6343    1.5342 C   0  0  0  0  0  0  0  0  0  0  0  0
    6.2879    0.1171    2.4488 C   0  0  0  0  0  0  0  0  0  0  0  0
    6.7087   -0.6513    3.5263 C   0  0  0  0  0  0  0  0  0  0  0  0
    8.0625   -0.8961    3.6983 C   0  0  0  0  0  0  0  0  0  0  0  0
    8.9931   -0.4001    2.7839 C   0  0  0  0  0  0  0  0  0  0  0  0
    8.5764   -1.8229    5.0478 Cl  0  0  0  0  0  0  0  0  0  0  0  0
    6.7545    1.5979    0.0900 S   0  0  0  0  0  0  0  0  0  0  0  0
    7.3490    2.8874    0.3647 O   0  0  0  0  0  0  0  0  0  0  0  0
    7.2435    0.8599   -1.0693 O   0  0  0  0  0  0  0  0  0  0  0  0
    4.8559    1.6656   -0.0227 C   0  0  1  0  0  0  0  0  0  0  0  0
    4.1973    2.3370    1.1926 C   0  0  0  0  0  0  0  0  0  0  0  0
    4.6157    3.7470    1.3276 C   0  0  0  0  0  0  0  0  0  0  0  0
    4.4638    4.6889    0.1772 C   0  0  2  0  0  0  0  0  0  0  0  0
    4.9986    4.0379   -1.1058 C   0  0  0  0  0  0  0  0  0  0  0  0
    4.5308    2.5672   -1.2573 C   0  0  0  0  0  0  0  0  0  0  0  0
    5.2121    5.9955    0.5654 C   0  0  0  0  0  0  0  0  0  0  0  0
    5.2831    6.3284    2.0924 C   0  0  0  0  0  0  0  0  0  0  0  0
    6.2418    5.5144    2.9964 C   0  0  0  0  0  0  0  0  0  0  0  0
    7.4072    5.7647    3.1949 O   0  0  0  0  0  0  0  0  0  0  0  0
    5.7057    4.3908    3.5415 O   0  0  0  0  0  0  0  0  0  0  0  0
    4.3063    0.2207   -0.1324 C   0  0  0  0  0  0  0  0  0  0  0  0
    2.9238   -0.0290   -0.0893 C   0  0  0  0  0  0  0  0  0  0  0  0
    2.4049   -1.3260   -0.0219 C   0  0  0  0  0  0  0  0  0  0  0  0
    3.2571   -2.4255    0.0169 C   0  0  0  0  0  0  0  0  0  0  0  0
    4.6150   -2.2131   -0.0265 C   0  0  0  0  0  0  0  0  0  0  0  0
    5.1216   -0.9297   -0.1370 C   0  0  0  0  0  0  0  0  0  0  0  0
    5.4744   -3.2342    0.0683 F   0  0  0  0  0  0  0  0  0  0  0  0
    2.0449    0.9829   -0.0759 F   0  0  0  0  0  0  0  0  0  0  0  0
  1  2  2  0
  1  6  1  0
  2  3  1  0
  2  8  1  0
  3  4  2  0
  4  5  1  0
  5  6  2  0
  5  7  1  0
  8  9  2  0
  8 10  2  0
 11 12  1  0
 11 16  1  0
 11 22  1  0
 11  8  1  1
 12 13  1  0
 13 14  1  0
 14 15  1  0
 14 17  1  1
 15 16  1  0
 17 18  1  0
 18 19  1  0
 19 20  2  0
 19 21  1  0
 22 23  2  0
 22 27  1  0
 23 24  1  0
 23 29  1  0
 24 25  2  0
 25 26  1  0
 26 27  2  0
 26 28  1  0
M  END
>  <DRUGBANK_ID>  (1) 
DB12852

>  <COMMON_NAME>  (1) 
MK-0752

>  <CAS_NUMBER>  (1) 
471905-41-6

>  <UNII>  (1) 
9JD9B4S53T

$$$$
