
     RDKit          3D

 27 28  0  0  0  0  0  0  0  0999 V2000
    0.8593   -1.1985    0.5225 C   0  0  0  0  0  0  0  0  0  0  0  0
   -0.4089   -1.2848    0.1302 N   0  0  0  0  0  0  0  0  0  0  0  0
   -1.0647   -0.1089    0.0626 C   0  0  0  0  0  0  0  0  0  0  0  0
   -0.5634    1.1028    0.1853 N   0  0  0  0  0  0  0  0  0  0  0  0
    0.6795    1.0848    0.5354 C   0  0  0  0  0  0  0  0  0  0  0  0
    1.3383   -0.0206    0.9716 N   0  0  0  0  0  0  0  0  0  0  0  0
    3.6720    0.1945   -0.3530 S   0  0  0  0  0  0  0  0  0  0  0  0
    3.9684   -1.2775    0.2750 N   0  0  0  0  0  0  0  0  0  0  0  0
    4.8070    0.5455   -1.2026 O   0  0  0  0  0  0  0  0  0  0  0  0
    2.4187    0.0802   -1.0637 O   0  0  0  0  0  0  0  0  0  0  0  0
    3.1239   -2.3939    0.2511 C   0  0  0  0  0  0  0  0  0  0  0  0
    1.7170   -2.3629    0.3173 N   0  0  0  0  0  0  0  0  0  0  0  0
    1.2667    2.3293    0.4184 O   0  0  0  0  0  0  0  0  0  0  0  0
    2.1025    2.6460   -0.6979 C   0  0  0  0  0  0  0  0  0  0  0  0
    3.7405   -3.4625    0.1868 O   0  0  0  0  0  0  0  0  0  0  0  0
   -2.5392   -0.0789   -0.0049 C   0  0  0  0  0  0  0  0  0  0  0  0
    4.5184    3.6524    0.2698 C   0  0  0  0  0  0  0  0  0  0  0  0
    4.0086    4.9042    0.0406 O   0  0  0  0  0  0  0  0  0  0  0  0
    3.7670    5.8439    1.0758 C   0  0  0  0  0  0  0  0  0  0  0  0
    5.1545    3.1442   -0.6456 O   0  0  0  0  0  0  0  0  0  0  0  0
    3.8129    1.3304    1.4318 C   0  0  0  0  0  0  0  0  0  0  0  0
    4.0341    2.7809    1.4697 C   0  0  0  0  0  0  0  0  0  0  0  0
    3.7377    3.4483    2.6936 C   0  0  0  0  0  0  0  0  0  0  0  0
    3.4875    2.8066    3.8929 C   0  0  0  0  0  0  0  0  0  0  0  0
    3.4030    1.4291    3.8951 C   0  0  0  0  0  0  0  0  0  0  0  0
    3.5488    0.6762    2.6880 C   0  0  0  0  0  0  0  0  0  0  0  0
    1.0299   -3.6477    0.1148 C   0  0  0  0  0  0  0  0  0  0  0  0
  1  2  2  0
  2  3  1  0
  3 16  1  0
  3  4  2  0
  4  5  1  0
  5 13  1  0
  5  6  2  0
  6  1  1  0
  7  8  1  0
  7  9  2  0
  7 10  2  0
  8 11  1  0
 11 15  2  0
 11 12  1  0
 12  1  1  0
 12 27  1  0
 13 14  1  0
 17 18  1  0
 17 20  2  0
 18 19  1  0
 21  7  1  0
 21 22  2  0
 22 17  1  0
 22 23  1  0
 23 24  2  0
 24 25  1  0
 25 26  2  0
 26 21  1  0
M  END
>  <DRUGBANK_ID>  (1) 
DB03656

>  <SECONDARY_ACCESSION_NUMBERS>  (1) 
EXPT00085

>  <COMMON_NAME>  (1) 
Tribenuron Methyl

>  <CAS_NUMBER>  (1) 
101200-48-0

>  <UNII>  (1) 
D0493A985P

>  <SYNONYMS>  (1) 
Sulfmethmeton-methyl; Tribenuron methyl ester; Tribenuron-methyl

$$$$
