
     RDKit          3D

 36 39  0  0  0  0  0  0  0  0999 V2000
   -1.3348    1.3579    0.0712 C   0  0  0  0  0  0  0  0  0  0  0  0
   -1.7377    0.0362    0.0505 C   0  0  0  0  0  0  0  0  0  0  0  0
   -0.7636   -0.9598   -0.0061 C   0  0  0  0  0  0  0  0  0  0  0  0
    0.6008   -0.5057   -0.1132 C   0  0  0  0  0  0  0  0  0  0  0  0
    0.9234    0.8616   -0.0081 C   0  0  0  0  0  0  0  0  0  0  0  0
   -0.0453    1.7787    0.0932 N   0  0  0  0  0  0  0  0  0  0  0  0
    1.6603   -1.3168   -0.5097 C   0  0  0  0  0  0  0  0  0  0  0  0
    2.9320   -0.8213   -0.8694 C   0  0  0  0  0  0  0  0  0  0  0  0
    3.3175    0.3903   -0.3609 C   0  0  0  0  0  0  0  0  0  0  0  0
    2.2765    1.2642   -0.0419 C   0  0  0  0  0  0  0  0  0  0  0  0
   -1.1846   -2.3165   -0.0963 N   0  0  0  0  0  0  0  0  0  0  0  0
    4.6088    0.7600   -0.0852 O   0  0  0  0  0  0  0  0  0  0  0  0
    5.6396   -0.2544    0.0354 C   0  0  0  0  0  0  0  0  0  0  0  0
   -0.4685   -3.5168   -0.1094 C   0  0  0  0  0  0  0  0  0  0  0  0
   -0.4147   -4.3320   -1.2499 C   0  0  0  0  0  0  0  0  0  0  0  0
    0.3908   -5.4524   -1.2942 C   0  0  0  0  0  0  0  0  0  0  0  0
    0.9027   -5.9554   -0.0909 C   0  0  0  0  0  0  0  0  0  0  0  0
    0.8335   -5.1370    1.1221 C   0  0  0  0  0  0  0  0  0  0  0  0
    0.1894   -3.9043    1.0388 C   0  0  0  0  0  0  0  0  0  0  0  0
    1.5785   -7.5759   -0.4533 Cl  0  0  0  0  0  0  0  0  0  0  0  0
    5.7041   -1.0408    1.3704 C   0  0  0  0  0  0  0  0  0  0  0  0
    4.4911   -1.8927    1.7527 C   0  0  0  0  0  0  0  0  0  0  0  0
    4.7109   -3.2881    1.2747 N   0  0  0  0  0  0  0  0  0  0  0  0
    5.5842   -4.1054    2.1466 C   0  0  0  0  0  0  0  0  0  0  0  0
    5.8266   -5.6470    1.7278 C   0  0  0  0  0  0  0  0  0  0  0  0
    4.6969   -6.5824    1.5179 N   0  0  0  0  0  0  0  0  0  0  0  0
    3.8480   -5.6491    0.5375 C   0  0  0  0  0  0  0  0  0  0  0  0
    3.4836   -4.0187    0.9812 C   0  0  0  0  0  0  0  0  0  0  0  0
    3.8245   -1.5282   -1.6769 O   0  0  0  0  0  0  0  0  0  0  0  0
    3.8656   -2.8814   -1.3262 C   0  0  0  0  0  0  0  0  0  0  0  0
   -1.3860   -3.9905   -2.6276 Cl  0  0  0  0  0  0  0  0  0  0  0  0
    1.3172   -5.0601    2.4229 O   0  0  0  0  0  0  0  0  0  0  0  0
    2.5589   -5.4840    2.8073 C   0  0  0  0  0  0  0  0  0  0  0  0
   -3.1630   -0.2686    0.0166 C   0  0  0  0  0  0  0  0  0  0  0  0
   -4.2550   -0.5458   -0.0156 N   0  0  0  0  0  0  0  0  0  0  0  0
    4.1610   -7.3051    2.9369 C   0  0  0  0  0  0  0  0  0  0  0  0
  1  2  2  0
  1  6  1  0
  2  3  1  0
  2 34  1  0
  3  4  2  0
  3 11  1  0
  4  5  1  0
  4  7  1  0
  5  6  2  0
  5 10  1  0
  7  8  2  0
  8  9  1  0
  8 29  1  0
  9 10  2  0
  9 12  1  0
 11 14  1  0
 12 13  1  0
 13 21  1  0
 14 15  2  0
 14 19  1  0
 15 16  1  0
 15 31  1  0
 16 17  2  0
 17 18  1  0
 17 20  1  0
 18 19  2  0
 18 32  1  0
 21 22  1  0
 22 23  1  0
 23 24  1  0
 23 28  1  0
 24 25  1  0
 25 26  1  0
 26 27  1  0
 26 36  1  0
 27 28  1  0
 29 30  1  0
 32 33  1  0
 34 35  3  0
M  END
>  <DRUGBANK_ID>  (1) 
DB06616

>  <COMMON_NAME>  (1) 
Bosutinib

>  <CAS_NUMBER>  (1) 
380843-75-4

>  <UNII>  (1) 
5018V4AEZ0

>  <SYNONYMS>  (1) 
4-((2,4-dichloro-5-methoxyphenyl)amino)-6-methoxy-7-(3-(4-methyl-1-piperazinyl)propoxy)-3-quinolinecarbonitrile; Bosutinib

$$$$
