
     RDKit          3D

 10  9  0  0  1  0  0  0  0  0999 V2000
    1.0283    0.3358    0.2368 N   0  0  0  0  0  0  0  0  0  0  0  0
    0.4732    1.2924   -0.7340 C   0  0  1  0  0  0  0  0  0  0  0  0
    0.9502    1.1250   -2.1871 C   0  0  0  0  0  0  0  0  0  0  0  0
    0.5499   -0.4140   -3.1409 S   0  0  0  0  0  0  0  0  0  0  0  0
    1.1114   -1.8352   -2.1112 C   0  0  0  0  0  0  0  0  0  0  0  0
    2.6275   -1.9011   -1.9888 C   0  0  0  0  0  0  0  0  0  0  0  0
    3.1537   -0.7748   -1.2977 O   0  0  0  0  0  0  0  0  0  0  0  0
   -1.0613    1.2500   -0.6961 C   0  0  0  0  0  0  0  0  0  0  0  0
   -1.6477    2.3686   -0.2167 O   0  0  0  0  0  0  0  0  0  0  0  0
   -1.7299    0.2825   -1.0504 O   0  0  0  0  0  0  0  0  0  0  0  0
  2  1  1  1
  2  3  1  0
  2  8  1  0
  3  4  1  0
  4  5  1  0
  5  6  1  0
  6  7  1  0
  8  9  1  0
  8 10  2  0
M  END
>  <DRUGBANK_ID>  (1) 
DB02413

>  <SECONDARY_ACCESSION_NUMBERS>  (1) 
EXPT02417

>  <COMMON_NAME>  (1) 
Hydroxyethylcysteine

$$$$
