
     RDKit          3D

 19 20  0  0  1  0  0  0  0  0999 V2000
   -5.4574    6.3349   -0.9371 N   0  0  0  0  0  0  0  0  0  0  0  0
   -4.6375    5.5361   -1.6899 C   0  0  0  0  0  0  0  0  0  0  0  0
   -4.5706    4.2686   -1.4217 N   0  0  0  0  0  0  0  0  0  0  0  0
   -3.6907    3.4760   -2.1224 C   0  0  0  0  0  0  0  0  0  0  0  0
   -3.7382    2.2437   -2.0251 O   0  0  0  0  0  0  0  0  0  0  0  0
   -2.7380    4.0910   -2.9429 N   0  0  0  0  0  0  0  0  0  0  0  0
   -2.7557    5.4577   -3.1261 C   0  0  0  0  0  0  0  0  0  0  0  0
   -3.7807    6.1886   -2.6956 C   0  0  0  0  0  0  0  0  0  0  0  0
   -1.8242    3.2245   -3.6912 C   0  0  1  0  0  0  0  0  0  0  0  0
   -2.5242    2.2774   -4.6751 C   0  0  0  0  0  0  0  0  0  0  0  0
   -2.5137    3.0344   -5.9749 C   0  0  0  0  0  0  0  0  0  0  0  0
   -1.2111    3.7944   -5.8840 C   0  0  1  0  0  0  0  0  0  0  0  0
   -1.2567    5.1230   -6.6506 C   0  0  0  0  0  0  0  0  0  0  0  0
   -0.8771    4.9514   -8.0153 O   0  0  0  0  0  0  0  0  0  0  0  0
    0.7542    4.3805   -8.0908 P   0  0  0  0  0  0  0  0  0  0  0  0
    0.1025    3.0936   -8.8605 O   0  0  0  0  0  0  0  0  0  0  0  0
    0.8745    5.3685   -9.3863 O   0  0  0  0  0  0  0  0  0  0  0  0
    2.2143    3.8696   -8.1584 O   0  0  0  0  0  0  0  0  0  0  0  0
   -0.9311    4.0262   -4.4973 O   0  0  0  0  0  0  0  0  0  0  0  0
  1  2  1  0
  2  3  2  0
  2  8  1  0
  3  4  1  0
  4  5  2  0
  4  6  1  0
  6  7  1  0
  7  8  2  0
  9 10  1  0
  9 19  1  0
  9  6  1  6
 10 11  1  0
 11 12  1  0
 12 19  1  0
 12 13  1  6
 13 14  1  0
 14 15  1  0
 15 16  1  0
 15 17  1  0
 15 18  2  0
M  END
>  <DRUGBANK_ID>  (1) 
DB02883

>  <SECONDARY_ACCESSION_NUMBERS>  (1) 
EXPT01242

>  <COMMON_NAME>  (1) 
2',3'-Dideoxycytidine-5'-Monophosphate

>  <UNII>  (1) 
X9M2W80KR9

$$$$
