LS5
     RDKit          3D

 25 27  0  0  0  0  0  0  0  0999 V2000
   -0.7538    1.4249    0.0149 N   0  0  0  0  0  0  0  0  0  0  0  0
   -1.7941    0.5130   -0.0225 C   0  0  0  0  0  0  0  0  0  0  0  0
   -1.1205   -0.8361    0.0038 C   0  0  0  0  0  0  0  0  0  0  0  0
    1.4456   -1.4227   -0.0291 C   0  0  0  0  0  0  0  0  0  0  0  0
    2.7097   -0.8089   -0.0359 C   0  0  0  0  0  0  0  0  0  0  0  0
    2.8405    0.5923    0.0185 C   0  0  0  0  0  0  0  0  0  0  0  0
    1.7117    1.4091    0.0496 C   0  0  0  0  0  0  0  0  0  0  0  0
    0.4813    0.7864    0.0397 C   0  0  0  0  0  0  0  0  0  0  0  0
    0.3278   -0.6086    0.0270 C   0  0  0  0  0  0  0  0  0  0  0  0
   -2.9786    0.7413   -0.0468 O   0  0  0  0  0  0  0  0  0  0  0  0
   -1.8533   -1.9585   -0.0167 C   0  0  0  0  0  0  0  0  0  0  0  0
   -3.2193   -2.0171   -0.2270 N   0  0  0  0  0  0  0  0  0  0  0  0
   -4.0839   -3.0912    0.0150 C   0  0  0  0  0  0  0  0  0  0  0  0
   -3.9258   -3.9041    1.1232 C   0  0  0  0  0  0  0  0  0  0  0  0
   -4.9502   -4.7790    1.4922 C   0  0  0  0  0  0  0  0  0  0  0  0
   -5.8981   -5.1821    0.5631 C   0  0  0  0  0  0  0  0  0  0  0  0
   -6.1065   -4.3533   -0.5404 C   0  0  0  0  0  0  0  0  0  0  0  0
   -5.2299   -3.2752   -0.7738 C   0  0  0  0  0  0  0  0  0  0  0  0
   -6.6683   -6.8170    0.6128 S   0  0  0  0  0  0  0  0  0  0  0  0
   -8.0052   -6.6101    1.1275 O   0  0  0  0  0  0  0  0  0  0  0  0
   -6.4802   -7.4072   -0.6981 O   0  0  0  0  0  0  0  0  0  0  0  0
   -5.8908   -7.8742    1.6939 N   0  0  0  0  0  0  0  0  0  0  0  0
   -4.6533   -7.9004    2.3209 C   0  0  0  0  0  0  0  0  0  0  0  0
   -4.3611   -8.6576    3.3122 N   0  0  0  0  0  0  0  0  0  0  0  0
   -3.6951   -7.1149    1.8359 N   0  0  0  0  0  0  0  0  0  0  0  0
  1  2  1  0
  1  8  1  0
  2  3  1  0
  2 10  2  0
  3  9  1  0
  3 11  2  0
  4  5  1  0
  4  9  2  0
  5  6  2  0
  6  7  1  0
  7  8  2  0
  8  9  1  0
 11 12  1  0
 12 13  1  0
 13 14  2  0
 13 18  1  0
 14 15  1  0
 15 16  2  0
 16 17  1  0
 16 19  1  0
 17 18  2  0
 19 20  2  0
 19 21  2  0
 19 22  1  0
 22 23  1  0
 23 24  2  0
 23 25  1  0
M  END
>  <DRUGBANK_ID>  (1) 
DB08126

>  <COMMON_NAME>  (1) 
3-{[4-([amino(imino)methyl]aminosulfonyl)anilino]methylene}-2-oxo-2,3-dihydro-1H-indole

$$$$
