Structure #1
     RDKit          3D

  8  7  0  0  0  0  0  0  0  0999 V2000
    0.9607   -0.0219    0.1111 C   0  0  0  0  0  0  0  0  0  0  0  0
    0.9183    1.0139   -2.2374 C   0  0  0  0  0  0  0  0  0  0  0  0
   -1.1340    1.1535   -0.7629 C   0  0  0  0  0  0  0  0  0  0  0  0
    0.4233    1.1382   -0.7691 C   0  0  0  0  0  0  0  0  0  0  0  0
    0.9489    2.4046   -0.1951 N   0  0  0  0  0  0  0  0  0  0  0  0
    0.3939   -1.2871   -0.2072 O   0  0  0  0  0  0  0  0  0  0  0  0
    0.3752   -0.0970   -2.9371 O   0  0  0  0  0  0  0  0  0  0  0  0
   -1.6860    1.3306    0.5431 O   0  0  0  0  0  0  0  0  0  0  0  0
  1  4  1  0
  1  6  1  0
  2  4  1  0
  2  7  1  0
  3  4  1  0
  3  8  1  0
  4  5  1  0
M  END
>  <DRUGBANK_ID>  (1) 
DB03754

>  <SECONDARY_ACCESSION_NUMBERS>  (1) 
EXPT03072

>  <COMMON_NAME>  (1) 
Tromethamine

>  <CAS_NUMBER>  (1) 
77-86-1

>  <UNII>  (1) 
023C2WHX2V

>  <SYNONYMS>  (1) 
1,1,1-tris(hydroxymethyl)methanamine; 2-Amino-2-(hydroxymethyl)-1,3-propanediol; aminotris(hydroxymethyl)methane; THAM; Tris; Tris(hydroxymethyl)aminomethane; Trometamol; Tromethamine

$$$$
