
     RDKit          3D

  5  4  0  0  0  0  0  0  0  0999 V2000
    0.9810    0.0518    0.0834 C   0  0  0  0  0  0  0  0  0  0  0  0
    0.4743    1.4844    0.0457 C   0  0  0  0  0  0  0  0  0  0  0  0
   -0.2563    1.8748   -0.9181 O   0  0  0  0  0  0  0  0  0  0  0  0
    0.8174    2.3865    1.0873 O   0  0  0  0  0  0  0  0  0  0  0  0
    0.1574    4.2526    1.0382 Hg  0  0  0  0  0  1  0  0  0  0  0  0
  1  2  1  0
  2  3  2  0
  2  4  1  0
  4  5  1  0
M  CHG  1   5   1
M  END
>  <DRUGBANK_ID>  (1) 
DB02176

>  <SECONDARY_ACCESSION_NUMBERS>  (1) 
EXPT02104

>  <COMMON_NAME>  (1) 
Mercury Acetate Ion

$$$$
