
     RDKit          3D

 11 10  0  0  1  0  0  0  0  0999 V2000
    0.5807    0.6136   -2.6691 C   0  0  0  0  0  0  0  0  0  0  0  0
    0.9920    0.0002   -0.1630 C   0  0  0  0  0  0  0  0  0  0  0  0
    0.3157    0.9194   -1.2030 C   0  0  2  0  0  0  0  0  0  0  0  0
    1.8330   -1.1760   -0.7039 C   0  0  1  0  0  0  0  0  0  0  0  0
   -1.2170    0.8820   -1.1542 C   0  0  0  0  0  0  0  0  0  0  0  0
    3.1546   -0.7673   -1.4441 C   0  0  0  0  0  0  0  0  0  0  0  0
    2.2529   -2.0213    0.4543 N   0  0  0  0  0  0  0  0  0  0  0  0
   -1.7623    2.0130   -1.0098 O   0  0  0  0  0  0  0  0  0  0  0  0
   -1.7415   -0.2555   -1.3130 O   0  0  0  0  0  0  0  0  0  0  0  0
    4.2725   -0.8143   -0.9675 O   0  0  0  0  0  0  0  0  0  0  0  0
    3.0018   -0.3534   -2.7159 O   0  0  0  0  0  0  0  0  0  0  0  0
  3  2  1  0
  3  1  1  6
  4  2  1  0
  4  7  1  1
  5  3  1  0
  6  4  1  0
  8  5  2  0
  9  5  1  0
 10  6  2  0
 11  6  1  0
M  CHG  1   9  -1
M  END
>  <DRUGBANK_ID>  (1) 
DB03425

>  <SECONDARY_ACCESSION_NUMBERS>  (1) 
EXPT02986

>  <COMMON_NAME>  (1) 
2s,4r-4-Methylglutamate

$$$$
