
     RDKit          3D

 17 17  0  0  1  0  0  0  0  0999 V2000
   -4.5705   -3.3430   -8.2548 C   0  0  0  0  0  0  0  0  0  0  0  0
   -3.2997   -2.7819   -8.8519 C   0  0  0  0  0  0  0  0  0  0  0  0
   -3.0164   -2.6203  -10.0961 N   0  0  0  0  0  0  0  0  0  0  0  0
   -4.0252   -3.0859  -10.9333 O   0  0  0  0  0  0  0  0  0  0  0  0
   -2.2515   -2.4593   -7.9312 C   0  0  0  0  0  0  0  0  0  0  0  0
   -1.3983   -1.3831   -7.9907 N   0  0  0  0  0  0  0  0  0  0  0  0
   -0.5203   -1.5121   -6.9217 C   0  0  0  0  0  0  0  0  0  0  0  0
   -0.5637   -2.8984   -6.7855 C   0  0  0  0  0  0  0  0  0  0  0  0
   -1.8237   -3.3354   -7.0738 N   0  0  0  0  0  0  0  0  0  0  0  0
    0.1311   -0.2817   -6.3038 C   0  0  2  0  0  0  0  0  0  0  0  0
    0.6969   -0.2392   -4.8225 C   0  0  1  0  0  0  0  0  0  0  0  0
   -0.0791   -0.9990   -3.7025 C   0  0  1  0  0  0  0  0  0  0  0  0
   -0.1357   -2.4800   -3.9631 C   0  0  0  0  0  0  0  0  0  0  0  0
    1.1449   -3.0734   -4.1435 O   0  0  0  0  0  0  0  0  0  0  0  0
    0.5359   -0.8381   -2.4272 O   0  0  0  0  0  0  0  0  0  0  0  0
    2.0975   -0.5698   -4.7854 O   0  0  0  0  0  0  0  0  0  0  0  0
   -0.8939    0.7236   -6.4030 O   0  0  0  0  0  0  0  0  0  0  0  0
  1  2  1  0
  2  3  2  0
  2  5  1  0
  3  4  1  0
  5  6  1  0
  5  9  2  0
  6  7  1  0
  7  8  2  0
  8  9  1  0
 10 17  1  1
 10 11  1  0
 10  7  1  0
 11 12  1  0
 11 16  1  6
 12 13  1  0
 12 15  1  1
 13 14  1  0
M  END
>  <DRUGBANK_ID>  (1) 
DB06297

>  <COMMON_NAME>  (1) 
LX-2931

>  <CAS_NUMBER>  (1) 
948840-25-3

>  <UNII>  (1) 
C5AGI979T7

$$$$
