
     RDKit          3D

 30 33  0  0  0  0  0  0  0  0999 V2000
    1.4250    1.6816   -0.0980 N   0  0  0  0  0  0  0  0  0  0  0  0
    1.4365    2.7024   -1.0736 C   0  0  0  0  0  0  0  0  0  0  0  0
    2.4710    2.8350   -2.2667 C   0  0  0  0  0  0  0  0  0  0  0  0
    3.9941    2.9438   -1.9883 C   0  0  0  0  0  0  0  0  0  0  0  0
    4.5749    1.6909   -1.5191 N   0  0  0  0  0  0  0  0  0  0  0  0
    4.1219    0.5075   -2.2321 C   0  0  0  0  0  0  0  0  0  0  0  0
    4.4184   -0.7242   -1.4055 C   0  0  0  0  0  0  0  0  0  0  0  0
    5.7600   -0.9705   -0.8073 C   0  0  0  0  0  0  0  0  0  0  0  0
    6.2591    0.3819   -0.2508 C   0  0  0  0  0  0  0  0  0  0  0  0
    5.9884    1.5909   -1.2000 C   0  0  0  0  0  0  0  0  0  0  0  0
   -1.5343   -1.5318   -0.0971 C   0  0  0  0  0  0  0  0  0  0  0  0
   -2.7323   -0.9489   -0.4260 C   0  0  0  0  0  0  0  0  0  0  0  0
   -2.9096    0.4260   -0.2403 C   0  0  0  0  0  0  0  0  0  0  0  0
   -1.8752    1.2328    0.2037 C   0  0  0  0  0  0  0  0  0  0  0  0
   -0.6745    0.6690    0.5626 C   0  0  0  0  0  0  0  0  0  0  0  0
   -0.5515   -0.7322    0.4681 C   0  0  0  0  0  0  0  0  0  0  0  0
    0.8916   -1.6011    0.9054 S   0  0  0  0  0  0  0  0  0  0  0  0
    0.4226    1.6260    0.9429 C   0  0  0  0  0  0  0  0  0  0  0  0
    1.8229   -0.8041   -0.3933 C   0  0  0  0  0  0  0  0  0  0  0  0
    2.3169    0.5828    0.1226 C   0  0  0  0  0  0  0  0  0  0  0  0
    0.5477    3.5443   -1.0566 O   0  0  0  0  0  0  0  0  0  0  0  0
    5.5963   -2.0720    0.3369 C   0  0  0  0  0  0  0  0  0  0  0  0
    4.7785   -3.2976   -0.0767 C   0  0  0  0  0  0  0  0  0  0  0  0
    5.0291   -3.8768   -1.3247 C   0  0  0  0  0  0  0  0  0  0  0  0
    3.7085   -3.8062    0.6853 C   0  0  0  0  0  0  0  0  0  0  0  0
    2.8786   -4.8133    0.1666 C   0  0  0  0  0  0  0  0  0  0  0  0
    3.0639   -5.2649   -1.1380 C   0  0  0  0  0  0  0  0  0  0  0  0
    4.1425   -4.7967   -1.8803 C   0  0  0  0  0  0  0  0  0  0  0  0
   -4.0637    1.1122   -0.4568 O   0  0  0  0  0  0  0  0  0  0  0  0
   -5.1463    0.2976   -0.8546 C   0  0  0  0  0  0  0  0  0  0  0  0
  1 20  1  0
  1  2  1  0
  2 21  2  0
  2  3  1  0
  3  4  1  0
  4  5  1  0
  5 10  1  0
  5  6  1  0
  6  7  1  0
  7  8  1  0
  8  9  1  0
  8 22  1  0
  9 10  1  0
 11 12  2  0
 12 13  1  0
 13 29  1  0
 13 14  2  0
 14 15  1  0
 15 16  2  0
 15 18  1  0
 16 17  1  0
 16 11  1  0
 17 19  1  0
 18  1  1  0
 19 20  1  0
 22 23  1  0
 23 25  1  0
 24 23  2  0
 25 26  2  0
 26 27  1  0
 27 28  2  0
 28 24  1  0
 29 30  1  0
M  END
>  <DRUGBANK_ID>  (1) 
DB02929

>  <SECONDARY_ACCESSION_NUMBERS>  (1) 
EXPT01958

>  <COMMON_NAME>  (1) 
K201 free base

>  <CAS_NUMBER>  (1) 
145903-06-6

>  <UNII>  (1) 
EBY0ENK2GQ

$$$$
