
     RDKit          3D

 34 39  0  0  0  0  0  0  0  0999 V2000
    0.9349   -0.1036    0.0543 C   0  0  0  0  0  0  0  0  0  0  0  0
   -0.3959   -1.9329    1.1282 C   0  0  0  0  0  0  0  0  0  0  0  0
    7.6705  -15.2781  -13.0070 C   0  0  0  0  0  0  0  0  0  0  0  0
    2.5745   -3.2602   -2.4231 C   0  0  0  0  0  0  0  0  0  0  0  0
    0.4097   -4.2268   -2.5734 C   0  0  0  0  0  0  0  0  0  0  0  0
    4.6309   -8.2961   -6.4227 C   0  0  0  0  0  0  0  0  0  0  0  0
    2.1337   -2.3372   -1.4607 C   0  0  0  0  0  0  0  0  0  0  0  0
   -0.0220   -3.3123   -1.5611 C   0  0  0  0  0  0  0  0  0  0  0  0
    6.5578   -9.8014   -9.9918 C   0  0  0  0  0  0  0  0  0  0  0  0
    3.3447   -7.7162   -6.3624 C   0  0  0  0  0  0  0  0  0  0  0  0
    6.5112   -8.5566   -9.3448 C   0  0  0  0  0  0  0  0  0  0  0  0
    7.9568  -12.9190  -12.5337 C   0  0  0  0  0  0  0  0  0  0  0  0
    7.1420  -14.3922  -10.8136 C   0  0  0  0  0  0  0  0  0  0  0  0
    8.3385  -11.8637  -11.4660 C   0  0  0  0  0  0  0  0  0  0  0  0
    7.5115  -13.3607   -9.7160 C   0  0  0  0  0  0  0  0  0  0  0  0
    5.3975   -7.1148   -4.4797 C   0  0  0  0  0  0  0  0  0  0  0  0
    7.8196  -10.8241   -8.1924 C   0  0  0  0  0  0  0  0  0  0  0  0
    1.7439   -4.2555   -2.9776 C   0  0  0  0  0  0  0  0  0  0  0  0
    5.6895   -7.9592   -5.5466 C   0  0  0  0  0  0  0  0  0  0  0  0
    0.8282   -2.3521   -0.9766 C   0  0  0  0  0  0  0  0  0  0  0  0
    7.2965  -10.8895   -9.4946 C   0  0  0  0  0  0  0  0  0  0  0  0
    3.1005   -6.8557   -5.2835 C   0  0  0  0  0  0  0  0  0  0  0  0
    7.1902   -8.4517   -8.1242 C   0  0  0  0  0  0  0  0  0  0  0  0
    4.1227   -6.5199   -4.4085 C   0  0  0  0  0  0  0  0  0  0  0  0
    7.6754   -9.5912   -7.5250 C   0  0  0  0  0  0  0  0  0  0  0  0
    2.4438   -5.2872   -3.7928 C   0  0  0  0  0  0  0  0  0  0  0  0
    7.0817   -8.0336   -6.1002 C   0  0  0  0  0  0  0  0  0  0  0  0
    1.9895   -6.1971   -4.7472 N   0  0  0  0  0  0  0  0  0  0  0  0
    7.2838   -7.3990   -7.2510 N   0  0  0  0  0  0  0  0  0  0  0  0
    3.7277   -5.5157   -3.5828 N   0  0  0  0  0  0  0  0  0  0  0  0
    7.9142   -9.1718   -6.2120 N   0  0  0  0  0  0  0  0  0  0  0  0
    0.4045   -1.4632    0.0049 N   0  0  0  0  0  0  0  0  0  0  0  0
    8.0408  -14.2981  -11.9911 N   0  0  0  0  0  0  0  0  0  0  0  0
    7.4240  -12.0164  -10.3056 N   0  0  0  0  0  0  0  0  0  0  0  0
  7  4  2  0
  8  5  1  0
 10  6  2  0
 11  9  2  0
 14 12  1  0
 15 13  1  0
 18  4  1  0
 18  5  2  0
 19  6  1  0
 19 16  2  0
 20  7  1  0
 20  8  2  0
 21  9  1  0
 21 17  2  0
 22 10  1  0
 23 11  1  0
 24 16  1  0
 24 22  2  0
 25 17  1  0
 25 23  2  0
 26 18  1  0
 27 19  1  0
 28 22  1  0
 28 26  1  0
 29 23  1  0
 29 27  2  0
 30 24  1  0
 30 26  2  0
 31 25  1  0
 31 27  1  0
 32  1  1  0
 32  2  1  0
 32 20  1  0
 33  3  1  0
 33 12  1  0
 33 13  1  0
 34 14  1  0
 34 15  1  0
 34 21  1  0
M  END
>  <DRUGBANK_ID>  (1) 
DB04011

>  <SECONDARY_ACCESSION_NUMBERS>  (1) 
EXPT00636

>  <COMMON_NAME>  (1) 
2'-(4-Dimethylaminophenyl)-5-(4-Methyl-1-Piperazinyl)-2,5'-Bi-Benzimidazole

$$$$
