
     RDKit          3D

 22 24  0  0  1  0  0  0  0  0999 V2000
    1.1431    0.0723   -0.0495 C   0  0  0  0  0  0  0  0  0  0  0  0
    0.7379   -0.0889    1.3670 C   0  0  0  0  0  0  0  0  0  0  0  0
    0.5720   -1.2384    2.0722 C   0  0  0  0  0  0  0  0  0  0  0  0
    0.6555   -2.6281    1.5501 C   0  0  0  0  0  0  0  0  0  0  0  0
   -0.3183   -2.8231    0.4700 N   0  0  0  0  0  0  0  0  0  0  0  0
    0.2412   -3.2184   -0.7696 O   0  0  0  0  0  0  0  0  0  0  0  0
   -1.6894   -2.7613    0.4948 C   0  0  0  0  0  0  0  0  0  0  0  0
   -2.2822   -2.5109    1.6870 N   0  0  0  0  0  0  0  0  0  0  0  0
   -2.4257   -2.9362   -0.4842 O   0  0  0  0  0  0  0  0  0  0  0  0
    0.0588   -0.8477    3.3782 C   0  0  0  0  0  0  0  0  0  0  0  0
   -0.4310   -1.5819    4.4022 C   0  0  0  0  0  0  0  0  0  0  0  0
   -0.3038   -3.0844    4.5297 C   0  0  0  0  0  0  0  0  0  0  0  0
   -1.4335   -0.9178    5.2972 C   0  0  0  0  0  0  0  0  0  0  0  0
   -2.8805   -1.3669    4.7707 C   0  0  0  0  0  0  0  0  0  0  0  0
   -2.3511   -1.6861    6.1545 C   0  0  0  0  0  0  0  0  0  0  0  0
   -1.1439    0.5849    5.6482 C   0  0  1  0  0  0  0  0  0  0  0  0
   -2.4592    1.2960    5.9524 C   0  0  0  0  0  0  0  0  0  0  0  0
   -0.1752    0.6722    6.6997 O   0  0  0  0  0  0  0  0  0  0  0  0
   -0.5430    1.3878    4.4876 C   0  0  0  0  0  0  0  0  0  0  0  0
   -0.4799    2.6230    4.4615 O   0  0  0  0  0  0  0  0  0  0  0  0
   -0.0500    0.5990    3.3640 C   0  0  0  0  0  0  0  0  0  0  0  0
    0.3605    1.0556    2.1765 C   0  0  0  0  0  0  0  0  0  0  0  0
  1  2  1  0
  2  3  2  0
  2 22  1  0
  3  4  1  0
  3 10  1  0
  4  5  1  0
  5  6  1  0
  5  7  1  0
  7  8  1  0
  7  9  2  0
 10 11  2  0
 10 21  1  0
 11 12  1  0
 11 13  1  0
 13 14  1  0
 13 15  1  0
 14 15  1  0
 16 13  1  0
 16 17  1  1
 16 18  1  0
 16 19  1  0
 19 20  2  0
 19 21  1  0
 21 22  2  0
M  END
>  <DRUGBANK_ID>  (1) 
DB18215

>  <COMMON_NAME>  (1) 
LP-184

>  <CAS_NUMBER>  (1) 
924835-67-6

>  <UNII>  (1) 
L683VC69K8

>  <SYNONYMS>  (1) 
(R)-1-HYDROXY-1-((6'-HYDROXY-2',4',6'-TRIMETHYL-7'-OXO-6',7'-DIHYDROSPIRO(CYCLOPROPANE-1,5'-INDEN)-3'-YL)METHYL)UREA; Hydroxyurea methylacylfulvene; N-(((6'R)-6',7'-DIHYDRO-6'-HYDROXY-2',4',6'-TRIMETHYL-7'-OXOSPIRO(CYCLOPROPANE-1,5'-(5H)INDEN)-3'-YL)METHYL)-N-HYDROXYUREA; N-HYDROXY-N-(METHYLACYLFULVENE)UREA; UREA, N-(((6'R)-6',7'-DIHYDRO-6'-HYDROXY-2',4',6'-TRIMETHYL-7'-OXOSPIRO(CYCLOPROPANE-1,5'-(5H)INDEN)-3'-YL)METHYL)-N-HYDROXY-

$$$$
