
     RDKit          3D

 26 28  0  0  0  0  0  0  0  0999 V2000
    1.0029   -0.0466    0.2797 C   0  0  0  0  0  0  0  0  0  0  0  0
    0.5362    0.4880   -1.0291 C   0  0  0  0  0  0  0  0  0  0  0  0
    0.9587   -0.3221   -2.2697 N   0  0  0  0  0  0  0  0  0  0  0  0
    2.6186   -0.3721   -2.4229 C   0  0  0  0  0  0  0  0  0  0  0  0
    3.3005   -1.5501   -3.2506 C   0  0  0  0  0  0  0  0  0  0  0  0
    2.5726   -2.8533   -3.0685 C   0  0  0  0  0  0  0  0  0  0  0  0
    1.0728   -2.6605   -3.3096 C   0  0  0  0  0  0  0  0  0  0  0  0
    0.4432   -1.7676   -2.2245 C   0  0  0  0  0  0  0  0  0  0  0  0
    0.7056   -2.2166   -4.6526 O   0  0  0  0  0  0  0  0  0  0  0  0
    1.1643   -1.0536   -5.2283 C   0  0  0  0  0  0  0  0  0  0  0  0
    1.9922   -0.2956   -4.7757 O   0  0  0  0  0  0  0  0  0  0  0  0
    0.4531   -0.5725   -6.4853 C   0  0  0  0  0  0  0  0  0  0  0  0
    1.0854   -1.3923   -7.5663 C   0  0  0  0  0  0  0  0  0  0  0  0
    2.0207   -0.8439   -8.4386 C   0  0  0  0  0  0  0  0  0  0  0  0
    2.6075   -1.6611   -9.3885 C   0  0  0  0  0  0  0  0  0  0  0  0
    2.3023   -3.0239   -9.4377 C   0  0  0  0  0  0  0  0  0  0  0  0
    1.4842   -3.6031   -8.4875 C   0  0  0  0  0  0  0  0  0  0  0  0
    0.8959   -2.7881   -7.5566 C   0  0  0  0  0  0  0  0  0  0  0  0
   -1.0643   -0.5450   -6.3961 C   0  0  0  0  0  0  0  0  0  0  0  0
   -1.7949   -1.7322   -6.2715 C   0  0  0  0  0  0  0  0  0  0  0  0
   -3.1756   -1.7482   -6.2658 C   0  0  0  0  0  0  0  0  0  0  0  0
   -3.8675   -0.5512   -6.2667 C   0  0  0  0  0  0  0  0  0  0  0  0
   -3.1759    0.6564   -6.2682 C   0  0  0  0  0  0  0  0  0  0  0  0
   -1.7882    0.6644   -6.3809 C   0  0  0  0  0  0  0  0  0  0  0  0
    0.8742    0.8282   -6.5423 O   0  0  0  0  0  0  0  0  0  0  0  0
    0.1544    0.6200   -3.2612 C   0  0  0  0  0  0  0  0  0  0  0  0
  1  2  1  0
  2  3  1  0
  3  4  1  0
  3  8  1  0
  3 26  1  0
  4  5  1  0
  5  6  1  0
  6  7  1  0
  7  8  1  0
  7  9  1  0
  9 10  1  0
 10 11  2  0
 10 12  1  0
 12 13  1  0
 12 19  1  0
 12 25  1  0
 13 14  2  0
 13 18  1  0
 14 15  1  0
 15 16  2  0
 16 17  1  0
 17 18  2  0
 19 20  2  0
 19 24  1  0
 20 21  1  0
 21 22  2  0
 22 23  1  0
 23 24  2  0
M  CHG  1   3   1
M  END
>  <DRUGBANK_ID>  (1) 
DB13844

>  <COMMON_NAME>  (1) 
Pipenzolate

>  <CAS_NUMBER>  (1) 
13473-38-6

>  <UNII>  (1) 
RS3K5YXV34

$$$$
