
     RDKit          3D

 37 40  0  0  0  0  0  0  0  0999 V2000
    1.8659    1.2152   -0.1330 C   0  0  0  0  0  0  0  0  0  0  0  0
    0.4619    1.4366   -0.0942 C   0  0  0  0  0  0  0  0  0  0  0  0
   -0.4289    0.3412   -0.0802 C   0  0  0  0  0  0  0  0  0  0  0  0
    0.0342   -0.9729   -0.1834 C   0  0  0  0  0  0  0  0  0  0  0  0
    1.3711   -1.1690   -0.3160 C   0  0  0  0  0  0  0  0  0  0  0  0
    2.2692   -0.1541   -0.1958 C   0  0  0  0  0  0  0  0  0  0  0  0
   -2.1264    0.6022    0.0761 Cl  0  0  0  0  0  0  0  0  0  0  0  0
   -0.6645   -2.1347    0.1576 N   0  0  0  0  0  0  0  0  0  0  0  0
    2.7102    2.4734   -0.0392 C   0  0  0  0  0  0  0  0  0  0  0  0
    2.1695    3.5872   -0.0297 O   0  0  0  0  0  0  0  0  0  0  0  0
    4.0743    2.5005    0.0170 N   0  0  0  0  0  0  0  0  0  0  0  0
    3.4719   -0.7066    0.0880 O   0  0  0  0  0  0  0  0  0  0  0  0
    5.2098    1.5182    0.0985 C   0  0  2  0  0  0  0  0  0  0  0  0
    5.3033    0.7650   -2.4762 C   0  0  0  0  0  0  0  0  0  0  0  0
    5.7104    1.7469   -1.3484 C   0  0  0  0  0  0  0  0  0  0  0  0
    5.5009    0.0276    0.4663 C   0  0  2  0  0  0  0  0  0  0  0  0
    5.6061   -0.9047   -0.9962 C   0  0  0  0  0  0  0  0  0  0  0  0
    5.8664   -0.5842   -2.3784 N   0  0  0  0  0  0  0  0  0  0  0  0
    4.7737   -0.4908    1.9510 O   0  0  0  0  0  0  0  0  0  0  0  0
    5.1104   -1.7437   -3.1279 C   0  0  0  0  0  0  0  0  0  0  0  0
    3.5188   -1.8896   -2.9942 C   0  0  0  0  0  0  0  0  0  0  0  0
    2.7414   -0.6489   -3.4011 C   0  0  0  0  0  0  0  0  0  0  0  0
    3.3113   -0.2801   -4.7112 C   0  0  0  0  0  0  0  0  0  0  0  0
    2.9017   -1.4522   -5.6040 C   0  0  0  0  0  0  0  0  0  0  0  0
    1.4140   -1.4093   -6.1204 C   0  0  0  0  0  0  0  0  0  0  0  0
    1.0461   -1.3349   -7.4751 O   0  0  0  0  0  0  0  0  0  0  0  0
    0.4881   -1.6079   -5.2325 O   0  0  0  0  0  0  0  0  0  0  0  0
    1.8173   -0.7242   -8.9106 C   0  0  1  0  0  0  0  0  0  0  0  0
    1.3207    0.6688   -8.6243 C   0  0  0  0  0  0  0  0  0  0  0  0
    2.2881    1.3348   -7.1831 N   0  0  0  0  0  0  0  0  0  0  0  0
    4.1354    1.5674   -7.0262 C   0  0  0  0  0  0  0  0  0  0  0  0
    4.8586    0.3825   -7.7016 C   0  0  0  0  0  0  0  0  0  0  0  0
    3.6921   -0.2944   -9.1238 C   0  0  0  0  0  0  0  0  0  0  0  0
    3.1919   -0.1319   -7.8537 C   0  0  0  0  0  0  0  0  0  0  0  0
    2.8786    1.7492   -8.3528 C   0  0  0  0  0  0  0  0  0  0  0  0
    4.0150   -2.2230    0.3371 C   0  0  0  0  0  0  0  0  0  0  0  0
    3.2800   -0.9036    2.3532 C   0  0  0  0  0  0  0  0  0  0  0  0
  1  2  2  0
  1  6  1  0
  1  9  1  0
  2  3  1  0
  3  4  2  0
  3  7  1  0
  4  5  1  0
  4  8  1  0
  5  6  2  0
  6 12  1  0
  9 10  2  0
  9 11  1  0
 12 36  1  0
 13 11  1  6
 13 16  1  0
 14 15  1  0
 14 18  1  0
 15 13  1  0
 16 17  1  0
 16 19  1  1
 17 18  1  0
 18 20  1  0
 19 37  1  0
 20 21  1  0
 21 22  1  0
 22 23  1  0
 23 24  1  0
 24 25  1  0
 25 26  1  0
 25 27  2  0
 28 26  1  1
 28 29  1  0
 28 33  1  0
 29 30  1  0
 30 31  1  0
 31 32  1  0
 32 33  1  0
 33 34  1  0
 34 35  1  0
 35 30  1  0
M  END
>  <DRUGBANK_ID>  (1) 
DB05542

>  <COMMON_NAME>  (1) 
Naronapride

>  <CAS_NUMBER>  (1) 
860174-12-5

>  <UNII>  (1) 
058896B00B

>  <SYNONYMS>  (1) 
Naronapride

$$$$
