
     RDKit          3D

 13 12  0  0  1  0  0  0  0  0999 V2000
    1.2208    0.0459    0.1301 C   0  0  0  0  0  0  0  0  0  0  0  0
    0.9309    0.9938   -1.0251 C   0  0  0  0  0  0  0  0  0  0  0  0
    0.8101   -2.9826   -1.0210 C   0  0  0  0  0  0  0  0  0  0  0  0
    0.0970   -2.8367   -2.5108 C   0  0  1  0  0  0  0  0  0  0  0  0
   -0.0482   -1.5045   -3.2744 C   0  0  0  0  0  0  0  0  0  0  0  0
    0.8170   -3.6501   -3.5618 N   0  0  0  0  0  0  0  0  0  0  0  0
    2.2073   -1.1758   -2.3466 N   0  0  0  0  0  0  0  0  0  0  0  0
    0.4429   -1.3360   -4.3881 O   0  0  0  0  0  0  0  0  0  0  0  0
   -0.4973   -0.5127   -2.5164 O   0  0  0  0  0  0  0  0  0  0  0  0
    1.4610    0.8276   -3.7355 O   0  0  0  0  0  0  0  0  0  0  0  0
    3.6057    0.6933   -2.4441 O   0  0  0  0  0  0  0  0  0  0  0  0
    0.3011   -1.6824    0.3308 S   0  0  0  0  0  0  0  0  0  0  0  0
    2.1554    0.4777   -2.5492 S   0  0  0  0  0  0  0  0  0  0  0  0
  2  1  1  0
  4  3  1  0
  4  6  1  6
  5  4  1  0
  8  5  2  0
  9  5  1  0
 12  1  1  0
 12  3  1  0
 13  2  1  0
 13  7  1  0
 13 10  2  0
 13 11  2  0
M  END
>  <DRUGBANK_ID>  (1) 
DB02689

>  <SECONDARY_ACCESSION_NUMBERS>  (1) 
EXPT02875

>  <COMMON_NAME>  (1) 
S-{2-[Amino(Dihydroxy)-Lambda~4~-Sulfanyl]Ethyl}-D-Cysteine

$$$$
