
     RDKit          3D

 36 41  0  0  0  0  0  0  0  0999 V2000
    0.8963    0.8542    0.3514 C   0  0  0  0  0  0  0  0  0  0  0  0
    1.4176   -0.3764    0.8303 O   0  0  0  0  0  0  0  0  0  0  0  0
    0.7535   -1.4537    0.1253 C   0  0  0  0  0  0  0  0  0  0  0  0
   -0.7744   -1.3166    0.2849 C   0  0  0  0  0  0  0  0  0  0  0  0
   -1.3706   -0.0318   -0.1812 N   0  0  0  0  0  0  0  0  0  0  0  0
   -0.6257    1.0149    0.5405 C   0  0  0  0  0  0  0  0  0  0  0  0
   -1.4786    0.1051   -1.6703 C   0  0  0  0  0  0  0  0  0  0  0  0
   -0.1853    0.1678   -2.5094 C   0  0  0  0  0  0  0  0  0  0  0  0
    0.4923    1.5274   -2.4161 C   0  0  0  0  0  0  0  0  0  0  0  0
   -0.4541    2.4562   -2.9463 N   0  0  0  0  0  0  0  0  0  0  0  0
   -1.6434    2.6466   -2.1442 C   0  0  0  0  0  0  0  0  0  0  0  0
   -2.3625    1.3016   -2.1499 C   0  0  0  0  0  0  0  0  0  0  0  0
    0.2242    3.4124   -3.6349 C   0  0  0  0  0  0  0  0  0  0  0  0
    0.8388    2.8895   -4.7693 C   0  0  0  0  0  0  0  0  0  0  0  0
    1.5190    3.6784   -5.6567 C   0  0  0  0  0  0  0  0  0  0  0  0
    1.6040    5.0377   -5.3542 C   0  0  0  0  0  0  0  0  0  0  0  0
    1.0589    5.5601   -4.1872 C   0  0  0  0  0  0  0  0  0  0  0  0
    0.3868    4.7428   -3.2907 C   0  0  0  0  0  0  0  0  0  0  0  0
   -0.0815    5.3500   -2.0062 C   0  0  0  0  0  0  0  0  0  0  0  0
    1.0625    5.9543   -1.2135 C   0  0  0  0  0  0  0  0  0  0  0  0
    2.0904    3.0213   -6.8959 C   0  0  0  0  0  0  0  0  0  0  0  0
    2.7080    4.0648   -7.7605 C   0  0  0  0  0  0  0  0  0  0  0  0
    2.7923    5.4050   -7.4617 C   0  0  0  0  0  0  0  0  0  0  0  0
    2.2674    5.9837   -6.2559 C   0  0  0  0  0  0  0  0  0  0  0  0
    3.3062    3.8561   -8.9723 N   0  0  0  0  0  0  0  0  0  0  0  0
    3.7783    5.0578   -9.4536 C   0  0  0  0  0  0  0  0  0  0  0  0
    3.4619    6.0378   -8.5144 C   0  0  0  0  0  0  0  0  0  0  0  0
    4.4570    5.3661  -10.6328 C   0  0  0  0  0  0  0  0  0  0  0  0
    4.8128    6.7123  -10.8370 C   0  0  0  0  0  0  0  0  0  0  0  0
    4.4972    7.7005   -9.8987 C   0  0  0  0  0  0  0  0  0  0  0  0
    3.8213    7.3729   -8.7319 C   0  0  0  0  0  0  0  0  0  0  0  0
    5.5095    7.0805  -12.0207 C   0  0  0  0  0  0  0  0  0  0  0  0
    6.0867    7.3853  -12.9978 N   0  0  0  0  0  0  0  0  0  0  0  0
    2.3450    7.1738   -5.9753 O   0  0  0  0  0  0  0  0  0  0  0  0
    3.1834    2.0440   -6.4308 C   0  0  0  0  0  0  0  0  0  0  0  0
    0.9292    2.3440   -7.6498 C   0  0  0  0  0  0  0  0  0  0  0  0
  1  2  1  0
  1  6  1  0
  2  3  1  0
  3  4  1  0
  4  5  1  0
  5  6  1  0
  5  7  1  0
  7  8  1  0
  7 12  1  0
  8  9  1  0
  9 10  1  0
 10 11  1  0
 10 13  1  0
 11 12  1  0
 13 14  2  0
 13 18  1  0
 14 15  1  0
 15 16  2  0
 15 21  1  0
 16 17  1  0
 16 24  1  0
 17 18  2  0
 18 19  1  0
 19 20  1  0
 21 22  1  0
 21 35  1  0
 21 36  1  0
 22 23  2  0
 22 25  1  0
 23 24  1  0
 23 27  1  0
 24 34  2  0
 25 26  1  0
 26 27  2  0
 26 28  1  0
 27 31  1  0
 28 29  2  0
 29 30  1  0
 29 32  1  0
 30 31  2  0
 32 33  3  0
M  END
>  <DRUGBANK_ID>  (1) 
DB11363

>  <COMMON_NAME>  (1) 
Alectinib

>  <CAS_NUMBER>  (1) 
1256580-46-7

>  <UNII>  (1) 
LIJ4CT1Z3Y

>  <SYNONYMS>  (1) 
9-ethyl-6,6-dimethyl-8-[4-(morpholin-4-yl)piperidin-1-yl]-11-oxo-6,11-dihydro-5H-benzo[b]carbazole-3-carbonitrile; Alectinib

$$$$
