
     RDKit          3D

 10  9  0  0  1  0  0  0  0  0999 V2000
    0.9793   -0.0917    0.0058 O   0  0  0  0  0  0  0  0  0  0  0  0
   -3.8261    3.1584   -2.3850 O   0  0  0  0  0  0  0  0  0  0  0  0
    1.1408    2.1093    0.3460 O   0  0  0  0  0  0  0  0  0  0  0  0
   -3.1511    3.2484   -0.2545 O   0  0  0  0  0  0  0  0  0  0  0  0
   -1.5740    0.1964    1.3165 N   0  0  0  0  0  0  0  0  0  0  0  0
   -1.0981    1.0981    0.2502 C   0  0  2  0  0  0  0  0  0  0  0  0
   -1.6642    0.7040   -1.1281 C   0  0  0  0  0  0  0  0  0  0  0  0
   -3.1333    1.0885   -1.3415 C   0  0  0  0  0  0  0  0  0  0  0  0
    0.4284    1.1233    0.2188 C   0  0  0  0  0  0  0  0  0  0  0  0
   -3.3593    2.5843   -1.2603 C   0  0  0  0  0  0  0  0  0  0  0  0
  1  9  1  0
  2 10  1  0
  3  9  2  0
  4 10  2  0
  6  9  1  0
  6  7  1  0
  6  5  1  1
  7  8  1  0
  8 10  1  0
M  END
>  <DRUGBANK_ID>  (1) 
DB02517

>  <SECONDARY_ACCESSION_NUMBERS>  (1) 
EXPT01180

>  <COMMON_NAME>  (1) 
D-Glutamic Acid

>  <CAS_NUMBER>  (1) 
6893-26-1

>  <UNII>  (1) 
Q479989WEA

$$$$
