525
     RDKit          3D

 22 24  0  0  0  0  0  0  0  0999 V2000
    0.8215    0.0338   -0.0031 S   0  0  0  0  0  0  0  0  0  0  0  0
    3.2659    1.1345   -0.3989 O   0  0  0  0  0  0  0  0  0  0  0  0
    3.3114   -1.1035    0.5060 N   0  0  0  0  0  0  0  0  0  0  0  0
    2.3941    4.2733   -2.2658 C   0  0  0  0  0  0  0  0  0  0  0  0
    1.3032    4.7359   -1.4771 C   0  0  0  0  0  0  0  0  0  0  0  0
    2.7070   -2.3552    0.8848 C   0  0  0  0  0  0  0  0  0  0  0  0
    2.6733    2.4038   -0.7325 C   0  0  0  0  0  0  0  0  0  0  0  0
    3.0585    3.0765   -1.8931 C   0  0  0  0  0  0  0  0  0  0  0  0
    1.6714   -2.8843    0.1054 C   0  0  0  0  0  0  0  0  0  0  0  0
    0.9081   -3.9780    0.5076 C   0  0  0  0  0  0  0  0  0  0  0  0
    0.9387    4.0404   -0.3323 C   0  0  0  0  0  0  0  0  0  0  0  0
    1.6794    2.9451    0.0873 C   0  0  0  0  0  0  0  0  0  0  0  0
    2.7555    5.0421   -3.3855 C   0  0  0  0  0  0  0  0  0  0  0  0
    3.0810   -3.0559    2.0355 C   0  0  0  0  0  0  0  0  0  0  0  0
    0.6180    5.9064   -1.8198 C   0  0  0  0  0  0  0  0  0  0  0  0
    2.5252   -0.0104    0.0380 C   0  0  0  0  0  0  0  0  0  0  0  0
    1.2797   -4.6550    1.6643 C   0  0  0  0  0  0  0  0  0  0  0  0
    2.3736   -4.2083    2.4138 C   0  0  0  0  0  0  0  0  0  0  0  0
    4.7769   -1.0586    0.5273 C   0  0  0  0  0  0  0  0  0  0  0  0
    2.0821    6.2306   -3.6988 C   0  0  0  0  0  0  0  0  0  0  0  0
    1.0127    6.6616   -2.9163 C   0  0  0  0  0  0  0  0  0  0  0  0
   -0.2910   -4.3671   -0.3022 C   0  0  0  0  0  0  0  0  0  0  0  0
  1 16  2  0
  2  7  1  0
  2 16  1  0
  3  6  1  0
  3 16  1  0
  3 19  1  0
  4  5  1  0
  4  8  2  0
  4 13  1  0
  5 11  2  0
  5 15  1  0
  6  9  2  0
  6 14  1  0
  7  8  1  0
  7 12  2  0
  9 10  1  0
 10 17  2  0
 10 22  1  0
 11 12  1  0
 13 20  2  0
 14 18  2  0
 15 21  2  0
 17 18  1  0
 20 21  1  0
M  END
>  <DRUGBANK_ID>  (1) 
DB00525

>  <SECONDARY_ACCESSION_NUMBERS>  (1) 
APRD01607

>  <COMMON_NAME>  (1) 
Tolnaftate

>  <CAS_NUMBER>  (1) 
2398-96-1

>  <UNII>  (1) 
06KB629TKV

>  <SYNONYMS>  (1) 
2-Naphthyl N-methyl-N-(3-tolyl)thionocarbamate; m,N-Dimethylthiocarbanilic acid O-2-naphthyl ester; Methyl (3-methylphenyl)carbamothioic acid O-2-naphthalenyl ester; N-methyl-N-(3-methylphenyl)-1-(naphthalen-2-yloxy)methanethioamide; O-2-Naphthyl m,N-dimethylthiocarbanilate; Tolnaftate; Tolnaftato; Tolnaftatum; Tolnaphthate

$$$$
