
     RDKit          3D

 23 26  0  0  0  0  0  0  0  0999 V2000
   -1.3671    4.0229  -10.3962 C   0  0  1  0  0  0  0  0  0  0  0  0
    0.7350    2.8927   -7.3842 C   0  0  0  0  0  0  0  0  0  0  0  0
    1.5080    2.9787   -6.1156 C   0  0  0  0  0  0  0  0  0  0  0  0
   -2.0537    5.7827  -10.8822 C   0  0  2  0  0  0  0  0  0  0  0  0
   -0.2632    4.6833   -9.5951 C   0  0  2  0  0  0  0  0  0  0  0  0
    1.9715    4.3626   -6.0093 C   0  0  0  0  0  0  0  0  0  0  0  0
    0.9345    3.9394   -8.7475 C   0  0  1  0  0  0  0  0  0  0  0  0
    1.7212    4.9355   -4.8244 C   0  0  0  0  0  0  0  0  0  0  0  0
   -1.7136    2.9004   -8.9622 C   0  0  0  0  0  0  0  0  0  0  0  0
   -0.3786    2.0200   -8.1502 C   0  0  0  0  0  0  0  0  0  0  0  0
   -2.5951    5.7637   -9.4543 C   0  0  0  0  0  0  0  0  0  0  0  0
   -1.2574    5.5725   -8.6602 C   0  0  0  0  0  0  0  0  0  0  0  0
    2.0347    2.4139   -4.3678 C   0  0  0  0  0  0  0  0  0  0  0  0
    1.8057    5.1469   -8.5061 C   0  0  0  0  0  0  0  0  0  0  0  0
   -3.0674    6.6382  -11.9285 C   0  0  0  0  0  0  0  0  0  0  0  0
    1.9959    5.4140   -7.0602 C   0  0  0  0  0  0  0  0  0  0  0  0
    0.8876    4.1112   -3.8990 C   0  0  0  0  0  0  0  0  0  0  0  0
   -3.9828    7.3484  -11.4547 O   0  0  0  0  0  0  0  0  0  0  0  0
   -0.3202    3.7978   -4.0526 O   0  0  0  0  0  0  0  0  0  0  0  0
    1.7350    3.4056   -3.0125 C   0  0  0  0  0  0  0  0  0  0  0  0
   -1.2061    2.8191  -11.4104 C   0  0  0  0  0  0  0  0  0  0  0  0
   -1.1842    7.3861  -10.9010 C   0  0  0  0  0  0  0  0  0  0  0  0
   -2.5260    7.1326  -13.3572 C   0  0  0  0  0  0  0  0  0  0  0  0
  1 21  1  6
  2 10  1  0
  3  2  2  0
  4  1  1  0
  4 15  1  0
  4 22  1  1
  5  1  1  0
  6  3  1  0
  7  5  1  0
  7  2  1  0
  8  6  2  0
  8 17  1  0
  9  1  1  0
 10  9  1  0
 11  4  1  0
  5 12  1  1
 12 11  1  0
 13  3  1  0
  7 14  1  1
 16 14  1  0
 16  6  1  0
 17 20  1  0
 18 15  2  0
 19 17  2  0
 20 13  1  0
 23 15  1  0
M  END
>  <DRUGBANK_ID>  (1) 
DB13857

>  <COMMON_NAME>  (1) 
Demegestone

>  <CAS_NUMBER>  (1) 
10116-22-0

>  <UNII>  (1) 
6E89AM91SZ

>  <SYNONYMS>  (1) 
Demegestone

$$$$
