3033968
     RDKit          3D

 23 26  0  0  1  0  0  0  0  0999 V2000
   -0.0370   -2.1118    2.4794 O   0  0  0  0  0  0  0  0  0  0  0  0
   -6.8403   -0.8399   -6.7284 O   0  0  0  0  0  0  0  0  0  0  0  0
   -0.1040   -1.8173   -0.2433 C   0  0  2  0  0  0  0  0  0  0  0  0
   -1.9672   -1.2428   -2.5839 C   0  0  1  0  0  0  0  0  0  0  0  0
   -1.2752   -2.1165   -1.5432 C   0  0  2  0  0  0  0  0  0  0  0  0
   -1.7545   -1.6296   -4.0158 C   0  0  2  0  0  0  0  0  0  0  0  0
    0.4182   -2.0596   -2.2215 C   0  0  0  0  0  0  0  0  0  0  0  0
   -0.2021   -1.3368   -3.9560 C   0  0  0  0  0  0  0  0  0  0  0  0
   -3.2589   -1.4090   -4.8637 C   0  0  2  0  0  0  0  0  0  0  0  0
   -1.0930   -1.4889    1.8022 C   0  0  2  0  0  0  0  0  0  0  0  0
   -3.4018   -1.2661   -2.4267 C   0  0  0  0  0  0  0  0  0  0  0  0
    0.8833   -0.3834   -0.9827 C   0  0  0  0  0  0  0  0  0  0  0  0
   -1.9108   -1.8224   -0.3438 C   0  0  0  0  0  0  0  0  0  0  0  0
   -3.8853   -0.0892   -4.8084 C   0  0  0  0  0  0  0  0  0  0  0  0
   -3.9754    0.0012   -3.2550 C   0  0  0  0  0  0  0  0  0  0  0  0
   -1.3767   -0.8649    0.5409 C   0  0  0  0  0  0  0  0  0  0  0  0
   -5.0137   -1.9751   -4.2505 C   0  0  0  0  0  0  0  0  0  0  0  0
    0.3425    0.6780   -2.0460 C   0  0  0  0  0  0  0  0  0  0  0  0
   -6.3330   -0.9210   -4.4356 C   0  0  0  0  0  0  0  0  0  0  0  0
   -4.6790   -0.0218   -5.9554 C   0  0  0  0  0  0  0  0  0  0  0  0
   -2.4008   -2.2474    1.9597 C   0  0  0  0  0  0  0  0  0  0  0  0
   -6.0840   -0.5510   -5.8140 C   0  0  0  0  0  0  0  0  0  0  0  0
   -3.5226   -2.8980    2.0949 C   0  0  0  0  0  0  0  0  0  0  0  0
  2 22  2  0
  3  5  1  0
  3  7  1  0
  3 10  1  0
  3 12  1  1
  4  5  1  0
  4  6  1  0
  4 11  1  1
  5 13  1  1
  6  8  1  6
  6  9  1  0
  7  8  1  0
  9 14  1  0
  9 17  1  1
 10  1  1  1
 10 16  1  0
 10 21  1  0
 11 15  1  0
 12 18  1  0
 13 16  2  0
 14 15  1  0
 14 20  2  0
 17 19  1  0
 19 22  1  0
 20 22  1  0
 21 23  3  0
M  END
>  <DRUGBANK_ID>  (1) 
DB06730

>  <COMMON_NAME>  (1) 
Gestodene

>  <CAS_NUMBER>  (1) 
60282-87-3

>  <UNII>  (1) 
1664P6E6MI

>  <SYNONYMS>  (1) 
Gestodene; Gestodeno; Gestodenum

$$$$
