
     RDKit          3D

 37 41  0  0  0  0  0  0  0  0999 V2000
   -4.6938    4.9877   -1.5777 C   0  0  0  0  0  0  0  0  0  0  0  0
   -3.5870    4.9310   -0.7214 C   0  0  0  0  0  0  0  0  0  0  0  0
   -3.1364    3.7086   -0.2168 C   0  0  0  0  0  0  0  0  0  0  0  0
   -3.8171    2.5311   -0.5219 C   0  0  0  0  0  0  0  0  0  0  0  0
   -5.3369    3.7933   -1.9201 C   0  0  0  0  0  0  0  0  0  0  0  0
   -5.2539    6.3016   -2.0529 C   0  0  0  0  0  0  0  0  0  0  0  0
   -5.2205    6.4466   -3.4060 F   0  0  0  0  0  0  0  0  0  0  0  0
   -4.6038    7.3843   -1.5419 F   0  0  0  0  0  0  0  0  0  0  0  0
   -6.5616    6.4571   -1.6971 F   0  0  0  0  0  0  0  0  0  0  0  0
   -4.9447    2.5779   -1.3373 C   0  0  0  0  0  0  0  0  0  0  0  0
   -5.7198    1.3855   -1.5886 C   0  0  0  0  0  0  0  0  0  0  0  0
   -5.9699    0.9078   -2.8429 C   0  0  0  0  0  0  0  0  0  0  0  0
   -6.3934    0.6483   -0.6444 N   0  0  0  0  0  0  0  0  0  0  0  0
   -6.8109   -0.1718   -2.6601 N   0  0  0  0  0  0  0  0  0  0  0  0
   -7.0622   -0.3006   -1.2965 C   0  0  0  0  0  0  0  0  0  0  0  0
   -7.8967   -1.3487   -0.5439 C   0  0  0  0  0  0  0  0  0  0  0  0
   -7.5570   -3.3256   -2.0461 C   0  0  0  0  0  0  0  0  0  0  0  0
   -7.3268   -2.7640   -0.6605 C   0  0  0  0  0  0  0  0  0  0  0  0
   -9.3927   -1.3572   -0.8709 C   0  0  0  0  0  0  0  0  0  0  0  0
   -9.6440   -1.8888   -2.2631 C   0  0  0  0  0  0  0  0  0  0  0  0
   -8.9507   -3.1688   -2.5150 N   0  0  0  0  0  0  0  0  0  0  0  0
   -7.1721   -0.9049   -3.8438 C   0  0  0  0  0  0  0  0  0  0  0  0
   -5.5394    1.3591   -4.1489 C   0  0  0  0  0  0  0  0  0  0  0  0
   -6.4573    1.7387   -5.0941 C   0  0  0  0  0  0  0  0  0  0  0  0
   -5.9409    2.0212   -6.3183 C   0  0  0  0  0  0  0  0  0  0  0  0
   -4.6173    2.0018   -6.5751 N   0  0  0  0  0  0  0  0  0  0  0  0
   -4.2164    1.3003   -4.3605 N   0  0  0  0  0  0  0  0  0  0  0  0
   -3.7993    1.6738   -5.5656 C   0  0  0  0  0  0  0  0  0  0  0  0
   -2.4518    1.7789   -5.8152 N   0  0  0  0  0  0  0  0  0  0  0  0
   -1.4676    1.3253   -4.8562 C   0  0  1  0  0  0  0  0  0  0  0  0
   -1.1935   -0.1709   -5.0801 C   0  0  0  0  0  0  0  0  0  0  0  0
   -0.1786    2.1460   -4.9511 C   0  0  0  0  0  0  0  0  0  0  0  0
   -0.1297    3.4356   -5.5072 C   0  0  0  0  0  0  0  0  0  0  0  0
    1.0689    4.1595   -5.5257 C   0  0  0  0  0  0  0  0  0  0  0  0
    2.2243    3.6263   -4.9567 C   0  0  0  0  0  0  0  0  0  0  0  0
    2.1848    2.3745   -4.3609 C   0  0  0  0  0  0  0  0  0  0  0  0
    1.0026    1.6416   -4.3739 C   0  0  0  0  0  0  0  0  0  0  0  0
  1  2  2  0
  1  5  1  0
  1  6  1  0
  2  3  1  0
  3  4  2  0
  4 10  1  0
  5 10  2  0
  6  7  1  0
  6  9  1  0
  6  8  1  0
 10 11  1  0
 11 13  1  0
 11 12  2  0
 12 14  1  0
 12 23  1  0
 13 15  2  0
 14 15  1  0
 14 22  1  0
 15 16  1  0
 16 18  1  0
 16 19  1  0
 17 21  1  0
 17 18  1  0
 19 20  1  0
 20 21  1  0
 23 27  1  0
 23 24  2  0
 24 25  1  0
 25 26  2  0
 26 28  1  0
 27 28  2  0
 28 29  1  0
 30 31  1  6
 30 32  1  0
 30 29  1  0
 32 33  2  0
 32 37  1  0
 33 34  1  0
 34 35  2  0
 35 36  1  0
 36 37  2  0
M  END
>  <DRUGBANK_ID>  (1) 
DB01761

>  <SECONDARY_ACCESSION_NUMBERS>  (1) 
EXPT00004

>  <COMMON_NAME>  (1) 
4-[5-[2-(1-phenyl-ethylamino)-pyrimidin-4-yl]-1-methyl-4-(3-trifluoromethylphenyl)-1H-imidazol-2-yl]-piperidine

$$$$
