
     RDKit          3D

 26 29  0  0  0  0  0  0  0  0999 V2000
   -1.8264   -1.5443   -1.1875 C   0  0  2  0  0  0  0  0  0  0  0  0
   -3.1316   -1.4366   -2.9474 C   0  0  0  0  0  0  0  0  0  0  0  0
   -4.5103   -1.0241   -2.4262 C   0  0  0  0  0  0  0  0  0  0  0  0
   -3.9332    0.2839   -1.9306 C   0  0  0  0  0  0  0  0  0  0  0  0
   -2.3737    0.2182   -1.8069 C   0  0  0  0  0  0  0  0  0  0  0  0
   -2.4907   -0.4669   -0.4921 C   0  0  2  0  0  0  0  0  0  0  0  0
   -0.1474   -0.7986   -0.8065 C   0  0  1  0  0  0  0  0  0  0  0  0
    0.0038    0.7524    0.1055 C   0  0  2  0  0  0  0  0  0  0  0  0
   -1.1747    1.6181   -0.1630 C   0  0  0  0  0  0  0  0  0  0  0  0
   -2.0186    0.5815    0.4389 C   0  0  0  0  0  0  0  0  0  0  0  0
    1.1481   -1.3997    0.0577 C   0  0  0  0  0  0  0  0  0  0  0  0
    2.4414   -0.5835   -0.5231 C   0  0  0  0  0  0  0  0  0  0  0  0
    2.5978    0.9806    0.0223 C   0  0  2  0  0  0  0  0  0  0  0  0
    1.1959    1.5938   -0.2613 C   0  0  1  0  0  0  0  0  0  0  0  0
    1.2202    1.7829   -1.8634 C   0  0  0  0  0  0  0  0  0  0  0  0
    2.6584    1.9267   -2.2755 C   0  0  0  0  0  0  0  0  0  0  0  0
    3.1700    2.2666   -0.9418 C   0  0  0  0  0  0  0  0  0  0  0  0
    3.4044    3.4628   -0.7259 O   0  0  0  0  0  0  0  0  0  0  0  0
    3.2514    0.6328    1.3960 C   0  0  0  0  0  0  0  0  0  0  0  0
   -1.5241   -2.5285    0.1886 C   0  0  0  0  0  0  0  0  0  0  0  0
   -2.0387    0.4089    1.6624 O   0  0  0  0  0  0  0  0  0  0  0  0
   -4.5339    0.8958   -0.9725 N   0  0  0  0  0  0  0  0  0  0  0  0
   -4.9996   -0.1679   -0.1574 O   0  0  0  0  0  0  0  0  0  0  0  0
   -4.9159    0.0316    1.2569 C   0  0  0  0  0  0  0  0  0  0  0  0
   -4.5212    1.4153    1.8077 C   0  0  0  0  0  0  0  0  0  0  0  0
   -4.8562    2.5040    0.9023 N   0  0  0  0  0  0  0  0  0  0  0  0
  1  2  1  0
  1  7  1  0
  1 20  1  1
  2  3  1  0
  3  4  1  0
  4  5  1  0
  4 22  2  3
  6  5  1  6
  6  1  1  0
  7 11  1  1
  8  9  1  6
  8  7  1  0
  9 10  1  0
 10  6  1  0
 10 21  2  0
 11 12  1  0
 12 13  1  0
 13 17  1  0
 13 14  1  0
 13 19  1  1
 14  8  1  0
 14 15  1  6
 15 16  1  0
 16 17  1  0
 17 18  2  0
 22 23  1  0
 23 24  1  0
 24 25  1  0
 25 26  1  0
M  END
>  <DRUGBANK_ID>  (1) 
DB06157

>  <COMMON_NAME>  (1) 
Istaroxime

>  <CAS_NUMBER>  (1) 
203737-93-3

>  <UNII>  (1) 
W8I9H2TPPL

>  <SYNONYMS>  (1) 
(E,Z)-Istaroxime; 3-((2-Aminoethoxy)imino)-5alpha-androstan-6,17-dione; Istaroxime

$$$$
