
     RDKit          3D

 38 40  0  0  1  0  0  0  0  0999 V2000
    4.1335   -0.7551    5.3793 C   0  0  1  0  0  0  0  0  0  0  0  0
    3.1265   -0.0062    4.6138 N   0  0  0  0  0  0  0  0  0  0  0  0
    1.6963   -0.2619    4.8379 C   0  0  0  0  0  0  0  0  0  0  0  0
    0.8139    0.6028    3.9525 C   0  0  2  0  0  0  0  0  0  0  0  0
    1.3179    0.5408    2.5198 C   0  0  0  0  0  0  0  0  0  0  0  0
    1.0300    1.8614    1.8245 C   0  0  0  0  0  0  0  0  0  0  0  0
    1.8398    2.2792    0.8587 C   0  0  0  0  0  0  0  0  0  0  0  0
    1.5204    3.3844    0.1074 C   0  0  0  0  0  0  0  0  0  0  0  0
    0.4122    4.1325    0.3930 C   0  0  0  0  0  0  0  0  0  0  0  0
   -0.4054    3.6453    1.3085 C   0  0  0  0  0  0  0  0  0  0  0  0
   -0.0740    2.6048    2.2083 C   0  0  0  0  0  0  0  0  0  0  0  0
    0.8563    1.9935    4.4271 N   0  0  0  0  0  0  0  0  0  0  0  0
   -0.3801    2.6605    4.8598 C   0  0  0  0  0  0  0  0  0  0  0  0
   -0.3434    3.8627    5.2701 O   0  0  0  0  0  0  0  0  0  0  0  0
   -1.7025    1.9122    4.8166 C   0  0  0  0  0  0  0  0  0  0  0  0
   -1.7545    0.6210    5.2889 C   0  0  0  0  0  0  0  0  0  0  0  0
   -2.8850   -0.0882    5.3031 N   0  0  0  0  0  0  0  0  0  0  0  0
   -3.9884    0.5078    4.8139 C   0  0  0  0  0  0  0  0  0  0  0  0
   -3.8944    1.8053    4.3304 C   0  0  0  0  0  0  0  0  0  0  0  0
   -2.7714    2.5233    4.3265 N   0  0  0  0  0  0  0  0  0  0  0  0
    1.3321   -1.1287    5.6930 O   0  0  0  0  0  0  0  0  0  0  0  0
    5.3047   -1.1000    4.4739 C   0  0  0  0  0  0  0  0  0  0  0  0
    6.5011   -1.7764    5.1231 C   0  0  0  0  0  0  0  0  0  0  0  0
    6.1671   -3.2314    5.4091 C   0  0  0  0  0  0  0  0  0  0  0  0
    7.6944   -1.7056    4.1842 C   0  0  0  0  0  0  0  0  0  0  0  0
    4.6494    0.1403    6.6008 B   0  0  0  0  0  0  0  0  0  0  0  0
    5.9139    0.6058    6.8073 O   0  0  0  0  0  0  0  0  0  0  0  0
    5.8903    1.4165    8.0035 C   0  0  1  0  0  0  0  0  0  0  0  0
    4.5506    1.0623    8.6843 C   0  0  2  0  0  0  0  0  0  0  0  0
    3.8005    0.3771    7.6482 O   0  0  0  0  0  0  0  0  0  0  0  0
    3.8247    2.3194    9.1350 C   0  0  1  0  0  0  0  0  0  0  0  0
    2.7579    1.5902    9.9353 C   0  0  0  0  0  0  0  0  0  0  0  0
    3.3292    1.0802   11.1311 O   0  0  0  0  0  0  0  0  0  0  0  0
    4.3443    3.3924    9.9064 O   0  0  0  0  0  0  0  0  0  0  0  0
    7.0847    1.1510    8.9053 C   0  0  1  0  0  0  0  0  0  0  0  0
    8.3662    1.4917    8.1622 C   0  0  0  0  0  0  0  0  0  0  0  0
    8.3483    2.8623    7.7916 O   0  0  0  0  0  0  0  0  0  0  0  0
    6.9855    1.9554   10.0713 O   0  0  0  0  0  0  0  0  0  0  0  0
  1 26  1  0
  1 22  1  6
  1  2  1  0
  2  3  1  0
  3 21  2  0
  4 12  1  0
  4  5  1  6
  4  3  1  0
  5  6  1  0
  6  7  2  0
  6 11  1  0
  7  8  1  0
  8  9  2  0
 10  9  1  0
 11 10  2  0
 12 13  1  0
 13 14  2  0
 13 15  1  0
 15 16  2  0
 15 20  1  0
 16 17  1  0
 17 18  2  0
 19 18  1  0
 20 19  2  0
 22 23  1  0
 23 24  1  0
 23 25  1  0
 26 27  1  0
 26 30  1  0
 28 27  1  6
 28 29  1  0
 28 35  1  0
 29 31  1  0
 29 30  1  6
 31 32  1  0
 31 34  1  1
 32 33  1  0
 35 36  1  0
 35 38  1  1
 36 37  1  0
M  END
>  <DRUGBANK_ID>  (1) 
DB16741

>  <COMMON_NAME>  (1) 
Bortezomib D-mannitol

>  <CAS_NUMBER>  (1) 
444576-08-3

>  <UNII>  (1) 
P2AWN9VSQ6

>  <SYNONYMS>  (1) 
Bortezomib D-mannitol ester; Bortezomib D-mannitol symmetrical ester; Bortezomib mannitol boronic ester

$$$$
