
     RDKit          3D

 14 16  0  0  0  0  0  0  0  0999 V2000
    3.4015    0.6593    0.3348 C   0  0  0  0  0  0  0  0  0  0  0  0
    3.3565   -0.6713   -0.3991 C   0  0  0  0  0  0  0  0  0  0  0  0
    2.1226   -1.4566    0.0288 C   0  0  0  0  0  0  0  0  0  0  0  0
    0.8568   -0.6397    0.0120 C   0  0  0  0  0  0  0  0  0  0  0  0
    0.8902    0.7749   -0.0042 C   0  0  0  0  0  0  0  0  0  0  0  0
   -0.3226    1.4806   -0.0202 C   0  0  0  0  0  0  0  0  0  0  0  0
   -1.4858    0.7332    0.0178 C   0  0  0  0  0  0  0  0  0  0  0  0
   -1.4205   -0.6538    0.0619 C   0  0  0  0  0  0  0  0  0  0  0  0
   -0.2900   -1.3650    0.0644 N   0  0  0  0  0  0  0  0  0  0  0  0
   -2.7912   -1.2599    0.1561 C   0  0  0  0  0  0  0  0  0  0  0  0
   -3.6659   -0.0824   -0.2888 C   0  0  0  0  0  0  0  0  0  0  0  0
   -2.9020    1.1980    0.0706 C   0  0  0  0  0  0  0  0  0  0  0  0
   -0.3761    2.8635   -0.0469 N   0  0  0  0  0  0  0  0  0  0  0  0
    2.2057    1.5133   -0.0683 C   0  0  0  0  0  0  0  0  0  0  0  0
  1  2  1  0
  1 14  1  0
  2  3  1  0
  3  4  1  0
  4  5  2  0
  4  9  1  0
  5  6  1  0
  5 14  1  0
  6  7  2  0
  6 13  1  0
  7  8  1  0
  7 12  1  0
  8  9  2  0
  8 10  1  0
 10 11  1  0
 11 12  1  0
M  END
>  <DRUGBANK_ID>  (1) 
DB13668

>  <COMMON_NAME>  (1) 
Ipidacrine

>  <CAS_NUMBER>  (1) 
62732-44-9

>  <UNII>  (1) 
CV71VTP0VN

>  <SYNONYMS>  (1) 
Ipidacrine

$$$$
