896
     RDKit          3D

 26 27  0  0  0  0  0  0  0  0999 V2000
   -0.1694   -5.3027   -2.8219 O   0  0  0  0  0  0  0  0  0  0  0  0
   -0.3617   -4.3186   -3.5132 C   0  0  0  0  0  0  0  0  0  0  0  0
   -0.7126   -4.4863   -4.8727 N   0  0  0  0  0  0  0  0  0  0  0  0
   -0.8466   -5.8390   -5.4546 C   0  0  0  0  0  0  0  0  0  0  0  0
   -2.2412   -6.0928   -6.0276 C   0  0  0  0  0  0  0  0  0  0  0  0
   -0.9388   -3.3809   -5.7842 C   0  0  0  0  0  0  0  0  0  0  0  0
   -2.2740   -2.6771   -5.3819 C   0  0  0  0  0  0  0  0  0  0  0  0
    0.4017   -2.6192   -6.0075 C   0  0  0  0  0  0  0  0  0  0  0  0
   -0.2185   -2.9179   -2.8638 C   0  0  0  0  0  0  0  0  0  0  0  0
    0.1811   -2.8216   -1.5543 C   0  0  0  0  0  0  0  0  0  0  0  0
    0.2487   -1.6492   -0.8064 C   0  0  0  0  0  0  0  0  0  0  0  0
    0.0610   -0.4251   -1.4518 C   0  0  0  0  0  0  0  0  0  0  0  0
   -0.2668   -0.4391   -2.7935 C   0  0  0  0  0  0  0  0  0  0  0  0
   -0.5122    0.7287   -3.6994 C   0  0  0  0  0  0  0  0  0  0  0  0
   -0.4209   -1.6721   -3.4165 C   0  0  0  0  0  0  0  0  0  0  0  0
    0.4082   -1.6783    0.5468 O   0  0  0  0  0  0  0  0  0  0  0  0
    0.9785   -2.8371    1.1999 C   0  0  0  0  0  0  0  0  0  0  0  0
    0.2489   -4.2337    1.3012 C   0  0  2  0  0  0  0  0  0  0  0  0
    0.6755   -5.2895    0.2561 C   0  0  0  0  0  0  0  0  0  0  0  0
   -1.2124   -4.0890    1.3628 N   0  0  0  0  0  0  0  0  0  0  0  0
   -1.9102   -4.7808    2.3498 C   0  0  0  0  0  0  0  0  0  0  0  0
   -1.5630   -4.6316    3.6921 C   0  0  0  0  0  0  0  0  0  0  0  0
   -2.2576   -5.3386    4.6589 C   0  0  0  0  0  0  0  0  0  0  0  0
   -3.2486   -6.2083    4.3831 N   0  0  0  0  0  0  0  0  0  0  0  0
   -3.5578   -6.3628    3.0777 C   0  0  0  0  0  0  0  0  0  0  0  0
   -2.9317   -5.6782    2.0410 C   0  0  0  0  0  0  0  0  0  0  0  0
  1  2  2  0
  2  3  1  0
  2  9  1  0
  3  4  1  0
  3  6  1  0
  4  5  1  0
  6  7  1  0
  6  8  1  0
  9 10  2  0
  9 15  1  0
 10 11  1  0
 11 12  2  0
 11 16  1  0
 12 13  1  0
 13 14  1  0
 13 15  2  0
 16 17  1  0
 18 20  1  0
 18 19  1  6
 18 17  1  0
 20 21  1  0
 21 22  2  0
 21 26  1  0
 22 23  1  0
 23 24  2  0
 24 25  1  0
 25 26  2  0
M  END
>  <DRUGBANK_ID>  (1) 
DB07279

>  <COMMON_NAME>  (1) 
N-ETHYL-N-ISOPROPYL-3-METHYL-5-{[(2S)-2-(PYRIDIN-4-YLAMINO)PROPYL]OXY}BENZAMIDE

$$$$
