TPD
     RDKit          3D

 19 20  0  0  0  0  0  0  0  0999 V2000
    0.1360    1.2711    0.0005 C   0  0  0  0  0  0  0  0  0  0  0  0
    1.9863   -3.5775    1.2567 C   0  0  0  0  0  0  0  0  0  0  0  0
    1.3189   -4.0091    2.5045 C   0  0  0  0  0  0  0  0  0  0  0  0
    1.1458   -5.2981    2.9534 C   0  0  0  0  0  0  0  0  0  0  0  0
    0.3626   -5.3446    4.1362 C   0  0  0  0  0  0  0  0  0  0  0  0
   -0.0363   -4.0917    4.5462 C   0  0  0  0  0  0  0  0  0  0  0  0
   -0.9547    3.2274   -1.2993 O   0  0  0  0  0  0  0  0  0  0  0  0
   -0.9889    3.2637    1.2468 O   0  0  0  0  0  0  0  0  0  0  0  0
    1.1112    3.8518   -0.0358 N   0  0  0  0  0  0  0  0  0  0  0  0
   -0.3488    2.9810   -0.0192 S   0  0  0  0  0  0  0  0  0  0  0  0
    1.4099    0.7495   -0.0123 C   0  0  0  0  0  0  0  0  0  0  0  0
    1.4109   -0.6532   -0.1084 C   0  0  0  0  0  0  0  0  0  0  0  0
    0.1468   -1.2068   -0.0578 C   0  0  0  0  0  0  0  0  0  0  0  0
   -1.0538    0.0258    0.0002 S   0  0  0  0  0  0  0  0  0  0  0  0
   -0.3269   -2.9325   -0.0824 S   0  0  0  0  0  0  0  0  0  0  0  0
   -1.1599   -3.1798    1.0677 O   0  0  0  0  0  0  0  0  0  0  0  0
   -0.8075   -3.1984   -1.4203 O   0  0  0  0  0  0  0  0  0  0  0  0
    1.1261   -3.8161    0.0807 N   0  0  0  0  0  0  0  0  0  0  0  0
    0.6469   -2.8569    3.5839 S   0  0  0  0  0  0  0  0  0  0  0  0
  1 10  1  0
  1 11  2  0
  1 14  1  0
  2  3  1  0
  2 18  1  0
  3  4  2  0
  3 19  1  0
  4  5  1  0
  5  6  2  0
  6 19  1  0
  7 10  2  0
  8 10  2  0
  9 10  1  0
 11 12  1  0
 12 13  2  0
 13 14  1  0
 13 15  1  0
 15 16  2  0
 15 17  2  0
 15 18  1  0
M  END
>  <DRUGBANK_ID>  (1) 
DB02986

>  <SECONDARY_ACCESSION_NUMBERS>  (1) 
EXPT03089

>  <COMMON_NAME>  (1) 
N-(2-Thienylmethyl)-2,5-Thiophenedisulfonamide

$$$$
