
     RDKit          3D

 13 13  0  0  1  0  0  0  0  0999 V2000
    0.8679   -0.0241   -0.1783 C   0  0  0  0  0  0  0  0  0  0  0  0
    0.3201   -1.1790    0.4729 O   0  0  0  0  0  0  0  0  0  0  0  0
    1.1321   -2.3359    0.2391 C   0  0  2  0  0  0  0  0  0  0  0  0
    0.3988   -3.5677    0.3521 O   0  0  0  0  0  0  0  0  0  0  0  0
    0.0073   -4.0124    1.6665 C   0  0  2  0  0  0  0  0  0  0  0  0
   -1.2496   -3.2462    2.1405 C   0  0  0  0  0  0  0  0  0  0  0  0
   -2.3246   -3.4797    1.2296 O   0  0  0  0  0  0  0  0  0  0  0  0
    1.1625   -3.9850    2.6888 C   0  0  1  0  0  0  0  0  0  0  0  0
    2.3629   -5.3994    2.5319 S   0  0  0  0  0  0  0  0  0  0  0  0
    1.9028   -2.6434    2.6187 C   0  0  2  0  0  0  0  0  0  0  0  0
    1.0532   -1.6125    3.1548 O   0  0  0  0  0  0  0  0  0  0  0  0
    2.3491   -2.3057    1.1853 C   0  0  1  0  0  0  0  0  0  0  0  0
    3.3818   -3.1533    0.6916 O   0  0  0  0  0  0  0  0  0  0  0  0
  1  2  1  0
  3  2  1  1
  3  4  1  0
  3 12  1  0
  4  5  1  0
  5  6  1  1
  5  8  1  0
  6  7  1  0
  8 10  1  0
  8  9  1  6
 10 11  1  6
 10 12  1  0
 12 13  1  6
M  END
>  <DRUGBANK_ID>  (1) 
DB01648

>  <SECONDARY_ACCESSION_NUMBERS>  (1) 
EXPT01657

>  <COMMON_NAME>  (1) 
Methyl 4-thio-beta-D-glucopyranoside

>  <SYNONYMS>  (1) 
Methyl 4-thio-Î²-D-glucopyranoside

$$$$
