
     RDKit          3D

 10 10  0  0  1  0  0  0  0  0999 V2000
    3.3566   -0.5051    1.9901 O   0  0  0  0  0  0  0  0  0  0  0  0
    2.3274   -0.0349    2.8569 C   0  0  0  0  0  0  0  0  0  0  0  0
    0.9588   -0.5836    2.4171 C   0  0  1  0  0  0  0  0  0  0  0  0
    1.1216   -1.9762    2.0535 O   0  0  0  0  0  0  0  0  0  0  0  0
    0.5892   -2.7874    3.1064 C   0  0  2  0  0  0  0  0  0  0  0  0
   -0.5033   -3.5371    2.6033 O   0  0  0  0  0  0  0  0  0  0  0  0
    0.1708   -1.8624    4.2614 C   0  0  1  0  0  0  0  0  0  0  0  0
    1.2387   -1.7220    5.1997 O   0  0  0  0  0  0  0  0  0  0  0  0
   -0.0939   -0.5533    3.5284 C   0  0  2  0  0  0  0  0  0  0  0  0
   -1.4057   -0.5882    2.9512 O   0  0  0  0  0  0  0  0  0  0  0  0
  1  2  1  0
  3  4  1  0
  3  9  1  0
  3  2  1  1
  4  5  1  0
  5  6  1  6
  5  7  1  0
  7  9  1  0
  7  8  1  1
  9 10  1  6
M  END
>  <DRUGBANK_ID>  (1) 
DB01936

>  <SECONDARY_ACCESSION_NUMBERS>  (1) 
EXPT02783

>  <COMMON_NAME>  (1) 
alpha-D-arabinofuranose

>  <CAS_NUMBER>  (1) 
37388-49-1

>  <UNII>  (1) 
KE8VI99C5I

$$$$
