
     RDKit          3D

 26 28  0  0  1  0  0  0  0  0999 V2000
    1.0337   -0.1596    0.0497 C   0  0  0  0  0  0  0  0  0  0  0  0
    1.7946   -1.6881    2.2448 C   0  0  0  0  0  0  0  0  0  0  0  0
    2.9288   -0.1787   -4.7349 C   0  0  0  0  0  0  0  0  0  0  0  0
    2.4643   -4.3291   -3.4585 C   0  0  0  0  0  0  0  0  0  0  0  0
    0.2943   -1.4422   -0.4219 C   0  0  2  0  0  0  0  0  0  0  0  0
    0.8513   -0.5325    2.4496 C   0  0  0  0  0  0  0  0  0  0  0  0
    3.3300   -2.8145   -4.6794 C   0  0  0  0  0  0  0  0  0  0  0  0
    0.5068   -2.8440    0.1770 C   0  0  2  0  0  0  0  0  0  0  0  0
    1.3811   -3.5801   -0.7855 C   0  0  2  0  0  0  0  0  0  0  0  0
    4.0297   -2.0279   -5.6019 C   0  0  0  0  0  0  0  0  0  0  0  0
    2.4500   -2.1503   -3.8447 C   0  0  0  0  0  0  0  0  0  0  0  0
    0.8723   -3.0162   -2.0779 C   0  0  2  0  0  0  0  0  0  0  0  0
    4.9310   -2.5687   -6.4866 N   0  0  0  0  0  0  0  0  0  0  0  0
    3.8079   -0.6938   -5.6196 N   0  0  0  0  0  0  0  0  0  0  0  0
    2.2142   -0.8300   -3.8023 N   0  0  0  0  0  0  0  0  0  0  0  0
    3.3422   -4.1701   -4.4211 N   0  0  0  0  0  0  0  0  0  0  0  0
    1.8796   -3.1384   -3.1020 N   0  0  0  0  0  0  0  0  0  0  0  0
    0.3004   -0.3234    3.5144 O   0  0  0  0  0  0  0  0  0  0  0  0
   -0.7042   -3.5164    0.4983 O   0  0  0  0  0  0  0  0  0  0  0  0
    1.2345   -4.9830   -0.6082 O   0  0  0  0  0  0  0  0  0  0  0  0
    3.2480    0.0534    2.8572 O   0  0  0  0  0  0  0  0  0  0  0  0
    2.4077   -1.6400    4.6025 O   0  0  0  0  0  0  0  0  0  0  0  0
    4.6099   -1.4066    4.0909 O   0  0  0  0  0  0  0  0  0  0  0  0
    0.6048    0.2369    1.3625 O   0  0  0  0  0  0  0  0  0  0  0  0
    0.5326   -1.6363   -1.8249 O   0  0  0  0  0  0  0  0  0  0  0  0
    3.3196   -1.5356    3.2448 P   0  0  0  0  0  0  0  0  0  0  0  0
  5  1  1  1
  6  2  1  0
  8  5  1  0
  8 19  1  6
  9  8  1  0
  9 20  1  6
 10  7  2  0
 11  7  1  0
 12  9  1  0
 12 17  1  6
 13 10  1  0
 14  3  2  0
 14 10  1  0
 15  3  1  0
 15 11  2  0
 16  4  2  0
 16  7  1  0
 17  4  1  0
 17 11  1  0
 18  6  2  0
 24  1  1  0
 24  6  1  0
 25  5  1  0
 25 12  1  0
 26  2  1  0
 26 21  1  0
 26 22  1  0
 26 23  2  0
M  END
>  <DRUGBANK_ID>  (1) 
DB02607

>  <SECONDARY_ACCESSION_NUMBERS>  (1) 
EXPT02938

>  <COMMON_NAME>  (1) 
Adenosine Phosphonoacetic Acid

$$$$
