738
     RDKit          3D

 25 26  0  0  0  0  0  0  0  0999 V2000
    1.0031   -0.1695   -0.1989 O   0  0  0  0  0  0  0  0  0  0  0  0
    1.9354    5.2508    1.5409 O   0  0  0  0  0  0  0  0  0  0  0  0
    7.4234   -1.1494    0.3410 N   0  0  0  0  0  0  0  0  0  0  0  0
    1.2796    3.8688    7.8413 N   0  0  0  0  0  0  0  0  0  0  0  0
    7.2254    1.1395    0.1883 N   0  0  0  0  0  0  0  0  0  0  0  0
    1.8255    1.8403    6.8789 N   0  0  0  0  0  0  0  0  0  0  0  0
    2.0183    2.4700    0.8259 C   0  0  0  0  0  0  0  0  0  0  0  0
    0.5911    2.0242    1.0777 C   0  0  0  0  0  0  0  0  0  0  0  0
    2.2514    3.5144   -0.2207 C   0  0  0  0  0  0  0  0  0  0  0  0
    0.2682    1.1024   -0.1164 C   0  0  0  0  0  0  0  0  0  0  0  0
    1.5348    4.7533    0.2441 C   0  0  0  0  0  0  0  0  0  0  0  0
    2.3734   -0.2486   -0.3236 C   0  0  0  0  0  0  0  0  0  0  0  0
    1.7177    4.6595    2.7660 C   0  0  0  0  0  0  0  0  0  0  0  0
    3.1985    0.7869   -0.7160 C   0  0  0  0  0  0  0  0  0  0  0  0
    2.0907    3.3879    3.2467 C   0  0  0  0  0  0  0  0  0  0  0  0
    3.0495   -1.3982    0.0237 C   0  0  0  0  0  0  0  0  0  0  0  0
    1.3173    5.5182    3.7636 C   0  0  0  0  0  0  0  0  0  0  0  0
    5.1757   -0.1554    0.1892 C   0  0  0  0  0  0  0  0  0  0  0  0
    1.6098    3.7443    5.4560 C   0  0  0  0  0  0  0  0  0  0  0  0
    4.4910    0.9609   -0.2026 C   0  0  0  0  0  0  0  0  0  0  0  0
    1.9585    2.8738    4.4930 C   0  0  0  0  0  0  0  0  0  0  0  0
    4.4539   -1.3616    0.2403 C   0  0  0  0  0  0  0  0  0  0  0  0
    1.3413    5.0812    5.1077 C   0  0  0  0  0  0  0  0  0  0  0  0
    6.6654   -0.0347    0.2675 C   0  0  0  0  0  0  0  0  0  0  0  0
    1.5867    3.0921    6.7733 C   0  0  0  0  0  0  0  0  0  0  0  0
  1 10  1  0
  1 12  1  0
  2 11  1  0
  2 13  1  0
  3 24  1  0
  4 25  1  0
  5 24  2  0
  6 25  2  0
  7  8  1  0
  7  9  1  0
  8 10  1  0
  9 11  1  0
 12 14  2  0
 12 16  1  0
 13 15  2  0
 13 17  1  0
 14 20  1  0
 15 21  1  0
 16 22  2  0
 17 23  2  0
 18 20  2  0
 18 22  1  0
 18 24  1  0
 19 21  2  0
 19 23  1  0
 19 25  1  0
M  END
>  <DRUGBANK_ID>  (1) 
DB00738

>  <SECONDARY_ACCESSION_NUMBERS>  (1) 
APRD00303; EXPT02625

>  <COMMON_NAME>  (1) 
Pentamidine

>  <CAS_NUMBER>  (1) 
100-33-4

>  <UNII>  (1) 
673LC5J4LQ

>  <SYNONYMS>  (1) 
1,5-bis(4-amidinophenoxy)pentane; 4,4'-(1,5-pentanediylbis(oxy))bis-benzenecarboximidamide; 4,4'-(pentamethylenedioxy)dibenzamidine; 4,4'-Diamidinodiphenoxypentane; p,p'-(pentamethylenedioxy)dibenzamidine; Pentamidin; Pentamidina; Pentamidine; Pentamidinum

$$$$
