
     RDKit          3D

 23 25  0  0  0  0  0  0  0  0999 V2000
    1.0457   -0.0309   -0.2344 O   0  0  0  0  0  0  0  0  0  0  0  0
    2.2671    0.0729   -0.0849 C   0  0  0  0  0  0  0  0  0  0  0  0
    3.0878   -0.1613   -1.1803 N   0  0  0  0  0  0  0  0  0  0  0  0
    4.4860   -0.3823   -1.2447 C   0  0  0  0  0  0  0  0  0  0  0  0
    5.2150   -1.1107   -0.2766 C   0  0  0  0  0  0  0  0  0  0  0  0
    6.6172   -1.1511   -0.3806 C   0  0  0  0  0  0  0  0  0  0  0  0
    7.2853   -0.5689   -1.4478 C   0  0  0  0  0  0  0  0  0  0  0  0
    6.5569    0.0596   -2.4491 C   0  0  0  0  0  0  0  0  0  0  0  0
    5.1660    0.1742   -2.3414 C   0  0  0  0  0  0  0  0  0  0  0  0
    4.6146   -1.8870    0.8181 C   0  0  0  0  0  0  0  0  0  0  0  0
    3.5537   -2.7739    0.5981 C   0  0  0  0  0  0  0  0  0  0  0  0
    2.9517   -3.4356    1.6697 C   0  0  0  0  0  0  0  0  0  0  0  0
    3.3938   -3.2035    2.9723 C   0  0  0  0  0  0  0  0  0  0  0  0
    2.5208   -3.8512    4.3046 Cl  0  0  0  0  0  0  0  0  0  0  0  0
    4.4584   -2.3442    3.2104 C   0  0  0  0  0  0  0  0  0  0  0  0
    5.0712   -1.7038    2.1357 C   0  0  0  0  0  0  0  0  0  0  0  0
    2.8239    0.5317    1.2181 C   0  0  0  0  0  0  0  0  0  0  0  0
    2.3288    0.0821    2.4394 C   0  0  0  0  0  0  0  0  0  0  0  0
    0.9300   -0.9088    2.6253 Cl  0  0  0  0  0  0  0  0  0  0  0  0
    2.9571    0.2936    3.6332 N   0  0  0  0  0  0  0  0  0  0  0  0
    4.1112    0.9941    3.6129 C   0  0  0  0  0  0  0  0  0  0  0  0
    4.6248    1.5772    2.4689 C   0  0  0  0  0  0  0  0  0  0  0  0
    3.9575    1.3604    1.2627 C   0  0  0  0  0  0  0  0  0  0  0  0
  1  2  2  0
  2  3  1  0
  2 17  1  0
  3  4  1  0
  4  5  1  0
  4  9  2  0
  5  6  2  0
  5 10  1  0
  6  7  1  0
  7  8  2  0
  8  9  1  0
 10 11  2  0
 10 16  1  0
 11 12  1  0
 12 13  2  0
 13 14  1  0
 13 15  1  0
 15 16  2  0
 17 18  2  0
 17 23  1  0
 18 19  1  0
 18 20  1  0
 20 21  2  0
 21 22  1  0
 22 23  2  0
M  END
>  <DRUGBANK_ID>  (1) 
DB12792

>  <COMMON_NAME>  (1) 
Boscalid

>  <CAS_NUMBER>  (1) 
188425-85-6

>  <UNII>  (1) 
32MS8ZRD1V

>  <SYNONYMS>  (1) 
Endura

$$$$
