
     RDKit          3D

 24 26  0  0  0  0  0  0  0  0999 V2000
    0.9958   -0.0077    0.0206 S   0  0  0  0  0  0  0  0  0  0  0  0
    2.2135    3.1021   -1.5015 S   0  0  0  0  0  0  0  0  0  0  0  0
    6.3846    4.1290   -1.5406 O   0  0  0  0  0  0  0  0  0  0  0  0
    0.6216   -0.6612   -1.2159 O   0  0  0  0  0  0  0  0  0  0  0  0
    0.4748   -0.4870    1.2845 O   0  0  0  0  0  0  0  0  0  0  0  0
    2.2441    5.6442    1.3143 O   0  0  0  0  0  0  0  0  0  0  0  0
    0.4367    1.5963   -0.1340 N   0  0  0  0  0  0  0  0  0  0  0  0
    1.1472    3.6612    0.7909 N   0  0  0  0  0  0  0  0  0  0  0  0
    2.7724   -0.1078    0.1631 C   0  0  0  0  0  0  0  0  0  0  0  0
    3.5401    1.0203    0.3849 C   0  0  0  0  0  0  0  0  0  0  0  0
    3.4396   -1.3280    0.0216 C   0  0  0  0  0  0  0  0  0  0  0  0
    5.5859   -0.1547    0.0048 C   0  0  0  0  0  0  0  0  0  0  0  0
    4.9077    1.0398    0.1655 C   0  0  0  0  0  0  0  0  0  0  0  0
    4.8491   -1.3488   -0.0040 C   0  0  0  0  0  0  0  0  0  0  0  0
    1.1831    2.7754   -0.1479 C   0  0  0  0  0  0  0  0  0  0  0  0
    2.9630    4.3776   -0.5933 C   0  0  0  0  0  0  0  0  0  0  0  0
    5.0700    4.4882   -1.7918 C   0  0  0  0  0  0  0  0  0  0  0  0
    4.1642    4.9531   -0.7902 C   0  0  0  0  0  0  0  0  0  0  0  0
    7.0818   -0.1255   -0.0511 C   0  0  0  0  0  0  0  0  0  0  0  0
    2.0861    4.6639    0.5876 C   0  0  0  0  0  0  0  0  0  0  0  0
    6.9092    3.5957   -2.6849 C   0  0  0  0  0  0  0  0  0  0  0  0
    4.8324    4.2458   -3.1383 C   0  0  0  0  0  0  0  0  0  0  0  0
    5.9768    3.6395   -3.6919 C   0  0  0  0  0  0  0  0  0  0  0  0
    8.2968    3.0843   -2.6375 C   0  0  0  0  0  0  0  0  0  0  0  0
  1  4  2  0
  1  5  2  0
  1  7  1  0
  1  9  1  0
  2 15  1  0
  2 16  1  0
  3 17  1  0
  3 21  1  0
  6 20  2  0
  7 15  1  0
  8 15  2  0
  8 20  1  0
  9 10  2  0
  9 11  1  0
 10 13  1  0
 11 14  2  0
 12 13  2  0
 12 14  1  0
 12 19  1  0
 16 18  2  0
 16 20  1  0
 17 18  1  0
 17 22  2  0
 21 23  2  0
 21 24  1  0
 22 23  1  0
M  END
>  <DRUGBANK_ID>  (1) 
DB08481

>  <COMMON_NAME>  (1) 
4-Methyl-N-[5-(5-methyl-furan-2-ylmethylene)-4-oxo-thiazolidin-2-ylidene]-benzenesulfonamide

$$$$
