
     RDKit          3D

 37 39  0  0  1  0  0  0  0  0999 V2000
   14.0698    8.0411    9.7828 C   0  0  0  0  0  0  0  0  0  0  0  0
   14.1090    6.7713    9.0464 C   0  0  0  0  0  0  0  0  0  0  0  0
   13.5303    6.6921    7.8852 N   0  0  0  0  0  0  0  0  0  0  0  0
   13.6996    5.4409    7.3963 C   0  0  0  0  0  0  0  0  0  0  0  0
   14.4102    4.5325    8.1655 C   0  0  0  0  0  0  0  0  0  0  0  0
   14.8942    5.3618    9.6077 S   0  0  0  0  0  0  0  0  0  0  0  0
   14.7311    3.1347    7.9958 C   0  0  0  0  0  0  0  0  0  0  0  0
   15.4033    2.4626    8.8148 O   0  0  0  0  0  0  0  0  0  0  0  0
   14.2765    2.4179    6.9295 N   0  0  0  0  0  0  0  0  0  0  0  0
   13.6570    2.8459    5.6789 C   0  0  1  0  0  0  0  0  0  0  0  0
   14.5810    3.0425    4.4639 C   0  0  0  0  0  0  0  0  0  0  0  0
   15.2346    1.9121    3.9257 O   0  0  0  0  0  0  0  0  0  0  0  0
   16.0673    1.1330    4.7752 C   0  0  0  0  0  0  0  0  0  0  0  0
   12.2668    2.2746    5.4236 C   0  0  0  0  0  0  0  0  0  0  0  0
   11.2454    2.8974    5.7255 O   0  0  0  0  0  0  0  0  0  0  0  0
   12.1258    1.0430    4.8852 N   0  0  0  0  0  0  0  0  0  0  0  0
   13.1818    0.0528    4.7116 C   0  0  1  0  0  0  0  0  0  0  0  0
   13.4094   -0.9822    5.8359 C   0  0  0  0  0  0  0  0  0  0  0  0
   12.3529   -1.8636    6.1347 O   0  0  0  0  0  0  0  0  0  0  0  0
   11.0762   -1.3274    6.4243 C   0  0  0  0  0  0  0  0  0  0  0  0
   13.4773   -0.4070    3.2513 C   0  0  0  0  0  0  0  0  0  0  0  0
   14.3703    0.0051    2.5187 O   0  0  0  0  0  0  0  0  0  0  0  0
   12.6530   -1.3076    2.6852 N   0  0  0  0  0  0  0  0  0  0  0  0
   11.4677   -1.7857    3.3309 C   0  0  1  0  0  0  0  0  0  0  0  0
   10.2151   -1.0017    2.8034 C   0  0  0  0  0  0  0  0  0  0  0  0
    9.8884   -1.3329    1.3689 C   0  0  0  0  0  0  0  0  0  0  0  0
   10.5260   -2.4045    0.7813 C   0  0  0  0  0  0  0  0  0  0  0  0
    9.9169   -3.2253   -0.1426 C   0  0  0  0  0  0  0  0  0  0  0  0
    8.9675   -2.6736   -0.9275 C   0  0  0  0  0  0  0  0  0  0  0  0
    8.5033   -1.4078   -0.5849 C   0  0  0  0  0  0  0  0  0  0  0  0
    8.9061   -0.7578    0.6013 C   0  0  0  0  0  0  0  0  0  0  0  0
   11.5383   -3.3339    3.7227 C   0  0  0  0  0  0  0  0  0  0  0  0
   11.9275   -3.8402    4.7882 O   0  0  0  0  0  0  0  0  0  0  0  0
   10.8980   -4.2318    2.7666 C   0  0  1  0  0  0  0  0  0  0  0  0
   11.9447   -4.7640    1.6037 C   0  0  0  0  0  0  0  0  0  0  0  0
   11.3648   -5.5768    2.5850 O   0  0  0  0  0  0  0  0  0  0  0  0
    9.3971   -4.0835    2.9215 C   0  0  0  0  0  0  0  0  0  0  0  0
  1  2  1  0
  2  3  2  0
  2  6  1  0
  3  4  1  0
  4  5  2  0
  5  6  1  0
  5  7  1  0
  7  8  2  0
  7  9  1  0
 10  9  1  0
 10 11  1  6
 10 14  1  0
 11 12  1  0
 12 13  1  0
 14 15  2  0
 14 16  1  0
 17 16  1  0
 17 18  1  1
 17 21  1  0
 18 19  1  0
 19 20  1  0
 21 22  2  0
 21 23  1  0
 24 23  1  0
 24 25  1  6
 24 32  1  0
 25 26  1  0
 26 27  2  0
 26 31  1  0
 27 28  1  0
 28 29  2  0
 29 30  1  0
 30 31  2  0
 32 33  2  0
 34 35  1  0
 34 36  1  0
 34 37  1  6
 34 32  1  0
 35 36  1  0
M  END
>  <DRUGBANK_ID>  (1) 
DB11991

>  <COMMON_NAME>  (1) 
Oprozomib

>  <CAS_NUMBER>  (1) 
935888-69-0

>  <UNII>  (1) 
MZ37792Y8J

>  <SYNONYMS>  (1) 
Oprozomib

$$$$
