
     RDKit          3D

 26 29  0  0  0  0  0  0  0  0999 V2000
    1.0450    0.0143   -0.0372 C   0  0  0  0  0  0  0  0  0  0  0  0
    0.5790   -1.2135   -0.7248 C   0  0  0  0  0  0  0  0  0  0  0  0
   -0.3136   -1.3344   -1.7750 C   0  0  0  0  0  0  0  0  0  0  0  0
   -0.3238   -2.6796   -2.0880 N   0  0  0  0  0  0  0  0  0  0  0  0
    0.4891   -3.3158   -1.1612 C   0  0  0  0  0  0  0  0  0  0  0  0
    1.0325   -2.4519   -0.3288 N   0  0  0  0  0  0  0  0  0  0  0  0
    0.6293   -4.7417   -1.2871 C   0  0  0  0  0  0  0  0  0  0  0  0
   -0.0062   -5.3403   -2.2932 C   0  0  0  0  0  0  0  0  0  0  0  0
   -0.8313   -4.5247   -3.2071 C   0  0  0  0  0  0  0  0  0  0  0  0
   -1.0059   -3.2444   -3.1313 N   0  0  0  0  0  0  0  0  0  0  0  0
    1.3805   -5.4784   -0.3699 N   0  0  0  0  0  0  0  0  0  0  0  0
    2.5285   -6.3158   -0.7373 C   0  0  0  0  0  0  0  0  0  0  0  0
    2.3162   -7.7291   -0.1784 C   0  0  0  0  0  0  0  0  0  0  0  0
    2.0960   -7.7067    1.2437 O   0  0  0  0  0  0  0  0  0  0  0  0
    0.9514   -6.8915    1.5637 C   0  0  0  0  0  0  0  0  0  0  0  0
    1.1347   -5.4414    1.0779 C   0  0  0  0  0  0  0  0  0  0  0  0
   -1.0449   -0.3373   -2.5297 C   0  0  0  0  0  0  0  0  0  0  0  0
   -0.3729    0.5404   -3.3494 C   0  0  0  0  0  0  0  0  0  0  0  0
   -1.1075    1.2250   -4.3096 C   0  0  0  0  0  0  0  0  0  0  0  0
   -2.4222    1.5454   -3.9929 C   0  0  0  0  0  0  0  0  0  0  0  0
   -3.1184    0.7516   -3.1502 N   0  0  0  0  0  0  0  0  0  0  0  0
   -2.4284   -0.2578   -2.5478 C   0  0  0  0  0  0  0  0  0  0  0  0
   -3.0527    2.8551   -4.4782 C   0  0  0  0  0  0  0  0  0  0  0  0
   -2.6483    4.2299   -3.8228 C   0  0  0  0  0  0  0  0  0  0  0  0
   -1.3286    4.7591   -4.0615 O   0  0  0  0  0  0  0  0  0  0  0  0
   -0.3427    4.0058   -3.3939 C   0  0  0  0  0  0  0  0  0  0  0  0
  1  2  1  0
  2  3  2  0
  2  6  1  0
  3  4  1  0
  3 17  1  0
  4  5  1  0
  4 10  1  0
  5  6  2  0
  5  7  1  0
  7  8  2  0
  7 11  1  0
  8  9  1  0
  9 10  2  0
 11 12  1  0
 11 16  1  0
 12 13  1  0
 13 14  1  0
 14 15  1  0
 15 16  1  0
 17 18  2  0
 17 22  1  0
 18 19  1  0
 19 20  2  0
 20 21  1  0
 20 23  1  0
 21 22  2  0
 23 24  1  0
 24 25  1  0
 25 26  1  0
M  END
>  <DRUGBANK_ID>  (1) 
DB12657

>  <COMMON_NAME>  (1) 
JNJ-42396302

>  <CAS_NUMBER>  (1) 
1298030-18-8

>  <UNII>  (1) 
P5M4972608

$$$$
