
     RDKit          3D

 13 13  0  0  0  0  0  0  0  0999 V2000
    1.3099   -0.2416    0.0979 C   0  0  0  0  0  0  0  0  0  0  0  0
    0.4386   -1.3284    0.0177 C   0  0  0  0  0  0  0  0  0  0  0  0
    0.7561    1.0489    0.1541 C   0  0  0  0  0  0  0  0  0  0  0  0
   -0.9406   -1.1219   -0.0245 C   0  0  0  0  0  0  0  0  0  0  0  0
   -0.6159    1.2596    0.0925 C   0  0  0  0  0  0  0  0  0  0  0  0
   -1.4660    0.1701   -0.0065 C   0  0  0  0  0  0  0  0  0  0  0  0
    2.7994   -0.4892    0.1578 C   0  0  0  0  0  0  0  0  0  0  0  0
    3.5629    0.0660   -1.0528 C   0  0  0  0  0  0  0  0  0  0  0  0
    3.5389    1.5976   -1.1691 C   0  0  0  0  0  0  0  0  0  0  0  0
    3.9803    2.3083    0.1170 C   0  0  0  0  0  0  0  0  0  0  0  0
    6.2168    3.1256    0.4150 O   0  0  0  0  0  0  0  0  0  0  0  0
    5.4341    2.0314    0.4070 C   0  0  0  0  0  0  0  0  0  0  0  0
    5.8870    0.9134    0.6240 O   0  0  0  0  0  0  0  0  0  0  0  0
  1  7  1  0
  2  1  2  0
  3  1  1  0
  4  2  1  0
  5  3  2  0
  6  4  2  0
  6  5  1  0
  8  7  1  0
  9  8  1  0
 10  9  1  0
 11 12  1  0
 12 10  1  0
 12 13  2  0
M  END
>  <DRUGBANK_ID>  (1) 
DB04051

>  <SECONDARY_ACCESSION_NUMBERS>  (1) 
EXPT00258

>  <COMMON_NAME>  (1) 
5-phenylpentanoic acid

>  <CAS_NUMBER>  (1) 
2270-20-4

>  <UNII>  (1) 
XYJ5U8LCQ8

>  <SYNONYMS>  (1) 
5-Phenylvaleric acid; Benzenepentanoic-acid; Phenylpentanoic acid; Phenylvaleric acid; Î´-phenylvaleric acid

$$$$
