
     RDKit          3D

  9  8  0  0  1  0  0  0  0  0999 V2000
    0.7109   -0.1048    0.0928 C   0  0  0  0  0  0  0  0  0  0  0  0
    2.5338   -0.1223    0.0451 S   0  0  0  0  0  0  0  0  0  0  0  0
    2.9652    0.6600   -1.5738 C   0  0  0  0  0  0  0  0  0  0  0  0
    2.5041   -0.0794   -2.8374 C   0  0  0  0  0  0  0  0  0  0  0  0
    0.9856   -0.0031   -3.0076 C   0  0  2  0  0  0  0  0  0  0  0  0
    0.3695   -1.3378   -3.0765 N   0  0  0  0  0  0  0  0  0  0  0  0
    0.5262    0.8666   -4.1734 C   0  0  0  0  0  0  0  0  0  0  0  0
   -0.2571    1.9072   -3.7890 O   0  0  0  0  0  0  0  0  0  0  0  0
    0.7703    0.6309   -5.3496 O   0  0  0  0  0  0  0  0  0  0  0  0
  1  2  1  0
  2  3  1  0
  3  4  1  0
  5  7  1  0
  5  6  1  6
  5  4  1  0
  7  8  1  0
  7  9  2  0
M  ISO  1   1  11
M  END
>  <DRUGBANK_ID>  (1) 
DB17147

>  <COMMON_NAME>  (1) 
Methionine C-11

>  <CAS_NUMBER>  (1) 
60305-58-0

>  <UNII>  (1) 
ED857BWP29

>  <SYNONYMS>  (1) 
11c-methionine; 2-Amino-4-[11C]methylsulfanyl-butanoic acid, l-[S methyl[11C]methionine; L-(s-methyl-11c)methionine; L-11c-methylmethionine; L-methionine ((11c)methyl); Methionine (11c)

$$$$
