
     RDKit          3D

 26 29  0  0  0  0  0  0  0  0999 V2000
    0.8509   -0.2952    0.2726 C   0  0  0  0  0  0  0  0  0  0  0  0
    0.3607    0.1683    1.6249 C   0  0  0  0  0  0  0  0  0  0  0  0
   -0.0762   -0.5810    2.6381 N   0  0  0  0  0  0  0  0  0  0  0  0
   -0.3734    0.2921    3.6942 C   0  0  0  0  0  0  0  0  0  0  0  0
   -0.8480    0.1662    5.0209 C   0  0  0  0  0  0  0  0  0  0  0  0
   -0.9484    1.3136    5.7928 N   0  0  0  0  0  0  0  0  0  0  0  0
   -0.6648    2.5355    5.2754 C   0  0  0  0  0  0  0  0  0  0  0  0
   -0.2738    2.7236    4.0078 N   0  0  0  0  0  0  0  0  0  0  0  0
   -0.1179    1.5922    3.2940 C   0  0  0  0  0  0  0  0  0  0  0  0
    0.3489    1.5013    2.0009 N   0  0  0  0  0  0  0  0  0  0  0  0
    0.7803    2.6562    1.2216 C   0  0  0  0  0  0  0  0  0  0  0  0
    2.2589    2.5810    0.8399 C   0  0  0  0  0  0  0  0  0  0  0  0
   -0.1411    2.9333    0.0334 C   0  0  0  0  0  0  0  0  0  0  0  0
   -0.8258    3.6460    6.0669 N   0  0  0  0  0  0  0  0  0  0  0  0
   -0.0824    3.8693    7.3067 C   0  0  0  0  0  0  0  0  0  0  0  0
   -1.0700    4.2771    8.4183 C   0  0  0  0  0  0  0  0  0  0  0  0
   -1.8568    5.4224    8.0302 O   0  0  0  0  0  0  0  0  0  0  0  0
   -2.5912    5.1384    6.8226 C   0  0  0  0  0  0  0  0  0  0  0  0
   -1.6394    4.7887    5.6542 C   0  0  0  0  0  0  0  0  0  0  0  0
   -1.1513   -1.1128    5.6774 C   0  0  0  0  0  0  0  0  0  0  0  0
   -2.3809   -1.4631    6.2104 C   0  0  0  0  0  0  0  0  0  0  0  0
   -2.6485   -2.6281    6.8782 N   0  0  0  0  0  0  0  0  0  0  0  0
   -1.6291   -3.4718    7.0365 C   0  0  0  0  0  0  0  0  0  0  0  0
   -0.3981   -3.2466    6.5835 N   0  0  0  0  0  0  0  0  0  0  0  0
   -0.1940   -2.0772    5.9140 C   0  0  0  0  0  0  0  0  0  0  0  0
   -1.8401   -4.6497    7.7123 N   0  0  0  0  0  0  0  0  0  0  0  0
  1  2  1  0
  2  3  2  0
  2 10  1  0
  3  4  1  0
  4  5  2  0
  4  9  1  0
  5  6  1  0
  5 20  1  0
  6  7  2  0
  7  8  1  0
  7 14  1  0
  8  9  2  0
  9 10  1  0
 10 11  1  0
 11 12  1  0
 11 13  1  0
 14 15  1  0
 14 19  1  0
 15 16  1  0
 16 17  1  0
 17 18  1  0
 18 19  1  0
 20 21  2  0
 20 25  1  0
 21 22  1  0
 22 23  2  0
 23 24  1  0
 23 26  1  0
 24 25  2  0
M  END
>  <DRUGBANK_ID>  (1) 
DB12986

>  <COMMON_NAME>  (1) 
VS-5584

>  <CAS_NUMBER>  (1) 
1246560-33-7

>  <UNII>  (1) 
W71J4X250V

>  <SYNONYMS>  (1) 
2-pyrimidinamine, 5-(8-methyl-9-(1-methylethyl)-2-(4-morpholinyl)-9H-purin-6-yl)-; 5-[8-methyl-9-(1-methylethyl)-2-(4-morpholinyl)-9H-purin-6yl]-2-pyrimidinamine

$$$$
