
     RDKit          3D

 20 20  0  0  0  0  0  0  0  0999 V2000
   -0.3125    1.1783   -0.2051 C   0  0  1  0  0  0  0  0  0  0  0  0
    1.8309   -0.0634   -0.1068 O   0  0  0  0  0  0  0  0  0  0  0  0
    1.9467    2.3724   -0.4270 C   0  0  1  0  0  0  0  0  0  0  0  0
   -0.9948   -0.0635    0.3973 C   0  0  2  0  0  0  0  0  0  0  0  0
   -1.1615    2.3400    0.0792 N   0  0  0  0  0  0  0  0  0  0  0  0
    1.1147   -1.2591   -0.0048 C   0  0  0  0  0  0  0  0  0  0  0  0
    1.4164    3.7623    0.0082 C   0  0  1  0  0  0  0  0  0  0  0  0
    3.3597    2.3372   -0.1558 O   0  0  0  0  0  0  0  0  0  0  0  0
   -0.2096   -1.2857    0.1807 C   0  0  0  0  0  0  0  0  0  0  0  0
   -2.2861   -0.3449   -0.1260 O   0  0  0  0  0  0  0  0  0  0  0  0
   -2.3183    2.4190   -0.6732 C   0  0  0  0  0  0  0  0  0  0  0  0
    1.9074   -2.5376   -0.0636 C   0  0  0  0  0  0  0  0  0  0  0  0
    1.4240    3.9601    1.5368 C   0  0  0  0  0  0  0  0  0  0  0  0
    2.1650    4.8106   -0.6110 O   0  0  0  0  0  0  0  0  0  0  0  0
   -3.4185    3.2810   -0.1512 C   0  0  0  0  0  0  0  0  0  0  0  0
   -2.4750    1.7382   -1.6872 O   0  0  0  0  0  0  0  0  0  0  0  0
    1.2209   -3.6962    0.0895 O   0  0  0  0  0  0  0  0  0  0  0  0
    3.1177   -2.5393   -0.1752 O   0  0  0  0  0  0  0  0  0  0  0  0
    2.7403    4.0229    2.0722 O   0  0  0  0  0  0  0  0  0  0  0  0
    1.1685    1.1878    0.2387 C   0  0  1  0  0  0  0  0  0  0  0  0
  1  4  1  0
  1  5  1  1
  2  6  1  0
  3  7  1  0
  3  8  1  1
  4  9  1  0
  4 10  1  6
  5 11  1  0
  6 12  1  0
  6  9  2  0
  7 13  1  0
  7 14  1  6
 11 15  1  0
 11 16  2  0
 12 17  1  0
 12 18  2  0
 13 19  1  0
 20  1  1  0
 20  2  1  6
 20  3  1  0
M  END
>  <DRUGBANK_ID>  (1) 
DB03991

>  <SECONDARY_ACCESSION_NUMBERS>  (1) 
EXPT01111

>  <COMMON_NAME>  (1) 
2-deoxy-2,3-dehydro-N-acetylneuraminic acid

>  <CAS_NUMBER>  (1) 
24967-27-9

>  <UNII>  (1) 
QR7675ZK8X

>  <SYNONYMS>  (1) 
Neu2en5Ac

$$$$
