
     RDKit          3D

 29 32  0  0  0  0  0  0  0  0999 V2000
    1.0303    0.1076    0.1043 C   0  0  0  0  0  0  0  0  0  0  0  0
   -2.8485    0.8941   -3.0286 C   0  0  0  0  0  0  0  0  0  0  0  0
    0.8818   -3.3988   -2.8662 C   0  0  0  0  0  0  0  0  0  0  0  0
    3.9347   -3.1882   -6.1920 C   0  0  0  0  0  0  0  0  0  0  0  0
   -3.2984    0.3212   -1.8485 C   0  0  0  0  0  0  0  0  0  0  0  0
   -1.9088    0.2424   -3.8499 C   0  0  0  0  0  0  0  0  0  0  0  0
    1.9766   -2.9471   -3.5844 C   0  0  0  0  0  0  0  0  0  0  0  0
    0.6534   -2.8946   -1.6479 C   0  0  0  0  0  0  0  0  0  0  0  0
    3.6716   -0.7444   -1.3033 C   0  0  0  0  0  0  0  0  0  0  0  0
    4.9804   -1.3960   -1.6760 C   0  0  0  0  0  0  0  0  0  0  0  0
    2.4418   -3.5088   -6.3340 C   0  0  0  0  0  0  0  0  0  0  0  0
    4.3133   -1.9254   -5.4063 C   0  0  0  0  0  0  0  0  0  0  0  0
    1.3532   -0.9931   -6.1974 C   0  0  0  0  0  0  0  0  0  0  0  0
    0.0553   -2.9155   -6.7344 C   0  0  0  0  0  0  0  0  0  0  0  0
    0.6483   -0.7033   -4.8267 C   0  0  0  0  0  0  0  0  0  0  0  0
   -0.5396   -2.9695   -5.3142 C   0  0  0  0  0  0  0  0  0  0  0  0
   -1.9961   -1.6333   -2.4435 C   0  0  0  0  0  0  0  0  0  0  0  0
   -2.8113   -0.9227   -1.5186 C   0  0  0  0  0  0  0  0  0  0  0  0
   -1.4611   -1.0692   -3.6346 C   0  0  0  0  0  0  0  0  0  0  0  0
    2.6249   -1.5763   -1.9079 C   0  0  0  0  0  0  0  0  0  0  0  0
    2.9630   -2.1638   -3.1331 C   0  0  0  0  0  0  0  0  0  0  0  0
    1.3936   -1.8230   -1.2606 C   0  0  0  0  0  0  0  0  0  0  0  0
    5.2336   -1.3714   -3.1762 C   0  0  0  0  0  0  0  0  0  0  0  0
   -3.2535   -1.6167    0.0090 Cl  0  0  0  0  0  0  0  0  0  0  0  0
    1.4626   -2.4081   -6.7697 N   0  0  0  0  0  0  0  0  0  0  0  0
   -0.5567   -1.5936   -4.5934 N   0  0  0  0  0  0  0  0  0  0  0  0
    4.1276   -1.8211   -3.9151 N   0  0  0  0  0  0  0  0  0  0  0  0
    6.3153   -1.1167   -3.6328 O   0  0  0  0  0  0  0  0  0  0  0  0
    0.7422   -1.2160   -0.2463 O   0  0  0  0  0  0  0  0  0  0  0  0
  5  2  2  0
  6  2  1  0
  7  3  2  0
  8  3  1  0
 10  9  1  0
 11  4  1  0
 12  4  1  0
 15 13  1  0
 16 14  1  0
 18  5  1  0
 18 17  2  0
 19  6  2  0
 19 17  1  0
 20  9  1  0
 21  7  1  0
 21 20  2  0
 22  8  2  0
 22 20  1  0
 23 10  1  0
 24 18  1  0
 25 11  1  0
 25 13  1  0
 25 14  1  0
 26 15  1  0
 26 16  1  0
 26 19  1  0
 27 12  1  0
 27 21  1  0
 27 23  1  0
 28 23  2  0
 29  1  1  0
 29 22  1  0
M  END
>  <DRUGBANK_ID>  (1) 
DB05422

>  <COMMON_NAME>  (1) 
OPC-14523

>  <CAS_NUMBER>  (1) 
145969-30-8

>  <UNII>  (1) 
1981OTB4DS

$$$$
