
     RDKit          3D

 24 27  0  0  0  0  0  0  0  0999 V2000
    0.0216   -0.7202   -0.3926 C   0  0  2  0  0  0  0  0  0  0  0  0
    0.0516    0.8179   -0.0509 C   0  0  1  0  0  0  0  0  0  0  0  0
   -1.2978   -1.4237    0.0722 C   0  0  1  0  0  0  0  0  0  0  0  0
    1.2636   -1.4994    0.1342 C   0  0  0  0  0  0  0  0  0  0  0  0
    1.4470    1.5108   -0.3285 C   0  0  1  0  0  0  0  0  0  0  0  0
   -1.2654    1.5282   -0.4676 C   0  0  0  0  0  0  0  0  0  0  0  0
   -2.5278   -0.6227   -0.4683 C   0  0  2  0  0  0  0  0  0  0  0  0
   -1.3186   -2.8475   -0.5434 C   0  0  0  0  0  0  0  0  0  0  0  0
    2.5128   -0.8084   -0.3371 C   0  0  0  0  0  0  0  0  0  0  0  0
    2.5817    0.5674    0.3414 C   0  0  1  0  0  0  0  0  0  0  0  0
    2.0983    1.9762   -1.6912 C   0  0  0  0  0  0  0  0  0  0  0  0
   -2.5283    0.7968    0.1442 C   0  0  0  0  0  0  0  0  0  0  0  0
   -3.8279   -1.4231   -0.8346 C   0  0  0  0  0  0  0  0  0  0  0  0
   -2.5248   -3.4823    0.0258 C   0  0  0  0  0  0  0  0  0  0  0  0
    3.8930    1.4148   -0.0541 C   0  0  1  0  0  0  0  0  0  0  0  0
    3.5646    1.5671   -1.5617 C   0  0  0  0  0  0  0  0  0  0  0  0
   -3.8036   -2.9425   -0.5429 C   0  0  0  0  0  0  0  0  0  0  0  0
   -2.4968   -4.2462    1.1210 C   0  0  0  0  0  0  0  0  0  0  0  0
    3.9926    2.1399    1.2738 C   0  0  0  0  0  0  0  0  0  0  0  0
    5.2995    1.2355   -0.1541 O   0  0  0  0  0  0  0  0  0  0  0  0
   -4.7087   -3.6767   -0.8208 O   0  0  0  0  0  0  0  0  0  0  0  0
   -1.3438   -4.6076    1.7834 O   0  0  0  0  0  0  0  0  0  0  0  0
    2.2482    0.3620    1.9417 C   0  0  0  0  0  0  0  0  0  0  0  0
   -1.3055   -1.5087    1.6553 C   0  0  0  0  0  0  0  0  0  0  0  0
  1  2  1  0
  1  3  1  0
  1  4  1  1
  2  5  1  0
  2  6  1  6
  3  7  1  0
  3  8  1  0
  3 24  1  1
  4  9  1  0
  5 10  1  0
  5 11  1  6
  6 12  1  0
  7 13  1  1
  7 12  1  0
  8 14  1  0
  9 10  1  0
 10 15  1  0
 10 23  1  1
 11 16  1  0
 13 17  1  0
 14 17  1  0
 14 18  2  0
 15 16  1  0
 15 20  1  0
 15 19  1  1
 17 21  2  0
 18 22  1  0
M  END
>  <DRUGBANK_ID>  (1) 
DB06412

>  <COMMON_NAME>  (1) 
Oxymetholone

>  <CAS_NUMBER>  (1) 
434-07-1

>  <UNII>  (1) 
L76T0ZCA8K

>  <SYNONYMS>  (1) 
17β-Hydroxy-2-hydroxymethylidene-17α-methyl-3-androstanone; Oximetolona; Oxymetholon; Oxymétholone; Oxymetholone; Oxymetholonum

$$$$
