
     RDKit          3D

 30 33  0  0  1  0  0  0  0  0999 V2000
   -6.1017   -9.4283    2.1491 C   0  0  0  0  0  0  0  0  0  0  0  0
   -5.6214   -8.0125    2.4807 C   0  0  2  0  0  0  0  0  0  0  0  0
   -4.0968   -6.9166    1.7893 C   0  0  0  0  0  0  0  0  0  0  0  0
   -5.0970   -6.3033    2.3438 C   0  0  2  0  0  0  0  0  0  0  0  0
   -5.5372   -4.9659    2.7348 C   0  0  2  0  0  0  0  0  0  0  0  0
   -5.6690   -3.9021    1.6536 C   0  0  0  0  0  0  0  0  0  0  0  0
   -6.4797   -2.7241    2.2329 C   0  0  1  0  0  0  0  0  0  0  0  0
   -5.8926   -2.2167    3.5656 C   0  0  0  0  0  0  0  0  0  0  0  0
   -5.9271   -0.9007    3.8561 C   0  0  0  0  0  0  0  0  0  0  0  0
   -5.1833   -0.3171    5.0157 C   0  0  0  0  0  0  0  0  0  0  0  0
   -5.3264    0.8611    5.3168 O   0  0  0  0  0  0  0  0  0  0  0  0
   -4.3232   -1.2210    5.8548 C   0  0  0  0  0  0  0  0  0  0  0  0
   -4.0498   -2.3873    5.2147 C   0  0  0  0  0  0  0  0  0  0  0  0
   -5.2568   -3.1597    4.6441 C   0  0  2  0  0  0  0  0  0  0  0  0
   -4.7757   -4.5423    4.0743 C   0  0  1  0  0  0  0  0  0  0  0  0
   -4.4244   -5.5353    5.2986 C   0  0  2  0  0  0  0  0  0  0  0  0
   -3.6494   -6.7531    4.7789 C   0  0  0  0  0  0  0  0  0  0  0  0
   -4.3529   -7.3894    3.5872 C   0  0  1  0  0  0  0  0  0  0  0  0
   -5.5558   -8.0390    4.0278 C   0  0  1  0  0  0  0  0  0  0  0  0
   -6.6112   -7.2659    4.8963 C   0  0  0  0  0  0  0  0  0  0  0  0
   -6.7444   -7.6678    6.0735 O   0  0  0  0  0  0  0  0  0  0  0  0
   -7.5039   -5.9014    4.5201 C   0  0  0  0  0  0  0  0  0  0  0  0
   -7.6885   -4.6056    4.0377 O   0  0  0  0  0  0  0  0  0  0  0  0
   -5.0730   -9.1966    4.7251 O   0  0  0  0  0  0  0  0  0  0  0  0
   -3.3518   -8.7325    2.6829 C   0  0  0  0  0  0  0  0  0  0  0  0
   -5.2551   -5.6994    6.4528 O   0  0  0  0  0  0  0  0  0  0  0  0
   -3.5071   -4.3195    3.5214 F   0  0  0  0  0  0  0  0  0  0  0  0
   -6.1917   -3.2747    5.8977 C   0  0  0  0  0  0  0  0  0  0  0  0
   -5.0261   -1.1398    7.5188 Cl  0  0  0  0  0  0  0  0  0  0  0  0
   -6.5124   -1.7322    1.2994 F   0  0  0  0  0  0  0  0  0  0  0  0
  2  1  1  6
  2  3  1  0
  2 19  1  0
  4  3  1  6
  4  5  1  0
  4 18  1  0
  5  6  1  6
  5 15  1  0
  6  7  1  0
  7  8  1  0
  7 30  1  6
  8  9  2  0
  8 14  1  0
  9 10  1  0
 10 11  2  0
 10 12  1  0
 12 13  2  0
 12 29  1  0
 13 14  1  0
 14 15  1  0
 14 28  1  1
 15 16  1  0
 15 27  1  6
 16 17  1  0
 16 26  1  6
 17 18  1  0
 18 19  1  0
 18 25  1  6
 19 20  1  0
 19 24  1  1
 20 21  2  0
 20 22  1  0
 22 23  1  0
M  END
>  <DRUGBANK_ID>  (1) 
DB13728

>  <COMMON_NAME>  (1) 
Halometasone

>  <CAS_NUMBER>  (1) 
50629-82-8

>  <UNII>  (1) 
J69Z9UU41Z

>  <SYNONYMS>  (1) 
Halometasone

$$$$
