
     RDKit          3D

 30 33  0  0  0  0  0  0  0  0999 V2000
    0.9637    0.0807    0.1115 C   0  0  0  0  0  0  0  0  0  0  0  0
    0.4614    0.5901    1.3481 O   0  0  0  0  0  0  0  0  0  0  0  0
    0.8792   -0.1271    2.4368 C   0  0  0  0  0  0  0  0  0  0  0  0
    2.2090   -0.4876    2.6442 C   0  0  0  0  0  0  0  0  0  0  0  0
    2.5705   -1.2354    3.7642 C   0  0  0  0  0  0  0  0  0  0  0  0
    1.6089   -1.6212    4.6991 C   0  0  0  0  0  0  0  0  0  0  0  0
    1.9715   -2.3630    5.8317 C   0  0  0  0  0  0  0  0  0  0  0  0
    1.0061   -2.7768    6.7403 C   0  0  0  0  0  0  0  0  0  0  0  0
   -0.3390   -2.5012    6.4716 C   0  0  0  0  0  0  0  0  0  0  0  0
   -0.7007   -1.6660    5.4144 C   0  0  0  0  0  0  0  0  0  0  0  0
    0.2621   -1.2357    4.5023 C   0  0  0  0  0  0  0  0  0  0  0  0
   -0.0863   -0.4611    3.3851 C   0  0  0  0  0  0  0  0  0  0  0  0
    1.5096   -3.2784    7.9181 O   0  0  0  0  0  0  0  0  0  0  0  0
    0.5627   -3.6882    8.9089 C   0  0  0  0  0  0  0  0  0  0  0  0
   -0.2396   -2.5284    9.5615 C   0  0  0  0  0  0  0  0  0  0  0  0
   -0.0887   -1.0982    8.9088 C   0  0  0  0  0  0  0  0  0  0  0  0
   -0.1049   -0.5656   10.2371 N   0  0  0  0  0  0  0  0  0  0  0  0
    0.3770   -1.8187   10.8219 C   0  0  0  0  0  0  0  0  0  0  0  0
   -0.3245    0.7021   10.7160 C   0  0  0  0  0  0  0  0  0  0  0  0
   -0.2224    1.0034   11.9050 O   0  0  0  0  0  0  0  0  0  0  0  0
   -0.6596    1.7804    9.7201 C   0  0  0  0  0  0  0  0  0  0  0  0
   -1.8086    1.7241    8.9134 C   0  0  0  0  0  0  0  0  0  0  0  0
   -2.0523    2.7212    7.9539 C   0  0  0  0  0  0  0  0  0  0  0  0
   -1.1666    3.7852    7.8205 C   0  0  0  0  0  0  0  0  0  0  0  0
   -0.0574    3.8893    8.6510 C   0  0  0  0  0  0  0  0  0  0  0  0
    0.1908    2.8933    9.6083 C   0  0  0  0  0  0  0  0  0  0  0  0
   -1.3870    4.7205    6.8857 F   0  0  0  0  0  0  0  0  0  0  0  0
   -1.7094   -3.1117    9.7453 C   0  0  0  0  0  0  0  0  0  0  0  0
   -2.0985   -4.2540    9.5126 O   0  0  0  0  0  0  0  0  0  0  0  0
   -2.6584   -2.2406   10.1497 O   0  0  0  0  0  0  0  0  0  0  0  0
  1  2  1  0
  2  3  1  0
  3  4  2  0
  3 12  1  0
  4  5  1  0
  5  6  2  0
  6  7  1  0
  6 11  1  0
  7  8  2  0
  8  9  1  0
  8 13  1  0
  9 10  2  0
 10 11  1  0
 11 12  2  0
 13 14  1  0
 14 15  1  0
 15 16  1  0
 15 18  1  0
 15 28  1  0
 16 17  1  0
 17 18  1  0
 17 19  1  0
 19 20  2  0
 19 21  1  0
 21 22  2  0
 21 26  1  0
 22 23  1  0
 23 24  2  0
 24 25  1  0
 24 27  1  0
 25 26  2  0
 28 29  2  0
 28 30  1  0
M  END
>  <DRUGBANK_ID>  (1) 
DB12024

>  <COMMON_NAME>  (1) 
PF-04418948

>  <CAS_NUMBER>  (1) 
1078166-57-0

>  <UNII>  (1) 
I7Z38E70VF

$$$$
