804
     RDKit          3D

 22 23  0  0  0  0  0  0  0  0999 V2000
    0.9930    0.1707    0.0915 O   0  0  0  0  0  0  0  0  0  0  0  0
    1.0818    1.3857   -1.7967 O   0  0  0  0  0  0  0  0  0  0  0  0
    2.4457   -2.2815    1.1587 N   0  0  0  0  0  0  0  0  0  0  0  0
   -1.1829    0.7022   -0.9765 C   0  0  0  0  0  0  0  0  0  0  0  0
   -1.6720    0.3771   -2.4518 C   0  0  0  0  0  0  0  0  0  0  0  0
   -1.6653    2.0708   -0.4262 C   0  0  0  0  0  0  0  0  0  0  0  0
   -1.7123   -0.3814   -0.0044 C   0  0  0  0  0  0  0  0  0  0  0  0
   -1.2179    1.4412   -3.4629 C   0  0  0  0  0  0  0  0  0  0  0  0
   -3.1906    0.1588   -2.6003 C   0  0  0  0  0  0  0  0  0  0  0  0
   -3.1601    2.1849   -0.1310 C   0  0  0  0  0  0  0  0  0  0  0  0
   -3.1963   -0.3636    0.3673 C   0  0  0  0  0  0  0  0  0  0  0  0
   -1.7717    1.2035   -4.8549 C   0  0  0  0  0  0  0  0  0  0  0  0
   -3.7750    0.0429   -3.9814 C   0  0  0  0  0  0  0  0  0  0  0  0
   -3.6947    1.0313    0.7187 C   0  0  0  0  0  0  0  0  0  0  0  0
   -3.2872    1.1731   -4.8530 C   0  0  0  0  0  0  0  0  0  0  0  0
    0.4013    0.7760   -0.9629 C   0  0  0  0  0  0  0  0  0  0  0  0
    2.4349    0.0108    0.0102 C   0  0  0  0  0  0  0  0  0  0  0  0
    2.9499   -0.8893    1.1570 C   0  0  0  0  0  0  0  0  0  0  0  0
    3.0401   -3.1045    2.2245 C   0  0  0  0  0  0  0  0  0  0  0  0
    0.9811   -2.3903    1.1233 C   0  0  0  0  0  0  0  0  0  0  0  0
    2.7694   -2.6680    3.6629 C   0  0  0  0  0  0  0  0  0  0  0  0
    0.2403   -1.7102    2.2765 C   0  0  0  0  0  0  0  0  0  0  0  0
  1 16  1  0
  1 17  1  0
  2 16  2  0
  3 18  1  0
  3 19  1  0
  3 20  1  0
  4  5  1  0
  4  6  1  0
  4  7  1  0
  4 16  1  0
  5  8  1  0
  5  9  1  0
  6 10  1  0
  7 11  1  0
  8 12  1  0
  9 13  1  0
 10 14  1  0
 11 14  1  0
 12 15  1  0
 13 15  1  0
 17 18  1  0
 19 21  1  0
 20 22  1  0
M  END
>  <DRUGBANK_ID>  (1) 
DB00804

>  <SECONDARY_ACCESSION_NUMBERS>  (1) 
APRD00113

>  <COMMON_NAME>  (1) 
Dicyclomine

>  <CAS_NUMBER>  (1) 
77-19-0

>  <UNII>  (1) 
4KV4X8IF6V

>  <SYNONYMS>  (1) 
2-(diethylamino)ethyl 1-cyclohexylcyclohexanecarboxylate; Bicyclohexyl-1-carboxylic acid 2-diethylamino-ethyl ester; Dicicloverina; Dicyclomine; Dicycloverin; Dicycloverine; Dicycloverinum

$$$$
