
     RDKit          3D

 35 39  0  0  0  0  0  0  0  0999 V2000
   -2.4706    0.6290   -0.1782 C   0  0  0  0  0  0  0  0  0  0  0  0
   -2.4817   -0.7605   -0.0567 C   0  0  0  0  0  0  0  0  0  0  0  0
   -1.3077   -1.4781    0.1290 C   0  0  0  0  0  0  0  0  0  0  0  0
   -0.1086   -0.7956    0.1028 C   0  0  0  0  0  0  0  0  0  0  0  0
   -0.1652    0.5974    0.1598 C   0  0  0  0  0  0  0  0  0  0  0  0
   -1.3160    1.3158    0.0976 C   0  0  0  0  0  0  0  0  0  0  0  0
    1.1496   -1.3902    0.0169 C   0  0  0  0  0  0  0  0  0  0  0  0
    2.2446   -0.6356   -0.0418 N   0  0  0  0  0  0  0  0  0  0  0  0
    2.0122    0.6910    0.0966 C   0  0  0  0  0  0  0  0  0  0  0  0
    0.8761    1.3344    0.2210 N   0  0  0  0  0  0  0  0  0  0  0  0
    1.3080   -2.8776   -0.0558 C   0  0  0  0  0  0  0  0  0  0  0  0
    3.0791    1.6582   -0.0244 C   0  0  0  0  0  0  0  0  0  0  0  0
    3.0606    2.1923   -1.4349 N   0  0  0  0  0  0  0  0  0  0  0  0
    2.6495    3.4695   -1.5216 C   0  0  0  0  0  0  0  0  0  0  0  0
    3.1987    4.3257   -2.5403 N   0  0  0  0  0  0  0  0  0  0  0  0
    4.2903    3.8213   -3.4378 C   0  0  0  0  0  0  0  0  0  0  0  0
    4.1151    2.4822   -3.6988 C   0  0  0  0  0  0  0  0  0  0  0  0
    4.0766    2.0748   -2.2965 C   0  0  0  0  0  0  0  0  0  0  0  0
    5.0758    2.3013   -1.7237 O   0  0  0  0  0  0  0  0  0  0  0  0
    1.8033    3.8688   -0.7147 O   0  0  0  0  0  0  0  0  0  0  0  0
    2.0657    5.1690   -2.9842 C   0  0  0  0  0  0  0  0  0  0  0  0
    5.9615    3.5544   -3.1473 N   0  0  0  0  0  0  0  0  0  0  0  0
    6.3501    2.2424   -3.6454 C   0  0  0  0  0  0  0  0  0  0  0  0
    5.3380    2.4165   -4.5966 N   0  0  0  0  0  0  0  0  0  0  0  0
    6.6306    0.8660   -3.0764 N   0  0  0  0  0  0  0  0  0  0  0  0
    5.5558    0.0491   -2.3807 C   0  0  0  0  0  0  0  0  0  0  0  0
    5.5022    0.4291   -0.7039 C   0  0  1  0  0  0  0  0  0  0  0  0
    6.7462    0.0132   -0.0577 C   0  0  0  0  0  0  0  0  0  0  0  0
    7.8244    0.8384   -0.7891 C   0  0  0  0  0  0  0  0  0  0  0  0
    7.8826    0.5442   -2.2945 C   0  0  0  0  0  0  0  0  0  0  0  0
    5.7125    1.9075    0.1629 N   0  0  0  0  0  0  0  0  0  0  0  0
    5.5891    3.6233   -5.5217 C   0  0  0  0  0  0  0  0  0  0  0  0
    4.2905    3.4502   -6.2924 C   0  0  0  0  0  0  0  0  0  0  0  0
    3.1765    3.3017   -6.9535 C   0  0  0  0  0  0  0  0  0  0  0  0
    1.8778    3.1286   -7.7242 C   0  0  0  0  0  0  0  0  0  0  0  0
  1  2  2  0
  1  6  1  0
  2  3  1  0
  3  4  2  0
  4  5  1  0
  4  7  1  0
  5  6  2  0
  5 10  1  0
  7  8  2  0
  7 11  1  0
  8  9  1  0
  9 10  2  0
  9 12  1  0
 12 13  1  0
 13 14  1  0
 13 18  1  0
 14 15  1  0
 14 20  2  0
 15 16  1  0
 15 21  1  0
 16 17  2  0
 16 22  1  0
 17 18  1  0
 17 24  1  0
 18 19  2  0
 22 23  2  0
 23 24  1  0
 23 25  1  0
 25 26  1  0
 25 30  1  0
 26 27  1  0
 27 28  1  0
 27 31  1  6
 28 29  1  0
 29 30  1  0
 32 33  1  0
 32 24  1  0
 33 34  3  0
 34 35  1  0
M  END
>  <DRUGBANK_ID>  (1) 
DB08882

>  <COMMON_NAME>  (1) 
Linagliptin

>  <CAS_NUMBER>  (1) 
668270-12-0

>  <UNII>  (1) 
3X29ZEJ4R2

>  <SYNONYMS>  (1) 
(R)-8-(3-aminopiperidin-1-yl)-7-but-2-ynyl-3-methyl-1-(4-methylquinazolin-2-ylmethyl)-3,7-dihydro-purine-2,6-dione; Linagliptin; Linagliptina

$$$$
