
     RDKit          3D

  4  3  0  0  0  0  0  0  0  0999 V2000
    0.9983    0.0975   -0.0322 C   0  0  0  0  0  0  0  0  0  0  0  0
    0.5282    0.1468    1.3912 C   0  0  0  0  0  0  0  0  0  0  0  0
   -0.2431    1.2101    1.6982 O   0  0  0  0  0  0  0  0  0  0  0  0
    0.8168   -0.7072    2.2180 O   0  0  0  0  0  0  0  0  0  0  0  0
  1  2  1  0
  2  3  1  0
  2  4  2  0
M  ISO  1   2  11
M  END
>  <DRUGBANK_ID>  (1) 
DB15111

>  <COMMON_NAME>  (1) 
Acetic acid C-11

>  <CAS_NUMBER>  (1) 
78887-71-5

>  <UNII>  (1) 
2A9OM7IPNW

>  <SYNONYMS>  (1) 
[11C]Acetic Acid; 11C-ACETATE

$$$$
