
     RDKit          3D

 38 41  0  0  1  0  0  0  0  0999 V2000
    0.5541   -0.9656    3.9393 C   0  0  0  0  0  0  0  0  0  0  0  0
    1.2165    0.0519    3.0586 C   0  0  0  0  0  0  0  0  0  0  0  0
    0.9335    1.6757    3.5197 C   0  0  0  0  0  0  0  0  0  0  0  0
    1.6861    3.1366    2.3589 C   0  0  0  0  0  0  0  0  0  0  0  0
    2.3544    2.5898    0.5406 C   0  0  1  0  0  0  0  0  0  0  0  0
    3.5365    1.2193    0.5796 C   0  0  0  0  0  0  0  0  0  0  0  0
    2.7630   -0.2596    1.6071 C   0  0  0  0  0  0  0  0  0  0  0  0
    1.2239    1.8916   -0.4712 C   0  0  0  0  0  0  0  0  0  0  0  0
    1.0408    2.4326   -1.5638 O   0  0  0  0  0  0  0  0  0  0  0  0
    0.5123    0.6973   -0.1043 N   0  0  0  0  0  0  0  0  0  0  0  0
    0.8633   -0.0364    1.0327 C   0  0  1  0  0  0  0  0  0  0  0  0
    1.2389   -1.8202    1.0807 C   0  0  0  0  0  0  0  0  0  0  0  0
    2.0017   -2.4608    2.4660 C   0  0  0  0  0  0  0  0  0  0  0  0
    3.1705   -1.4995    3.3179 C   0  0  2  0  0  0  0  0  0  0  0  0
    2.9859    0.4048    3.5907 C   0  0  0  0  0  0  0  0  0  0  0  0
    1.9926    1.2283    1.9883 C   0  0  0  0  0  0  0  0  0  0  0  0
    4.1756   -1.8081    2.3067 O   0  0  0  0  0  0  0  0  0  0  0  0
    3.6392   -1.9598    4.6869 C   0  0  0  0  0  0  0  0  0  0  0  0
    4.6757   -1.0742    5.1540 O   0  0  0  0  0  0  0  0  0  0  0  0
    5.7980   -0.9047    4.2767 C   0  0  2  0  0  0  0  0  0  0  0  0
    5.7979    0.2754    3.2927 C   0  0  0  0  0  0  0  0  0  0  0  0
    6.3845   -0.1160    2.0634 O   0  0  0  0  0  0  0  0  0  0  0  0
    6.6295   -1.5287    2.1156 C   0  0  0  0  0  0  0  0  0  0  0  0
    6.1481   -2.1235    3.4423 C   0  0  0  0  0  0  0  0  0  0  0  0
   -0.6375    0.2411   -0.7177 C   0  0  0  0  0  0  0  0  0  0  0  0
   -1.8491   -0.1601   -0.1089 C   0  0  0  0  0  0  0  0  0  0  0  0
   -2.8453   -0.8575   -1.3483 S   0  0  0  0  0  0  0  0  0  0  0  0
   -1.6644   -0.6508   -2.5573 C   0  0  0  0  0  0  0  0  0  0  0  0
   -0.5135   -0.1106   -2.0755 C   0  0  0  0  0  0  0  0  0  0  0  0
   -1.8346   -0.9863   -3.9221 C   0  0  0  0  0  0  0  0  0  0  0  0
   -1.9879   -1.2364   -5.0841 C   0  0  0  0  0  0  0  0  0  0  0  0
   -2.2361   -1.5519   -6.5006 C   0  0  0  0  0  0  0  0  0  0  0  0
   -1.2386   -0.8023   -7.3870 C   0  0  0  0  0  0  0  0  0  0  0  0
   -2.0907   -3.0617   -6.7118 C   0  0  0  0  0  0  0  0  0  0  0  0
   -3.6569   -1.1159   -6.8707 C   0  0  0  0  0  0  0  0  0  0  0  0
   -2.4454   -0.0978    1.2600 C   0  0  0  0  0  0  0  0  0  0  0  0
   -3.4883   -0.6135    1.6472 O   0  0  0  0  0  0  0  0  0  0  0  0
   -1.7224    0.6119    2.1691 O   0  0  0  0  0  0  0  0  0  0  0  0
  1  2  1  0
  2  3  2  0
  2  7  1  0
  3  4  1  0
  4  5  1  0
  5  6  1  0
  5  8  1  6
  6  7  1  0
  8  9  2  0
  8 10  1  0
 10 25  1  0
 11 12  1  0
 11 16  1  0
 11 10  1  6
 12 13  1  0
 13 14  1  0
 14 15  1  0
 14 18  1  0
 14 17  1  6
 15 16  1  0
 18 19  1  0
 20 19  1  6
 20 21  1  0
 20 24  1  0
 21 22  1  0
 22 23  1  0
 23 24  1  0
 25 26  2  0
 25 29  1  0
 26 27  1  0
 26 36  1  0
 27 28  1  0
 28 29  2  0
 28 30  1  0
 30 31  3  0
 31 32  1  0
 32 33  1  0
 32 34  1  0
 32 35  1  0
 36 37  2  0
 36 38  1  0
M  END
>  <DRUGBANK_ID>  (1) 
DB12065

>  <COMMON_NAME>  (1) 
Radalbuvir

>  <CAS_NUMBER>  (1) 
1314795-11-3

>  <UNII>  (1) 
273K4V0SPC

>  <SYNONYMS>  (1) 
Radalbuvir

$$$$
