FBC
     RDKit          3D

 17 18  0  0  0  0  0  0  0  0999 V2000
    2.3559    0.9164    0.0107 F   0  0  0  0  0  0  0  0  0  0  0  0
    1.1983    0.2430    0.0002 C   0  0  0  0  0  0  0  0  0  0  0  0
    0.0021    0.9451   -0.0022 C   0  0  0  0  0  0  0  0  0  0  0  0
   -1.1853    0.2315   -0.0175 C   0  0  0  0  0  0  0  0  0  0  0  0
   -2.3520    0.8894   -0.0062 F   0  0  0  0  0  0  0  0  0  0  0  0
   -1.1872   -1.1612   -0.0345 C   0  0  0  0  0  0  0  0  0  0  0  0
    1.2208   -1.1511   -0.0029 C   0  0  0  0  0  0  0  0  0  0  0  0
    0.0219   -1.8781   -0.0215 C   0  0  0  0  0  0  0  0  0  0  0  0
    0.0116   -3.3461    0.0208 C   0  0  0  0  0  0  0  0  0  0  0  0
    0.5905   -4.0361    1.0985 C   0  0  0  0  0  0  0  0  0  0  0  0
    0.5073   -5.4305    1.1934 C   0  0  0  0  0  0  0  0  0  0  0  0
   -0.6401   -4.0932   -0.9718 C   0  0  0  0  0  0  0  0  0  0  0  0
   -0.7688   -5.4814   -0.8557 C   0  0  0  0  0  0  0  0  0  0  0  0
   -0.1631   -6.1609    0.2073 C   0  0  0  0  0  0  0  0  0  0  0  0
   -0.2045   -7.6443    0.2123 C   0  0  0  0  0  0  0  0  0  0  0  0
   -0.7410   -8.3417   -0.6334 O   0  0  0  0  0  0  0  0  0  0  0  0
    0.4718   -8.1869    1.2400 O   0  0  0  0  0  0  0  0  0  0  0  0
  1  2  1  0
  2  3  2  0
  2  7  1  0
  3  4  1  0
  4  5  1  0
  4  6  2  0
  6  8  1  0
  7  8  2  0
  8  9  1  0
  9 10  2  0
  9 12  1  0
 10 11  1  0
 11 14  2  0
 12 13  2  0
 13 14  1  0
 14 15  1  0
 15 16  2  0
 15 17  1  0
M  END
>  <DRUGBANK_ID>  (1) 
DB07753

>  <COMMON_NAME>  (1) 
3',5'-DIFLUOROBIPHENYL-4-CARBOXYLIC ACID

$$$$
