709
     RDKit          3D

 24 26  0  0  0  0  0  0  0  0999 V2000
    0.0074   -0.6768    0.0188 C   0  0  0  0  0  0  0  0  0  0  0  0
    1.2359   -1.3593    0.0051 C   0  0  0  0  0  0  0  0  0  0  0  0
    2.4459   -0.6623   -0.0242 C   0  0  0  0  0  0  0  0  0  0  0  0
    2.4491    0.7329   -0.0134 C   0  0  0  0  0  0  0  0  0  0  0  0
    1.2244    1.4154    0.0335 C   0  0  0  0  0  0  0  0  0  0  0  0
   -0.0249    0.7468    0.0325 C   0  0  0  0  0  0  0  0  0  0  0  0
   -1.2934    1.4085    0.0326 C   0  0  0  0  0  0  0  0  0  0  0  0
   -2.4561    0.6329    0.0005 C   0  0  0  0  0  0  0  0  0  0  0  0
   -2.4127   -0.7533   -0.0049 C   0  0  0  0  0  0  0  0  0  0  0  0
   -1.1901   -1.4055    0.0129 C   0  0  0  0  0  0  0  0  0  0  0  0
    3.7486    1.4842   -0.0670 C   0  0  0  0  0  0  0  0  0  0  0  0
    3.7848    2.8462   -0.0767 N   0  0  0  0  0  0  0  0  0  0  0  0
    4.8570    0.8189   -0.1154 N   0  0  0  0  0  0  0  0  0  0  0  0
   -1.3868    2.8337    0.0512 N   0  0  0  0  0  0  0  0  0  0  0  0
   -2.5537    3.5800   -0.0307 C   0  0  0  0  0  0  0  0  0  0  0  0
   -2.4180    5.0564   -0.0902 C   0  0  0  0  0  0  0  0  0  0  0  0
   -3.7076    3.1561   -0.0460 O   0  0  0  0  0  0  0  0  0  0  0  0
   -3.3171    5.7785    0.7213 C   0  0  0  0  0  0  0  0  0  0  0  0
   -3.3484    7.1689    0.6887 C   0  0  0  0  0  0  0  0  0  0  0  0
   -2.4785    7.8478   -0.1547 C   0  0  0  0  0  0  0  0  0  0  0  0
   -1.5982    7.1359   -0.9719 C   0  0  0  0  0  0  0  0  0  0  0  0
   -1.5568    5.7301   -0.9773 C   0  0  0  0  0  0  0  0  0  0  0  0
   -0.6562    5.0161   -1.9426 C   0  0  0  0  0  0  0  0  0  0  0  0
   -0.7925    7.8987   -1.7726 O   0  0  0  0  0  0  0  0  0  0  0  0
  1  2  2  0
  1  6  1  0
  1 10  1  0
  2  3  1  0
  3  4  2  0
  4  5  1  0
  4 11  1  0
  5  6  2  0
  6  7  1  0
  7  8  2  0
  7 14  1  0
  8  9  1  0
  9 10  2  0
 11 12  1  0
 11 13  2  0
 14 15  1  0
 15 16  1  0
 15 17  2  0
 16 18  2  0
 16 22  1  0
 18 19  1  0
 19 20  2  0
 20 21  1  0
 21 22  2  0
 21 24  1  0
 22 23  1  0
M  END
>  <DRUGBANK_ID>  (1) 
DB07212

>  <COMMON_NAME>  (1) 
N-(7-CARBAMIMIDOYL-NAPHTHALEN-1-YL)-3-HYDROXY-2-METHYL-BENZAMIDE

$$$$
