
     RDKit          3D

 20 21  0  0  1  0  0  0  0  0999 V2000
    0.9859    1.1186    2.2120 C   0  0  0  0  0  0  0  0  0  0  0  0
    0.4562   -0.0450    1.3658 C   0  0  2  0  0  0  0  0  0  0  0  0
    1.0001   -0.0180   -0.0994 C   0  0  1  0  0  0  0  0  0  0  0  0
    0.2986    0.9848   -0.9540 C   0  0  0  0  0  0  0  0  0  0  0  0
    0.3806    1.0095   -2.3216 N   0  0  0  0  0  0  0  0  0  0  0  0
   -0.5389    1.9202   -2.7641 C   0  0  0  0  0  0  0  0  0  0  0  0
   -0.8974    2.3452   -4.0276 C   0  0  0  0  0  0  0  0  0  0  0  0
   -1.9668    3.2634   -4.1080 C   0  0  0  0  0  0  0  0  0  0  0  0
   -2.6516    3.6595   -2.9412 C   0  0  0  0  0  0  0  0  0  0  0  0
   -2.2475    3.2413   -1.6816 C   0  0  0  0  0  0  0  0  0  0  0  0
   -1.1374    2.4069   -1.6187 C   0  0  0  0  0  0  0  0  0  0  0  0
   -0.4906    1.9439   -0.5242 N   0  0  0  0  0  0  0  0  0  0  0  0
   -2.3464    3.8166   -5.4795 C   0  0  0  0  0  0  0  0  0  0  0  0
   -1.1327    4.5659   -6.0649 C   0  0  0  0  0  0  0  0  0  0  0  0
   -2.7367    2.6447   -6.3966 C   0  0  0  0  0  0  0  0  0  0  0  0
   -3.5304    4.7983   -5.4055 C   0  0  0  0  0  0  0  0  0  0  0  0
    2.4481    0.2689   -0.1573 N   0  0  0  0  0  0  0  0  0  0  0  0
   -1.0831   -0.1856    1.4833 C   0  0  0  0  0  0  0  0  0  0  0  0
   -1.6305   -1.2451    1.7594 O   0  0  0  0  0  0  0  0  0  0  0  0
   -1.8513    0.9223    1.2647 N   0  0  0  0  0  0  0  0  0  0  0  0
  2 18  1  0
  2  3  1  0
  2  1  1  6
  3  4  1  0
  3 17  1  1
  4  5  1  0
  4 12  2  0
  5  6  1  0
  6  7  2  0
  6 11  1  0
  7  8  1  0
  8  9  2  0
  8 13  1  0
  9 10  1  0
 10 11  2  0
 11 12  1  0
 13 14  1  0
 13 15  1  0
 13 16  1  0
 18 19  2  0
 18 20  1  0
M  END
>  <DRUGBANK_ID>  (1) 
DB12106

>  <COMMON_NAME>  (1) 
PF-06305591

>  <CAS_NUMBER>  (1) 
1449473-97-5

>  <UNII>  (1) 
G5Y3F1X9MU

$$$$
