
     RDKit          3D

 39 43  0  0  1  0  0  0  0  0999 V2000
    1.3312   -0.6362    0.5498 C   0  0  0  0  0  0  0  0  0  0  0  0
    1.1132    0.2284    2.6998 C   0  0  0  0  0  0  0  0  0  0  0  0
   -5.7134    3.1837    1.2875 C   0  0  0  0  0  0  0  0  0  0  0  0
    3.1818   -0.6744   -3.8256 C   0  0  0  0  0  0  0  0  0  0  0  0
    0.8694   -1.3933   -3.8349 C   0  0  0  0  0  0  0  0  0  0  0  0
    0.5209    2.2838   -3.9095 C   0  0  0  0  0  0  0  0  0  0  0  0
    2.8611    2.9068   -3.9745 C   0  0  0  0  0  0  0  0  0  0  0  0
    3.4094   -1.4509   -4.9573 C   0  0  0  0  0  0  0  0  0  0  0  0
    1.0929   -2.1647   -4.9627 C   0  0  0  0  0  0  0  0  0  0  0  0
    0.3224    2.7359   -5.1909 C   0  0  0  0  0  0  0  0  0  0  0  0
    2.6554    3.3879   -5.2656 C   0  0  0  0  0  0  0  0  0  0  0  0
   -3.4910    2.4331   -0.2139 C   0  0  0  0  0  0  0  0  0  0  0  0
   -2.2654    2.1935   -0.8389 C   0  0  0  0  0  0  0  0  0  0  0  0
   -1.5091    3.3609    2.2791 C   0  0  0  0  0  0  0  0  0  0  0  0
   -1.9561    5.1655    0.7060 C   0  0  0  0  0  0  0  0  0  0  0  0
   -0.0298    3.5574    2.0376 C   0  0  0  0  0  0  0  0  0  0  0  0
   -0.4311    5.3028    0.5136 C   0  0  0  0  0  0  0  0  0  0  0  0
   -2.9420    0.7385    1.4315 C   0  0  0  0  0  0  0  0  0  0  0  0
    0.4565   -0.7251    1.7339 C   0  0  0  0  0  0  0  0  0  0  0  0
    1.8896   -0.5816   -3.3043 C   0  0  0  0  0  0  0  0  0  0  0  0
    1.7718    2.3945   -3.2712 C   0  0  0  0  0  0  0  0  0  0  0  0
    2.3573   -2.1630   -5.5377 C   0  0  0  0  0  0  0  0  0  0  0  0
    1.3874    3.3153   -5.8552 C   0  0  0  0  0  0  0  0  0  0  0  0
   -3.8339    1.7378    0.9442 C   0  0  0  0  0  0  0  0  0  0  0  0
   -1.3539    1.2651   -0.2964 C   0  0  0  0  0  0  0  0  0  0  0  0
   -1.6713    0.4657    0.8271 C   0  0  0  0  0  0  0  0  0  0  0  0
    1.6058    0.2759   -2.0979 C   0  0  1  0  0  0  0  0  0  0  0  0
    1.9407    1.7791   -1.9062 C   0  0  2  0  0  0  0  0  0  0  0  0
   -0.0913    1.2427   -1.0011 C   0  0  0  0  0  0  0  0  0  0  0  0
    1.1641    3.5058   -0.2110 C   0  0  0  0  0  0  0  0  0  0  0  0
    2.6211   -3.0443   -6.9877 Cl  0  0  0  0  0  0  0  0  0  0  0  0
    1.1161    3.9578   -7.4214 Cl  0  0  0  0  0  0  0  0  0  0  0  0
   -2.3715    4.5070    1.9705 N   0  0  0  0  0  0  0  0  0  0  0  0
    0.1661    0.2001   -1.7280 N   0  0  0  0  0  0  0  0  0  0  0  0
    0.1465    3.9659    0.6453 N   0  0  0  0  0  0  0  0  0  0  0  0
    0.9192    2.2597   -0.9235 N   0  0  0  0  0  0  0  0  0  0  0  0
    2.1552    4.1662   -0.4056 O   0  0  0  0  0  0  0  0  0  0  0  0
   -4.8825    2.1101    1.7582 O   0  0  0  0  0  0  0  0  0  0  0  0
   -0.9555   -0.4806    1.5234 O   0  0  0  0  0  0  0  0  0  0  0  0
  8  4  2  0
  9  5  1  0
 10  6  2  0
 11  7  1  0
 13 12  2  0
 16 14  1  0
 17 15  1  0
 19  1  1  0
 19  2  1  0
 20  4  1  0
 20  5  2  0
 21  6  1  0
 21  7  2  0
 22  8  1  0
 22  9  2  0
 23 10  1  0
 23 11  2  0
 24 12  1  0
 24 18  2  0
 25 13  1  0
 26 18  1  0
 26 25  2  0
 27 20  1  6
 28 27  1  0
 28 21  1  6
 29 25  1  0
 31 22  1  0
 32 23  1  0
 33 14  1  0
 33 15  1  0
 34 27  1  0
 34 29  2  0
 35 16  1  0
 35 17  1  0
 35 30  1  0
 36 28  1  0
 36 29  1  0
 36 30  1  0
 37 30  2  0
 38  3  1  0
 38 24  1  0
 39 19  1  0
 39 26  1  0
M  END
>  <DRUGBANK_ID>  (1) 
DB04144

>  <SECONDARY_ACCESSION_NUMBERS>  (1) 
EXPT01877

>  <COMMON_NAME>  (1) 
Cis-[4,5-Bis-(4-Chlorophenyl)-2-(2-Isopropoxy-4-Methoxyphenyl)-4,5-Dihyd Roimidazol-1-Yl]-Piperazin-1-Yl-Methanone

$$$$
