HTG
     RDKit          3D

 19 19  0  0  0  0  0  0  0  0999 V2000
    1.1960    1.4242   -0.4328 C   0  0  1  0  0  0  0  0  0  0  0  0
    2.5553    2.5255    0.2962 S   0  0  0  0  0  0  0  0  0  0  0  0
    1.2804   -0.0507    0.0072 C   0  0  2  0  0  0  0  0  0  0  0  0
    2.4539   -0.6949   -0.5302 O   0  0  0  0  0  0  0  0  0  0  0  0
    0.0181   -0.8440   -0.3766 C   0  0  1  0  0  0  0  0  0  0  0  0
    0.0379   -2.1380    0.2536 O   0  0  0  0  0  0  0  0  0  0  0  0
   -1.2824   -0.1152   -0.0215 C   0  0  2  0  0  0  0  0  0  0  0  0
   -2.4358   -0.8139   -0.5104 O   0  0  0  0  0  0  0  0  0  0  0  0
   -1.2862    1.3331   -0.5232 C   0  0  2  0  0  0  0  0  0  0  0  0
   -0.0736    2.0681   -0.3030 O   0  0  0  0  0  0  0  0  0  0  0  0
   -2.4583    2.0748    0.1856 C   0  0  0  0  0  0  0  0  0  0  0  0
   -2.4629    3.4648   -0.1216 O   0  0  0  0  0  0  0  0  0  0  0  0
    2.5459    2.3339    2.1455 C   0  0  0  0  0  0  0  0  0  0  0  0
    1.3488    2.9403    2.8851 C   0  0  0  0  0  0  0  0  0  0  0  0
    0.0887    2.1439    2.6646 C   0  0  0  0  0  0  0  0  0  0  0  0
    0.2018    0.6919    3.1087 C   0  0  0  0  0  0  0  0  0  0  0  0
    0.0333    0.5206    4.5882 C   0  0  0  0  0  0  0  0  0  0  0  0
   -1.3114    1.0722    5.0353 C   0  0  0  0  0  0  0  0  0  0  0  0
   -2.4782    0.3695    4.3479 C   0  0  0  0  0  0  0  0  0  0  0  0
  1  2  1  1
  1  3  1  0
  1 10  1  0
  2 13  1  0
  3  4  1  6
  3  5  1  0
  5  6  1  1
  5  7  1  0
  7  8  1  6
  7  9  1  0
  9 10  1  0
  9 11  1  1
 11 12  1  0
 13 14  1  0
 14 15  1  0
 15 16  1  0
 16 17  1  0
 17 18  1  0
 18 19  1  0
M  END
>  <DRUGBANK_ID>  (1) 
DB04450

>  <SECONDARY_ACCESSION_NUMBERS>  (1) 
EXPT01788

>  <COMMON_NAME>  (1) 
Heptyl 1-Thiohexopyranoside

$$$$
