
     RDKit          3D

 28 27  0  0  0  0  0  0  0  0999 V2000
    1.3141   -0.7592    0.0019 C   0  0  0  0  0  0  0  0  0  0  0  0
    1.0729    0.6188   -0.5017 C   0  0  0  0  0  0  0  0  0  0  0  0
    1.4790    1.5491   -1.8203 N   0  0  0  0  0  0  0  0  0  0  0  0
    0.9957    3.1552   -2.4472 C   0  0  0  0  0  0  0  0  0  0  0  0
    1.5109    4.5688   -1.6352 C   0  0  0  0  0  0  0  0  0  0  0  0
    3.0784    4.9176   -1.1964 O   0  0  0  0  0  0  0  0  0  0  0  0
    4.4115    3.9710   -0.6113 N   0  0  0  0  0  0  0  0  0  0  0  0
    4.4029    3.2939    0.4471 O   0  0  0  0  0  0  0  0  0  0  0  0
    5.3540    3.9656   -1.4009 O   0  0  0  0  0  0  0  0  0  0  0  0
    2.8048    1.3427   -2.0201 C   0  0  0  0  0  0  0  0  0  0  0  0
    2.8352    2.2051   -0.7871 C   0  0  0  0  0  0  0  0  0  0  0  0
    2.4095    2.3680    0.7758 O   0  0  0  0  0  0  0  0  0  0  0  0
    1.0752    2.8073    1.7334 N   0  0  0  0  0  0  0  0  0  0  0  0
    0.2865    3.7500    1.5214 O   0  0  0  0  0  0  0  0  0  0  0  0
    1.0215    2.0884    2.7406 O   0  0  0  0  0  0  0  0  0  0  0  0
    0.4773   -1.7114   -0.7726 N   0  0  0  0  0  0  0  0  0  0  0  0
   -1.1382   -1.3666   -0.9546 C   0  0  0  0  0  0  0  0  0  0  0  0
   -2.0282   -0.0391   -1.9104 C   0  0  0  0  0  0  0  0  0  0  0  0
   -1.6670    0.4641   -3.6121 O   0  0  0  0  0  0  0  0  0  0  0  0
   -0.1756    1.0316   -4.4775 N   0  0  0  0  0  0  0  0  0  0  0  0
    0.9763    1.2011   -4.0955 O   0  0  0  0  0  0  0  0  0  0  0  0
   -0.3529    0.9991   -5.7527 O   0  0  0  0  0  0  0  0  0  0  0  0
    1.0665   -1.5480   -2.0503 C   0  0  0  0  0  0  0  0  0  0  0  0
    0.3951   -0.3351   -2.5960 C   0  0  0  0  0  0  0  0  0  0  0  0
   -0.4488    1.2155   -2.1258 O   0  0  0  0  0  0  0  0  0  0  0  0
   -0.6530    2.0917   -0.5965 N   0  0  0  0  0  0  0  0  0  0  0  0
   -1.1997    1.5308    0.3788 O   0  0  0  0  0  0  0  0  0  0  0  0
    0.0470    3.0530   -0.4970 O   0  0  0  0  0  0  0  0  0  0  0  0
  1  2  1  0
  1 16  1  0
  2  3  1  0
  3  4  1  0
  3 10  1  0
  4  5  1  0
  5  6  1  0
  6  7  1  0
  7  8  2  0
  7  9  1  0
 10 11  1  0
 11 12  1  0
 12 13  1  0
 13 14  2  0
 13 15  1  0
 16 17  1  0
 16 23  1  0
 17 18  1  0
 18 19  1  0
 19 20  1  0
 20 21  2  0
 20 22  1  0
 23 24  1  0
 24 25  1  0
 25 26  1  0
 26 27  2  0
 26 28  1  0
M  CHG  8   7   1   9  -1  13   1  15  -1  20   1  22  -1  26   1  28  -1
M  END
>  <DRUGBANK_ID>  (1) 
DB13637

>  <COMMON_NAME>  (1) 
Tenitramine

>  <CAS_NUMBER>  (1) 
21946-79-2

>  <UNII>  (1) 
CKB16BAQ3S

$$$$
