
     RDKit          3D

 13 12  0  0  0  0  0  0  0  0999 V2000
    1.0849    2.3093   -0.6592 O   0  0  0  0  0  0  0  0  0  0  0  0
    0.0600   -1.1598    0.1677 O   0  0  0  0  0  0  0  0  0  0  0  0
    0.4024    0.0461   -3.1997 O   0  0  0  0  0  0  0  0  0  0  0  0
    2.9517    0.2383    1.4186 O   0  0  0  0  0  0  0  0  0  0  0  0
    2.5689   -1.4442   -0.0108 O   0  0  0  0  0  0  0  0  0  0  0  0
    2.5273    0.3732   -2.6031 N   0  0  0  0  0  0  0  0  0  0  0  0
    0.6434    0.9848   -0.9775 C   0  0  2  0  0  0  0  0  0  0  0  0
    0.7830    0.0844    0.2688 C   0  0  2  0  0  0  0  0  0  0  0  0
    3.6556    0.7557   -1.7696 C   0  0  0  0  0  0  0  0  0  0  0  0
    1.1923    0.4159   -2.3228 C   0  0  0  0  0  0  0  0  0  0  0  0
    4.6240   -0.3919   -1.4252 C   0  0  0  0  0  0  0  0  0  0  0  0
    5.3229   -0.9450   -2.6347 C   0  0  0  0  0  0  0  0  0  0  0  0
    2.1698   -0.4135    0.5360 C   0  0  0  0  0  0  0  0  0  0  0  0
  3 10  2  0
  4 13  1  0
  5 13  2  0
  6  9  1  0
  6 10  1  0
  7 10  1  0
  7  8  1  0
  7  1  1  1
  8  2  1  6
  8 13  1  0
  9 11  1  0
 11 12  1  0
M  END
>  <DRUGBANK_ID>  (1) 
DB03390

>  <SECONDARY_ACCESSION_NUMBERS>  (1) 
EXPT02679

>  <COMMON_NAME>  (1) 
(2R,3R)-2,3-Dihydroxy-4-oxo-4-(propylamino)butanoic acid

>  <SYNONYMS>  (1) 
N-Propyl-L-tartramate; N-Propyl-tartramic acid

$$$$
