359
     RDKit          3D

 17 18  0  0  0  0  0  0  0  0999 V2000
    1.1060    0.0437   -0.0761 S   0  0  0  0  0  0  0  0  0  0  0  0
    0.7235   -0.6039   -1.3084 O   0  0  0  0  0  0  0  0  0  0  0  0
    0.6075   -0.4967    1.1848 O   0  0  0  0  0  0  0  0  0  0  0  0
    0.4965    1.6020   -0.1936 N   0  0  0  0  0  0  0  0  0  0  0  0
    7.0888   -0.1532    0.0026 N   0  0  0  0  0  0  0  0  0  0  0  0
    1.1092    3.6465    0.7361 N   0  0  0  0  0  0  0  0  0  0  0  0
    2.1874    2.8410   -1.2227 N   0  0  0  0  0  0  0  0  0  0  0  0
    2.8841   -0.0765    0.0470 C   0  0  0  0  0  0  0  0  0  0  0  0
    3.6691    1.0361    0.2641 C   0  0  0  0  0  0  0  0  0  0  0  0
    3.5409   -1.3034   -0.0837 C   0  0  0  0  0  0  0  0  0  0  0  0
    5.7105   -0.1617   -0.0590 C   0  0  0  0  0  0  0  0  0  0  0  0
    5.0408    1.0366    0.0695 C   0  0  0  0  0  0  0  0  0  0  0  0
    4.9542   -1.3394   -0.0773 C   0  0  0  0  0  0  0  0  0  0  0  0
    1.2615    2.7648   -0.2649 C   0  0  0  0  0  0  0  0  0  0  0  0
    2.0147    4.6577    0.7800 C   0  0  0  0  0  0  0  0  0  0  0  0
    3.1137    3.8182   -1.0809 C   0  0  0  0  0  0  0  0  0  0  0  0
    3.0823    4.7622   -0.0824 C   0  0  0  0  0  0  0  0  0  0  0  0
  1  2  2  0
  1  3  2  0
  1  4  1  0
  1  8  1  0
  4 14  1  0
  5 11  1  0
  6 14  2  0
  6 15  1  0
  7 14  1  0
  7 16  2  0
  8  9  2  0
  8 10  1  0
  9 12  1  0
 10 13  2  0
 11 12  2  0
 11 13  1  0
 15 17  2  0
 16 17  1  0
M  END
>  <DRUGBANK_ID>  (1) 
DB00359

>  <SECONDARY_ACCESSION_NUMBERS>  (1) 
APRD00190

>  <COMMON_NAME>  (1) 
Sulfadiazine

>  <CAS_NUMBER>  (1) 
68-35-9

>  <UNII>  (1) 
0N7609K889

>  <SYNONYMS>  (1) 
2-sulfanilamidopyrimidine; 2-sulfanilylaminopyrimidine; 4-amino-N-2-pyrimidinylbenzenesulfonamide; N(1)-2-Pyrimidinylsulfanilamide; N(1)-2-Pyrimidylsulfanilamide; Sulfadiazin; Sulfadiazina; Sulfadiazine; Sulfadiazinum; Sulfapyrimidine; Sulphadiazine

$$$$
