
     RDKit          3D

 26 28  0  0  0  0  0  0  0  0999 V2000
    0.7093    0.0346   -0.1068 C   0  0  0  0  0  0  0  0  0  0  0  0
    0.4907    0.5668    1.1957 O   0  0  0  0  0  0  0  0  0  0  0  0
    0.8594   -0.1820    2.2836 C   0  0  0  0  0  0  0  0  0  0  0  0
    2.1572   -0.6121    2.5172 C   0  0  0  0  0  0  0  0  0  0  0  0
    3.2843   -0.4607    1.5548 C   0  0  0  0  0  0  0  0  0  0  0  0
    2.3884   -1.1935    3.7690 C   0  0  0  0  0  0  0  0  0  0  0  0
    3.7614   -1.6876    4.1712 C   0  0  0  0  0  0  0  0  0  0  0  0
    4.3490   -0.8453    5.2046 N   0  0  0  0  0  0  0  0  0  0  0  0
    3.9272   -0.7709    6.5161 C   0  0  0  0  0  0  0  0  0  0  0  0
    4.6346    0.2287    7.1875 C   0  0  0  0  0  0  0  0  0  0  0  0
    4.3425    0.5736    8.6131 C   0  0  0  0  0  0  0  0  0  0  0  0
    3.4647   -0.0103    9.2334 O   0  0  0  0  0  0  0  0  0  0  0  0
    5.0253    1.5526    9.3368 N   0  0  0  0  0  0  0  0  0  0  0  0
    6.1351    2.3590    8.9128 C   0  0  0  0  0  0  0  0  0  0  0  0
    5.8197    3.8081    8.5966 C   0  0  0  0  0  0  0  0  0  0  0  0
    5.7005    4.5093    9.8245 O   0  0  0  0  0  0  0  0  0  0  0  0
    5.5527    0.7100    6.1869 C   0  0  0  0  0  0  0  0  0  0  0  0
    6.4742    1.6872    6.2518 N   0  0  0  0  0  0  0  0  0  0  0  0
    7.2773    1.9582    5.2558 C   0  0  0  0  0  0  0  0  0  0  0  0
    7.1880    1.3240    4.0532 C   0  0  0  0  0  0  0  0  0  0  0  0
    8.1082    1.7538    2.9692 C   0  0  0  0  0  0  0  0  0  0  0  0
    6.2226    0.3204    3.8961 C   0  0  0  0  0  0  0  0  0  0  0  0
    5.3960    0.0177    4.9970 C   0  0  0  0  0  0  0  0  0  0  0  0
    1.4170   -1.3260    4.6997 N   0  0  0  0  0  0  0  0  0  0  0  0
    0.2163   -0.8330    4.3850 C   0  0  0  0  0  0  0  0  0  0  0  0
   -0.1141   -0.2718    3.2146 N   0  0  0  0  0  0  0  0  0  0  0  0
  1  2  1  0
  2  3  1  0
  3  4  2  0
  3 26  1  0
  4  5  1  0
  4  6  1  0
  6  7  1  0
  6 24  2  0
  7  8  1  0
  8  9  1  0
  8 23  1  0
  9 10  2  0
 10 11  1  0
 10 17  1  0
 11 12  2  0
 11 13  1  0
 13 14  1  0
 14 15  1  0
 15 16  1  0
 17 18  1  0
 17 23  2  0
 18 19  2  0
 19 20  1  0
 20 21  1  0
 20 22  2  0
 22 23  1  0
 24 25  1  0
 25 26  2  0
M  END
>  <DRUGBANK_ID>  (1) 
DB16243

>  <COMMON_NAME>  (1) 
TBA-7371

>  <CAS_NUMBER>  (1) 
1494675-86-3

>  <UNII>  (1) 
R3T98GBE3C

$$$$
