
     RDKit          3D

 22 22  0  0  1  0  0  0  0  0999 V2000
    1.9421   -0.0242    0.1796 C   0  0  0  0  0  0  0  0  0  0  0  0
   -0.0659   -2.8595    0.1349 C   0  0  0  0  0  0  0  0  0  0  0  0
    1.4391   -1.8459    0.5516 C   0  0  2  0  0  0  0  0  0  0  0  0
    1.2186   -2.6960   -1.2589 C   0  0  2  0  0  0  0  0  0  0  0  0
   -0.6331   -2.3851   -1.8361 C   0  0  2  0  0  0  0  0  0  0  0  0
   -1.7852   -2.2338   -0.1980 C   0  0  2  0  0  0  0  0  0  0  0  0
    1.3542   -4.2561   -1.0149 O   0  0  0  0  0  0  0  0  0  0  0  0
   -1.3539   -3.3711   -2.5308 O   0  0  0  0  0  0  0  0  0  0  0  0
   -1.9056   -0.5801    0.9085 O   0  0  0  0  0  0  0  0  0  0  0  0
    0.4495   -0.5769    1.8006 O   0  0  0  0  0  0  0  0  0  0  0  0
   -0.3336    0.4827   -0.2794 O   0  0  0  0  0  0  0  0  0  0  0  0
   -2.1950   -2.9329    2.6178 O   0  0  0  0  0  0  0  0  0  0  0  0
   -1.2340   -5.1675    1.3919 O   0  0  0  0  0  0  0  0  0  0  0  0
    2.5581   -0.3404    2.7598 O   0  0  0  0  0  0  0  0  0  0  0  0
    2.8533    2.2482    2.3073 O   0  0  0  0  0  0  0  0  0  0  0  0
    0.9536    1.2328    3.8101 O   0  0  0  0  0  0  0  0  0  0  0  0
    1.4074    1.0604    1.0725 O   0  0  0  0  0  0  0  0  0  0  0  0
   -0.4952   -2.0110    1.3971 O   0  0  0  0  0  0  0  0  0  0  0  0
   -2.6844   -3.2436    0.1013 O   0  0  0  0  0  0  0  0  0  0  0  0
   -0.2109   -1.0491   -0.0895 P   0  0  0  0  0  0  0  0  0  0  0  0
   -1.7973   -3.7936    1.3088 P   0  0  2  0  0  0  0  0  0  0  0  0
    1.8461    1.0845    2.6229 P   0  0  0  0  0  0  0  0  0  0  0  0
  3  1  1  6
  4  3  1  0
  4  7  1  1
  5  4  1  0
  5  8  1  6
  6  5  1  0
  6 19  1  1
 17  1  1  0
 18  3  1  0
 18  6  1  0
 20  2  1  0
 20  9  1  0
 20 10  1  0
 20 11  2  0
 21  2  1  0
 21 12  1  1
 21 13  2  0
 21 19  1  0
 22 14  1  0
 22 15  1  0
 22 16  2  0
 22 17  1  0
M  END
>  <DRUGBANK_ID>  (1) 
DB04294

>  <SECONDARY_ACCESSION_NUMBERS>  (1) 
EXPT02637

>  <COMMON_NAME>  (1) 
5-Phosphoribosyl-1-(Beta-Methylene) Pyrophosphate

$$$$
