
     RDKit          3D

 12 12  0  0  1  0  0  0  0  0999 V2000
    1.1363    0.1306   -0.1753 C   0  0  0  0  0  0  0  0  0  0  0  0
    0.2886   -1.1392   -0.4519 C   0  0  2  0  0  0  0  0  0  0  0  0
   -0.3851   -1.7088    0.8049 C   0  0  2  0  0  0  0  0  0  0  0  0
    0.6120   -2.3958    1.7657 C   0  0  1  0  0  0  0  0  0  0  0  0
    1.2550   -3.6495    1.1556 C   0  0  1  0  0  0  0  0  0  0  0  0
    2.0869   -3.3360   -0.1112 C   0  0  1  0  0  0  0  0  0  0  0  0
    2.6358   -4.5542   -0.6974 N   0  0  0  0  0  0  0  0  0  0  0  0
    0.8694    0.7492    1.0857 O   0  0  0  0  0  0  0  0  0  0  0  0
   -1.4888   -2.5637    0.4681 O   0  0  0  0  0  0  0  0  0  0  0  0
    1.6288   -1.4818    2.2255 O   0  0  0  0  0  0  0  0  0  0  0  0
    2.0924   -4.2813    2.1394 O   0  0  0  0  0  0  0  0  0  0  0  0
    1.1761   -2.4553   -1.4118 S   0  0  0  0  0  0  0  0  0  0  0  0
  2  1  1  1
  3  2  1  0
  3  9  1  6
  4  3  1  0
  4 10  1  6
  5  4  1  0
  5 11  1  1
  6  5  1  0
  6  7  1  6
  8  1  1  0
 12  2  1  0
 12  6  1  0
M  END
>  <DRUGBANK_ID>  (1) 
DB03414

>  <SECONDARY_ACCESSION_NUMBERS>  (1) 
EXPT02038

>  <COMMON_NAME>  (1) 
5-Thio-a/B-D-Mannopyranosylamine

$$$$
