CDD
     RDKit          3D

 32 34  0  0  0  0  0  0  0  0999 V2000
   -0.1581    1.2310   -0.0063 C   0  0  0  0  0  0  0  0  0  0  0  0
   -0.8876    0.0434    0.0005 N   0  0  0  0  0  0  0  0  0  0  0  0
   -0.1947   -1.1501    0.0669 C   0  0  0  0  0  0  0  0  0  0  0  0
    1.2174   -1.1231    0.1498 C   0  0  0  0  0  0  0  0  0  0  0  0
    1.9278    0.0626    0.0544 C   0  0  0  0  0  0  0  0  0  0  0  0
    1.2345    1.2555   -0.0036 C   0  0  0  0  0  0  0  0  0  0  0  0
   -0.9488   -2.4526    0.0416 C   0  0  0  0  0  0  0  0  0  0  0  0
   -0.6005   -3.2901   -1.2237 C   0  0  0  0  0  0  0  0  0  0  0  0
   -0.6397   -3.2117    1.1420 F   0  0  0  0  0  0  0  0  0  0  0  0
   -2.3119   -2.3644    0.0757 F   0  0  0  0  0  0  0  0  0  0  0  0
    0.8107   -3.6749   -1.3355 N   0  0  0  0  0  0  0  0  0  0  0  0
    1.2848   -4.9560   -1.2376 C   0  0  0  0  0  0  0  0  0  0  0  0
    0.6351   -6.0342   -2.1298 C   0  0  0  0  0  0  0  0  0  0  0  0
    1.1540   -7.3107   -2.0098 N   0  0  0  0  0  0  0  0  0  0  0  0
    2.1934   -7.5312   -1.1281 C   0  0  0  0  0  0  0  0  0  0  0  0
    2.7213   -6.5246   -0.4181 C   0  0  0  0  0  0  0  0  0  0  0  0
    2.3101   -5.2139   -0.4686 N   0  0  0  0  0  0  0  0  0  0  0  0
    0.6103   -8.3352   -2.8885 C   0  0  0  0  0  0  0  0  0  0  0  0
    1.6550   -8.8224   -3.8960 C   0  0  0  0  0  0  0  0  0  0  0  0
    1.9150  -10.1793   -3.8553 N   0  0  0  0  0  0  0  0  0  0  0  0
    2.9778  -10.7582   -4.6522 C   0  0  0  0  0  0  0  0  0  0  0  0
    4.0553  -11.3850   -3.8089 C   0  0  0  0  0  0  0  0  0  0  0  0
    4.1173  -12.7742   -3.6225 C   0  0  0  0  0  0  0  0  0  0  0  0
    5.1193  -13.3402   -2.8266 C   0  0  0  0  0  0  0  0  0  0  0  0
    6.0681  -12.5272   -2.2066 C   0  0  0  0  0  0  0  0  0  0  0  0
    6.0256  -11.1484   -2.3960 C   0  0  0  0  0  0  0  0  0  0  0  0
    5.0306  -10.5916   -3.1960 C   0  0  0  0  0  0  0  0  0  0  0  0
   -0.2780   -5.6962   -2.8830 O   0  0  0  0  0  0  0  0  0  0  0  0
    2.7740   -9.1336   -0.9069 Cl  0  0  0  0  0  0  0  0  0  0  0  0
    2.2376   -8.0498   -4.6533 O   0  0  0  0  0  0  0  0  0  0  0  0
    5.0201   -9.2625   -3.3677 F   0  0  0  0  0  0  0  0  0  0  0  0
   -2.1481    0.1137   -0.0601 O   0  0  0  0  0  0  0  0  0  0  0  0
  1  2  2  0
  1  6  1  0
  2  3  1  0
  2 32  1  0
  3  4  2  0
  3  7  1  0
  4  5  1  0
  5  6  2  0
  7  8  1  0
  7  9  1  0
  7 10  1  0
  8 11  1  0
 11 12  1  0
 12 13  1  0
 12 17  2  0
 13 14  1  0
 13 28  2  0
 14 15  1  0
 14 18  1  0
 15 16  2  0
 15 29  1  0
 16 17  1  0
 18 19  1  0
 19 20  1  0
 19 30  2  0
 20 21  1  0
 21 22  1  0
 22 23  2  0
 22 27  1  0
 23 24  1  0
 24 25  2  0
 25 26  1  0
 26 27  2  0
 27 31  1  0
M  CHG  2   2   1  32  -1
M  END
>  <DRUGBANK_ID>  (1) 
DB07550

>  <COMMON_NAME>  (1) 
2-(6-CHLORO-3-{[2,2-DIFLUORO-2-(1-OXIDO-2-PYRIDINYL)ETHYL]AMINO}-2-OXO-1(2H)-PYRAZINYL)-N-[(2-FLUOROPHENYL)METHYL]ACETAMIDE

$$$$
