
     RDKit          3D

 14 15  0  0  0  0  0  0  0  0999 V2000
    0.5513    0.6705   -0.1567 N   0  0  0  0  0  0  0  0  0  0  0  0
    0.6032   -0.7545   -0.4777 C   0  0  2  0  0  0  0  0  0  0  0  0
   -0.5933    1.4226   -0.0578 C   0  0  0  0  0  0  0  0  0  0  0  0
    1.8518    0.7973    0.1743 C   0  0  0  0  0  0  0  0  0  0  0  0
   -0.5951   -1.7022    0.4837 S   0  0  0  0  0  0  0  0  0  0  0  0
   -1.7913    0.7824    0.0211 C   0  0  0  0  0  0  0  0  0  0  0  0
   -0.5811    2.9475   -0.0018 C   0  0  0  0  0  0  0  0  0  0  0  0
    2.4802    1.7836    0.5053 O   0  0  0  0  0  0  0  0  0  0  0  0
   -1.9896   -0.7091    0.0204 C   0  0  0  0  0  0  0  0  0  0  0  0
   -3.1345    1.4651    0.1719 C   0  0  0  0  0  0  0  0  0  0  0  0
    0.6080    3.5653   -0.1339 O   0  0  0  0  0  0  0  0  0  0  0  0
   -1.5962    3.6281    0.0819 O   0  0  0  0  0  0  0  0  0  0  0  0
    2.0571   -0.7691    0.1137 C   0  0  1  0  0  0  0  0  0  0  0  0
    2.1051   -1.4419    1.4405 N   0  0  0  0  0  0  0  0  0  0  0  0
  1  2  1  0
  1  3  1  0
  1  4  1  0
  2 13  1  0
  2  5  1  1
  3  6  2  0
  3  7  1  0
  4  8  2  0
  4 13  1  0
  5  9  1  0
  6 10  1  0
  6  9  1  0
  7 11  1  0
  7 12  2  0
 13 14  1  1
M  END
>  <DRUGBANK_ID>  (1) 
DB14107

>  <COMMON_NAME>  (1) 
7-Aminodesacetoxycephalosporanic acid

>  <CAS_NUMBER>  (1) 
22252-43-3

>  <UNII>  (1) 
ANM3MSM8TN

>  <SYNONYMS>  (1) 
3-methyl-7-amino-Δ3-cephem-4-carboxylic acid; 3-methyl-7-aminoceph-3-em-4-carboxylic acid; 7-ADCA; 7-amino-3-methyl-3-cephem-4-carboxylic acid; 7beta-aminodeacetoxycephalosporanic acid; 7β-aminodeacetoxycephalosporanic acid

$$$$
