
     RDKit          3D

 27 24  0  0  0  0  0  0  0  0999 V2000
   -0.6299   -0.6338   -1.0757 C   0  0  0  0  0  0  0  0  0  0  0  0
   -0.1746    0.1978    0.1124 C   0  0  2  0  0  0  0  0  0  0  0  0
   -1.3372    0.3883    1.0729 C   0  0  2  0  0  0  0  0  0  0  0  0
   -0.6801   -0.0914    2.3568 C   0  0  1  0  0  0  0  0  0  0  0  0
    0.7285    0.4799    2.3580 C   0  0  2  0  0  0  0  0  0  0  0  0
    1.5706   -0.2462    1.3216 C   0  0  0  0  0  0  0  0  0  0  0  0
   -1.6105    0.1546   -1.7340 O   0  0  0  0  0  0  0  0  0  0  0  0
    0.2764    1.4653   -0.3420 O   0  0  0  0  0  0  0  0  0  0  0  0
   -1.9672   -0.7074    0.4256 O   0  0  0  0  0  0  0  0  0  0  0  0
   -1.3426    0.4878    3.4712 O   0  0  0  0  0  0  0  0  0  0  0  0
    1.3077    0.3085    3.6431 O   0  0  0  0  0  0  0  0  0  0  0  0
    2.8212   -0.4532    1.4137 O   0  0  0  0  0  0  0  0  0  0  0  0
    0.8516   -0.7308    0.1971 O   0  0  0  0  0  0  0  0  0  0  0  0
    1.1433   -4.5599   -3.3891 C   0  0  0  0  0  0  0  0  0  0  0  0
    1.3319   -4.8043   -1.9007 C   0  0  2  0  0  0  0  0  0  0  0  0
    2.4810   -3.9512   -1.3888 C   0  0  2  0  0  0  0  0  0  0  0  0
    2.2132   -2.4589   -1.2814 C   0  0  1  0  0  0  0  0  0  0  0  0
    2.7591   -1.8743    0.0112 C   0  0  2  0  0  0  0  0  0  0  0  0
    2.4036   -0.3985    0.0897 C   0  0  0  0  0  0  0  0  0  0  0  0
    2.1269   -3.5596   -3.6089 O   0  0  0  0  0  0  0  0  0  0  0  0
    1.6255   -6.1759   -1.6797 O   0  0  0  0  0  0  0  0  0  0  0  0
    3.5855   -4.1728   -2.2534 O   0  0  0  0  0  0  0  0  0  0  0  0
    2.9353   -1.8887   -2.3630 O   0  0  0  0  0  0  0  0  0  0  0  0
    4.1710   -2.0232    0.0388 O   0  0  0  0  0  0  0  0  0  0  0  0
    1.6210   -0.4904    1.0868 O   0  0  0  0  0  0  0  0  0  0  0  0
    2.0866    0.4758   -0.9834 O   0  0  0  0  0  0  0  0  0  0  0  0
    1.0621    0.0679   -0.0391 Mn  0  0  0  0  0 15  0  0  0  0  0  0
  2  8  1  6
  2  3  1  0
  2  1  1  0
  3  9  1  6
  3  4  1  0
  4 10  1  1
  5 11  1  1
  5  6  1  0
  5  4  1  0
  7  1  1  0
 12  6  2  0
 13  6  1  0
 15 21  1  6
 15 16  1  0
 15 14  1  0
 16 22  1  6
 16 17  1  0
 17 23  1  6
 18 24  1  6
 18 19  1  0
 18 17  1  0
 20 14  1  0
 25 19  2  0
 26 19  1  0
M  CHG  3  13  -1  26  -1  27   2
M  END
>  <DRUGBANK_ID>  (1) 
DB11141

>  <COMMON_NAME>  (1) 
Manganese gluconate

>  <CAS_NUMBER>  (1) 
6485-39-8

>  <UNII>  (1) 
7G09WJ8QIR

>  <SYNONYMS>  (1) 
Manganese D-gluconate; Manganese gluconate anhydrous; Manganese(II) gluconate

$$$$
