923
     RDKit          3D

 35 38  0  0  1  0  0  0  0  0999 V2000
    1.3527    0.9806    0.5637 S   0  0  0  0  0  0  0  0  0  0  0  0
    1.6888   -3.8942    2.0608 S   0  0  0  0  0  0  0  0  0  0  0  0
   -2.7036   -0.4670    0.6789 O   0  0  0  0  0  0  0  0  0  0  0  0
   -2.1920   -2.8529   -0.3983 O   0  0  0  0  0  0  0  0  0  0  0  0
   -2.1209    4.8306    0.5055 O   0  0  0  0  0  0  0  0  0  0  0  0
   -0.4025   -4.1239   -0.0773 O   0  0  0  0  0  0  0  0  0  0  0  0
    1.1990   -6.5197    4.6720 O   0  0  0  0  0  0  0  0  0  0  0  0
   -0.1779   -5.0572    5.6723 O   0  0  0  0  0  0  0  0  0  0  0  0
   -0.6423   -0.5291   -0.4065 N   0  0  0  0  0  0  0  0  0  0  0  0
   -1.4441    2.6801    0.3500 N   0  0  0  0  0  0  0  0  0  0  0  0
    1.8399   -3.1015    4.6741 N   0  0  0  0  0  0  0  0  0  0  0  0
    1.5471   -1.4535    3.2783 N   0  0  0  0  0  0  0  0  0  0  0  0
   -0.1219    6.6720   -2.0989 N   0  0  0  0  0  0  0  0  0  0  0  0
    1.8597   -1.9778    5.4204 N   0  0  0  0  0  0  0  0  0  0  0  0
    1.6362   -0.9870    4.5693 N   0  0  0  0  0  0  0  0  0  0  0  0
    0.0436    0.7416   -0.6483 C   0  0  1  0  0  0  0  0  0  0  0  0
   -1.3324    1.3989   -0.3595 C   0  0  1  0  0  0  0  0  0  0  0  0
   -1.7286    0.0445    0.1887 C   0  0  0  0  0  0  0  0  0  0  0  0
   -0.0423   -1.7255   -0.1006 C   0  0  0  0  0  0  0  0  0  0  0  0
    1.2922   -1.7766    0.1582 C   0  0  0  0  0  0  0  0  0  0  0  0
    2.1964   -0.5531    0.0829 C   0  0  0  0  0  0  0  0  0  0  0  0
    2.0642   -3.0419    0.4907 C   0  0  0  0  0  0  0  0  0  0  0  0
   -2.0778    3.7981   -0.1656 C   0  0  0  0  0  0  0  0  0  0  0  0
   -0.8778   -2.9993   -0.1352 C   0  0  0  0  0  0  0  0  0  0  0  0
   -2.7454    3.7175   -1.5626 C   0  0  0  0  0  0  0  0  0  0  0  0
   -1.7443    3.5491   -2.7036 C   0  0  0  0  0  0  0  0  0  0  0  0
   -0.9517    4.6185   -3.1480 C   0  0  0  0  0  0  0  0  0  0  0  0
   -1.4983    2.2737   -3.2567 C   0  0  0  0  0  0  0  0  0  0  0  0
    1.7054   -2.7540    3.3493 C   0  0  0  0  0  0  0  0  0  0  0  0
   -1.2475    6.0521   -2.7798 C   0  0  0  0  0  0  0  0  0  0  0  0
    0.1297    4.3521   -4.0139 C   0  0  0  0  0  0  0  0  0  0  0  0
   -0.3464    2.0045   -3.9911 C   0  0  0  0  0  0  0  0  0  0  0  0
    0.4582    3.0523   -4.3947 C   0  0  0  0  0  0  0  0  0  0  0  0
    2.0986   -4.3728    5.3124 C   0  0  0  0  0  0  0  0  0  0  0  0
    0.9314   -5.3142    5.2266 C   0  0  0  0  0  0  0  0  0  0  0  0
 16  1  1  1
  1 21  1  0
  2 22  1  0
  2 29  1  0
  3 18  2  0
  4 24  1  0
  5 23  2  0
  6 24  2  0
  7 35  1  0
  8 35  2  0
  9 16  1  0
  9 18  1  0
  9 19  1  0
 10 23  1  0
 11 14  1  0
 11 29  1  0
 11 34  1  0
 12 15  1  0
 12 29  2  0
 13 30  1  0
 14 15  2  0
 16 17  1  0
 17 10  1  1
 17 18  1  0
 19 20  2  0
 19 24  1  0
 20 21  1  0
 20 22  1  0
 23 25  1  0
 25 26  1  0
 26 27  2  0
 26 28  1  0
 27 30  1  0
 27 31  1  0
 28 32  2  0
 31 33  2  0
 32 33  1  0
 34 35  1  0
M  END
>  <DRUGBANK_ID>  (1) 
DB00923

>  <SECONDARY_ACCESSION_NUMBERS>  (1) 
APRD00853

>  <COMMON_NAME>  (1) 
Ceforanide

>  <CAS_NUMBER>  (1) 
60925-61-3

>  <UNII>  (1) 
8M1YF8951V

>  <SYNONYMS>  (1) 
(6R,7R)-7-[[2-[2-(aminomethyl)phenyl]acetyl]amino]-3-[[1-(carboxymethyl)tetrazol-5-yl]sulfanylmethyl]-8-oxo-5-thia-1-azabicyclo[4.2.0]oct-2-ene-2-carboxylic acid; 7-[O-(aminomethyl)phenylacetamido]-3-[[[1-(carboxymethyl)-1H-tetrazol-5-yl]thio]methyl]-3-cephem-4-carboxylic acid; 7Î²-[2-(aminomethyl)phenyl]acetamido-3-{[1-(carboxymethyl)-1H-tetrazol-5-yl]sulfanyl}methyl-3,4-didehydrocepham-4-carboxylic acid; Ceforanide; Ceforanido; Ceforanidum

$$$$
