PNC
     RDKit          3D

 23 23  0  0  0  0  0  0  0  0999 V2000
    1.3657   -0.2294    0.0074 C   0  0  0  0  0  0  0  0  0  0  0  0
    0.4775   -1.3134   -0.0002 C   0  0  0  0  0  0  0  0  0  0  0  0
   -0.9014   -1.1002   -0.0295 C   0  0  0  0  0  0  0  0  0  0  0  0
   -1.3964    0.2097   -0.0373 C   0  0  0  0  0  0  0  0  0  0  0  0
   -0.5230    1.3025    0.0137 C   0  0  0  0  0  0  0  0  0  0  0  0
    0.8551    1.0795   -0.0094 C   0  0  0  0  0  0  0  0  0  0  0  0
    2.8469   -0.4717    0.1408 C   0  0  0  0  0  0  0  0  0  0  0  0
    5.2458    1.5968   -1.9523 C   0  0  0  0  0  0  0  0  0  0  0  0
    5.1110    3.1258   -2.0153 C   0  0  0  0  0  0  0  0  0  0  0  0
    5.6768    3.8807   -0.8029 C   0  0  0  0  0  0  0  0  0  0  0  0
    7.1506    3.5728   -0.5874 C   0  0  0  0  0  0  0  0  0  0  0  0
    9.4295    4.4653   -0.4598 C   0  0  0  0  0  0  0  0  0  0  0  0
   10.1931    5.0312   -1.6400 C   0  0  0  0  0  0  0  0  0  0  0  0
    4.5624    1.0246   -0.7231 C   0  0  0  0  0  0  0  0  0  0  0  0
   -2.8399    0.4401   -0.1674 N   0  0  0  0  0  0  0  0  0  0  0  0
    7.9916    4.6539   -0.5926 N   0  0  0  0  0  0  0  0  0  0  0  0
    3.5865    0.0920   -0.9640 N   0  0  0  0  0  0  0  0  0  0  0  0
    4.8306    1.3882    0.4184 O   0  0  0  0  0  0  0  0  0  0  0  0
   -3.2364    1.6140   -0.2001 O   0  0  0  0  0  0  0  0  0  0  0  0
   -3.5754   -0.5526   -0.2679 O   0  0  0  0  0  0  0  0  0  0  0  0
    7.5775    2.4333   -0.4267 O   0  0  0  0  0  0  0  0  0  0  0  0
   11.1190    5.8323   -1.5719 O   0  0  0  0  0  0  0  0  0  0  0  0
    9.8167    4.5260   -2.8318 O   0  0  0  0  0  0  0  0  0  0  0  0
  1  2  2  0
  1  6  1  0
  1  7  1  0
  2  3  1  0
  3  4  2  0
  4  5  1  0
  4 15  1  0
  5  6  2  0
  7 17  1  0
  8  9  1  0
  8 14  1  0
  9 10  1  0
 10 11  1  0
 11 16  1  0
 11 21  2  0
 12 13  1  0
 12 16  1  0
 13 22  2  0
 13 23  1  0
 14 17  1  0
 14 18  2  0
 15 19  2  0
 15 20  1  0
M  CHG  2  15   1  20  -1
M  END
>  <DRUGBANK_ID>  (1) 
DB08410

>  <COMMON_NAME>  (1) 
PARA-NITROBENZYL GLUTARYL GLYCINIC ACID

$$$$
