
     RDKit          3D

  6  5  0  0  0  0  0  0  0  0999 V2000
    1.0791   -0.0635    0.0903 C   0  0  2  0  0  0  0  0  0  0  0  0
    0.6457    1.1146    0.7756 O   0  0  0  0  0  0  0  0  0  0  0  0
    0.5749    0.0373   -1.3539 C   0  0  0  0  0  0  0  0  0  0  0  0
    0.5670   -1.2748    0.8592 C   0  0  0  0  0  0  0  0  0  0  0  0
    1.0657   -1.0636   -2.2846 C   0  0  0  0  0  0  0  0  0  0  0  0
    0.4798   -2.3171   -1.9729 O   0  0  0  0  0  0  0  0  0  0  0  0
  1  2  1  0
  1  3  1  0
  1  4  1  1
  3  5  1  0
  5  6  1  0
M  END
>  <DRUGBANK_ID>  (1) 
DB02202

>  <SECONDARY_ACCESSION_NUMBERS>  (1) 
EXPT00772

>  <COMMON_NAME>  (1) 
(S)-butane-1,3-diol

>  <CAS_NUMBER>  (1) 
24621-61-2

>  <SYNONYMS>  (1) 
(S)-(+)-Butane-1,3-diol

$$$$
