NND
     RDKit          3D

 20 20  0  0  0  0  0  0  0  0999 V2000
    1.6355    0.8120    1.7346 O   0  0  0  0  0  0  0  0  0  0  0  0
    1.5597    2.2281    1.5745 C   0  0  0  0  0  0  0  0  0  0  0  0
    1.1661    2.6483    0.1331 C   0  0  2  0  0  0  0  0  0  0  0  0
    2.4559    2.7533   -0.7112 C   0  0  1  0  0  0  0  0  0  0  0  0
    3.1184    1.4778   -0.7534 O   0  0  0  0  0  0  0  0  0  0  0  0
    3.3364    3.3919   -2.8852 O   0  0  0  0  0  0  0  0  0  0  0  0
    1.2894    4.4780   -2.1120 C   0  0  1  0  0  0  0  0  0  0  0  0
    0.9812    4.9526   -3.4250 O   0  0  0  0  0  0  0  0  0  0  0  0
    0.2220    3.7904    0.0237 N   0  0  0  0  0  0  0  0  0  0  0  0
   -1.0962    3.6326    0.6812 C   0  0  0  0  0  0  0  0  0  0  0  0
   -2.0562    2.5622    0.1173 C   0  0  0  0  0  0  0  0  0  0  0  0
   -0.0106    4.1882   -1.3718 C   0  0  0  0  0  0  0  0  0  0  0  0
   -1.5783    1.1249    0.2595 C   0  0  0  0  0  0  0  0  0  0  0  0
   -1.3105    0.7867    1.7252 C   0  0  0  0  0  0  0  0  0  0  0  0
   -2.5866    0.5753    2.4995 C   0  0  0  0  0  0  0  0  0  0  0  0
   -3.3405   -0.5898    1.8710 C   0  0  0  0  0  0  0  0  0  0  0  0
   -2.4935   -1.8767    1.8641 C   0  0  0  0  0  0  0  0  0  0  0  0
   -3.2552   -2.3962    4.1831 C   0  0  0  0  0  0  0  0  0  0  0  0
   -2.0450   -2.2731    3.2730 C   0  0  0  0  0  0  0  0  0  0  0  0
    2.1297    3.1963   -2.1453 C   0  0  2  0  0  0  0  0  0  0  0  0
  1  2  1  0
  3  4  1  0
  3  9  1  0
  3  2  1  1
  4  5  1  6
  4 20  1  0
  7  8  1  6
  7 12  1  0
  7 20  1  0
  9 10  1  0
  9 12  1  0
 10 11  1  0
 11 13  1  0
 13 14  1  0
 14 15  1  0
 15 16  1  0
 16 17  1  0
 17 19  1  0
 18 19  1  0
 20  6  1  6
M  END
>  <DRUGBANK_ID>  (1) 
DB08283

>  <COMMON_NAME>  (1) 
(2R,3R,4R,5S)-2-(HYDROXYMETHYL)-1-NONYLPIPERIDINE-3,4,5-TRIOL

$$$$
