
     RDKit          3D

 29 31  0  0  1  0  0  0  0  0999 V2000
    0.6551   -1.3187   -6.4338 C   0  0  0  0  0  0  0  0  0  0  0  0
   -0.5621   -1.3843   -5.6471 O   0  0  0  0  0  0  0  0  0  0  0  0
   -1.4406   -2.4151   -5.8792 C   0  0  0  0  0  0  0  0  0  0  0  0
   -1.2325   -3.2652   -6.7362 O   0  0  0  0  0  0  0  0  0  0  0  0
   -2.5512   -2.4433   -5.0052 N   0  0  0  0  0  0  0  0  0  0  0  0
   -3.1742   -3.6957   -4.6720 C   0  0  0  0  0  0  0  0  0  0  0  0
   -4.5706   -3.8479   -5.2870 C   0  0  0  0  0  0  0  0  0  0  0  0
   -5.4687   -2.6121   -5.1151 C   0  0  0  0  0  0  0  0  0  0  0  0
   -4.7410   -1.3060   -5.5187 C   0  0  2  0  0  0  0  0  0  0  0  0
   -4.4197   -1.2012   -7.0044 N   0  0  0  0  0  0  0  0  0  0  0  0
   -3.9807    0.2705   -7.8082 S   0  0  0  0  0  0  0  0  0  0  0  0
   -2.1518    0.6695   -7.5498 C   0  0  0  0  0  0  0  0  0  0  0  0
   -4.0543   -0.0834   -9.2299 O   0  0  0  0  0  0  0  0  0  0  0  0
   -4.7991    1.3262   -7.3004 O   0  0  0  0  0  0  0  0  0  0  0  0
   -3.4419   -1.3101   -4.6367 C   0  0  2  0  0  0  0  0  0  0  0  0
   -2.7636   -0.0264   -4.8450 C   0  0  0  0  0  0  0  0  0  0  0  0
   -3.5552    1.1200   -4.7630 O   0  0  0  0  0  0  0  0  0  0  0  0
   -3.7579    1.4130   -3.4004 C   0  0  1  0  0  0  0  0  0  0  0  0
   -2.9657    2.6582   -3.0777 C   0  0  0  0  0  0  0  0  0  0  0  0
   -3.5760    3.8939   -3.6954 C   0  0  0  0  0  0  0  0  0  0  0  0
   -5.0879    4.0091   -3.4049 C   0  0  2  0  0  0  0  0  0  0  0  0
   -5.8552    2.7289   -3.8028 C   0  0  0  0  0  0  0  0  0  0  0  0
   -5.2510    1.4947   -3.1715 C   0  0  0  0  0  0  0  0  0  0  0  0
   -5.6081    5.1683   -4.2204 C   0  0  0  0  0  0  0  0  0  0  0  0
   -5.5098    5.0261   -5.6154 C   0  0  0  0  0  0  0  0  0  0  0  0
   -5.8807    6.0292   -6.4802 C   0  0  0  0  0  0  0  0  0  0  0  0
   -6.3997    7.2010   -5.9595 C   0  0  0  0  0  0  0  0  0  0  0  0
   -6.5573    7.3516   -4.5760 C   0  0  0  0  0  0  0  0  0  0  0  0
   -6.1251    6.3537   -3.6932 C   0  0  0  0  0  0  0  0  0  0  0  0
  1  2  1  0
  2  3  1  0
  3  4  2  0
  3  5  1  0
  5  6  1  0
  6  7  1  0
  7  8  1  0
  9  8  1  0
  9 10  1  6
  9 15  1  0
 10 11  1  0
 11 12  1  0
 11 13  2  0
 11 14  2  0
 15  5  1  0
 15 16  1  6
 16 17  1  0
 18 19  1  0
 18 23  1  0
 18 17  1  6
 19 20  1  0
 21 20  1  0
 21 22  1  0
 21 24  1  6
 22 23  1  0
 24 25  2  0
 24 29  1  0
 25 26  1  0
 26 27  2  0
 27 28  1  0
 28 29  2  0
M  END
>  <DRUGBANK_ID>  (1) 
DB16962

>  <COMMON_NAME>  (1) 
Danavorexton

>  <CAS_NUMBER>  (1) 
2114324-48-8

>  <UNII>  (1) 
1QMD83K4YN

>  <SYNONYMS>  (1) 
1-piperidinecarboxylic acid, 3-((methylsulfonyl)amino)-2-(((cis-4-phenylcyclohexyl)oxy)methyl)-, methyl ester, (2r,3s)-; Methyl (2r,3s)-3-((methylsulfonyl)amino)-2-(((cis-4-phenylcyclohexyl)oxy)methyl)piperidine-1-carboxylate; Methyl (2R,3S)-3-[(Methylsulfonyl)Amino]-2-{[(Cis-4-Phenylcyclohexyl)Oxy]Methyl}Piperidine-1-Carboxylate

$$$$
