
     RDKit          3D

 11 11  0  0  0  0  0  0  0  0999 V2000
    1.0535    0.0257    0.0660 C   0  0  0  0  0  0  0  0  0  0  0  0
    0.6076    1.1626   -0.8183 C   0  0  0  0  0  0  0  0  0  0  0  0
    0.9753    2.4854   -0.4881 C   0  0  0  0  0  0  0  0  0  0  0  0
    0.6452    3.5639   -1.3144 C   0  0  0  0  0  0  0  0  0  0  0  0
   -0.0654    3.3398   -2.4887 C   0  0  0  0  0  0  0  0  0  0  0  0
   -0.4651    2.0479   -2.8313 C   0  0  0  0  0  0  0  0  0  0  0  0
   -0.1400    0.9620   -2.0003 C   0  0  0  0  0  0  0  0  0  0  0  0
   -0.7410   -0.7761   -2.5229 Br  0  0  0  0  0  0  0  0  0  0  0  0
   -1.1697    1.8240   -3.9886 O   0  0  0  0  0  0  0  0  0  0  0  0
   -0.4688    4.8154   -3.6086 Br  0  0  0  0  0  0  0  0  0  0  0  0
    1.9508    2.8996    1.0961 Br  0  0  0  0  0  0  0  0  0  0  0  0
  1  2  1  0
  2  3  2  0
  2  7  1  0
  3  4  1  0
  3 11  1  0
  4  5  2  0
  5  6  1  0
  5 10  1  0
  6  7  2  0
  6  9  1  0
  7  8  1  0
M  END
>  <DRUGBANK_ID>  (1) 
DB13513

>  <COMMON_NAME>  (1) 
Tribromometacresol

>  <CAS_NUMBER>  (1) 
4619-74-3

>  <UNII>  (1) 
Q3Z845166M

>  <SYNONYMS>  (1) 
2,4,6-tribromo-m-cresol

$$$$
