
     RDKit          3D

 31 33  0  0  1  0  0  0  0  0999 V2000
    1.1141    0.0390    0.1225 C   0  0  0  0  0  0  0  0  0  0  0  0
    4.6881   -4.1758    4.7645 C   0  0  0  0  0  0  0  0  0  0  0  0
    7.2622   -2.7892    0.6361 C   0  0  0  0  0  0  0  0  0  0  0  0
    7.4622   -7.1388    1.0178 C   0  0  0  0  0  0  0  0  0  0  0  0
    0.6541   -1.3973    0.3284 C   0  0  1  0  0  0  0  0  0  0  0  0
    4.1747   -5.4245    3.9733 C   0  0  2  0  0  0  0  0  0  0  0  0
    0.6042    0.9691    1.1908 C   0  0  0  0  0  0  0  0  0  0  0  0
    8.2059   -5.2583    0.3520 C   0  0  0  0  0  0  0  0  0  0  0  0
    4.5792   -6.7763    4.5073 C   0  0  2  0  0  0  0  0  0  0  0  0
    5.7215   -7.2198    3.5955 C   0  0  2  0  0  0  0  0  0  0  0  0
    8.9149   -4.1736   -0.1979 C   0  0  0  0  0  0  0  0  0  0  0  0
    7.0363   -4.9712    1.0429 C   0  0  0  0  0  0  0  0  0  0  0  0
    5.4048   -6.5572    2.2650 C   0  0  2  0  0  0  0  0  0  0  0  0
    1.1101   -1.8948    1.7030 C   0  0  0  0  0  0  0  0  0  0  0  0
   -0.8437   -1.4479    0.2280 N   0  0  0  0  0  0  0  0  0  0  0  0
   10.1011   -4.3333   -0.8788 N   0  0  0  0  0  0  0  0  0  0  0  0
    8.4170   -2.9270   -0.0477 N   0  0  0  0  0  0  0  0  0  0  0  0
    6.5220   -3.7456    1.2232 N   0  0  0  0  0  0  0  0  0  0  0  0
    8.4613   -6.6126    0.3475 N   0  0  0  0  0  0  0  0  0  0  0  0
    6.5778   -6.1900    1.4822 N   0  0  0  0  0  0  0  0  0  0  0  0
   -0.1298    1.9410    1.0180 O   0  0  0  0  0  0  0  0  0  0  0  0
    1.0196    0.6621    2.4339 O   0  0  0  0  0  0  0  0  0  0  0  0
    3.4798   -7.6966    4.3424 O   0  0  0  0  0  0  0  0  0  0  0  0
    5.7690   -8.6395    3.4540 O   0  0  0  0  0  0  0  0  0  0  0  0
    0.2611   -2.0660    2.5850 O   0  0  0  0  0  0  0  0  0  0  0  0
    1.6801   -3.3898    3.7717 O   0  0  0  0  0  0  0  0  0  0  0  0
    4.0076   -3.3265    2.5262 O   0  0  0  0  0  0  0  0  0  0  0  0
    3.6231   -3.1743    4.9281 O   0  0  0  0  0  0  0  0  0  0  0  0
    4.6200   -5.4448    2.5965 O   0  0  0  0  0  0  0  0  0  0  0  0
    2.4698   -2.0155    1.8787 O   0  0  0  0  0  0  0  0  0  0  0  0
    3.0464   -2.5949    3.4034 P   0  0  2  0  0  0  0  0  0  0  0  0
  5  1  1  0
  5 15  1  1
  6  2  1  1
  7  1  1  0
  9  6  1  0
  9 23  1  6
 10  9  1  0
 10 24  1  6
 11  8  2  0
 12  8  1  0
 13 10  1  0
 13 20  1  1
 14  5  1  0
 16 11  1  0
 17  3  2  0
 17 11  1  0
 18  3  1  0
 18 12  2  0
 19  4  2  0
 19  8  1  0
 20  4  1  0
 20 12  1  0
 21  7  2  0
 22  7  1  0
 25 14  2  0
 28  2  1  0
 29  6  1  0
 29 13  1  0
 30 14  1  0
 31 26  1  6
 31 27  2  0
 31 28  1  0
 31 30  1  0
M  END
>  <DRUGBANK_ID>  (1) 
DB01895

>  <SECONDARY_ACCESSION_NUMBERS>  (1) 
EXPT00511

>  <COMMON_NAME>  (1) 
Aspartyl-Adenosine-5'-Monophosphate

$$$$
