
     RDKit          3D

 35 38  0  0  1  0  0  0  0  0999 V2000
   -2.4485    1.8238   -2.3778 C   0  0  0  0  0  0  0  0  0  0  0  0
   -4.0473    3.1164   -3.1946 C   0  0  0  0  0  0  0  0  0  0  0  0
   -5.8895    3.0877   -2.3573 C   0  0  0  0  0  0  0  0  0  0  0  0
   -4.3268    4.6954   -3.3817 C   0  0  0  0  0  0  0  0  0  0  0  0
   -4.7971    5.0196   -4.4815 O   0  0  0  0  0  0  0  0  0  0  0  0
   -4.1286    5.6405   -2.3404 N   0  0  0  0  0  0  0  0  0  0  0  0
   -3.7044    5.4212   -0.8369 C   0  0  2  0  0  0  0  0  0  0  0  0
   -2.3019    5.1016   -0.1742 C   0  0  0  0  0  0  0  0  0  0  0  0
   -2.3257    4.3332    1.1121 C   0  0  0  0  0  0  0  0  0  0  0  0
   -1.1907    4.3142    1.8816 C   0  0  0  0  0  0  0  0  0  0  0  0
   -1.5060    3.6442    3.0257 N   0  0  0  0  0  0  0  0  0  0  0  0
   -2.6739    2.9391    2.9017 C   0  0  0  0  0  0  0  0  0  0  0  0
   -3.2005    3.3261    1.7055 C   0  0  0  0  0  0  0  0  0  0  0  0
   -4.4829    2.7308    1.5879 C   0  0  0  0  0  0  0  0  0  0  0  0
   -5.1333    1.6534    2.0602 C   0  0  0  0  0  0  0  0  0  0  0  0
   -4.6561    1.4398    3.2802 C   0  0  0  0  0  0  0  0  0  0  0  0
   -3.4572    2.0913    3.7362 C   0  0  0  0  0  0  0  0  0  0  0  0
   -4.6756    4.4066   -0.3681 C   0  0  0  0  0  0  0  0  0  0  0  0
   -5.6286    4.8745    0.2720 O   0  0  0  0  0  0  0  0  0  0  0  0
   -4.5829    2.9886   -0.6210 N   0  0  0  0  0  0  0  0  0  0  0  0
   -4.0148    2.2518   -1.5984 C   0  0  2  0  0  0  0  0  0  0  0  0
   -2.4595    3.6847   -2.1658 C   0  0  0  0  0  0  0  0  0  0  0  0
   -1.7281    3.7997   -3.7310 C   0  0  0  0  0  0  0  0  0  0  0  0
   -1.9671    4.8082   -4.6556 C   0  0  0  0  0  0  0  0  0  0  0  0
   -1.6269    4.2814   -5.8694 N   0  0  0  0  0  0  0  0  0  0  0  0
   -0.9880    3.0719   -5.6975 C   0  0  0  0  0  0  0  0  0  0  0  0
   -1.0042    2.7274   -4.3668 C   0  0  0  0  0  0  0  0  0  0  0  0
   -0.5297    1.4178   -3.9658 C   0  0  0  0  0  0  0  0  0  0  0  0
    0.0104    0.5259   -4.7984 C   0  0  0  0  0  0  0  0  0  0  0  0
    0.1258    0.9603   -6.0826 C   0  0  0  0  0  0  0  0  0  0  0  0
   -0.3782    2.1956   -6.5720 C   0  0  0  0  0  0  0  0  0  0  0  0
   -4.9898    1.2970   -3.0249 N   0  0  0  0  0  0  0  0  0  0  0  0
   -4.8056    0.3299   -4.0860 C   0  0  0  0  0  0  0  0  0  0  0  0
   -5.1133    0.5452   -5.2709 O   0  0  0  0  0  0  0  0  0  0  0  0
   -3.7569    2.5339   -4.4528 N   0  0  0  0  0  0  0  0  0  0  0  0
  1  2  1  0
  2  3  1  0
  2  4  1  0
  2 35  1  0
  4  5  2  0
  4  6  1  0
  7 18  1  0
  7  8  1  6
  7  6  1  0
  8  9  1  0
  9 10  2  0
  9 13  1  0
 10 11  1  0
 11 12  1  0
 12 13  2  0
 12 17  1  0
 13 14  1  0
 14 15  2  0
 15 16  1  0
 16 17  2  0
 18 19  2  0
 18 20  1  0
 21 32  1  0
 21 22  1  6
 21 20  1  0
 22 23  1  0
 23 24  2  0
 23 27  1  0
 24 25  1  0
 25 26  1  0
 26 27  2  0
 26 31  1  0
 27 28  1  0
 28 29  2  0
 29 30  1  0
 30 31  2  0
 32 33  1  0
 33 34  2  0
M  END
>  <DRUGBANK_ID>  (1) 
DB13074

>  <SECONDARY_ACCESSION_NUMBERS>  (1) 
DB06066; DB05917

>  <COMMON_NAME>  (1) 
Macimorelin

>  <CAS_NUMBER>  (1) 
381231-18-1

>  <UNII>  (1) 
8680B21W73

>  <SYNONYMS>  (1) 
Macimorelin

$$$$
