
     RDKit          3D

 19 19  0  0  0  0  0  0  0  0999 V2000
    1.8786    0.5006   -0.6172 C   0  0  0  0  0  0  0  0  0  0  0  0
    0.9052    1.6447    0.4013 C   0  0  0  0  0  0  0  0  0  0  0  0
    1.2239    2.8807   -0.3804 C   0  0  0  0  0  0  0  0  0  0  0  0
   -0.9100    1.6129    0.5436 C   0  0  0  0  0  0  0  0  0  0  0  0
   -1.6083    0.6368    1.3957 O   0  0  0  0  0  0  0  0  0  0  0  0
    1.2937    1.7182    1.8188 N   0  0  0  0  0  0  0  0  0  0  0  0
    0.3473   -0.7929    0.9320 C   0  0  0  0  0  0  0  0  0  0  0  0
    0.1442   -1.7756   -0.0819 N   0  0  0  0  0  0  0  0  0  0  0  0
   -0.5444   -1.6454   -1.3107 C   0  0  0  0  0  0  0  0  0  0  0  0
   -0.7144   -2.7644   -2.0785 C   0  0  0  0  0  0  0  0  0  0  0  0
   -0.1225   -4.0145   -1.6410 C   0  0  0  0  0  0  0  0  0  0  0  0
   -0.4173   -5.0948   -2.1585 O   0  0  0  0  0  0  0  0  0  0  0  0
    0.7893   -3.9292   -0.5942 N   0  0  0  0  0  0  0  0  0  0  0  0
    1.0399   -2.8235    0.1584 C   0  0  0  0  0  0  0  0  0  0  0  0
    1.8892   -2.6842    0.9951 O   0  0  0  0  0  0  0  0  0  0  0  0
    1.4339   -5.0769   -0.0448 C   0  0  0  0  0  0  0  0  0  0  0  0
   -1.5105   -2.5026   -3.1773 N   0  0  0  0  0  0  0  0  0  0  0  0
   -1.7549   -1.2115   -3.1431 C   0  0  0  0  0  0  0  0  0  0  0  0
   -1.1082   -0.6258   -2.0749 N   0  0  0  0  0  0  0  0  0  0  0  0
  1  2  1  0
  2  3  1  0
  2  4  1  0
  2  6  1  0
  4  5  1  0
  7  8  1  0
  8  9  1  0
  8 14  1  0
  9 10  2  0
  9 19  1  0
 10 11  1  0
 10 17  1  0
 11 12  2  0
 11 13  1  0
 13 14  1  0
 13 16  1  0
 14 15  2  0
 17 18  2  0
 18 19  1  0
M  END
>  <DRUGBANK_ID>  (1) 
DB13812

>  <COMMON_NAME>  (1) 
Bufylline

>  <CAS_NUMBER>  (1) 
5634-34-4

>  <UNII>  (1) 
VOU5V0B772

>  <SYNONYMS>  (1) 
Ambuphylline

$$$$
