
     RDKit          3D

 21 21  0  0  0  0  0  0  0  0999 V2000
    0.8067   -1.6639   -6.7468 P   0  0  0  0  0  0  0  0  0  0  0  0
    2.1237   -3.0266   -4.8139 O   0  0  0  0  0  0  0  0  0  0  0  0
    4.9481   -2.0976   -7.6948 O   0  0  0  0  0  0  0  0  0  0  0  0
    4.9248   -2.3104   -2.6619 O   0  0  0  0  0  0  0  0  0  0  0  0
    3.2661   -3.7504   -0.8731 O   0  0  0  0  0  0  0  0  0  0  0  0
    1.3450   -0.4841   -5.8077 O   0  0  0  0  0  0  0  0  0  0  0  0
    1.3891   -1.2445   -8.1856 O   0  0  0  0  0  0  0  0  0  0  0  0
   -0.6781   -1.7339   -6.6920 O   0  0  0  0  0  0  0  0  0  0  0  0
    2.8764   -6.0397   -2.3158 O   0  0  0  0  0  0  0  0  0  0  0  0
    6.2074    1.3459   -5.0580 O   0  0  0  0  0  0  0  0  0  0  0  0
    4.9352   -0.4908   -4.9542 N   0  0  0  0  0  0  0  0  0  0  0  0
    4.3642   -1.8274   -5.2942 C   0  0  1  0  0  0  0  0  0  0  0  0
    3.1358   -2.0976   -4.3543 C   0  0  2  0  0  0  0  0  0  0  0  0
    3.9050   -1.9482   -6.7472 C   0  0  2  0  0  0  0  0  0  0  0  0
    3.1054   -3.1959   -6.9956 C   0  0  0  0  0  0  0  0  0  0  0  0
    1.8187   -3.0929   -6.2242 C   0  0  2  0  0  0  0  0  0  0  0  0
    3.5082   -2.3545   -2.8635 C   0  0  1  0  0  0  0  0  0  0  0  0
    2.8793   -3.6193   -2.2548 C   0  0  1  0  0  0  0  0  0  0  0  0
    3.3583   -4.8812   -2.9807 C   0  0  0  0  0  0  0  0  0  0  0  0
    5.6917    0.4140   -5.6516 C   0  0  0  0  0  0  0  0  0  0  0  0
    5.8502    0.2814   -7.1365 C   0  0  0  0  0  0  0  0  0  0  0  0
  1  6  1  0
  1  7  1  0
  1  8  2  0
 13  2  1  6
  2 16  1  0
  9 19  1  0
 10 20  2  0
 11 20  1  0
 12 13  1  0
 12 14  1  0
 12 11  1  6
 14 15  1  0
 14  3  1  6
 15 16  1  0
 16  1  1  6
 17 13  1  0
 17  4  1  6
 18 19  1  0
 18 17  1  0
 18  5  1  1
 20 21  1  0
M  END
>  <DRUGBANK_ID>  (1) 
DB04561

>  <SECONDARY_ACCESSION_NUMBERS>  (1) 
EXPT00595

>  <COMMON_NAME>  (1) 
4-acetamido-2,4-didexoy-D-glycero-beta-D-galacto-octopyranosylphosphonic acid

$$$$
