
     RDKit          3D

 26 28  0  0  0  0  0  0  0  0999 V2000
    0.9150    0.1173   -0.1184 C   0  0  0  0  0  0  0  0  0  0  0  0
    0.4887   -1.2266   -0.6233 C   0  0  0  0  0  0  0  0  0  0  0  0
    0.9731   -2.4450   -0.1601 C   0  0  0  0  0  0  0  0  0  0  0  0
    0.3715   -3.4749   -0.9246 C   0  0  0  0  0  0  0  0  0  0  0  0
    0.5012   -4.8884   -0.9281 C   0  0  0  0  0  0  0  0  0  0  0  0
   -0.2416   -5.6686   -1.8188 C   0  0  0  0  0  0  0  0  0  0  0  0
   -1.0858   -5.0445   -2.7140 C   0  0  0  0  0  0  0  0  0  0  0  0
   -1.1781   -3.6615   -2.7554 C   0  0  0  0  0  0  0  0  0  0  0  0
   -0.4922   -2.8597   -1.8329 C   0  0  0  0  0  0  0  0  0  0  0  0
   -0.4765   -1.4670   -1.6157 N   0  0  0  0  0  0  0  0  0  0  0  0
   -1.2843   -0.4960   -2.2938 C   0  0  0  0  0  0  0  0  0  0  0  0
   -1.1249    0.7000   -2.0339 O   0  0  0  0  0  0  0  0  0  0  0  0
   -2.2961   -0.8001   -3.3295 C   0  0  0  0  0  0  0  0  0  0  0  0
   -3.3850   -1.6300   -3.0345 C   0  0  0  0  0  0  0  0  0  0  0  0
   -4.1020   -2.2092   -4.0873 C   0  0  0  0  0  0  0  0  0  0  0  0
   -3.8501   -1.8125   -5.4008 C   0  0  0  0  0  0  0  0  0  0  0  0
   -2.8990   -0.8282   -5.6710 C   0  0  0  0  0  0  0  0  0  0  0  0
   -2.0795   -0.3579   -4.6408 C   0  0  0  0  0  0  0  0  0  0  0  0
   -4.6712   -2.5892   -6.6972 Cl  0  0  0  0  0  0  0  0  0  0  0  0
   -0.0556   -7.0230   -1.7560 O   0  0  0  0  0  0  0  0  0  0  0  0
   -0.8239   -7.7835   -2.6876 C   0  0  0  0  0  0  0  0  0  0  0  0
    1.9474   -2.6456    0.9633 C   0  0  0  0  0  0  0  0  0  0  0  0
    1.3674   -3.5021    2.0760 C   0  0  0  0  0  0  0  0  0  0  0  0
    1.9042   -4.5652    2.3985 O   0  0  0  0  0  0  0  0  0  0  0  0
    0.2625   -3.0799    2.7474 N   0  0  0  0  0  0  0  0  0  0  0  0
   -0.4456   -1.8921    2.5400 O   0  0  0  0  0  0  0  0  0  0  0  0
  1  2  1  0
  2  3  2  0
  2 10  1  0
  3  4  1  0
  3 22  1  0
  4  5  2  0
  4  9  1  0
  5  6  1  0
  6  7  2  0
  6 20  1  0
  7  8  1  0
  8  9  2  0
  9 10  1  0
 10 11  1  0
 11 12  2  0
 11 13  1  0
 13 14  2  0
 13 18  1  0
 14 15  1  0
 15 16  2  0
 16 17  1  0
 16 19  1  0
 17 18  2  0
 20 21  1  0
 22 23  1  0
 23 24  2  0
 23 25  1  0
 25 26  1  0
M  END
>  <DRUGBANK_ID>  (1) 
DB13308

>  <COMMON_NAME>  (1) 
Oxametacin

>  <CAS_NUMBER>  (1) 
27035-30-9

>  <UNII>  (1) 
8G02RSW5CM

>  <SYNONYMS>  (1) 
Oxametacin

$$$$
