
     RDKit          3D

 42 43  0  0  0  0  0  0  0  0999 V2000
   -3.1169   -0.9049   -0.6182 C   0  0  0  0  0  0  0  0  0  0  0  0
   -3.1763    0.4271   -0.0773 N   0  0  0  0  0  0  0  0  0  0  0  0
   -1.1746   -2.3900   -0.5783 N   0  0  0  0  0  0  0  0  0  0  0  0
   -2.1367   -1.7614    0.1897 C   0  0  0  0  0  0  0  0  0  0  0  0
   -2.4611    1.4643   -0.6398 C   0  0  0  0  0  0  0  0  0  0  0  0
   -1.6170    2.3122    0.3366 C   0  0  1  0  0  0  0  0  0  0  0  0
   -0.6174    3.1985   -0.2598 N   0  0  0  0  0  0  0  0  0  0  0  0
    0.6904    3.2570    0.1974 C   0  0  0  0  0  0  0  0  0  0  0  0
    1.8134    2.3773   -0.6367 C   0  0  1  0  0  0  0  0  0  0  0  0
    2.5362    1.3643    0.1712 N   0  0  0  0  0  0  0  0  0  0  0  0
    3.3284    0.2685   -0.2042 C   0  0  0  0  0  0  0  0  0  0  0  0
    2.8989   -1.2359    0.2917 C   0  0  2  0  0  0  0  0  0  0  0  0
    1.6465   -1.8612   -0.2525 N   0  0  0  0  0  0  0  0  0  0  0  0
   -2.2334   -1.8876    1.4051 O   0  0  0  0  0  0  0  0  0  0  0  0
   -2.3654    1.5794   -1.8744 O   0  0  0  0  0  0  0  0  0  0  0  0
    0.9265    3.9793    1.1672 O   0  0  0  0  0  0  0  0  0  0  0  0
    4.3602    0.4326   -0.8637 O   0  0  0  0  0  0  0  0  0  0  0  0
   -2.4403    3.0686    1.3794 C   0  0  0  0  0  0  0  0  0  0  0  0
   -3.5107    2.3327    2.2165 C   0  0  0  0  0  0  0  0  0  0  0  0
   -3.0363    1.2535    3.1827 C   0  0  0  0  0  0  0  0  0  0  0  0
   -2.2028    1.9059    4.1594 N   0  0  0  0  0  0  0  0  0  0  0  0
   -2.1407    1.5726    5.4547 C   0  0  0  0  0  0  0  0  0  0  0  0
   -1.3081    2.3515    6.1798 N   0  0  0  0  0  0  0  0  0  0  0  0
   -2.8863    0.6544    5.9435 N   0  0  0  0  0  0  0  0  0  0  0  0
    1.1261    1.7017   -1.8278 C   0  0  0  0  0  0  0  0  0  0  0  0
    0.5098    2.7481   -2.7546 C   0  0  0  0  0  0  0  0  0  0  0  0
    2.0849    0.9103   -2.7077 C   0  0  0  0  0  0  0  0  0  0  0  0
    2.7857    1.7932    1.4810 C   0  0  0  0  0  0  0  0  0  0  0  0
    3.0395   -1.3954    1.8495 C   0  0  0  0  0  0  0  0  0  0  0  0
    1.9694   -0.7448    2.7091 C   0  0  0  0  0  0  0  0  0  0  0  0
    0.6693   -0.6628    2.2421 C   0  0  0  0  0  0  0  0  0  0  0  0
   -0.0987    0.3987    2.6064 C   0  0  0  0  0  0  0  0  0  0  0  0
    0.3827    1.3997    3.4243 C   0  0  0  0  0  0  0  0  0  0  0  0
    1.5450    1.2024    4.1303 C   0  0  0  0  0  0  0  0  0  0  0  0
    2.3567    0.1242    3.7580 C   0  0  0  0  0  0  0  0  0  0  0  0
   -0.3131   -3.4365   -0.0147 C   0  0  2  0  0  0  0  0  0  0  0  0
    1.0807   -2.9645    0.3866 C   0  0  0  0  0  0  0  0  0  0  0  0
    1.6320   -3.5891    1.2878 O   0  0  0  0  0  0  0  0  0  0  0  0
   -0.1589   -4.6151   -0.9612 C   0  0  0  0  0  0  0  0  0  0  0  0
    0.6140   -5.7744   -0.3395 C   0  0  0  0  0  0  0  0  0  0  0  0
   -0.1120   -6.9064   -0.1860 O   0  0  0  0  0  0  0  0  0  0  0  0
    1.7909   -5.7516   -0.0754 O   0  0  0  0  0  0  0  0  0  0  0  0
  1  2  1  0
  1  4  1  0
  2  5  1  0
  3  4  1  0
  3 36  1  0
  4 14  2  0
  5  6  1  0
  5 15  2  0
  6  7  1  0
  6 18  1  6
  7  8  1  0
  8  9  1  0
  8 16  2  0
  9 10  1  0
  9 25  1  6
 10 11  1  0
 10 28  1  0
 11 12  1  0
 11 17  2  0
 12 13  1  0
 12 29  1  1
 13 37  1  0
 18 19  1  0
 19 20  1  0
 20 21  1  0
 21 22  1  0
 22 23  1  0
 22 24  2  0
 25 26  1  0
 25 27  1  0
 29 30  1  0
 30 31  2  0
 30 35  1  0
 31 32  1  0
 32 33  2  0
 33 34  1  0
 34 35  2  0
 36 37  1  0
 36 39  1  6
 37 38  2  0
 39 40  1  0
 40 41  1  0
 40 42  2  0
M  END
>  <DRUGBANK_ID>  (1) 
DB11890

>  <COMMON_NAME>  (1) 
Cilengitide

>  <CAS_NUMBER>  (1) 
188968-51-6

>  <UNII>  (1) 
4EDF46E4GI

>  <SYNONYMS>  (1) 
Cilengitida; Cilengitide; Cilengitidum

$$$$
