688
     RDKit          3D

 31 33  0  0  0  0  0  0  0  0999 V2000
    1.3681    1.0928    0.8516 O   0  0  0  0  0  0  0  0  0  0  0  0
    6.4254   -3.4465   -6.4846 O   0  0  0  0  0  0  0  0  0  0  0  0
    0.4825   -1.5322   -1.4505 O   0  0  0  0  0  0  0  0  0  0  0  0
    2.4592   -7.5122   -4.7825 O   0  0  0  0  0  0  0  0  0  0  0  0
    2.6950   -2.5590   -4.7541 O   0  0  0  0  0  0  0  0  0  0  0  0
    5.3311   -1.6451   -5.5859 O   0  0  0  0  0  0  0  0  0  0  0  0
   -0.0398   -2.4234    0.7898 O   0  0  0  0  0  0  0  0  0  0  0  0
   -1.5460    0.5720   -0.2689 N   0  0  0  0  0  0  0  0  0  0  0  0
   -0.8459    1.7566    0.2173 C   0  0  0  0  0  0  0  0  0  0  0  0
   -0.8125   -0.4479    0.4143 C   0  0  0  0  0  0  0  0  0  0  0  0
   -1.5987    0.2049   -1.6893 C   0  0  0  0  0  0  0  0  0  0  0  0
    0.6652    1.9688   -0.0086 C   0  0  0  0  0  0  0  0  0  0  0  0
    0.9872   -0.1588    0.3909 C   0  0  0  0  0  0  0  0  0  0  0  0
    5.0308   -5.1134   -5.7472 C   0  0  0  0  0  0  0  0  0  0  0  0
    2.4663   -5.0197   -4.7842 C   0  0  0  0  0  0  0  0  0  0  0  0
    4.4612   -3.8940   -5.4741 C   0  0  0  0  0  0  0  0  0  0  0  0
    4.3502   -6.3181   -5.5102 C   0  0  0  0  0  0  0  0  0  0  0  0
   -0.2559   -0.2634   -2.2539 C   0  0  0  0  0  0  0  0  0  0  0  0
    3.0378   -6.2822   -5.0102 C   0  0  0  0  0  0  0  0  0  0  0  0
    3.1892   -3.8101   -4.9869 C   0  0  0  0  0  0  0  0  0  0  0  0
    1.1065   -4.9364   -4.2518 C   0  0  0  0  0  0  0  0  0  0  0  0
    6.3895   -4.8685   -6.2738 C   0  0  0  0  0  0  0  0  0  0  0  0
    1.1426   -5.1034   -2.7863 C   0  0  0  0  0  0  0  0  0  0  0  0
    5.4002   -2.8105   -5.8184 C   0  0  0  0  0  0  0  0  0  0  0  0
    0.6462   -4.4252   -0.5811 C   0  0  0  0  0  0  0  0  0  0  0  0
    0.3485   -4.3492   -2.0555 C   0  0  0  0  0  0  0  0  0  0  0  0
    5.0189   -7.6226   -5.8101 C   0  0  0  0  0  0  0  0  0  0  0  0
    1.6316   -3.3192   -0.2495 C   0  0  0  0  0  0  0  0  0  0  0  0
    0.5764   -2.3501   -0.2906 C   0  0  0  0  0  0  0  0  0  0  0  0
   -0.3590   -3.2407   -2.7998 C   0  0  0  0  0  0  0  0  0  0  0  0
    1.1214   -7.6996   -4.3268 C   0  0  0  0  0  0  0  0  0  0  0  0
  1 12  1  0
  1 13  1  0
  2 22  1  0
  2 24  1  0
  3 18  1  0
  3 29  1  0
  4 19  1  0
  4 31  1  0
  5 20  1  0
  6 24  2  0
  7 29  2  0
  8  9  1  0
  8 10  1  0
  8 11  1  0
  9 12  1  0
 10 13  1  0
 11 18  1  0
 14 16  2  0
 14 17  1  0
 14 22  1  0
 15 19  1  0
 15 20  2  0
 15 21  1  0
 16 20  1  0
 16 24  1  0
 17 19  2  0
 17 27  1  0
 21 23  1  0
 23 26  2  0
 25 26  1  0
 25 28  1  0
 26 30  1  0
 28 29  1  0
M  END
>  <DRUGBANK_ID>  (1) 
DB00688

>  <SECONDARY_ACCESSION_NUMBERS>  (1) 
APRD01602

>  <COMMON_NAME>  (1) 
Mycophenolate mofetil

>  <CAS_NUMBER>  (1) 
128794-94-5

>  <UNII>  (1) 
9242ECW6R0

>  <SYNONYMS>  (1) 
2-morpholinoethyl (E)-6-(4-hydroxy-6-methoxy-7-methyl-3-oxo-5-phthalanyl)-4-methyl-4-hexenoate; Mycophenolate mofetil; Mycophenolic acid morpholinoethyl ester

$$$$
