
     RDKit          3D

 13 13  0  0  0  0  0  0  0  0999 V2000
    2.9150    1.1777   -0.0042 C   0  0  0  0  0  0  0  0  0  0  0  0
    1.5150    1.1825    0.0181 C   0  0  0  0  0  0  0  0  0  0  0  0
    2.8997   -1.2263   -0.0027 C   0  0  0  0  0  0  0  0  0  0  0  0
    3.6229   -0.0277   -0.0241 C   0  0  0  0  0  0  0  0  0  0  0  0
    0.7805   -0.0168    0.0208 C   0  0  0  0  0  0  0  0  0  0  0  0
    1.4804   -1.2339    0.0203 C   0  0  0  0  0  0  0  0  0  0  0  0
    5.1169    0.0237   -0.0735 C   0  0  0  0  0  0  0  0  0  0  0  0
   -1.3090    0.2751    0.0048 I   0  0  0  0  0  0  0  0  0  0  0  0
    5.8171   -1.1505   -0.0999 N   0  0  0  0  0  0  0  0  0  0  0  0
    0.8373   -2.5645    0.0462 N   0  0  0  0  0  0  0  0  0  0  0  0
    5.7142    1.0946   -0.0958 O   0  0  0  0  0  0  0  0  0  0  0  0
    1.5873   -3.5532    0.0425 O   0  0  0  0  0  0  0  0  0  0  0  0
   -0.3924   -2.6519    0.0748 O   0  0  0  0  0  0  0  0  0  0  0  0
  2  1  2  0
  4  1  1  0
  4  3  2  0
  5  2  1  0
  6  3  1  0
  6  5  2  0
  7  4  1  0
  8  5  1  0
  9  7  1  0
 10  6  1  0
 11  7  2  0
 12 10  2  0
 13 10  1  0
M  CHG  2  10   1  13  -1
M  END
>  <DRUGBANK_ID>  (1) 
DB13877

>  <SECONDARY_ACCESSION_NUMBERS>  (1) 
DB05975

>  <COMMON_NAME>  (1) 
Iniparib

>  <CAS_NUMBER>  (1) 
160003-66-7

>  <UNII>  (1) 
2ZWI7KHK8F

>  <SYNONYMS>  (1) 
4-iodo-3-nitrobenzamide; Iniparib

$$$$
