
     RDKit          3D

 14 13  0  0  0  0  0  0  0  0999 V2000
    1.0656    0.1063    0.0156 C   0  0  0  0  0  0  0  0  0  0  0  0
   -1.5357   -3.2884    1.9816 C   0  0  0  0  0  0  0  0  0  0  0  0
    0.6095   -1.3385   -0.1983 C   0  0  0  0  0  0  0  0  0  0  0  0
   -0.9611   -1.9039    2.2564 C   0  0  0  0  0  0  0  0  0  0  0  0
    1.1195   -2.2966    0.8798 C   0  0  0  0  0  0  0  0  0  0  0  0
    0.5686   -2.0245    2.2781 C   0  0  0  0  0  0  0  0  0  0  0  0
    1.0376    2.1865    1.5536 C   0  0  0  0  0  0  0  0  0  0  0  0
   -1.5351   -3.7749    4.4591 C   0  0  0  0  0  0  0  0  0  0  0  0
    0.5398    0.7930    1.2821 C   0  0  0  0  0  0  0  0  0  0  0  0
   -1.0898   -4.2611    3.0782 C   0  0  0  0  0  0  0  0  0  0  0  0
    0.5538    3.1166    0.4886 C   0  0  0  0  0  0  0  0  0  0  0  0
   -0.2869    4.0685    0.9469 O   0  0  0  0  0  0  0  0  0  0  0  0
    0.8581    3.0181   -0.6805 O   0  0  0  0  0  0  0  0  0  0  0  0
   -3.0507   -3.7025    4.5086 C   0  0  0  0  0  0  0  0  0  0  0  0
  1  9  1  0
  2 10  1  0
  3  1  1  0
  4  2  1  0
  5  3  1  0
  6  4  1  0
  6  5  1  0
  7 11  1  0
  8 14  1  0
  9  7  1  0
 10  8  1  0
 11 12  1  0
 11 13  2  0
M  END
>  <DRUGBANK_ID>  (1) 
DB03017

>  <SECONDARY_ACCESSION_NUMBERS>  (1) 
EXPT01112; EXPT02006

>  <COMMON_NAME>  (1) 
Lauric acid

>  <CAS_NUMBER>  (1) 
143-07-7

>  <UNII>  (1) 
1160N9NU9U

>  <SYNONYMS>  (1) 
1-undecanecarboxylic acid; ABL; C12 fatty acid; C12:0; Coconut oil fatty acids; DAO; Dodecanoic acid; Dodecoic acid; Dodecylcarboxylate; Dodecylic acid; Duodecyclic acid; Duodecylic acid; Laurins√§ure; Laurostearic acid; n-dodecanoic acid; Undecane-1-carboxylic acid; Vulvic acid

$$$$
