
     RDKit          3D

 30 32  0  0  1  0  0  0  0  0999 V2000
    3.2891   -1.0899    1.2876 O   0  0  0  0  0  0  0  0  0  0  0  0
    0.4515    0.3710    1.2042 O   0  0  0  0  0  0  0  0  0  0  0  0
   -0.2354   -0.6943    4.4020 O   0  0  0  0  0  0  0  0  0  0  0  0
    0.6851    1.2996    4.0707 O   0  0  0  0  0  0  0  0  0  0  0  0
    2.9263   -1.9800   -1.9505 O   0  0  0  0  0  0  0  0  0  0  0  0
    0.1512    1.7116   -3.1968 O   0  0  0  0  0  0  0  0  0  0  0  0
    1.5633   -0.8696   -0.4744 N   0  0  0  0  0  0  0  0  0  0  0  0
    0.3093    1.0142   -1.0176 N   0  0  0  0  0  0  0  0  0  0  0  0
    2.6460   -0.4814    2.4346 C   0  0  0  0  0  0  0  0  0  0  0  0
    1.0396   -0.4075    2.2893 C   0  0  1  0  0  0  0  0  0  0  0  0
    3.1233   -1.4636    3.5409 C   0  0  0  0  0  0  0  0  0  0  0  0
    3.1995    0.9877    2.6615 C   0  0  0  0  0  0  0  0  0  0  0  0
    4.4875   -1.5074    3.8878 C   0  0  0  0  0  0  0  0  0  0  0  0
    2.7518    2.0717    1.8869 C   0  0  0  0  0  0  0  0  0  0  0  0
    2.2979   -2.4370    4.1121 C   0  0  0  0  0  0  0  0  0  0  0  0
    4.0094    1.3503    3.7641 C   0  0  0  0  0  0  0  0  0  0  0  0
    0.4973    0.1597    3.6419 C   0  0  0  0  0  0  0  0  0  0  0  0
    2.8599   -2.4450    1.0174 C   0  0  0  0  0  0  0  0  0  0  0  0
    4.9116   -2.1792    5.0212 C   0  0  0  0  0  0  0  0  0  0  0  0
    3.0395    3.4011    2.2271 C   0  0  0  0  0  0  0  0  0  0  0  0
    2.7324   -3.1851    5.1967 C   0  0  0  0  0  0  0  0  0  0  0  0
    4.3439    2.6643    4.0814 C   0  0  0  0  0  0  0  0  0  0  0  0
    4.0263   -3.0202    5.6781 C   0  0  0  0  0  0  0  0  0  0  0  0
    3.8559    3.6961    3.3093 C   0  0  0  0  0  0  0  0  0  0  0  0
    0.7826    0.1423   -0.1277 C   0  0  0  0  0  0  0  0  0  0  0  0
    2.0181   -0.9751   -1.7353 C   0  0  0  0  0  0  0  0  0  0  0  0
    0.7049    0.8309   -2.2992 C   0  0  0  0  0  0  0  0  0  0  0  0
    1.5819   -0.1473   -2.7048 C   0  0  0  0  0  0  0  0  0  0  0  0
    3.3747   -2.2207   -3.2801 C   0  0  0  0  0  0  0  0  0  0  0  0
    0.5505    1.5090   -4.5516 C   0  0  0  0  0  0  0  0  0  0  0  0
  1  9  1  0
  1 18  1  0
  2 25  1  0
  3 17  1  0
  4 17  2  0
  5 26  1  0
  5 29  1  0
  6 27  1  0
  6 30  1  0
  7 25  2  0
  7 26  1  0
  8 25  1  0
  8 27  2  0
  9 11  1  0
  9 12  1  0
 10 17  1  0
 10  9  1  0
 10  2  1  6
 11 13  2  0
 11 15  1  0
 12 14  2  0
 12 16  1  0
 13 19  1  0
 14 20  1  0
 15 21  2  0
 16 22  2  0
 19 23  2  0
 20 24  2  0
 21 23  1  0
 22 24  1  0
 26 28  2  0
 27 28  1  0
M  END
>  <DRUGBANK_ID>  (1) 
DB04883

>  <COMMON_NAME>  (1) 
Darusentan

>  <CAS_NUMBER>  (1) 
171714-84-4

>  <UNII>  (1) 
33JD57L6RW

>  <SYNONYMS>  (1) 
Darusentan

$$$$
