
     RDKit          3D

 13 12  0  0  1  0  0  0  0  0999 V2000
   -1.0470    2.3684   -1.8857 C   0  0  0  0  0  0  0  0  0  0  0  0
   -1.4689    1.2132   -0.9836 C   0  0  2  0  0  0  0  0  0  0  0  0
   -0.9743    1.4597    0.3849 N   0  0  0  0  0  0  0  0  0  0  0  0
   -0.9271   -0.1469   -1.4699 C   0  0  2  0  0  0  0  0  0  0  0  0
    0.5471   -0.2009   -1.4287 N   0  0  0  0  0  0  0  0  0  0  0  0
   -1.4269   -0.4986   -2.8805 C   0  0  0  0  0  0  0  0  0  0  0  0
   -0.9769   -1.8946   -3.3056 C   0  0  0  0  0  0  0  0  0  0  0  0
   -1.5111   -2.9676   -2.3527 C   0  0  0  0  0  0  0  0  0  0  0  0
   -3.0429   -3.0448   -2.3766 C   0  0  0  0  0  0  0  0  0  0  0  0
   -3.5926   -3.3439   -3.7724 C   0  0  0  0  0  0  0  0  0  0  0  0
   -3.0663   -4.6600   -4.3051 C   0  0  0  0  0  0  0  0  0  0  0  0
   -4.0156   -5.5792   -4.5580 O   0  0  0  0  0  0  0  0  0  0  0  0
   -1.8811   -4.9017   -4.5067 O   0  0  0  0  0  0  0  0  0  0  0  0
  2  3  1  0
  2  1  1  6
  4  6  1  0
  4  5  1  6
  4  2  1  0
  6  7  1  0
  7  8  1  0
  8  9  1  0
  9 10  1  0
 10 11  1  0
 11 12  1  0
 11 13  2  0
M  END
>  <DRUGBANK_ID>  (1) 
DB01715

>  <SECONDARY_ACCESSION_NUMBERS>  (1) 
EXPT01237

>  <COMMON_NAME>  (1) 
7,8-Diamino-Nonanoic Acid

>  <UNII>  (1) 
KZX7WEN2ZL

$$$$
