VII
     RDKit          3D

 23 25  0  0  0  0  0  0  0  0999 V2000
    1.3804   -0.1970    0.1291 C   0  0  0  0  0  0  0  0  0  0  0  0
    0.4988   -1.2833    0.0879 C   0  0  0  0  0  0  0  0  0  0  0  0
   -0.8719   -1.0606    0.0268 C   0  0  0  0  0  0  0  0  0  0  0  0
   -1.3562    0.2482    0.0424 C   0  0  0  0  0  0  0  0  0  0  0  0
   -0.4700    1.3406    0.0883 C   0  0  0  0  0  0  0  0  0  0  0  0
    0.9156    1.1301    0.0522 C   0  0  0  0  0  0  0  0  0  0  0  0
    1.8613    2.1814   -0.3720 C   0  0  0  0  0  0  0  0  0  0  0  0
    2.0618    3.2613    0.4522 O   0  0  0  0  0  0  0  0  0  0  0  0
    2.6513    2.2926   -1.5195 C   0  0  0  0  0  0  0  0  0  0  0  0
    2.6795    1.3411   -2.6275 C   0  0  0  0  0  0  0  0  0  0  0  0
    3.3899    1.3807   -3.6254 O   0  0  0  0  0  0  0  0  0  0  0  0
    1.8385    0.2934   -2.5383 O   0  0  0  0  0  0  0  0  0  0  0  0
    3.4004    3.5218   -1.3633 C   0  0  0  0  0  0  0  0  0  0  0  0
    4.3800    4.1414   -2.2426 C   0  0  0  0  0  0  0  0  0  0  0  0
    4.9850    5.1866   -2.0377 O   0  0  0  0  0  0  0  0  0  0  0  0
    4.6219    3.4821   -3.3833 O   0  0  0  0  0  0  0  0  0  0  0  0
    2.9991    4.0718   -0.1491 C   0  0  0  0  0  0  0  0  0  0  0  0
    3.3053    5.3577    0.4991 C   0  0  0  0  0  0  0  0  0  0  0  0
    3.1266    6.5433   -0.2374 C   0  0  0  0  0  0  0  0  0  0  0  0
    3.4200    7.7986    0.3007 C   0  0  0  0  0  0  0  0  0  0  0  0
    3.8731    7.8969    1.6093 C   0  0  0  0  0  0  0  0  0  0  0  0
    4.0550    6.7361    2.3626 C   0  0  0  0  0  0  0  0  0  0  0  0
    3.8213    5.4694    1.7963 C   0  0  0  0  0  0  0  0  0  0  0  0
  1  2  2  0
  1  6  1  0
  2  3  1  0
  3  4  2  0
  4  5  1  0
  5  6  2  0
  6  7  1  0
  7  8  1  0
  7  9  2  0
  8 17  1  0
  9 10  1  0
  9 13  1  0
 10 11  2  0
 10 12  1  0
 13 14  1  0
 13 17  2  0
 14 15  2  0
 14 16  1  0
 17 18  1  0
 18 19  2  0
 18 23  1  0
 19 20  1  0
 20 21  2  0
 21 22  1  0
 22 23  2  0
M  END
>  <DRUGBANK_ID>  (1) 
DB08702

>  <COMMON_NAME>  (1) 
2,5-DIPHENYLFURAN-3,4-DICARBOXYLIC ACID

>  <UNII>  (1) 
WF06BEU369

$$$$
