
     RDKit          3D

 19 20  0  0  1  0  0  0  0  0999 V2000
   -1.1599    3.3039    3.9911 C   0  0  0  0  0  0  0  0  0  0  0  0
   -7.4222   -1.2167    4.2837 C   0  0  0  0  0  0  0  0  0  0  0  0
   -6.5033   -0.1005    4.7416 C   0  0  2  0  0  0  0  0  0  0  0  0
   -2.5173    2.6683    4.2485 C   0  0  1  0  0  0  0  0  0  0  0  0
   -3.0268    2.0205    2.9811 C   0  0  1  0  0  0  0  0  0  0  0  0
   -4.0282    1.0738    3.5567 C   0  0  2  0  0  0  0  0  0  0  0  0
   -4.8637   -1.9197    5.5386 C   0  0  2  0  0  0  0  0  0  0  0  0
   -5.4315   -0.5068    5.7774 C   0  0  1  0  0  0  0  0  0  0  0  0
   -5.9727   -2.8942    5.1029 C   0  0  2  0  0  0  0  0  0  0  0  0
   -3.4182    0.6186    4.8911 C   0  0  1  0  0  0  0  0  0  0  0  0
   -0.9931    4.4549    4.8118 O   0  0  0  0  0  0  0  0  0  0  0  0
   -7.1780    1.1060    5.0801 O   0  0  0  0  0  0  0  0  0  0  0  0
   -3.6300    2.9582    2.0944 O   0  0  0  0  0  0  0  0  0  0  0  0
   -4.3224    0.0158    2.6421 O   0  0  0  0  0  0  0  0  0  0  0  0
   -4.1645   -2.3839    6.7042 O   0  0  0  0  0  0  0  0  0  0  0  0
   -5.4179   -4.1468    4.7323 O   0  0  0  0  0  0  0  0  0  0  0  0
   -6.6857   -2.3981    3.9840 O   0  0  0  0  0  0  0  0  0  0  0  0
   -2.4396    1.6245    5.2404 O   0  0  0  0  0  0  0  0  0  0  0  0
   -4.3911    0.4941    5.9370 O   0  0  0  0  0  0  0  0  0  0  0  0
  3  2  1  0
  3 12  1  1
  4  1  1  6
  5  4  1  0
  5 13  1  6
  6  5  1  0
  6 14  1  6
  7 15  1  1
  8  3  1  0
  8  7  1  0
  8 19  1  6
  9  7  1  0
  9 16  1  6
 10  6  1  0
 10 19  1  1
 11  1  1  0
 17  2  1  0
 17  9  1  0
 18  4  1  0
 18 10  1  0
M  END
>  <DRUGBANK_ID>  (1) 
DB03870

>  <SECONDARY_ACCESSION_NUMBERS>  (1) 
EXPT01971

>  <COMMON_NAME>  (1) 
Ara-Alpha(1,3)-Xyl

$$$$
