
     RDKit          3D

 15 15  0  0  0  0  0  0  0  0999 V2000
   -1.4371    1.2737    0.1415 O   0  0  0  0  0  0  0  0  0  0  0  0
   -1.7460    0.2300   -0.8053 C   0  0  1  0  0  0  0  0  0  0  0  0
   -0.8846   -0.9962   -0.4867 C   0  0  1  0  0  0  0  0  0  0  0  0
    0.5937   -0.6183   -0.6535 C   0  0  1  0  0  0  0  0  0  0  0  0
    0.9461    0.5906    0.2252 C   0  0  2  0  0  0  0  0  0  0  0  0
   -0.0819    1.7282    0.0443 C   0  0  2  0  0  0  0  0  0  0  0  0
    0.2099    3.1603    1.1616 S   0  0  0  0  0  0  0  0  0  0  0  0
    1.4154   -1.7358   -0.2928 O   0  0  0  0  0  0  0  0  0  0  0  0
   -1.1052   -1.4435    0.8648 O   0  0  0  0  0  0  0  0  0  0  0  0
   -3.2413   -0.0870   -0.7049 C   0  0  0  0  0  0  0  0  0  0  0  0
    2.2930    1.0189    0.0207 O   0  0  0  0  0  0  0  0  0  0  0  0
   -4.0033    1.0731   -1.0372 O   0  0  0  0  0  0  0  0  0  0  0  0
   -0.1271    2.5360    2.8636 C   0  0  0  0  0  0  0  0  0  0  0  0
   -1.5701    2.0878    3.0508 C   0  0  0  0  0  0  0  0  0  0  0  0
    0.8500    1.4904    3.3913 C   0  0  0  0  0  0  0  0  0  0  0  0
  1  2  1  0
  1  6  1  0
  2  3  1  0
  2 10  1  1
  3  4  1  0
  3  9  1  1
  4  5  1  0
  4  8  1  1
  5  6  1  0
  5 11  1  6
  6  7  1  1
  7 13  1  0
 10 12  1  0
 13 14  1  0
 13 15  1  0
M  END
>  <DRUGBANK_ID>  (1) 
DB01862

>  <SECONDARY_ACCESSION_NUMBERS>  (1) 
EXPT01924

>  <COMMON_NAME>  (1) 
Isopropyl beta-D-thiogalactopyranoside

>  <CAS_NUMBER>  (1) 
367-93-1

>  <UNII>  (1) 
X73VV2246B

>  <SYNONYMS>  (1) 
IPTG; isopropyl thiogalactoside; isopropyl β-D-1-thiogalactopyranoside; isopropyl β-D-thiogalactopyranoside; isopropyl β-D-thiogalactoside; isopropyl-β-D-thiogalactopyranoside; isopropyl-β-D-thiogalactoside

$$$$
