NR2
     RDKit          3D

 24 25  0  0  0  0  0  0  0  0999 V2000
    0.9168   -0.1992   -0.2967 S   0  0  0  0  0  0  0  0  0  0  0  0
    0.2670   -0.8963   -1.6148 N   0  0  0  0  0  0  0  0  0  0  0  0
    0.6725   -1.0086    0.8693 O   0  0  0  0  0  0  0  0  0  0  0  0
    0.4873    1.1946   -0.2982 O   0  0  0  0  0  0  0  0  0  0  0  0
    2.7588   -0.3192   -1.3296 C   0  0  0  0  0  0  0  0  0  0  0  0
    3.0803    0.9567   -0.9396 C   0  0  0  0  0  0  0  0  0  0  0  0
    4.1482    1.0325    0.1197 C   0  0  0  0  0  0  0  0  0  0  0  0
    5.7650   -0.0579    0.8061 C   0  0  0  0  0  0  0  0  0  0  0  0
    7.3060   -0.0720    0.8101 N   0  0  0  0  0  0  0  0  0  0  0  0
    7.9367   -1.3591    0.4836 C   0  0  0  0  0  0  0  0  0  0  0  0
    9.1215   -1.3404    0.1406 O   0  0  0  0  0  0  0  0  0  0  0  0
    7.1734   -2.7444    0.5481 N   0  0  0  0  0  0  0  0  0  0  0  0
    5.0347   -3.0904    0.5098 S   0  0  0  0  0  0  0  0  0  0  0  0
    4.8059   -3.8103   -0.7458 O   0  0  0  0  0  0  0  0  0  0  0  0
    4.6920   -3.5500    1.8241 O   0  0  0  0  0  0  0  0  0  0  0  0
    4.2452   -0.8257    0.2995 C   0  0  0  0  0  0  0  0  0  0  0  0
    3.3741   -0.5987    1.5621 C   0  0  0  0  0  0  0  0  0  0  0  0
    3.2562    0.9715    2.0186 C   0  0  0  0  0  0  0  0  0  0  0  0
    4.4645    2.2716    1.5819 C   0  0  0  0  0  0  0  0  0  0  0  0
    3.3476    3.4387    0.6944 C   0  0  0  0  0  0  0  0  0  0  0  0
    5.8165    1.9875    0.3360 C   0  0  0  0  0  0  0  0  0  0  0  0
    5.4968    0.4904   -0.8403 C   0  0  0  0  0  0  0  0  0  0  0  0
    5.7243   -1.3823   -0.5978 C   0  0  0  0  0  0  0  0  0  0  0  0
    4.0138   -1.5504   -1.4449 C   0  0  0  0  0  0  0  0  0  0  0  0
  1  2  1  0
  1  3  2  0
  1  4  2  0
  1  5  1  0
  5  6  2  0
  5 24  1  0
  6  7  1  0
  7  8  2  0
  8  9  1  0
  8 23  1  0
  9 10  1  0
 10 11  2  0
 10 12  1  0
 12 13  1  0
 13 14  2  0
 13 15  2  0
 13 16  1  0
 16 17  2  0
 16 22  1  0
 17 18  1  0
 18 19  2  0
 19 20  1  0
 19 21  1  0
 21 22  2  0
 23 24  2  0
M  END
>  <DRUGBANK_ID>  (1) 
DB08301

>  <COMMON_NAME>  (1) 
N-({[4-(AMINOSULFONYL)PHENYL]AMINO}CARBONYL)-4-METHYLBENZENESULFONAMIDE

$$$$
