CA2
     RDKit          3D

 22 23  0  0  0  0  0  0  0  0999 V2000
    0.4814   -0.1484    0.5120 O   0  0  0  0  0  0  0  0  0  0  0  0
    1.6747    0.0561    0.2354 C   0  0  0  0  0  0  0  0  0  0  0  0
    1.9348    0.2435   -1.0600 O   0  0  0  0  0  0  0  0  0  0  0  0
    2.8566   -0.0726    1.2905 C   0  0  2  0  0  0  0  0  0  0  0  0
    2.1881    0.4182    2.4736 O   0  0  0  0  0  0  0  0  0  0  0  0
    4.1492    0.7623    1.2770 C   0  0  0  0  0  0  0  0  0  0  0  0
    5.1846    0.2276    0.3291 C   0  0  1  0  0  0  0  0  0  0  0  0
    5.5144   -1.2808    0.5124 C   0  0  1  0  0  0  0  0  0  0  0  0
    6.2085   -1.4650    1.7463 O   0  0  0  0  0  0  0  0  0  0  0  0
    4.2317   -2.1341    0.4978 C   0  0  2  0  0  0  0  0  0  0  0  0
    3.6365   -2.2360   -0.7918 O   0  0  0  0  0  0  0  0  0  0  0  0
    3.2408   -1.5643    1.5177 C   0  0  0  0  0  0  0  0  0  0  0  0
    4.6892    0.4534   -1.0534 C   0  0  0  0  0  0  0  0  0  0  0  0
    4.4607    1.8777   -1.5472 C   0  0  0  0  0  0  0  0  0  0  0  0
    5.7598    2.6211   -1.6920 C   0  0  0  0  0  0  0  0  0  0  0  0
    6.5980    2.1951   -2.7976 O   0  0  0  0  0  0  0  0  0  0  0  0
    6.9140    0.8715   -2.9939 C   0  0  0  0  0  0  0  0  0  0  0  0
    5.9886   -0.1172   -3.3583 C   0  0  0  0  0  0  0  0  0  0  0  0
    6.2663   -1.4718   -3.0580 C   0  0  0  0  0  0  0  0  0  0  0  0
    7.5746   -1.8742   -2.9108 C   0  0  0  0  0  0  0  0  0  0  0  0
    8.5567   -0.8988   -3.0343 C   0  0  0  0  0  0  0  0  0  0  0  0
    8.2345    0.4686   -2.9366 C   0  0  0  0  0  0  0  0  0  0  0  0
  1  2  2  0
  2  3  1  0
  4  2  1  0
  4  5  1  1
  4  6  1  0
  4 12  1  0
  6  7  1  0
  7  8  1  0
  7 13  1  6
  8 10  1  0
  8  9  1  1
 10 11  1  6
 10 12  1  0
 13 14  1  0
 14 15  1  0
 15 16  1  0
 16 17  1  0
 17 18  2  0
 17 22  1  0
 18 19  1  0
 19 20  2  0
 20 21  1  0
 21 22  2  0
M  END
>  <DRUGBANK_ID>  (1) 
DB04656

>  <COMMON_NAME>  (1) 
1,3,4-TRIHYDROXY-5-(3-PHENOXYPROPYL)-CYCLOHEXANE-1-CARBOXYLIC A CID

$$$$
