
     RDKit          3D

 34 36  0  0  0  0  0  0  0  0999 V2000
   -1.2334   -1.4158    0.0333 N   0  0  0  0  0  0  0  0  0  0  0  0
   -0.0767   -0.6630    0.0111 C   0  0  0  0  0  0  0  0  0  0  0  0
   -0.0610    0.6859   -0.0458 C   0  0  0  0  0  0  0  0  0  0  0  0
    1.1105    1.4384   -0.1410 N   0  0  0  0  0  0  0  0  0  0  0  0
    1.1035   -1.3930    0.0101 N   0  0  0  0  0  0  0  0  0  0  0  0
   -2.4757    0.5457   -0.0139 N   0  0  0  0  0  0  0  0  0  0  0  0
    2.2346   -0.7372    0.0135 C   0  0  0  0  0  0  0  0  0  0  0  0
    2.4352    0.7944    0.0227 C   0  0  2  0  0  0  0  0  0  0  0  0
    3.2431    1.1782    1.3445 C   0  0  0  0  0  0  0  0  0  0  0  0
    2.9999    3.3161    2.7149 C   0  0  0  0  0  0  0  0  0  0  0  0
    2.3418    3.4145    5.0397 C   0  0  0  0  0  0  0  0  0  0  0  0
    3.0275    2.7786    3.9876 C   0  0  0  0  0  0  0  0  0  0  0  0
    2.2759    4.5414    2.5670 C   0  0  0  0  0  0  0  0  0  0  0  0
    1.4358    5.0615    3.5538 C   0  0  0  0  0  0  0  0  0  0  0  0
    1.5245    4.5435    4.8297 C   0  0  0  0  0  0  0  0  0  0  0  0
    0.8587    5.2023    5.9890 C   0  0  0  0  0  0  0  0  0  0  0  0
    1.0628    4.7858    7.1248 O   0  0  0  0  0  0  0  0  0  0  0  0
    0.0603    6.3042    5.7480 N   0  0  0  0  0  0  0  0  0  0  0  0
   -2.7031   10.4717    5.6638 O   0  0  0  0  0  0  0  0  0  0  0  0
   -0.6098    7.0194    6.8297 C   0  0  2  0  0  0  0  0  0  0  0  0
   -2.6988    6.4519    8.0025 O   0  0  0  0  0  0  0  0  0  0  0  0
   -2.1254    6.6890    6.7993 C   0  0  0  0  0  0  0  0  0  0  0  0
   -2.8044    6.6483    5.8041 O   0  0  0  0  0  0  0  0  0  0  0  0
   -0.2556    8.5198    6.7454 C   0  0  0  0  0  0  0  0  0  0  0  0
   -0.6106    9.2599    5.4437 C   0  0  0  0  0  0  0  0  0  0  0  0
   -2.0743    9.5282    5.2074 C   0  0  0  0  0  0  0  0  0  0  0  0
   -2.6438    8.5738    4.4573 O   0  0  0  0  0  0  0  0  0  0  0  0
   -1.4020    1.3538    0.0031 C   0  0  0  0  0  0  0  0  0  0  0  0
   -1.5916    2.5641    0.0731 O   0  0  0  0  0  0  0  0  0  0  0  0
   -2.3705   -0.7986    0.0106 C   0  0  0  0  0  0  0  0  0  0  0  0
   -3.5583   -1.4370    0.0091 N   0  0  0  0  0  0  0  0  0  0  0  0
    3.5813    2.6339    1.6033 N   0  0  0  0  0  0  0  0  0  0  0  0
    1.0914    2.8143   -0.5022 C   0  0  0  0  0  0  0  0  0  0  0  0
    1.3715    3.4165    0.6790 O   0  0  0  0  0  0  0  0  0  0  0  0
  1  2  1  0
  2  3  2  0
  2  5  1  0
  3  4  1  0
  3 28  1  0
  4  8  1  0
  4 33  1  0
  7  5  2  0
  7  8  1  0
  8  9  1  1
  9 32  1  0
 10 13  2  0
 11 12  2  0
 11 15  1  0
 12 10  1  0
 13 14  1  0
 14 15  2  0
 15 16  1  0
 16 18  1  0
 16 17  2  0
 20 18  1  0
 20 24  1  6
 20 22  1  0
 22 21  1  0
 22 23  2  0
 24 25  1  0
 25 26  1  0
 26 19  2  0
 26 27  1  0
 28  6  1  0
 28 29  2  0
 30  1  2  0
 30  6  1  0
 30 31  1  0
 32 10  1  0
 33 34  1  0
M  END
>  <DRUGBANK_ID>  (1) 
DB02800

>  <SECONDARY_ACCESSION_NUMBERS>  (1) 
EXPT03049

>  <COMMON_NAME>  (1) 
5-hydroxymethyl-5,6-dihydrofolic acid

$$$$
