
     RDKit          3D

 16 16  0  0  0  0  0  0  0  0999 V2000
    0.2471    1.1753    0.0143 C   0  0  0  0  0  0  0  0  0  0  0  0
   -0.4020   -0.0461   -0.0170 C   0  0  0  0  0  0  0  0  0  0  0  0
    0.3356   -1.2291   -0.0162 C   0  0  0  0  0  0  0  0  0  0  0  0
    1.7374   -1.1851    0.0090 C   0  0  0  0  0  0  0  0  0  0  0  0
    2.4005    0.0420    0.0524 C   0  0  0  0  0  0  0  0  0  0  0  0
    1.6350    1.2070    0.0803 C   0  0  0  0  0  0  0  0  0  0  0  0
    3.7695    0.0002    0.0637 O   0  0  0  0  0  0  0  0  0  0  0  0
    4.4567    1.2496    0.0130 C   0  0  0  0  0  0  0  0  0  0  0  0
    4.2424    2.0582   -1.2770 C   0  0  0  0  0  0  0  0  0  0  0  0
    3.6942    3.3250   -1.0769 N   0  0  0  0  0  0  0  0  0  0  0  0
    3.2931    4.0940   -2.1919 N   0  0  0  0  0  0  0  0  0  0  0  0
    4.0168    5.3726   -2.2179 C   0  0  0  0  0  0  0  0  0  0  0  0
    5.5283    5.1415   -2.1939 C   0  0  0  0  0  0  0  0  0  0  0  0
   -2.1190   -0.0779   -0.0243 Cl  0  0  0  0  0  0  0  0  0  0  0  0
    4.4936    1.6152   -2.4007 O   0  0  0  0  0  0  0  0  0  0  0  0
    3.6334    6.1617   -3.4681 C   0  0  0  0  0  0  0  0  0  0  0  0
  1  2  2  0
  1  6  1  0
  2  3  1  0
  2 14  1  0
  3  4  2  0
  4  5  1  0
  5  6  2  0
  5  7  1  0
  7  8  1  0
  8  9  1  0
  9 10  1  0
  9 15  2  0
 10 11  1  0
 11 12  1  0
 12 13  1  0
 12 16  1  0
M  END
>  <DRUGBANK_ID>  (1) 
DB09247

>  <COMMON_NAME>  (1) 
Iproclozide

>  <CAS_NUMBER>  (1) 
3544-35-2

>  <UNII>  (1) 
1II9D6CB3J

>  <SYNONYMS>  (1) 
Iproclozide

$$$$
