
     RDKit          3D

 26 28  0  0  1  0  0  0  0  0999 V2000
    1.1952    0.1144   -0.1461 C   0  0  0  0  0  0  0  0  0  0  0  0
    0.5813   -1.2118    0.1611 C   0  0  0  0  0  0  0  0  0  0  0  0
   -0.1745   -1.5100    1.2464 C   0  0  0  0  0  0  0  0  0  0  0  0
   -0.6106   -0.6163    2.3394 C   0  0  0  0  0  0  0  0  0  0  0  0
   -1.3128   -0.9692    3.2828 O   0  0  0  0  0  0  0  0  0  0  0  0
   -0.2017    0.6462    2.2128 O   0  0  0  0  0  0  0  0  0  0  0  0
    0.8600   -2.2388   -0.8470 C   0  0  0  0  0  0  0  0  0  0  0  0
    1.7170   -2.2331   -1.8891 C   0  0  0  0  0  0  0  0  0  0  0  0
    2.1453   -3.3369   -2.8070 C   0  0  2  0  0  0  0  0  0  0  0  0
    1.2345   -4.4375   -3.2667 C   0  0  0  0  0  0  0  0  0  0  0  0
    2.3660   -4.7898   -2.3132 C   0  0  1  0  0  0  0  0  0  0  0  0
    3.5211   -5.6263   -2.8395 C   0  0  0  0  0  0  0  0  0  0  0  0
    2.1044   -5.1500   -0.8584 C   0  0  0  0  0  0  0  0  0  0  0  0
    0.8411   -5.2388   -0.2974 C   0  0  0  0  0  0  0  0  0  0  0  0
    0.7080   -5.2860    1.0765 C   0  0  0  0  0  0  0  0  0  0  0  0
    1.8096   -5.5472    1.9132 C   0  0  0  0  0  0  0  0  0  0  0  0
    3.0648   -5.7333    1.3452 C   0  0  0  0  0  0  0  0  0  0  0  0
    3.1870   -5.4391   -0.0086 C   0  0  0  0  0  0  0  0  0  0  0  0
    4.2849   -6.2674    2.0736 C   0  0  0  0  0  0  0  0  0  0  0  0
    4.0057   -6.6172    3.5409 C   0  0  0  0  0  0  0  0  0  0  0  0
    2.8237   -5.9619    4.2167 C   0  0  0  0  0  0  0  0  0  0  0  0
    1.5580   -5.6888    3.3905 C   0  0  0  0  0  0  0  0  0  0  0  0
    0.5447   -6.8359    3.5790 C   0  0  0  0  0  0  0  0  0  0  0  0
    0.9901   -4.3633    3.9460 C   0  0  0  0  0  0  0  0  0  0  0  0
    4.7387   -7.6012    1.4137 C   0  0  0  0  0  0  0  0  0  0  0  0
    5.4756   -5.2815    1.9965 C   0  0  0  0  0  0  0  0  0  0  0  0
  1  2  1  0
  2  3  2  0
  2  7  1  0
  3  4  1  0
  4  5  2  0
  4  6  1  0
  7  8  2  0
  9  8  1  1
  9 10  1  0
  9 11  1  0
 10 11  1  0
 11 12  1  6
 11 13  1  0
 13 14  2  0
 13 18  1  0
 14 15  1  0
 15 16  2  0
 16 17  1  0
 16 22  1  0
 17 18  2  0
 17 19  1  0
 19 20  1  0
 19 25  1  0
 19 26  1  0
 20 21  1  0
 21 22  1  0
 22 23  1  0
 22 24  1  0
M  END
>  <DRUGBANK_ID>  (1) 
DB11806

>  <COMMON_NAME>  (1) 
VTP-194204

>  <CAS_NUMBER>  (1) 
220619-73-8

>  <UNII>  (1) 
877M97Z38Y

$$$$
