
     RDKit          3D

 38 41  0  0  0  0  0  0  0  0999 V2000
    0.8707    0.5281    0.3646 C   0  0  0  0  0  0  0  0  0  0  0  0
    0.4268    0.4465   -1.5164 C   0  0  2  0  0  0  0  0  0  0  0  0
   -0.9841    0.8142   -1.5339 N   0  0  0  0  0  0  0  0  0  0  0  0
    0.8674   -1.0610   -2.6054 C   0  0  1  0  0  0  0  0  0  0  0  0
    0.2612   -2.6156   -2.3171 C   0  0  0  0  0  0  0  0  0  0  0  0
    0.4934   -0.8324   -3.9280 O   0  0  0  0  0  0  0  0  0  0  0  0
   -1.1260   -2.8720   -1.7538 N   0  0  0  0  0  0  0  0  0  0  0  0
   -1.7353   -4.2082   -0.8447 S   0  0  0  0  0  0  0  0  0  0  0  0
   -1.5514   -1.6446   -1.2204 C   0  0  0  0  0  0  0  0  0  0  0  0
   -0.6276   -1.1558   -0.0998 C   0  0  0  0  0  0  0  0  0  0  0  0
    1.4200   -1.2350   -0.2936 C   0  0  0  0  0  0  0  0  0  0  0  0
   -1.6176    0.0202    1.0236 C   0  0  0  0  0  0  0  0  0  0  0  0
   -1.5713   -4.3601    1.1024 C   0  0  0  0  0  0  0  0  0  0  0  0
   -1.6758   -3.3235    2.0669 C   0  0  0  0  0  0  0  0  0  0  0  0
   -1.3400   -3.2959    3.4568 C   0  0  0  0  0  0  0  0  0  0  0  0
   -0.7165   -4.4156    3.9804 C   0  0  0  0  0  0  0  0  0  0  0  0
   -0.7231   -5.5728    3.1002 C   0  0  0  0  0  0  0  0  0  0  0  0
   -1.1380   -5.5462    1.6807 C   0  0  0  0  0  0  0  0  0  0  0  0
    0.3424   -4.2797    4.9327 N   0  0  0  0  0  0  0  0  0  0  0  0
   -1.7244    1.4950   -2.3381 C   0  0  0  0  0  0  0  0  0  0  0  0
   -2.9352    1.3645   -2.2786 O   0  0  0  0  0  0  0  0  0  0  0  0
   -0.9344    2.3582   -2.9141 O   0  0  0  0  0  0  0  0  0  0  0  0
   -1.6948    3.4206   -3.3428 C   0  0  1  0  0  0  0  0  0  0  0  0
   -2.3266    4.2110   -2.2113 C   0  0  0  0  0  0  0  0  0  0  0  0
   -2.5826    5.4636   -2.8268 O   0  0  0  0  0  0  0  0  0  0  0  0
   -0.7664    4.4060   -3.9810 C   0  0  1  0  0  0  0  0  0  0  0  0
   -1.4798    5.7126   -3.7121 C   0  0  2  0  0  0  0  0  0  0  0  0
   -0.5627    6.5969   -3.0771 O   0  0  0  0  0  0  0  0  0  0  0  0
    0.7388    6.0215   -3.0674 C   0  0  0  0  0  0  0  0  0  0  0  0
    0.5915    4.5427   -3.3068 C   0  0  0  0  0  0  0  0  0  0  0  0
   -3.1705   -4.0452   -0.9699 O   0  0  0  0  0  0  0  0  0  0  0  0
   -1.0305   -5.3320   -1.4273 O   0  0  0  0  0  0  0  0  0  0  0  0
    0.6102   -1.0560    1.4853 C   0  0  0  0  0  0  0  0  0  0  0  0
    0.7795   -2.7158    0.8206 C   0  0  0  0  0  0  0  0  0  0  0  0
    1.3423   -3.9043    1.0240 C   0  0  0  0  0  0  0  0  0  0  0  0
    1.4478   -3.5242    2.2769 C   0  0  0  0  0  0  0  0  0  0  0  0
    1.1781   -2.1020    3.1107 C   0  0  0  0  0  0  0  0  0  0  0  0
    0.7507   -0.8226    2.7946 C   0  0  0  0  0  0  0  0  0  0  0  0
  2  1  1  1
  1 33  1  0
  2  4  1  0
  2  3  1  0
  3 20  1  0
  4  5  1  0
  4  6  1  6
  5  7  1  0
  7  8  1  0
  7  9  1  0
  8 13  1  0
  8 31  2  0
  8 32  2  0
  9 10  1  0
 10 11  1  0
 10 12  1  0
 13 14  2  0
 14 15  1  0
 15 16  2  0
 16 17  1  0
 16 19  1  0
 17 18  2  0
 18 13  1  0
 20 21  2  0
 20 22  1  0
 23 22  1  1
 23 24  1  0
 24 25  1  0
 27 25  1  1
 26 23  1  0
 26 27  1  0
 27 28  1  0
 28 29  1  0
 29 30  1  0
 26 30  1  1
 33 34  2  0
 33 38  1  0
 34 35  1  0
 35 36  2  0
 36 37  1  0
 37 38  2  0
M  END
>  <DRUGBANK_ID>  (1) 
DB01264

>  <SECONDARY_ACCESSION_NUMBERS>  (1) 
EXPT00002

>  <COMMON_NAME>  (1) 
Darunavir

>  <CAS_NUMBER>  (1) 
206361-99-1

>  <UNII>  (1) 
YO603Y8113

>  <SYNONYMS>  (1) 
(3R,3aS,6aR)-hexahydrofuro[2,3-b]furan-3-yl N-((1S,2R)-1-benzyl-2-hydroxy-3-(N1-isobutylsulfanilamido)propyl)carbamate; (3R,3aS,6aR)-tetrahydro-2H-furo[2,3-b]furan-3-yl (2S,3R)-4-(4-amino-N-isobutylphenylsulfonamido)-3-hydroxy-1-phenylbutan-2-ylcarbamate; (3R,3aS,6aR)-tetrahydro-2H-furo[2,3-b]furan-3-yl (2S,3R)-4-(4-amino-N-neopentylphenylsulfonamido)-3-hydroxy-1-phenylbutan-2-ylcarbamate; [(S)-3-[(4-Amino-benzenesulfonyl)-isobutyl-amino]-2-hydroxy-1-((R)-phenylmethyl)-propyl]-carbamic acid (3R,3aS,6aR)-(hexahydro-furo[2,3-b]furan-3-yl) ester; {(1S,2R)-3-[(4-Amino-benzenesulfonyl)-isobutyl-amino]-1-benzyl-2-hydroxy-propyl}-carbamic acid (3R,3aS,6aR)-(hexahydro-furo[2,3-b]furan-3-yl) ester; Darunavir; Darunavirum; N-((1S,2R)-3-(((4-aminophenyl)sulfonyl)(2-methylpropyl)amino)-2-hydroxy-1-benzylpropyl)((1S,2R,5R)-4,6-dioxabicyclo(3.3.0)oct-2-yloxy)carboxamide

$$$$
