
     RDKit          3D

 25 28  0  0  0  0  0  0  0  0999 V2000
    2.8687   -1.5633   -0.0047 C   0  0  0  0  0  0  0  0  0  0  0  0
    3.5889   -0.3718   -0.0061 C   0  0  0  0  0  0  0  0  0  0  0  0
    2.8903    0.8111   -0.0070 C   0  0  0  0  0  0  0  0  0  0  0  0
    1.4881    0.7836   -0.0000 C   0  0  0  0  0  0  0  0  0  0  0  0
    0.7109   -0.3748   -0.0005 C   0  0  0  0  0  0  0  0  0  0  0  0
    1.4501   -1.5710   -0.0055 C   0  0  0  0  0  0  0  0  0  0  0  0
    0.7691    2.3523    0.0422 S   0  0  0  0  0  0  0  0  0  0  0  0
   -0.8604    2.1259   -0.0508 N   0  0  0  0  0  0  0  0  0  0  0  0
   -1.4875    0.8459   -0.0122 C   0  0  0  0  0  0  0  0  0  0  0  0
   -0.7833   -0.2952    0.0108 C   0  0  0  0  0  0  0  0  0  0  0  0
   -2.9797    0.7815   -0.0299 C   0  0  0  0  0  0  0  0  0  0  0  0
   -3.5669   -0.4616   -0.0515 N   0  0  0  0  0  0  0  0  0  0  0  0
   -2.8569   -1.6480    0.0310 C   0  0  0  0  0  0  0  0  0  0  0  0
   -1.4666   -1.5448    0.0489 O   0  0  0  0  0  0  0  0  0  0  0  0
   -4.9946   -0.4736   -0.0748 C   0  0  0  0  0  0  0  0  0  0  0  0
   -5.6572    0.2835   -1.0525 C   0  0  0  0  0  0  0  0  0  0  0  0
   -7.0250    0.5173   -0.9463 C   0  0  0  0  0  0  0  0  0  0  0  0
   -7.7225   -0.0697    0.0948 C   0  0  0  0  0  0  0  0  0  0  0  0
   -7.0186   -0.8881    0.9652 C   0  0  0  0  0  0  0  0  0  0  0  0
   -5.6755   -1.0866    0.9188 N   0  0  0  0  0  0  0  0  0  0  0  0
   -3.3619   -2.7684    0.0057 O   0  0  0  0  0  0  0  0  0  0  0  0
   -1.6100    3.3879   -0.0139 C   0  0  0  0  0  0  0  0  0  0  0  0
   -3.6371    1.8248   -0.0085 O   0  0  0  0  0  0  0  0  0  0  0  0
    1.0621    2.9113    1.3397 O   0  0  0  0  0  0  0  0  0  0  0  0
    1.1670    3.0243   -1.1834 O   0  0  0  0  0  0  0  0  0  0  0  0
  1  2  2  0
  1  6  1  0
  2  3  1  0
  3  4  2  0
  4  5  1  0
  4  7  1  0
  5  6  2  0
  5 10  1  0
  7  8  1  0
  7 24  2  0
  8  9  1  0
  8 22  1  0
  9 10  2  0
  9 11  1  0
 10 14  1  0
 11 12  1  0
 11 23  2  0
 12 13  1  0
 12 15  1  0
 13 14  1  0
 13 21  2  0
 15 16  2  0
 15 20  1  0
 16 17  1  0
 17 18  2  0
 18 19  1  0
 19 20  2  0
 25  7  2  0
M  END
>  <DRUGBANK_ID>  (1) 
DB09215

>  <COMMON_NAME>  (1) 
Droxicam

>  <CAS_NUMBER>  (1) 
90101-16-9

>  <UNII>  (1) 
F24ADO1E2D

>  <SYNONYMS>  (1) 
Droxicam

$$$$
