
     RDKit          3D

 26 29  0  0  0  0  0  0  0  0999 V2000
   -3.2775    0.3244   -1.6220 C   0  0  0  0  0  0  0  0  0  0  0  0
   -2.0825   -0.8474   -1.2431 C   0  0  0  0  0  0  0  0  0  0  0  0
   -2.2907   -1.9426   -0.0733 C   0  0  0  0  0  0  0  0  0  0  0  0
   -1.6221   -3.1156    0.4737 C   0  0  0  0  0  0  0  0  0  0  0  0
   -2.6948   -2.3810    2.4646 C   0  0  0  0  0  0  0  0  0  0  0  0
   -3.7692   -1.5446    1.8657 C   0  0  0  0  0  0  0  0  0  0  0  0
   -3.7932   -1.7054    0.2498 C   0  0  1  0  0  0  0  0  0  0  0  0
   -7.3832    0.0221   -0.1714 C   0  0  0  0  0  0  0  0  0  0  0  0
   -7.1358    3.0720   -1.2673 C   0  0  0  0  0  0  0  0  0  0  0  0
   -5.8532    2.1767   -1.0449 C   0  0  0  0  0  0  0  0  0  0  0  0
   -4.8957   -0.6731   -0.1449 C   0  0  1  0  0  0  0  0  0  0  0  0
   -5.8740    0.8414   -1.8983 C   0  0  1  0  0  0  0  0  0  0  0  0
   -4.7575   -0.1353   -1.5179 C   0  0  1  0  0  0  0  0  0  0  0  0
   -7.3976    0.5902   -1.8304 C   0  0  2  0  0  0  0  0  0  0  0  0
   -7.5638    2.3043   -2.5166 C   0  0  1  0  0  0  0  0  0  0  0  0
   -2.7540   -3.4988    1.4634 C   0  0  0  0  0  0  0  0  0  0  0  0
   -3.5780   -4.3354    1.2790 O   0  0  0  0  0  0  0  0  0  0  0  0
   -6.3688   -1.1969    0.0380 C   0  0  1  0  0  0  0  0  0  0  0  0
   -7.0828   -2.3722    0.4210 O   0  0  0  0  0  0  0  0  0  0  0  0
   -7.9445    3.5539   -3.6630 C   0  0  0  0  0  0  0  0  0  0  0  0
   -7.1741    4.5354   -3.7760 O   0  0  0  0  0  0  0  0  0  0  0  0
   -9.1975    3.6156   -4.5386 C   0  0  0  0  0  0  0  0  0  0  0  0
   -9.9818    4.8044   -4.4359 O   0  0  0  0  0  0  0  0  0  0  0  0
   -8.1468   -0.7172   -2.3818 C   0  0  0  0  0  0  0  0  0  0  0  0
   -8.8068   -1.4870   -1.6632 O   0  0  0  0  0  0  0  0  0  0  0  0
   -4.1277   -2.8394   -0.7992 C   0  0  0  0  0  0  0  0  0  0  0  0
  1  2  1  0
  2  3  1  0
  3  4  2  0
  3  7  1  0
  4 16  1  0
  5  6  1  0
  6  7  1  0
  7 11  1  0
  7 26  1  1
  8 14  1  0
  9 10  1  0
 12 10  1  1
 11 18  1  6
 13  1  1  1
 13 11  1  0
 13 12  1  0
 14 15  1  0
 14 12  1  0
 14 24  1  6
 15  9  1  0
 15 20  1  1
 16  5  1  0
 16 17  2  0
 18  8  1  0
 18 19  1  1
 20 22  1  0
 20 21  2  0
 22 23  1  0
 24 25  2  0
M  END
>  <DRUGBANK_ID>  (1) 
DB04630

>  <COMMON_NAME>  (1) 
Aldosterone

>  <CAS_NUMBER>  (1) 
52-39-1

>  <UNII>  (1) 
4964P6T9RB

>  <SYNONYMS>  (1) 
(+)-aldosterone; (11Î²)-11,21-dihydroxy-3,20-dioxopregn-4-en-18-al; 11beta,21-Dihydroxy-3,20-dioxo-4-pregnen-18-al; 11beta,21-dihydroxy-3,20-dioxopregn-4-en-18-al; Aldosterona; Aldosterone; Aldosteronum

$$$$
