
     RDKit          3D

 29 33  0  0  1  0  0  0  0  0999 V2000
    0.8749   -0.0331    0.0009 O   0  0  0  0  0  0  0  0  0  0  0  0
    0.5646    1.1564    0.6730 N   0  0  0  0  0  0  0  0  0  0  0  0
    1.4509    2.0129    1.2551 C   0  0  0  0  0  0  0  0  0  0  0  0
    1.0543    2.9749    1.9239 O   0  0  0  0  0  0  0  0  0  0  0  0
    2.8965    1.8030    1.1155 C   0  0  0  0  0  0  0  0  0  0  0  0
    3.5132    1.4785   -0.0682 C   0  0  0  0  0  0  0  0  0  0  0  0
    4.8484    1.2697   -0.1900 N   0  0  0  0  0  0  0  0  0  0  0  0
    5.5994    1.3658    0.9263 C   0  0  0  0  0  0  0  0  0  0  0  0
    5.0771    1.6865    2.1208 N   0  0  0  0  0  0  0  0  0  0  0  0
    3.7483    1.9447    2.1836 C   0  0  0  0  0  0  0  0  0  0  0  0
    6.9464    1.1917    0.8573 N   0  0  0  0  0  0  0  0  0  0  0  0
    7.7619    1.8725   -0.1282 C   0  0  0  0  0  0  0  0  0  0  0  0
    8.8730    0.8971   -0.3917 C   0  0  1  0  0  0  0  0  0  0  0  0
    8.7867   -0.2211    0.5842 C   0  0  1  0  0  0  0  0  0  0  0  0
    7.6242    0.0778    1.5120 C   0  0  0  0  0  0  0  0  0  0  0  0
    8.4799   -0.4790   -0.8695 C   0  0  2  0  0  0  0  0  0  0  0  0
    9.3090   -1.2213   -1.8296 N   0  0  0  0  0  0  0  0  0  0  0  0
    8.9615   -0.8216   -3.2183 C   0  0  0  0  0  0  0  0  0  0  0  0
    9.4437    0.5818   -3.5347 C   0  0  0  0  0  0  0  0  0  0  0  0
   10.7845    0.7669   -3.6416 N   0  0  0  0  0  0  0  0  0  0  0  0
   11.2391    2.0253   -3.7226 C   0  0  0  0  0  0  0  0  0  0  0  0
   12.5719    2.2543   -4.0302 C   0  0  0  0  0  0  0  0  0  0  0  0
   13.0619    3.5526   -4.1924 C   0  0  0  0  0  0  0  0  0  0  0  0
   12.2155    4.6345   -3.9932 C   0  0  0  0  0  0  0  0  0  0  0  0
   12.6719    5.8782   -4.1817 F   0  0  0  0  0  0  0  0  0  0  0  0
   10.8904    4.4451   -3.6377 C   0  0  0  0  0  0  0  0  0  0  0  0
   10.3942    3.1429   -3.5371 C   0  0  0  0  0  0  0  0  0  0  0  0
    9.0363    2.9223   -3.3366 C   0  0  0  0  0  0  0  0  0  0  0  0
    8.5390    1.6377   -3.4789 C   0  0  0  0  0  0  0  0  0  0  0  0
  1  2  1  0
  2  3  1  0
  3  4  2  0
  3  5  1  0
  5  6  2  0
  5 10  1  0
  6  7  1  0
  7  8  2  0
  8  9  1  0
  8 11  1  0
  9 10  2  0
 11 12  1  0
 11 15  1  0
 13 12  1  1
 13 14  1  0
 13 16  1  0
 14 15  1  1
 14 16  1  0
 16 17  1  6
 17 18  1  0
 18 19  1  0
 19 20  2  0
 19 29  1  0
 20 21  1  0
 21 22  2  0
 21 27  1  0
 22 23  1  0
 23 24  2  0
 24 25  1  0
 24 26  1  0
 26 27  2  0
 27 28  1  0
 28 29  2  0
M  END
>  <DRUGBANK_ID>  (1) 
DB15419

>  <COMMON_NAME>  (1) 
Nanatinostat

>  <CAS_NUMBER>  (1) 
1256448-47-1

>  <UNII>  (1) 
YTL7A418KQ

>  <SYNONYMS>  (1) 
Nanatinostat

$$$$
