
     RDKit          3D

 31 35  0  0  1  0  0  0  0  0999 V2000
    2.5033    3.6729    1.8687 C   0  0  0  0  0  0  0  0  0  0  0  0
    1.1753    3.1842    1.6655 O   0  0  0  0  0  0  0  0  0  0  0  0
    0.9197    1.8149    1.2470 C   0  0  1  0  0  0  0  0  0  0  0  0
    2.1492    0.9524    1.0053 C   0  0  0  0  0  0  0  0  0  0  0  0
    1.9533   -0.5647    1.3466 C   0  0  0  0  0  0  0  0  0  0  0  0
    1.1185   -0.9086    2.7416 C   0  0  1  0  0  0  0  0  0  0  0  0
    1.0118   -2.4754    2.8038 C   0  0  0  0  0  0  0  0  0  0  0  0
    0.7721   -2.8074    4.2331 C   0  0  0  0  0  0  0  0  0  0  0  0
    0.3579   -4.0253    4.7563 C   0  0  0  0  0  0  0  0  0  0  0  0
    0.2183   -4.1622    6.1268 C   0  0  0  0  0  0  0  0  0  0  0  0
    0.5427   -3.1211    7.0318 C   0  0  0  0  0  0  0  0  0  0  0  0
    0.9743   -1.9099    6.4782 C   0  0  0  0  0  0  0  0  0  0  0  0
    1.0043   -1.7582    5.1240 C   0  0  0  0  0  0  0  0  0  0  0  0
    1.4102   -0.4934    4.4440 C   0  0  1  0  0  0  0  0  0  0  0  0
    2.7486   -0.2198    5.0981 N   0  0  0  0  0  0  0  0  0  0  0  0
    2.9572    0.9144    4.5407 C   0  0  0  0  0  0  0  0  0  0  0  0
    3.8046    0.4465    3.3874 C   0  0  0  0  0  0  0  0  0  0  0  0
    1.5504    1.6660    4.6624 C   0  0  0  0  0  0  0  0  0  0  0  0
    1.1977    2.9053    4.9561 N   0  0  0  0  0  0  0  0  0  0  0  0
    0.6180    0.6731    4.7864 N   0  0  0  0  0  0  0  0  0  0  0  0
    0.3761   -3.2477    8.4522 C   0  0  0  0  0  0  0  0  0  0  0  0
    1.0570   -4.2226    9.2039 C   0  0  0  0  0  0  0  0  0  0  0  0
    0.8739   -4.3033   10.5705 C   0  0  0  0  0  0  0  0  0  0  0  0
    0.0009   -3.3969   11.1708 C   0  0  0  0  0  0  0  0  0  0  0  0
   -0.6802   -2.4362   10.4894 N   0  0  0  0  0  0  0  0  0  0  0  0
   -0.4743   -2.3845    9.1648 C   0  0  0  0  0  0  0  0  0  0  0  0
    1.5634   -5.2901   11.3499 C   0  0  0  0  0  0  0  0  0  0  0  0
    2.1869   -6.1899   12.0582 C   0  0  0  0  0  0  0  0  0  0  0  0
    2.9137   -7.2389   12.8839 C   0  0  0  0  0  0  0  0  0  0  0  0
   -0.2652   -0.2958    2.3532 C   0  0  0  0  0  0  0  0  0  0  0  0
   -0.2030    1.2317    2.1441 C   0  0  0  0  0  0  0  0  0  0  0  0
  1  2  1  0
  3  4  1  0
  3 31  1  0
  3  2  1  1
  4  5  1  0
  6  5  1  6
  6  7  1  0
  6 14  1  0
  6 30  1  0
  7  8  1  0
  8  9  1  0
  8 13  2  0
  9 10  2  0
 10 11  1  0
 11 12  2  0
 11 21  1  0
 12 13  1  0
 14 13  1  0
 14 15  1  6
 14 20  1  0
 15 16  2  0
 16 17  1  0
 16 18  1  0
 18 19  1  0
 18 20  2  0
 21 22  2  0
 21 26  1  0
 22 23  1  0
 23 24  2  0
 23 27  1  0
 24 25  1  0
 25 26  2  0
 27 28  3  0
 28 29  1  0
 30 31  1  0
M  END
>  <DRUGBANK_ID>  (1) 
DB14814

>  <COMMON_NAME>  (1) 
Lanabecestat

>  <CAS_NUMBER>  (1) 
1383982-64-6

>  <UNII>  (1) 
X8SPJ492VF

>  <SYNONYMS>  (1) 
Lanabecestat

$$$$
