
     RDKit          3D

 14 15  0  0  0  0  0  0  0  0999 V2000
    1.0605    0.0117    0.0680 N   0  0  0  0  0  0  0  0  0  0  0  0
    0.3831    1.1707   -0.2588 C   0  0  0  0  0  0  0  0  0  0  0  0
    0.8107    1.9739   -1.3208 C   0  0  0  0  0  0  0  0  0  0  0  0
    0.1402    3.1562   -1.6696 C   0  0  0  0  0  0  0  0  0  0  0  0
    0.6111    3.9090   -2.7371 N   0  0  0  0  0  0  0  0  0  0  0  0
   -0.9798    3.5459   -0.9093 C   0  0  0  0  0  0  0  0  0  0  0  0
   -1.7203    4.7930   -1.2279 C   0  0  0  0  0  0  0  0  0  0  0  0
   -1.4083    5.5330   -2.1592 O   0  0  0  0  0  0  0  0  0  0  0  0
   -2.7946    5.1043   -0.4341 N   0  0  0  0  0  0  0  0  0  0  0  0
   -3.1998    4.3213    0.6277 N   0  0  0  0  0  0  0  0  0  0  0  0
   -2.5687    3.1549    0.9752 C   0  0  0  0  0  0  0  0  0  0  0  0
   -2.9551    2.4803    1.9265 O   0  0  0  0  0  0  0  0  0  0  0  0
   -1.4083    2.7503    0.1573 C   0  0  0  0  0  0  0  0  0  0  0  0
   -0.7362    1.5607    0.4716 C   0  0  0  0  0  0  0  0  0  0  0  0
  1  2  1  0
  2  3  2  0
  2 14  1  0
  3  4  1  0
  4  5  1  0
  4  6  2  0
  6  7  1  0
  6 13  1  0
  7  8  2  0
  7  9  1  0
  9 10  1  0
 10 11  1  0
 11 12  2  0
 11 13  1  0
 13 14  2  0
M  END
>  <DRUGBANK_ID>  (1) 
DB04169

>  <SECONDARY_ACCESSION_NUMBERS>  (1) 
EXPT01263

>  <COMMON_NAME>  (1) 
3,5-Diaminophthalhydrazide

$$$$
