
     RDKit          3D

 11 11  0  0  1  0  0  0  0  0999 V2000
    0.9106    0.7559    2.3579 N   0  0  0  0  0  0  0  0  0  0  0  0
    0.4856   -0.2061    1.3306 C   0  0  2  0  0  0  0  0  0  0  0  0
    1.0597    0.1892   -0.0495 C   0  0  0  0  0  0  0  0  0  0  0  0
    0.7044    1.5265   -0.3899 O   0  0  0  0  0  0  0  0  0  0  0  0
   -1.0595   -0.3052    1.3233 C   0  0  0  0  0  0  0  0  0  0  0  0
   -1.5745   -1.3531    0.3136 C   0  0  0  0  0  0  0  0  0  0  0  0
   -3.1074   -1.3884    0.2308 C   0  0  0  0  0  0  0  0  0  0  0  0
   -3.5663   -2.4632   -0.7591 C   0  0  0  0  0  0  0  0  0  0  0  0
   -3.0087   -3.8364   -0.3944 C   0  0  0  0  0  0  0  0  0  0  0  0
   -1.4909   -3.8127   -0.3116 C   0  0  0  0  0  0  0  0  0  0  0  0
   -1.0112   -2.7427    0.6526 C   0  0  0  0  0  0  0  0  0  0  0  0
  2  5  1  0
  2  3  1  0
  2  1  1  1
  3  4  1  0
  5  6  1  0
  6  7  1  0
  6 11  1  0
  7  8  1  0
  8  9  1  0
  9 10  1  0
 10 11  1  0
M  END
>  <DRUGBANK_ID>  (1) 
DB04387

>  <SECONDARY_ACCESSION_NUMBERS>  (1) 
EXPT00905

>  <COMMON_NAME>  (1) 
1-Hydroxy-2-Amino-3-Cyclohexylpropane

$$$$
