
     RDKit          3D

 19 19  0  0  1  0  0  0  0  0999 V2000
    3.6663    1.1560   -1.5439 O   0  0  0  0  0  0  0  0  0  0  0  0
    3.0628    4.7334    1.2406 O   0  0  0  0  0  0  0  0  0  0  0  0
    3.7311    3.4678    1.4707 C   0  0  1  0  0  0  0  0  0  0  0  0
    2.1058    4.9941    2.2676 C   0  0  2  0  0  0  0  0  0  0  0  0
    2.6907    2.3614    1.1570 C   0  0  1  0  0  0  0  0  0  0  0  0
    1.0199    3.8917    2.3899 C   0  0  1  0  0  0  0  0  0  0  0  0
    1.6760    2.4979    2.3459 C   0  0  1  0  0  0  0  0  0  0  0  0
    4.9129    3.3474    0.5392 C   0  0  0  0  0  0  0  0  0  0  0  0
    5.7379    4.4815    0.4179 O   0  0  0  0  0  0  0  0  0  0  0  0
    1.4433    6.2348    2.0407 O   0  0  0  0  0  0  0  0  0  0  0  0
    0.6914    1.4595    2.3438 O   0  0  0  0  0  0  0  0  0  0  0  0
    2.0520    2.5425   -0.1619 O   0  0  0  0  0  0  0  0  0  0  0  0
    2.8897    2.3606   -1.5904 S   0  0  0  0  0  0  0  0  0  0  0  0
    3.4681    3.6385   -2.0033 O   0  0  0  0  0  0  0  0  0  0  0  0
    1.7695    2.2482   -2.7211 O   0  0  0  0  0  0  0  0  0  0  0  0
    0.1557    4.0836    3.5828 N   0  0  0  0  0  0  0  0  0  0  0  0
    0.6667    4.3899    4.8232 C   0  0  0  0  0  0  0  0  0  0  0  0
   -0.3221    4.5846    5.9330 C   0  0  0  0  0  0  0  0  0  0  0  0
    1.8654    4.5413    5.0412 O   0  0  0  0  0  0  0  0  0  0  0  0
  1 13  2  0
  3  2  1  0
  3  8  1  6
  4  2  1  0
  4 10  1  6
  5  3  1  0
  5 12  1  6
  6  4  1  0
  6 16  1  1
  7  5  1  0
  7  6  1  0
  7 11  1  6
  9  8  1  0
 13 12  1  0
 14 13  2  0
 15 13  1  0
 17 16  1  0
 18 17  1  0
 19 17  2  0
M  END
>  <DRUGBANK_ID>  (1) 
DB01872

>  <SECONDARY_ACCESSION_NUMBERS>  (1) 
EXPT02337

>  <COMMON_NAME>  (1) 
2-deoxy-2-acetamido-beta-D-galactose-4-sulfate

$$$$
