TH8
     RDKit          3D

 21 21  0  0  0  0  0  0  0  0999 V2000
   -1.7453    0.6697    2.0290 C   0  0  0  0  0  0  0  0  0  0  0  0
   -2.7051   -0.1256    3.2714 Cl  0  0  0  0  0  0  0  0  0  0  0  0
   -1.7087    1.1951    0.3602 Cl  0  0  0  0  0  0  0  0  0  0  0  0
   -0.6143   -0.2831    2.1083 C   0  0  0  0  0  0  0  0  0  0  0  0
    0.3950    0.0393    2.7331 O   0  0  0  0  0  0  0  0  0  0  0  0
   -0.7751   -1.5673    1.6214 N   0  0  0  0  0  0  0  0  0  0  0  0
   -1.9061   -2.3774    0.9581 C   0  0  2  0  0  0  0  0  0  0  0  0
   -1.1537   -3.4200    0.0559 C   0  0  0  0  0  0  0  0  0  0  0  0
   -0.0216   -3.9618    0.7494 O   0  0  0  0  0  0  0  0  0  0  0  0
   -3.0324   -1.6506    0.0456 C   0  0  2  0  0  0  0  0  0  0  0  0
   -2.2888   -1.1018   -1.0457 O   0  0  0  0  0  0  0  0  0  0  0  0
   -4.2122   -0.8645    0.7925 C   0  0  0  0  0  0  0  0  0  0  0  0
   -4.9414   -1.6195    1.7401 C   0  0  0  0  0  0  0  0  0  0  0  0
   -5.6787   -1.0113    2.7910 C   0  0  0  0  0  0  0  0  0  0  0  0
   -5.6906    0.3810    2.9298 C   0  0  0  0  0  0  0  0  0  0  0  0
   -5.4750    1.7894    5.1290 O   0  0  0  0  0  0  0  0  0  0  0  0
   -7.4354    2.1635    3.5847 O   0  0  0  0  0  0  0  0  0  0  0  0
   -5.0476    1.1540    1.9769 C   0  0  0  0  0  0  0  0  0  0  0  0
   -4.4668    0.5391    0.8388 C   0  0  0  0  0  0  0  0  0  0  0  0
   -7.4249    0.0584    5.1178 C   0  0  0  0  0  0  0  0  0  0  0  0
   -6.4794    1.2672    4.2513 S   0  0  0  0  0  0  0  0  0  0  0  0
  1  2  1  0
  1  3  1  0
  1  4  1  0
  4  5  2  0
  4  6  1  0
  7  8  1  6
  7  6  1  0
  8  9  1  0
 10 12  1  0
 10 11  1  6
 10  7  1  0
 12 13  2  0
 12 19  1  0
 13 14  1  0
 14 15  2  0
 15 18  1  0
 15 21  1  0
 16 21  2  0
 17 21  2  0
 18 19  2  0
 20 21  1  0
M  END
>  <DRUGBANK_ID>  (1) 
DB08621

>  <COMMON_NAME>  (1) 
Thiamphenicol

>  <CAS_NUMBER>  (1) 
15318-45-3

>  <UNII>  (1) 
FLQ7571NPM

$$$$
