
     RDKit          3D

 31 34  0  0  0  0  0  0  0  0999 V2000
    2.4225    0.4097    0.4828 C   0  0  0  0  0  0  0  0  0  0  0  0
    1.2960    0.1183   -0.6455 C   0  0  2  0  0  0  0  0  0  0  0  0
    0.2974    1.2989   -0.6634 C   0  0  0  0  0  0  0  0  0  0  0  0
   -0.8796    1.1809    0.2328 N   0  0  0  0  0  0  0  0  0  0  0  0
   -1.7818    0.1462   -0.3008 C   0  0  0  0  0  0  0  0  0  0  0  0
   -1.0686   -1.1943   -0.2377 C   0  0  0  0  0  0  0  0  0  0  0  0
    0.4225   -1.2593   -0.8271 C   0  0  1  0  0  0  0  0  0  0  0  0
   -0.0687   -1.3705   -2.3284 C   0  0  0  0  0  0  0  0  0  0  0  0
   -0.0161   -2.3037   -3.1083 O   0  0  0  0  0  0  0  0  0  0  0  0
   -0.8276   -0.3401   -2.7507 O   0  0  0  0  0  0  0  0  0  0  0  0
    1.2829   -2.5077   -0.3678 C   0  0  0  0  0  0  0  0  0  0  0  0
    1.9284   -2.6410    0.8873 C   0  0  0  0  0  0  0  0  0  0  0  0
    2.5874   -3.7897    1.3359 C   0  0  0  0  0  0  0  0  0  0  0  0
    2.6886   -4.8686    0.4932 C   0  0  0  0  0  0  0  0  0  0  0  0
    2.1129   -4.7837   -0.7610 C   0  0  0  0  0  0  0  0  0  0  0  0
    1.4869   -3.6104   -1.1931 C   0  0  0  0  0  0  0  0  0  0  0  0
   -0.5318    1.0840    1.6902 C   0  0  2  0  0  0  0  0  0  0  0  0
    0.2642   -0.1704    2.1772 C   0  0  0  0  0  0  0  0  0  0  0  0
   -0.2846   -1.5438    2.5473 C   0  0  0  0  0  0  0  0  0  0  0  0
   -1.6220   -1.3504    3.1771 C   0  0  1  0  0  0  0  0  0  0  0  0
   -2.4700   -0.0920    2.8239 C   0  0  0  0  0  0  0  0  0  0  0  0
   -1.7345    1.2370    2.6142 C   0  0  0  0  0  0  0  0  0  0  0  0
   -2.4888   -2.5233    2.8241 C   0  0  0  0  0  0  0  0  0  0  0  0
   -3.1973   -3.3587    2.5001 N   0  0  0  0  0  0  0  0  0  0  0  0
   -1.1543   -1.2043    4.5957 C   0  0  0  0  0  0  0  0  0  0  0  0
   -0.3502   -0.1036    4.9985 C   0  0  0  0  0  0  0  0  0  0  0  0
   -0.0325    0.1314    6.2989 C   0  0  0  0  0  0  0  0  0  0  0  0
   -0.5068   -0.7744    7.2090 C   0  0  0  0  0  0  0  0  0  0  0  0
   -0.2255   -0.5770    8.4949 F   0  0  0  0  0  0  0  0  0  0  0  0
   -1.2431   -1.9007    6.8279 C   0  0  0  0  0  0  0  0  0  0  0  0
   -1.4873   -2.1764    5.5047 C   0  0  0  0  0  0  0  0  0  0  0  0
  2  1  1  1
  2  3  1  0
  2  7  1  0
  3  4  1  0
  4  5  1  0
  5  6  1  0
  6  7  1  0
  7  8  1  6
  7 11  1  0
  8  9  2  0
  8 10  1  0
 11 12  2  0
 11 16  1  0
 12 13  1  0
 13 14  2  0
 14 15  1  0
 15 16  2  0
 17  4  1  6
 17 18  1  0
 17 22  1  0
 18 19  1  0
 19 20  1  0
 20 21  1  0
 20 25  1  0
 20 23  1  1
 21 22  1  0
 23 24  3  0
 25 26  2  0
 25 31  1  0
 26 27  1  0
 27 28  2  0
 28 29  1  0
 28 30  1  0
 30 31  2  0
M  END
>  <DRUGBANK_ID>  (1) 
DB01106

>  <SECONDARY_ACCESSION_NUMBERS>  (1) 
APRD01069

>  <COMMON_NAME>  (1) 
Levocabastine

>  <CAS_NUMBER>  (1) 
79516-68-0

>  <UNII>  (1) 
H68BP06S81

>  <SYNONYMS>  (1) 
Levocabastina; Levocabastine; Levocabastinum

$$$$
