
     RDKit          3D

 15 17  0  0  0  0  0  0  0  0999 V2000
    2.4353   -0.0334   -0.2958 C   0  0  0  0  0  0  0  0  0  0  0  0
   -2.1434    0.7241   -0.0583 C   0  0  0  0  0  0  0  0  0  0  0  0
    1.6255    1.1927    0.1317 C   0  0  0  0  0  0  0  0  0  0  0  0
   -0.9344    1.4036    0.0129 C   0  0  0  0  0  0  0  0  0  0  0  0
    1.6155   -1.2674    0.1228 C   0  0  0  0  0  0  0  0  0  0  0  0
   -2.1734   -0.6797   -0.0871 C   0  0  0  0  0  0  0  0  0  0  0  0
   -3.8139   -5.0479    0.4064 C   0  0  0  0  0  0  0  0  0  0  0  0
   -4.3296   -4.1472   -0.7219 C   0  0  0  0  0  0  0  0  0  0  0  0
    0.2287    0.6561    0.0499 C   0  0  0  0  0  0  0  0  0  0  0  0
    0.2045   -0.7552    0.0230 C   0  0  0  0  0  0  0  0  0  0  0  0
   -1.0044   -1.4617   -0.0421 C   0  0  0  0  0  0  0  0  0  0  0  0
   -2.1960   -3.6143   -0.0901 C   0  0  0  0  0  0  0  0  0  0  0  0
   -2.4850   -4.4880    0.8323 N   0  0  0  0  0  0  0  0  0  0  0  0
   -3.1243   -3.4572   -1.0666 N   0  0  0  0  0  0  0  0  0  0  0  0
   -1.0429   -2.8785   -0.1709 N   0  0  0  0  0  0  0  0  0  0  0  0
  3  1  1  0
  4  2  1  0
  5  1  1  0
  6  2  2  0
  8  7  1  0
  9  3  1  0
  9  4  2  0
 10  5  1  0
 10  9  1  0
 11  6  1  0
 11 10  2  0
 13  7  1  0
 13 12  2  0
 14  8  1  0
 14 12  1  0
 15 11  1  0
 15 12  1  0
M  END
>  <DRUGBANK_ID>  (1) 
DB13827

>  <COMMON_NAME>  (1) 
Indanazoline

>  <CAS_NUMBER>  (1) 
40507-78-6

>  <UNII>  (1) 
L0U38EHD86

>  <SYNONYMS>  (1) 
Indanazoline

$$$$
