
     RDKit          3D

  4  3  0  0  0  0  0  0  0  0999 V2000
    1.9326    0.0687   -0.0273 O   0  0  0  0  0  0  0  0  0  0  0  0
    2.6159    1.5517   -1.2667 Sb  0  0  0  0  0  3  0  0  0  0  0  0
    1.9326    3.3666   -0.6020 O   0  0  0  0  0  0  0  0  0  0  0  0
    4.6659    1.5517   -1.2667 O   0  0  0  0  0  0  0  0  0  0  0  0
  1  2  1  0
  2  3  1  0
  2  4  1  0
M  END
>  <DRUGBANK_ID>  (1) 
DB02453

>  <SECONDARY_ACCESSION_NUMBERS>  (1) 
EXPT02857

>  <COMMON_NAME>  (1) 
Antimonous acid

>  <SYNONYMS>  (1) 
Stiborous acid; Trihydroxyantimonite(III)

$$$$
