047
     RDKit          3D

 25 28  0  0  0  0  0  0  0  0999 V2000
    1.5668    1.1449    0.0465 N   0  0  0  0  0  0  0  0  0  0  0  0
    0.2400    0.7270    0.0615 C   0  0  0  0  0  0  0  0  0  0  0  0
    0.2430   -0.6655    0.0074 C   0  0  0  0  0  0  0  0  0  0  0  0
    1.5936   -1.0996   -0.0591 C   0  0  0  0  0  0  0  0  0  0  0  0
    2.3840    0.0360   -0.0487 C   0  0  0  0  0  0  0  0  0  0  0  0
    2.0273   -2.5187   -0.1516 C   0  0  0  0  0  0  0  0  0  0  0  0
    1.5663   -3.2099    1.0537 N   0  0  0  0  0  0  0  0  0  0  0  0
    2.1557   -4.5349    1.1958 C   0  0  0  0  0  0  0  0  0  0  0  0
    3.6959   -4.5182    1.2702 C   0  0  0  0  0  0  0  0  0  0  0  0
    4.2445   -3.2875    2.0260 C   0  0  0  0  0  0  0  0  0  0  0  0
    5.7578   -3.2908    2.0927 C   0  0  0  0  0  0  0  0  0  0  0  0
    6.2405   -4.5557    2.7757 C   0  0  0  0  0  0  0  0  0  0  0  0
    5.7318   -5.8002    2.0514 C   0  0  0  0  0  0  0  0  0  0  0  0
    4.2088   -5.8060    1.9299 C   0  0  0  0  0  0  0  0  0  0  0  0
   -0.9754   -1.3746    0.0049 C   0  0  0  0  0  0  0  0  0  0  0  0
   -2.1775   -0.6746    0.0104 C   0  0  0  0  0  0  0  0  0  0  0  0
   -2.1723    0.7144    0.0152 C   0  0  0  0  0  0  0  0  0  0  0  0
   -0.9742    1.4420    0.0410 C   0  0  0  0  0  0  0  0  0  0  0  0
    2.0283    2.4837    0.0436 C   0  0  0  0  0  0  0  0  0  0  0  0
    1.5715    3.3751    1.0215 C   0  0  0  0  0  0  0  0  0  0  0  0
    1.9006    4.7282    0.9210 C   0  0  0  0  0  0  0  0  0  0  0  0
    2.7052    5.1922   -0.1257 C   0  0  0  0  0  0  0  0  0  0  0  0
    3.2406    4.2707   -1.0389 C   0  0  0  0  0  0  0  0  0  0  0  0
    2.8910    2.9194   -0.9632 C   0  0  0  0  0  0  0  0  0  0  0  0
    2.9389    6.6658   -0.2911 C   0  0  0  0  0  0  0  0  0  0  0  0
  1  2  1  0
  1 19  1  0
  1  5  1  0
  2 18  2  0
  2  3  1  0
  3 15  2  0
  3  4  1  0
  4  6  1  0
  4  5  2  0
  6  7  1  0
  7  8  1  0
  8  9  1  0
  9 14  1  0
  9 10  1  0
 10 11  1  0
 11 12  1  0
 12 13  1  0
 13 14  1  0
 15 16  1  0
 16 17  2  0
 17 18  1  0
 19 20  2  0
 19 24  1  0
 20 21  1  0
 21 22  2  0
 22 23  1  0
 22 25  1  0
 23 24  2  0
M  END
>  <DRUGBANK_ID>  (1) 
DB06833

>  <COMMON_NAME>  (1) 
1-CYCLOHEXYL-N-{[1-(4-METHYLPHENYL)-1H-INDOL-3-YL]METHYL}METHANAMINE

$$$$
