
     RDKit          3D

 15 15  0  0  0  0  0  0  0  0999 V2000
    1.1344    0.0818   -0.0737 C   0  0  0  0  0  0  0  0  0  0  0  0
    0.5014    1.4063    0.3844 C   0  0  0  0  0  0  0  0  0  0  0  0
    1.0763    2.5191   -0.5058 C   0  0  0  0  0  0  0  0  0  0  0  0
   -1.0776    1.3764    0.4053 C   0  0  0  0  0  0  0  0  0  0  0  0
   -1.6223    0.8911    1.7818 C   0  0  0  0  0  0  0  0  0  0  0  0
   -1.1894   -0.4877    2.1961 C   0  0  0  0  0  0  0  0  0  0  0  0
   -1.6160    0.4465   -0.6871 C   0  0  0  0  0  0  0  0  0  0  0  0
   -1.5314   -0.7821   -0.6679 O   0  0  0  0  0  0  0  0  0  0  0  0
   -2.1694    1.0021   -1.7907 N   0  0  0  0  0  0  0  0  0  0  0  0
   -2.5063    2.3019   -1.9534 C   0  0  0  0  0  0  0  0  0  0  0  0
   -3.1194    2.6813   -2.9387 O   0  0  0  0  0  0  0  0  0  0  0  0
   -2.1585    3.1479   -0.9498 N   0  0  0  0  0  0  0  0  0  0  0  0
   -1.5930    2.8087    0.2462 C   0  0  0  0  0  0  0  0  0  0  0  0
   -1.4429    3.6764    1.1079 O   0  0  0  0  0  0  0  0  0  0  0  0
   -0.4297   -0.7533    3.2626 C   0  0  0  0  0  0  0  0  0  0  0  0
  1  2  1  0
  2  3  1  0
  2  4  1  0
  4  5  1  0
  4  7  1  0
  4 13  1  0
  5  6  1  0
  7  8  2  0
  7  9  1  0
  9 10  1  0
 10 11  2  0
 10 12  1  0
 12 13  1  0
 13 14  2  0
 15  6  2  0
M  END
>  <DRUGBANK_ID>  (1) 
DB01352

>  <COMMON_NAME>  (1) 
Aprobarbital

>  <CAS_NUMBER>  (1) 
77-02-1

>  <UNII>  (1) 
Q0YKG9L6RF

>  <SYNONYMS>  (1) 
5-(1-methylethyl)-5-(2-propenyl)-2,4,6(1H,3H,5H)-pyrimidinetrione; 5-allyl-5-isopropylbarbituric acid; 5-allyl-5-isopropylpyrimidine-2,4,6(1H,3H,5H)-trione; 5-isopropyl-5-allylbarbituric acid; Allypropymal; Aprobarbital; Aprobarbitale; Aprobarbitalum

$$$$
