RO4
     RDKit          3D

 28 27  0  0  0  0  0  0  0  0999 V2000
    2.9519    2.0766    0.5472 O   0  0  0  0  0  0  0  0  0  0  0  0
    5.3450   -2.5801   -1.0134 O   0  0  0  0  0  0  0  0  0  0  0  0
    2.7013   -0.8544   -6.2404 O   0  0  0  0  0  0  0  0  0  0  0  0
    4.4194    1.0155   -1.7534 O   0  0  0  0  0  0  0  0  0  0  0  0
    2.9791   -1.0461   -2.4159 O   0  0  0  0  0  0  0  0  0  0  0  0
    4.2170   -0.1040    3.0020 O   0  0  0  0  0  0  0  0  0  0  0  0
    3.6097    0.9628    2.3395 N   0  0  0  0  0  0  0  0  0  0  0  0
    4.1635   -0.0492   -4.8768 N   0  0  0  0  0  0  0  0  0  0  0  0
    3.9145   -2.6811   -3.0691 N   0  0  0  0  0  0  0  0  0  0  0  0
    3.6231    1.1611    1.0182 C   0  0  0  0  0  0  0  0  0  0  0  0
    4.4220   -1.9130   -1.6002 C   0  0  0  0  0  0  0  0  0  0  0  0
    3.2195   -1.0127   -5.1243 C   0  0  0  0  0  0  0  0  0  0  0  0
    4.1275    0.1465   -2.5997 C   0  0  0  0  0  0  0  0  0  0  0  0
    3.3762   -0.4187   -0.7239 C   0  0  1  0  0  0  0  0  0  0  0  0
    2.6602   -2.2300   -4.1919 C   0  0  2  0  0  0  0  0  0  0  0  0
    4.8659    0.4885   -3.7652 C   0  0  2  0  0  0  0  0  0  0  0  0
    1.0330    0.3096   -2.5351 C   0  0  0  0  0  0  0  0  0  0  0  0
   -0.0923   -1.2053   -4.2915 C   0  0  0  0  0  0  0  0  0  0  0  0
    4.3913    0.1624    0.2394 C   0  0  0  0  0  0  0  0  0  0  0  0
    2.4303   -2.3400   -1.1010 C   0  0  0  0  0  0  0  0  0  0  0  0
    2.1442    0.8198   -1.6407 C   0  0  0  0  0  0  0  0  0  0  0  0
    1.0595   -2.2080   -3.6251 C   0  0  0  0  0  0  0  0  0  0  0  0
    2.8096   -2.2975    0.6060 C   0  0  0  0  0  0  0  0  0  0  0  0
   -0.0017   -0.5842   -1.5309 C   0  0  0  0  0  0  0  0  0  0  0  0
    0.6881    1.3746   -3.7548 C   0  0  0  0  0  0  0  0  0  0  0  0
   -0.7709   -2.0438   -5.2747 C   0  0  0  0  0  0  0  0  0  0  0  0
   -1.4066   -0.2488   -3.5216 C   0  0  0  0  0  0  0  0  0  0  0  0
    4.8600    2.1558   -3.6039 C   0  0  0  0  0  0  0  0  0  0  0  0
  1 10  2  0
  2 11  2  0
  3 12  2  0
  4 13  2  0
  5 13  1  0
  5 20  1  0
  6  7  1  0
  7 10  1  0
  8 12  1  0
  9 11  1  0
 10 19  1  0
 14 21  1  6
 14 19  1  0
 14 11  1  0
 15 22  1  1
 15 12  1  0
 15  9  1  0
 16 28  1  6
 16 13  1  0
 16  8  1  0
 17 21  1  0
 17 24  1  0
 17 25  1  0
 18 22  1  0
 18 26  1  0
 18 27  1  0
 20 23  1  0
M  END
>  <DRUGBANK_ID>  (1) 
DB08482

>  <COMMON_NAME>  (1) 
[[1-[N-HYDROXY-ACETAMIDYL]-3-METHYL-BUTYL]-CARBONYL-LEUCINYL]-ALANINE ETHYL ESTER

$$$$
