L11
     RDKit          3D

 31 34  0  0  0  0  0  0  0  0999 V2000
   -2.2191    0.3722   -0.0423 Cl  0  0  0  0  0  0  0  0  0  0  0  0
   -0.5091    0.2029    0.0530 C   0  0  0  0  0  0  0  0  0  0  0  0
    0.2924    1.3503    0.0180 C   0  0  0  0  0  0  0  0  0  0  0  0
    1.6967    1.2680    0.0311 C   0  0  0  0  0  0  0  0  0  0  0  0
    0.0784   -1.0453    0.1584 C   0  0  0  0  0  0  0  0  0  0  0  0
   -0.7053   -2.3311   -0.0412 C   0  0  0  0  0  0  0  0  0  0  0  0
   -0.6161   -3.0749   -1.2794 O   0  0  0  0  0  0  0  0  0  0  0  0
   -0.5617   -2.5402   -2.5137 C   0  0  0  0  0  0  0  0  0  0  0  0
   -1.0643   -3.3431   -3.5287 C   0  0  0  0  0  0  0  0  0  0  0  0
   -1.2957   -2.9129   -4.7880 N   0  0  0  0  0  0  0  0  0  0  0  0
   -0.9847   -1.6248   -5.0398 C   0  0  0  0  0  0  0  0  0  0  0  0
   -0.3379   -0.8010   -4.1389 C   0  0  0  0  0  0  0  0  0  0  0  0
   -0.0679   -1.3018   -2.8755 C   0  0  0  0  0  0  0  0  0  0  0  0
    1.4654   -1.0705    0.3747 C   0  0  0  0  0  0  0  0  0  0  0  0
    2.3082    0.0282    0.1696 C   0  0  0  0  0  0  0  0  0  0  0  0
    3.7153   -0.0794    0.0741 N   0  0  0  0  0  0  0  0  0  0  0  0
    4.5275   -1.1903   -0.0264 C   0  0  0  0  0  0  0  0  0  0  0  0
    5.7376   -1.0841    0.0649 O   0  0  0  0  0  0  0  0  0  0  0  0
    3.9125   -2.5520   -0.1619 C   0  0  0  0  0  0  0  0  0  0  0  0
    3.1017   -2.9438   -1.1464 C   0  0  0  0  0  0  0  0  0  0  0  0
    2.2868   -4.1931   -1.0038 C   0  0  2  0  0  0  0  0  0  0  0  0
    1.1399   -3.7717   -0.4489 F   0  0  0  0  0  0  0  0  0  0  0  0
    4.2299   -3.4644    0.9545 C   0  0  0  0  0  0  0  0  0  0  0  0
    3.6993   -4.9153    0.9494 C   0  0  1  0  0  0  0  0  0  0  0  0
    2.5663   -5.2559    0.0131 C   0  0  0  0  0  0  0  0  0  0  0  0
    4.6933   -5.9689    0.7317 N   0  0  0  0  0  0  0  0  0  0  0  0
    5.8101   -5.8996    1.6774 C   0  0  0  0  0  0  0  0  0  0  0  0
    6.9935   -5.0072    1.2492 C   0  0  0  0  0  0  0  0  0  0  0  0
    7.3927   -5.2396   -0.1075 O   0  0  0  0  0  0  0  0  0  0  0  0
    6.3036   -5.1463   -1.0311 C   0  0  0  0  0  0  0  0  0  0  0  0
    5.1864   -6.1137   -0.6544 C   0  0  0  0  0  0  0  0  0  0  0  0
  1  2  1  0
  2  3  2  0
  2  5  1  0
  3  4  1  0
  4 15  2  0
  5  6  1  0
  5 14  2  0
  6  7  1  0
  7  8  1  0
  8  9  2  0
  8 13  1  0
  9 10  1  0
 10 11  2  0
 11 12  1  0
 12 13  2  0
 14 15  1  0
 15 16  1  0
 16 17  1  0
 17 18  2  0
 17 19  1  0
 19 20  2  0
 19 23  1  0
 20 21  1  0
 21 25  1  0
 21 22  1  1
 23 24  1  0
 24 25  1  0
 24 26  1  6
 26 27  1  0
 26 31  1  0
 27 28  1  0
 28 29  1  0
 29 30  1  0
 30 31  1  0
M  END
>  <DRUGBANK_ID>  (1) 
DB08068

>  <COMMON_NAME>  (1) 
N-[4-CHLORO-3-(PYRIDIN-3-YLOXYMETHYL)-PHENYL]-3-FLUORO-

$$$$
