5HD
     RDKit          3D

 14 13  0  0  0  0  0  0  0  0999 V2000
    1.1031    0.0378    0.0449 C   0  0  0  0  0  0  0  0  0  0  0  0
    0.5853    1.4146   -0.3774 C   0  0  0  0  0  0  0  0  0  0  0  0
    1.0735    1.8802   -1.7458 C   0  0  0  0  0  0  0  0  0  0  0  0
   -1.4388   -5.7955    1.5270 O   0  0  0  0  0  0  0  0  0  0  0  0
   -1.1451   -5.3146    0.2240 C   0  0  0  0  0  0  0  0  0  0  0  0
   -1.7457   -3.9225    0.0603 C   0  0  0  0  0  0  0  0  0  0  0  0
   -1.0152   -2.8644    0.8948 C   0  0  0  0  0  0  0  0  0  0  0  0
    0.5226   -2.8807    0.8020 C   0  0  0  0  0  0  0  0  0  0  0  0
    1.1222   -2.4671   -0.5618 C   0  0  0  0  0  0  0  0  0  0  0  0
    0.8071   -3.4339   -1.7371 C   0  0  0  0  0  0  0  0  0  0  0  0
    1.3306   -3.0793   -3.1261 C   0  0  0  0  0  0  0  0  0  0  0  0
    2.7407   -3.0176   -3.1509 O   0  0  0  0  0  0  0  0  0  0  0  0
    0.6714   -1.0558   -0.9253 C   0  0  0  0  0  0  0  0  0  0  0  0
    0.4560    1.1544   -2.8067 O   0  0  0  0  0  0  0  0  0  0  0  0
  1  2  1  0
  2  3  1  0
  3 14  1  0
  5  4  1  0
  5  6  1  0
  6  7  1  0
  7  8  1  0
  9  8  1  0
  9 13  1  0
 10  9  1  0
 11 10  1  0
 12 11  1  0
 13  1  1  0
M  END
>  <DRUGBANK_ID>  (1) 
DB07171

>  <COMMON_NAME>  (1) 
5-(2-hydroxyethyl)nonane-1,9-diol

$$$$
