
     RDKit          3D

  8  7  0  0  0  0  0  0  0  0999 V2000
    0.8686    0.0621   -0.1210 C   0  0  0  0  0  0  0  0  0  0  0  0
    0.2624    1.7426   -0.0935 S   0  0  0  0  0  0  0  0  0  0  0  0
    0.8677    2.4138   -1.2335 O   0  0  0  0  0  0  0  0  0  0  0  0
   -1.1760    1.6865    0.0441 O   0  0  0  0  0  0  0  0  0  0  0  0
    0.9022    2.5655    1.3757 C   0  0  0  0  0  0  0  0  0  0  0  0
    0.4047    1.9662    2.6834 C   0  0  0  0  0  0  0  0  0  0  0  0
    0.9114    0.5345    2.7445 C   0  0  0  0  0  0  0  0  0  0  0  0
    1.3317   -0.6533    2.7952 N   0  0  0  0  0  0  0  0  0  0  0  0
  1  2  1  0
  2  3  2  0
  2  4  2  0
  2  5  1  0
  5  6  1  0
  6  7  1  0
  7  8  3  0
M  END
>  <DRUGBANK_ID>  (1) 
DB16130

>  <COMMON_NAME>  (1) 
Dapansutrile

>  <CAS_NUMBER>  (1) 
54863-37-5

>  <UNII>  (1) 
2Z03364G96

>  <SYNONYMS>  (1) 
Dapansutrile

$$$$
