HM4
     RDKit          3D

 22 23  0  0  0  0  0  0  0  0999 V2000
   -1.1309   -0.0073   -0.1607 S   0  0  0  0  0  0  0  0  0  0  0  0
    1.3406   -0.6908   -0.1769 N   0  0  0  0  0  0  0  0  0  0  0  0
   -0.1499   -2.5222   -0.4695 N   0  0  0  0  0  0  0  0  0  0  0  0
   -2.4091   -5.1970   -1.0110 N   0  0  0  0  0  0  0  0  0  0  0  0
    0.1344   -4.7236    1.6864 N   0  0  0  0  0  0  0  0  0  0  0  0
    0.0229    1.2390   -0.0207 C   0  0  0  0  0  0  0  0  0  0  0  0
    1.2862    0.6923   -0.0336 C   0  0  0  0  0  0  0  0  0  0  0  0
    0.1160   -1.1704   -0.2895 C   0  0  0  0  0  0  0  0  0  0  0  0
   -1.4254   -3.0942   -0.3772 C   0  0  0  0  0  0  0  0  0  0  0  0
   -1.5090   -4.5861   -0.1838 C   0  0  0  0  0  0  0  0  0  0  0  0
   -2.5539   -6.5354   -0.9268 C   0  0  0  0  0  0  0  0  0  0  0  0
   -1.8055   -7.3323   -0.0841 C   0  0  0  0  0  0  0  0  0  0  0  0
   -0.8924   -6.7059    0.7656 C   0  0  0  0  0  0  0  0  0  0  0  0
   -0.7614   -5.2996    0.7594 C   0  0  0  0  0  0  0  0  0  0  0  0
    0.0858   -3.4292    2.1726 C   0  0  0  0  0  0  0  0  0  0  0  0
    2.0669   -3.6677    3.5601 C   0  0  0  0  0  0  0  0  0  0  0  0
    1.1619   -4.3955    4.5634 C   0  0  0  0  0  0  0  0  0  0  0  0
    3.0148   -4.5512    2.7480 C   0  0  0  0  0  0  0  0  0  0  0  0
    2.9134   -2.6528    4.3465 C   0  0  0  0  0  0  0  0  0  0  0  0
   -2.4982   -2.4967   -0.4139 O   0  0  0  0  0  0  0  0  0  0  0  0
   -0.9119   -2.7109    2.1484 O   0  0  0  0  0  0  0  0  0  0  0  0
    1.2503   -2.9198    2.6482 O   0  0  0  0  0  0  0  0  0  0  0  0
  1  6  1  0
  1  8  1  0
  2  7  1  0
  2  8  2  0
  3  8  1  0
  3  9  1  0
  4 11  2  0
  4 10  1  0
  5 14  1  0
  5 15  1  0
  6  7  2  0
  9 10  1  0
  9 20  2  0
 10 14  2  0
 11 12  1  0
 12 13  2  0
 13 14  1  0
 15 22  1  0
 15 21  2  0
 16 22  1  0
 16 17  1  0
 16 18  1  0
 16 19  1  0
M  END
>  <DRUGBANK_ID>  (1) 
DB07902

>  <COMMON_NAME>  (1) 
TERT-BUTYL {2-[(1,3-THIAZOL-2-YLAMINO)CARBONYL]PYRIDIN-3-YL}CARBAMATE

$$$$
