
     RDKit          3D

 15 14  0  0  1  0  0  0  0  0999 V2000
    1.0185    1.6961   -2.1604 C   0  0  0  0  0  0  0  0  0  0  0  0
    2.4690    1.2990   -2.4947 C   0  0  0  0  0  0  0  0  0  0  0  0
    2.1065    1.3084    1.8884 C   0  0  0  0  0  0  0  0  0  0  0  0
    0.4903    1.2761   -0.7854 C   0  0  2  0  0  0  0  0  0  0  0  0
    2.4214    0.5566    0.5825 C   0  0  2  0  0  0  0  0  0  0  0  0
    1.2080    0.0351   -0.2101 C   0  0  1  0  0  0  0  0  0  0  0  0
    3.4816    2.0706   -1.8615 O   0  0  0  0  0  0  0  0  0  0  0  0
   -0.9378    1.2044   -0.7275 O   0  0  0  0  0  0  0  0  0  0  0  0
    3.3709   -0.4862    0.7580 O   0  0  0  0  0  0  0  0  0  0  0  0
    0.3905   -0.7649    0.6162 O   0  0  0  0  0  0  0  0  0  0  0  0
   -0.3716    0.9739    4.4583 O   0  0  0  0  0  0  0  0  0  0  0  0
   -0.6772    1.5705    2.0554 O   0  0  0  0  0  0  0  0  0  0  0  0
   -0.7406   -0.9350    2.8445 O   0  0  0  0  0  0  0  0  0  0  0  0
    1.4853    0.4624    2.8475 O   0  0  0  0  0  0  0  0  0  0  0  0
   -0.1110    0.4332    2.9913 P   0  0  0  0  0  0  0  0  0  0  0  0
  2  1  1  0
  4  8  1  6
  4  6  1  0
  4  1  1  0
  5  3  1  0
  5  9  1  1
  6  5  1  0
  6 10  1  1
  7  2  1  0
 14  3  1  0
 15 11  1  0
 15 12  1  0
 15 13  2  0
 15 14  1  0
M  END
>  <DRUGBANK_ID>  (1) 
DB04516

>  <SECONDARY_ACCESSION_NUMBERS>  (1) 
EXPT01174

>  <COMMON_NAME>  (1) 
2-Deoxy-Glucitol-6-Phosphate

$$$$
