
     RDKit          3D

 27 30  0  0  0  0  0  0  0  0999 V2000
    0.9603   -0.3799   -0.1140 C   0  0  0  0  0  0  0  0  0  0  0  0
    0.4460    0.3233   -1.2889 N   0  0  0  0  0  0  0  0  0  0  0  0
   -1.0081    0.3075   -1.2751 C   0  0  0  0  0  0  0  0  0  0  0  0
    0.9474    1.6932   -1.5034 C   0  0  0  0  0  0  0  0  0  0  0  0
    0.5838    2.7513   -0.4431 C   0  0  0  0  0  0  0  0  0  0  0  0
    1.1382    2.5114    0.9547 C   0  0  0  0  0  0  0  0  0  0  0  0
    2.5822    2.3788    1.0052 N   0  0  0  0  0  0  0  0  0  0  0  0
    3.3981    3.0763    1.8498 C   0  0  0  0  0  0  0  0  0  0  0  0
    3.1827    3.9846    2.8775 C   0  0  0  0  0  0  0  0  0  0  0  0
    4.3429    4.5030    3.4649 C   0  0  0  0  0  0  0  0  0  0  0  0
    5.6411    4.1198    3.0353 C   0  0  0  0  0  0  0  0  0  0  0  0
    5.8315    3.1979    2.0036 C   0  0  0  0  0  0  0  0  0  0  0  0
    4.6588    2.7071    1.4514 C   0  0  0  0  0  0  0  0  0  0  0  0
    4.5476    1.7798    0.4080 C   0  0  0  0  0  0  0  0  0  0  0  0
    3.2618    1.5524    0.1577 N   0  0  0  0  0  0  0  0  0  0  0  0
    5.7732    1.2453   -0.1980 C   0  0  0  0  0  0  0  0  0  0  0  0
    5.8096    0.3183   -1.2504 C   0  0  0  0  0  0  0  0  0  0  0  0
    7.0487   -0.1226   -1.7525 C   0  0  0  0  0  0  0  0  0  0  0  0
    8.2368    0.3690   -1.1973 C   0  0  0  0  0  0  0  0  0  0  0  0
    8.2137    1.2942   -0.1508 C   0  0  0  0  0  0  0  0  0  0  0  0
    6.9989    1.7443    0.3615 C   0  0  0  0  0  0  0  0  0  0  0  0
    6.9944    2.6955    1.4295 N   0  0  0  0  0  0  0  0  0  0  0  0
    7.0005   -1.0310   -2.7822 O   0  0  0  0  0  0  0  0  0  0  0  0
    8.2544   -1.4841   -3.2970 C   0  0  0  0  0  0  0  0  0  0  0  0
    6.8015    4.7097    3.6949 N   0  0  0  0  0  0  0  0  0  0  0  0
    6.5830    5.5259    4.6094 O   0  0  0  0  0  0  0  0  0  0  0  0
    7.9286    4.3737    3.3177 O   0  0  0  0  0  0  0  0  0  0  0  0
  1  2  1  0
  2  3  1  0
  2  4  1  0
  4  5  1  0
  5  6  1  0
  6  7  1  0
  7  8  1  0
  7 15  1  0
  8  9  2  0
  8 13  1  0
  9 10  1  0
 10 11  2  0
 11 12  1  0
 11 25  1  0
 12 13  2  0
 12 22  1  0
 13 14  1  0
 14 15  2  0
 14 16  1  0
 16 17  2  0
 16 21  1  0
 17 18  1  0
 18 19  2  0
 18 23  1  0
 19 20  1  0
 20 21  2  0
 21 22  1  0
 23 24  1  0
 25 26  2  0
 25 27  1  0
M  CHG  2  25   1  27  -1
M  END
>  <DRUGBANK_ID>  (1) 
DB12549

>  <COMMON_NAME>  (1) 
Pyrazoloacridine

>  <CAS_NUMBER>  (1) 
99009-20-8

>  <UNII>  (1) 
L24XJN68OW

$$$$
