NNC
     RDKit          3D

 24 26  0  0  0  0  0  0  0  0999 V2000
    1.7344    1.1629   -0.0036 C   0  0  0  0  0  0  0  0  0  0  0  0
    0.3302    1.2179   -0.0397 C   0  0  0  0  0  0  0  0  0  0  0  0
   -0.4195    0.0414   -0.0368 C   0  0  0  0  0  0  0  0  0  0  0  0
   -2.1359    0.0840   -0.0170 Cl  0  0  0  0  0  0  0  0  0  0  0  0
    0.2163   -1.1855   -0.0372 C   0  0  0  0  0  0  0  0  0  0  0  0
    1.6017   -1.2338    0.0088 C   0  0  0  0  0  0  0  0  0  0  0  0
    2.3821   -0.0773    0.0689 C   0  0  0  0  0  0  0  0  0  0  0  0
    3.7717   -0.1217    0.3268 N   0  0  0  0  0  0  0  0  0  0  0  0
    4.5005   -1.2298    0.7105 C   0  0  0  0  0  0  0  0  0  0  0  0
    5.8547   -1.1009    1.6744 S   0  0  0  0  0  0  0  0  0  0  0  0
    4.0561   -2.4065    0.2078 O   0  0  0  0  0  0  0  0  0  0  0  0
    4.7714   -3.6573    0.0997 C   0  0  0  0  0  0  0  0  0  0  0  0
    5.5763   -3.7379   -1.2107 C   0  0  0  0  0  0  0  0  0  0  0  0
    6.5451   -2.6618   -1.3747 N   0  0  0  0  0  0  0  0  0  0  0  0
    7.8988   -2.8134   -1.2785 C   0  0  0  0  0  0  0  0  0  0  0  0
    8.5416   -3.8374   -1.1289 O   0  0  0  0  0  0  0  0  0  0  0  0
    8.4797   -1.4686   -1.3627 C   0  0  0  0  0  0  0  0  0  0  0  0
    9.7848   -1.0277   -1.3427 C   0  0  0  0  0  0  0  0  0  0  0  0
    9.9948    0.3587   -1.3258 C   0  0  0  0  0  0  0  0  0  0  0  0
    8.9126    1.2594   -1.2479 C   0  0  0  0  0  0  0  0  0  0  0  0
    7.6011    0.7897   -1.2954 C   0  0  0  0  0  0  0  0  0  0  0  0
    7.4326   -0.5752   -1.4396 C   0  0  0  0  0  0  0  0  0  0  0  0
    6.2222   -1.3588   -1.6609 C   0  0  0  0  0  0  0  0  0  0  0  0
    5.1899   -0.8750   -2.0572 O   0  0  0  0  0  0  0  0  0  0  0  0
  1  2  2  0
  1  7  1  0
  2  3  1  0
  3  4  1  0
  3  5  2  0
  5  6  1  0
  6  7  2  0
  7  8  1  0
  8  9  1  0
  9 10  2  0
  9 11  1  0
 11 12  1  0
 12 13  1  0
 13 14  1  0
 14 15  1  0
 14 23  1  0
 15 16  2  0
 15 17  1  0
 17 18  1  0
 17 22  2  0
 18 19  2  0
 19 20  1  0
 20 21  2  0
 21 22  1  0
 22 23  1  0
 23 24  2  0
M  END
>  <DRUGBANK_ID>  (1) 
DB08282

>  <COMMON_NAME>  (1) 
O-[2-(1,3-dioxo-1,3-dihydro-2H-isoindol-2-yl)ethyl] (4-chlorophenyl)thiocarbamate

$$$$
