
     RDKit          3D

 37 41  0  0  0  0  0  0  0  0999 V2000
    0.6610   -0.0681    0.1227 C   0  0  0  0  0  0  0  0  0  0  0  0
    0.3434    1.3382    0.1016 N   0  0  0  0  0  0  0  0  0  0  0  0
   -0.9528    1.7789    0.2633 C   0  0  0  0  0  0  0  0  0  0  0  0
   -2.0939    0.8422    0.4161 C   0  0  0  0  0  0  0  0  0  0  0  0
   -0.9408    3.1501    0.2544 C   0  0  0  0  0  0  0  0  0  0  0  0
    0.3986    3.5597    0.0446 C   0  0  0  0  0  0  0  0  0  0  0  0
    1.2128    2.4027   -0.0691 C   0  0  0  0  0  0  0  0  0  0  0  0
    2.6661    2.4092   -0.3429 C   0  0  0  0  0  0  0  0  0  0  0  0
    3.2090    3.4698   -0.5967 O   0  0  0  0  0  0  0  0  0  0  0  0
    3.6032    1.1445   -0.4237 C   0  0  0  0  0  0  0  0  0  0  0  0
    3.2205   -0.0095   -0.6202 O   0  0  0  0  0  0  0  0  0  0  0  0
    4.9809    1.2715   -0.4606 N   0  0  0  0  0  0  0  0  0  0  0  0
    5.7299    2.4426   -0.4933 C   0  0  0  0  0  0  0  0  0  0  0  0
    5.5216    3.4290    0.4558 C   0  0  0  0  0  0  0  0  0  0  0  0
    6.2120    4.6249    0.3632 C   0  0  0  0  0  0  0  0  0  0  0  0
    7.2025    4.8312   -0.6074 C   0  0  0  0  0  0  0  0  0  0  0  0
    7.4669    3.7843   -1.4976 C   0  0  0  0  0  0  0  0  0  0  0  0
    6.7125    2.6022   -1.4674 C   0  0  0  0  0  0  0  0  0  0  0  0
    7.8890    6.0202   -0.5985 N   0  0  0  0  0  0  0  0  0  0  0  0
    8.5853    6.3995    0.6406 C   0  0  0  0  0  0  0  0  0  0  0  0
    8.2749    7.8666    0.9795 C   0  0  0  0  0  0  0  0  0  0  0  0
    8.5690    8.7297   -0.1579 N   0  0  0  0  0  0  0  0  0  0  0  0
    7.9233    8.3660   -1.4211 C   0  0  0  0  0  0  0  0  0  0  0  0
    8.2135    6.8611   -1.7637 C   0  0  0  0  0  0  0  0  0  0  0  0
    9.4490    9.7640   -0.0555 C   0  0  0  0  0  0  0  0  0  0  0  0
   10.7006    9.5138    0.3794 N   0  0  0  0  0  0  0  0  0  0  0  0
   11.5582   10.5627    0.4483 C   0  0  0  0  0  0  0  0  0  0  0  0
   11.1972   11.8530    0.1670 C   0  0  0  0  0  0  0  0  0  0  0  0
   12.0547   12.8751    0.2664 F   0  0  0  0  0  0  0  0  0  0  0  0
    9.8990   12.0234   -0.2301 C   0  0  0  0  0  0  0  0  0  0  0  0
    9.0237   10.9999   -0.3801 N   0  0  0  0  0  0  0  0  0  0  0  0
    0.8581    4.9511   -0.0032 C   0  0  0  0  0  0  0  0  0  0  0  0
    0.6655    5.7930    1.1008 C   0  0  0  0  0  0  0  0  0  0  0  0
    1.2084    7.0828    1.1110 C   0  0  0  0  0  0  0  0  0  0  0  0
    1.9670    7.5307    0.0304 C   0  0  0  0  0  0  0  0  0  0  0  0
    2.1552    6.7033   -1.0727 C   0  0  0  0  0  0  0  0  0  0  0  0
    1.5364    5.4529   -1.1202 C   0  0  0  0  0  0  0  0  0  0  0  0
  1  2  1  0
  2  3  1  0
  2  7  1  0
  3  4  1  0
  3  5  2  0
  5  6  1  0
  6  7  2  0
  6 32  1  0
  7  8  1  0
  8  9  2  0
  8 10  1  0
 10 11  2  0
 10 12  1  0
 12 13  1  0
 13 14  2  0
 13 18  1  0
 14 15  1  0
 15 16  2  0
 16 17  1  0
 16 19  1  0
 17 18  2  0
 19 20  1  0
 19 24  1  0
 20 21  1  0
 21 22  1  0
 22 23  1  0
 22 25  1  0
 23 24  1  0
 25 26  2  0
 25 31  1  0
 26 27  1  0
 27 28  2  0
 28 29  1  0
 28 30  1  0
 30 31  2  0
 32 33  2  0
 32 37  1  0
 33 34  1  0
 34 35  2  0
 35 36  1  0
 36 37  2  0
M  END
>  <DRUGBANK_ID>  (1) 
DB15245

>  <COMMON_NAME>  (1) 
Olorofim

>  <CAS_NUMBER>  (1) 
1928707-56-5

>  <UNII>  (1) 
T34SH2H9HI

>  <SYNONYMS>  (1) 
Olorofim

$$$$
