PPL
     RDKit          3D

 13 13  0  0  0  0  0  0  0  0999 V2000
    1.3449   -0.0560    0.2136 N   0  0  0  0  0  0  0  0  0  0  0  0
    0.6878    1.2040   -0.2455 C   0  0  1  0  0  0  0  0  0  0  0  0
   -0.7561    1.1001    0.2630 C   0  0  0  0  0  0  0  0  0  0  0  0
   -1.5012   -0.1502   -0.1660 C   0  0  0  0  0  0  0  0  0  0  0  0
   -0.7291   -1.3745    0.2315 C   0  0  0  0  0  0  0  0  0  0  0  0
    0.7017   -1.2657   -0.2844 C   0  0  0  0  0  0  0  0  0  0  0  0
    1.6317    2.4029    0.2161 C   0  0  0  0  0  0  0  0  0  0  0  0
    2.7993    2.1410    0.5827 O   0  0  0  0  0  0  0  0  0  0  0  0
    1.3877    3.7423    0.1448 N   0  0  0  0  0  0  0  0  0  0  0  0
    0.2631    4.6418   -0.1994 C   0  0  0  0  0  0  0  0  0  0  0  0
   -0.0479    5.5676    0.9889 C   0  0  0  0  0  0  0  0  0  0  0  0
    0.5708    5.4721   -1.4480 C   0  0  0  0  0  0  0  0  0  0  0  0
   -1.0036    3.8971   -0.4822 C   0  0  0  0  0  0  0  0  0  0  0  0
  1  2  1  0
  1  6  1  0
  2  3  1  0
  2  7  1  1
  3  4  1  0
  4  5  1  0
  5  6  1  0
  7  8  2  0
  7  9  1  0
  9 10  1  0
 10 11  1  0
 10 12  1  0
 10 13  1  0
M  END
>  <DRUGBANK_ID>  (1) 
DB08421

>  <COMMON_NAME>  (1) 
PIPERIDINE-2-CARBOXYLIC ACID TERT-BUTYLAMIDE

$$$$
