DHG
     RDKit          3D

 28 27  0  0  0  0  0  0  0  0999 V2000
    1.2183   -0.3248    0.2580 C   0  0  0  0  0  0  0  0  0  0  0  0
    0.3273   -1.3166   -0.3958 C   0  0  0  0  0  0  0  0  0  0  0  0
   -0.6027   -1.7418    0.7387 C   0  0  0  0  0  0  0  0  0  0  0  0
   -1.6254   -0.6486    1.0727 C   0  0  0  0  0  0  0  0  0  0  0  0
   -2.4456   -0.3064   -0.1629 C   0  0  0  0  0  0  0  0  0  0  0  0
   -3.1950   -1.5599   -0.6055 C   0  0  0  0  0  0  0  0  0  0  0  0
   -4.0791   -2.0518    0.5472 C   0  0  0  0  0  0  0  0  0  0  0  0
   -5.0645   -0.9486    0.9488 C   0  0  0  0  0  0  0  0  0  0  0  0
   -5.9535   -0.5884   -0.2455 C   0  0  0  0  0  0  0  0  0  0  0  0
   -6.7584   -1.8092   -0.7038 C   0  0  0  0  0  0  0  0  0  0  0  0
   -7.6401   -2.3480    0.4237 C   0  0  0  0  0  0  0  0  0  0  0  0
   -8.6256   -1.2842    0.8788 C   0  0  0  0  0  0  0  0  0  0  0  0
    0.7899    0.5427    1.0466 O   0  0  0  0  0  0  0  0  0  0  0  0
    2.5414   -0.2984    0.0761 N   0  0  0  0  0  0  0  0  0  0  0  0
    4.2277   -0.9177   -1.6352 C   0  0  0  0  0  0  0  0  0  0  0  0
    3.3995   -1.3489   -0.4294 C   0  0  1  0  0  0  0  0  0  0  0  0
    4.2615   -1.7489    0.7649 C   0  0  0  0  0  0  0  0  0  0  0  0
    3.3849   -2.1308    1.9721 C   0  0  0  0  0  0  0  0  0  0  0  0
    2.3947   -3.2452    1.6445 C   0  0  0  0  0  0  0  0  0  0  0  0
    3.0777   -4.4912    1.1349 C   0  0  0  0  0  0  0  0  0  0  0  0
    5.5506    2.2363   -0.4488 O   0  0  0  0  0  0  0  0  0  0  0  0
    3.9338    1.8434   -2.4029 O   0  0  0  0  0  0  0  0  0  0  0  0
    5.0930    0.1546   -1.3026 O   0  0  0  0  0  0  0  0  0  0  0  0
    4.2280    1.5698   -0.8108 P   0  0  1  0  0  0  0  0  0  0  0  0
    3.3630    2.9850   -0.3190 O   0  0  0  0  0  0  0  0  0  0  0  0
    2.0054    2.7782   -0.0153 C   0  0  0  0  0  0  0  0  0  0  0  0
    1.1778    2.3036   -1.2328 C   0  0  0  0  0  0  0  0  0  0  0  0
    1.6123    1.1204   -1.9075 O   0  0  0  0  0  0  0  0  0  0  0  0
  1  2  1  0
  1 13  2  0
  1 14  1  0
  2  3  1  0
  3  4  1  0
  4  5  1  0
  5  6  1  0
  6  7  1  0
  7  8  1  0
  8  9  1  0
  9 10  1  0
 10 11  1  0
 11 12  1  0
 16 15  1  6
 15 23  1  0
 16 14  1  0
 16 17  1  0
 17 18  1  0
 18 19  1  0
 19 20  1  0
 24 21  2  0
 24 22  1  0
 24 23  1  0
 24 25  1  0
 25 26  1  0
 26 27  1  0
 27 28  1  0
M  END
>  <DRUGBANK_ID>  (1) 
DB07657

>  <COMMON_NAME>  (1) 
PHOSPHONIC ACID 2-DODECANOYLAMINO-HEXYL ESTER PROPYL ESTER

$$$$
