IQS
     RDKit          3D

 18 19  0  0  0  0  0  0  0  0999 V2000
   -1.2938    1.3962   -0.0780 C   0  0  0  0  0  0  0  0  0  0  0  0
   -2.4698    0.6347   -0.1417 C   0  0  0  0  0  0  0  0  0  0  0  0
   -2.4279   -0.7528   -0.0476 C   0  0  0  0  0  0  0  0  0  0  0  0
   -1.2005   -1.3991    0.0127 C   0  0  0  0  0  0  0  0  0  0  0  0
   -0.0063   -0.6580    0.0063 C   0  0  0  0  0  0  0  0  0  0  0  0
    1.2392   -1.2881    0.0053 C   0  0  0  0  0  0  0  0  0  0  0  0
    2.4274   -0.6446    0.0055 N   0  0  0  0  0  0  0  0  0  0  0  0
    2.3808    0.6991    0.0117 C   0  0  0  0  0  0  0  0  0  0  0  0
    1.2059    1.4275    0.0060 C   0  0  0  0  0  0  0  0  0  0  0  0
   -0.0327    0.7564   -0.0112 C   0  0  0  0  0  0  0  0  0  0  0  0
   -1.3629    3.1779   -0.0755 S   0  0  0  0  0  0  0  0  0  0  0  0
   -0.6851    3.6621    1.1011 O   0  0  0  0  0  0  0  0  0  0  0  0
   -0.9383    3.6292   -1.3874 O   0  0  0  0  0  0  0  0  0  0  0  0
   -2.9935    3.6015    0.0597 N   0  0  0  0  0  0  0  0  0  0  0  0
   -3.7725    3.2078    1.2597 C   0  0  0  0  0  0  0  0  0  0  0  0
   -3.1928    3.7520    2.5545 C   0  0  0  0  0  0  0  0  0  0  0  0
   -3.1782    5.2154    2.5101 N   0  0  0  0  0  0  0  0  0  0  0  0
   -2.5052    5.7125    3.6999 C   0  0  0  0  0  0  0  0  0  0  0  0
  1  2  2  0
  1 10  1  0
  1 11  1  0
  2  3  1  0
  3  4  2  0
  4  5  1  0
  5  6  1  0
  5 10  2  0
  6  7  2  0
  7  8  1  0
  8  9  2  0
  9 10  1  0
 11 12  2  0
 11 13  2  0
 11 14  1  0
 14 15  1  0
 15 16  1  0
 16 17  1  0
 17 18  1  0
M  END
>  <DRUGBANK_ID>  (1) 
DB07997

>  <COMMON_NAME>  (1) 
N-[2-(METHYLAMINO)ETHYL]-5-ISOQUINOLINESULFONAMIDE

>  <UNII>  (1) 
TX277E49WT

$$$$
