344
     RDKit          3D

 20 22  0  0  0  0  0  0  0  0999 V2000
    1.9597    0.0142    0.2275 N   0  0  0  0  0  0  0  0  0  0  0  0
   -1.1303   -0.7038    2.5739 C   0  0  0  0  0  0  0  0  0  0  0  0
    0.4455   -0.7949    3.0176 C   0  0  0  0  0  0  0  0  0  0  0  0
   -1.6890   -1.9415    1.8774 C   0  0  0  0  0  0  0  0  0  0  0  0
   -1.7227    0.5759    1.9462 C   0  0  0  0  0  0  0  0  0  0  0  0
    1.4191   -1.6789    2.1825 C   0  0  0  0  0  0  0  0  0  0  0  0
   -1.5640   -2.2161    0.4878 C   0  0  0  0  0  0  0  0  0  0  0  0
   -1.6353    0.9103    0.5734 C   0  0  0  0  0  0  0  0  0  0  0  0
    1.4391   -1.2387    0.7416 C   0  0  0  0  0  0  0  0  0  0  0  0
   -2.3150   -2.8914    2.6954 C   0  0  0  0  0  0  0  0  0  0  0  0
   -2.3855    1.4965    2.7845 C   0  0  0  0  0  0  0  0  0  0  0  0
   -1.1460   -1.2712   -0.5775 C   0  0  0  0  0  0  0  0  0  0  0  0
   -1.1369    0.0491   -0.5106 C   0  0  0  0  0  0  0  0  0  0  0  0
   -1.7033   -3.5301    0.0569 C   0  0  0  0  0  0  0  0  0  0  0  0
   -1.8511    2.2346    0.1732 C   0  0  0  0  0  0  0  0  0  0  0  0
   -2.6743   -4.1255    2.1754 C   0  0  0  0  0  0  0  0  0  0  0  0
   -2.8099    2.7382    2.3007 C   0  0  0  0  0  0  0  0  0  0  0  0
   -2.2931   -4.4723    0.8841 C   0  0  0  0  0  0  0  0  0  0  0  0
   -2.4637    3.1404    1.0194 C   0  0  0  0  0  0  0  0  0  0  0  0
    1.5210    1.2153    0.9107 C   0  0  0  0  0  0  0  0  0  0  0  0
  1  9  1  0
  1 20  1  0
  2  3  1  0
  2  4  1  0
  2  5  1  0
  3  6  1  0
  4  7  2  0
  4 10  1  0
  5  8  2  0
  5 11  1  0
  6  9  1  0
  7 12  1  0
  7 14  1  0
  8 13  1  0
  8 15  1  0
 10 16  2  0
 11 17  2  0
 12 13  2  0
 14 18  2  0
 15 19  2  0
 16 18  1  0
 17 19  1  0
M  END
>  <DRUGBANK_ID>  (1) 
DB00344

>  <SECONDARY_ACCESSION_NUMBERS>  (1) 
APRD00441

>  <COMMON_NAME>  (1) 
Protriptyline

>  <CAS_NUMBER>  (1) 
438-60-8

>  <UNII>  (1) 
4NDU154T12

>  <SYNONYMS>  (1) 
3-(5H-dibenzo[a,d][7]annulen-5-yl)-N-methylpropan-1-amine; 3-(5H-dibenzo[a,d]cyclohepten-5-yl)-N-methyl-1-propanamine; 5-(3-methylaminopropyl)-5H-dibenzo[a,d]cycloheptene; 7-(3-methylaminopropyl)-1,2:5,6-dibenzocycloheptatriene; Amimetilina; N-methyl-5H-dibenzo[a,d]cycloheptene-5-propanamine; N-methyl-5H-dibenzo[a,d]cycloheptene-5-propylamine; Protriptilina; Protriptylin; Protriptyline; Protriptylinum

$$$$
