PG5
     RDKit          3D

 12 11  0  0  0  0  0  0  0  0999 V2000
    1.8036   -0.6082    0.2349 C   0  0  0  0  0  0  0  0  0  0  0  0
    0.9482   -1.1756   -0.7718 O   0  0  0  0  0  0  0  0  0  0  0  0
    1.3438   -0.9187   -2.1300 C   0  0  0  0  0  0  0  0  0  0  0  0
    1.1563    0.5039   -2.7596 C   0  0  0  0  0  0  0  0  0  0  0  0
    1.2901    1.5887   -1.8722 O   0  0  0  0  0  0  0  0  0  0  0  0
    0.4004    1.6166   -0.7840 C   0  0  0  0  0  0  0  0  0  0  0  0
   -1.0303    1.1202   -0.5413 C   0  0  0  0  0  0  0  0  0  0  0  0
   -1.9201    0.2786   -1.2317 O   0  0  0  0  0  0  0  0  0  0  0  0
   -1.7863    0.2446   -2.6328 C   0  0  0  0  0  0  0  0  0  0  0  0
   -1.9738    1.6152   -3.3687 C   0  0  0  0  0  0  0  0  0  0  0  0
   -1.5782    2.8448   -2.7372 O   0  0  0  0  0  0  0  0  0  0  0  0
   -2.4336    3.2906   -1.6711 C   0  0  0  0  0  0  0  0  0  0  0  0
  1  2  1  0
  2  3  1  0
  3  4  1  0
  4  5  1  0
  5  6  1  0
  6  7  1  0
  7  8  1  0
  8  9  1  0
  9 10  1  0
 10 11  1  0
 11 12  1  0
M  END
>  <DRUGBANK_ID>  (1) 
DB02078

>  <SECONDARY_ACCESSION_NUMBERS>  (1) 
EXPT02565

>  <COMMON_NAME>  (1) 
Triglyme

>  <CAS_NUMBER>  (1) 
112-49-2

>  <UNII>  (1) 
32YXG88KK0

>  <SYNONYMS>  (1) 
1-methoxy-2-[2-(2-methoxyethoxy)ethoxy]ethane; 1,2-bis(2-methoxyethoxy)ethane; dimethyl ether of triethylene glycol; Glyme 4

$$$$
