
     RDKit          3D

  9  9  0  0  1  0  0  0  0  0999 V2000
    1.0788   -0.0030    0.0546 C   0  0  0  0  0  0  0  0  0  0  0  0
    0.5753    0.1417   -1.3767 C   0  0  0  0  0  0  0  0  0  0  0  0
    1.0396   -0.9996   -2.3133 C   0  0  1  0  0  0  0  0  0  0  0  0
    0.5762   -2.3583   -1.7709 C   0  0  0  0  0  0  0  0  0  0  0  0
    0.5692   -0.7325   -3.7389 C   0  0  0  0  0  0  0  0  0  0  0  0
    0.5114    0.4717   -4.2749 N   0  0  0  0  0  0  0  0  0  0  0  0
    0.0595    0.3985   -5.5778 C   0  0  0  0  0  0  0  0  0  0  0  0
   -0.2146   -0.8691   -6.0402 C   0  0  0  0  0  0  0  0  0  0  0  0
    0.1222   -2.0098   -4.8166 S   0  0  0  0  0  0  0  0  0  0  0  0
  1  2  1  0
  2  3  1  0
  3  4  1  1
  3  5  1  0
  5  6  2  0
  5  9  1  0
  6  7  1  0
  7  8  2  0
  8  9  1  0
M  END
>  <DRUGBANK_ID>  (1) 
DB03087

>  <SECONDARY_ACCESSION_NUMBERS>  (1) 
EXPT03152

>  <COMMON_NAME>  (1) 
2-(Sec-Butyl)Thiazole

$$$$
