
     RDKit          3D

 27 29  0  0  1  0  0  0  0  0999 V2000
    0.1623    0.7086   -0.6104 C   0  0  2  0  0  0  0  0  0  0  0  0
   -0.5616   -0.5344   -0.3735 N   0  0  0  0  0  0  0  0  0  0  0  0
    0.0369   -1.7257   -0.1189 C   0  0  0  0  0  0  0  0  0  0  0  0
    1.3756   -1.7624    0.0306 C   0  0  0  0  0  0  0  0  0  0  0  0
    2.2907   -0.5692    0.0362 C   0  0  0  0  0  0  0  0  0  0  0  0
    1.4569    0.9451    0.5929 S   0  0  0  0  0  0  0  0  0  0  0  0
   -1.1549    1.4096   -0.4285 C   0  0  1  0  0  0  0  0  0  0  0  0
   -1.6969    0.0466    0.0934 C   0  0  0  0  0  0  0  0  0  0  0  0
   -1.3853    2.6399    0.2935 N   0  0  0  0  0  0  0  0  0  0  0  0
   -2.1178    3.7033   -0.1681 C   0  0  0  0  0  0  0  0  0  0  0  0
   -2.1191    4.6717    0.5965 O   0  0  0  0  0  0  0  0  0  0  0  0
   -2.6353   -0.3732    0.7183 O   0  0  0  0  0  0  0  0  0  0  0  0
   -2.8288    3.7389   -1.5593 C   0  0  0  0  0  0  0  0  0  0  0  0
   -2.9110    2.6058   -2.4780 C   0  0  0  0  0  0  0  0  0  0  0  0
   -2.4868    2.6221   -3.7970 C   0  0  0  0  0  0  0  0  0  0  0  0
   -2.4870    1.0255   -4.4393 S   0  0  0  0  0  0  0  0  0  0  0  0
   -3.0363    0.4229   -2.9267 C   0  0  0  0  0  0  0  0  0  0  0  0
   -3.3384    1.3529   -2.0442 N   0  0  0  0  0  0  0  0  0  0  0  0
   -3.3762    4.9075   -1.9762 C   0  0  0  0  0  0  0  0  0  0  0  0
   -0.8025   -2.9688   -0.0530 C   0  0  0  0  0  0  0  0  0  0  0  0
   -1.9898   -3.0642   -0.3114 O   0  0  0  0  0  0  0  0  0  0  0  0
   -0.0804   -4.0672    0.2545 O   0  0  0  0  0  0  0  0  0  0  0  0
   -3.0243   -0.8892   -2.6548 N   0  0  0  0  0  0  0  0  0  0  0  0
   -3.4956    6.2348   -1.2837 C   0  0  0  0  0  0  0  0  0  0  0  0
   -2.8452    7.3556   -2.0575 C   0  0  0  0  0  0  0  0  0  0  0  0
   -3.3868    8.3988   -2.3880 O   0  0  0  0  0  0  0  0  0  0  0  0
   -1.5407    7.1446   -2.3288 O   0  0  0  0  0  0  0  0  0  0  0  0
  1  2  1  0
  1  6  1  1
  1  7  1  0
  2  3  1  0
  2  8  1  0
  3  4  2  0
  3 20  1  0
  4  5  1  0
  5  6  1  0
  7  8  1  0
  7  9  1  1
  8 12  2  0
  9 10  1  0
 10 11  2  0
 10 13  1  0
 13 14  1  0
 13 19  2  0
 14 15  2  0
 14 18  1  0
 15 16  1  0
 16 17  1  0
 17 18  2  0
 17 23  1  0
 19 24  1  0
 20 21  2  0
 20 22  1  0
 24 25  1  0
 25 26  2  0
 25 27  1  0
M  END
>  <DRUGBANK_ID>  (1) 
DB01415

>  <COMMON_NAME>  (1) 
Ceftibuten

>  <CAS_NUMBER>  (1) 
97519-39-6

>  <UNII>  (1) 
IW71N46B4Y

>  <SYNONYMS>  (1) 
(+)-(6R,7R)-7-((Z)-2-(2-amino-4-thiazolyl)-4-carboxycrotonamido)-8-oxo-5-thia-1-azabicyclo(4.2.0)oct-2-ene-2-carboxylic acid; Ceftibuten; Ceftibutene; Ceftibuteno; Ceftibutenum; cis-ceftibuten

$$$$
