487
     RDKit          3D

 24 26  0  0  0  0  0  0  0  0999 V2000
    0.8361   -0.0049   -0.1047 F   0  0  0  0  0  0  0  0  0  0  0  0
    4.3720   -3.5027    0.1773 O   0  0  0  0  0  0  0  0  0  0  0  0
    6.4909   -4.7989    0.7190 O   0  0  0  0  0  0  0  0  0  0  0  0
    8.3873   -3.6437    1.0990 O   0  0  0  0  0  0  0  0  0  0  0  0
    2.1186    2.4549    0.1017 N   0  0  0  0  0  0  0  0  0  0  0  0
    0.5109    4.8305   -0.0584 N   0  0  0  0  0  0  0  0  0  0  0  0
    6.3637    0.0321    0.5119 N   0  0  0  0  0  0  0  0  0  0  0  0
    1.2582    2.8229    1.2362 C   0  0  0  0  0  0  0  0  0  0  0  0
    2.5692    3.5758   -0.7286 C   0  0  0  0  0  0  0  0  0  0  0  0
    0.0575    3.6398    0.7048 C   0  0  0  0  0  0  0  0  0  0  0  0
    1.3277    4.3625   -1.2034 C   0  0  0  0  0  0  0  0  0  0  0  0
    2.8215    1.2694    0.1317 C   0  0  0  0  0  0  0  0  0  0  0  0
    4.9650    0.0637    0.3014 C   0  0  0  0  0  0  0  0  0  0  0  0
    4.2137    1.2526    0.2523 C   0  0  0  0  0  0  0  0  0  0  0  0
   -0.6271    5.6110   -0.5265 C   0  0  0  0  0  0  0  0  0  0  0  0
    2.1733    0.0378   -0.0029 C   0  0  0  0  0  0  0  0  0  0  0  0
    4.2574   -1.1409    0.1490 C   0  0  0  0  0  0  0  0  0  0  0  0
    2.8780   -1.1552   -0.0588 C   0  0  0  0  0  0  0  0  0  0  0  0
    7.0865    1.3147    0.6452 C   0  0  0  0  0  0  0  0  0  0  0  0
    4.9662   -2.4310    0.2840 C   0  0  0  0  0  0  0  0  0  0  0  0
    6.9881   -1.2019    0.6966 C   0  0  0  0  0  0  0  0  0  0  0  0
    6.4065   -2.4118    0.6073 C   0  0  0  0  0  0  0  0  0  0  0  0
    7.1144    2.0982   -0.6686 C   0  0  0  0  0  0  0  0  0  0  0  0
    7.1895   -3.6474    0.8309 C   0  0  0  0  0  0  0  0  0  0  0  0
  1 16  1  0
  2 20  2  0
  3 24  1  0
  4 24  2  0
  5  8  1  0
  5  9  1  0
  5 12  1  0
  6 10  1  0
  6 11  1  0
  6 15  1  0
  7 13  1  0
  7 19  1  0
  7 21  1  0
  8 10  1  0
  9 11  1  0
 12 14  1  0
 12 16  2  0
 13 14  2  0
 13 17  1  0
 16 18  1  0
 17 18  2  0
 17 20  1  0
 19 23  1  0
 20 22  1  0
 21 22  2  0
 22 24  1  0
M  END
>  <DRUGBANK_ID>  (1) 
DB00487

>  <SECONDARY_ACCESSION_NUMBERS>  (1) 
APRD00108

>  <COMMON_NAME>  (1) 
Pefloxacin

>  <CAS_NUMBER>  (1) 
70458-92-3

>  <UNII>  (1) 
2H52Z9F2Q5

>  <SYNONYMS>  (1) 
Pefloxacin; Pefloxacine; Pefloxacino; Pefloxacinum; PFLX

$$$$
