
     RDKit          3D

 29 32  0  0  1  0  0  0  0  0999 V2000
    3.3082   -0.4536    2.6096 C   0  0  0  0  0  0  0  0  0  0  0  0
    2.8766    0.8415    2.4971 C   0  0  0  0  0  0  0  0  0  0  0  0
    1.5353    0.8518    2.3151 O   0  0  0  0  0  0  0  0  0  0  0  0
    1.0669   -0.4485    2.3006 N   0  0  0  0  0  0  0  0  0  0  0  0
    2.1340   -1.2309    2.4834 C   0  0  0  0  0  0  0  0  0  0  0  0
    2.1602   -2.5811    2.5318 N   0  0  0  0  0  0  0  0  0  0  0  0
    0.9501   -3.3877    2.4279 C   0  0  0  0  0  0  0  0  0  0  0  0
    1.0283   -4.3416    1.2318 C   0  0  1  0  0  0  0  0  0  0  0  0
    2.2600   -5.2315    1.2354 C   0  0  0  0  0  0  0  0  0  0  0  0
    1.7473   -6.4722    0.7536 N   0  0  0  0  0  0  0  0  0  0  0  0
    0.3735   -6.4959    0.8638 C   0  0  0  0  0  0  0  0  0  0  0  0
   -0.3639   -7.4576    0.6981 O   0  0  0  0  0  0  0  0  0  0  0  0
   -0.0802   -5.2606    1.2436 O   0  0  0  0  0  0  0  0  0  0  0  0
    2.5418   -7.5941    0.4472 C   0  0  0  0  0  0  0  0  0  0  0  0
    2.4126   -8.2022   -0.8029 C   0  0  0  0  0  0  0  0  0  0  0  0
    3.2196   -9.2959   -1.1401 C   0  0  0  0  0  0  0  0  0  0  0  0
    4.1395   -9.8608   -0.2391 C   0  0  0  0  0  0  0  0  0  0  0  0
    4.2360   -9.2427    1.0193 C   0  0  0  0  0  0  0  0  0  0  0  0
    3.4746   -8.1137    1.3473 C   0  0  0  0  0  0  0  0  0  0  0  0
    3.6037   -7.5697    2.5680 F   0  0  0  0  0  0  0  0  0  0  0  0
    5.0880   -9.7264    1.9388 F   0  0  0  0  0  0  0  0  0  0  0  0
    4.8509  -11.0360   -0.5748 N   0  0  0  0  0  0  0  0  0  0  0  0
    5.8036  -10.9553   -1.6961 C   0  0  0  0  0  0  0  0  0  0  0  0
    5.8618  -12.2898   -2.4316 C   0  0  0  0  0  0  0  0  0  0  0  0
    5.9828  -13.4566   -1.4754 C   0  0  0  0  0  0  0  0  0  0  0  0
    6.4549  -14.5368   -1.8280 O   0  0  0  0  0  0  0  0  0  0  0  0
    5.4114  -13.3302   -0.1160 C   0  0  0  0  0  0  0  0  0  0  0  0
    4.8528  -12.1644    0.2219 C   0  0  0  0  0  0  0  0  0  0  0  0
    3.0678   -9.8383   -2.3589 F   0  0  0  0  0  0  0  0  0  0  0  0
  1  2  2  0
  1  5  1  0
  2  3  1  0
  3  4  1  0
  4  5  2  0
  5  6  1  0
  6  7  1  0
  8  9  1  0
  8 13  1  0
  8  7  1  1
  9 10  1  0
 10 11  1  0
 10 14  1  0
 11 12  2  0
 11 13  1  0
 14 15  2  0
 14 19  1  0
 15 16  1  0
 16 17  2  0
 16 29  1  0
 17 18  1  0
 17 22  1  0
 18 19  2  0
 18 21  1  0
 19 20  1  0
 22 23  1  0
 22 28  1  0
 23 24  1  0
 24 25  1  0
 25 26  2  0
 25 27  1  0
 27 28  2  0
M  END
>  <DRUGBANK_ID>  (1) 
DB12796

>  <COMMON_NAME>  (1) 
MRX-I

>  <CAS_NUMBER>  (1) 
1112968-42-9

>  <UNII>  (1) 
B669M62ELP

$$$$
