AO2
     RDKit          3D

 22 23  0  0  0  0  0  0  0  0999 V2000
   -3.3573    2.9577   -4.5737 C   0  0  0  0  0  0  0  0  0  0  0  0
   -3.4634    2.7006   -6.0605 C   0  0  0  0  0  0  0  0  0  0  0  0
   -4.9122    2.7922   -6.5248 C   0  0  0  0  0  0  0  0  0  0  0  0
   -5.5481    4.1312   -6.1573 C   0  0  0  0  0  0  0  0  0  0  0  0
   -5.4399    4.3859   -4.6693 C   0  0  0  0  0  0  0  0  0  0  0  0
   -3.9674    4.3249   -4.2326 C   0  0  0  0  0  0  0  0  0  0  0  0
   -3.9395    4.5476   -2.7413 C   0  0  0  0  0  0  0  0  0  0  0  0
   -2.5915    4.4071   -2.0317 C   0  0  1  0  0  0  0  0  0  0  0  0
   -1.7141    5.4685   -2.5532 N   0  0  0  0  0  0  0  0  0  0  0  0
   -2.7256    4.4024   -0.4799 C   0  0  2  0  0  0  0  0  0  0  0  0
   -2.2984    3.1187    0.0071 O   0  0  0  0  0  0  0  0  0  0  0  0
   -4.1525    4.7322    0.0161 C   0  0  0  0  0  0  0  0  0  0  0  0
   -4.3966    5.8007    0.5930 O   0  0  0  0  0  0  0  0  0  0  0  0
   -5.1784    3.8340   -0.2298 N   0  0  0  0  0  0  0  0  0  0  0  0
   -4.9662    2.4938   -0.6009 N   0  0  0  0  0  0  0  0  0  0  0  0
   -6.0490    1.7983   -1.2045 C   0  0  0  0  0  0  0  0  0  0  0  0
   -7.2019    2.3713   -1.7584 C   0  0  0  0  0  0  0  0  0  0  0  0
   -8.2864    1.5620   -2.1465 C   0  0  0  0  0  0  0  0  0  0  0  0
   -8.2300    0.1719   -1.9944 C   0  0  0  0  0  0  0  0  0  0  0  0
   -7.0403   -0.4029   -1.5447 C   0  0  0  0  0  0  0  0  0  0  0  0
   -5.9561    0.4016   -1.1913 C   0  0  0  0  0  0  0  0  0  0  0  0
   -9.4199   -0.7016   -2.2680 C   0  0  0  0  0  0  0  0  0  0  0  0
  1  2  1  0
  1  6  1  0
  2  3  1  0
  3  4  1  0
  4  5  1  0
  5  6  1  0
  6  7  1  0
  7  8  1  0
  8  9  1  1
 10 12  1  0
 10 11  1  6
 10  8  1  0
 12 13  2  0
 12 14  1  0
 14 15  1  0
 15 16  1  0
 16 17  2  0
 16 21  1  0
 17 18  1  0
 18 19  2  0
 19 20  1  0
 19 22  1  0
 20 21  2  0
M  END
>  <DRUGBANK_ID>  (1) 
DB03086

>  <SECONDARY_ACCESSION_NUMBERS>  (1) 
EXPT00527

>  <COMMON_NAME>  (1) 
N'-(2s,3r)-3-Amino-4-Cyclohexyl-2-Hydroxy-Butano-N-(4-Methylphenyl)Hydrazide

$$$$
