
     RDKit          3D

 22 23  0  0  0  0  0  0  0  0999 V2000
    1.0785    0.1286   -0.0252 C   0  0  0  0  0  0  0  0  0  0  0  0
    3.5383   -6.0643    1.8762 C   0  0  0  0  0  0  0  0  0  0  0  0
    2.5557   -4.0935    2.3026 C   0  0  0  0  0  0  0  0  0  0  0  0
    0.6263   -1.1151   -0.7823 C   0  0  0  0  0  0  0  0  0  0  0  0
    0.6002   -3.6581    5.0079 C   0  0  0  0  0  0  0  0  0  0  0  0
   -4.0894   -2.0768   -0.4578 C   0  0  0  0  0  0  0  0  0  0  0  0
    0.1360   -4.7751    4.3168 C   0  0  0  0  0  0  0  0  0  0  0  0
    0.5799   -2.4071    4.3908 C   0  0  0  0  0  0  0  0  0  0  0  0
   -3.1672   -1.1364   -0.0323 C   0  0  0  0  0  0  0  0  0  0  0  0
   -3.7929   -3.4385   -0.3890 C   0  0  0  0  0  0  0  0  0  0  0  0
   -0.3307   -4.6469    2.9994 C   0  0  0  0  0  0  0  0  0  0  0  0
    0.1011   -2.2627    3.0820 C   0  0  0  0  0  0  0  0  0  0  0  0
   -1.9558   -1.5758    0.4587 C   0  0  0  0  0  0  0  0  0  0  0  0
   -2.5420   -3.8624    0.0348 C   0  0  0  0  0  0  0  0  0  0  0  0
    0.3172   -4.7389    0.0838 C   0  0  0  0  0  0  0  0  0  0  0  0
    1.7977   -5.2646    0.3019 C   0  0  0  0  0  0  0  0  0  0  0  0
   -0.2452   -3.4013    2.3211 C   0  0  0  0  0  0  0  0  0  0  0  0
   -1.5655   -2.9232    0.3492 C   0  0  0  0  0  0  0  0  0  0  0  0
    0.9694   -2.3311    0.0653 C   0  0  0  0  0  0  0  0  0  0  0  0
   -0.1472   -3.3368    0.7260 C   0  0  0  0  0  0  0  0  0  0  0  0
    2.2687   -5.3859    1.6935 N   0  0  0  0  0  0  0  0  0  0  0  0
    2.1787   -2.4977    0.1559 O   0  0  0  0  0  0  0  0  0  0  0  0
  4  1  1  0
  7  5  2  0
  8  5  1  0
  9  6  2  0
 10  6  1  0
 11  7  1  0
 12  8  2  0
 13  9  1  0
 14 10  2  0
 16 15  1  0
 17 11  2  0
 17 12  1  0
 18 13  2  0
 18 14  1  0
 19  4  1  0
 20 15  1  0
 20 17  1  0
 20 18  1  0
 20 19  1  0
 21  2  1  0
 21  3  1  0
 21 16  1  0
 22 19  2  0
M  END
>  <DRUGBANK_ID>  (1) 
DB11609

>  <COMMON_NAME>  (1) 
Normethadone

>  <CAS_NUMBER>  (1) 
467-85-6

>  <UNII>  (1) 
KR2L2A68XL

>  <SYNONYMS>  (1) 
6-dimethylamino-4,4-diphenyl-3-hexanone; Desmethylmethadone; Isomethadone I; Normethadone

$$$$
