
     RDKit          3D

 16 16  0  0  1  0  0  0  0  0999 V2000
    1.7610    0.7136    0.2521 O   0  0  0  0  0  0  0  0  0  0  0  0
    0.9435    1.5603    1.1791 C   0  0  2  0  0  0  0  0  0  0  0  0
   -0.4990    1.9114    0.7638 O   0  0  0  0  0  0  0  0  0  0  0  0
   -0.7640    2.1193   -0.6695 C   0  0  2  0  0  0  0  0  0  0  0  0
   -0.4241    1.0344   -1.8567 C   0  0  0  0  0  0  0  0  0  0  0  0
   -1.0302   -0.2869   -1.8347 O   0  0  0  0  0  0  0  0  0  0  0  0
   -0.9666   -1.0659   -0.2914 P   0  0  0  0  0  0  0  0  0  0  0  0
    0.2462   -1.9608   -0.9055 O   0  0  0  0  0  0  0  0  0  0  0  0
   -0.1814   -0.0337    0.3976 O   0  0  0  0  0  0  0  0  0  0  0  0
   -0.9098   -1.7631    1.0900 O   0  0  0  0  0  0  0  0  0  0  0  0
   -0.0502    3.4502   -0.8290 C   0  0  2  0  0  0  0  0  0  0  0  0
   -0.1540    3.9174   -2.1623 O   0  0  0  0  0  0  0  0  0  0  0  0
    1.4338    3.3278   -0.3575 C   0  0  2  0  0  0  0  0  0  0  0  0
    2.1187    2.4867   -1.3201 O   0  0  0  0  0  0  0  0  0  0  0  0
    1.6061    2.8594    1.1274 C   0  0  1  0  0  0  0  0  0  0  0  0
    0.9118    3.6675    2.0712 O   0  0  0  0  0  0  0  0  0  0  0  0
  2  1  1  6
  2  3  1  0
  2 15  1  0
  3  4  1  0
  4  5  1  6
  4 11  1  0
  5  6  1  0
  6  7  1  0
  7  8  1  0
  7  9  1  0
  7 10  2  0
 11 12  1  6
 11 13  1  0
 13 14  1  6
 13 15  1  0
 15 16  1  1
M  END
>  <DRUGBANK_ID>  (1) 
DB02312

>  <SECONDARY_ACCESSION_NUMBERS>  (1) 
EXPT00688

>  <COMMON_NAME>  (1) 
beta-D-galactose 6-phosphate

>  <SYNONYMS>  (1) 
6-O-phosphono-Î²-D-galactopyranose; beta-galactose-6-phosphate

$$$$
