
     RDKit          3D

 17 18  0  0  0  0  0  0  0  0999 V2000
   -0.2255   -0.2290    0.2153 C   0  0  1  0  0  0  0  0  0  0  0  0
    0.3749    1.1145    0.7168 C   0  0  2  0  0  0  0  0  0  0  0  0
   -0.5572    2.2006    0.6451 O   0  0  0  0  0  0  0  0  0  0  0  0
    1.6191    1.4390   -0.0998 C   0  0  1  0  0  0  0  0  0  0  0  0
    2.2219    2.6511    0.3716 O   0  0  0  0  0  0  0  0  0  0  0  0
    2.5988    0.2702   -0.0097 C   0  0  2  0  0  0  0  0  0  0  0  0
    3.7437    0.5633   -0.8189 O   0  0  0  0  0  0  0  0  0  0  0  0
    1.9198   -1.0558   -0.4266 C   0  0  1  0  0  0  0  0  0  0  0  0
    2.9154   -2.2324   -0.2856 C   0  0  0  0  0  0  0  0  0  0  0  0
    4.2112   -1.9267   -0.7919 O   0  0  0  0  0  0  0  0  0  0  0  0
    0.7080   -1.2936    0.3287 O   0  0  0  0  0  0  0  0  0  0  0  0
   -1.4241   -0.5320    0.9778 N   0  0  0  0  0  0  0  0  0  0  0  0
   -2.5338    0.0030    0.3455 C   0  0  0  0  0  0  0  0  0  0  0  0
   -3.9770    0.3570    1.0597 S   0  0  0  0  0  0  0  0  0  0  0  0
   -2.2380    0.1917   -0.9634 N   0  0  0  0  0  0  0  0  0  0  0  0
   -0.9096   -0.0071   -1.1668 C   0  0  0  0  0  0  0  0  0  0  0  0
   -0.3408    0.0552   -2.2558 O   0  0  0  0  0  0  0  0  0  0  0  0
  1  2  1  0
  1 11  1  0
  1 12  1  1
  1 16  1  0
  2  4  1  0
  2  3  1  6
  4  5  1  1
  4  6  1  0
  6  7  1  6
  6  8  1  0
  8 11  1  0
  8  9  1  1
  9 10  1  0
 13 12  1  0
 13 14  2  0
 13 15  1  0
 16 15  1  0
 16 17  2  0
M  END
>  <DRUGBANK_ID>  (1) 
DB02964

>  <SECONDARY_ACCESSION_NUMBERS>  (1) 
EXPT01597

>  <COMMON_NAME>  (1) 
8,9,10-Trihydroxy-7-hydroxymethyl-2-thioxo-6-oxa-1,3-diaza-spiro[4.5]decan-4-one

>  <CAS_NUMBER>  (1) 
227458-60-8

$$$$
