
     RDKit          3D

 36 38  0  0  0  0  0  0  0  0999 V2000
    0.2663    0.4273   -2.2050 C   0  0  0  0  0  0  0  0  0  0  0  0
   -0.8094    0.9892   -1.6971 N   0  0  0  0  0  0  0  0  0  0  0  0
   -2.1132    0.4266   -1.8727 C   0  0  0  0  0  0  0  0  0  0  0  0
   -2.5668    0.5208   -0.5109 C   0  0  0  0  0  0  0  0  0  0  0  0
   -2.6538    1.9816    0.1647 O   0  0  0  0  0  0  0  0  0  0  0  0
   -3.7883    3.0478    0.1340 C   0  0  2  0  0  0  0  0  0  0  0  0
   -5.3249    2.5192    0.3923 C   0  0  1  0  0  0  0  0  0  0  0  0
   -4.8870    1.2598   -0.2054 C   0  0  0  0  0  0  0  0  0  0  0  0
   -4.2867    0.2603    1.0373 N   0  0  0  0  0  0  0  0  0  0  0  0
   -5.4194   -0.5682    1.2027 C   0  0  0  0  0  0  0  0  0  0  0  0
   -6.2863    0.4079    1.9484 C   0  0  0  0  0  0  0  0  0  0  0  0
   -6.5078    1.7401    1.1605 C   0  0  0  0  0  0  0  0  0  0  0  0
   -2.9421    0.1830    1.8705 C   0  0  0  0  0  0  0  0  0  0  0  0
   -2.0313    0.9874    2.1106 O   0  0  0  0  0  0  0  0  0  0  0  0
   -2.4314   -1.1230    1.8912 N   0  0  0  0  0  0  0  0  0  0  0  0
   -3.1570   -2.0588    2.6132 C   0  0  0  0  0  0  0  0  0  0  0  0
   -3.2363   -3.4718    2.0621 C   0  0  2  0  0  0  0  0  0  0  0  0
   -3.4930   -4.2635    3.3470 C   0  0  0  0  0  0  0  0  0  0  0  0
   -2.2418   -4.9967    3.8396 C   0  0  2  0  0  0  0  0  0  0  0  0
   -2.5799   -6.4746    3.8430 C   0  0  0  0  0  0  0  0  0  0  0  0
   -3.5436   -6.7450    4.8587 O   0  0  0  0  0  0  0  0  0  0  0  0
   -3.0615   -6.3934    6.1558 C   0  0  0  0  0  0  0  0  0  0  0  0
   -2.7739   -4.9017    6.2771 C   0  0  0  0  0  0  0  0  0  0  0  0
   -1.7905   -4.4839    5.2015 C   0  0  0  0  0  0  0  0  0  0  0  0
   -2.0987   -3.9461    1.2569 N   0  0  0  0  0  0  0  0  0  0  0  0
   -2.0144   -3.3585   -0.0716 C   0  0  0  0  0  0  0  0  0  0  0  0
   -3.5886    3.6700   -1.3370 C   0  0  0  0  0  0  0  0  0  0  0  0
   -2.4986    3.2038   -2.0875 C   0  0  0  0  0  0  0  0  0  0  0  0
   -2.4542    3.0173   -3.4814 C   0  0  0  0  0  0  0  0  0  0  0  0
   -3.3928    3.6625   -4.2042 C   0  0  0  0  0  0  0  0  0  0  0  0
   -4.3082    4.4524   -3.5075 C   0  0  0  0  0  0  0  0  0  0  0  0
   -4.4540    4.4275   -2.0884 C   0  0  0  0  0  0  0  0  0  0  0  0
   -1.4532    1.9197   -4.3912 Cl  0  0  0  0  0  0  0  0  0  0  0  0
    0.2099   -0.7090   -2.7329 O   0  0  0  0  0  0  0  0  0  0  0  0
    1.3778    1.1726   -2.1425 O   0  0  0  0  0  0  0  0  0  0  0  0
    1.4120    2.5000   -1.5611 C   0  0  0  0  0  0  0  0  0  0  0  0
  1  2  1  0
  1 34  2  0
  1 35  1  0
  2  3  1  0
  3  4  1  0
  4  5  1  0
  6 27  1  0
  6  7  1  0
  6  5  1  6
  7  8  1  6
  7 12  1  0
  9  8  1  0
  9 10  1  0
  9 13  1  0
 11 10  1  0
 12 11  1  0
 13 14  2  0
 13 15  1  0
 15 16  1  0
 17 25  1  0
 17 18  1  1
 17 16  1  0
 19 24  1  0
 19 18  1  1
 20 19  1  0
 20 21  1  0
 22 21  1  0
 23 22  1  0
 24 23  1  0
 25 26  1  0
 27 28  2  0
 27 32  1  0
 28 29  1  0
 29 30  2  0
 29 33  1  0
 30 31  1  0
 31 32  2  0
 35 36  1  0
M  END
>  <DRUGBANK_ID>  (1) 
DB12416

>  <COMMON_NAME>  (1) 
VTP-27999

>  <CAS_NUMBER>  (1) 
942142-51-0

>  <UNII>  (1) 
254XY8NV84

$$$$
