
     RDKit          3D

  6  6  0  0  0  0  0  0  0  0999 V2000
   -1.1977   -0.0502   -0.0003 C   0  0  0  0  0  0  0  0  0  0  0  0
    0.9282   -0.6565   -0.0009 C   0  0  0  0  0  0  0  0  0  0  0  0
   -0.3820   -1.1496    0.0027 C   0  0  0  0  0  0  0  0  0  0  0  0
   -0.9557   -3.0757    0.0108 I   0  0  0  0  0  0  0  0  0  0  0  0
   -0.3514    1.0227   -0.0010 N   0  0  0  0  0  0  0  0  0  0  0  0
    0.9516    0.6813   -0.0028 N   0  0  0  0  0  0  0  0  0  0  0  0
  3  1  2  0
  3  2  1  0
  4  3  1  0
  5  1  1  0
  6  2  2  0
  6  5  1  0
M  END
>  <DRUGBANK_ID>  (1) 
DB02721

>  <SECONDARY_ACCESSION_NUMBERS>  (1) 
EXPT02726

>  <COMMON_NAME>  (1) 
4-Iodopyrazole

>  <CAS_NUMBER>  (1) 
3469-69-0

>  <UNII>  (1) 
F33UJD465Q

$$$$
