MRA
     RDKit          3D

 25 26  0  0  0  0  0  0  0  0999 V2000
   -0.8438    1.4695    0.0222 C   0  0  0  0  0  0  0  0  0  0  0  0
   -1.4462    0.2431   -0.3171 C   0  0  0  0  0  0  0  0  0  0  0  0
   -0.5907   -0.8039   -0.5396 C   0  0  0  0  0  0  0  0  0  0  0  0
    0.7874   -0.5343   -0.0632 C   0  0  0  0  0  0  0  0  0  0  0  0
    1.4243    0.6273   -0.0541 C   0  0  0  0  0  0  0  0  0  0  0  0
    0.5644    1.6484   -0.0419 C   0  0  0  0  0  0  0  0  0  0  0  0
    1.2294    2.8891   -0.1555 C   0  0  0  0  0  0  0  0  0  0  0  0
    1.9038    3.8338   -0.3212 C   0  0  0  0  0  0  0  0  0  0  0  0
   -1.1325   -2.3208   -1.3021 N   0  0  0  0  0  0  0  0  0  0  0  0
   -0.9189   -4.1085   -0.7264 C   0  0  0  0  0  0  0  0  0  0  0  0
   -0.1692   -4.5205    0.8725 C   0  0  0  0  0  0  0  0  0  0  0  0
    0.7399   -5.5315    0.9444 C   0  0  0  0  0  0  0  0  0  0  0  0
    0.6259   -6.3809   -0.1364 C   0  0  0  0  0  0  0  0  0  0  0  0
   -0.0180   -6.0773   -1.4305 C   0  0  0  0  0  0  0  0  0  0  0  0
   -0.7242   -4.9211   -1.7867 C   0  0  0  0  0  0  0  0  0  0  0  0
   -1.0461   -4.5185   -3.0150 F   0  0  0  0  0  0  0  0  0  0  0  0
    0.1433   -7.0009   -2.3808 F   0  0  0  0  0  0  0  0  0  0  0  0
    0.0406   -3.4562    2.3776 C   0  0  0  0  0  0  0  0  0  0  0  0
    0.9121   -3.6492    3.2271 O   0  0  0  0  0  0  0  0  0  0  0  0
   -0.6046   -2.1804    2.5320 N   0  0  0  0  0  0  0  0  0  0  0  0
   -1.5892   -1.7851    1.6717 O   0  0  0  0  0  0  0  0  0  0  0  0
   -1.3481   -2.7096    0.7163 C   0  0  0  0  0  0  0  0  0  0  0  0
    0.5693   -2.7753   -0.0982 C   0  0  0  0  0  0  0  0  0  0  0  0
    1.7364   -2.9487    0.7173 O   0  0  0  0  0  0  0  0  0  0  0  0
   -2.7687    0.0558   -0.2734 F   0  0  0  0  0  0  0  0  0  0  0  0
  1  2  2  0
  1  6  1  0
  2 25  1  0
  2  3  1  0
  3  9  1  0
  3  4  2  0
  4  5  1  0
  5  6  2  0
  6  7  1  0
  7  8  3  0
  9 10  1  0
 10 15  1  0
 10 11  2  0
 11 18  1  0
 11 12  1  0
 12 13  2  0
 13 14  1  0
 14 15  2  0
 14 17  1  0
 15 16  1  0
 18 19  2  0
 18 20  1  0
 20 21  1  0
 21 22  1  0
 22 23  1  0
 23 24  1  0
M  END
>  <DRUGBANK_ID>  (1) 
DB08208

>  <COMMON_NAME>  (1) 
2-[(4-ETHYNYL-2-FLUOROPHENYL)AMINO]-3,4-DIFLUORO-N-(2-HYDROXYETHOXY)BENZAMIDE

$$$$
