
     RDKit          3D

 19 20  0  0  0  0  0  0  0  0999 V2000
    5.4545   -1.6160    0.3283 C   0  0  0  0  0  0  0  0  0  0  0  0
    4.3746   -0.7611    0.2397 O   0  0  0  0  0  0  0  0  0  0  0  0
    3.0920   -1.3491   -0.2034 C   0  0  1  0  0  0  0  0  0  0  0  0
    3.3192   -2.6983   -0.9258 C   0  0  2  0  0  0  0  0  0  0  0  0
    4.1343   -2.6187   -2.0960 O   0  0  0  0  0  0  0  0  0  0  0  0
    6.5674   -1.4611   -0.5253 C   0  0  0  0  0  0  0  0  0  0  0  0
    2.1015   -1.4947    0.8557 O   0  0  0  0  0  0  0  0  0  0  0  0
    0.8621   -2.0663    0.3397 C   0  0  1  0  0  0  0  0  0  0  0  0
    2.1188   -3.5555   -1.2313 C   0  0  2  0  0  0  0  0  0  0  0  0
    1.1017   -3.5123   -0.1053 C   0  0  2  0  0  0  0  0  0  0  0  0
    2.5617   -4.9242   -1.3798 O   0  0  0  0  0  0  0  0  0  0  0  0
    5.4238   -2.7117    1.1956 C   0  0  0  0  0  0  0  0  0  0  0  0
   -0.1053   -4.1416   -0.5378 O   0  0  0  0  0  0  0  0  0  0  0  0
    7.6133   -2.3915   -0.4821 C   0  0  0  0  0  0  0  0  0  0  0  0
    6.4005   -3.6961    1.1490 C   0  0  0  0  0  0  0  0  0  0  0  0
    7.5334   -3.5017    0.3522 C   0  0  0  0  0  0  0  0  0  0  0  0
    8.5673   -4.3775    0.3957 O   0  0  0  0  0  0  0  0  0  0  0  0
   -0.2747   -2.0733    1.3809 C   0  0  0  0  0  0  0  0  0  0  0  0
   -0.6795   -0.7479    1.7014 O   0  0  0  0  0  0  0  0  0  0  0  0
  1 12  1  0
  1  6  2  0
  2  1  1  0
  3  7  1  0
  3  4  1  0
  3  2  1  1
  4  9  1  0
  4  5  1  6
  6 14  1  0
  7  8  1  0
  8 10  1  0
  8 18  1  1
  9 11  1  1
  9 10  1  0
 10 13  1  6
 12 15  2  0
 14 16  2  0
 15 16  1  0
 16 17  1  0
 18 19  1  0
M  END
>  <DRUGBANK_ID>  (1) 
DB11217

>  <COMMON_NAME>  (1) 
Arbutin

>  <CAS_NUMBER>  (1) 
497-76-7

>  <UNII>  (1) 
C5INA23HXF

>  <SYNONYMS>  (1) 
4-Hydroxyphenyl-beta-D-glucopyranoside; beta-Arbutin; hydroquinone O-β-D-glucopyranoside; Hydroquinone-O-beta-D-glucopyranoside; p-hydroxyphenyl β-D-glucopyranoside; p-hydroxyphenyl β-D-glucoside

$$$$
