
     RDKit          3D

 18 19  0  0  0  0  0  0  0  0999 V2000
    1.2108   -0.0801   -0.0444 C   0  0  0  0  0  0  0  0  0  0  0  0
   -0.3607   -2.4507   -4.5831 C   0  0  0  0  0  0  0  0  0  0  0  0
    0.3613   -1.3703   -0.0603 C   0  0  2  0  0  0  0  0  0  0  0  0
    0.1382   -0.4599   -5.2724 C   0  0  0  0  0  0  0  0  0  0  0  0
    0.7329   -2.8512   -0.2470 C   0  0  2  0  0  0  0  0  0  0  0  0
    0.4997   -3.1834   -1.7098 C   0  0  2  0  0  0  0  0  0  0  0  0
    0.4295    0.6039   -6.2433 C   0  0  0  0  0  0  0  0  0  0  0  0
    0.0690   -0.4016   -3.8827 C   0  0  0  0  0  0  0  0  0  0  0  0
   -0.5471   -2.1583   -2.1184 C   0  0  2  0  0  0  0  0  0  0  0  0
    0.6827    1.8711   -5.7883 N   0  0  0  0  0  0  0  0  0  0  0  0
   -0.1201   -1.7674   -5.6756 N   0  0  0  0  0  0  0  0  0  0  0  0
   -0.2888   -1.6551   -3.4679 N   0  0  0  0  0  0  0  0  0  0  0  0
    0.7895    0.7377    1.0768 O   0  0  0  0  0  0  0  0  0  0  0  0
   -0.2849   -3.6138    0.4805 O   0  0  0  0  0  0  0  0  0  0  0  0
   -0.0140   -4.5096   -1.9291 O   0  0  0  0  0  0  0  0  0  0  0  0
    0.4559    0.4249   -7.4690 O   0  0  0  0  0  0  0  0  0  0  0  0
    0.2517    0.5435   -2.9827 O   0  0  0  0  0  0  0  0  0  0  0  0
   -0.6454   -1.1492   -1.0854 O   0  0  0  0  0  0  0  0  0  0  0  0
  3  1  1  6
  5  3  1  0
  5 14  1  1
  6  5  1  0
  6 15  1  1
  7  4  1  0
  8  4  2  0
  9  6  1  0
  9 12  1  6
 10  7  1  0
 11  2  2  0
 11  4  1  0
 12  2  1  0
 12  8  1  0
 13  1  1  0
 16  7  2  0
 17  8  1  0
 18  3  1  0
 18  9  1  0
M  END
>  <DRUGBANK_ID>  (1) 
DB12617

>  <COMMON_NAME>  (1) 
Mizoribine

>  <CAS_NUMBER>  (1) 
50924-49-7

>  <UNII>  (1) 
4JR41A10VP

>  <SYNONYMS>  (1) 
BREDININ; Mizoribine

$$$$
