
     RDKit          3D

 31 34  0  0  0  0  0  0  0  0999 V2000
    0.9787   -0.0433    0.1497 N   0  0  0  0  0  0  0  0  0  0  0  0
    0.5007    1.2408   -0.3809 C   0  0  0  0  0  0  0  0  0  0  0  0
    1.0485    1.5752   -1.7467 C   0  0  0  0  0  0  0  0  0  0  0  0
    1.0123    2.8747   -2.2837 C   0  0  0  0  0  0  0  0  0  0  0  0
    1.5598    3.1445   -3.5608 C   0  0  0  0  0  0  0  0  0  0  0  0
    2.2225    2.1266   -4.2534 C   0  0  0  0  0  0  0  0  0  0  0  0
    2.6074    2.2277   -5.6115 N   0  0  0  0  0  0  0  0  0  0  0  0
    3.0067    1.2200   -6.5124 C   0  0  0  0  0  0  0  0  0  0  0  0
    3.4930    1.5684   -7.6038 O   0  0  0  0  0  0  0  0  0  0  0  0
    2.8340   -0.2754   -6.2661 C   0  0  0  0  0  0  0  0  0  0  0  0
    1.7144   -0.7773   -5.6071 C   0  0  0  0  0  0  0  0  0  0  0  0
    1.8238   -2.0160   -4.9295 C   0  0  0  0  0  0  0  0  0  0  0  0
    0.7922   -2.3819   -4.0006 N   0  0  0  0  0  0  0  0  0  0  0  0
    0.5668   -3.7256   -3.6285 C   0  0  0  0  0  0  0  0  0  0  0  0
   -0.2291   -4.4956   -4.3893 N   0  0  0  0  0  0  0  0  0  0  0  0
   -0.1678   -5.8338   -4.1745 C   0  0  0  0  0  0  0  0  0  0  0  0
    0.6823   -6.4304   -3.2751 C   0  0  0  0  0  0  0  0  0  0  0  0
    1.4026   -5.5578   -2.5089 C   0  0  0  0  0  0  0  0  0  0  0  0
    1.2981   -4.2165   -2.6148 N   0  0  0  0  0  0  0  0  0  0  0  0
    3.0534   -2.7545   -5.0831 C   0  0  0  0  0  0  0  0  0  0  0  0
    3.7711   -3.7380   -4.2853 C   0  0  0  0  0  0  0  0  0  0  0  0
    4.7854   -4.5530   -4.7950 C   0  0  0  0  0  0  0  0  0  0  0  0
    4.1777   -5.1251   -5.8564 C   0  0  0  0  0  0  0  0  0  0  0  0
    3.9110   -4.0776   -6.7846 C   0  0  0  0  0  0  0  0  0  0  0  0
    3.5754   -2.6769   -6.3186 C   0  0  0  0  0  0  0  0  0  0  0  0
    3.7503   -1.2598   -6.6918 C   0  0  0  0  0  0  0  0  0  0  0  0
    6.1550   -4.1993   -5.4045 C   0  0  0  0  0  0  0  0  0  0  0  0
    6.5243   -2.9565   -5.8405 N   0  0  0  0  0  0  0  0  0  0  0  0
    6.8744   -5.2025   -5.8139 N   0  0  0  0  0  0  0  0  0  0  0  0
    2.4636    0.9584   -3.5688 C   0  0  0  0  0  0  0  0  0  0  0  0
    1.7105    0.6029   -2.4738 C   0  0  0  0  0  0  0  0  0  0  0  0
  1  2  1  0
  2  3  1  0
  3  4  2  0
  3 31  1  0
  4  5  1  0
  5  6  2  0
  6  7  1  0
  6 30  1  0
  7  8  1  0
  8  9  2  0
  8 10  1  0
 10 11  2  0
 10 26  1  0
 11 12  1  0
 12 13  1  0
 12 20  2  0
 13 14  1  0
 14 15  2  0
 14 19  1  0
 15 16  1  0
 16 17  2  0
 17 18  1  0
 18 19  2  0
 20 21  1  0
 20 25  1  0
 21 22  2  0
 22 23  1  0
 22 27  1  0
 23 24  2  0
 24 25  1  0
 25 26  2  0
 27 28  1  0
 27 29  2  0
 30 31  2  0
M  END
>  <DRUGBANK_ID>  (1) 
DB03082

>  <SECONDARY_ACCESSION_NUMBERS>  (1) 
EXPT03178

>  <COMMON_NAME>  (1) 
6-[(Z)-Amino(Imino)Methyl]-N-[4-(Aminomethyl)Phenyl]-4-(Pyrimidin-2-Ylamino)-2-Naphthamide

$$$$
