
     RDKit          3D

 29 30  0  0  0  0  0  0  0  0999 V2000
    1.5543    3.5535   -0.2801 C   0  0  0  0  0  0  0  0  0  0  0  0
    6.2409   -0.1575    1.3562 C   0  0  0  0  0  0  0  0  0  0  0  0
    7.2561   -3.8054    7.1196 C   0  0  0  0  0  0  0  0  0  0  0  0
    3.0290    3.7852   -0.0229 C   0  0  0  0  0  0  0  0  0  0  0  0
    5.4247    5.6823    3.8908 C   0  0  0  0  0  0  0  0  0  0  0  0
    5.3369    5.0871    2.6562 C   0  0  0  0  0  0  0  0  0  0  0  0
    4.6713    5.1656    4.9447 C   0  0  0  0  0  0  0  0  0  0  0  0
    4.5669    3.9305    2.5431 C   0  0  0  0  0  0  0  0  0  0  0  0
    3.7632    4.1196    4.7505 C   0  0  0  0  0  0  0  0  0  0  0  0
    2.4472    2.5459    3.3662 C   0  0  0  0  0  0  0  0  0  0  0  0
    2.2547    1.7078    2.1125 C   0  0  0  0  0  0  0  0  0  0  0  0
    6.0759   -4.1699    4.8880 C   0  0  0  0  0  0  0  0  0  0  0  0
    5.2306   -0.4409    2.4422 C   0  0  1  0  0  0  0  0  0  0  0  0
    3.6293    3.5162    3.5119 C   0  0  0  0  0  0  0  0  0  0  0  0
    3.3350    0.8661    1.4965 C   0  0  1  0  0  0  0  0  0  0  0  0
    5.9464   -3.1649    3.7471 C   0  0  1  0  0  0  0  0  0  0  0  0
    5.9439   -0.6513    3.8004 C   0  0  0  0  0  0  0  0  0  0  0  0
    4.8355   -3.5543    2.7899 C   0  0  0  0  0  0  0  0  0  0  0  0
    3.8049    1.3521    0.0686 C   0  0  0  0  0  0  0  0  0  0  0  0
    6.0050   -2.0326    5.8050 C   0  0  0  0  0  0  0  0  0  0  0  0
    4.3192    0.6771    2.5666 N   0  0  0  0  0  0  0  0  0  0  0  0
    6.4784   -3.3420    5.9885 N   0  0  0  0  0  0  0  0  0  0  0  0
    5.7334   -1.8791    4.4203 N   0  0  0  0  0  0  0  0  0  0  0  0
    6.6580    0.2394    4.2638 O   0  0  0  0  0  0  0  0  0  0  0  0
    4.8741   -3.4069    1.5801 O   0  0  0  0  0  0  0  0  0  0  0  0
    3.6978   -3.9643    3.3796 O   0  0  0  0  0  0  0  0  0  0  0  0
    4.1353    0.5250   -0.7869 O   0  0  0  0  0  0  0  0  0  0  0  0
    5.7856   -1.2462    6.6939 O   0  0  0  0  0  0  0  0  0  0  0  0
    3.9034    2.6575   -0.2889 O   0  0  0  0  0  0  0  0  0  0  0  0
  4  1  1  0
  6  5  2  0
  7  5  1  0
  8  6  1  0
  9  7  2  0
 11 10  1  0
 13  2  1  6
 14  8  2  0
 14  9  1  0
 14 10  1  0
 15 21  1  0
 15 19  1  0
 15 11  1  1
 16 12  1  0
 16 18  1  6
 17 13  1  0
 21 13  1  0
 22  3  1  0
 22 12  1  0
 22 20  1  0
 23 16  1  0
 23 17  1  0
 23 20  1  0
 24 17  2  0
 25 18  2  0
 26 18  1  0
 27 19  2  0
 28 20  2  0
 29  4  1  0
 29 19  1  0
M  END
>  <DRUGBANK_ID>  (1) 
DB11783

>  <COMMON_NAME>  (1) 
Imidapril

>  <CAS_NUMBER>  (1) 
89371-37-9

>  <UNII>  (1) 
BW7H1TJS22

>  <SYNONYMS>  (1) 
Imidapril

$$$$
