MF2
     RDKit          3D

 19 19  0  0  0  0  0  0  0  0999 V2000
    0.7297    1.2097   -0.1506 C   0  0  0  0  0  0  0  0  0  0  0  0
    1.4535   -0.0658    0.3211 C   0  0  1  0  0  0  0  0  0  0  0  0
    0.7654   -1.2795   -0.0765 O   0  0  0  0  0  0  0  0  0  0  0  0
   -1.3866   -2.4510   -0.1860 C   0  0  0  0  0  0  0  0  0  0  0  0
    2.8501   -0.0576   -0.2864 C   0  0  0  0  0  0  0  0  0  0  0  0
   -1.3850    2.3725   -0.2782 C   0  0  0  0  0  0  0  0  0  0  0  0
   -1.4418    2.3588   -1.8272 C   0  0  0  0  0  0  0  0  0  0  0  0
   -2.2076    1.1862   -2.4622 C   0  0  0  0  0  0  0  0  0  0  0  0
   -3.6132    1.0824   -1.8647 C   0  0  0  0  0  0  0  0  0  0  0  0
   -4.4112    2.2775   -2.3554 C   0  0  0  0  0  0  0  0  0  0  0  0
   -4.4418    2.2711   -3.8860 C   0  0  0  0  0  0  0  0  0  0  0  0
   -5.0734    0.9750   -4.4123 C   0  0  0  0  0  0  0  0  0  0  0  0
   -6.5058    0.8447   -3.9118 C   0  0  0  0  0  0  0  0  0  0  0  0
   -0.6516    1.2602    0.3571 N   0  0  0  0  0  0  0  0  0  0  0  0
   -0.5772   -1.3057    0.4588 C   0  0  2  0  0  0  0  0  0  0  0  0
   -1.2730   -0.0271    0.0438 C   0  0  0  0  0  0  0  0  0  0  0  0
   -7.2847    1.9760   -4.3494 N   0  0  0  0  0  0  0  0  0  0  0  0
   -8.3554    1.8898   -5.1828 C   0  0  0  0  0  0  0  0  0  0  0  0
   -8.9429    2.8638   -5.6023 O   0  0  0  0  0  0  0  0  0  0  0  0
  1  2  1  0
  1 14  1  0
  2  3  1  0
  2  5  1  6
  3 15  1  0
  6  7  1  0
  6 14  1  0
  7  8  1  0
  8  9  1  0
  9 10  1  0
 10 11  1  0
 11 12  1  0
 12 13  1  0
 13 17  1  0
 14 16  1  0
 15  4  1  6
 15 16  1  0
 17 18  1  0
 18 19  2  0
M  END
>  <DRUGBANK_ID>  (1) 
DB04021

>  <SECONDARY_ACCESSION_NUMBERS>  (1) 
EXPT02157

>  <COMMON_NAME>  (1) 
MF268

$$$$
