
     RDKit          3D

 27 30  0  0  0  0  0  0  0  0999 V2000
    1.2132    0.5427    0.0180 C   0  0  0  0  0  0  0  0  0  0  0  0
    2.4276    1.3061   -0.0049 C   0  0  0  0  0  0  0  0  0  0  0  0
    3.6975    0.7034   -0.0068 C   0  0  0  0  0  0  0  0  0  0  0  0
    3.7973   -0.6749   -0.0035 C   0  0  0  0  0  0  0  0  0  0  0  0
    2.6349   -1.4397   -0.0075 C   0  0  0  0  0  0  0  0  0  0  0  0
    1.3561   -0.8499   -0.0008 C   0  0  0  0  0  0  0  0  0  0  0  0
    0.0105   -2.0209    0.0006 S   0  0  0  0  0  0  0  0  0  0  0  0
   -1.4487   -1.0269   -0.0127 C   0  0  0  0  0  0  0  0  0  0  0  0
   -1.4503    0.3372   -0.0078 C   0  0  0  0  0  0  0  0  0  0  0  0
   -0.2050    1.1361    0.0611 C   0  0  0  0  0  0  0  0  0  0  0  0
   -2.7141    0.9362   -0.0133 C   0  0  0  0  0  0  0  0  0  0  0  0
   -2.6930   -1.6887   -0.0102 C   0  0  0  0  0  0  0  0  0  0  0  0
   -3.9285   -1.0169   -0.0088 C   0  0  0  0  0  0  0  0  0  0  0  0
   -3.9386    0.3307   -0.0132 C   0  0  0  0  0  0  0  0  0  0  0  0
   -0.3528    2.4292    0.2264 C   0  0  0  0  0  0  0  0  0  0  0  0
   -1.5072    3.4939    0.2006 C   0  0  0  0  0  0  0  0  0  0  0  0
   -1.4821    4.4712    1.3842 C   0  0  0  0  0  0  0  0  0  0  0  0
   -0.3273    5.2943    1.2367 N   0  0  0  0  0  0  0  0  0  0  0  0
   -0.2966    7.6985    0.4500 C   0  0  0  0  0  0  0  0  0  0  0  0
   -0.1821    6.6866    1.6440 C   0  0  0  0  0  0  0  0  0  0  0  0
    0.2858    5.1263   -0.0479 C   0  0  0  0  0  0  0  0  0  0  0  0
   -0.1642    6.0305   -1.1647 C   0  0  0  0  0  0  0  0  0  0  0  0
    0.3381    7.3351   -0.8507 N   0  0  0  0  0  0  0  0  0  0  0  0
    1.8264    7.3483   -0.9359 C   0  0  0  0  0  0  0  0  0  0  0  0
    2.7735    6.4631   -0.0669 C   0  0  0  0  0  0  0  0  0  0  0  0
    2.9390    5.1404   -0.6145 O   0  0  0  0  0  0  0  0  0  0  0  0
   -5.3452    1.3214   -0.0025 Cl  0  0  0  0  0  0  0  0  0  0  0  0
  1  2  2  0
  1  6  1  0
  1 10  1  0
  2  3  1  0
  3  4  2  0
  4  5  1  0
  5  6  2  0
  6  7  1  0
  7  8  1  0
  8  9  2  0
  8 12  1  0
  9 10  1  0
 10 15  2  0
 11  9  1  0
 11 14  2  0
 12 13  2  0
 13 14  1  0
 14 27  1  0
 15 16  1  0
 16 17  1  0
 17 18  1  0
 18 21  1  0
 19 20  1  0
 19 23  1  0
 20 18  1  0
 21 22  1  0
 22 23  1  0
 23 24  1  0
 24 25  1  0
 25 26  1  0
M  END
>  <DRUGBANK_ID>  (1) 
DB01624

>  <SECONDARY_ACCESSION_NUMBERS>  (1) 
DB08919; DB08920

>  <COMMON_NAME>  (1) 
Zuclopenthixol

>  <CAS_NUMBER>  (1) 
53772-83-1

>  <UNII>  (1) 
47ISU063SG

>  <SYNONYMS>  (1) 
(Z)-4-(3-(2-Chlorothioxanthen-9-ylidene)propyl)-1-piperazineethanol; Zuclopenthixol; Zuclopenthixolum; Zuclopentixol

$$$$
