
     RDKit          3D

  5  4  0  0  0  0  0  0  0  0999 V2000
    0.9168   -0.0255    0.0361 C   0  0  0  0  0  0  0  0  0  0  0  0
    0.4122   -0.2790    1.4489 C   0  0  0  0  0  0  0  0  0  0  0  0
    0.9013    0.7919    2.4176 C   0  0  0  0  0  0  0  0  0  0  0  0
    0.4223    2.0868    2.0357 N   0  0  0  0  0  0  0  0  0  0  0  0
    0.0376    3.1484    1.7163 C   0  0  0  0  0  0  0  0  0  0  0  0
  1  2  1  0
  2  3  1  0
  3  4  1  0
  4  5  3  0
M  CHG  2   4   1   5  -1
M  END
>  <DRUGBANK_ID>  (1) 
DB04050

>  <SECONDARY_ACCESSION_NUMBERS>  (1) 
EXPT02384

>  <COMMON_NAME>  (1) 
N-Propyl Isocyanide

>  <UNII>  (1) 
5E1K8OTJ0C

$$$$
