
     RDKit          3D

 16 17  0  0  1  0  0  0  0  0999 V2000
    2.2158   -1.9503   -4.1839 C   0  0  0  0  0  0  0  0  0  0  0  0
    1.5092   -2.8952   -3.2516 C   0  0  0  0  0  0  0  0  0  0  0  0
    1.6033   -4.2759   -3.4769 C   0  0  0  0  0  0  0  0  0  0  0  0
    0.9627   -5.1733   -2.6362 C   0  0  0  0  0  0  0  0  0  0  0  0
    0.2279   -4.6898   -1.5597 C   0  0  0  0  0  0  0  0  0  0  0  0
    0.1442   -3.3001   -1.2688 C   0  0  0  0  0  0  0  0  0  0  0  0
    0.7747   -2.3911   -2.1519 C   0  0  0  0  0  0  0  0  0  0  0  0
    0.6988   -0.8967   -1.9717 C   0  0  0  0  0  0  0  0  0  0  0  0
   -0.5914   -2.9319    0.0318 C   0  0  2  0  0  0  0  0  0  0  0  0
   -1.0562   -1.4796    0.2155 C   0  0  0  0  0  0  0  0  0  0  0  0
    0.1167   -3.4265    1.2741 C   0  0  0  0  0  0  0  0  0  0  0  0
   -0.2059   -3.2057    2.5653 C   0  0  0  0  0  0  0  0  0  0  0  0
    0.6495   -3.9153    3.3678 N   0  0  0  0  0  0  0  0  0  0  0  0
    1.5564   -4.6083    2.5657 C   0  0  0  0  0  0  0  0  0  0  0  0
    2.7541   -5.6253    3.0476 S   0  0  0  0  0  0  0  0  0  0  0  0
    1.2158   -4.2657    1.2608 N   0  0  0  0  0  0  0  0  0  0  0  0
  1  2  1  0
  2  3  2  0
  2  7  1  0
  3  4  1  0
  4  5  2  0
  5  6  1  0
  6  7  2  0
  7  8  1  0
  9 11  1  0
  9 10  1  1
  9  6  1  0
 11 12  2  0
 11 16  1  0
 12 13  1  0
 13 14  1  0
 14 15  2  0
 14 16  1  0
M  END
>  <DRUGBANK_ID>  (1) 
DB12143

>  <COMMON_NAME>  (1) 
Rezatomidine

>  <CAS_NUMBER>  (1) 
847829-38-3

>  <UNII>  (1) 
W5LMZ0RC8I

>  <SYNONYMS>  (1) 
Rezatomidine

$$$$
