619
     RDKit          3D

 37 41  0  0  0  0  0  0  0  0999 V2000
    1.1514    0.0811   -0.0883 O   0  0  0  0  0  0  0  0  0  0  0  0
    5.5388   -5.1886    2.2015 N   0  0  0  0  0  0  0  0  0  0  0  0
    7.5621   -7.0769    1.1433 N   0  0  0  0  0  0  0  0  0  0  0  0
    3.1500    0.9906   -0.6503 N   0  0  0  0  0  0  0  0  0  0  0  0
    7.3436   -1.4390   -1.1978 N   0  0  0  0  0  0  0  0  0  0  0  0
    9.1800   -2.0181   -2.6032 N   0  0  0  0  0  0  0  0  0  0  0  0
    9.5083   -1.4351   -0.3268 N   0  0  0  0  0  0  0  0  0  0  0  0
   11.4017   -1.9452   -6.4571 N   0  0  0  0  0  0  0  0  0  0  0  0
    6.5820   -4.7403    1.2603 C   0  0  0  0  0  0  0  0  0  0  0  0
    6.0945   -6.2553    3.0546 C   0  0  0  0  0  0  0  0  0  0  0  0
    7.0459   -5.9184    0.3807 C   0  0  0  0  0  0  0  0  0  0  0  0
    6.5932   -7.4437    2.2020 C   0  0  0  0  0  0  0  0  0  0  0  0
    5.0401   -4.0904    3.0238 C   0  0  0  0  0  0  0  0  0  0  0  0
    8.8633   -6.7563    1.7279 C   0  0  0  0  0  0  0  0  0  0  0  0
    4.3665   -3.0058    2.2180 C   0  0  0  0  0  0  0  0  0  0  0  0
    3.2710   -3.3109    1.3936 C   0  0  0  0  0  0  0  0  0  0  0  0
    4.8034   -1.6817    2.3256 C   0  0  0  0  0  0  0  0  0  0  0  0
    2.6002   -2.3023    0.7065 C   0  0  0  0  0  0  0  0  0  0  0  0
    4.0867   -0.6638    1.7040 C   0  0  0  0  0  0  0  0  0  0  0  0
    3.0190   -0.9792    0.8510 C   0  0  0  0  0  0  0  0  0  0  0  0
    2.3689    0.0515   -0.0001 C   0  0  0  0  0  0  0  0  0  0  0  0
    4.5432    1.0056   -0.8345 C   0  0  0  0  0  0  0  0  0  0  0  0
    6.6988   -0.1673   -1.1477 C   0  0  0  0  0  0  0  0  0  0  0  0
    5.2924   -0.1695   -1.0368 C   0  0  0  0  0  0  0  0  0  0  0  0
    7.3320    1.0942   -1.0833 C   0  0  0  0  0  0  0  0  0  0  0  0
    5.1865    2.2337   -0.7964 C   0  0  0  0  0  0  0  0  0  0  0  0
    6.5658    2.2734   -0.9404 C   0  0  0  0  0  0  0  0  0  0  0  0
    8.8069    1.3448   -1.1227 C   0  0  0  0  0  0  0  0  0  0  0  0
    8.7083   -1.7009   -1.3776 C   0  0  0  0  0  0  0  0  0  0  0  0
   10.5267   -1.9442   -2.7812 C   0  0  0  0  0  0  0  0  0  0  0  0
   11.0828   -2.3430   -4.0773 C   0  0  0  0  0  0  0  0  0  0  0  0
   11.3897   -1.5273   -1.7846 C   0  0  0  0  0  0  0  0  0  0  0  0
   10.8220   -1.2922   -0.5646 C   0  0  0  0  0  0  0  0  0  0  0  0
   11.9883   -3.4132   -4.1630 C   0  0  0  0  0  0  0  0  0  0  0  0
   10.8319   -1.6505   -5.2582 C   0  0  0  0  0  0  0  0  0  0  0  0
   12.5808   -3.7474   -5.3775 C   0  0  0  0  0  0  0  0  0  0  0  0
   12.2556   -2.9915   -6.4886 C   0  0  0  0  0  0  0  0  0  0  0  0
  1 21  2  0
  2  9  1  0
  2 10  1  0
  2 13  1  0
  3 11  1  0
  3 12  1  0
  3 14  1  0
  4 21  1  0
  4 22  1  0
  5 23  1  0
  5 29  1  0
  6 29  2  0
  6 30  1  0
  7 29  1  0
  7 33  2  0
  8 35  2  0
  8 37  1  0
  9 11  1  0
 10 12  1  0
 13 15  1  0
 15 16  2  0
 15 17  1  0
 16 18  1  0
 17 19  2  0
 18 20  2  0
 19 20  1  0
 20 21  1  0
 22 24  2  0
 22 26  1  0
 23 24  1  0
 23 25  2  0
 25 27  1  0
 25 28  1  0
 26 27  2  0
 30 31  1  0
 30 32  2  0
 31 34  2  0
 31 35  1  0
 32 33  1  0
 34 36  1  0
 36 37  2  0
M  END
>  <DRUGBANK_ID>  (1) 
DB00619

>  <SECONDARY_ACCESSION_NUMBERS>  (1) 
APRD01028; EXPT02967; DB03261

>  <COMMON_NAME>  (1) 
Imatinib

>  <CAS_NUMBER>  (1) 
152459-95-5

>  <UNII>  (1) 
BKJ8M8G5HI

>  <SYNONYMS>  (1) 
Imatinib; Imatinibum; Î±-(4-methyl-1-piperazinyl)-3'-((4-(3-pyridyl)-2-pyrimidinyl)amino)-p-toluidide

$$$$
