
     RDKit          3D

 18 19  0  0  1  0  0  0  0  0999 V2000
   -0.0023   -4.5996    1.2339 C   0  0  0  0  0  0  0  0  0  0  0  0
    0.1325   -3.4009    0.5477 C   0  0  0  0  0  0  0  0  0  0  0  0
    0.3327   -2.2218    1.2608 C   0  0  0  0  0  0  0  0  0  0  0  0
    0.2062   -2.1863    2.6636 C   0  0  0  0  0  0  0  0  0  0  0  0
    0.0588   -3.4017    3.3407 C   0  0  0  0  0  0  0  0  0  0  0  0
    0.0219   -4.6056    2.6279 C   0  0  0  0  0  0  0  0  0  0  0  0
    0.2432   -0.8669    3.4080 C   0  0  0  0  0  0  0  0  0  0  0  0
   -0.9135   -0.5666    4.3344 C   0  0  0  0  0  0  0  0  0  0  0  0
   -0.7835   -0.6239    5.5599 O   0  0  0  0  0  0  0  0  0  0  0  0
   -2.1193   -0.1321    3.8361 N   0  0  0  0  0  0  0  0  0  0  0  0
   -2.8514   -0.6844    2.6844 C   0  0  1  0  0  0  0  0  0  0  0  0
   -2.3070   -0.5853    1.2631 C   0  0  0  0  0  0  0  0  0  0  0  0
   -2.8673   -1.6939    0.3620 C   0  0  0  0  0  0  0  0  0  0  0  0
   -2.8664   -3.0724    0.9707 C   0  0  0  0  0  0  0  0  0  0  0  0
   -2.8698   -4.1023    0.2818 O   0  0  0  0  0  0  0  0  0  0  0  0
   -2.9795   -3.1408    2.3213 N   0  0  0  0  0  0  0  0  0  0  0  0
   -3.1251   -2.1071    3.1906 C   0  0  0  0  0  0  0  0  0  0  0  0
   -3.4099   -2.3384    4.3655 O   0  0  0  0  0  0  0  0  0  0  0  0
  1  2  2  0
  1  6  1  0
  2  3  1  0
  3  4  2  0
  4  5  1  0
  4  7  1  0
  5  6  2  0
  7  8  1  0
  8  9  2  0
  8 10  1  0
 11 12  1  0
 11 17  1  0
 11 10  1  1
 12 13  1  0
 13 14  1  0
 14 15  2  0
 14 16  1  0
 16 17  1  0
 17 18  2  0
M  END
>  <DRUGBANK_ID>  (1) 
DB11702

>  <COMMON_NAME>  (1) 
Antineoplaston A10

>  <CAS_NUMBER>  (1) 
91531-30-5

>  <UNII>  (1) 
16VY3TM7ZO

>  <SYNONYMS>  (1) 
Antineoplaston A 10; ATENGENAL; BENZENEACETAMIDE, N-((3S)-2,6-DIOXO-3-PIPERIDINYL)-; BENZENEACETAMIDE, N-(2,6-DIOXO-3-PIPERIDINYL)-, (S)-

$$$$
