
     RDKit          3D

 19 19  0  0  0  0  0  0  0  0999 V2000
    0.9909   -0.1813   -0.1772 C   0  0  0  0  0  0  0  0  0  0  0  0
    0.3876   -0.7712   -1.3477 N   0  0  0  0  0  0  0  0  0  0  0  0
    0.4544    0.1156    0.8712 O   0  0  0  0  0  0  0  0  0  0  0  0
   -3.9668    2.7625    0.6702 N   0  0  0  0  0  0  0  0  0  0  0  0
   -1.0475   -0.9276   -1.5844 C   0  0  0  0  0  0  0  0  0  0  0  0
   -5.3466   -0.3131   -1.6662 O   0  0  0  0  0  0  0  0  0  0  0  0
   -5.7108    0.9050    0.7002 C   0  0  0  0  0  0  0  0  0  0  0  0
   -4.0015   -0.4951   -1.8347 C   0  0  0  0  0  0  0  0  0  0  0  0
   -4.2937    1.3638    1.1640 C   0  0  0  0  0  0  0  0  0  0  0  0
   -5.9377    0.7906   -0.8584 C   0  0  0  0  0  0  0  0  0  0  0  0
   -1.8444   -0.0997   -0.9204 C   0  0  0  0  0  0  0  0  0  0  0  0
   -1.8359   -1.7054   -2.4087 C   0  0  0  0  0  0  0  0  0  0  0  0
   -3.1219    0.3488   -1.3030 C   0  0  0  0  0  0  0  0  0  0  0  0
   -3.3250   -1.5376   -2.4619 C   0  0  0  0  0  0  0  0  0  0  0  0
   -6.6187    1.8933    1.2381 O   0  0  0  0  0  0  0  0  0  0  0  0
   -2.5438    3.2185    0.7499 C   0  0  0  0  0  0  0  0  0  0  0  0
    2.5019   -0.0073   -0.2150 C   0  0  0  0  0  0  0  0  0  0  0  0
   -1.5789    2.3407    0.0534 C   0  0  0  0  0  0  0  0  0  0  0  0
   -2.1980    4.4872    0.0018 C   0  0  0  0  0  0  0  0  0  0  0  0
  2  1  1  0
  3  1  2  0
  4  9  1  0
  5  2  1  0
  6  8  1  0
  7 10  1  0
  8 14  1  0
  9  7  1  0
 10  6  1  0
 11  5  2  0
 12  5  1  0
 13 11  1  0
 13  8  2  0
 14 12  2  0
 15  7  1  0
 16  4  1  0
 17  1  1  0
 18 16  1  0
 19 16  1  0
M  END
>  <DRUGBANK_ID>  (1) 
DB01297

>  <COMMON_NAME>  (1) 
Practolol

>  <CAS_NUMBER>  (1) 
6673-35-4

>  <UNII>  (1) 
SUG9176GRW

>  <SYNONYMS>  (1) 
(Â±)-practolol; 1-(4-acetamidophenoxy)-3-isopropylamino-2-propanol; 4'-(2-hydroxy-3-(isopropylamino)propoxy)acetanilide; N-(4-(2-hydroxy-3-((1-methylethyl)amino)propoxy)phenyl)acetamide; Practolol; Practololo; Practololum; Praktololu

$$$$
