19A
     RDKit          3D

 21 23  0  0  0  0  0  0  0  0999 V2000
    1.0863   -0.0933   -0.0474 C   0  0  0  0  0  0  0  0  0  0  0  0
    0.5020   -1.3528   -0.4813 N   0  0  0  0  0  0  0  0  0  0  0  0
    0.8677   -1.7738   -1.8309 C   0  0  0  0  0  0  0  0  0  0  0  0
   -0.2803   -2.1928    0.3184 C   0  0  0  0  0  0  0  0  0  0  0  0
   -0.6018   -3.3214   -0.0745 O   0  0  0  0  0  0  0  0  0  0  0  0
   -0.6933   -1.7503    1.6445 C   0  0  0  0  0  0  0  0  0  0  0  0
   -1.1661   -0.5268    2.1120 C   0  0  0  0  0  0  0  0  0  0  0  0
   -1.4581   -0.6520    3.4950 C   0  0  0  0  0  0  0  0  0  0  0  0
   -1.1933   -1.9560    3.8438 C   0  0  0  0  0  0  0  0  0  0  0  0
   -0.7559   -2.6138    2.7243 N   0  0  0  0  0  0  0  0  0  0  0  0
   -1.9947    0.3912    4.3743 C   0  0  0  0  0  0  0  0  0  0  0  0
   -1.4615    0.6656    5.5730 N   0  0  0  0  0  0  0  0  0  0  0  0
   -2.2725    1.6105    6.0763 N   0  0  0  0  0  0  0  0  0  0  0  0
   -3.3066    1.9458    5.2527 C   0  0  0  0  0  0  0  0  0  0  0  0
   -3.1494    1.1797    4.1176 C   0  0  0  0  0  0  0  0  0  0  0  0
   -4.0413    1.2219    2.9802 C   0  0  0  0  0  0  0  0  0  0  0  0
   -4.2319    2.4211    2.2845 C   0  0  0  0  0  0  0  0  0  0  0  0
   -4.9650    2.4325    1.0976 C   0  0  0  0  0  0  0  0  0  0  0  0
   -5.4999    1.2457    0.5977 C   0  0  0  0  0  0  0  0  0  0  0  0
   -5.3188    0.0503    1.2916 C   0  0  0  0  0  0  0  0  0  0  0  0
   -4.6280    0.0449    2.5028 C   0  0  0  0  0  0  0  0  0  0  0  0
  1  2  1  0
  2  4  1  0
  2  3  1  0
  4  5  2  0
  4  6  1  0
  6 10  1  0
  6  7  2  0
  7  8  1  0
  8  9  2  0
  8 11  1  0
  9 10  1  0
 11 12  2  0
 11 15  1  0
 12 13  1  0
 13 14  1  0
 14 15  2  0
 15 16  1  0
 16 17  2  0
 16 21  1  0
 17 18  1  0
 18 19  2  0
 19 20  1  0
 20 21  2  0
M  END
>  <DRUGBANK_ID>  (1) 
DB06877

>  <COMMON_NAME>  (1) 
N,N-DIMETHYL-4-(4-PHENYL-1H-PYRAZOL-3-YL)-1H-PYRROLE-2-CARBOXAMIDE

>  <UNII>  (1) 
8C9VEZ8JB3

$$$$
