489
     RDKit          3D

 18 18  0  0  1  0  0  0  0  0999 V2000
    1.0471    0.0092    0.0642 S   0  0  0  0  0  0  0  0  0  0  0  0
    3.3161   -5.7097   -4.6335 O   0  0  0  0  0  0  0  0  0  0  0  0
    0.6066   -0.6262    1.2824 O   0  0  0  0  0  0  0  0  0  0  0  0
    0.5544    1.3306   -0.2872 O   0  0  0  0  0  0  0  0  0  0  0  0
    5.3196   -2.5483   -4.8060 N   0  0  0  0  0  0  0  0  0  0  0  0
    0.6001   -0.9748   -1.2039 N   0  0  0  0  0  0  0  0  0  0  0  0
    3.9902   -4.5657   -4.1188 C   0  0  0  0  0  0  0  0  0  0  0  0
    4.6176   -3.7592   -5.2704 C   0  0  0  0  0  0  0  0  0  0  0  0
    5.8471   -1.7561   -5.9200 C   0  0  0  0  0  0  0  0  0  0  0  0
    3.0109   -3.7147   -3.3371 C   0  0  0  0  0  0  0  0  0  0  0  0
    3.2644   -3.4748   -1.9879 C   0  0  0  0  0  0  0  0  0  0  0  0
    1.9157   -3.0788   -3.9442 C   0  0  0  0  0  0  0  0  0  0  0  0
    4.7394   -1.2646   -6.8544 C   0  0  0  0  0  0  0  0  0  0  0  0
    6.5923   -0.5506   -5.3447 C   0  0  0  0  0  0  0  0  0  0  0  0
    1.4410   -1.8910   -1.8870 C   0  0  0  0  0  0  0  0  0  0  0  0
    2.4374   -2.6279   -1.2584 C   0  0  0  0  0  0  0  0  0  0  0  0
    1.1675   -2.1339   -3.2349 C   0  0  0  0  0  0  0  0  0  0  0  0
    2.8349    0.0956    0.0944 C   0  0  0  0  0  0  0  0  0  0  0  0
  1  3  2  0
  1  4  2  0
  1  6  1  0
  1 18  1  0
  2  7  1  0
  5  8  1  0
  5  9  1  0
  6 15  1  0
  7  8  1  0
  7 10  1  0
  9 13  1  0
  9 14  1  0
 10 11  2  0
 10 12  1  0
 11 16  1  0
 12 17  2  0
 15 16  2  0
 15 17  1  0
M  END
>  <DRUGBANK_ID>  (1) 
DB00489

>  <SECONDARY_ACCESSION_NUMBERS>  (1) 
APRD01230

>  <COMMON_NAME>  (1) 
Sotalol

>  <CAS_NUMBER>  (1) 
3930-20-9

>  <UNII>  (1) 
A6D97U294I

>  <SYNONYMS>  (1) 
4'-(1-hydroxy-2-(isopropylamino)ethyl)methane sulfonanilide; Sotalol; Sotalolo; Sotalolum; Î²-cardone

$$$$
