
     RDKit          3D

 19 20  0  0  0  0  0  0  0  0999 V2000
   -3.1618   -4.3911   -1.1960 N   0  0  0  0  0  0  0  0  0  0  0  0
   -1.8621   -3.9362   -1.1324 C   0  0  0  0  0  0  0  0  0  0  0  0
   -1.4275   -3.3174    0.0702 N   0  0  0  0  0  0  0  0  0  0  0  0
   -2.3960   -2.7347    0.8766 C   0  0  0  0  0  0  0  0  0  0  0  0
   -3.6902   -2.8032    0.5505 C   0  0  0  0  0  0  0  0  0  0  0  0
   -4.0458   -3.8421   -0.4334 C   0  0  0  0  0  0  0  0  0  0  0  0
   -1.1364   -4.0941   -2.1091 O   0  0  0  0  0  0  0  0  0  0  0  0
    0.0043   -2.9543    0.2698 C   0  0  2  0  0  0  0  0  0  0  0  0
    0.8662   -3.6446   -0.6389 O   0  0  0  0  0  0  0  0  0  0  0  0
    1.2450   -4.9050   -0.0329 C   0  0  1  0  0  0  0  0  0  0  0  0
    1.5091   -4.5645    1.4386 C   0  0  1  0  0  0  0  0  0  0  0  0
    0.6355   -3.2878    1.6556 C   0  0  1  0  0  0  0  0  0  0  0  0
    0.2119   -6.0132   -0.3129 C   0  0  0  0  0  0  0  0  0  0  0  0
   -0.9970   -5.9359    0.4389 O   0  0  0  0  0  0  0  0  0  0  0  0
   -5.3373   -4.2617   -0.5442 N   0  0  0  0  0  0  0  0  0  0  0  0
    1.4431   -2.1973    2.1503 O   0  0  0  0  0  0  0  0  0  0  0  0
    1.1606   -5.6424    2.3927 C   0  0  0  0  0  0  0  0  0  0  0  0
    2.9262   -4.3013    1.5060 O   0  0  0  0  0  0  0  0  0  0  0  0
    0.7167   -6.5518    3.0572 C   0  0  0  0  0  0  0  0  0  0  0  0
  1  2  1  0
  1  6  2  0
  2  7  2  0
  2  3  1  0
  3  4  1  0
  4  5  2  0
  5  6  1  0
  6 15  1  0
  8  9  1  0
  8  3  1  1
  9 10  1  0
 10 11  1  0
 10 13  1  1
 11 12  1  0
 11 18  1  6
 11 17  1  0
 12  8  1  0
 12 16  1  6
 13 14  1  0
 17 19  3  0
M  END
>  <DRUGBANK_ID>  (1) 
DB06656

>  <COMMON_NAME>  (1) 
TAS-106

>  <CAS_NUMBER>  (1) 
180300-43-0

>  <UNII>  (1) 
Y3O05I09ZK

>  <SYNONYMS>  (1) 
3'-C-Ethynylcytidine; 4-Amino-1-((2R,3R,4R,5R)-4-ethynyl-3,4-dihydroxy-5-(hydroxymethyl)oxolan-2-yl)pyrimidin-2-one

$$$$
