
     RDKit          3D

 18 19  0  0  0  0  0  0  0  0999 V2000
   -1.8770    0.0420   -0.0140 C   0  0  0  0  0  0  0  0  0  0  0  0
   -1.2260   -1.1720   -0.0010 C   0  0  0  0  0  0  0  0  0  0  0  0
    0.1710   -1.2410    0.0150 C   0  0  0  0  0  0  0  0  0  0  0  0
    0.8850   -0.0250   -0.0010 C   0  0  0  0  0  0  0  0  0  0  0  0
    0.2240    1.1800    0.0160 C   0  0  0  0  0  0  0  0  0  0  0  0
   -1.1570    1.2120    0.0000 C   0  0  0  0  0  0  0  0  0  0  0  0
    0.9873    2.4358    0.0512 N   0  0  0  0  0  0  0  0  0  0  0  0
    0.2810    3.7249    0.0694 C   0  0  0  0  0  0  0  0  0  0  0  0
    1.0702    5.0234    0.1059 C   0  0  0  0  0  0  0  0  0  0  0  0
   -3.8258    0.0999   -0.0524 As  0  0  0  0  0  3  0  0  0  0  0  0
   -4.4202   -0.6041    1.1849 S   0  0  0  0  0  0  0  0  0  0  0  0
   -5.6853   -1.3389    0.7075 C   0  0  0  0  0  0  0  0  0  0  0  0
   -5.8152   -1.0555   -0.8038 C   0  0  0  0  0  0  0  0  0  0  0  0
   -4.3699   -0.7126   -1.2530 S   0  0  0  0  0  0  0  0  0  0  0  0
   -6.3985   -2.2325   -1.5685 C   0  0  0  0  0  0  0  0  0  0  0  0
   -7.7054   -2.5090   -1.0869 O   0  0  0  0  0  0  0  0  0  0  0  0
    2.2370    0.0050   -0.0110 O   0  0  0  0  0  0  0  0  0  0  0  0
   -0.9895    3.7537    0.0547 O   0  0  0  0  0  0  0  0  0  0  0  0
  1  2  2  0
  1  6  1  0
  1 10  1  0
  2  3  1  0
  3  4  2  0
  4  5  1  0
  4 17  1  0
  5  6  2  0
  5  7  1  0
  7  8  1  0
  8  9  1  0
  8 18  2  0
 10 11  1  0
 10 14  1  0
 11 12  1  0
 12 13  1  0
 13 14  1  0
 13 15  1  0
 15 16  1  0
M  END
>  <DRUGBANK_ID>  (1) 
DB08928

>  <COMMON_NAME>  (1) 
Arsthinol

>  <CAS_NUMBER>  (1) 
119-96-0

>  <UNII>  (1) 
QNT09A162Y

>  <SYNONYMS>  (1) 
Arsthinenol; Arsthinol

$$$$
