
     RDKit          3D

 21 22  0  0  0  0  0  0  0  0999 V2000
    1.0443    0.0480   -0.0556 C   0  0  1  0  0  0  0  0  0  0  0  0
    0.5519   -0.0084   -1.4999 C   0  0  0  0  0  0  0  0  0  0  0  0
   -0.5346   -0.8121   -1.8785 C   0  0  0  0  0  0  0  0  0  0  0  0
    1.1392    0.8051   -2.4867 C   0  0  0  0  0  0  0  0  0  0  0  0
    0.5053    1.3134    0.6827 C   0  0  2  0  0  0  0  0  0  0  0  0
    0.9344    2.5887    0.0952 N   0  0  0  0  0  0  0  0  0  0  0  0
   -0.4013    0.0038   -4.1418 C   0  0  0  0  0  0  0  0  0  0  0  0
    0.6231    7.3480    1.8032 C   0  0  0  0  0  0  0  0  0  0  0  0
    0.6647    0.8248   -3.7997 C   0  0  0  0  0  0  0  0  0  0  0  0
   -1.0025   -0.8060   -3.1928 C   0  0  0  0  0  0  0  0  0  0  0  0
    0.6471   -1.1333    0.6526 O   0  0  0  0  0  0  0  0  0  0  0  0
    1.9733    5.3562    0.3874 C   0  0  0  0  0  0  0  0  0  0  0  0
    0.8592    7.5058    0.4441 C   0  0  0  0  0  0  0  0  0  0  0  0
    1.0511    6.2105    2.4745 C   0  0  0  0  0  0  0  0  0  0  0  0
    1.5321    6.5127   -0.2682 C   0  0  0  0  0  0  0  0  0  0  0  0
    1.7442    5.2326    1.7686 C   0  0  0  0  0  0  0  0  0  0  0  0
    2.3776    2.8501    0.1298 C   0  0  0  0  0  0  0  0  0  0  0  0
   -0.8893   -0.0363   -5.4132 O   0  0  0  0  0  0  0  0  0  0  0  0
   -0.0370    8.3425    2.4603 O   0  0  0  0  0  0  0  0  0  0  0  0
    2.6603    4.2630   -0.4055 C   0  0  0  0  0  0  0  0  0  0  0  0
    0.7559    1.2981    2.1972 C   0  0  0  0  0  0  0  0  0  0  0  0
  1 11  1  1
  1  5  1  0
  1  2  1  0
  3  2  2  0
  4  2  1  0
  5 21  1  1
  5  6  1  0
  7  9  1  0
  7 10  2  0
  8 14  2  0
  9  4  2  0
 10  3  1  0
 12 20  1  0
 13 15  2  0
 13  8  1  0
 14 16  1  0
 15 12  1  0
 16 12  2  0
 17  6  1  0
 18  7  1  0
 19  8  1  0
 20 17  1  0
M  END
>  <DRUGBANK_ID>  (1) 
DB00867

>  <SECONDARY_ACCESSION_NUMBERS>  (1) 
APRD00541

>  <COMMON_NAME>  (1) 
Ritodrine

>  <CAS_NUMBER>  (1) 
26652-09-5

>  <UNII>  (1) 
I0Q6O6740J

>  <SYNONYMS>  (1) 
p-Hydroxy-alpha-(1-((p-hydroxyphenethyl)amino)ethyl)benzyl alcohol; Ritodrina; Ritodrine; Ritodrinium

$$$$
