
     RDKit          3D

 17 14  0  0  0  0  0  0  0  0999 V2000
    1.2599   -0.9937    0.7737 C   0  0  0  0  0  0  0  0  0  0  0  0
    0.5731   -0.3382    2.2960 S   0  0  0  0  0  0  0  0  0  0  0  0
    0.0731   -2.0259   -0.7521 S   0  0  0  0  0  0  0  0  0  0  0  0
    3.0274   -0.9147    0.6536 N   0  0  0  0  0  0  0  0  0  0  0  0
    3.5865    0.0367    1.3347 C   0  0  0  0  0  0  0  0  0  0  0  0
    4.2036   -1.5596   -0.7187 C   0  0  0  0  0  0  0  0  0  0  0  0
    4.4567   -0.4852    2.3733 C   0  0  0  0  0  0  0  0  0  0  0  0
    3.9862   -3.0293   -0.9494 C   0  0  0  0  0  0  0  0  0  0  0  0
    0.6475    1.7951    1.2484 Zn  0  0  0  0  0 15  0  0  0  0  0  0
    0.0085    0.9403   -0.8352 C   0  0  0  0  0  0  0  0  0  0  0  0
   -0.5177    2.5801   -0.7695 S   0  0  0  0  0  0  0  0  0  0  0  0
   -1.6014    0.2116   -0.1177 S   0  0  0  0  0  0  0  0  0  0  0  0
    1.5407    0.7440   -0.5039 N   0  0  0  0  0  0  0  0  0  0  0  0
    2.8384    2.0552   -0.0484 C   0  0  0  0  0  0  0  0  0  0  0  0
    2.1513   -0.9710   -1.0583 C   0  0  0  0  0  0  0  0  0  0  0  0
    4.0438    2.2116    1.4546 C   0  0  0  0  0  0  0  0  0  0  0  0
    2.1618   -2.6612    0.3206 C   0  0  0  0  0  0  0  0  0  0  0  0
  2  1  1  0
  3  1  2  0
  4  1  1  0
  5  4  1  0
  6  4  1  0
  7  5  1  0
  8  6  1  0
 11 10  1  0
 12 10  2  0
 13 10  1  0
 14 13  1  0
 15 13  1  0
 16 14  1  0
 17 15  1  0
M  CHG  3   2  -1   9   2  11  -1
M  END
>  <DRUGBANK_ID>  (1) 
DB14193

>  <COMMON_NAME>  (1) 
Ditiocarb zinc

>  <CAS_NUMBER>  (1) 
14324-55-1

>  <UNII>  (1) 
ICW4708Z8G

>  <SYNONYMS>  (1) 
Bis(diethyldithiocarbamato)zinc; DEDTC; Diethyldithiocarbamic acid zinc salt; Ethazate; Ethyl cymate; Ethyl zimate; Ethyl Ziram; Ethylzimate; Zinc Diethyldithiocarbamate; Zinc N,N-diethyldithiocarbamate; Zinc, bis(diethylcarbamodithioato-S,S')-

$$$$
