471
     RDKit          3D

 41 45  0  0  1  0  0  0  0  0999 V2000
    3.2285    0.4123    0.0031 Cl  0  0  0  0  0  0  0  0  0  0  0  0
   -5.3771    7.5224   -1.6867 S   0  0  0  0  0  0  0  0  0  0  0  0
   -7.3810    7.2128    0.1151 O   0  0  0  0  0  0  0  0  0  0  0  0
   -7.4934    6.2177    2.0387 O   0  0  0  0  0  0  0  0  0  0  0  0
   -9.5002   10.4499   -4.8493 O   0  0  0  0  0  0  0  0  0  0  0  0
   -1.7306    1.4971    0.0114 N   0  0  0  0  0  0  0  0  0  0  0  0
   -4.6187    6.7167    1.1531 C   0  0  0  0  0  0  0  0  0  0  0  0
   -4.7822    6.6183    2.6816 C   0  0  0  0  0  0  0  0  0  0  0  0
   -3.4426    6.4831    2.0544 C   0  0  0  0  0  0  0  0  0  0  0  0
   -4.6535    7.9043    0.2279 C   0  0  0  0  0  0  0  0  0  0  0  0
   -5.4927    5.7208    0.6319 C   0  0  0  0  0  0  0  0  0  0  0  0
   -6.8706    6.3483    0.9603 C   0  0  0  0  0  0  0  0  0  0  0  0
   -6.7557    5.9389   -2.0094 C   0  0  2  0  0  0  0  0  0  0  0  0
   -8.0254    6.4945   -2.6245 C   0  0  0  0  0  0  0  0  0  0  0  0
   -7.1985    4.7099   -1.1465 C   0  0  0  0  0  0  0  0  0  0  0  0
   -8.9179    7.6398   -1.9260 C   0  0  0  0  0  0  0  0  0  0  0  0
   -6.3288    3.6369   -1.0954 C   0  0  0  0  0  0  0  0  0  0  0  0
   -8.3622    4.6227   -0.3107 C   0  0  0  0  0  0  0  0  0  0  0  0
   -8.3502    9.0619   -1.8817 C   0  0  0  0  0  0  0  0  0  0  0  0
   -8.1327    9.8101   -3.0427 C   0  0  0  0  0  0  0  0  0  0  0  0
   -6.4363    2.7094   -0.0574 C   0  0  0  0  0  0  0  0  0  0  0  0
   -8.4450    3.7020    0.7519 C   0  0  0  0  0  0  0  0  0  0  0  0
   -8.6103    9.4079   -4.4440 C   0  0  0  0  0  0  0  0  0  0  0  0
   -7.9297    9.6329   -0.6388 C   0  0  0  0  0  0  0  0  0  0  0  0
   -7.4823    2.7218    0.8681 C   0  0  0  0  0  0  0  0  0  0  0  0
   -7.4080   11.0358   -2.9050 C   0  0  0  0  0  0  0  0  0  0  0  0
   -7.1310   10.7720   -0.5464 C   0  0  0  0  0  0  0  0  0  0  0  0
   -5.3521    1.7750    0.0902 C   0  0  0  0  0  0  0  0  0  0  0  0
   -7.3938    9.3067   -5.3714 C   0  0  0  0  0  0  0  0  0  0  0  0
   -9.4506    8.1485   -4.6802 C   0  0  0  0  0  0  0  0  0  0  0  0
   -6.8621   11.4790   -1.6942 C   0  0  0  0  0  0  0  0  0  0  0  0
   -4.0489    2.1080    0.0728 C   0  0  0  0  0  0  0  0  0  0  0  0
   -3.0153    1.0766    0.0431 C   0  0  0  0  0  0  0  0  0  0  0  0
   -3.3726   -0.2649    0.0203 C   0  0  0  0  0  0  0  0  0  0  0  0
   -0.7677    0.5528   -0.0077 C   0  0  0  0  0  0  0  0  0  0  0  0
   -2.3955   -1.2282    0.0001 C   0  0  0  0  0  0  0  0  0  0  0  0
   -1.0713   -0.8309   -0.0064 C   0  0  0  0  0  0  0  0  0  0  0  0
    0.5717    0.9123   -0.0170 C   0  0  0  0  0  0  0  0  0  0  0  0
   -0.0728   -1.8039   -0.0037 C   0  0  0  0  0  0  0  0  0  0  0  0
    1.5744   -0.0607   -0.0067 C   0  0  0  0  0  0  0  0  0  0  0  0
    1.2579   -1.4161    0.0023 C   0  0  0  0  0  0  0  0  0  0  0  0
  1 40  1  0
  2 10  1  0
  3 12  1  0
  4 12  2  0
  5 23  1  0
  6 33  2  0
  6 35  1  0
  7  8  1  0
  7  9  1  0
  7 10  1  0
  7 11  1  0
  8  9  1  0
 11 12  1  0
 13 15  1  0
 13 14  1  1
 13  2  1  0
 14 16  1  0
 15 17  2  0
 15 18  1  0
 16 19  1  0
 17 21  1  0
 18 22  2  0
 19 20  2  0
 19 24  1  0
 20 23  1  0
 20 26  1  0
 21 25  2  0
 21 28  1  0
 22 25  1  0
 23 29  1  0
 23 30  1  0
 24 27  2  0
 26 31  2  0
 27 31  1  0
 28 32  2  0
 32 33  1  0
 33 34  1  0
 34 36  2  0
 35 37  2  0
 35 38  1  0
 36 37  1  0
 37 39  1  0
 38 40  2  0
 39 41  2  0
 40 41  1  0
M  END
>  <DRUGBANK_ID>  (1) 
DB00471

>  <SECONDARY_ACCESSION_NUMBERS>  (1) 
APRD00434

>  <COMMON_NAME>  (1) 
Montelukast

>  <CAS_NUMBER>  (1) 
158966-92-8

>  <UNII>  (1) 
MHM278SD3E

>  <SYNONYMS>  (1) 
(R-(E))-1-(((1-(3-(2-(7-Chloro-2-quinolinyl)ethenyl)phenyl)-3-(2-(1-hydroxy-1-methylethyl)phenyl)propyl)thio)methyl)cyclopropaneacetic acid; 1-[[[(1 R)-1-[3-[(1E)-2-(7-chloro-2-quinolinyl)ethenyl] phenyl]-3-[2-(1-hydroxy-1-methylethyl)phenyl]propyl]sulfanyl]methyl]cyclopropaneacetic acid; Montelukast; Mont√©lukast; Montelukastum

$$$$
