
     RDKit          3D

 14 13  0  0  0  0  0  0  0  0999 V2000
   -0.9447   -3.5861   -0.3618 F   0  0  0  0  0  0  0  0  0  0  0  0
   -2.1135    0.0348   -2.3442 O   0  0  0  0  0  0  0  0  0  0  0  0
   -2.2423   -1.1130   -0.3937 O   0  0  0  0  0  0  0  0  0  0  0  0
    0.3825    0.2205   -0.1757 N   0  0  0  0  0  0  0  0  0  0  0  0
    3.4028   -3.9487   -0.0492 N   0  0  0  0  0  0  0  0  0  0  0  0
    4.1479   -2.7420    1.7934 N   0  0  0  0  0  0  0  0  0  0  0  0
    0.3635   -3.2691   -0.5099 C   0  0  2  0  0  0  0  0  0  0  0  0
    0.5293   -2.0637   -1.5127 C   0  0  0  0  0  0  0  0  0  0  0  0
    1.1399   -4.4967   -1.0079 C   0  0  0  0  0  0  0  0  0  0  0  0
   -0.0467   -0.6332   -1.2999 C   0  0  1  0  0  0  0  0  0  0  0  0
    2.6277   -4.2059   -1.2759 C   0  0  0  0  0  0  0  0  0  0  0  0
   -1.5626   -0.6289   -1.3088 C   0  0  0  0  0  0  0  0  0  0  0  0
    3.4300   -2.8664    0.6456 C   0  0  0  0  0  0  0  0  0  0  0  0
    2.7120   -1.5921    0.3715 C   0  0  0  0  0  0  0  0  0  0  0  0
  2 12  1  0
  3 12  2  0
  5 11  1  0
  5 13  2  0
  6 13  1  0
  7  9  1  0
  7  8  1  0
  7  1  1  6
  9 11  1  0
 10 12  1  0
 10  8  1  0
 10  4  1  1
 13 14  1  0
M  END
>  <DRUGBANK_ID>  (1) 
DB01835

>  <SECONDARY_ACCESSION_NUMBERS>  (1) 
EXPT01816

>  <COMMON_NAME>  (1) 
4R-Fluoro-N6-ethanimidoyl-L-lysine

$$$$
