
     RDKit          3D

 28 28  0  0  0  0  0  0  0  0999 V2000
    1.4044    0.2881    0.0509 F   0  0  0  0  0  0  0  0  0  0  0  0
    2.5109   -4.5331    0.1043 O   0  0  0  0  0  0  0  0  0  0  0  0
   -1.1465   -0.2058   -0.6632 O   0  0  0  0  0  0  0  0  0  0  0  0
   -1.4513   -1.7829   -2.2064 O   0  0  0  0  0  0  0  0  0  0  0  0
    3.8791    0.6451   -1.9702 O   0  0  0  0  0  0  0  0  0  0  0  0
    0.0465   -2.2489   -0.5096 N   0  0  0  0  0  0  0  0  0  0  0  0
    2.9697   -2.6932   -1.0861 N   0  0  0  0  0  0  0  0  0  0  0  0
   -1.3340   -6.1506   -2.0745 N   0  0  0  0  0  0  0  0  0  0  0  0
   -1.8166   -7.3593   -0.2193 N   0  0  0  0  0  0  0  0  0  0  0  0
   -3.4968   -6.9713   -1.6886 N   0  0  0  0  0  0  0  0  0  0  0  0
    0.3667   -3.9478   -2.4351 C   0  0  0  0  0  0  0  0  0  0  0  0
    0.5840   -3.5548   -0.9518 C   0  0  1  0  0  0  0  0  0  0  0  0
    0.8428   -5.3050   -2.8625 C   0  0  0  0  0  0  0  0  0  0  0  0
    0.1227   -6.3579   -2.0977 C   0  0  0  0  0  0  0  0  0  0  0  0
    2.0820   -3.6059   -0.5916 C   0  0  0  0  0  0  0  0  0  0  0  0
    2.8527   -1.5208   -1.9902 C   0  0  1  0  0  0  0  0  0  0  0  0
   -2.1129   -7.2257   -1.5908 C   0  0  0  0  0  0  0  0  0  0  0  0
    1.4916   -1.0767   -2.4247 C   0  0  0  0  0  0  0  0  0  0  0  0
   -0.9122   -1.4521   -1.1837 C   0  0  0  0  0  0  0  0  0  0  0  0
    3.3141   -0.2273   -1.3050 C   0  0  0  0  0  0  0  0  0  0  0  0
    2.7460    0.0979    0.0759 C   0  0  0  0  0  0  0  0  0  0  0  0
   -1.1606    0.1597    0.7241 C   0  0  0  0  0  0  0  0  0  0  0  0
   -1.9225   -0.8116    1.5786 C   0  0  0  0  0  0  0  0  0  0  0  0
   -1.8793   -2.1924    1.3495 C   0  0  0  0  0  0  0  0  0  0  0  0
   -2.5391   -0.4031    2.7372 C   0  0  0  0  0  0  0  0  0  0  0  0
   -2.0688   -3.1593    2.2936 C   0  0  0  0  0  0  0  0  0  0  0  0
   -2.9364   -1.3824    3.6507 C   0  0  0  0  0  0  0  0  0  0  0  0
   -2.6725   -2.7475    3.4443 C   0  0  0  0  0  0  0  0  0  0  0  0
  1 21  1  0
  2 15  2  0
  3 19  1  0
  3 22  1  0
  4 19  2  0
  5 20  2  0
  6 19  1  0
  7 15  1  0
  8 14  1  0
  8 17  1  0
  9 17  1  0
 10 17  1  0
 12 11  1  6
 11 13  1  0
 12  6  1  0
 12 15  1  0
 13 14  1  0
 16  7  1  0
 16 18  1  1
 16 20  1  0
 20 21  1  0
 22 23  1  0
 23 24  2  0
 23 25  1  0
 24 26  1  0
 25 27  2  0
 26 28  2  0
 27 28  1  0
M  END
>  <DRUGBANK_ID>  (1) 
DB03536

>  <SECONDARY_ACCESSION_NUMBERS>  (1) 
EXPT03294

>  <COMMON_NAME>  (1) 
Benzyl N-[(2S)-5-(diaminomethylamino)-1-[[(2S)-4-fluoro-3-oxobutan-2-yl]amino]-1-oxopentan-2-yl]carbamate

>  <SYNONYMS>  (1) 
Benzoyl-arginine-alanine-methyl ketone

$$$$
