NP5
     RDKit          3D

 22 23  0  0  0  0  0  0  0  0999 V2000
    0.4323   -2.8444   -2.6914 C   0  0  0  0  0  0  0  0  0  0  0  0
   -0.6090   -3.9214   -3.7863 O   0  0  0  0  0  0  0  0  0  0  0  0
    0.4273   -2.1057   -0.7631 C   0  0  0  0  0  0  0  0  0  0  0  0
    0.7616   -2.2277    0.8916 C   0  0  0  0  0  0  0  0  0  0  0  0
   -0.0517   -2.9449    1.9001 C   0  0  0  0  0  0  0  0  0  0  0  0
   -1.1588   -3.4598    1.3498 C   0  0  0  0  0  0  0  0  0  0  0  0
   -1.6127   -2.8150    0.2152 C   0  0  0  0  0  0  0  0  0  0  0  0
   -0.8719   -1.8192   -0.5306 C   0  0  0  0  0  0  0  0  0  0  0  0
   -1.4064   -1.1981   -1.7173 C   0  0  0  0  0  0  0  0  0  0  0  0
   -1.6294   -2.6499   -2.4194 C   0  0  0  0  0  0  0  0  0  0  0  0
   -2.3975   -2.5724   -3.6683 C   0  0  0  0  0  0  0  0  0  0  0  0
   -1.7586   -2.1968   -5.0741 C   0  0  0  0  0  0  0  0  0  0  0  0
   -0.2754   -2.8993   -5.7013 C   0  0  0  0  0  0  0  0  0  0  0  0
    0.3882   -4.5247   -5.5873 C   0  0  0  0  0  0  0  0  0  0  0  0
    0.0401   -5.3183   -6.5928 C   0  0  0  0  0  0  0  0  0  0  0  0
   -0.6038   -6.4345   -5.9108 C   0  0  0  0  0  0  0  0  0  0  0  0
   -1.6411   -5.0574   -5.2318 C   0  0  0  0  0  0  0  0  0  0  0  0
    1.1961   -1.8175   -2.9975 O   0  0  0  0  0  0  0  0  0  0  0  0
    1.4771   -1.3465    1.9691 O   0  0  0  0  0  0  0  0  0  0  0  0
   -1.8620   -4.5298    1.7860 O   0  0  0  0  0  0  0  0  0  0  0  0
   -3.0776   -3.5579   -0.4735 Cl  0  0  0  0  0  0  0  0  0  0  0  0
   -1.1425   -3.7694   -1.9666 O   0  0  0  0  0  0  0  0  0  0  0  0
  1  2  1  0
  1  3  1  0
  1 18  2  0
  2 17  1  0
  3  4  1  0
  3  8  2  0
  4  5  2  0
  4 19  1  0
  5  6  1  0
  6  7  2  0
  6 20  1  0
  7  8  1  0
  7 21  1  0
  8  9  1  0
  9 10  1  0
 10 11  1  0
 10 22  2  0
 11 12  1  0
 12 13  1  0
 13 14  1  0
 14 15  2  0
 15 16  1  0
 16 17  1  0
M  END
>  <DRUGBANK_ID>  (1) 
DB08293

>  <COMMON_NAME>  (1) 
(5E)-12-CHLORO-13,15-DIHYDROXY-4,7,8,9-TETRAHYDRO-2-BENZOXACYCLOTRIDECINE-1,10(3H,11H)-DIONE

$$$$
