SX6
     RDKit          3D

 30 32  0  0  0  0  0  0  0  0999 V2000
    1.7058   -0.9009    0.7245 O   0  0  0  0  0  0  0  0  0  0  0  0
    2.8886   -0.5338    0.5585 C   0  0  0  0  0  0  0  0  0  0  0  0
    3.5018    0.7722    1.2083 N   0  0  0  0  0  0  0  0  0  0  0  0
    2.8362    1.8044    2.1008 C   0  0  0  0  0  0  0  0  0  0  0  0
    2.6919    3.3131    1.5825 C   0  0  0  0  0  0  0  0  0  0  0  0
    3.9365    3.8721    1.1594 O   0  0  0  0  0  0  0  0  0  0  0  0
    4.6125    2.9974    0.2845 C   0  0  0  0  0  0  0  0  0  0  0  0
    4.6515    1.4596    0.6563 C   0  0  0  0  0  0  0  0  0  0  0  0
    3.6286   -1.4191   -0.5131 C   0  0  0  0  0  0  0  0  0  0  0  0
    4.0552   -0.9899   -1.9142 C   0  0  0  0  0  0  0  0  0  0  0  0
    4.8568    0.2374   -1.9502 C   0  0  0  0  0  0  0  0  0  0  0  0
    6.0575    0.2084   -1.6833 O   0  0  0  0  0  0  0  0  0  0  0  0
    4.0883    1.4305   -2.0922 N   0  0  0  0  0  0  0  0  0  0  0  0
    2.5939    1.8480   -1.7394 C   0  0  0  0  0  0  0  0  0  0  0  0
    1.6377    1.1834   -0.9036 C   0  0  0  0  0  0  0  0  0  0  0  0
    0.2943    1.4504   -0.4928 C   0  0  0  0  0  0  0  0  0  0  0  0
   -0.1719    2.6398   -0.8568 C   0  0  0  0  0  0  0  0  0  0  0  0
   -1.9084    3.1273   -0.3162 Br  0  0  0  0  0  0  0  0  0  0  0  0
    0.7657    3.4870   -1.4725 C   0  0  0  0  0  0  0  0  0  0  0  0
    2.1334    3.1513   -1.8845 C   0  0  0  0  0  0  0  0  0  0  0  0
    3.0788    4.2283   -2.2902 C   0  0  0  0  0  0  0  0  0  0  0  0
    4.2768    3.9132   -2.6818 O   0  0  0  0  0  0  0  0  0  0  0  0
    2.7428    5.5210   -2.3389 N   0  0  0  0  0  0  0  0  0  0  0  0
    2.0693    6.3604   -1.3389 C   0  0  0  0  0  0  0  0  0  0  0  0
    0.7098    6.8296   -1.8756 C   0  0  1  0  0  0  0  0  0  0  0  0
    0.0532    7.7769   -0.8906 C   0  0  0  0  0  0  0  0  0  0  0  0
    0.8517    7.3904   -3.2977 C   0  0  0  0  0  0  0  0  0  0  0  0
    3.0068    6.1505   -3.5981 C   0  0  0  0  0  0  0  0  0  0  0  0
    1.6586    6.4538   -4.2214 C   0  0  2  0  0  0  0  0  0  0  0  0
    1.9087    7.0528   -5.5872 C   0  0  0  0  0  0  0  0  0  0  0  0
  1  2  2  0
  2  9  1  0
  3  2  1  0
  3  8  1  0
  4  3  1  0
  5  4  1  0
  5  6  1  0
  6  7  1  0
  7  8  1  0
  9 10  1  0
 10 11  1  0
 11 12  2  0
 13 11  1  0
 13 14  1  0
 14 20  1  0
 14 15  2  0
 15 16  1  0
 16 17  2  0
 17 18  1  0
 19 17  1  0
 20 19  2  0
 21 20  1  0
 21 23  1  0
 22 21  2  0
 23 28  1  0
 24 23  1  0
 24 25  1  0
 25 27  1  0
 25 26  1  1
 27 29  1  0
 28 29  1  0
 29 30  1  6
M  END
>  <DRUGBANK_ID>  (1) 
DB08582

>  <COMMON_NAME>  (1) 
N-(4-bromo-2-{[(3R,5S)-3,5-dimethylpiperidin-1-yl]carbonyl}phenyl)-4-morpholin-4-yl-4-oxobutanamide

$$$$
