745
     RDKit          3D

 19 20  0  0  1  0  0  0  0  0999 V2000
    0.9996    0.2125    0.0246 S   0  0  0  0  0  0  0  0  0  0  0  0
    0.5426    0.7932   -1.2839 O   0  0  0  0  0  0  0  0  0  0  0  0
    4.0990    2.0131    0.8472 O   0  0  0  0  0  0  0  0  0  0  0  0
    3.1451    2.2192   -1.1920 N   0  0  0  0  0  0  0  0  0  0  0  0
    0.5871   -1.6191    0.0920 C   0  0  0  0  0  0  0  0  0  0  0  0
    0.9335   -2.4063   -1.1806 C   0  0  0  0  0  0  0  0  0  0  0  0
    0.9999   -2.2703    1.4410 C   0  0  0  0  0  0  0  0  0  0  0  0
    2.8248    0.1315    0.0414 C   0  0  0  0  0  0  0  0  0  0  0  0
    1.7118   -1.8867   -2.2196 C   0  0  0  0  0  0  0  0  0  0  0  0
    1.2599   -1.4956    2.5844 C   0  0  0  0  0  0  0  0  0  0  0  0
    0.4773   -3.7253   -1.3529 C   0  0  0  0  0  0  0  0  0  0  0  0
    0.9855   -3.6663    1.6460 C   0  0  0  0  0  0  0  0  0  0  0  0
    2.1660   -2.6754   -3.2690 C   0  0  0  0  0  0  0  0  0  0  0  0
    1.4918   -2.0790    3.8325 C   0  0  0  0  0  0  0  0  0  0  0  0
    1.0132   -4.5563   -2.3352 C   0  0  0  0  0  0  0  0  0  0  0  0
    1.1117   -4.2488    2.9049 C   0  0  0  0  0  0  0  0  0  0  0  0
    1.8411   -4.0207   -3.3104 C   0  0  0  0  0  0  0  0  0  0  0  0
    1.3961   -3.4538    3.9969 C   0  0  0  0  0  0  0  0  0  0  0  0
    3.3943    1.5274   -0.0418 C   0  0  0  0  0  0  0  0  0  0  0  0
  1  2  2  0
  1  5  1  0
  1  8  1  0
  3 19  2  0
  4 19  1  0
  5  6  1  0
  5  7  1  0
  6  9  2  0
  6 11  1  0
  7 10  2  0
  7 12  1  0
  8 19  1  0
  9 13  1  0
 10 14  1  0
 11 15  2  0
 12 16  2  0
 13 17  2  0
 14 18  2  0
 15 17  1  0
 16 18  1  0
M  END
>  <DRUGBANK_ID>  (1) 
DB00745

>  <SECONDARY_ACCESSION_NUMBERS>  (1) 
APRD00534

>  <COMMON_NAME>  (1) 
Modafinil

>  <CAS_NUMBER>  (1) 
68693-11-8

>  <UNII>  (1) 
R3UK8X3U3D

>  <SYNONYMS>  (1) 
2-((diphenylmethyl)sulfinyl)acetamide; Modafinil; Modafinilo; Modafinilum

$$$$
