
     RDKit          3D

 21 23  0  0  1  0  0  0  0  0999 V2000
    1.1020    0.0339    0.0705 C   0  0  0  0  0  0  0  0  0  0  0  0
    0.6536   -0.8899    1.0660 O   0  0  0  0  0  0  0  0  0  0  0  0
    0.9432   -2.2055    0.7944 C   0  0  0  0  0  0  0  0  0  0  0  0
    2.2676   -2.5352    0.4988 C   0  0  0  0  0  0  0  0  0  0  0  0
    2.6202   -3.8486    0.3015 C   0  0  0  0  0  0  0  0  0  0  0  0
    1.6524   -4.8322    0.4174 C   0  0  0  0  0  0  0  0  0  0  0  0
    0.2955   -4.5840    0.7344 C   0  0  0  0  0  0  0  0  0  0  0  0
   -0.0743   -3.2024    0.9365 C   0  0  0  0  0  0  0  0  0  0  0  0
   -1.3856   -2.8974    1.2432 N   0  0  0  0  0  0  0  0  0  0  0  0
   -1.8332   -1.5066    1.4658 C   0  0  0  0  0  0  0  0  0  0  0  0
   -2.3059   -3.8749    1.3484 C   0  0  0  0  0  0  0  0  0  0  0  0
   -3.6656   -3.6786    1.5780 O   0  0  0  0  0  0  0  0  0  0  0  0
   -4.2695   -5.0083    1.6241 C   0  0  2  0  0  0  0  0  0  0  0  0
   -3.1773   -6.0495    1.3512 C   0  0  0  0  0  0  0  0  0  0  0  0
   -1.9794   -5.1952    1.1887 C   0  0  0  0  0  0  0  0  0  0  0  0
   -0.6938   -5.5909    0.8681 C   0  0  0  0  0  0  0  0  0  0  0  0
   -0.6018   -6.9481    0.7113 O   0  0  0  0  0  0  0  0  0  0  0  0
    0.6261   -7.5762    0.3839 C   0  0  0  0  0  0  0  0  0  0  0  0
   -5.4371   -5.1225    0.6134 C   0  0  0  0  0  0  0  0  0  0  0  0
   -6.0341   -6.5380    0.5847 C   0  0  0  0  0  0  0  0  0  0  0  0
   -6.5536   -4.1241    0.9277 C   0  0  0  0  0  0  0  0  0  0  0  0
  1  2  1  0
  2  3  1  0
  3  4  2  0
  3  8  1  0
  4  5  1  0
  5  6  2  0
  6  7  1  0
  7  8  2  0
  7 16  1  0
  8  9  1  0
  9 10  1  0
  9 11  2  0
 11 12  1  0
 11 15  1  0
 13 12  1  0
 13 14  1  0
 13 19  1  6
 14 15  1  0
 15 16  2  0
 16 17  1  0
 17 18  1  0
 19 20  1  0
 19 21  1  0
M  CHG  1   9   1
M  END
>  <DRUGBANK_ID>  (1) 
DB16223

>  <COMMON_NAME>  (1) 
Lunasine

>  <CAS_NUMBER>  (1) 
6901-22-0

>  <UNII>  (1) 
80R70AS7M1

>  <SYNONYMS>  (1) 
(-)-lunasine; Lunasin; Lunasine, (-)-

$$$$
