
     RDKit          3D

 21 23  0  0  0  0  0  0  0  0999 V2000
   -2.3158   -0.0519   -0.0033 C   0  0  0  0  0  0  0  0  0  0  0  0
   -1.6048    1.0456   -0.1036 N   0  0  0  0  0  0  0  0  0  0  0  0
   -3.7948   -0.0850    0.0060 C   0  0  0  0  0  0  0  0  0  0  0  0
   -1.5168   -1.1653    0.0662 N   0  0  0  0  0  0  0  0  0  0  0  0
   -0.3100    0.6212   -0.0254 C   0  0  0  0  0  0  0  0  0  0  0  0
    3.4641    2.9167   -0.0794 C   0  0  0  0  0  0  0  0  0  0  0  0
   -4.4970   -0.8085    0.9486 N   0  0  0  0  0  0  0  0  0  0  0  0
   -0.2081   -0.7575    0.0207 C   0  0  0  0  0  0  0  0  0  0  0  0
    0.8455    1.3926   -0.0131 C   0  0  0  0  0  0  0  0  0  0  0  0
    3.2988    1.5495   -0.0482 N   0  0  0  0  0  0  0  0  0  0  0  0
   -6.2139    0.3140   -0.6249 S   0  0  0  0  0  0  0  0  0  0  0  0
   -5.7824   -0.5981    0.7649 C   0  0  0  0  0  0  0  0  0  0  0  0
   -4.5498    0.5752   -0.9408 C   0  0  0  0  0  0  0  0  0  0  0  0
    2.1052    0.7929   -0.0162 C   0  0  0  0  0  0  0  0  0  0  0  0
    4.5883    3.4116   -0.1173 O   0  0  0  0  0  0  0  0  0  0  0  0
    2.3138    3.6224   -0.0646 O   0  0  0  0  0  0  0  0  0  0  0  0
    1.0222   -1.4205    0.0189 C   0  0  0  0  0  0  0  0  0  0  0  0
    2.1806   -0.6112   -0.0035 C   0  0  0  0  0  0  0  0  0  0  0  0
    2.2490    5.0586   -0.0844 C   0  0  0  0  0  0  0  0  0  0  0  0
    2.8833    5.6411    1.1644 C   0  0  0  0  0  0  0  0  0  0  0  0
    2.8216    5.6046   -1.3787 C   0  0  0  0  0  0  0  0  0  0  0  0
  2  1  2  0
  3  1  1  0
  4  1  1  0
  5  2  1  0
  5  8  2  0
  6 10  1  0
  7  3  1  0
  8  4  1  0
  9  5  1  0
 10 14  1  0
 11 13  1  0
 11 12  1  0
 12  7  2  0
 13  3  2  0
 14  9  2  0
 14 18  1  0
 15  6  2  0
 16  6  1  0
 17  8  1  0
 18 17  2  0
 19 16  1  0
 20 19  1  0
 21 19  1  0
M  END
>  <DRUGBANK_ID>  (1) 
DB11380

>  <COMMON_NAME>  (1) 
Cambendazole

>  <CAS_NUMBER>  (1) 
26097-80-3

>  <UNII>  (1) 
079X63S3DU

>  <SYNONYMS>  (1) 
Cambendazol; Cambendazole; Cambendazolum

$$$$
