
     RDKit          3D

 33 35  0  0  1  0  0  0  0  0999 V2000
    0.7564   -0.2015   -2.6171 C   0  0  0  0  0  0  0  0  0  0  0  0
    0.1306    0.5000   -1.4121 C   0  0  2  0  0  0  0  0  0  0  0  0
    0.4950   -0.0922   -0.0521 C   0  0  0  0  0  0  0  0  0  0  0  0
    0.6795   -1.5958    0.1345 C   0  0  0  0  0  0  0  0  0  0  0  0
    1.6217   -2.3912   -0.7650 C   0  0  0  0  0  0  0  0  0  0  0  0
    3.0445   -2.0878   -0.8230 O   0  0  0  0  0  0  0  0  0  0  0  0
    3.5382   -0.8164   -0.7147 C   0  0  0  0  0  0  0  0  0  0  0  0
    3.1851    0.0377    0.3122 C   0  0  0  0  0  0  0  0  0  0  0  0
    3.3006    1.4385    0.1743 C   0  0  0  0  0  0  0  0  0  0  0  0
    4.2339    1.9314   -0.6735 C   0  0  0  0  0  0  0  0  0  0  0  0
    5.0065    0.9695   -1.2780 C   0  0  0  0  0  0  0  0  0  0  0  0
    4.5421   -0.3344   -1.5369 C   0  0  0  0  0  0  0  0  0  0  0  0
    5.2123   -1.1407   -2.6111 C   0  0  0  0  0  0  0  0  0  0  0  0
    5.0787   -0.5769   -3.9666 N   0  0  0  0  0  0  0  0  0  0  0  0
    5.5512    0.6243   -4.4831 C   0  0  0  0  0  0  0  0  0  0  0  0
    6.2130    1.7381   -3.7798 C   0  0  0  0  0  0  0  0  0  0  0  0
    5.2566    0.5876   -5.8235 C   0  0  0  0  0  0  0  0  0  0  0  0
    4.6720   -0.5851   -6.1644 N   0  0  0  0  0  0  0  0  0  0  0  0
    4.5544   -1.2770   -5.0466 C   0  0  0  0  0  0  0  0  0  0  0  0
    3.9172   -2.5852   -4.9932 C   0  0  0  0  0  0  0  0  0  0  0  0
    2.7825   -2.7808   -4.2085 C   0  0  0  0  0  0  0  0  0  0  0  0
    2.0749   -3.9753   -4.2362 C   0  0  0  0  0  0  0  0  0  0  0  0
    2.4915   -4.9977   -5.0884 C   0  0  0  0  0  0  0  0  0  0  0  0
    3.6193   -4.7957   -5.9012 C   0  0  0  0  0  0  0  0  0  0  0  0
    4.3601   -3.6180   -5.8127 C   0  0  0  0  0  0  0  0  0  0  0  0
    1.7784   -6.3204   -5.1057 C   0  0  0  0  0  0  0  0  0  0  0  0
    1.2618   -6.6262   -6.3253 F   0  0  0  0  0  0  0  0  0  0  0  0
    2.6106   -7.3461   -4.7756 F   0  0  0  0  0  0  0  0  0  0  0  0
    0.7392   -6.3882   -4.2266 F   0  0  0  0  0  0  0  0  0  0  0  0
   -1.3808    0.5406   -1.4133 C   0  0  0  0  0  0  0  0  0  0  0  0
   -1.9058    1.4581   -0.2898 C   0  0  0  0  0  0  0  0  0  0  0  0
   -2.5329    2.5583   -0.7529 O   0  0  0  0  0  0  0  0  0  0  0  0
   -1.7929    1.2807    0.8974 O   0  0  0  0  0  0  0  0  0  0  0  0
  2 30  1  0
  2  3  1  0
  2  1  1  6
  3  4  1  0
  4  5  1  0
  5  6  1  0
  6  7  1  0
  7  8  2  0
  7 12  1  0
  8  9  1  0
  9 10  2  0
 10 11  1  0
 11 12  2  0
 12 13  1  0
 13 14  1  0
 14 15  1  0
 14 19  1  0
 15 16  1  0
 15 17  2  0
 17 18  1  0
 18 19  2  0
 19 20  1  0
 20 21  2  0
 20 25  1  0
 21 22  1  0
 22 23  2  0
 23 24  1  0
 23 26  1  0
 24 25  2  0
 26 27  1  0
 26 28  1  0
 26 29  1  0
 30 31  1  0
 31 32  1  0
 31 33  2  0
M  END
>  <DRUGBANK_ID>  (1) 
DB16906

>  <COMMON_NAME>  (1) 
Bocidelpar

>  <CAS_NUMBER>  (1) 
2095128-20-2

>  <UNII>  (1) 
FKO8A7AD54

>  <SYNONYMS>  (1) 
Hexanoic acid, 3-methyl-6-(2-((5-methyl-2-(4-(trifluoromethyl)phenyl)-1h-imidazol-1-yl)methyl)phenoxy)-, (3r)-

$$$$
