
     RDKit          3D

 32 36  0  0  0  0  0  0  0  0999 V2000
    1.0882    0.0423   -0.0575 C   0  0  0  0  0  0  0  0  0  0  0  0
    0.6227   -0.2210    1.2611 O   0  0  0  0  0  0  0  0  0  0  0  0
    1.0033   -1.4534    1.7409 C   0  0  0  0  0  0  0  0  0  0  0  0
    2.2495   -1.9479    1.7627 C   0  0  0  0  0  0  0  0  0  0  0  0
    2.6123   -3.1933    2.2453 N   0  0  0  0  0  0  0  0  0  0  0  0
    1.6965   -4.0880    2.7408 N   0  0  0  0  0  0  0  0  0  0  0  0
    0.4494   -3.7054    2.7962 C   0  0  0  0  0  0  0  0  0  0  0  0
   -0.5455   -4.5654    3.3841 C   0  0  0  0  0  0  0  0  0  0  0  0
   -0.5633   -5.0574    4.6744 C   0  0  0  0  0  0  0  0  0  0  0  0
   -1.7990   -5.7054    4.7993 C   0  0  0  0  0  0  0  0  0  0  0  0
   -2.5520   -5.5881    3.7037 N   0  0  0  0  0  0  0  0  0  0  0  0
   -1.7584   -4.9309    2.8191 N   0  0  0  0  0  0  0  0  0  0  0  0
   -2.1900   -4.6871    1.4924 C   0  0  0  0  0  0  0  0  0  0  0  0
   -1.3413   -4.9876    0.4211 C   0  0  0  0  0  0  0  0  0  0  0  0
   -1.6415   -4.5021   -0.8517 C   0  0  0  0  0  0  0  0  0  0  0  0
   -2.8225   -3.7919   -1.0679 C   0  0  0  0  0  0  0  0  0  0  0  0
   -3.7272   -3.6027   -0.0209 C   0  0  0  0  0  0  0  0  0  0  0  0
   -3.4031   -4.0249    1.2718 C   0  0  0  0  0  0  0  0  0  0  0  0
   -0.0189   -2.3267    2.3504 C   0  0  0  0  0  0  0  0  0  0  0  0
   -1.1810   -1.9625    2.5193 O   0  0  0  0  0  0  0  0  0  0  0  0
    3.9648   -3.6556    2.1595 C   0  0  0  0  0  0  0  0  0  0  0  0
    5.0160   -2.9278    2.7540 C   0  0  0  0  0  0  0  0  0  0  0  0
    6.3631   -3.2690    2.5317 C   0  0  0  0  0  0  0  0  0  0  0  0
    6.6757   -4.3763    1.7381 C   0  0  0  0  0  0  0  0  0  0  0  0
    5.6501   -5.1786    1.2312 C   0  0  0  0  0  0  0  0  0  0  0  0
    4.3137   -4.8037    1.4276 C   0  0  0  0  0  0  0  0  0  0  0  0
    3.3649   -5.5295    0.8150 F   0  0  0  0  0  0  0  0  0  0  0  0
    8.0243   -4.6436    1.3969 N   0  0  0  0  0  0  0  0  0  0  0  0
    8.5282   -4.7954    0.1215 C   0  0  0  0  0  0  0  0  0  0  0  0
    9.8800   -5.0143    0.2475 C   0  0  0  0  0  0  0  0  0  0  0  0
   10.1059   -4.9959    1.6335 C   0  0  0  0  0  0  0  0  0  0  0  0
    9.0057   -4.6891    2.3288 N   0  0  0  0  0  0  0  0  0  0  0  0
  1  2  1  0
  2  3  1  0
  3  4  2  0
  3 19  1  0
  4  5  1  0
  5  6  1  0
  5 21  1  0
  6  7  2  0
  7  8  1  0
  7 19  1  0
  8  9  2  0
  8 12  1  0
  9 10  1  0
 10 11  2  0
 11 12  1  0
 12 13  1  0
 13 14  2  0
 13 18  1  0
 14 15  1  0
 15 16  2  0
 16 17  1  0
 17 18  2  0
 19 20  2  0
 21 22  2  0
 21 26  1  0
 22 23  1  0
 23 24  2  0
 24 25  1  0
 24 28  1  0
 25 26  2  0
 26 27  1  0
 28 29  1  0
 28 32  1  0
 29 30  2  0
 30 31  1  0
 31 32  2  0
M  END
>  <DRUGBANK_ID>  (1) 
DB14774

>  <COMMON_NAME>  (1) 
Balipodect

>  <CAS_NUMBER>  (1) 
1238697-26-1

>  <UNII>  (1) 
6650W303H0

>  <SYNONYMS>  (1) 
Balipodect

$$$$
