
     RDKit          3D

  8  6  0  0  0  0  0  0  0  0999 V2000
    0.8557   -0.1105   -0.2925 C   0  0  0  0  0  0  0  0  0  0  0  0
    0.3830    0.1647   -1.6986 C   0  0  0  0  0  0  0  0  0  0  0  0
    0.4323   -1.4458    0.3065 C   0  0  0  0  0  0  0  0  0  0  0  0
    0.9795   -0.9421   -2.5526 C   0  0  0  0  0  0  0  0  0  0  0  0
    1.0362   -1.4629    1.6216 O   0  0  0  0  0  0  0  0  0  0  0  0
    0.1236   -1.7046   -3.0813 O   0  0  0  0  0  0  0  0  0  0  0  0
    2.2342   -1.0159   -2.5073 O   0  0  0  0  0  0  0  0  0  0  0  0
    1.6729    0.5582    2.1508 Na  0  0  0  0  0 15  0  0  0  0  0  0
  2  1  1  0
  3  1  1  0
  4  2  1  0
  5  3  1  0
  6  4  2  0
  7  4  1  0
M  CHG  2   7  -1   8   1
M  END
>  <DRUGBANK_ID>  (1) 
DB09072

>  <COMMON_NAME>  (1) 
Sodium oxybate

>  <CAS_NUMBER>  (1) 
502-85-2

>  <UNII>  (1) 
7G33012534

>  <SYNONYMS>  (1) 
Oxybate sodium; Sodium oxybate

$$$$
