
     RDKit          3D

  3  2  0  0  0  0  0  0  0  0999 V2000
    0.9111    0.0317   -0.0331 Zr  0  0  0  0  0  2  0  0  0  0  0  0
   -1.4989    0.0317   -0.0331 O   0  0  0  0  0  0  0  0  0  0  0  0
    3.6811    0.0317   -0.0331 Cl  0  0  0  0  0  0  0  0  0  0  0  0
  1  2  1  0
  1  3  1  0
M  END
>  <DRUGBANK_ID>  (1) 
DB15479

>  <COMMON_NAME>  (1) 
Zirconium chloride hydroxide

>  <CAS_NUMBER>  (1) 
10119-31-0

>  <UNII>  (1) 
R7EF6G80G1

>  <SYNONYMS>  (1) 
Zirconium chlorohydrate; Zirconium hydroxychloride; Zirconyl hydroxychloride

$$$$
