
     RDKit          3D

 28 30  0  0  0  0  0  0  0  0999 V2000
   -3.1048    1.5370    3.0601 C   0  0  0  0  0  0  0  0  0  0  0  0
   -3.8104    0.3131    3.2079 C   0  0  0  0  0  0  0  0  0  0  0  0
   -5.0975    0.2181    2.7387 C   0  0  0  0  0  0  0  0  0  0  0  0
   -5.6955    1.3933    2.3082 C   0  0  0  0  0  0  0  0  0  0  0  0
   -5.0281    2.6325    2.1715 C   0  0  0  0  0  0  0  0  0  0  0  0
   -3.6532    2.6625    2.3773 C   0  0  0  0  0  0  0  0  0  0  0  0
   -2.7391    3.6982    1.6695 C   0  0  0  0  0  0  0  0  0  0  0  0
   -2.4383    3.7551    0.0973 C   0  0  0  0  0  0  0  0  0  0  0  0
   -4.5149    2.7194   -0.9009 N   0  0  0  0  0  0  0  0  0  0  0  0
   -7.9067   -0.8167    0.5083 C   0  0  0  0  0  0  0  0  0  0  0  0
   -6.2143    0.2740   -0.7929 N   0  0  0  0  0  0  0  0  0  0  0  0
   -7.7800    2.1377   -1.5775 C   0  0  0  0  0  0  0  0  0  0  0  0
   -9.2568    2.2063   -1.2095 C   0  0  0  0  0  0  0  0  0  0  0  0
   -9.5421    0.8491   -0.5866 C   0  0  0  0  0  0  0  0  0  0  0  0
   -7.1669    1.3341   -0.4444 C   0  0  1  0  0  0  0  0  0  0  0  0
   -8.3356    0.6339    0.3029 C   0  0  2  0  0  0  0  0  0  0  0  0
   -3.8851    1.3881   -1.0542 C   0  0  1  0  0  0  0  0  0  0  0  0
   -3.1878    0.7707    0.1524 C   0  0  0  0  0  0  0  0  0  0  0  0
   -3.6291    3.8811   -0.8701 C   0  0  2  0  0  0  0  0  0  0  0  0
   -3.2376    4.1478   -2.3587 C   0  0  0  0  0  0  0  0  0  0  0  0
   -2.6291    3.3686   -3.0603 O   0  0  0  0  0  0  0  0  0  0  0  0
   -3.7080    5.3197   -2.8654 O   0  0  0  0  0  0  0  0  0  0  0  0
   -6.8203   -1.0534   -0.5607 C   0  0  2  0  0  0  0  0  0  0  0  0
   -7.0466   -1.5063   -2.9959 O   0  0  0  0  0  0  0  0  0  0  0  0
   -7.4180   -1.6630   -1.8254 C   0  0  0  0  0  0  0  0  0  0  0  0
   -8.4647   -2.4779   -1.6037 O   0  0  0  0  0  0  0  0  0  0  0  0
   -4.9637    0.3297   -1.4283 C   0  0  0  0  0  0  0  0  0  0  0  0
   -4.5701   -0.6277   -2.1078 O   0  0  0  0  0  0  0  0  0  0  0  0
  1  2  2  0
  1  6  1  0
  2  3  1  0
  3  4  2  0
  4  5  1  0
  5  6  2  0
  6  7  1  0
  7  8  1  0
 10 23  1  0
 16 10  1  6
 11 15  1  0
 12 13  1  0
 13 14  1  0
 15 12  1  6
 16 15  1  0
 16 14  1  0
 17 18  1  1
 17 27  1  0
 17  9  1  0
 19 20  1  0
 19  9  1  0
 19  8  1  1
 20 22  1  0
 20 21  2  0
 23 11  1  0
 23 25  1  6
 25 24  2  0
 25 26  1  0
 27 11  1  0
 27 28  2  0
M  END
>  <DRUGBANK_ID>  (1) 
DB14208

>  <COMMON_NAME>  (1) 
Ramiprilat

>  <CAS_NUMBER>  (1) 
87269-97-4

>  <UNII>  (1) 
6N5U4QFC3G

>  <SYNONYMS>  (1) 
Ramipril diacid; Ramiprilat; Ramiprilate; Ramiprilatum

$$$$
