
     RDKit          3D

 30 33  0  0  0  0  0  0  0  0999 V2000
   -0.7975    0.0832    0.2290 C   0  0  0  0  0  0  0  0  0  0  0  0
    0.2584   -1.0037   -0.1401 C   0  0  0  0  0  0  0  0  0  0  0  0
    1.0772    0.0681   -0.6813 N   0  0  0  0  0  0  0  0  0  0  0  0
    0.3129    1.1386   -0.0792 C   0  0  0  0  0  0  0  0  0  0  0  0
   -1.8749    0.1084   -0.7464 O   0  0  0  0  0  0  0  0  0  0  0  0
   -1.4150    0.1376    1.6679 C   0  0  2  0  0  0  0  0  0  0  0  0
    3.5366    2.1047   -1.0063 C   0  0  0  0  0  0  0  0  0  0  0  0
    2.9096    1.2035   -1.8986 C   0  0  0  0  0  0  0  0  0  0  0  0
    3.5577    1.9743    0.4193 N   0  0  0  0  0  0  0  0  0  0  0  0
    4.1783    3.2209   -1.6063 C   0  0  0  0  0  0  0  0  0  0  0  0
    4.7779    4.1363   -0.8249 F   0  0  0  0  0  0  0  0  0  0  0  0
    4.2122    3.4151   -2.9962 C   0  0  0  0  0  0  0  0  0  0  0  0
    4.8168    4.4919   -3.5217 F   0  0  0  0  0  0  0  0  0  0  0  0
    3.6247    2.4992   -3.8521 C   0  0  0  0  0  0  0  0  0  0  0  0
    2.9933    1.3863   -3.3022 C   0  0  0  0  0  0  0  0  0  0  0  0
    2.1811   -0.0313   -1.5018 C   0  0  0  0  0  0  0  0  0  0  0  0
    2.5723   -1.0959   -1.9522 O   0  0  0  0  0  0  0  0  0  0  0  0
    3.2732   -1.6104    1.4659 C   0  0  0  0  0  0  0  0  0  0  0  0
    3.7961   -0.4406    0.9033 C   0  0  0  0  0  0  0  0  0  0  0  0
    2.2667   -1.5219    2.4207 C   0  0  0  0  0  0  0  0  0  0  0  0
    1.8342   -0.2646    2.8455 C   0  0  0  0  0  0  0  0  0  0  0  0
    2.3914    0.9108    2.2970 C   0  0  0  0  0  0  0  0  0  0  0  0
    3.3111    0.8348    1.2349 C   0  0  0  0  0  0  0  0  0  0  0  0
    4.6951   -0.5621   -0.0845 F   0  0  0  0  0  0  0  0  0  0  0  0
    1.2085   -3.2583    2.9840 I   0  0  0  0  0  0  0  0  0  0  0  0
   -3.0370   -1.0669    3.2409 C   0  0  0  0  0  0  0  0  0  0  0  0
   -2.2637   -1.1233    1.9243 C   0  0  0  0  0  0  0  0  0  0  0  0
   -2.2009    1.3777    1.8538 N   0  0  0  0  0  0  0  0  0  0  0  0
   -2.8602    1.4359    3.1570 C   0  0  0  0  0  0  0  0  0  0  0  0
   -3.7950    0.2488    3.3540 C   0  0  0  0  0  0  0  0  0  0  0  0
  1  2  1  0
  1  5  1  0
  2  3  1  0
  3  4  1  0
  4  1  1  0
  6  1  1  6
  6 28  1  0
  7  8  1  0
  7 10  2  0
  9  7  1  0
 10 12  1  0
 11 10  1  0
 12 13  1  0
 12 14  2  0
 14 15  1  0
 15  8  2  0
 16  3  1  0
 16  8  1  0
 17 16  2  0
 18 19  2  0
 18 20  1  0
 19 23  1  0
 20 21  2  0
 20 25  1  0
 21 22  1  0
 23  9  1  0
 23 22  2  0
 24 19  1  0
 26 27  1  0
 26 30  1  0
 27  6  1  0
 28 29  1  0
 29 30  1  0
M  END
>  <DRUGBANK_ID>  (1) 
DB05239

>  <COMMON_NAME>  (1) 
Cobimetinib

>  <CAS_NUMBER>  (1) 
934660-93-2

>  <UNII>  (1) 
ER29L26N1X

>  <SYNONYMS>  (1) 
Cobimetinib

$$$$
