
     RDKit          3D

 29 30  0  0  0  0  0  0  0  0999 V2000
    4.3150    4.0670   -1.0470 O   0  0  0  0  0  0  0  0  0  0  0  0
    5.9018   -2.7704    2.4169 O   0  0  0  0  0  0  0  0  0  0  0  0
    4.7049   -1.9708    0.6864 O   0  0  0  0  0  0  0  0  0  0  0  0
    4.7735    2.1433   -0.0186 N   0  0  0  0  0  0  0  0  0  0  0  0
    4.6058    0.9067    0.7696 C   0  0  2  0  0  0  0  0  0  0  0  0
    3.1680    0.8277    1.1239 C   0  0  0  0  0  0  0  0  0  0  0  0
    5.3006    0.6302    2.1373 C   0  0  0  0  0  0  0  0  0  0  0  0
    2.8393    1.9160    2.3836 C   0  0  0  0  0  0  0  0  0  0  0  0
    1.8083    5.2226    0.5262 C   0  0  0  0  0  0  0  0  0  0  0  0
    1.5194    3.8014    0.7771 C   0  0  0  0  0  0  0  0  0  0  0  0
    2.2739    2.9784   -0.2445 C   0  0  0  0  0  0  0  0  0  0  0  0
    1.0848    5.5075   -0.7158 C   0  0  0  0  0  0  0  0  0  0  0  0
    4.7770   -0.6965    2.7467 C   0  0  0  0  0  0  0  0  0  0  0  0
    3.8437    3.0846   -0.4544 C   0  0  0  0  0  0  0  0  0  0  0  0
   -0.4245    5.3645   -0.3982 C   0  0  0  0  0  0  0  0  0  0  0  0
    3.5621    3.4568    2.6707 C   0  0  0  0  0  0  0  0  0  0  0  0
   -0.9064    6.2467    0.7630 C   0  0  0  0  0  0  0  0  0  0  0  0
   -0.7648    7.7017    0.4123 C   0  0  0  0  0  0  0  0  0  0  0  0
    5.1125   -1.8532    1.8545 C   0  0  0  0  0  0  0  0  0  0  0  0
    2.8820    4.6207    3.1791 C   0  0  0  0  0  0  0  0  0  0  0  0
    4.8250    3.7893    2.1533 C   0  0  0  0  0  0  0  0  0  0  0  0
   -1.4231    8.6583    1.1574 C   0  0  0  0  0  0  0  0  0  0  0  0
    0.0437    8.1582   -0.6405 C   0  0  0  0  0  0  0  0  0  0  0  0
    3.3174    5.9635    2.8658 C   0  0  0  0  0  0  0  0  0  0  0  0
    5.2209    5.0942    1.7759 C   0  0  0  0  0  0  0  0  0  0  0  0
    4.4386    6.1858    2.0755 C   0  0  0  0  0  0  0  0  0  0  0  0
   -1.2350   10.0041    0.8422 C   0  0  0  0  0  0  0  0  0  0  0  0
    0.4321    9.4653   -0.7972 C   0  0  0  0  0  0  0  0  0  0  0  0
   -0.2839   10.4056   -0.1039 C   0  0  0  0  0  0  0  0  0  0  0  0
  1 14  2  0
  2 19  1  0
  3 19  2  0
  4 14  1  0
  5  7  1  1
  5  6  1  0
  5  4  1  0
  6  8  1  0
  7 13  1  0
  8 16  1  0
  9 10  1  0
  9 12  1  0
 10 11  1  0
 11 14  1  0
 12 15  1  0
 13 19  1  0
 15 17  1  0
 16 20  2  0
 16 21  1  0
 17 18  1  0
 18 22  2  0
 18 23  1  0
 20 24  1  0
 21 25  2  0
 22 27  1  0
 23 28  2  0
 24 26  2  0
 25 26  1  0
 27 29  2  0
 28 29  1  0
M  END
>  <DRUGBANK_ID>  (1) 
DB03471

>  <SECONDARY_ACCESSION_NUMBERS>  (1) 
EXPT00747

>  <COMMON_NAME>  (1) 
6-phenyl-4(R)-(7-phenyl-heptanoylamino)-hexanoic acid

$$$$
