
     RDKit          3D

 11 11  0  0  1  0  0  0  0  0999 V2000
    0.8731   -1.3369    2.0153 N   0  0  0  0  0  0  0  0  0  0  0  0
    0.4651   -1.1820    0.6026 C   0  0  2  0  0  0  0  0  0  0  0  0
    1.1174    0.0721   -0.0191 C   0  0  0  0  0  0  0  0  0  0  0  0
    2.5379   -0.0492   -0.0393 O   0  0  0  0  0  0  0  0  0  0  0  0
   -1.0720   -1.1418    0.5612 C   0  0  0  0  0  0  0  0  0  0  0  0
   -1.6427   -1.0662   -0.8315 C   0  0  0  0  0  0  0  0  0  0  0  0
   -1.9776   -2.2342   -1.5220 C   0  0  0  0  0  0  0  0  0  0  0  0
   -2.5310   -2.1607   -2.8005 C   0  0  0  0  0  0  0  0  0  0  0  0
   -2.7468   -0.9170   -3.3956 C   0  0  0  0  0  0  0  0  0  0  0  0
   -2.4030    0.2499   -2.7218 C   0  0  0  0  0  0  0  0  0  0  0  0
   -1.8406    0.1781   -1.4490 C   0  0  0  0  0  0  0  0  0  0  0  0
  2  5  1  0
  2  3  1  0
  2  1  1  1
  3  4  1  0
  5  6  1  0
  6  7  2  0
  6 11  1  0
  7  8  1  0
  8  9  2  0
  9 10  1  0
 10 11  2  0
M  END
>  <DRUGBANK_ID>  (1) 
DB04484

>  <SECONDARY_ACCESSION_NUMBERS>  (1) 
EXPT02590

>  <COMMON_NAME>  (1) 
L-phenylalaninol

>  <CAS_NUMBER>  (1) 
3182-95-4

>  <UNII>  (1) 
9GE9QOP0ET

$$$$
