1538
     RDKit          3D

 25 29  0  0  1  0  0  0  0  0999 V2000
    1.6598   -0.8081    0.6405 O   0  0  0  0  0  0  0  0  0  0  0  0
    0.0599   -3.2538   -0.2656 O   0  0  0  0  0  0  0  0  0  0  0  0
    2.2663    2.3409    0.1264 O   0  0  0  0  0  0  0  0  0  0  0  0
   -0.5176   -1.1028   -0.8903 O   0  0  0  0  0  0  0  0  0  0  0  0
    5.1224   -2.1377   -2.2415 N   0  0  0  0  0  0  0  0  0  0  0  0
    3.3507   -2.2813   -0.0639 C   0  0  2  0  0  0  0  0  0  0  0  0
    4.3666   -3.3738   -0.1201 C   0  0  1  0  0  0  0  0  0  0  0  0
    2.1317   -2.2502    0.8474 C   0  0  2  0  0  0  0  0  0  0  0  0
    5.6162   -2.6748   -0.8647 C   0  0  2  0  0  0  0  0  0  0  0  0
    2.8688   -2.3467   -1.5178 C   0  0  0  0  0  0  0  0  0  0  0  0
    3.8857   -0.9532    0.3459 C   0  0  0  0  0  0  0  0  0  0  0  0
    3.7992   -4.6182    0.5800 C   0  0  0  0  0  0  0  0  0  0  0  0
    1.2663   -3.5292    0.5186 C   0  0  2  0  0  0  0  0  0  0  0  0
    6.2709   -1.5245   -0.1180 C   0  0  0  0  0  0  0  0  0  0  0  0
    2.2370   -4.8212    0.1251 C   0  0  0  0  0  0  0  0  0  0  0  0
    3.8555   -2.6642   -2.6234 C   0  0  0  0  0  0  0  0  0  0  0  0
    5.2246   -0.5830    0.3433 C   0  0  0  0  0  0  0  0  0  0  0  0
    2.8463   -0.0519    0.4835 C   0  0  0  0  0  0  0  0  0  0  0  0
    5.4319   -0.9676   -3.0491 C   0  0  0  0  0  0  0  0  0  0  0  0
    5.5713    0.7418    0.4165 C   0  0  0  0  0  0  0  0  0  0  0  0
    3.1791    1.3190    0.3224 C   0  0  0  0  0  0  0  0  0  0  0  0
    4.5625    1.6672    0.2966 C   0  0  0  0  0  0  0  0  0  0  0  0
   -0.0771   -2.1908   -1.1393 C   0  0  0  0  0  0  0  0  0  0  0  0
    0.1519   -2.6882   -2.5472 C   0  0  0  0  0  0  0  0  0  0  0  0
    2.8577    3.6664    0.0293 C   0  0  0  0  0  0  0  0  0  0  0  0
  8  1  1  6
  1 18  1  0
  2 23  1  0
  3 25  1  0
  3 21  1  0
  4 23  2  0
  5  9  1  0
  5 16  1  0
  5 19  1  0
  6  7  1  0
  6  8  1  0
  6 10  1  6
  6 11  1  0
  7  9  1  0
  7 12  1  1
  8 13  1  0
  9 14  1  1
 10 16  1  0
 11 17  2  0
 11 18  1  0
 12 15  1  0
 13 15  1  0
 13  2  1  6
 14 17  1  0
 17 20  1  0
 18 21  2  0
 20 22  2  0
 21 22  1  0
 23 24  1  0
M  END
>  <DRUGBANK_ID>  (1) 
DB01538

>  <COMMON_NAME>  (1) 
Acetyldihydrocodeine

>  <CAS_NUMBER>  (1) 
3861-72-1

>  <UNII>  (1) 
SGY1T84P34

$$$$
