
     RDKit          3D

 30 33  0  0  1  0  0  0  0  0999 V2000
   -5.6445    1.2141   -0.8541 C   0  0  0  0  0  0  0  0  0  0  0  0
   -4.6316    0.9247    0.2184 C   0  0  0  0  0  0  0  0  0  0  0  0
   -3.9591   -0.2942   -0.1096 N   0  0  0  0  0  0  0  0  0  0  0  0
   -2.6369   -0.4503   -0.4117 C   0  0  0  0  0  0  0  0  0  0  0  0
   -2.2375   -1.5610   -0.7136 O   0  0  0  0  0  0  0  0  0  0  0  0
   -1.7247    0.7563   -0.2604 C   0  0  0  0  0  0  0  0  0  0  0  0
   -1.8816    1.8550   -1.3471 C   0  0  2  0  0  0  0  0  0  0  0  0
   -3.2676    2.2862   -1.6438 N   0  0  0  0  0  0  0  0  0  0  0  0
   -3.6332    3.1987   -2.4777 C   0  0  0  0  0  0  0  0  0  0  0  0
   -5.1191    3.5428   -2.7170 C   0  0  0  0  0  0  0  0  0  0  0  0
   -5.7178    3.3111   -3.9657 C   0  0  0  0  0  0  0  0  0  0  0  0
   -7.0974    3.5309   -4.1504 C   0  0  0  0  0  0  0  0  0  0  0  0
   -7.8993    3.9147   -3.0765 C   0  0  0  0  0  0  0  0  0  0  0  0
   -9.5962    4.1200   -3.2849 Cl  0  0  0  0  0  0  0  0  0  0  0  0
   -7.3211    4.1485   -1.8347 C   0  0  0  0  0  0  0  0  0  0  0  0
   -5.9232    4.0610   -1.6851 C   0  0  0  0  0  0  0  0  0  0  0  0
   -2.6700    4.0049   -3.2234 C   0  0  0  0  0  0  0  0  0  0  0  0
   -3.0207    5.3531   -3.3303 C   0  0  0  0  0  0  0  0  0  0  0  0
   -2.1873    6.2306   -3.9810 C   0  0  0  0  0  0  0  0  0  0  0  0
   -2.6606    7.5059   -4.0292 O   0  0  0  0  0  0  0  0  0  0  0  0
   -1.8106    8.4277   -4.6861 C   0  0  0  0  0  0  0  0  0  0  0  0
   -0.9800    5.7631   -4.4911 C   0  0  0  0  0  0  0  0  0  0  0  0
   -0.6219    4.4180   -4.3859 C   0  0  0  0  0  0  0  0  0  0  0  0
   -1.4795    3.5122   -3.7780 C   0  0  0  0  0  0  0  0  0  0  0  0
   -1.0841    2.1558   -3.6781 N   0  0  0  0  0  0  0  0  0  0  0  0
   -0.3864    1.3576   -4.5663 C   0  0  0  0  0  0  0  0  0  0  0  0
   -0.0523    1.7020   -5.9561 C   0  0  0  0  0  0  0  0  0  0  0  0
   -0.1593    0.1790   -4.0292 N   0  0  0  0  0  0  0  0  0  0  0  0
   -0.6923    0.1839   -2.7831 N   0  0  0  0  0  0  0  0  0  0  0  0
   -1.2558    1.3560   -2.5849 C   0  0  0  0  0  0  0  0  0  0  0  0
  1  2  1  0
  2  3  1  0
  3  4  1  0
  4  5  2  0
  4  6  1  0
  7  8  1  0
  7 30  1  0
  7  6  1  1
  8  9  2  0
  9 10  1  0
  9 17  1  0
 10 11  2  0
 10 16  1  0
 11 12  1  0
 12 13  2  0
 13 14  1  0
 13 15  1  0
 15 16  2  0
 17 18  2  0
 17 24  1  0
 18 19  1  0
 19 20  1  0
 19 22  2  0
 20 21  1  0
 22 23  1  0
 23 24  2  0
 24 25  1  0
 25 26  1  0
 25 30  1  0
 26 27  1  0
 26 28  2  0
 28 29  1  0
 29 30  2  0
M  END
>  <DRUGBANK_ID>  (1) 
DB16239

>  <COMMON_NAME>  (1) 
Molibresib

>  <CAS_NUMBER>  (1) 
1260907-17-2

>  <UNII>  (1) 
5QIO6SRZ2R

>  <SYNONYMS>  (1) 
Bet inhibitor gsk525762; Molibresib

$$$$
