
     RDKit          3D

 16 15  0  0  0  0  0  0  0  0999 V2000
   -1.0062    1.8011    0.9727 C   0  0  0  0  0  0  0  0  0  0  0  0
    1.6739   -2.8593    0.6178 C   0  0  0  0  0  0  0  0  0  0  0  0
   -0.0651    0.6999    1.4172 C   0  0  2  0  0  0  0  0  0  0  0  0
    2.2754   -1.7124    1.4829 C   0  0  2  0  0  0  0  0  0  0  0  0
    0.8333    0.1483    0.3201 C   0  0  2  0  0  0  0  0  0  0  0  0
    2.1860   -0.2345    0.9812 C   0  0  2  0  0  0  0  0  0  0  0  0
   -0.9442    2.3954   -0.1105 O   0  0  0  0  0  0  0  0  0  0  0  0
   -0.7778   -0.3991    1.9824 O   0  0  0  0  0  0  0  0  0  0  0  0
    3.6703   -2.0091    1.6957 O   0  0  0  0  0  0  0  0  0  0  0  0
    1.0459    1.0408   -0.7578 O   0  0  0  0  0  0  0  0  0  0  0  0
    3.2838    0.0439    0.1204 O   0  0  0  0  0  0  0  0  0  0  0  0
    3.9820   -1.6786   -1.2656 O   0  0  0  0  0  0  0  0  0  0  0  0
    2.5025   -2.7157   -2.8789 O   0  0  0  0  0  0  0  0  0  0  0  0
    2.3604   -0.4173   -2.4933 O   0  0  0  0  0  0  0  0  0  0  0  0
    2.3576   -3.1118   -0.6259 O   0  0  0  0  0  0  0  0  0  0  0  0
    2.3591   -1.6899   -1.6114 P   0  0  0  0  0  0  0  0  0  0  0  0
  3  8  1  6
  3  5  1  0
  3  1  1  0
  4  2  1  0
  4  9  1  6
  5 10  1  6
  5  6  1  0
  6  4  1  0
  6 11  1  6
  7  1  2  0
 15  2  1  0
 16 12  1  0
 16 13  1  0
 16 14  2  0
 16 15  1  0
M  END
>  <DRUGBANK_ID>  (1) 
DB11848

>  <COMMON_NAME>  (1) 
Mannose 6-phosphate

>  <CAS_NUMBER>  (1) 
3672-15-9

>  <UNII>  (1) 
U2S53JF879

>  <SYNONYMS>  (1) 
Juvidex

$$$$
