
     RDKit          3D

 24 26  0  0  0  0  0  0  0  0999 V2000
    1.0797    0.2919   -0.1714 C   0  0  0  0  0  0  0  0  0  0  0  0
    0.5593    0.8419    1.0781 N   0  0  0  0  0  0  0  0  0  0  0  0
   -0.9017    0.8499    1.0562 C   0  0  0  0  0  0  0  0  0  0  0  0
    1.0656    0.1925    2.2989 C   0  0  0  0  0  0  0  0  0  0  0  0
    0.6202   -1.2475    2.5477 C   0  0  0  0  0  0  0  0  0  0  0  0
    1.0845   -2.2516    1.5267 C   0  0  0  0  0  0  0  0  0  0  0  0
    2.5230   -2.2978    1.3715 N   0  0  0  0  0  0  0  0  0  0  0  0
    3.3102   -3.4297    1.3852 C   0  0  0  0  0  0  0  0  0  0  0  0
    4.5200   -3.3297    1.3128 O   0  0  0  0  0  0  0  0  0  0  0  0
    2.6025   -4.7396    1.4350 C   0  0  0  0  0  0  0  0  0  0  0  0
    1.5513   -4.9533    0.5168 C   0  0  0  0  0  0  0  0  0  0  0  0
    0.7497   -6.0696    0.6137 C   0  0  0  0  0  0  0  0  0  0  0  0
    1.0621   -7.0191    1.5644 C   0  0  0  0  0  0  0  0  0  0  0  0
    2.1538   -6.8625    2.4475 C   0  0  0  0  0  0  0  0  0  0  0  0
    2.4880   -7.8705    3.3731 C   0  0  0  0  0  0  0  0  0  0  0  0
    1.7054   -9.0304    3.4852 N   0  0  0  0  0  0  0  0  0  0  0  0
    3.5735   -7.6527    4.2463 C   0  0  0  0  0  0  0  0  0  0  0  0
    4.2787   -6.4368    4.1585 C   0  0  0  0  0  0  0  0  0  0  0  0
    5.3607   -6.2294    5.0085 C   0  0  0  0  0  0  0  0  0  0  0  0
    5.7567   -7.1928    5.9402 C   0  0  0  0  0  0  0  0  0  0  0  0
    5.0618   -8.3871    6.0313 C   0  0  0  0  0  0  0  0  0  0  0  0
    3.9811   -8.6118    5.1925 C   0  0  0  0  0  0  0  0  0  0  0  0
    3.9484   -5.4812    3.2815 N   0  0  0  0  0  0  0  0  0  0  0  0
    2.9376   -5.6832    2.4094 C   0  0  0  0  0  0  0  0  0  0  0  0
  1  2  1  0
  2  3  1  0
  2  4  1  0
  4  5  1  0
  5  6  1  0
  6  7  1  0
  7  8  1  0
  8  9  2  0
  8 10  1  0
 10 11  2  0
 10 24  1  0
 11 12  1  0
 12 13  2  0
 13 14  1  0
 14 15  1  0
 14 24  2  0
 15 16  1  0
 15 17  2  0
 17 18  1  0
 17 22  1  0
 18 19  1  0
 18 23  2  0
 19 20  2  0
 20 21  1  0
 21 22  2  0
 23 24  1  0
M  END
>  <DRUGBANK_ID>  (1) 
DB02842

>  <SECONDARY_ACCESSION_NUMBERS>  (1) 
EXPT00308

>  <COMMON_NAME>  (1) 
9-amino-n-[3-(dimethylamino)propyl]acridine-4-carboxamide

>  <UNII>  (1) 
0LY4HYL6F8

>  <SYNONYMS>  (1) 
9-amino-N-(3-dimethylaminopropyl)acridine-4-carboxamide

$$$$
