
     RDKit          3D

 21 23  0  0  0  0  0  0  0  0999 V2000
    1.2654   -0.1801    0.0133 C   0  0  0  0  0  0  0  0  0  0  0  0
    0.3317   -1.2085    0.0249 C   0  0  0  0  0  0  0  0  0  0  0  0
   -1.0664   -0.9154    0.0514 C   0  0  0  0  0  0  0  0  0  0  0  0
   -1.5730    0.4231    0.1113 C   0  0  0  0  0  0  0  0  0  0  0  0
   -0.5869    1.4223    0.0939 C   0  0  0  0  0  0  0  0  0  0  0  0
    0.7983    1.1304    0.0170 C   0  0  0  0  0  0  0  0  0  0  0  0
   -3.1151    0.8310    0.0450 C   0  0  0  0  0  0  0  0  0  0  0  0
   -3.7649    1.4466    1.2700 N   0  0  0  0  0  0  0  0  0  0  0  0
   -4.3667    2.7002    1.6850 C   0  0  0  0  0  0  0  0  0  0  0  0
   -5.1671    3.8673    1.3038 C   0  0  0  0  0  0  0  0  0  0  0  0
   -5.2069    5.0511    2.1578 C   0  0  0  0  0  0  0  0  0  0  0  0
   -4.4371    5.1312    3.2902 C   0  0  0  0  0  0  0  0  0  0  0  0
   -3.8205    3.9721    3.6688 C   0  0  0  0  0  0  0  0  0  0  0  0
   -3.9462    2.7376    3.0232 C   0  0  0  0  0  0  0  0  0  0  0  0
   -3.7083    1.4141    3.3973 C   0  0  0  0  0  0  0  0  0  0  0  0
   -3.6609    0.6061    2.3507 N   0  0  0  0  0  0  0  0  0  0  0  0
   -3.4662    0.8539    4.6048 O   0  0  0  0  0  0  0  0  0  0  0  0
   -4.0505    1.5224    5.7206 C   0  0  0  0  0  0  0  0  0  0  0  0
   -3.3693    2.7715    6.2544 C   0  0  0  0  0  0  0  0  0  0  0  0
   -3.9465    3.7870    6.6838 O   0  0  0  0  0  0  0  0  0  0  0  0
   -2.0318    2.7732    6.1013 O   0  0  0  0  0  0  0  0  0  0  0  0
  1  2  2  0
  1  6  1  0
  2  3  1  0
  3  4  2  0
  4  5  1  0
  4  7  1  0
  5  6  2  0
  7  8  1  0
  8  9  1  0
  8 16  1  0
  9 10  2  0
  9 14  1  0
 10 11  1  0
 11 12  2  0
 12 13  1  0
 13 14  2  0
 14 15  1  0
 15 16  2  0
 15 17  1  0
 17 18  1  0
 18 19  1  0
 19 20  2  0
 19 21  1  0
M  END
>  <DRUGBANK_ID>  (1) 
DB13501

>  <COMMON_NAME>  (1) 
Bendazac

>  <CAS_NUMBER>  (1) 
20187-55-7

>  <UNII>  (1) 
G4AG71204O

>  <SYNONYMS>  (1) 
Bendazac; bendazaco

$$$$
