1ZN
     RDKit          3D

 24 24  0  0  0  0  0  0  0  0999 V2000
    2.4021    8.8757   -9.6801 C   0  0  0  0  0  0  0  0  0  0  0  0
    3.5709    8.0813   -9.7198 O   0  0  0  0  0  0  0  0  0  0  0  0
    3.4524    6.7431   -9.1688 C   0  0  1  0  0  0  0  0  0  0  0  0
    3.0604    6.6574   -7.6486 C   0  0  0  0  0  0  0  0  0  0  0  0
    1.6318    6.9885   -7.2088 C   0  0  0  0  0  0  0  0  0  0  0  0
    1.2667    6.9390   -5.8728 C   0  0  0  0  0  0  0  0  0  0  0  0
    0.0770    7.5608   -5.4584 C   0  0  0  0  0  0  0  0  0  0  0  0
   -0.6819    8.3351   -6.3409 C   0  0  0  0  0  0  0  0  0  0  0  0
   -0.3502    8.3406   -7.6658 C   0  0  0  0  0  0  0  0  0  0  0  0
    0.6498    7.4837   -8.0683 C   0  0  0  0  0  0  0  0  0  0  0  0
    2.6026    5.7723  -10.0177 C   0  0  1  0  0  0  0  0  0  0  0  0
    2.8752    5.8167  -11.5046 C   0  0  0  0  0  0  0  0  0  0  0  0
    2.6693    4.3797   -9.4674 C   0  0  0  0  0  0  0  0  0  0  0  0
    1.6531    3.7584   -8.8438 C   0  0  0  0  0  0  0  0  0  0  0  0
    0.2501    4.2896   -8.6454 C   0  0  0  0  0  0  0  0  0  0  0  0
    1.7610    2.4109   -8.3638 C   0  0  0  0  0  0  0  0  0  0  0  0
    2.7647    1.5304   -8.4996 C   0  0  0  0  0  0  0  0  0  0  0  0
    2.3628    0.0906   -8.3749 C   0  0  2  0  0  0  0  0  0  0  0  0
    1.7740   -0.0994   -7.0408 N   0  0  0  0  0  0  0  0  0  0  0  0
    3.3689   -1.0220   -8.6882 C   0  0  2  0  0  0  0  0  0  0  0  0
    4.5478   -1.0405   -7.7233 C   0  0  0  0  0  0  0  0  0  0  0  0
    3.8381   -0.9456  -10.1265 C   0  0  0  0  0  0  0  0  0  0  0  0
    3.4405   -1.9633  -10.9166 O   0  0  0  0  0  0  0  0  0  0  0  0
    4.5463   -0.0356  -10.5768 O   0  0  0  0  0  0  0  0  0  0  0  0
  1  2  1  0
  3  2  1  0
  3  4  1  1
  3 11  1  0
  4  5  1  0
  5  6  2  0
  5 10  1  0
  6  7  1  0
  7  8  2  0
  8  9  1  0
  9 10  2  0
 11 12  1  6
 11 13  1  0
 13 14  2  0
 14 15  1  0
 14 16  1  0
 16 17  2  0
 18 19  1  1
 18 17  1  0
 20 22  1  0
 20 21  1  1
 20 18  1  0
 22 23  1  0
 22 24  2  0
M  END
>  <DRUGBANK_ID>  (1) 
DB06905

>  <COMMON_NAME>  (1) 
(2S,3S,4E,6E,8S,9S)-3-amino-9-methoxy-2,6,8-trimethyl-10-phenyldeca-4,6-dienoic acid

>  <UNII>  (1) 
VKL2NS279Z

$$$$
