5AP
     RDKit          3D

 27 29  0  0  0  0  0  0  0  0999 V2000
   -2.5328    0.9161    0.7866 Cl  0  0  0  0  0  0  0  0  0  0  0  0
   -1.1543   -0.0205    0.2816 C   0  0  0  0  0  0  0  0  0  0  0  0
    0.0540    0.6652    0.1405 C   0  0  0  0  0  0  0  0  0  0  0  0
    1.2351   -0.0543    0.0120 C   0  0  0  0  0  0  0  0  0  0  0  0
    2.7353    0.7841   -0.0543 Cl  0  0  0  0  0  0  0  0  0  0  0  0
    1.2153   -1.4463   -0.0071 C   0  0  0  0  0  0  0  0  0  0  0  0
   -0.0088   -2.1228    0.0069 C   0  0  0  0  0  0  0  0  0  0  0  0
   -1.2229   -1.4169    0.0992 C   0  0  0  0  0  0  0  0  0  0  0  0
   -2.5019   -2.1432   -0.0207 C   0  0  0  0  0  0  0  0  0  0  0  0
   -3.3779   -1.9794   -1.1029 C   0  0  0  0  0  0  0  0  0  0  0  0
   -3.0305   -1.1942   -2.3440 C   0  0  0  0  0  0  0  0  0  0  0  0
   -2.7986    0.2198   -2.1137 N   0  0  0  0  0  0  0  0  0  0  0  0
   -4.5765   -2.6778   -0.9951 C   0  0  0  0  0  0  0  0  0  0  0  0
   -5.5477   -2.6549   -1.9907 N   0  0  0  0  0  0  0  0  0  0  0  0
   -2.7282   -3.0093    0.9938 N   0  0  0  0  0  0  0  0  0  0  0  0
   -3.8786   -3.6979    0.9399 C   0  0  0  0  0  0  0  0  0  0  0  0
   -4.8284   -3.5297    0.0060 N   0  0  0  0  0  0  0  0  0  0  0  0
   -4.1828   -4.6377    2.0234 C   0  0  0  0  0  0  0  0  0  0  0  0
   -4.1507   -4.2091    3.3593 C   0  0  0  0  0  0  0  0  0  0  0  0
   -4.6202   -5.0255    4.3887 C   0  0  0  0  0  0  0  0  0  0  0  0
   -4.7056   -4.6719    5.7091 O   0  0  0  0  0  0  0  0  0  0  0  0
   -4.3337   -3.3342    6.0191 C   0  0  0  0  0  0  0  0  0  0  0  0
   -5.1049   -6.3007    4.0932 C   0  0  0  0  0  0  0  0  0  0  0  0
   -5.1419   -6.7558    2.7762 C   0  0  0  0  0  0  0  0  0  0  0  0
   -4.6350   -5.9439    1.7563 C   0  0  0  0  0  0  0  0  0  0  0  0
   -5.6924   -7.9435    2.3692 O   0  0  0  0  0  0  0  0  0  0  0  0
   -6.4690   -8.6354    3.3453 C   0  0  0  0  0  0  0  0  0  0  0  0
  1  2  1  0
  2  3  2  0
  2  8  1  0
  3  4  1  0
  4  5  1  0
  4  6  2  0
  6  7  1  0
  7  8  2  0
  8  9  1  0
  9 10  2  0
  9 15  1  0
 10 11  1  0
 10 13  1  0
 11 12  1  0
 13 14  1  0
 13 17  2  0
 15 16  2  0
 16 17  1  0
 16 18  1  0
 18 19  2  0
 18 25  1  0
 19 20  1  0
 20 21  1  0
 20 23  2  0
 21 22  1  0
 23 24  1  0
 24 25  2  0
 24 26  1  0
 26 27  1  0
M  END
>  <DRUGBANK_ID>  (1) 
DB02004

>  <SECONDARY_ACCESSION_NUMBERS>  (1) 
EXPT00239

>  <COMMON_NAME>  (1) 
5-(Aminomethyl)-6-(2,4-Dichlorophenyl)-2-(3,5-Dimethoxyphenyl)Pyrimidin-4-Amine

$$$$
