ABZ
     RDKit          3D

 27 30  0  0  0  0  0  0  0  0999 V2000
   -0.3830   -1.0123    0.0553 C   0  0  0  0  0  0  0  0  0  0  0  0
   -0.8202   -2.4668    0.0334 C   0  0  0  0  0  0  0  0  0  0  0  0
    0.9987   -0.6570    0.0765 C   0  0  0  0  0  0  0  0  0  0  0  0
    2.7562    0.7211   -0.0317 N   0  0  0  0  0  0  0  0  0  0  0  0
    1.3781    0.6834    0.0242 C   0  0  0  0  0  0  0  0  0  0  0  0
    0.4543    1.7290    0.0227 C   0  0  0  0  0  0  0  0  0  0  0  0
   -0.8987    1.3878    0.0288 C   0  0  0  0  0  0  0  0  0  0  0  0
   -1.3124    0.0527    0.0268 C   0  0  0  0  0  0  0  0  0  0  0  0
    2.2145   -1.4059    0.1263 C   0  0  0  0  0  0  0  0  0  0  0  0
   -0.3647   -3.2020   -1.2116 C   0  0  0  0  0  0  0  0  0  0  0  0
    0.9473   -3.3595   -1.4136 N   0  0  0  0  0  0  0  0  0  0  0  0
    1.3148   -3.7802   -2.6099 C   0  0  0  0  0  0  0  0  0  0  0  0
    2.6772   -3.7970   -2.9207 N   0  0  0  0  0  0  0  0  0  0  0  0
    0.4458   -4.1801   -3.5244 N   0  0  0  0  0  0  0  0  0  0  0  0
   -0.8277   -4.0802   -3.2069 C   0  0  0  0  0  0  0  0  0  0  0  0
   -1.7210   -4.5121   -4.1389 N   0  0  0  0  0  0  0  0  0  0  0  0
   -1.2970   -3.5785   -2.0798 N   0  0  0  0  0  0  0  0  0  0  0  0
    3.1964   -4.3234   -4.1069 C   0  0  0  0  0  0  0  0  0  0  0  0
    2.8333   -3.7485   -5.3335 C   0  0  0  0  0  0  0  0  0  0  0  0
    3.2121   -4.3287   -6.5421 C   0  0  0  0  0  0  0  0  0  0  0  0
    3.9733   -5.4969   -6.5393 C   0  0  0  0  0  0  0  0  0  0  0  0
    4.3197   -6.0965   -5.3231 C   0  0  0  0  0  0  0  0  0  0  0  0
    3.9403   -5.5061   -4.1107 C   0  0  0  0  0  0  0  0  0  0  0  0
    4.4295   -6.0500   -7.7830 C   0  0  0  0  0  0  0  0  0  0  0  0
    4.8232   -6.4652   -8.7882 N   0  0  0  0  0  0  0  0  0  0  0  0
    3.2695   -0.5436   -0.0199 C   0  0  0  0  0  0  0  0  0  0  0  0
   -3.0237   -0.2198   -0.0187 Cl  0  0  0  0  0  0  0  0  0  0  0  0
  1  2  1  0
  1  3  1  0
  1  8  2  0
  2 10  1  0
  3  5  2  0
  3  9  1  0
  4  5  1  0
  4 26  1  0
  5  6  1  0
  6  7  2  0
  7  8  1  0
  8 27  1  0
  9 26  2  0
 10 11  2  0
 10 17  1  0
 11 12  1  0
 12 13  1  0
 12 14  2  0
 13 18  1  0
 14 15  1  0
 15 16  1  0
 15 17  2  0
 18 19  2  0
 18 23  1  0
 19 20  1  0
 20 21  2  0
 21 22  1  0
 21 24  1  0
 22 23  2  0
 24 25  3  0
M  END
>  <DRUGBANK_ID>  (1) 
DB07337

>  <COMMON_NAME>  (1) 
4-[4-AMINO-6-(5-CHLORO-1H-INDOL-4-YLMETHYL)-[1,3,5]TRIAZIN-2-YLAMINO]-BENZONITRILE

$$$$
