679
     RDKit          3D

 25 28  0  0  1  0  0  0  0  0999 V2000
    0.1678    1.6747   -0.3671 S   0  0  0  0  0  0  0  0  0  0  0  0
    4.9635   -2.3138   -0.8560 S   0  0  0  0  0  0  0  0  0  0  0  0
   -2.8849   -2.4204    2.6087 N   0  0  0  0  0  0  0  0  0  0  0  0
    0.1680   -1.3691    0.2805 N   0  0  0  0  0  0  0  0  0  0  0  0
   -2.1441   -1.3789    3.3618 C   0  0  0  0  0  0  0  0  0  0  0  0
   -2.5277    0.1024    3.0230 C   0  0  0  0  0  0  0  0  0  0  0  0
   -0.5918   -1.5625    3.1831 C   0  0  0  0  0  0  0  0  0  0  0  0
   -2.0136    0.2835    1.6804 C   0  0  0  0  0  0  0  0  0  0  0  0
   -2.6132   -2.2892    1.2187 C   0  0  0  0  0  0  0  0  0  0  0  0
   -2.8132   -0.7980    0.9855 C   0  0  0  0  0  0  0  0  0  0  0  0
    0.1438   -2.1017    1.8077 C   0  0  0  0  0  0  0  0  0  0  0  0
   -2.6448   -3.7914    3.0102 C   0  0  0  0  0  0  0  0  0  0  0  0
    1.4460   -0.7435    0.1993 C   0  0  0  0  0  0  0  0  0  0  0  0
   -0.7497   -1.0101   -0.8442 C   0  0  0  0  0  0  0  0  0  0  0  0
    1.5689    0.6279   -0.0910 C   0  0  0  0  0  0  0  0  0  0  0  0
   -0.9385    0.4281   -1.1074 C   0  0  0  0  0  0  0  0  0  0  0  0
    2.5569   -1.5810    0.0821 C   0  0  0  0  0  0  0  0  0  0  0  0
   -1.7979   -1.8382   -1.4317 C   0  0  0  0  0  0  0  0  0  0  0  0
    2.7814    1.1451   -0.4728 C   0  0  0  0  0  0  0  0  0  0  0  0
   -2.2297    0.9804   -1.4917 C   0  0  0  0  0  0  0  0  0  0  0  0
    3.7346   -1.0935   -0.4452 C   0  0  0  0  0  0  0  0  0  0  0  0
   -3.1247   -1.2542   -1.7724 C   0  0  0  0  0  0  0  0  0  0  0  0
    3.8393    0.2805   -0.7249 C   0  0  0  0  0  0  0  0  0  0  0  0
   -3.3452    0.1502   -1.7367 C   0  0  0  0  0  0  0  0  0  0  0  0
    6.2597   -1.2834   -1.5558 C   0  0  0  0  0  0  0  0  0  0  0  0
  1 15  1  0
  1 16  1  0
  2 21  1  0
  2 25  1  0
  3  5  1  0
  3  9  1  0
  3 12  1  0
  4 11  1  0
  4 13  1  0
  4 14  1  0
  5  6  1  0
  5  7  1  0
  6  8  1  0
  7 11  1  0
  8 10  1  0
  9 10  1  0
 13 15  2  0
 13 17  1  0
 14 16  2  0
 14 18  1  0
 15 19  1  0
 16 20  1  0
 17 21  2  0
 18 22  2  0
 19 23  2  0
 20 24  2  0
 21 23  1  0
 22 24  1  0
M  END
>  <DRUGBANK_ID>  (1) 
DB00679

>  <SECONDARY_ACCESSION_NUMBERS>  (1) 
APRD00596

>  <COMMON_NAME>  (1) 
Thioridazine

>  <CAS_NUMBER>  (1) 
50-52-2

>  <UNII>  (1) 
N3D6TG58NI

>  <SYNONYMS>  (1) 
10-[2-(1-methyl-2-piperidyl)ethyl]-2-methylsulfanyl-phenothiazine; 2-Methylmercapto-10-(2-(N-methyl-2-piperidyl)ethyl)phenothiazine; 3-Methylmercapto-N-(2'-(N-methyl-2-piperidyl)ethyl)phenothiazine; Thioridazin; Thioridazine; Thioridazinum; Tioridazina

$$$$
