
     RDKit          3D

 39 39  0  0  0  0  0  0  0  0999 V2000
    4.6709  -13.9266    1.8644 N   0  0  0  0  0  0  0  0  0  0  0  0
    4.7625  -13.1141    3.0709 C   0  0  0  0  0  0  0  0  0  0  0  0
    4.6772  -14.1030    4.1949 C   0  0  0  0  0  0  0  0  0  0  0  0
    3.8507  -15.2737    3.6499 C   0  0  0  0  0  0  0  0  0  0  0  0
    3.9566  -15.1907    2.1283 C   0  0  1  0  0  0  0  0  0  0  0  0
    2.5406  -15.2654    1.4469 C   0  0  0  0  0  0  0  0  0  0  0  0
    2.1902  -16.2756    0.8265 O   0  0  0  0  0  0  0  0  0  0  0  0
    1.5874  -14.2792    1.6083 N   0  0  0  0  0  0  0  0  0  0  0  0
    1.7133  -13.0157    2.3043 C   0  0  2  0  0  0  0  0  0  0  0  0
    1.4405  -12.9912    3.8667 C   0  0  0  0  0  0  0  0  0  0  0  0
    1.0224  -11.8411    1.6513 C   0  0  0  0  0  0  0  0  0  0  0  0
    0.5168  -12.1238    4.3561 N   0  0  0  0  0  0  0  0  0  0  0  0
    1.9600  -13.6613    4.7275 O   0  0  0  0  0  0  0  0  0  0  0  0
    5.3151  -13.7432    0.6558 C   0  0  0  0  0  0  0  0  0  0  0  0
    5.2988  -14.6227   -0.2124 O   0  0  0  0  0  0  0  0  0  0  0  0
    6.0933  -12.4256    0.3826 C   0  0  1  0  0  0  0  0  0  0  0  0
    5.1593  -11.2775    0.4185 N   0  0  0  0  0  0  0  0  0  0  0  0
    5.2228  -10.3124    1.3881 C   0  0  0  0  0  0  0  0  0  0  0  0
    7.3690  -12.2788    1.2534 C   0  0  0  0  0  0  0  0  0  0  0  0
    8.2760  -13.4936    1.2370 C   0  0  0  0  0  0  0  0  0  0  0  0
    8.1807  -11.0123    0.9359 C   0  0  0  0  0  0  0  0  0  0  0  0
    4.2817   -9.1378    1.3425 C   0  0  1  0  0  0  0  0  0  0  0  0
    6.0469  -10.3362    2.2958 O   0  0  0  0  0  0  0  0  0  0  0  0
    3.6361   -9.0436    2.7568 C   0  0  1  0  0  0  0  0  0  0  0  0
    4.6264   -8.8154    3.9269 C   0  0  0  0  0  0  0  0  0  0  0  0
    4.9851   -7.8948    1.0067 N   0  0  0  0  0  0  0  0  0  0  0  0
    4.5592   -7.1148   -0.0412 C   0  0  0  0  0  0  0  0  0  0  0  0
    2.5848   -7.9312    2.8018 C   0  0  0  0  0  0  0  0  0  0  0  0
    1.4967   -8.0953    1.7560 C   0  0  0  0  0  0  0  0  0  0  0  0
    5.2103   -5.7184   -0.1741 C   0  0  2  0  0  0  0  0  0  0  0  0
    3.7428   -7.5322   -0.8643 O   0  0  0  0  0  0  0  0  0  0  0  0
    4.1898   -4.7733   -0.8651 C   0  0  0  0  0  0  0  0  0  0  0  0
    6.4824   -5.8755   -0.9011 N   0  0  0  0  0  0  0  0  0  0  0  0
    4.6148   -4.2065   -2.2201 C   0  0  0  0  0  0  0  0  0  0  0  0
    4.8136   -5.2359   -3.3281 C   0  0  0  0  0  0  0  0  0  0  0  0
    3.5795   -5.9546   -3.5920 N   0  0  0  0  0  0  0  0  0  0  0  0
    3.2067   -6.1728   -4.8683 C   0  0  0  0  0  0  0  0  0  0  0  0
    2.1345   -6.9583   -5.0226 N   0  0  0  0  0  0  0  0  0  0  0  0
    3.8157   -5.6260   -5.8588 N   0  0  0  0  0  0  0  0  0  0  0  0
  1  2  1  0
  1  5  1  0
  1 14  1  0
  2  3  1  0
  3  4  1  0
  4  5  1  0
  5  6  1  6
  6  7  2  0
  6  8  1  0
  9 11  1  6
  9 10  1  0
  9  8  1  0
 10 12  1  0
 10 13  2  0
 14 15  2  0
 14 16  1  0
 16 17  1  1
 16 19  1  0
 17 18  1  0
 18 22  1  0
 18 23  2  0
 19 20  1  0
 19 21  1  0
 22 24  1  0
 22 26  1  1
 24 25  1  1
 24 28  1  0
 26 27  1  0
 27 31  2  0
 28 29  1  0
 30 33  1  6
 30 32  1  0
 30 27  1  0
 32 34  1  0
 34 35  1  0
 35 36  1  0
 36 37  1  0
 37 38  1  0
 37 39  2  0
M  END
>  <DRUGBANK_ID>  (1) 
DB11879

>  <COMMON_NAME>  (1) 
Dusquetide

>  <CAS_NUMBER>  (1) 
931395-42-5

>  <UNII>  (1) 
IKX7W49NLN

>  <SYNONYMS>  (1) 
ARG-ILE-VAL-PRO-ALA-NH2; Dusquetide; L-ALANINAMIDE, L-ARGINYL-L-ISOLEUCYL-L-VALYL-L-PROLYL-; L-ARGINYL-L-ISOLEUCYL-L-VALYL-L-PROLYL-L-ALANINAMIDE; L-arginyl-L-isoleucyl-L-valyl-L-prolyl-L-alanine-amide

$$$$
