
     RDKit          3D

 35 38  0  0  0  0  0  0  0  0999 V2000
    1.0589    0.0751    0.1271 C   0  0  0  0  0  0  0  0  0  0  0  0
    0.5876   -0.9179   -0.8386 N   0  0  0  0  0  0  0  0  0  0  0  0
    0.9471   -2.2757   -0.3761 C   0  0  0  0  0  0  0  0  0  0  0  0
    0.1774   -3.3626   -1.1355 C   0  0  0  0  0  0  0  0  0  0  0  0
    0.9521   -3.8863   -2.3421 C   0  0  0  0  0  0  0  0  0  0  0  0
    1.6501   -2.8027   -3.0316 N   0  0  0  0  0  0  0  0  0  0  0  0
    0.9160   -1.5675   -3.2847 C   0  0  0  0  0  0  0  0  0  0  0  0
    1.1815   -0.5735   -2.1522 C   0  0  0  0  0  0  0  0  0  0  0  0
    2.9489   -2.9608   -3.4591 C   0  0  0  0  0  0  0  0  0  0  0  0
    3.2680   -4.1127   -4.1339 C   0  0  0  0  0  0  0  0  0  0  0  0
    4.5493   -4.3602   -4.6135 C   0  0  0  0  0  0  0  0  0  0  0  0
    5.5509   -3.3939   -4.5861 C   0  0  0  0  0  0  0  0  0  0  0  0
    5.2706   -2.2346   -3.8677 C   0  0  0  0  0  0  0  0  0  0  0  0
    4.0071   -2.0680   -3.2580 C   0  0  0  0  0  0  0  0  0  0  0  0
    6.8805   -3.5433   -5.2929 C   0  0  0  0  0  0  0  0  0  0  0  0
    7.7785   -2.7487   -5.0729 O   0  0  0  0  0  0  0  0  0  0  0  0
    7.1334   -4.6000   -6.1666 N   0  0  0  0  0  0  0  0  0  0  0  0
    6.2362   -5.4458   -6.8589 C   0  0  0  0  0  0  0  0  0  0  0  0
    5.0556   -4.9770   -7.4899 C   0  0  0  0  0  0  0  0  0  0  0  0
    4.2086   -5.9334   -8.0445 C   0  0  0  0  0  0  0  0  0  0  0  0
    4.3394   -7.2918   -7.7966 C   0  0  0  0  0  0  0  0  0  0  0  0
    5.5153   -7.7577   -7.2522 C   0  0  0  0  0  0  0  0  0  0  0  0
    6.4671   -6.8443   -6.8002 C   0  0  0  0  0  0  0  0  0  0  0  0
    7.5426   -7.4121   -6.1690 O   0  0  0  0  0  0  0  0  0  0  0  0
    4.6625   -3.6061   -7.4462 N   0  0  0  0  0  0  0  0  0  0  0  0
    3.3942   -3.0168   -7.4609 C   0  0  0  0  0  0  0  0  0  0  0  0
    3.2764   -1.8183   -7.2358 O   0  0  0  0  0  0  0  0  0  0  0  0
    2.1559   -3.7961   -7.7327 C   0  0  0  0  0  0  0  0  0  0  0  0
    1.8090   -4.9248   -6.9835 C   0  0  0  0  0  0  0  0  0  0  0  0
    0.8363   -5.8220   -7.4110 C   0  0  0  0  0  0  0  0  0  0  0  0
    0.1058   -5.5416   -8.5530 C   0  0  0  0  0  0  0  0  0  0  0  0
    0.3507   -4.3417   -9.2377 C   0  0  0  0  0  0  0  0  0  0  0  0
    1.4041   -3.4917   -8.8622 C   0  0  0  0  0  0  0  0  0  0  0  0
   -0.8190   -6.3874   -9.1012 O   0  0  0  0  0  0  0  0  0  0  0  0
   -0.9470   -7.6672   -8.4783 C   0  0  0  0  0  0  0  0  0  0  0  0
  1  2  1  0
  2  3  1  0
  2  8  1  0
  3  4  1  0
  4  5  1  0
  5  6  1  0
  6  7  1  0
  6  9  1  0
  7  8  1  0
  9 10  2  0
  9 14  1  0
 10 11  1  0
 11 12  2  0
 12 13  1  0
 12 15  1  0
 13 14  2  0
 15 16  2  0
 15 17  1  0
 17 18  1  0
 18 19  1  0
 18 23  2  0
 19 20  2  0
 19 25  1  0
 20 21  1  0
 21 22  2  0
 22 23  1  0
 23 24  1  0
 25 26  1  0
 26 27  2  0
 26 28  1  0
 28 29  2  0
 28 33  1  0
 29 30  1  0
 30 31  2  0
 31 32  1  0
 31 34  1  0
 32 33  2  0
 34 35  1  0
M  END
>  <DRUGBANK_ID>  (1) 
DB12289

>  <COMMON_NAME>  (1) 
Darexaban

>  <CAS_NUMBER>  (1) 
365462-23-3

>  <UNII>  (1) 
KF322K101S

>  <SYNONYMS>  (1) 
Darexaban

$$$$
