ILC
     RDKit          3D

 26 28  0  0  0  0  0  0  0  0999 V2000
    1.4040   -0.2001    0.0140 C   0  0  0  0  0  0  0  0  0  0  0  0
    0.5542   -1.3087    0.0070 C   0  0  0  0  0  0  0  0  0  0  0  0
   -0.8309   -1.1167   -0.0128 C   0  0  0  0  0  0  0  0  0  0  0  0
   -1.3694    0.1750   -0.0251 C   0  0  0  0  0  0  0  0  0  0  0  0
   -2.8038    0.4145   -0.1758 C   0  0  0  0  0  0  0  0  0  0  0  0
   -0.4924    1.2737    0.0283 C   0  0  0  0  0  0  0  0  0  0  0  0
    0.8836    1.0893   -0.0010 C   0  0  0  0  0  0  0  0  0  0  0  0
   -3.7602   -0.0322    0.7440 C   0  0  0  0  0  0  0  0  0  0  0  0
   -5.1215    0.3056    0.5939 C   0  0  0  0  0  0  0  0  0  0  0  0
   -5.5381    1.1160   -0.4779 C   0  0  0  0  0  0  0  0  0  0  0  0
   -3.2338    1.2036   -1.2373 C   0  0  0  0  0  0  0  0  0  0  0  0
   -7.4682    2.1130   -1.7169 C   0  0  0  0  0  0  0  0  0  0  0  0
   -8.9167    2.2907   -1.7331 C   0  0  0  0  0  0  0  0  0  0  0  0
   -9.6310    2.2589   -2.9895 C   0  0  0  0  0  0  0  0  0  0  0  0
   -9.7471    2.6592   -0.6826 C   0  0  0  0  0  0  0  0  0  0  0  0
    0.9696   -2.6138   -0.0068 O   0  0  0  0  0  0  0  0  0  0  0  0
    2.3795   -2.8129   -0.0507 C   0  0  0  0  0  0  0  0  0  0  0  0
   -6.9205    1.3647   -0.6820 N   0  0  0  0  0  0  0  0  0  0  0  0
   -4.5446    1.6234   -1.3167 C   0  0  0  0  0  0  0  0  0  0  0  0
   -4.7460    2.6308   -2.1676 F   0  0  0  0  0  0  0  0  0  0  0  0
   -6.8691    2.5844   -2.6737 O   0  0  0  0  0  0  0  0  0  0  0  0
  -10.9643    2.5468   -2.8609 C   0  0  0  0  0  0  0  0  0  0  0  0
  -11.3672    2.8865   -1.2378 S   0  0  0  0  0  0  0  0  0  0  0  0
   -9.4524    2.9189    0.7115 C   0  0  0  0  0  0  0  0  0  0  0  0
  -10.2216    3.2242    1.6182 O   0  0  0  0  0  0  0  0  0  0  0  0
   -8.1444    2.7519    0.9918 O   0  0  0  0  0  0  0  0  0  0  0  0
  1  2  2  0
  1  7  1  0
  2  3  1  0
  2 16  1  0
  3  4  2  0
  4  5  1  0
  4  6  1  0
  5  8  2  0
  5 11  1  0
  6  7  2  0
  8  9  1  0
  9 10  2  0
 10 18  1  0
 10 19  1  0
 11 19  2  0
 12 13  1  0
 12 18  1  0
 12 21  2  0
 13 14  1  0
 13 15  2  0
 14 22  2  0
 15 23  1  0
 15 24  1  0
 16 17  1  0
 19 20  1  0
 22 23  1  0
 24 25  2  0
 24 26  1  0
M  END
>  <DRUGBANK_ID>  (1) 
DB07976

>  <COMMON_NAME>  (1) 
3-{[(3-FLUORO-3'-METHOXYBIPHENYL-4-YL)AMINO]CARBONYL}THIOPHENE-2-CARBOXYLIC ACID

$$$$
