
     RDKit          3D

 16 16  0  0  0  0  0  0  0  0999 V2000
    1.0776    0.4495   -0.4594 C   0  0  0  0  0  0  0  0  0  0  0  0
    0.5158    1.1393    0.6411 O   0  0  0  0  0  0  0  0  0  0  0  0
    1.0925    1.0410    2.2692 P   0  0  0  0  0  0  0  0  0  0  0  0
   -0.3353    2.3368    2.8298 S   0  0  0  0  0  0  0  0  0  0  0  0
    0.5220   -0.5004    2.5061 O   0  0  0  0  0  0  0  0  0  0  0  0
    0.1463   -1.3979    1.4995 C   0  0  0  0  0  0  0  0  0  0  0  0
    1.6692    0.9427    3.8973 O   0  0  0  0  0  0  0  0  0  0  0  0
    2.9937    0.6418    4.0949 C   0  0  0  0  0  0  0  0  0  0  0  0
    4.0308    1.2311    3.4073 C   0  0  0  0  0  0  0  0  0  0  0  0
    5.3586    0.8821    3.7208 C   0  0  0  0  0  0  0  0  0  0  0  0
    5.6861   -0.0697    4.7301 C   0  0  0  0  0  0  0  0  0  0  0  0
    7.4723   -0.3076    4.8911 S   0  0  0  0  0  0  0  0  0  0  0  0
    7.7854   -1.5283    6.1994 C   0  0  0  0  0  0  0  0  0  0  0  0
    4.6168   -0.6541    5.4241 C   0  0  0  0  0  0  0  0  0  0  0  0
    4.6873   -1.6834    6.5122 C   0  0  0  0  0  0  0  0  0  0  0  0
    3.2839   -0.2794    5.1020 C   0  0  0  0  0  0  0  0  0  0  0  0
  1  2  1  0
  2  3  1  0
  3  4  2  0
  3  5  1  0
  3  7  1  0
  5  6  1  0
  7  8  1  0
  8  9  2  0
  8 16  1  0
  9 10  1  0
 10 11  2  0
 11 12  1  0
 11 14  1  0
 12 13  1  0
 14 15  1  0
 14 16  2  0
M  END
>  <DRUGBANK_ID>  (1) 
DB11412

>  <COMMON_NAME>  (1) 
Fenthion

>  <CAS_NUMBER>  (1) 
55-38-9

>  <UNII>  (1) 
BL0L45OVKT

>  <SYNONYMS>  (1) 
4-methylmercapto-3-Methylphenyl dimethyl thiophosphate; Mercaptophos; MPP; O,O-Dimethyl O-[3-methyl-4-(methylsulfanyl)phenyl] thiophosphate; O,O-Dimethyl O-4-(methylmercapto)-3-methylphenyl phosphorothioate; O,O-Dimethyl O-4-methylthio-m-tolyl phosphorothioate; O,O-Dimethyl-O-4-(methylmercapto)-3-methylphenyl thiophosphate; Phosphorothioic acid, O,O-dimethyl O-(3-methyl-4-(methylthio)phenyl) ester

$$$$
