BP7
     RDKit          3D

 14 15  0  0  0  0  0  0  0  0999 V2000
   -1.9374   -0.6974   -0.0477 C   0  0  0  0  0  0  0  0  0  0  0  0
   -0.7170   -1.3989   -0.0296 C   0  0  0  0  0  0  0  0  0  0  0  0
    0.4891   -0.6966   -0.0097 C   0  0  0  0  0  0  0  0  0  0  0  0
    1.6982   -1.3387    0.0029 O   0  0  0  0  0  0  0  0  0  0  0  0
    0.4965    0.6949   -0.0000 C   0  0  0  0  0  0  0  0  0  0  0  0
    1.6745    1.3856    0.0077 O   0  0  0  0  0  0  0  0  0  0  0  0
   -0.6910    1.4069    0.0012 C   0  0  0  0  0  0  0  0  0  0  0  0
   -1.9013    0.7106   -0.0252 C   0  0  0  0  0  0  0  0  0  0  0  0
   -3.2350   -1.3945   -0.0500 C   0  0  0  0  0  0  0  0  0  0  0  0
   -3.5836   -2.2697    0.9896 C   0  0  0  0  0  0  0  0  0  0  0  0
   -4.8521   -2.8552    1.0438 C   0  0  0  0  0  0  0  0  0  0  0  0
   -5.7974   -2.5649    0.0623 C   0  0  0  0  0  0  0  0  0  0  0  0
   -5.4705   -1.7030   -0.9801 C   0  0  0  0  0  0  0  0  0  0  0  0
   -4.1913   -1.1425   -1.0500 C   0  0  0  0  0  0  0  0  0  0  0  0
  1  2  2  0
  1  8  1  0
  1  9  1  0
  2  3  1  0
  3  4  1  0
  3  5  2  0
  5  6  1  0
  5  7  1  0
  7  8  2  0
  9 10  2  0
  9 14  1  0
 10 11  1  0
 11 12  2  0
 12 13  1  0
 13 14  2  0
M  END
>  <DRUGBANK_ID>  (1) 
DB07478

>  <COMMON_NAME>  (1) 
3,4-Biphenyldiol

>  <CAS_NUMBER>  (1) 
92-05-7

>  <UNII>  (1) 
T7L7XJ8RU1

>  <SYNONYMS>  (1) 
4-Phenyl-1,2-benzenediol; 4-Phenylcatechol; 4-Phenylpyrocatechol; Biphenyl-3,4-diol

$$$$
