999
     RDKit          3D

 17 18  0  0  0  0  0  0  0  0999 V2000
    4.1187    0.1641    0.0391 Cl  0  0  0  0  0  0  0  0  0  0  0  0
   -2.1122   -0.5026    0.0213 S   0  0  0  0  0  0  0  0  0  0  0  0
    2.7356   -2.9840   -0.0378 S   0  0  0  0  0  0  0  0  0  0  0  0
   -2.5296   -0.6441    1.3938 O   0  0  0  0  0  0  0  0  0  0  0  0
   -2.5045   -1.4360   -1.0148 O   0  0  0  0  0  0  0  0  0  0  0  0
    2.5065   -3.6417    1.2272 O   0  0  0  0  0  0  0  0  0  0  0  0
    2.4401   -3.6252   -1.2982 O   0  0  0  0  0  0  0  0  0  0  0  0
   -2.5759    1.0193   -0.5130 N   0  0  0  0  0  0  0  0  0  0  0  0
   -0.5268    2.0401   -0.2567 N   0  0  0  0  0  0  0  0  0  0  0  0
    4.3693   -2.6395   -0.0672 N   0  0  0  0  0  0  0  0  0  0  0  0
   -0.3483   -0.3868    0.0116 C   0  0  0  0  0  0  0  0  0  0  0  0
    0.2208    0.8835   -0.0818 C   0  0  0  0  0  0  0  0  0  0  0  0
   -1.8915    2.0671    0.1928 C   0  0  0  0  0  0  0  0  0  0  0  0
    0.4355   -1.5518    0.0354 C   0  0  0  0  0  0  0  0  0  0  0  0
    1.8426   -1.4508   -0.0020 C   0  0  0  0  0  0  0  0  0  0  0  0
    1.6147    0.9597   -0.0875 C   0  0  0  0  0  0  0  0  0  0  0  0
    2.4300   -0.1846   -0.0272 C   0  0  0  0  0  0  0  0  0  0  0  0
  1 17  1  0
  2  4  2  0
  2  5  2  0
  2  8  1  0
  2 11  1  0
  3  6  2  0
  3  7  2  0
  3 10  1  0
  3 15  1  0
  8 13  1  0
  9 12  1  0
  9 13  1  0
 11 12  2  0
 11 14  1  0
 12 16  1  0
 14 15  2  0
 15 17  1  0
 16 17  2  0
M  END
>  <DRUGBANK_ID>  (1) 
DB00999

>  <SECONDARY_ACCESSION_NUMBERS>  (1) 
APRD00092

>  <COMMON_NAME>  (1) 
Hydrochlorothiazide

>  <CAS_NUMBER>  (1) 
58-93-5

>  <UNII>  (1) 
0J48LPH2TH

>  <SYNONYMS>  (1) 
HCTZ; Hidroclorotiazida; Hydrochlorothiazide; Hydrochlorothiazidum

$$$$
