134
     RDKit          3D

 28 31  0  0  0  0  0  0  0  0999 V2000
   -1.4946   -1.2629   -0.0010 C   0  0  0  0  0  0  0  0  0  0  0  0
   -1.7403    0.1167   -0.0001 C   0  0  0  0  0  0  0  0  0  0  0  0
   -2.9873    0.6119    0.0130 F   0  0  0  0  0  0  0  0  0  0  0  0
   -0.7037    1.0565   -0.0230 C   0  0  0  0  0  0  0  0  0  0  0  0
    0.6031    0.5686   -0.0716 C   0  0  0  0  0  0  0  0  0  0  0  0
    0.8927   -0.7927   -0.0521 C   0  0  0  0  0  0  0  0  0  0  0  0
   -0.1644   -1.7184   -0.0071 C   0  0  0  0  0  0  0  0  0  0  0  0
   -2.6155   -2.2549   -0.0080 C   0  0  0  0  0  0  0  0  0  0  0  0
   -2.3899   -3.5964   -0.0150 N   0  0  0  0  0  0  0  0  0  0  0  0
   -3.8431   -1.8402   -0.0111 N   0  0  0  0  0  0  0  0  0  0  0  0
    1.8033    1.2317   -0.1508 N   0  0  0  0  0  0  0  0  0  0  0  0
    2.3016   -0.9310   -0.0784 C   0  0  0  0  0  0  0  0  0  0  0  0
    2.8469    0.3272   -0.1947 C   0  0  0  0  0  0  0  0  0  0  0  0
    4.2470    0.7301   -0.1587 C   0  0  0  0  0  0  0  0  0  0  0  0
    5.1545    0.3074   -1.1223 C   0  0  0  0  0  0  0  0  0  0  0  0
    6.4906    0.7078   -1.0493 C   0  0  0  0  0  0  0  0  0  0  0  0
    6.9287    1.5207   -0.0004 C   0  0  0  0  0  0  0  0  0  0  0  0
    6.0342    1.9491    0.9838 C   0  0  0  0  0  0  0  0  0  0  0  0
    4.6948    1.5419    0.8828 C   0  0  0  0  0  0  0  0  0  0  0  0
    3.7396    1.9313    1.7831 O   0  0  0  0  0  0  0  0  0  0  0  0
    6.6107    2.7299    1.9519 O   0  0  0  0  0  0  0  0  0  0  0  0
    5.3559    1.9989    3.9670 C   0  0  1  0  0  0  0  0  0  0  0  0
    4.3056    2.4376    4.9875 C   0  0  0  0  0  0  0  0  0  0  0  0
    3.1974    3.2985    4.3742 C   0  0  0  0  0  0  0  0  0  0  0  0
    3.7402    4.5413    3.6718 C   0  0  0  0  0  0  0  0  0  0  0  0
    4.7871    4.2362    2.6141 C   0  0  0  0  0  0  0  0  0  0  0  0
    5.8228    3.1794    3.0653 C   0  0  2  0  0  0  0  0  0  0  0  0
    6.5326    1.2416    4.5917 C   0  0  0  0  0  0  0  0  0  0  0  0
  1  2  2  0
  1  7  1  0
  1  8  1  0
  2  3  1  0
  2  4  1  0
  4  5  2  0
  5  6  1  0
  5 11  1  0
  6  7  2  0
  6 12  1  0
  8  9  1  0
  8 10  2  0
 11 13  1  0
 12 13  2  0
 13 14  1  0
 14 15  2  0
 14 19  1  0
 15 16  1  0
 16 17  2  0
 17 18  1  0
 18 19  2  0
 18 21  1  0
 19 20  1  0
 22 23  1  0
 22 27  1  0
 22 28  1  1
 23 24  1  0
 24 25  1  0
 25 26  1  0
 26 27  1  0
 27 21  1  6
M  END
>  <DRUGBANK_ID>  (1) 
DB06856

>  <COMMON_NAME>  (1) 
6-FLUORO-2-[2-HYDROXY-3-(2-METHYL-CYCLOHEXYLOXY)-PHENYL]-1H-INDOLE-5-CARBOXAMIDINE

$$$$
