BJP
     RDKit          3D

 24 25  0  0  0  0  0  0  0  0999 V2000
    1.0603    0.0778    0.0174 C   0  0  0  0  0  0  0  0  0  0  0  0
    0.5537    1.4684    0.3639 C   0  0  1  0  0  0  0  0  0  0  0  0
    0.5523   -3.4444   -3.4953 C   0  0  0  0  0  0  0  0  0  0  0  0
    0.2500   -3.7980   -4.8369 O   0  0  0  0  0  0  0  0  0  0  0  0
    1.0102   -4.3193   -2.6953 O   0  0  0  0  0  0  0  0  0  0  0  0
    1.0870    2.5161   -0.7214 B   0  0  0  0  0  0  0  0  0  0  0  0
    0.1122    3.3080   -1.5417 O   0  0  0  0  0  0  0  0  0  0  0  0
    0.1442    0.6105   -2.2171 C   0  0  0  0  0  0  0  0  0  0  0  0
    0.5537   -0.3174   -1.3601 C   0  0  0  0  0  0  0  0  0  0  0  0
   -0.0924    0.3057   -3.5474 C   0  0  0  0  0  0  0  0  0  0  0  0
    0.6066   -1.6389   -1.7325 C   0  0  0  0  0  0  0  0  0  0  0  0
   -0.1458   -1.0824   -3.8167 C   0  0  0  0  0  0  0  0  0  0  0  0
    0.3282   -2.0194   -3.0160 C   0  0  0  0  0  0  0  0  0  0  0  0
    2.5617    2.7065   -0.9186 O   0  0  0  0  0  0  0  0  0  0  0  0
   -3.6780    0.8242    2.6186 C   0  0  0  0  0  0  0  0  0  0  0  0
   -3.5564   -0.4668    2.3326 C   0  0  0  0  0  0  0  0  0  0  0  0
   -3.6798   -1.4162    3.3182 C   0  0  0  0  0  0  0  0  0  0  0  0
   -4.0200   -1.0643    4.5948 C   0  0  0  0  0  0  0  0  0  0  0  0
   -4.0590    0.2295    4.8569 C   0  0  0  0  0  0  0  0  0  0  0  0
   -4.0829    1.2469    3.8739 C   0  0  0  0  0  0  0  0  0  0  0  0
   -3.1713    1.8195    1.5876 C   0  0  0  0  0  0  0  0  0  0  0  0
   -1.6513    1.8195    1.5876 C   0  0  0  0  0  0  0  0  0  0  0  0
   -1.0159    2.1230    2.6455 O   0  0  0  0  0  0  0  0  0  0  0  0
   -0.9163    1.4684    0.3639 N   0  0  0  0  0  0  0  0  0  0  0  0
  2  1  1  6
  1  9  1  0
  2  6  1  0
  2 24  1  0
  3  4  1  0
  3  5  2  0
  3 13  1  0
  6  7  1  0
  6 14  1  0
  8  9  2  0
  8 10  1  0
  9 11  1  0
 10 12  2  0
 11 13  2  0
 12 13  1  0
 15 16  2  0
 15 20  1  0
 15 21  1  0
 16 17  1  0
 17 18  2  0
 18 19  1  0
 19 20  2  0
 21 22  1  0
 22 23  2  0
 22 24  1  0
M  END
>  <DRUGBANK_ID>  (1) 
DB07466

>  <COMMON_NAME>  (1) 
(1R)-2-PHENYLACETAMIDO-2-(3-CARBOXYPHENYL)ETHYL BORONIC ACID

$$$$
