322
     RDKit          3D

 24 25  0  0  0  0  0  0  0  0999 V2000
    1.0809   -0.1171   -0.0177 C   0  0  0  0  0  0  0  0  0  0  0  0
   -0.3481    3.2445   -0.9571 C   0  0  0  0  0  0  0  0  0  0  0  0
    0.3876    0.8594   -0.9625 C   0  0  0  0  0  0  0  0  0  0  0  0
    2.0893    4.9221   -3.4184 C   0  0  0  0  0  0  0  0  0  0  0  0
    3.0905    4.3545   -2.6091 C   0  0  0  0  0  0  0  0  0  0  0  0
    3.1113    4.7711   -1.1430 C   0  0  0  0  0  0  0  0  0  0  0  0
    1.8528    4.5055   -4.7284 C   0  0  0  0  0  0  0  0  0  0  0  0
   -0.1694    5.8225   -4.9638 C   0  0  0  0  0  0  0  0  0  0  0  0
   -1.0228    5.1657   -3.9064 C   0  0  0  0  0  0  0  0  0  0  0  0
    1.9435    4.2632   -0.2659 C   0  0  1  0  0  0  0  0  0  0  0  0
    5.4552    2.7380   -2.1980 Br  0  0  0  0  0  0  0  0  0  0  0  0
    5.0124    1.8789   -5.4479 Br  0  0  0  0  0  0  0  0  0  0  0  0
    0.6192    2.2929   -0.7261 N   0  0  0  0  0  0  0  0  0  0  0  0
    0.2604    4.8490   -0.5577 S   0  0  0  0  0  0  0  0  0  0  0  0
    0.8001    4.9192   -5.5043 O   0  0  0  0  0  0  0  0  0  0  0  0
    1.8653    2.7650   -0.3606 C   0  0  0  0  0  0  0  0  0  0  0  0
    3.9860    3.4390   -3.2025 C   0  0  0  0  0  0  0  0  0  0  0  0
    3.8141    3.0697   -4.5527 C   0  0  0  0  0  0  0  0  0  0  0  0
    2.7362    3.5845   -5.2937 C   0  0  0  0  0  0  0  0  0  0  0  0
    2.2784   -0.3841   -0.0519 O   0  0  0  0  0  0  0  0  0  0  0  0
   -1.9188    2.9794   -1.4756 S   0  0  0  0  0  0  0  0  0  0  0  0
    0.2742   -0.7095    0.8899 O   0  0  0  0  0  0  0  0  0  0  0  0
    2.8476    2.0899   -0.0901 O   0  0  0  0  0  0  0  0  0  0  0  0
    2.5312    3.2154   -6.6019 O   0  0  0  0  0  0  0  0  0  0  0  0
  1 22  1  0
  2 13  1  0
  3  1  1  0
  4  5  2  0
  5  6  1  0
  5 17  1  0
  7  4  1  0
  7 19  2  0
  8 15  1  0
  9  8  1  0
 10 16  1  0
 10  6  1  6
 13  3  1  0
 13 16  1  0
 14  2  1  0
 14 10  1  0
 15  7  1  0
 16 23  2  0
 17 11  1  0
 18 12  1  0
 18 17  2  0
 19 18  1  0
 20  1  2  0
 21  2  2  0
 24 19  1  0
M  END
>  <DRUGBANK_ID>  (1) 
DB06998

>  <COMMON_NAME>  (1) 
[(5R)-5-(2,3-dibromo-5-ethoxy-4-hydroxybenzyl)-4-oxo-2-thioxo-1,3-thiazolidin-3-yl]acetic acid

$$$$
