
     RDKit          3D

 19 20  0  0  0  0  0  0  0  0999 V2000
   -2.7554    3.1403    2.6397 P   0  0  0  0  0  0  0  0  0  0  0  0
   -0.2746    1.0696    1.6600 O   0  0  0  0  0  0  0  0  0  0  0  0
   -2.0545    0.8339   -1.4752 O   0  0  0  0  0  0  0  0  0  0  0  0
   -0.9031    3.2086   -1.0706 O   0  0  0  0  0  0  0  0  0  0  0  0
   -1.2398    3.1291    3.2511 O   0  0  0  0  0  0  0  0  0  0  0  0
    0.5572   -0.2529   -0.9707 O   0  0  0  0  0  0  0  0  0  0  0  0
   -2.0889   -3.0097    1.2801 O   0  0  0  0  0  0  0  0  0  0  0  0
   -3.6479    2.7122    3.9245 O   0  0  0  0  0  0  0  0  0  0  0  0
   -2.4933    1.4491    2.3862 O   0  0  0  0  0  0  0  0  0  0  0  0
   -2.9899    4.6538    2.8666 O   0  0  0  0  0  0  0  0  0  0  0  0
   -1.7743   -0.7430    1.5180 N   0  0  0  0  0  0  0  0  0  0  0  0
   -0.2496   -1.9025    0.4460 N   0  0  0  0  0  0  0  0  0  0  0  0
   -1.0664    0.2628    0.7625 C   0  0  1  0  0  0  0  0  0  0  0  0
   -1.9542    1.1787   -0.1055 C   0  0  1  0  0  0  0  0  0  0  0  0
   -1.3614    2.5755    0.1090 C   0  0  1  0  0  0  0  0  0  0  0  0
   -0.2167    2.4158    1.1311 C   0  0  1  0  0  0  0  0  0  0  0  0
   -0.1398   -0.6360   -0.0409 C   0  0  0  0  0  0  0  0  0  0  0  0
   -0.2579    3.4677    2.2681 C   0  0  0  0  0  0  0  0  0  0  0  0
   -1.4155   -1.9955    1.1194 C   0  0  0  0  0  0  0  0  0  0  0  0
  1  5  1  0
  1  8  1  0
  1  9  1  0
  1 10  2  0
  2 16  1  0
  5 18  1  0
  6 17  2  0
  7 19  2  0
 13 11  1  1
 11 19  1  0
 12 17  1  0
 12 19  1  0
 13  2  1  0
 13 14  1  0
 13 17  1  0
 14  3  1  6
 14 15  1  0
 15 16  1  0
 15  4  1  6
 16 18  1  1
M  END
>  <DRUGBANK_ID>  (1) 
DB02493

>  <SECONDARY_ACCESSION_NUMBERS>  (1) 
EXPT01683; DB02150

>  <COMMON_NAME>  (1) 
Hydantocidin-5'-phosphate

>  <SYNONYMS>  (1) 
[(5S,7R,8S,9R)-8,9-dihydroxy-2,4-dioxo-6-oxa-1,3-diazaspiro[4.4]non-7-yl]methyl dihydrogen phosphate; Phosphohydantocidin

$$$$
