
     RDKit          3D

 24 29  0  0  1  0  0  0  0  0999 V2000
    2.1697    1.5333    0.0567 C   0  0  0  0  0  0  0  0  0  0  0  0
    2.9290    0.3898   -0.0039 C   0  0  0  0  0  0  0  0  0  0  0  0
    2.3585   -0.9411    0.0105 C   0  0  0  0  0  0  0  0  0  0  0  0
    0.9405   -1.1188    0.0562 C   0  0  0  0  0  0  0  0  0  0  0  0
    0.2733    0.0425    0.0170 C   0  0  0  0  0  0  0  0  0  0  0  0
    0.7813    1.3579    0.0915 C   0  0  0  0  0  0  0  0  0  0  0  0
    0.0310   -2.3080    0.2003 N   0  0  0  0  0  0  0  0  0  0  0  0
   -1.3581   -1.8767   -0.4852 C   0  0  2  0  0  0  0  0  0  0  0  0
   -1.1440   -0.2707   -0.2575 C   0  0  1  0  0  0  0  0  0  0  0  0
   -3.2844   -2.0953   -0.5390 C   0  0  1  0  0  0  0  0  0  0  0  0
   -4.3008   -1.0923    0.0453 N   0  0  0  0  0  0  0  0  0  0  0  0
   -3.2643    0.3630    0.2853 C   0  0  1  0  0  0  0  0  0  0  0  0
   -1.9580    0.0720    0.9553 C   0  0  0  0  0  0  0  0  0  0  0  0
   -3.5670   -1.2765   -1.7859 C   0  0  0  0  0  0  0  0  0  0  0  0
   -4.0382    0.3711   -1.7310 C   0  0  1  0  0  0  0  0  0  0  0  0
   -5.3754    0.7235   -0.6978 C   0  0  1  0  0  0  0  0  0  0  0  0
   -5.7961   -0.6616   -0.8325 C   0  0  1  0  0  0  0  0  0  0  0  0
   -5.6653    0.7776    1.0967 C   0  0  0  0  0  0  0  0  0  0  0  0
   -2.9228    1.0462   -1.0550 C   0  0  2  0  0  0  0  0  0  0  0  0
   -6.1721   -0.8147   -2.2303 O   0  0  0  0  0  0  0  0  0  0  0  0
   -1.5700    0.5230   -1.5089 C   0  0  1  0  0  0  0  0  0  0  0  0
    0.8370   -3.4972   -0.0579 C   0  0  0  0  0  0  0  0  0  0  0  0
   -0.8153    1.5620   -2.0732 O   0  0  0  0  0  0  0  0  0  0  0  0
   -4.9688   -0.2280    2.2345 C   0  0  0  0  0  0  0  0  0  0  0  0
  1  2  2  0
  1  6  1  0
  2  3  1  0
  3  4  2  0
  4  5  1  0
  4  7  1  0
  5  6  2  0
  8  7  1  1
  7 22  1  0
  8  9  1  0
  8 10  1  0
  9  5  1  1
  9 13  1  0
  9 21  1  0
 10 11  1  0
 10 14  1  6
 11 12  1  0
 11 17  1  0
 12 13  1  6
 19 12  1  1
 15 14  1  1
 15 16  1  0
 15 19  1  0
 16 17  1  0
 16 18  1  1
 17 20  1  6
 18 24  1  0
 21 19  1  0
 21 23  1  1
M  END
>  <DRUGBANK_ID>  (1) 
DB01426

>  <COMMON_NAME>  (1) 
Ajmaline

>  <CAS_NUMBER>  (1) 
4360-12-7

>  <UNII>  (1) 
1PON08459R

>  <SYNONYMS>  (1) 
(+)-Ajmaline; (5aR,6S,8S,10S,11S,11aS,12aR,13R)-5-methyl-5a,6,8,9,10,11,11a,12-octahydro-5H-6,10:11,12a-dimethanoindolo[3,2-b]quinolizine-8,13-diol; Ajmalin; Ajmaline

$$$$
