
     RDKit          3D

 23 23  0  0  0  0  0  0  0  0999 V2000
   -0.5934    1.3016   -0.0254 C   0  0  0  0  0  0  0  0  0  0  0  0
   -1.3859    0.0983   -0.0059 C   0  0  0  0  0  0  0  0  0  0  0  0
    0.8106    1.1047   -0.0062 C   0  0  0  0  0  0  0  0  0  0  0  0
   -1.2202    2.6312   -0.0362 N   0  0  0  0  0  0  0  0  0  0  0  0
   -0.7331   -1.1934    0.0023 C   0  0  0  0  0  0  0  0  0  0  0  0
   -2.9034    0.0751   -0.0092 C   0  0  0  0  0  0  0  0  0  0  0  0
    1.4049   -0.1555   -0.0055 C   0  0  0  0  0  0  0  0  0  0  0  0
    1.8433    2.1601    0.0380 C   0  0  0  0  0  0  0  0  0  0  0  0
   -0.6848    3.9407   -0.1851 C   0  0  0  0  0  0  0  0  0  0  0  0
    0.6609   -1.3146    0.0000 C   0  0  0  0  0  0  0  0  0  0  0  0
   -1.7614   -2.8176    0.0078 Br  0  0  0  0  0  0  0  0  0  0  0  0
   -1.6509    5.0732   -0.0011 C   0  0  0  0  0  0  0  0  0  0  0  0
    0.4476    4.3735   -0.4030 O   0  0  0  0  0  0  0  0  0  0  0  0
    1.4814   -2.5677    0.0040 C   0  0  0  0  0  0  0  0  0  0  0  0
   -1.2890    5.7960    1.2371 N   0  0  0  0  0  0  0  0  0  0  0  0
   -1.8285    7.1633    1.2389 C   0  0  0  0  0  0  0  0  0  0  0  0
   -1.4802    5.0137    2.4662 C   0  0  0  0  0  0  0  0  0  0  0  0
   -3.3463    7.2098    1.0545 C   0  0  0  0  0  0  0  0  0  0  0  0
   -2.9234    4.6112    2.6956 C   0  0  0  0  0  0  0  0  0  0  0  0
   -3.9961    7.8775    2.0309 O   0  0  0  0  0  0  0  0  0  0  0  0
   -3.9381    6.6856    0.1203 O   0  0  0  0  0  0  0  0  0  0  0  0
   -3.2329    3.3303    2.4298 O   0  0  0  0  0  0  0  0  0  0  0  0
   -3.7847    5.4240    3.0706 O   0  0  0  0  0  0  0  0  0  0  0  0
  1  2  2  0
  1  3  1  0
  1  4  1  0
  2  5  1  0
  2  6  1  0
  3  7  2  0
  3  8  1  0
  4  9  1  0
  5 10  2  0
  5 11  1  0
  7 10  1  0
  9 12  1  0
  9 13  2  0
 10 14  1  0
 12 15  1  0
 15 16  1  0
 15 17  1  0
 16 18  1  0
 17 19  1  0
 18 20  1  0
 18 21  2  0
 19 22  1  0
 19 23  2  0
M  END
>  <DRUGBANK_ID>  (1) 
DB15779

>  <COMMON_NAME>  (1) 
Mebrofenin

>  <CAS_NUMBER>  (1) 
78266-06-5

>  <UNII>  (1) 
7PV0B6ED98

>  <SYNONYMS>  (1) 
Mebrofenin; Mebrofenine; Mebrofenino; Mebrofeninum

$$$$
