
     RDKit          3D

 33 34  0  0  1  0  0  0  0  0999 V2000
    2.4470  -11.1156   -1.0689 C   0  0  0  0  0  0  0  0  0  0  0  0
    3.4268  -11.1345   -2.2303 C   0  0  0  0  0  0  0  0  0  0  0  0
    3.6338   -9.7216   -2.6851 C   0  0  0  0  0  0  0  0  0  0  0  0
    4.1599   -8.7286   -1.6955 C   0  0  0  0  0  0  0  0  0  0  0  0
    3.9494   -7.3703   -1.8995 C   0  0  0  0  0  0  0  0  0  0  0  0
    4.5979   -6.5061   -0.9919 C   0  0  0  0  0  0  0  0  0  0  0  0
    5.2072   -7.0054    0.1628 C   0  0  0  0  0  0  0  0  0  0  0  0
    5.2248   -8.3776    0.3577 C   0  0  0  0  0  0  0  0  0  0  0  0
    4.8051   -9.2258   -0.6136 N   0  0  0  0  0  0  0  0  0  0  0  0
    5.6093   -8.9767    1.6978 C   0  0  0  0  0  0  0  0  0  0  0  0
    4.5608   -9.6182    2.2971 F   0  0  0  0  0  0  0  0  0  0  0  0
    6.6107   -9.8940    1.6110 F   0  0  0  0  0  0  0  0  0  0  0  0
    6.0251   -8.0481    2.6080 F   0  0  0  0  0  0  0  0  0  0  0  0
    3.1349   -6.8014   -3.0189 C   0  0  0  0  0  0  0  0  0  0  0  0
    2.7378   -7.3773   -4.1833 C   0  0  0  0  0  0  0  0  0  0  0  0
    2.4335   -6.8381   -5.5534 C   0  0  0  0  0  0  0  0  0  0  0  0
    2.1038   -7.6263   -6.4395 O   0  0  0  0  0  0  0  0  0  0  0  0
    2.8052   -5.5811   -5.9022 N   0  0  0  0  0  0  0  0  0  0  0  0
    3.6509   -4.7237   -5.1323 C   0  0  2  0  0  0  0  0  0  0  0  0
    3.8533   -3.3342   -5.7323 C   0  0  0  0  0  0  0  0  0  0  0  0
    4.9916   -5.3591   -4.7523 C   0  0  0  0  0  0  0  0  0  0  0  0
    5.8316   -4.5469   -4.0447 C   0  0  0  0  0  0  0  0  0  0  0  0
    6.9517   -5.0477   -3.4323 C   0  0  0  0  0  0  0  0  0  0  0  0
    7.3002   -6.3997   -3.3806 C   0  0  0  0  0  0  0  0  0  0  0  0
    6.4288   -7.2373   -4.0624 C   0  0  0  0  0  0  0  0  0  0  0  0
    5.3930   -6.7123   -4.8531 C   0  0  0  0  0  0  0  0  0  0  0  0
    6.4850   -8.5711   -3.8908 F   0  0  0  0  0  0  0  0  0  0  0  0
    8.2953   -7.0001   -2.5328 N   0  0  0  0  0  0  0  0  0  0  0  0
    9.7461   -6.3376   -2.0462 S   0  0  0  0  0  0  0  0  0  0  0  0
    9.8532   -6.6349   -0.6489 O   0  0  0  0  0  0  0  0  0  0  0  0
   10.7666   -6.7931   -2.9889 O   0  0  0  0  0  0  0  0  0  0  0  0
    9.6657   -4.5809   -2.2071 C   0  0  0  0  0  0  0  0  0  0  0  0
    7.5975   -4.0431   -2.8730 F   0  0  0  0  0  0  0  0  0  0  0  0
  1  2  1  0
  2  3  1  0
  3  4  1  0
  4  5  2  0
  4  9  1  0
  5  6  1  0
  5 14  1  0
  6  7  2  0
  7  8  1  0
  8  9  2  0
  8 10  1  0
 10 11  1  0
 10 12  1  0
 10 13  1  0
 14 15  2  0
 15 16  1  0
 16 17  2  0
 16 18  1  0
 19 21  1  0
 19 20  1  6
 19 18  1  0
 21 22  2  0
 21 26  1  0
 22 23  1  0
 23 24  2  0
 23 33  1  0
 24 25  1  0
 24 28  1  0
 25 26  2  0
 25 27  1  0
 28 29  1  0
 29 30  2  0
 29 31  2  0
 29 32  1  0
M  END
>  <DRUGBANK_ID>  (1) 
DB12428

>  <COMMON_NAME>  (1) 
PAC-14028

>  <CAS_NUMBER>  (1) 
1005168-10-4

>  <UNII>  (1) 
3VF7K7Z10B

$$$$
