
     RDKit          3D

 34 38  0  0  0  0  0  0  0  0999 V2000
   -1.6584    0.1296   -0.0975 C   0  0  0  0  0  0  0  0  0  0  0  0
   -0.9795    0.7788   -6.0833 C   0  0  0  0  0  0  0  0  0  0  0  0
   -1.8837   -0.1282   -5.5449 C   0  0  0  0  0  0  0  0  0  0  0  0
   -0.8419    1.3727    0.2528 C   0  0  0  0  0  0  0  0  0  0  0  0
   -0.9682   -1.0923    0.4674 C   0  0  0  0  0  0  0  0  0  0  0  0
    1.0409   -3.9247   -2.0249 C   0  0  0  0  0  0  0  0  0  0  0  0
    0.3862    0.5457   -5.9718 C   0  0  0  0  0  0  0  0  0  0  0  0
   -1.4167   -1.2542   -4.8659 C   0  0  0  0  0  0  0  0  0  0  0  0
    2.3436   -0.8922   -5.4865 C   0  0  0  0  0  0  0  0  0  0  0  0
    2.6827   -2.2021   -6.1813 C   0  0  0  0  0  0  0  0  0  0  0  0
    2.6111   -4.6489   -6.4822 C   0  0  0  0  0  0  0  0  0  0  0  0
    2.1891   -5.9522   -6.2166 C   0  0  0  0  0  0  0  0  0  0  0  0
    3.0235   -0.0269   -1.6571 C   0  0  0  0  0  0  0  0  0  0  0  0
    3.5305   -1.2607    0.4581 C   0  0  0  0  0  0  0  0  0  0  0  0
    2.5833   -3.7532   -2.2346 C   0  0  0  0  0  0  0  0  0  0  0  0
    0.6003    1.2989   -0.2858 C   0  0  0  0  0  0  0  0  0  0  0  0
    0.4882   -1.0133    0.0831 C   0  0  0  0  0  0  0  0  0  0  0  0
    0.0377   -3.0107   -2.8080 C   0  0  0  0  0  0  0  0  0  0  0  0
    2.6236   -1.3888   -2.1434 C   0  0  0  0  0  0  0  0  0  0  0  0
    3.2219   -2.6215   -0.1870 C   0  0  0  0  0  0  0  0  0  0  0  0
    0.5105   -5.0905   -4.7538 C   0  0  0  0  0  0  0  0  0  0  0  0
    0.8698   -0.6241   -5.3689 C   0  0  0  0  0  0  0  0  0  0  0  0
    2.0277   -3.5346   -5.8536 C   0  0  0  0  0  0  0  0  0  0  0  0
    1.1474   -6.1709   -5.3349 C   0  0  0  0  0  0  0  0  0  0  0  0
   -0.0386   -1.5250   -4.7745 C   0  0  0  0  0  0  0  0  0  0  0  0
    0.9632   -3.7686   -4.9642 C   0  0  0  0  0  0  0  0  0  0  0  0
    3.5779    1.2263    0.4256 C   0  0  0  0  0  0  0  0  0  0  0  0
    2.7953    0.0104   -0.1241 C   0  0  0  0  0  0  0  0  0  0  0  0
    0.6617   -7.7665   -4.9222 Cl  0  0  0  0  0  0  0  0  0  0  0  0
    3.1638    2.0904    1.2638 N   0  0  0  0  0  0  0  0  0  0  0  0
    3.2620   -2.5774   -1.6389 N   0  0  0  0  0  0  0  0  0  0  0  0
    1.3217    0.1634    0.3556 N   0  0  0  0  0  0  0  0  0  0  0  0
    0.3927   -2.7406   -4.2119 N   0  0  0  0  0  0  0  0  0  0  0  0
    4.8374    1.3852   -0.0048 O   0  0  0  0  0  0  0  0  0  0  0  0
  3  2  2  0
  4  1  1  0
  5  1  1  0
  7  2  1  0
  8  3  1  0
 10  9  1  0
 12 11  1  0
 15  6  1  0
 16  4  1  0
 17  5  1  0
 18  6  1  0
 19 13  1  0
 20 14  1  0
 22  7  2  0
 22  9  1  0
 23 10  1  0
 23 11  2  0
 24 12  2  0
 24 21  1  0
 25  8  2  0
 25 22  1  0
 26 21  2  0
 26 23  1  0
 28 13  1  0
 28 14  1  0
 28 27  1  0
 29 24  1  0
 30 27  2  0
 31 15  1  0
 31 19  1  0
 31 20  1  0
 32 16  1  0
 32 17  1  0
 32 28  1  0
 33 18  1  0
 33 25  1  0
 33 26  1  0
 34 27  1  0
M  END
>  <DRUGBANK_ID>  (1) 
DB09003

>  <COMMON_NAME>  (1) 
Clocapramine

>  <CAS_NUMBER>  (1) 
47739-98-0

>  <UNII>  (1) 
6EEL1GB72K

>  <SYNONYMS>  (1) 
Clocapramina; Clocapramine; Clocapraminum

$$$$
