
     RDKit          3D

 19 18  0  0  0  0  0  0  0  0999 V2000
   -1.9204   -5.6981   -0.4853 O   0  0  0  0  0  0  0  0  0  0  0  0
   -2.3304   -4.5889    0.2536 N   0  0  0  0  0  0  0  0  0  0  0  0
   -1.4520   -3.6187    0.2220 C   0  0  0  0  0  0  0  0  0  0  0  0
   -1.7984   -2.3614    1.0415 C   0  0  1  0  0  0  0  0  0  0  0  0
   -1.4133   -2.5828    2.5026 C   0  0  0  0  0  0  0  0  0  0  0  0
   -0.1344   -3.6838   -0.5282 C   0  0  0  0  0  0  0  0  0  0  0  0
   -1.1395   -1.1829    0.4694 N   0  0  0  0  0  0  0  0  0  0  0  0
   -1.4981    0.0469    1.1862 C   0  0  0  0  0  0  0  0  0  0  0  0
   -0.8167    1.2889    0.5941 C   0  0  0  0  0  0  0  0  0  0  0  0
   -1.2308    1.4847   -0.8784 C   0  0  0  0  0  0  0  0  0  0  0  0
   -1.2564    2.5383    1.3873 C   0  0  0  0  0  0  0  0  0  0  0  0
    0.7186    1.1421    0.6650 C   0  0  0  0  0  0  0  0  0  0  0  0
    1.2431    1.0382    2.0338 N   0  0  0  0  0  0  0  0  0  0  0  0
    2.7088    0.8614    2.0874 C   0  0  1  0  0  0  0  0  0  0  0  0
    3.4324    2.0890    1.4730 C   0  0  0  0  0  0  0  0  0  0  0  0
    4.2775    2.9918    2.3379 C   0  0  0  0  0  0  0  0  0  0  0  0
    3.2792    2.3227    0.1966 N   0  0  0  0  0  0  0  0  0  0  0  0
    3.8331    3.5423   -0.1972 O   0  0  0  0  0  0  0  0  0  0  0  0
    3.0564    0.6045    3.5538 C   0  0  0  0  0  0  0  0  0  0  0  0
  1  2  1  0
  2  3  2  0
  3  6  1  0
  4  5  1  1
  4  3  1  0
  4  7  1  0
  7  8  1  0
  8  9  1  0
  9 10  1  0
  9 11  1  0
  9 12  1  0
 12 13  1  0
 13 14  1  0
 14 15  1  0
 14 19  1  1
 15 16  1  0
 15 17  2  0
 17 18  1  0
M  END
>  <DRUGBANK_ID>  (1) 
DB11179

>  <COMMON_NAME>  (1) 
Exametazime

>  <CAS_NUMBER>  (1) 
105613-48-7

>  <UNII>  (1) 
G29272NCKL

>  <SYNONYMS>  (1) 
Exametazima; Exametazime

$$$$
