
     RDKit          3D

 29 32  0  0  1  0  0  0  0  0999 V2000
    2.3910   -0.0993   -0.0225 C   0  0  0  0  0  0  0  0  0  0  0  0
    0.8694   -0.1718   -0.0550 C   0  0  0  0  0  0  0  0  0  0  0  0
    0.1963    1.0521   -0.0382 C   0  0  0  0  0  0  0  0  0  0  0  0
   -1.1902    1.0308   -0.0479 C   0  0  0  0  0  0  0  0  0  0  0  0
   -1.9216   -0.2055   -0.0740 C   0  0  0  0  0  0  0  0  0  0  0  0
   -1.3300   -1.5070   -0.1052 C   0  0  0  0  0  0  0  0  0  0  0  0
    0.1098   -1.4335   -0.0771 C   0  0  0  0  0  0  0  0  0  0  0  0
   -2.3171   -2.8730    0.2173 C   0  0  0  0  0  0  0  0  0  0  0  0
   -2.9623   -4.1257   -0.7628 C   0  0  2  0  0  0  0  0  0  0  0  0
   -4.4571   -5.1480   -0.6711 C   0  0  0  0  0  0  0  0  0  0  0  0
   -4.9784   -5.5907   -2.1457 C   0  0  2  0  0  0  0  0  0  0  0  0
   -3.6918   -6.3863   -2.6402 C   0  0  0  0  0  0  0  0  0  0  0  0
   -2.4315   -5.6512   -2.5194 N   0  0  0  0  0  0  0  0  0  0  0  0
   -2.0954   -5.2556   -1.2087 C   0  0  0  0  0  0  0  0  0  0  0  0
   -1.4728   -5.9838   -0.4024 O   0  0  0  0  0  0  0  0  0  0  0  0
   -5.5931   -4.2796   -2.6481 C   0  0  0  0  0  0  0  0  0  0  0  0
   -4.6634   -3.3254   -2.9730 C   0  0  0  0  0  0  0  0  0  0  0  0
   -4.7800   -2.0425   -2.5222 C   0  0  0  0  0  0  0  0  0  0  0  0
   -6.0155   -1.5423   -2.2639 C   0  0  0  0  0  0  0  0  0  0  0  0
   -7.1245   -2.4079   -2.2639 C   0  0  0  0  0  0  0  0  0  0  0  0
   -6.9001   -3.8109   -2.3714 C   0  0  0  0  0  0  0  0  0  0  0  0
   -8.4278   -2.0078   -2.1312 O   0  0  0  0  0  0  0  0  0  0  0  0
   -8.7721   -0.6284   -2.2871 C   0  0  0  0  0  0  0  0  0  0  0  0
   -8.3175    0.0898   -3.5753 C   0  0  0  0  0  0  0  0  0  0  0  0
   -8.4421    1.5730   -3.2367 C   0  0  0  0  0  0  0  0  0  0  0  0
   -8.6605    1.6913   -1.7184 C   0  0  0  0  0  0  0  0  0  0  0  0
   -8.4539    0.3102   -1.1091 C   0  0  0  0  0  0  0  0  0  0  0  0
   -6.1240   -0.2056   -2.0933 O   0  0  0  0  0  0  0  0  0  0  0  0
   -5.0227    0.6531   -2.3185 C   0  0  0  0  0  0  0  0  0  0  0  0
  1  2  1  0
  2  3  2  0
  2  7  1  0
  3  4  1  0
  4  5  2  0
  5  6  1  0
  6  7  2  0
  6  8  1  0
  9  8  1  1
  9 10  1  0
  9 14  1  0
 10 11  1  0
 11 12  1  0
 11 16  1  6
 12 13  1  0
 13 14  1  0
 14 15  2  0
 16 17  2  0
 16 21  1  0
 17 18  1  0
 18 19  2  0
 19 20  1  0
 19 28  1  0
 20 21  2  0
 20 22  1  0
 22 23  1  0
 23 24  1  0
 23 27  1  0
 24 25  1  0
 25 26  1  0
 26 27  1  0
 28 29  1  0
M  END
>  <DRUGBANK_ID>  (1) 
DB11650

>  <COMMON_NAME>  (1) 
HT-0712

>  <CAS_NUMBER>  (1) 
617720-02-2

>  <UNII>  (1) 
2O43FXG9IG

$$$$
