
     RDKit          3D

 29 32  0  0  0  0  0  0  0  0999 V2000
    2.4993    1.5784   -0.8500 C   0  0  0  0  0  0  0  0  0  0  0  0
    3.0452    1.6320    0.5688 C   0  0  0  0  0  0  0  0  0  0  0  0
    2.9481   -0.9326    0.6361 C   0  0  0  0  0  0  0  0  0  0  0  0
    1.4292   -2.1926   -0.9042 C   0  0  0  0  0  0  0  0  0  0  0  0
    1.5520    0.3758   -1.1101 C   0  0  2  0  0  0  0  0  0  0  0  0
   -0.4918    1.8154   -0.4142 C   0  0  0  0  0  0  0  0  0  0  0  0
   -2.9313   -1.7412    0.4442 C   0  0  0  0  0  0  0  0  0  0  0  0
   -4.1820   -1.0530    0.9843 C   0  0  0  0  0  0  0  0  0  0  0  0
    1.2137    0.3941   -2.6234 C   0  0  0  0  0  0  0  0  0  0  0  0
    0.2541    0.4689   -0.2430 C   0  0  1  0  0  0  0  0  0  0  0  0
   -0.6469   -0.7978   -0.4235 C   0  0  2  0  0  0  0  0  0  0  0  0
   -1.9007   -0.6271    0.4294 C   0  0  1  0  0  0  0  0  0  0  0  0
   -2.6969    0.6002   -0.0582 C   0  0  1  0  0  0  0  0  0  0  0  0
   -2.8701    0.6547   -1.5862 C   0  0  0  0  0  0  0  0  0  0  0  0
    3.7300    0.3312    0.8988 C   0  0  0  0  0  0  0  0  0  0  0  0
    4.8194    0.3041    1.4681 O   0  0  0  0  0  0  0  0  0  0  0  0
    0.1749   -2.0227   -0.0800 C   0  0  0  0  0  0  0  0  0  0  0  0
   -0.1565   -2.8459    0.7660 O   0  0  0  0  0  0  0  0  0  0  0  0
    2.3169   -0.9466   -0.7684 C   0  0  1  0  0  0  0  0  0  0  0  0
   -6.0636   -0.7143   -1.4831 C   0  0  0  0  0  0  0  0  0  0  0  0
   -5.7914    0.7750   -1.2553 C   0  0  0  0  0  0  0  0  0  0  0  0
   -7.2449   -1.3024   -0.7242 C   0  0  0  0  0  0  0  0  0  0  0  0
   -7.3114   -1.5106    0.4869 O   0  0  0  0  0  0  0  0  0  0  0  0
   -8.2690   -1.6610   -1.5115 O   0  0  0  0  0  0  0  0  0  0  0  0
   -4.0224    0.4686    0.7311 C   0  0  1  0  0  0  0  0  0  0  0  0
   -1.8195    1.7844    0.3155 C   0  0  0  0  0  0  0  0  0  0  0  0
   -2.1374    2.6531    1.1199 O   0  0  0  0  0  0  0  0  0  0  0  0
   -5.2535    1.2241    0.1396 C   0  0  2  0  0  0  0  0  0  0  0  0
   -6.4119    1.1975    1.1382 C   0  0  0  0  0  0  0  0  0  0  0  0
  2  1  1  0
  4 17  1  0
  5 10  1  0
  5  9  1  6
  5  1  1  0
  6 26  1  0
  8  7  1  0
 10  6  1  6
 10 11  1  0
 11 12  1  0
 11 17  1  1
 12 13  1  0
 12  7  1  6
 13 25  1  0
 13 26  1  0
 13 14  1  6
 15  3  1  0
 15  2  1  0
 15 16  2  0
 17 18  2  0
 19  5  1  0
 19  3  1  1
 19  4  1  0
 20 21  1  0
 20 22  1  0
 22 24  1  0
 22 23  2  0
 25  8  1  6
 25 28  1  0
 26 27  2  0
 28 21  1  0
 28 29  1  1
M  END
>  <DRUGBANK_ID>  (1) 
DB11622

>  <COMMON_NAME>  (1) 
Dehydrocholic acid

>  <CAS_NUMBER>  (1) 
81-23-2

>  <UNII>  (1) 
NH5000009I

>  <SYNONYMS>  (1) 
3,7,12-Triketo-5beta-cholanoic acid; 3,7,12-triketocholanic acid; 3,7,12-trioxo-5beta-cholanic acid; 3,7,12-trioxo-5Î²-cholanic acid; 3,7,12-trioxocholanic acid; Decholin; Dehydrocholate; Dehydrocholic acid

$$$$
