
     RDKit          3D

 30 31  0  0  0  0  0  0  0  0999 V2000
    2.2237    0.0318    0.0096 C   0  0  0  0  0  0  0  0  0  0  0  0
   -4.6396    0.2695    4.6511 C   0  0  0  0  0  0  0  0  0  0  0  0
   -2.6851   -1.7422   -0.3988 C   0  0  0  0  0  0  0  0  0  0  0  0
   -4.4834    1.1914    5.8512 C   0  0  0  0  0  0  0  0  0  0  0  0
   -3.6836   -1.7229    0.7985 C   0  0  0  0  0  0  0  0  0  0  0  0
    0.3331   -2.6204   -0.0111 C   0  0  0  0  0  0  0  0  0  0  0  0
   -1.9916   -0.0975    3.1017 C   0  0  0  0  0  0  0  0  0  0  0  0
   -2.6034    2.0436   -0.1317 C   0  0  0  0  0  0  0  0  0  0  0  0
   -5.2713    1.9316    2.7654 C   0  0  0  0  0  0  0  0  0  0  0  0
    0.7422   -0.0521   -0.1492 C   0  0  0  0  0  0  0  0  0  0  0  0
   -4.3800    1.1212    3.4422 C   0  0  0  0  0  0  0  0  0  0  0  0
   -1.4094   -0.6945   -0.4999 C   0  0  0  0  0  0  0  0  0  0  0  0
   -0.0733   -1.1706   -0.2017 C   0  0  0  0  0  0  0  0  0  0  0  0
   -3.0786    1.2682    2.8353 C   0  0  0  0  0  0  0  0  0  0  0  0
   -3.2992    2.1632    1.5808 C   0  0  0  0  0  0  0  0  0  0  0  0
   -1.3655    0.7887   -0.4890 C   0  0  0  0  0  0  0  0  0  0  0  0
   -5.5303    2.2801    5.8489 C   0  0  0  0  0  0  0  0  0  0  0  0
   -4.0020   -0.3423    0.7790 C   0  0  0  0  0  0  0  0  0  0  0  0
   -0.2164   -3.3144    1.2229 C   0  0  0  0  0  0  0  0  0  0  0  0
   -1.0724    0.0254    4.2050 C   0  0  0  0  0  0  0  0  0  0  0  0
   -4.6370    2.6189    1.7393 N   0  0  0  0  0  0  0  0  0  0  0  0
   -0.0284    1.0919   -0.2707 N   0  0  0  0  0  0  0  0  0  0  0  0
   -6.5886    2.2358    6.4538 O   0  0  0  0  0  0  0  0  0  0  0  0
   -5.2610    3.3113    5.0224 O   0  0  0  0  0  0  0  0  0  0  0  0
   -5.0234    0.2693    0.4509 O   0  0  0  0  0  0  0  0  0  0  0  0
   -2.7995    0.0119    1.0749 O   0  0  0  0  0  0  0  0  0  0  0  0
   -0.9574   -4.2888    1.2186 O   0  0  0  0  0  0  0  0  0  0  0  0
    0.2252   -2.8128    2.3946 O   0  0  0  0  0  0  0  0  0  0  0  0
   -0.8362   -0.8300    5.0365 O   0  0  0  0  0  0  0  0  0  0  0  0
   -0.4024    1.1744    4.0731 O   0  0  0  0  0  0  0  0  0  0  0  0
  4  2  1  0
  5  3  1  0
 10  1  1  0
 11  2  1  0
 11  9  2  0
 12  3  1  0
 13  6  1  0
 13 10  2  0
 13 12  1  0
 14  7  1  0
 14 11  1  0
 15  8  1  0
 15 14  2  0
 16  8  1  0
 16 12  2  0
 17  4  1  0
 18  5  1  0
 19  6  1  0
 20  7  1  0
 21  9  1  0
 21 15  1  0
 22 10  1  0
 22 16  1  0
 23 17  2  0
 24 17  1  0
 25 18  2  0
 26 18  1  0
 27 19  2  0
 28 19  1  0
 29 20  2  0
 30 20  1  0
M  END
>  <DRUGBANK_ID>  (1) 
DB04517

>  <SECONDARY_ACCESSION_NUMBERS>  (1) 
EXPT01256

>  <COMMON_NAME>  (1) 
Dipyrromethane Cofactor

$$$$
