
     RDKit          3D

 26 29  0  0  0  0  0  0  0  0999 V2000
   -2.2976    0.5547   -0.3108 C   0  0  1  0  0  0  0  0  0  0  0  0
   -0.8438    0.6893    0.0649 C   0  0  1  0  0  0  0  0  0  0  0  0
   -2.9362   -0.7407    0.2237 C   0  0  1  0  0  0  0  0  0  0  0  0
   -3.2194    1.6613    0.1522 C   0  0  0  0  0  0  0  0  0  0  0  0
   -0.0716   -0.4962   -0.5674 C   0  0  1  0  0  0  0  0  0  0  0  0
   -0.2661    2.0107   -0.4380 C   0  0  0  0  0  0  0  0  0  0  0  0
   -4.3611   -0.4976   -0.2804 C   0  0  2  0  0  0  0  0  0  0  0  0
   -2.2071   -1.9327   -0.4073 C   0  0  0  0  0  0  0  0  0  0  0  0
   -2.9339   -0.8859    1.7637 C   0  0  0  0  0  0  0  0  0  0  0  0
   -4.5739    1.0191    0.0221 C   0  0  0  0  0  0  0  0  0  0  0  0
    1.4173   -0.3587   -0.2972 C   0  0  0  0  0  0  0  0  0  0  0  0
   -0.6933   -1.8523   -0.1416 C   0  0  0  0  0  0  0  0  0  0  0  0
    1.1528    2.1641    0.0794 C   0  0  0  0  0  0  0  0  0  0  0  0
   -5.3215   -1.3289    0.3755 O   0  0  0  0  0  0  0  0  0  0  0  0
    1.9815    0.9087   -0.0352 C   0  0  0  0  0  0  0  0  0  0  0  0
    2.2702   -1.4730   -0.3667 C   0  0  0  0  0  0  0  0  0  0  0  0
   -6.6446   -1.0948    0.2063 C   0  0  0  0  0  0  0  0  0  0  0  0
    3.3581    1.0188    0.2024 C   0  0  0  0  0  0  0  0  0  0  0  0
    3.6384   -1.3525   -0.1199 C   0  0  0  0  0  0  0  0  0  0  0  0
   -7.0259   -0.0066   -0.7821 C   0  0  0  0  0  0  0  0  0  0  0  0
   -7.4735   -1.7085    0.8803 O   0  0  0  0  0  0  0  0  0  0  0  0
    4.1703   -0.1045    0.1665 C   0  0  0  0  0  0  0  0  0  0  0  0
   -7.9251   -0.4088   -1.9123 C   0  0  0  0  0  0  0  0  0  0  0  0
    5.4969    0.0716    0.4225 O   0  0  0  0  0  0  0  0  0  0  0  0
   -9.2630   -0.8871   -1.4193 C   0  0  0  0  0  0  0  0  0  0  0  0
   -9.9538    0.1899   -0.5977 C   0  0  0  0  0  0  0  0  0  0  0  0
  1  2  1  0
  1  3  1  0
  1  4  1  1
  2  5  1  0
  2  6  1  6
  3  7  1  0
  3  8  1  0
  3  9  1  1
  4 10  1  0
  5 11  1  0
  5 12  1  1
  6 13  1  0
  7 10  1  0
  7 14  1  1
  8 12  1  0
 11 15  2  0
 11 16  1  0
 13 15  1  0
 14 17  1  0
 15 18  1  0
 16 19  2  0
 17 20  1  0
 17 21  2  0
 18 22  2  0
 19 22  1  0
 20 23  1  0
 22 24  1  0
 23 25  1  0
 25 26  1  0
M  END
>  <DRUGBANK_ID>  (1) 
DB13956

>  <SECONDARY_ACCESSION_NUMBERS>  (1) 
DBSALT000068

>  <COMMON_NAME>  (1) 
Estradiol valerate

>  <CAS_NUMBER>  (1) 
979-32-8

>  <UNII>  (1) 
OKG364O896

>  <SYNONYMS>  (1) 
Estradiol valerate

$$$$
