
     RDKit          3D

 33 34  0  0  0  0  0  0  0  0999 V2000
    1.3272    0.4030   -0.2482 C   0  0  0  0  0  0  0  0  0  0  0  0
    0.5521    1.3582   -1.0029 N   0  0  0  0  0  0  0  0  0  0  0  0
   -0.9123    1.1777   -0.8612 C   0  0  0  0  0  0  0  0  0  0  0  0
   -1.4956    1.2916    0.5803 C   0  0  0  0  0  0  0  0  0  0  0  0
   -1.0700    2.6809    1.1336 C   0  0  0  0  0  0  0  0  0  0  0  0
   -1.4822    2.9130    2.5752 C   0  0  0  0  0  0  0  0  0  0  0  0
   -1.0296    1.7499    3.4511 C   0  0  0  0  0  0  0  0  0  0  0  0
   -1.5053    0.4102    2.9011 C   0  0  0  0  0  0  0  0  0  0  0  0
   -1.0978    0.2152    1.5189 N   0  0  0  0  0  0  0  0  0  0  0  0
   -0.6776   -1.0528    1.0641 C   0  0  0  0  0  0  0  0  0  0  0  0
   -0.9660   -1.5484    0.0032 O   0  0  0  0  0  0  0  0  0  0  0  0
    0.2997   -1.6016    1.9295 O   0  0  0  0  0  0  0  0  0  0  0  0
    1.0955   -2.7049    1.5075 C   0  0  0  0  0  0  0  0  0  0  0  0
    2.2686   -2.4722    0.7648 C   0  0  0  0  0  0  0  0  0  0  0  0
    3.2091   -3.4642    0.4766 C   0  0  0  0  0  0  0  0  0  0  0  0
    3.1243   -4.6836    1.1168 C   0  0  0  0  0  0  0  0  0  0  0  0
    4.1621   -5.7515    0.7257 C   0  0  0  0  0  0  0  0  0  0  0  0
    4.5328   -6.6971    1.7404 N   0  0  0  0  0  0  0  0  0  0  0  0
    4.1992   -8.0233    1.8943 C   0  0  0  0  0  0  0  0  0  0  0  0
    4.7253   -8.6015    2.8534 O   0  0  0  0  0  0  0  0  0  0  0  0
    3.2742   -8.8550    0.9438 C   0  0  0  0  0  0  0  0  0  0  0  0
    1.7772   -8.5020    0.8451 C   0  0  0  0  0  0  0  0  0  0  0  0
    1.5829   -7.1996    0.1225 C   0  0  0  0  0  0  0  0  0  0  0  0
    2.2484   -7.0121   -1.2310 C   0  0  0  0  0  0  0  0  0  0  0  0
    1.4490   -7.7570   -2.1667 C   0  0  0  0  0  0  0  0  0  0  0  0
    0.8917   -7.1151   -3.1788 C   0  0  0  0  0  0  0  0  0  0  0  0
   -0.0002   -7.8862   -4.0569 C   0  0  0  0  0  0  0  0  0  0  0  0
   -1.3682   -7.2444   -3.9890 C   0  0  0  0  0  0  0  0  0  0  0  0
    0.6223   -7.8846   -5.4328 C   0  0  0  0  0  0  0  0  0  0  0  0
    1.9635   -4.8742    1.9484 C   0  0  0  0  0  0  0  0  0  0  0  0
    0.8846   -3.9625    2.0350 C   0  0  0  0  0  0  0  0  0  0  0  0
   -0.2518   -4.4442    2.6352 O   0  0  0  0  0  0  0  0  0  0  0  0
   -1.3663   -3.5616    2.7380 C   0  0  0  0  0  0  0  0  0  0  0  0
  1  2  1  0
  2  3  1  0
  3  4  1  0
  4  5  1  0
  4  9  1  0
  5  6  1  0
  6  7  1  0
  7  8  1  0
  8  9  1  0
  9 10  1  0
 10 11  2  0
 10 12  1  0
 12 13  1  0
 13 14  2  0
 13 31  1  0
 14 15  1  0
 15 16  2  0
 16 17  1  0
 16 30  1  0
 17 18  1  0
 18 19  1  0
 19 20  2  0
 19 21  1  0
 21 22  1  0
 22 23  1  0
 23 24  1  0
 24 25  1  0
 25 26  2  0
 26 27  1  0
 27 28  1  0
 27 29  1  0
 30 31  2  0
 31 32  1  0
 32 33  1  0
M  END
>  <DRUGBANK_ID>  (1) 
DB17071

>  <COMMON_NAME>  (1) 
Vocacapsaicin

>  <CAS_NUMBER>  (1) 
1931116-86-7

>  <UNII>  (1) 
KRJ8H9BOG7

>  <SYNONYMS>  (1) 
1-piperidinecarboxylic acid, 2-((methylamino)methyl)-, 2-methoxy-4-((((6e)-8-methyl-1-oxo-6-nonen-1-yl)amino)methyl) phenyl ester; 2-methoxy-4-(((6e)-8-methylnon-6-enamido)methyl)phenyl (2rs)-2-((methylamino)methyl)piperidine-1-carboxylate

$$$$
