HYQ
     RDKit          3D

 26 30  0  0  0  0  0  0  0  0999 V2000
   -0.4907   -0.7686    0.6981 C   0  0  2  0  0  0  0  0  0  0  0  0
   -1.8154   -1.1231    0.0767 C   0  0  0  0  0  0  0  0  0  0  0  0
   -2.0878   -2.2147   -0.4007 O   0  0  0  0  0  0  0  0  0  0  0  0
   -2.5935    0.0082    0.0960 N   0  0  0  0  0  0  0  0  0  0  0  0
   -4.0101   -0.0298    0.0816 C   0  0  0  0  0  0  0  0  0  0  0  0
   -4.5993   -0.6681    1.1878 C   0  0  0  0  0  0  0  0  0  0  0  0
   -5.9816   -0.7084    1.3447 C   0  0  0  0  0  0  0  0  0  0  0  0
   -6.8201   -0.1316    0.3780 C   0  0  0  0  0  0  0  0  0  0  0  0
   -8.2835   -0.3185    0.5873 N   0  0  0  0  0  0  0  0  0  0  0  0
   -9.0868    0.0951   -0.2554 O   0  0  0  0  0  0  0  0  0  0  0  0
   -8.6396   -0.9133    1.6160 O   0  0  0  0  0  0  0  0  0  0  0  0
   -6.2629    0.5587   -0.7452 C   0  0  0  0  0  0  0  0  0  0  0  0
   -7.0211    1.2174   -1.7479 C   0  0  0  0  0  0  0  0  0  0  0  0
   -6.4457    1.8605   -2.8379 C   0  0  0  0  0  0  0  0  0  0  0  0
   -5.0760    1.8751   -2.9743 C   0  0  0  0  0  0  0  0  0  0  0  0
   -4.2873    1.2384   -2.0229 C   0  0  0  0  0  0  0  0  0  0  0  0
   -4.8337    0.6011   -0.8855 C   0  0  0  0  0  0  0  0  0  0  0  0
   -1.8038    1.1262    0.0528 C   0  0  0  0  0  0  0  0  0  0  0  0
   -2.0447    2.2411   -0.3930 O   0  0  0  0  0  0  0  0  0  0  0  0
   -0.4943    0.7608    0.7040 C   0  0  2  0  0  0  0  0  0  0  0  0
    0.7530    1.3138    0.0048 C   0  0  1  0  0  0  0  0  0  0  0  0
    1.9873    0.7645    0.7483 C   0  0  0  0  0  0  0  0  0  0  0  0
    1.9837   -0.7754    0.7342 C   0  0  0  0  0  0  0  0  0  0  0  0
    0.7508   -1.2982   -0.0301 C   0  0  2  0  0  0  0  0  0  0  0  0
    0.8071   -0.7340   -1.4617 C   0  0  0  0  0  0  0  0  0  0  0  0
    0.8003    0.8000   -1.4439 C   0  0  0  0  0  0  0  0  0  0  0  0
  1  2  1  6
  1 20  1  0
  1 24  1  0
  2  3  2  0
  2  4  1  0
  4  5  1  0
  4 18  1  0
  5  6  2  0
  5 17  1  0
  6  7  1  0
  7  8  2  0
  8  9  1  0
  8 12  1  0
  9 10  1  0
  9 11  2  0
 12 13  1  0
 12 17  2  0
 13 14  2  0
 14 15  1  0
 15 16  2  0
 16 17  1  0
 18 19  2  0
 20 18  1  6
 20 21  1  0
 21 22  1  1
 21 26  1  0
 22 23  1  0
 24 23  1  1
 24 25  1  0
 25 26  1  0
M  CHG  2   9   1  10  -1
M  END
>  <DRUGBANK_ID>  (1) 
DB04709

>  <COMMON_NAME>  (1) 
(3AALPHA,4ALPHA,7ALPHA,7AALPHA)- 3A,4,7,7A-TETRAHYDRO-2-(4-NITRO-1-NAPHTHALENYL)-4,7-ETHANO-1H-ISOINDOLE-1,3(2H)-DIONE

$$$$
