
     RDKit          3D

 24 26  0  0  0  0  0  0  0  0999 V2000
    1.0417    0.0972    0.0462 C   0  0  0  0  0  0  0  0  0  0  0  0
    0.5948   -1.1675    0.7262 C   0  0  0  0  0  0  0  0  0  0  0  0
   -0.3050   -1.0496    1.9207 C   0  0  0  0  0  0  0  0  0  0  0  0
    0.9885   -2.3683    0.2568 C   0  0  0  0  0  0  0  0  0  0  0  0
    1.8109   -2.5427   -0.9426 C   0  0  0  0  0  0  0  0  0  0  0  0
    3.3149   -2.5321   -0.9227 C   0  0  0  0  0  0  0  0  0  0  0  0
    4.2495   -2.2672    0.2080 C   0  0  0  0  0  0  0  0  0  0  0  0
    5.2639   -1.6237   -0.0371 O   0  0  0  0  0  0  0  0  0  0  0  0
    3.9593   -2.7681    1.4379 O   0  0  0  0  0  0  0  0  0  0  0  0
    4.9424   -2.4545    2.4606 C   0  0  0  0  0  0  0  0  0  0  0  0
    6.2318   -3.0450    2.1789 N   0  0  0  0  0  0  0  0  0  0  0  0
    7.3781   -2.3387    1.9663 C   0  0  0  0  0  0  0  0  0  0  0  0
    7.5731   -1.1404    2.0439 O   0  0  0  0  0  0  0  0  0  0  0  0
    8.4249   -3.3226    1.6626 C   0  0  0  0  0  0  0  0  0  0  0  0
    7.8844   -4.5374    1.7645 C   0  0  0  0  0  0  0  0  0  0  0  0
    8.6000   -5.8124    1.5335 C   0  0  0  0  0  0  0  0  0  0  0  0
   10.1205   -5.5988    1.4447 C   0  0  0  0  0  0  0  0  0  0  0  0
   10.5242   -4.3008    0.7308 C   0  0  0  0  0  0  0  0  0  0  0  0
    9.8293   -3.0420    1.2800 C   0  0  0  0  0  0  0  0  0  0  0  0
    6.4760   -4.3792    2.1452 C   0  0  0  0  0  0  0  0  0  0  0  0
    5.7192   -5.3001    2.3781 O   0  0  0  0  0  0  0  0  0  0  0  0
    2.5685   -3.8153   -1.2639 C   0  0  0  0  0  0  0  0  0  0  0  0
    2.4767   -4.9819   -0.3210 C   0  0  0  0  0  0  0  0  0  0  0  0
    2.5695   -4.2223   -2.7286 C   0  0  0  0  0  0  0  0  0  0  0  0
  1  2  1  0
  2  3  1  0
  2  4  2  3
  4  5  1  0
  5  6  1  0
  5 22  1  0
  6  7  1  0
  6 22  1  0
  7  8  2  0
  7  9  1  0
  9 10  1  0
 10 11  1  0
 11 12  1  0
 11 20  1  0
 12 13  2  0
 12 14  1  0
 14 15  2  0
 14 19  1  0
 15 16  1  0
 15 20  1  0
 16 17  1  0
 17 18  1  0
 18 19  1  0
 20 21  2  0
 22 23  1  0
 22 24  1  0
M  END
>  <DRUGBANK_ID>  (1) 
DB13752

>  <COMMON_NAME>  (1) 
Tetramethrin

>  <CAS_NUMBER>  (1) 
7696-12-0

>  <UNII>  (1) 
Z72930Q46K

>  <SYNONYMS>  (1) 
Tetramethrin

$$$$
