
     RDKit          3D

 37 38  0  0  1  0  0  0  0  0999 V2000
   -1.1554    4.0723    3.2929 S   0  0  0  0  0  0  0  0  0  0  0  0
    2.6434    0.5176    4.4724 O   0  0  0  0  0  0  0  0  0  0  0  0
   -2.3319   -1.5759    1.3296 O   0  0  0  0  0  0  0  0  0  0  0  0
   -2.2482   -3.7047    5.8069 O   0  0  0  0  0  0  0  0  0  0  0  0
    0.2696    2.0439    6.4151 O   0  0  0  0  0  0  0  0  0  0  0  0
   -1.7258   -2.7644    7.8967 O   0  0  0  0  0  0  0  0  0  0  0  0
    0.6734    0.4014    7.4116 O   0  0  0  0  0  0  0  0  0  0  0  0
   -0.6060   -0.1293    1.9314 N   0  0  0  0  0  0  0  0  0  0  0  0
    0.7355   -0.9296    5.9172 N   0  0  0  0  0  0  0  0  0  0  0  0
    1.4224   -1.5009    4.0605 N   0  0  0  0  0  0  0  0  0  0  0  0
    0.2015    0.8303    2.9305 C   0  0  1  0  0  0  0  0  0  0  0  0
   -0.4941   -1.9258    4.1809 C   0  0  0  0  0  0  0  0  0  0  0  0
   -1.8550   -1.3469    3.5665 C   0  0  0  0  0  0  0  0  0  0  0  0
   -1.2097    1.9079    3.3252 C   0  0  0  0  0  0  0  0  0  0  0  0
    1.3853    0.3396    4.6325 C   0  0  0  0  0  0  0  0  0  0  0  0
   -1.2429   -1.3146    6.1776 C   0  0  2  0  0  0  0  0  0  0  0  0
   -0.1416   -0.5060    4.6089 C   0  0  1  0  0  0  0  0  0  0  0  0
   -1.6550   -1.0106    2.1687 C   0  0  0  0  0  0  0  0  0  0  0  0
   -2.5731   -0.0447    5.9885 C   0  0  0  0  0  0  0  0  0  0  0  0
   -1.8126   -2.6507    6.6847 C   0  0  0  0  0  0  0  0  0  0  0  0
    0.1713    0.7217    6.2695 C   0  0  0  0  0  0  0  0  0  0  0  0
    0.7292    4.5720    4.3556 C   0  0  0  0  0  0  0  0  0  0  0  0
   -2.2773    0.7347    7.0391 C   0  0  0  0  0  0  0  0  0  0  0  0
   -3.5765    0.5179    4.9139 C   0  0  0  0  0  0  0  0  0  0  0  0
    0.8481    5.9321    4.3258 C   0  0  0  0  0  0  0  0  0  0  0  0
   -2.6465    2.0568    6.9713 C   0  0  0  0  0  0  0  0  0  0  0  0
   -3.8470    1.8917    4.8306 C   0  0  0  0  0  0  0  0  0  0  0  0
   -3.4186    2.6275    5.9156 C   0  0  0  0  0  0  0  0  0  0  0  0
    0.0079    6.5290    5.2149 C   0  0  0  0  0  0  0  0  0  0  0  0
    1.8665    6.3311    3.4875 C   0  0  0  0  0  0  0  0  0  0  0  0
   -2.4380   -3.9728    4.2718 C   0  0  0  0  0  0  0  0  0  0  0  0
   -0.1713    2.6990    5.3750 C   0  0  0  0  0  0  0  0  0  0  0  0
    0.1322    7.8473    5.1432 C   0  0  0  0  0  0  0  0  0  0  0  0
    2.0535    7.6374    3.5544 C   0  0  0  0  0  0  0  0  0  0  0  0
    1.1231    8.3862    4.2936 C   0  0  0  0  0  0  0  0  0  0  0  0
   -3.6371   -3.2883    3.5933 C   0  0  0  0  0  0  0  0  0  0  0  0
    0.9602    2.5444    4.2164 C   0  0  0  0  0  0  0  0  0  0  0  0
  1 14  1  0
  1 22  1  0
  2 15  2  0
  3 18  2  0
  4 20  1  0
  4 31  1  0
  5 21  1  0
  5 32  1  0
  6 20  2  0
  7 21  2  0
  8 18  1  0
  9 15  1  0
 11 15  1  0
 11 14  1  1
 11  8  1  0
 12 13  1  0
 13 18  1  0
 16 20  1  0
 16 19  1  0
 16  9  1  1
 17 21  1  0
 17 12  1  0
 17 10  1  6
 19 23  2  0
 19 24  1  0
 22 25  1  0
 23 26  1  0
 24 27  2  0
 25 29  2  0
 25 30  1  0
 26 28  2  0
 27 28  1  0
 29 33  1  0
 30 34  2  0
 31 36  1  0
 32 37  1  0
 33 35  2  0
 34 35  1  0
M  END
>  <DRUGBANK_ID>  (1) 
DB05460

>  <SECONDARY_ACCESSION_NUMBERS>  (1) 
DB12215

>  <COMMON_NAME>  (1) 
Ezatiostat

>  <CAS_NUMBER>  (1) 
168682-53-9

>  <UNII>  (1) 
057D10I8S8

>  <SYNONYMS>  (1) 
Ezatiostat; gamma-Glutamyl-S-(benzyl)-cysteinyl-R(-)-phenylglycine diethyl ester

$$$$
