354
     RDKit          3D

 31 34  0  0  1  0  0  0  0  0999 V2000
   -2.1623    0.0782    0.1244 Cl  0  0  0  0  0  0  0  0  0  0  0  0
    4.1234   -0.6494    1.0052 N   0  0  0  0  0  0  0  0  0  0  0  0
    1.9906   -1.5121    2.9657 N   0  0  0  0  0  0  0  0  0  0  0  0
    3.7304   -2.0579    1.1879 C   0  0  0  0  0  0  0  0  0  0  0  0
    3.7745    0.1547    2.1602 C   0  0  0  0  0  0  0  0  0  0  0  0
    2.3392   -2.2796    1.7835 C   0  0  0  0  0  0  0  0  0  0  0  0
    2.3801   -0.0993    2.7891 C   0  0  0  0  0  0  0  0  0  0  0  0
    3.8180   -0.0076   -0.2667 C   0  0  0  0  0  0  0  0  0  0  0  0
    2.4099   -2.1971    4.1847 C   0  0  0  0  0  0  0  0  0  0  0  0
    2.3035    0.1151   -0.5379 C   0  0  0  0  0  0  0  0  0  0  0  0
    4.5847   -0.6748   -1.4018 C   0  0  0  0  0  0  0  0  0  0  0  0
    3.8979   -2.2954    4.4079 C   0  0  0  0  0  0  0  0  0  0  0  0
    8.2164   -2.1549    3.9074 C   0  0  0  0  0  0  0  0  0  0  0  0
    6.7009   -2.2134    4.0911 C   0  0  0  0  0  0  0  0  0  0  0  0
    4.6152   -1.1462    4.7338 C   0  0  0  0  0  0  0  0  0  0  0  0
    4.6064   -3.4593    4.0955 C   0  0  0  0  0  0  0  0  0  0  0  0
    1.6233    1.3136   -0.2678 C   0  0  0  0  0  0  0  0  0  0  0  0
    1.5424   -1.0229   -0.8576 C   0  0  0  0  0  0  0  0  0  0  0  0
    4.2975   -0.2518   -2.6840 C   0  0  0  0  0  0  0  0  0  0  0  0
    5.4973   -1.7358   -1.1979 C   0  0  0  0  0  0  0  0  0  0  0  0
    5.9735   -1.0730    4.4298 C   0  0  0  0  0  0  0  0  0  0  0  0
    6.0005   -3.4294    4.0220 C   0  0  0  0  0  0  0  0  0  0  0  0
    8.7966   -2.8243    5.1630 C   0  0  0  0  0  0  0  0  0  0  0  0
    8.6803   -2.9041    2.6415 C   0  0  0  0  0  0  0  0  0  0  0  0
    8.7750   -0.7144    3.8161 C   0  0  0  0  0  0  0  0  0  0  0  0
    0.2276    1.3182   -0.1535 C   0  0  0  0  0  0  0  0  0  0  0  0
    0.1739   -1.0524   -0.5720 C   0  0  0  0  0  0  0  0  0  0  0  0
    4.7732   -0.9795   -3.7741 C   0  0  0  0  0  0  0  0  0  0  0  0
    5.9305   -2.4953   -2.2846 C   0  0  0  0  0  0  0  0  0  0  0  0
   -0.4818    0.1218   -0.2332 C   0  0  0  0  0  0  0  0  0  0  0  0
    5.5490   -2.1198   -3.5523 C   0  0  0  0  0  0  0  0  0  0  0  0
  1 30  1  0
  2  4  1  0
  2  5  1  0
  2  8  1  0
  3  6  1  0
  3  7  1  0
  3  9  1  0
  4  6  1  0
  5  7  1  0
  8 10  1  0
  8 11  1  0
  9 12  1  0
 10 17  2  0
 10 18  1  0
 11 19  2  0
 11 20  1  0
 12 15  2  0
 12 16  1  0
 13 14  1  0
 13 23  1  0
 13 24  1  0
 13 25  1  0
 14 21  2  0
 14 22  1  0
 15 21  1  0
 16 22  2  0
 17 26  1  0
 18 27  2  0
 19 28  1  0
 20 29  2  0
 26 30  2  0
 27 30  1  0
 28 31  2  0
 29 31  1  0
M  END
>  <DRUGBANK_ID>  (1) 
DB00354

>  <SECONDARY_ACCESSION_NUMBERS>  (1) 
APRD00723

>  <COMMON_NAME>  (1) 
Buclizine

>  <CAS_NUMBER>  (1) 
82-95-1

>  <UNII>  (1) 
0C94V6X681

>  <SYNONYMS>  (1) 
1-(p-tert-Butylbenzyl)-4-(4-chloro-alpha-phenylbenzyl)piperazine; Buclizina; Buclizine; Buclizinum

$$$$
