
     RDKit          3D

 29 31  0  0  0  0  0  0  0  0999 V2000
    0.4100    0.2378    0.0552 C   0  0  0  0  0  0  0  0  0  0  0  0
    0.2313   -0.4632    1.2665 O   0  0  0  0  0  0  0  0  0  0  0  0
    0.9988   -1.6379    1.3918 N   0  0  0  0  0  0  0  0  0  0  0  0
    1.7892   -2.3588    0.5215 C   0  0  0  0  0  0  0  0  0  0  0  0
    2.0885   -3.5093    0.7983 O   0  0  0  0  0  0  0  0  0  0  0  0
    2.3100   -1.7867   -0.7546 C   0  0  0  0  0  0  0  0  0  0  0  0
    3.0502   -0.5889   -0.6987 C   0  0  0  0  0  0  0  0  0  0  0  0
    3.1897    0.2073   -1.8416 C   0  0  0  0  0  0  0  0  0  0  0  0
    2.8652   -0.3122   -3.0786 C   0  0  0  0  0  0  0  0  0  0  0  0
    2.3533   -1.6008   -3.1543 C   0  0  0  0  0  0  0  0  0  0  0  0
    1.9924   -2.3470   -2.0074 C   0  0  0  0  0  0  0  0  0  0  0  0
    1.2067   -3.5165   -2.1847 N   0  0  0  0  0  0  0  0  0  0  0  0
    1.1046   -4.2775   -3.3831 C   0  0  0  0  0  0  0  0  0  0  0  0
   -0.1803   -4.6332   -3.8452 C   0  0  0  0  0  0  0  0  0  0  0  0
   -0.3260   -5.2785   -5.0765 C   0  0  0  0  0  0  0  0  0  0  0  0
   -1.6021   -5.6000   -5.5807 N   0  0  0  0  0  0  0  0  0  0  0  0
   -1.7550   -6.3112   -6.7287 C   0  0  0  0  0  0  0  0  0  0  0  0
   -1.2798   -7.5614   -7.0501 C   0  0  0  0  0  0  0  0  0  0  0  0
   -1.6102   -7.7649   -8.4026 C   0  0  0  0  0  0  0  0  0  0  0  0
   -1.2756   -8.9508   -9.2266 C   0  0  0  0  0  0  0  0  0  0  0  0
   -2.2851   -6.7253   -8.9086 N   0  0  0  0  0  0  0  0  0  0  0  0
   -2.3615   -5.8451   -7.8745 N   0  0  0  0  0  0  0  0  0  0  0  0
   -2.9944   -4.5467   -8.0897 C   0  0  0  0  0  0  0  0  0  0  0  0
   -2.2462   -3.7041   -9.1239 C   0  0  0  0  0  0  0  0  0  0  0  0
   -4.4595   -4.7122   -8.4915 C   0  0  0  0  0  0  0  0  0  0  0  0
    0.7539   -5.5918   -5.8254 N   0  0  0  0  0  0  0  0  0  0  0  0
    1.9805   -5.2935   -5.3593 C   0  0  0  0  0  0  0  0  0  0  0  0
    2.2149   -4.6696   -4.1517 C   0  0  0  0  0  0  0  0  0  0  0  0
    3.8628   -4.4175   -3.6994 Cl  0  0  0  0  0  0  0  0  0  0  0  0
  1  2  1  0
  2  3  1  0
  3  4  1  0
  4  5  2  0
  4  6  1  0
  6  7  2  0
  6 11  1  0
  7  8  1  0
  8  9  2  0
  9 10  1  0
 10 11  2  0
 11 12  1  0
 12 13  1  0
 13 14  2  0
 13 28  1  0
 14 15  1  0
 15 16  1  0
 15 26  2  0
 16 17  1  0
 17 18  2  0
 17 22  1  0
 18 19  1  0
 19 20  1  0
 19 21  2  0
 21 22  1  0
 22 23  1  0
 23 24  1  0
 23 25  1  0
 26 27  1  0
 27 28  2  0
 28 29  1  0
M  END
>  <DRUGBANK_ID>  (1) 
DB16106

>  <COMMON_NAME>  (1) 
GSK2256098

>  <CAS_NUMBER>  (1) 
1224887-10-8

>  <UNII>  (1) 
R7O0O4110G

$$$$
