
     RDKit          3D

  1  0  0  0  0  0  0  0  0  0999 V2000
    1.0742    0.0525   -0.0418 He  0  0  0  0  0 15  0  0  0  0  0  0
M  END
>  <DRUGBANK_ID>  (1) 
DB09155

>  <COMMON_NAME>  (1) 
Helium

>  <CAS_NUMBER>  (1) 
7440-59-7

>  <UNII>  (1) 
206GF3GB41

>  <SYNONYMS>  (1) 
[He]; atomic helium; Helium

$$$$
