NPE
     RDKit          3D

 20 20  0  0  0  0  0  0  0  0999 V2000
   -4.6386    4.4871   -0.1620 C   0  0  0  0  0  0  0  0  0  0  0  0
   -4.4347    5.9214    0.0207 N   0  0  0  0  0  0  0  0  0  0  0  0
   -5.4078    6.6675   -0.1446 O   0  0  0  0  0  0  0  0  0  0  0  0
   -3.3109    6.3127    0.3844 O   0  0  0  0  0  0  0  0  0  0  0  0
   -3.5819    3.6818    0.1509 C   0  0  0  0  0  0  0  0  0  0  0  0
   -3.8378    2.3341    0.2783 C   0  0  0  0  0  0  0  0  0  0  0  0
   -5.0125    1.6606   -0.1404 C   0  0  0  0  0  0  0  0  0  0  0  0
   -6.0724    2.5009   -0.4674 C   0  0  0  0  0  0  0  0  0  0  0  0
   -5.8906    3.9148   -0.4702 C   0  0  0  0  0  0  0  0  0  0  0  0
   -5.1882    0.2458   -0.2101 O   0  0  0  0  0  0  0  0  0  0  0  0
   -3.8549   -0.8772   -0.3503 P   0  0  0  0  0  0  0  0  0  0  0  0
   -2.8787    0.3174   -0.2182 O   0  0  0  0  0  0  0  0  0  0  0  0
   -3.5509   -0.9810   -1.8601 O   0  0  0  0  0  0  0  0  0  0  0  0
   -5.0087   -2.2890   -0.5064 C   0  0  0  0  0  0  0  0  0  0  0  0
   -4.7560   -3.0977   -1.8039 C   0  0  0  0  0  0  0  0  0  0  0  0
   -3.3504   -3.7356   -1.7999 C   0  0  0  0  0  0  0  0  0  0  0  0
   -3.1395   -4.6508   -0.6057 C   0  0  0  0  0  0  0  0  0  0  0  0
   -4.0532   -5.8346   -0.6699 C   0  0  0  0  0  0  0  0  0  0  0  0
   -3.7045   -6.9994   -0.8477 O   0  0  0  0  0  0  0  0  0  0  0  0
   -5.3552   -5.5305   -0.5303 O   0  0  0  0  0  0  0  0  0  0  0  0
  1  2  1  0
  1  5  2  0
  1  9  1  0
  2  3  1  0
  2  4  2  0
  5  6  1  0
  6  7  2  0
  7  8  1  0
  7 10  1  0
  8  9  2  0
 11 13  1  0
 11 14  1  0
 11 12  2  0
 11 10  1  0
 14 15  1  0
 15 16  1  0
 16 17  1  0
 17 18  1  0
 18 19  2  0
 18 20  1  0
M  CHG  3   2   1   3  -1  13  -1
M  END
>  <DRUGBANK_ID>  (1) 
DB08296

>  <COMMON_NAME>  (1) 
5-(PARA-NITROPHENYL PHOSPHONATE)-PENTANOIC ACID

$$$$
