
     RDKit          3D

 19 19  0  0  0  0  0  0  0  0999 V2000
   -1.3492   -0.0701    0.1682 C   0  0  0  0  0  0  0  0  0  0  0  0
   -0.7259    1.1870    0.2869 C   0  0  0  0  0  0  0  0  0  0  0  0
    0.6568    1.2846    0.3045 C   0  0  0  0  0  0  0  0  0  0  0  0
    1.4044    0.1248    0.3610 C   0  0  0  0  0  0  0  0  0  0  0  0
    0.7555   -1.1030    0.3854 C   0  0  0  0  0  0  0  0  0  0  0  0
   -0.5868   -1.2092    0.1930 N   0  0  0  0  0  0  0  0  0  0  0  0
    0.5006   -3.6500   -1.6066 C   0  0  0  0  0  0  0  0  0  0  0  0
   -0.7795   -3.1876   -1.4047 C   0  0  0  0  0  0  0  0  0  0  0  0
   -1.1845   -2.5634   -0.1042 C   0  0  0  0  0  0  0  0  0  0  0  0
    0.9442   -4.2288   -2.7238 N   0  0  0  0  0  0  0  0  0  0  0  0
    0.0974   -4.2322   -3.7650 C   0  0  0  0  0  0  0  0  0  0  0  0
   -1.2037   -3.9083   -3.6617 N   0  0  0  0  0  0  0  0  0  0  0  0
   -1.6352   -3.4068   -2.4828 C   0  0  0  0  0  0  0  0  0  0  0  0
   -2.8232   -0.1163   -0.1182 C   0  0  0  0  0  0  0  0  0  0  0  0
   -3.0190   -3.3432   -2.3469 N   0  0  0  0  0  0  0  0  0  0  0  0
    0.6791   -4.6803   -5.0841 C   0  0  0  0  0  0  0  0  0  0  0  0
    1.7635   -3.7399   -5.6418 C   0  0  0  0  0  0  0  0  0  0  0  0
    2.9952   -3.6076   -4.7496 C   0  0  0  0  0  0  0  0  0  0  0  0
    0.3152   -0.0945   -3.0608 Cl  0  0  0  0  0  0  0  0  0  0  0  0
  1  2  2  0
  1  6  1  0
  1 14  1  0
  2  3  1  0
  3  4  2  0
  4  5  1  0
  5  6  2  0
  6  9  1  0
  7  8  2  0
  7 10  1  0
  8  9  1  0
  8 13  1  0
 10 11  2  0
 11 12  1  0
 11 16  1  0
 12 13  2  0
 13 15  1  0
 16 17  1  0
 17 18  1  0
M  CHG  2   6   1  19  -1
M  END
>  <DRUGBANK_ID>  (1) 
DB11374

>  <COMMON_NAME>  (1) 
Amprolium

>  <CAS_NUMBER>  (1) 
121-25-5

>  <UNII>  (1) 
71M75T660B

>  <SYNONYMS>  (1) 
1-((4-amino-2-Propyl-5-pyrimidinyl)methyl)-2-picolinium chloride; Amprolio; Amprolium

$$$$
