
     RDKit          3D

 28 31  0  0  1  0  0  0  0  0999 V2000
    2.4988   -0.0151   -0.1243 C   0  0  0  0  0  0  0  0  0  0  0  0
   -1.1475    1.2727    0.2329 C   0  0  0  0  0  0  0  0  0  0  0  0
   -1.8617    0.0293   -0.2677 C   0  0  0  0  0  0  0  0  0  0  0  0
   -0.7249   -5.1989   -1.4340 C   0  0  0  0  0  0  0  0  0  0  0  0
    0.3294    1.2515   -0.1501 C   0  0  0  0  0  0  0  0  0  0  0  0
   -0.1551   -6.3086   -0.8129 C   0  0  0  0  0  0  0  0  0  0  0  0
   -1.1841   -1.2153    0.2843 C   0  0  0  0  0  0  0  0  0  0  0  0
   -0.3361   -3.9168   -1.0634 C   0  0  0  0  0  0  0  0  0  0  0  0
    2.2435   -9.7192    3.3368 C   0  0  0  0  0  0  0  0  0  0  0  0
    3.2097  -10.4824    0.7823 C   0  0  0  0  0  0  0  0  0  0  0  0
    1.0388   -0.0270    0.3363 C   0  0  1  0  0  0  0  0  0  0  0  0
    0.8033   -6.1541    0.2033 C   0  0  0  0  0  0  0  0  0  0  0  0
    2.9736  -10.9188    3.1915 C   0  0  0  0  0  0  0  0  0  0  0  0
    3.4478  -11.2692    1.9177 C   0  0  0  0  0  0  0  0  0  0  0  0
    2.0105   -8.9006    2.2096 C   0  0  0  0  0  0  0  0  0  0  0  0
    2.4799   -9.3075    0.9684 C   0  0  0  0  0  0  0  0  0  0  0  0
    0.2962   -1.3022   -0.1445 C   0  0  1  0  0  0  0  0  0  0  0  0
    0.5813   -3.7112   -0.0298 C   0  0  0  0  0  0  0  0  0  0  0  0
    1.1602   -4.8418    0.5917 C   0  0  0  0  0  0  0  0  0  0  0  0
    3.2582  -11.8183    4.3631 C   0  0  0  0  0  0  0  0  0  0  0  0
    1.3849   -7.3574    0.8224 C   0  0  0  0  0  0  0  0  0  0  0  0
    4.1620  -12.3928    1.7336 F   0  0  0  0  0  0  0  0  0  0  0  0
    2.8570  -11.5779    5.5772 N   0  0  0  0  0  0  0  0  0  0  0  0
    3.9673  -12.9646    4.2223 N   0  0  0  0  0  0  0  0  0  0  0  0
    1.3753   -7.6792    2.1055 N   0  0  0  0  0  0  0  0  0  0  0  0
    2.0632   -8.3221    0.1058 N   0  0  0  0  0  0  0  0  0  0  0  0
    2.1106   -4.6278    1.5637 O   0  0  0  0  0  0  0  0  0  0  0  0
    0.9353   -2.4618    0.4298 O   0  0  0  0  0  0  0  0  0  0  0  0
  3  2  1  0
  5  2  1  0
  6  4  2  0
  7  3  1  0
  8  4  1  0
 11  1  1  6
 11  5  1  0
 12  6  1  0
 13  9  2  0
 14 10  2  0
 14 13  1  0
 15  9  1  0
 16 10  1  0
 16 15  2  0
 17  7  1  0
 17 11  1  0
 17 28  1  1
 18  8  2  0
 19 12  2  0
 19 18  1  0
 20 13  1  0
 21 12  1  0
 22 14  1  0
 23 20  2  0
 24 20  1  0
 25 15  1  0
 25 21  2  0
 26 16  1  0
 26 21  1  0
 27 19  1  0
 28 18  1  0
M  END
>  <DRUGBANK_ID>  (1) 
DB03555

>  <SECONDARY_ACCESSION_NUMBERS>  (1) 
EXPT01016

>  <COMMON_NAME>  (1) 
CRA_11092

$$$$
