
     RDKit          3D

 30 33  0  0  0  0  0  0  0  0999 V2000
   -1.2201    1.3173    0.0367 N   0  0  0  0  0  0  0  0  0  0  0  0
   -2.3691    0.6121    0.0407 C   0  0  0  0  0  0  0  0  0  0  0  0
   -2.3457   -0.7600    0.0472 C   0  0  0  0  0  0  0  0  0  0  0  0
   -1.1507   -1.4711    0.0197 C   0  0  0  0  0  0  0  0  0  0  0  0
    0.0518   -0.7549    0.0438 C   0  0  0  0  0  0  0  0  0  0  0  0
    1.3156   -1.3870    0.0194 C   0  0  0  0  0  0  0  0  0  0  0  0
    2.4885   -0.6461    0.0120 C   0  0  0  0  0  0  0  0  0  0  0  0
    2.4102    0.7351    0.0038 C   0  0  0  0  0  0  0  0  0  0  0  0
    1.1582    1.3678    0.0128 C   0  0  0  0  0  0  0  0  0  0  0  0
   -0.0373    0.6495    0.0430 C   0  0  0  0  0  0  0  0  0  0  0  0
   -1.3046   -2.8274   -0.2056 N   0  0  0  0  0  0  0  0  0  0  0  0
   -1.2748   -3.1982   -1.6166 C   0  0  0  0  0  0  0  0  0  0  0  0
   -2.2787   -4.3322   -1.8055 C   0  0  0  0  0  0  0  0  0  0  0  0
   -1.9024   -5.5123   -0.8928 C   0  0  0  0  0  0  0  0  0  0  0  0
   -1.6592   -5.0374    0.5492 C   0  0  0  0  0  0  0  0  0  0  0  0
   -0.7740   -3.8199    0.6893 C   0  0  0  0  0  0  0  0  0  0  0  0
   -2.9325   -6.5712   -0.9777 N   0  0  0  0  0  0  0  0  0  0  0  0
   -2.6738   -7.8316   -0.2441 C   0  0  0  0  0  0  0  0  0  0  0  0
   -2.6706   -7.6977    1.2924 C   0  0  0  0  0  0  0  0  0  0  0  0
   -1.3694   -8.4650   -0.7517 C   0  0  0  0  0  0  0  0  0  0  0  0
   -3.8357   -8.8055   -0.5294 C   0  0  0  0  0  0  0  0  0  0  0  0
   -3.5473    1.3180   -0.0169 N   0  0  0  0  0  0  0  0  0  0  0  0
   -4.8769    0.7413   -0.0110 C   0  0  0  0  0  0  0  0  0  0  0  0
   -5.6235    1.0889    1.2539 C   0  0  0  0  0  0  0  0  0  0  0  0
   -5.7457    2.4236    1.6624 C   0  0  0  0  0  0  0  0  0  0  0  0
   -6.4188    2.7450    2.8403 C   0  0  0  0  0  0  0  0  0  0  0  0
   -6.9945    1.7353    3.6074 C   0  0  0  0  0  0  0  0  0  0  0  0
   -6.9179    0.4063    3.1983 C   0  0  0  0  0  0  0  0  0  0  0  0
   -6.2338    0.0831    2.0241 C   0  0  0  0  0  0  0  0  0  0  0  0
   -7.8014    2.1351    5.0729 Cl  0  0  0  0  0  0  0  0  0  0  0  0
  1  2  2  0
  1 10  1  0
  2  3  1  0
  2 22  1  0
  3  4  2  0
  4  5  1  0
  4 11  1  0
  5  6  1  0
  5 10  2  0
  6  7  2  0
  7  8  1  0
  8  9  2  0
  9 10  1  0
 11 12  1  0
 11 16  1  0
 12 13  1  0
 13 14  1  0
 14 15  1  0
 14 17  1  0
 15 16  1  0
 17 18  1  0
 18 19  1  0
 18 21  1  0
 18 20  1  0
 22 23  1  0
 23 24  1  0
 24 25  2  0
 24 29  1  0
 25 26  1  0
 26 27  2  0
 27 28  1  0
 27 30  1  0
 28 29  2  0
M  END
>  <DRUGBANK_ID>  (1) 
DB16458

>  <COMMON_NAME>  (1) 
Ezurpimtrostat

>  <CAS_NUMBER>  (1) 
1914148-72-3

>  <UNII>  (1) 
MS6LGW5JFK

>  <SYNONYMS>  (1) 
Chloroquine analog

$$$$
