MPE
     RDKit          3D

 18 19  0  0  0  0  0  0  0  0999 V2000
    2.1633    2.7125   -2.4568 O   0  0  0  0  0  0  0  0  0  0  0  0
    2.2286    1.5826   -1.9529 C   0  0  0  0  0  0  0  0  0  0  0  0
    2.3504    0.5108   -2.7780 O   0  0  0  0  0  0  0  0  0  0  0  0
    2.4620    1.2928   -0.4731 C   0  0  2  0  0  0  0  0  0  0  0  0
    2.1763   -0.0742    0.0337 N   0  0  0  0  0  0  0  0  0  0  0  0
    3.1335   -0.9704   -0.6324 O   0  0  0  0  0  0  0  0  0  0  0  0
    4.4232   -1.0220    0.0509 C   0  0  0  0  0  0  0  0  0  0  0  0
    5.4536    0.0875   -0.3259 C   0  0  0  0  0  0  0  0  0  0  0  0
    5.5712    1.6443    0.6409 S   0  0  0  0  0  0  0  0  0  0  0  0
    2.3447    2.4019    0.5712 C   0  0  0  0  0  0  0  0  0  0  0  0
    2.0167    2.3051    1.9204 C   0  0  0  0  0  0  0  0  0  0  0  0
    2.1488    3.5439    2.5105 N   0  0  0  0  0  0  0  0  0  0  0  0
    2.6094    4.4662    1.5990 C   0  0  0  0  0  0  0  0  0  0  0  0
    2.8906    5.8406    1.7281 C   0  0  0  0  0  0  0  0  0  0  0  0
    2.8228    3.7711    0.4088 C   0  0  0  0  0  0  0  0  0  0  0  0
    3.4905    4.4703   -0.6274 C   0  0  0  0  0  0  0  0  0  0  0  0
    3.7355    5.8388   -0.5408 C   0  0  0  0  0  0  0  0  0  0  0  0
    3.4071    6.5228    0.6165 C   0  0  0  0  0  0  0  0  0  0  0  0
  1  2  2  0
  2  3  1  0
  4 10  1  0
  4  5  1  1
  4  2  1  0
  5  6  1  0
  6  7  1  0
  7  8  1  0
  8  9  1  0
 10 11  2  0
 10 15  1  0
 11 12  1  0
 12 13  1  0
 13 14  1  0
 13 15  2  0
 14 18  2  0
 15 16  1  0
 16 17  2  0
 17 18  1  0
M  END
>  <DRUGBANK_ID>  (1) 
DB03455

>  <SECONDARY_ACCESSION_NUMBERS>  (1) 
EXPT02219

>  <COMMON_NAME>  (1) 
(1H-indol-3-yl)-(2-mercapto-ethoxyimino)-acetic acid

$$$$
