
     RDKit          3D

 29 33  0  0  0  0  0  0  0  0999 V2000
    2.4862   -0.0278   -0.2937 C   0  0  0  0  0  0  0  0  0  0  0  0
   -1.8994   -1.5212    0.6475 C   0  0  0  0  0  0  0  0  0  0  0  0
    1.4394   -8.2459    5.8820 C   0  0  0  0  0  0  0  0  0  0  0  0
   -2.4082   -0.5843    1.7311 C   0  0  0  0  0  0  0  0  0  0  0  0
   -0.5347   -0.7873    1.0179 C   0  0  0  0  0  0  0  0  0  0  0  0
    2.1529   -7.5715    4.8919 C   0  0  0  0  0  0  0  0  0  0  0  0
    0.6331   -7.5297    6.7657 C   0  0  0  0  0  0  0  0  0  0  0  0
    0.4260   -1.0346    4.0802 C   0  0  0  0  0  0  0  0  0  0  0  0
    0.4362   -2.5694   -0.5489 C   0  0  0  0  0  0  0  0  0  0  0  0
   -0.7056    1.0645   -1.0882 C   0  0  0  0  0  0  0  0  0  0  0  0
   -0.9831   -0.4662    2.3294 C   0  0  0  0  0  0  0  0  0  0  0  0
   -0.2432   -1.4847    3.0440 C   0  0  0  0  0  0  0  0  0  0  0  0
    2.0645   -6.1862    4.8004 C   0  0  0  0  0  0  0  0  0  0  0  0
    0.5643   -6.1441    6.6713 C   0  0  0  0  0  0  0  0  0  0  0  0
    0.9425   -2.0018    4.9537 C   0  0  0  0  0  0  0  0  0  0  0  0
    0.2769   -0.9180   -1.1876 C   0  0  0  0  0  0  0  0  0  0  0  0
    1.2833   -5.4589    5.6971 C   0  0  0  0  0  0  0  0  0  0  0  0
    1.2305   -4.0211    5.6450 C   0  0  0  0  0  0  0  0  0  0  0  0
    0.0897   -2.8630    2.4599 C   0  0  0  0  0  0  0  0  0  0  0  0
    2.7698   -5.5619    3.8435 F   0  0  0  0  0  0  0  0  0  0  0  0
   -0.2252   -5.4805    7.5294 F   0  0  0  0  0  0  0  0  0  0  0  0
   -0.8527   -0.2577   -1.5510 N   0  0  0  0  0  0  0  0  0  0  0  0
    0.5622    1.3588   -0.7679 N   0  0  0  0  0  0  0  0  0  0  0  0
    1.3948   -1.9093    6.1603 N   0  0  0  0  0  0  0  0  0  0  0  0
    1.5635   -3.1894    6.6158 N   0  0  0  0  0  0  0  0  0  0  0  0
    0.4650   -3.8092    3.2795 N   0  0  0  0  0  0  0  0  0  0  0  0
    1.1864    0.1292   -0.8963 N   0  0  0  0  0  0  0  0  0  0  0  0
    0.8136   -3.3158    4.5394 N   0  0  0  0  0  0  0  0  0  0  0  0
    0.0595   -3.1393    1.0710 O   0  0  0  0  0  0  0  0  0  0  0  0
  4  2  1  0
  5  2  1  0
  6  3  2  0
  7  3  1  0
 11  4  1  0
 11  5  1  0
 12  8  2  0
 12 11  1  0
 13  6  1  0
 14  7  2  0
 15  8  1  0
 16  9  1  0
 17 13  2  0
 17 14  1  0
 18 17  1  0
 19 12  1  0
 20 13  1  0
 21 14  1  0
 22 10  1  0
 22 16  2  0
 23 10  2  0
 24 15  2  0
 25 18  2  0
 25 24  1  0
 26 19  2  0
 27  1  1  0
 27 16  1  0
 27 23  1  0
 28 15  1  0
 28 18  1  0
 28 26  1  0
 29  9  1  0
 29 19  1  0
M  END
>  <DRUGBANK_ID>  (1) 
DB13993

>  <COMMON_NAME>  (1) 
MRK-409

>  <CAS_NUMBER>  (1) 
233275-76-8

>  <UNII>  (1) 
9VSE02330I

$$$$
