8CA
     RDKit          3D

 23 26  0  0  0  0  0  0  0  0999 V2000
    1.0841   -0.0703    0.0320 O   0  0  0  0  0  0  0  0  0  0  0  0
    2.2972   -0.1016    0.0153 C   0  0  0  0  0  0  0  0  0  0  0  0
    3.0201    0.1666   -1.0961 O   0  0  0  0  0  0  0  0  0  0  0  0
    3.0923   -0.5526    1.1802 C   0  0  0  0  0  0  0  0  0  0  0  0
    2.6706   -1.7788    1.7500 C   0  0  0  0  0  0  0  0  0  0  0  0
    3.2568   -2.3056    2.8933 C   0  0  0  0  0  0  0  0  0  0  0  0
    4.2884   -1.6175    3.5068 C   0  0  0  0  0  0  0  0  0  0  0  0
    4.7432   -0.4008    2.9643 C   0  0  0  0  0  0  0  0  0  0  0  0
    5.7663    0.4560    3.4011 C   0  0  0  0  0  0  0  0  0  0  0  0
    6.6637    0.3228    4.5934 C   0  0  0  0  0  0  0  0  0  0  0  0
    7.8787    1.2526    4.4747 C   0  0  0  0  0  0  0  0  0  0  0  0
    7.4083    2.6433    4.1060 C   0  0  0  0  0  0  0  0  0  0  0  0
    6.7810    2.6319    2.7182 C   0  0  0  0  0  0  0  0  0  0  0  0
    5.8030    1.5259    2.5417 C   0  0  0  0  0  0  0  0  0  0  0  0
    4.7957    1.3942    1.5934 N   0  0  0  0  0  0  0  0  0  0  0  0
    4.1539    0.1567    1.8046 C   0  0  0  0  0  0  0  0  0  0  0  0
    4.5369    2.3443    0.4889 C   0  0  0  0  0  0  0  0  0  0  0  0
    4.0139    3.6998    0.8790 C   0  0  0  0  0  0  0  0  0  0  0  0
    4.8089    4.6426    1.5146 C   0  0  0  0  0  0  0  0  0  0  0  0
    4.2613    5.6878    2.2373 C   0  0  0  0  0  0  0  0  0  0  0  0
    2.9689    6.0653    1.9412 C   0  0  0  0  0  0  0  0  0  0  0  0
    2.2478    5.3399    0.9946 C   0  0  0  0  0  0  0  0  0  0  0  0
    2.7242    4.1069    0.5455 C   0  0  0  0  0  0  0  0  0  0  0  0
  1  2  2  0
  2  4  1  0
  3  2  1  0
  4  5  2  0
  5  6  1  0
  7  6  2  0
  8  7  1  0
  9  8  1  0
  9 10  1  0
 11 10  1  0
 12 11  1  0
 13 12  1  0
 13 14  1  0
 14  9  2  0
 15 14  1  0
 15 16  1  0
 16  4  1  0
 16  8  2  0
 17 15  1  0
 18 17  1  0
 18 19  2  0
 20 19  1  0
 21 20  2  0
 22 21  1  0
 22 23  2  0
 23 18  1  0
M  END
>  <DRUGBANK_ID>  (1) 
DB07283

>  <COMMON_NAME>  (1) 
9-benzyl-2,3,4,9-tetrahydro-1H-carbazole-8-carboxylic acid

$$$$
