
     RDKit          3D

  8  7  0  0  1  0  0  0  0  0999 V2000
    2.9491   -5.5954    1.5145 S   0  0  0  0  0  0  0  0  0  0  0  0
    2.4138   -3.9979    2.2128 C   0  0  0  0  0  0  0  0  0  0  0  0
    2.9550   -2.7597    1.4717 C   0  0  1  0  0  0  0  0  0  0  0  0
    2.3382   -2.5134    0.0694 C   0  0  2  0  0  0  0  0  0  0  0  0
    0.7993   -2.5364    0.0150 C   0  0  0  0  0  0  0  0  0  0  0  0
   -0.0408   -1.3385    1.1028 S   0  0  0  0  0  0  0  0  0  0  0  0
    2.7766   -1.6208    2.3290 O   0  0  0  0  0  0  0  0  0  0  0  0
    2.8285   -3.4530   -0.8939 O   0  0  0  0  0  0  0  0  0  0  0  0
  2  1  1  0
  3  2  1  0
  3  7  1  1
  4  8  1  6
  4  5  1  0
  4  3  1  0
  6  5  1  0
M  END
>  <DRUGBANK_ID>  (1) 
DB04447

>  <SECONDARY_ACCESSION_NUMBERS>  (1) 
EXPT01291

>  <COMMON_NAME>  (1) 
1,4-Dithiothreitol

>  <CAS_NUMBER>  (1) 
3483-12-3

>  <UNII>  (1) 
T8ID5YZU6Y

>  <SYNONYMS>  (1) 
2,3-dihydroxy-1,4-dithiobutane

$$$$
