
     RDKit          3D

 23 23  0  0  0  0  0  0  0  0999 V2000
    1.6642    0.3307   -0.0538 C   0  0  0  0  0  0  0  0  0  0  0  0
    0.6177   -0.3929   -0.1882 C   0  0  0  0  0  0  0  0  0  0  0  0
   -0.6507    0.1051    0.2474 C   0  0  0  0  0  0  0  0  0  0  0  0
   -1.1793    1.3948    0.0810 C   0  0  0  0  0  0  0  0  0  0  0  0
   -0.0979    2.1953    0.0157 C   0  0  0  0  0  0  0  0  0  0  0  0
    1.3185    1.7022   -0.0231 C   0  0  0  0  0  0  0  0  0  0  0  0
    2.9219   -0.2051    0.1619 O   0  0  0  0  0  0  0  0  0  0  0  0
   -2.7784    1.8698    0.1594 C   0  0  0  0  0  0  0  0  0  0  0  0
    3.1814   -1.6629    0.2971 C   0  0  0  0  0  0  0  0  0  0  0  0
    2.6467   -2.5001    1.5243 C   0  0  0  0  0  0  0  0  0  0  0  0
    1.1408   -2.8467    1.4934 C   0  0  0  0  0  0  0  0  0  0  0  0
    0.8287   -3.7312    0.2954 N   0  0  0  0  0  0  0  0  0  0  0  0
   -0.5987   -3.9034   -0.0209 C   0  0  0  0  0  0  0  0  0  0  0  0
   -1.1871   -2.5998   -0.2589 C   0  0  0  0  0  0  0  0  0  0  0  0
   -1.0150   -4.4931   -1.3618 C   0  0  0  0  0  0  0  0  0  0  0  0
   -3.4292    1.8036    1.4306 O   0  0  0  0  0  0  0  0  0  0  0  0
   -3.2543    0.5670    2.1910 C   0  0  0  0  0  0  0  0  0  0  0  0
   -4.0684   -0.8482    1.9998 C   0  0  0  0  0  0  0  0  0  0  0  0
   -3.9994   -1.8631    0.9350 O   0  0  0  0  0  0  0  0  0  0  0  0
   -4.1860   -1.4660   -0.4579 C   0  0  0  0  0  0  0  0  0  0  0  0
   -5.4470   -0.7272   -0.6324 C   0  0  0  0  0  0  0  0  0  0  0  0
   -3.0035   -0.7190   -0.7997 C   0  0  0  0  0  0  0  0  0  0  0  0
    3.3053   -3.7843    1.5491 O   0  0  0  0  0  0  0  0  0  0  0  0
  1  2  2  0
  1  6  1  0
  1  7  1  0
  2  3  1  0
  3  4  2  0
  4  5  1  0
  4  8  1  0
  5  6  2  0
  7  9  1  0
  8 16  1  0
  9 10  1  0
 10 11  1  0
 10 23  1  0
 11 12  1  0
 12 13  1  0
 13 14  1  0
 13 15  1  0
 16 17  1  0
 17 18  1  0
 18 19  1  0
 19 20  1  0
 20 21  1  0
 20 22  1  0
M  END
>  <DRUGBANK_ID>  (1) 
DB00612

>  <SECONDARY_ACCESSION_NUMBERS>  (1) 
APRD00257

>  <COMMON_NAME>  (1) 
Bisoprolol

>  <CAS_NUMBER>  (1) 
66722-44-9

>  <UNII>  (1) 
Y41JS2NL6U

>  <SYNONYMS>  (1) 
(+-)-1-((alpha-(2-Isopropoxyethoxy)-p-tolyl)oxy)-3-(isopropylamino)-2-propanol; (RS)-1-(4-(2-Isopropoxyethoxymethyl)phenoxy)-3-(isopropylamino)-2-propanol; Bisoprolol; Bisoprololum

$$$$
