
     RDKit          3D

 38 39  0  0  0  0  0  0  0  0999 V2000
   -0.7842    1.0654    1.6167 C   0  0  0  0  0  0  0  0  0  0  0  0
   -1.8418    2.0637    1.7070 C   0  0  0  0  0  0  0  0  0  0  0  0
   -2.2856    2.0426    3.1278 C   0  0  2  0  0  0  0  0  0  0  0  0
   -3.7252    1.6619    3.0290 C   0  0  1  0  0  0  0  0  0  0  0  0
   -3.8398    0.2230    3.2455 N   0  0  0  0  0  0  0  0  0  0  0  0
   -4.6096    2.2513    3.9316 N   0  0  0  0  0  0  0  0  0  0  0  0
   -4.0967    3.1009    4.9409 C   0  0  1  0  0  0  0  0  0  0  0  0
   -4.4632    2.4024    6.1276 N   0  0  0  0  0  0  0  0  0  0  0  0
   -2.7154    3.5228    5.0008 N   0  0  0  0  0  0  0  0  0  0  0  0
   -1.9390    3.1040    4.0885 C   0  0  0  0  0  0  0  0  0  0  0  0
   -0.6317    3.4207    4.1477 O   0  0  0  0  0  0  0  0  0  0  0  0
    0.5546    1.3445    2.2638 C   0  0  0  0  0  0  0  0  0  0  0  0
    1.2555   -0.0339    2.3418 C   0  0  2  0  0  0  0  0  0  0  0  0
    1.0747   -0.7745    0.9721 C   0  0  0  0  0  0  0  0  0  0  0  0
    0.9611   -2.1475    0.9571 C   0  0  0  0  0  0  0  0  0  0  0  0
    0.2605   -2.8271   -0.0297 C   0  0  0  0  0  0  0  0  0  0  0  0
   -0.2259   -2.1427   -1.1348 C   0  0  0  0  0  0  0  0  0  0  0  0
   -0.0559   -0.7684   -1.1993 C   0  0  0  0  0  0  0  0  0  0  0  0
    0.7604   -0.1327   -0.2509 C   0  0  0  0  0  0  0  0  0  0  0  0
   -0.6371   -2.9472   -2.3054 C   0  0  0  0  0  0  0  0  0  0  0  0
   -0.9662   -2.2675   -3.4552 N   0  0  0  0  0  0  0  0  0  0  0  0
   -1.1965   -2.9948   -4.6929 C   0  0  1  0  0  0  0  0  0  0  0  0
   -2.5932   -2.6274   -5.2173 C   0  0  0  0  0  0  0  0  0  0  0  0
   -2.8778   -1.1387   -5.4645 C   0  0  0  0  0  0  0  0  0  0  0  0
   -2.2152   -0.5450   -6.6866 C   0  0  0  0  0  0  0  0  0  0  0  0
   -2.6243   -0.5735   -7.8101 O   0  0  0  0  0  0  0  0  0  0  0  0
   -1.0175    0.0069   -6.4054 O   0  0  0  0  0  0  0  0  0  0  0  0
   -0.0570   -2.8654   -5.7149 C   0  0  0  0  0  0  0  0  0  0  0  0
    0.1911   -3.6489   -6.6149 O   0  0  0  0  0  0  0  0  0  0  0  0
    0.5861   -1.6814   -5.6908 O   0  0  0  0  0  0  0  0  0  0  0  0
   -0.5787   -4.1706   -2.2475 O   0  0  0  0  0  0  0  0  0  0  0  0
    0.6654   -0.7012    3.7501 C   0  0  0  0  0  0  0  0  0  0  0  0
    1.0922   -2.1553    4.0251 C   0  0  0  0  0  0  0  0  0  0  0  0
    2.4075   -2.3172    3.7841 F   0  0  0  0  0  0  0  0  0  0  0  0
    0.8544   -2.4840    5.3185 F   0  0  0  0  0  0  0  0  0  0  0  0
    0.3764   -3.0484    3.3083 F   0  0  0  0  0  0  0  0  0  0  0  0
    1.1062    0.1457    4.8391 O   0  0  0  0  0  0  0  0  0  0  0  0
   -0.7711   -0.6580    3.8645 O   0  0  0  0  0  0  0  0  0  0  0  0
  1  2  1  0
  1 12  1  0
  3  2  1  6
  3  4  1  0
  3 10  1  0
  4  5  1  1
  4  6  1  0
  6  7  1  0
  7  9  1  0
  7  8  1  1
  9 10  2  0
 10 11  1  0
 13 32  1  0
 13 14  1  0
 13 12  1  6
 14 15  2  0
 14 19  1  0
 15 16  1  0
 16 17  2  0
 17 18  1  0
 17 20  1  0
 18 19  2  0
 20 21  1  0
 20 31  2  0
 21 22  1  0
 22 23  1  6
 22 28  1  0
 23 24  1  0
 24 25  1  0
 25 26  2  0
 25 27  1  0
 28 29  2  0
 28 30  1  0
 32 33  1  0
 32 37  1  0
 32 38  1  0
 33 34  1  0
 33 35  1  0
 33 36  1  0
M  END
>  <DRUGBANK_ID>  (1) 
DB03546

>  <SECONDARY_ACCESSION_NUMBERS>  (1) 
EXPT01969

>  <COMMON_NAME>  (1) 
N-({4-[(1R)-4-[(2R,4S,5S)-2,4-diamino-6-oxohexahydropyrimidin-5-yl]-1-(2,2,2-trifluoro-1,1-dihydroxyethyl)butyl]phenyl}carbonyl)-L-glutamic acid

$$$$
