SB6
     RDKit          3D

 22 25  0  0  0  0  0  0  0  0999 V2000
    2.1913   -0.0378   -0.0409 F   0  0  0  0  0  0  0  0  0  0  0  0
    0.1877    1.1867    0.0560 C   0  0  0  0  0  0  0  0  0  0  0  0
    0.8494   -0.0284    0.0197 C   0  0  0  0  0  0  0  0  0  0  0  0
    0.1602   -1.2371    0.0398 C   0  0  0  0  0  0  0  0  0  0  0  0
   -1.2371   -1.2352    0.1054 C   0  0  0  0  0  0  0  0  0  0  0  0
   -1.9148   -0.0196    0.1693 C   0  0  0  0  0  0  0  0  0  0  0  0
   -1.2027    1.1913    0.1488 C   0  0  0  0  0  0  0  0  0  0  0  0
   -2.1347    1.2363   -4.1312 C   0  0  0  0  0  0  0  0  0  0  0  0
   -2.3042    2.5519   -4.3782 N   0  0  0  0  0  0  0  0  0  0  0  0
   -2.8907    3.2600   -3.4041 C   0  0  0  0  0  0  0  0  0  0  0  0
   -3.2797    2.6986   -2.2020 C   0  0  0  0  0  0  0  0  0  0  0  0
   -3.3873    1.3092   -2.1024 C   0  0  0  0  0  0  0  0  0  0  0  0
   -2.7013    0.5668   -3.0564 C   0  0  0  0  0  0  0  0  0  0  0  0
   -5.3740    0.4309   -0.6434 N   0  0  0  0  0  0  0  0  0  0  0  0
   -4.0271    0.6344   -0.9545 C   0  0  0  0  0  0  0  0  0  0  0  0
   -3.3613    0.0078    0.0881 C   0  0  0  0  0  0  0  0  0  0  0  0
   -4.2094   -0.5901    0.9733 N   0  0  0  0  0  0  0  0  0  0  0  0
   -5.4127   -0.2976    0.5275 C   0  0  0  0  0  0  0  0  0  0  0  0
   -6.6100    0.8055   -1.3519 C   0  0  0  0  0  0  0  0  0  0  0  0
   -6.9034    2.2889   -1.4738 C   0  0  0  0  0  0  0  0  0  0  0  0
   -6.0192    3.0419   -2.4097 C   0  0  0  0  0  0  0  0  0  0  0  0
   -5.9629    3.3022   -0.9063 C   0  0  0  0  0  0  0  0  0  0  0  0
  1  3  1  0
  2  3  2  0
  2  7  1  0
  3  4  1  0
  4  5  2  0
  5  6  1  0
  6  7  2  0
  6 16  1  0
  8  9  2  0
  8 13  1  0
  9 10  1  0
 10 11  2  0
 11 12  1  0
 12 13  2  0
 12 15  1  0
 14 15  1  0
 14 18  1  0
 14 19  1  0
 15 16  2  0
 16 17  1  0
 17 18  2  0
 19 20  1  0
 20 21  1  0
 20 22  1  0
 21 22  1  0
M  END
>  <DRUGBANK_ID>  (1) 
DB08522

>  <COMMON_NAME>  (1) 
4-(4-FLUOROPHENYL)-1-CYCLOROPROPYLMETHYL-5-(4-PYRIDYL)-IMIDAZOLE

$$$$
