MQU
     RDKit          3D

 22 24  0  0  0  0  0  0  0  0999 V2000
    0.9330   -0.0438   -0.0049 C   0  0  0  0  0  0  0  0  0  0  0  0
    0.4825   -0.2186   -1.4578 C   0  0  0  0  0  0  0  0  0  0  0  0
    1.0037   -1.4240   -2.0348 O   0  0  0  0  0  0  0  0  0  0  0  0
    2.4278   -1.4547   -2.0924 C   0  0  0  0  0  0  0  0  0  0  0  0
    0.5411   -1.2943    0.8216 C   0  0  0  0  0  0  0  0  0  0  0  0
    1.0409   -1.2672    2.1652 O   0  0  0  0  0  0  0  0  0  0  0  0
    2.4589   -1.2502    2.2380 C   0  0  0  0  0  0  0  0  0  0  0  0
    1.9220    6.4779   -0.2950 N   0  0  0  0  0  0  0  0  0  0  0  0
    0.5489    7.1381    1.5134 N   0  0  0  0  0  0  0  0  0  0  0  0
    0.4909    1.2212    0.5737 N   0  0  0  0  0  0  0  0  0  0  0  0
    1.7250    8.6995    0.2910 N   0  0  0  0  0  0  0  0  0  0  0  0
   -0.6696    5.6690    2.7609 N   0  0  0  0  0  0  0  0  0  0  0  0
    1.5895    5.1974   -0.0813 C   0  0  0  0  0  0  0  0  0  0  0  0
    1.3852    7.3923    0.5115 C   0  0  0  0  0  0  0  0  0  0  0  0
    0.2153    5.8541    1.7258 C   0  0  0  0  0  0  0  0  0  0  0  0
    0.7118    4.8033    0.9374 C   0  0  0  0  0  0  0  0  0  0  0  0
    0.3892    3.4063    1.0941 C   0  0  0  0  0  0  0  0  0  0  0  0
   -0.4288    2.6516    1.9821 C   0  0  0  0  0  0  0  0  0  0  0  0
   -0.3600    1.3337    1.6319 C   0  0  0  0  0  0  0  0  0  0  0  0
    0.9746    2.4751    0.2242 C   0  0  0  0  0  0  0  0  0  0  0  0
    1.8741    2.8704   -0.7742 C   0  0  0  0  0  0  0  0  0  0  0  0
    2.1475    4.2365   -0.9088 C   0  0  0  0  0  0  0  0  0  0  0  0
  1  2  1  0
  1  5  1  0
  1 10  1  0
  2  3  1  0
  3  4  1  0
  5  6  1  0
  6  7  1  0
  8 13  2  0
  8 14  1  0
  9 14  2  0
  9 15  1  0
 10 19  1  0
 10 20  1  0
 11 14  1  0
 12 15  1  0
 13 16  1  0
 13 22  1  0
 15 16  2  0
 16 17  1  0
 17 18  1  0
 17 20  2  0
 18 19  2  0
 20 21  1  0
 21 22  2  0
M  END
>  <DRUGBANK_ID>  (1) 
DB08203

>  <COMMON_NAME>  (1) 
7-[2-METHOXY-1-(METHOXYMETHYL)ETHYL]-7H-PYRROLO[3,2-F] QUINAZOLINE-1,3-DIAMINE

$$$$
