
     RDKit          3D

 20 21  0  0  0  0  0  0  0  0999 V2000
    1.1129   -0.0066   -0.1996 C   0  0  0  0  0  0  0  0  0  0  0  0
    0.2967    0.7662    0.8582 C   0  0  2  0  0  0  0  0  0  0  0  0
   -1.1549    0.4999    1.2646 C   0  0  1  0  0  0  0  0  0  0  0  0
   -1.6289    0.7074    2.6894 C   0  0  0  0  0  0  0  0  0  0  0  0
   -0.8222    1.6882    0.3902 C   0  0  0  0  0  0  0  0  0  0  0  0
   -1.4168    1.6549   -1.2655 Cl  0  0  0  0  0  0  0  0  0  0  0  0
   -0.8954    3.3305    1.0583 Cl  0  0  0  0  0  0  0  0  0  0  0  0
    1.1384    1.1310    2.0104 C   0  0  0  0  0  0  0  0  0  0  0  0
    1.6524   -0.2022    2.5902 C   0  0  0  0  0  0  0  0  0  0  0  0
    0.5591   -0.7780   -0.9555 O   0  0  0  0  0  0  0  0  0  0  0  0
    2.5435    0.0681   -0.2114 N   0  0  0  0  0  0  0  0  0  0  0  0
    3.6362    0.7209    0.6377 C   0  0  1  0  0  0  0  0  0  0  0  0
    4.4945   -0.2003    1.5117 C   0  0  0  0  0  0  0  0  0  0  0  0
    4.2763   -1.5829    1.5532 C   0  0  0  0  0  0  0  0  0  0  0  0
    4.7955   -2.3555    2.5943 C   0  0  0  0  0  0  0  0  0  0  0  0
    5.6105   -1.7736    3.5620 C   0  0  0  0  0  0  0  0  0  0  0  0
    6.3129   -2.7585    4.7828 Cl  0  0  0  0  0  0  0  0  0  0  0  0
    5.8511   -0.4044    3.5494 C   0  0  0  0  0  0  0  0  0  0  0  0
    5.2751    0.3809    2.5476 C   0  0  0  0  0  0  0  0  0  0  0  0
    4.3534    1.8192   -0.1131 C   0  0  0  0  0  0  0  0  0  0  0  0
  1 10  2  0
  1 11  1  0
  2  1  1  0
  2  3  1  0
  2  5  1  0
  2  8  1  1
  3  4  1  1
  5  3  1  0
  5  6  1  0
  5  7  1  0
  8  9  1  0
 11 12  1  0
 12 13  1  0
 12 20  1  6
 13 14  2  0
 13 19  1  0
 14 15  1  0
 15 16  2  0
 16 17  1  0
 18 16  1  0
 19 18  2  0
M  END
>  <DRUGBANK_ID>  (1) 
DB02946

>  <SECONDARY_ACCESSION_NUMBERS>  (1) 
EXPT01898

>  <COMMON_NAME>  (1) 
Carpropamide

>  <CAS_NUMBER>  (1) 
127640-90-8

>  <UNII>  (1) 
4748U7LZ6E

>  <SYNONYMS>  (1) 
(1S,3R)-2,2-dichloro-N-[(1R)-1-(4-chlorophenyl)ethyl]-1-ethyl-3-methylcyclopropanecarboxamide

$$$$
