
     RDKit          3D

 33 36  0  0  0  0  0  0  0  0999 V2000
   -2.8280   -2.2218    8.1333 O   0  0  0  0  0  0  0  0  0  0  0  0
    1.0287   -2.0892    3.7235 O   0  0  0  0  0  0  0  0  0  0  0  0
   -3.1522   -0.6161   10.0440 O   0  0  0  0  0  0  0  0  0  0  0  0
   -1.0951   -3.1832   10.2104 O   0  0  0  0  0  0  0  0  0  0  0  0
   -6.3699   -5.2731    2.9467 O   0  0  0  0  0  0  0  0  0  0  0  0
   -3.1399   -3.5146   11.1834 O   0  0  0  0  0  0  0  0  0  0  0  0
   -0.5198   -5.8796    6.9418 O   0  0  0  0  0  0  0  0  0  0  0  0
   -1.0707   -3.9092    7.8412 O   0  0  0  0  0  0  0  0  0  0  0  0
   -0.0039   -1.3913    7.1721 C   0  0  2  0  0  0  0  0  0  0  0  0
   -1.7610   -1.1699    8.1338 C   0  0  1  0  0  0  0  0  0  0  0  0
   -1.0388   -1.0758    6.2475 C   0  0  2  0  0  0  0  0  0  0  0  0
   -1.2523   -2.8018    4.3925 C   0  0  1  0  0  0  0  0  0  0  0  0
   -1.6710   -1.4932    5.0056 C   0  0  1  0  0  0  0  0  0  0  0  0
   -2.4433   -3.1983    3.0323 C   0  0  1  0  0  0  0  0  0  0  0  0
    0.7318   -2.6975    6.2292 C   0  0  0  0  0  0  0  0  0  0  0  0
    0.3044   -2.9388    4.6087 C   0  0  2  0  0  0  0  0  0  0  0  0
   -2.5461    0.0903    7.5604 C   0  0  0  0  0  0  0  0  0  0  0  0
   -1.3186    0.3562    6.8932 C   0  0  0  0  0  0  0  0  0  0  0  0
   -2.0922   -1.0688    9.5941 C   0  0  0  0  0  0  0  0  0  0  0  0
   -3.2934   -3.9849    3.9988 C   0  0  0  0  0  0  0  0  0  0  0  0
   -3.0357   -1.8460    5.5732 C   0  0  0  0  0  0  0  0  0  0  0  0
    0.9589   -0.2102    6.2846 C   0  0  0  0  0  0  0  0  0  0  0  0
   -3.7658   -2.7886    4.7973 C   0  0  0  0  0  0  0  0  0  0  0  0
   -4.1515   -2.4694    2.4864 C   0  0  0  0  0  0  0  0  0  0  0  0
   -1.5475   -4.3082    2.4098 C   0  0  0  0  0  0  0  0  0  0  0  0
   -4.0390   -4.9846    3.4422 C   0  0  0  0  0  0  0  0  0  0  0  0
   -1.1101   -1.7663   10.4232 C   0  0  0  0  0  0  0  0  0  0  0  0
   -5.3993   -3.0808    2.8291 C   0  0  0  0  0  0  0  0  0  0  0  0
   -5.3816   -4.5173    3.1084 C   0  0  0  0  0  0  0  0  0  0  0  0
   -2.1912   -3.9253   10.5501 C   0  0  0  0  0  0  0  0  0  0  0  0
   -2.0431   -5.3877   10.0947 C   0  0  0  0  0  0  0  0  0  0  0  0
   -2.2950   -5.7520    8.6214 C   0  0  0  0  0  0  0  0  0  0  0  0
   -1.2526   -5.1657    7.7671 C   0  0  0  0  0  0  0  0  0  0  0  0
  3 19  2  0
  4 27  1  0
  4 30  1  0
  5 29  2  0
  6 30  2  0
  7 33  1  0
  8 33  2  0
  9 10  1  0
  9 11  1  0
  9 15  1  0
  9 22  1  1
 10 17  1  0
 10 19  1  0
 10  1  1  6
 11 13  1  0
 11 18  1  6
 12 13  1  0
 12 14  1  0
 12 16  1  6
 13 21  1  1
 14 20  1  0
 14 24  1  0
 14 25  1  6
 15 16  1  0
 16  2  1  6
 17 18  1  0
 19 27  1  0
 20 23  1  0
 20 26  2  0
 21 23  1  0
 24 28  2  0
 26 29  1  0
 28 29  1  0
 30 31  1  0
 31 32  1  0
 32 33  1  0
M  END
>  <DRUGBANK_ID>  (1) 
DB14633

>  <COMMON_NAME>  (1) 
Prednisolone hemisuccinate

>  <CAS_NUMBER>  (1) 
2920-86-7

>  <UNII>  (1) 
G7080T74ON

>  <SYNONYMS>  (1) 
(+)-prednisolone hemisuccinate; Prednisolonbisuccinat; Prednisolone 21-hemisuccinate; Prednisolone 21-succinate; Prednisolone bisuccinate; Prednisolone hemisuccinate; Prednisolone hydrogen succinate; Prednisolone succinate

$$$$
