3290
     RDKit          3D

 22 24  0  0  1  0  0  0  0  0999 V2000
    0.1436    1.6655   -0.4647 S   0  0  0  0  0  0  0  0  0  0  0  0
   -2.1997   -1.1317    3.1660 N   0  0  0  0  0  0  0  0  0  0  0  0
    0.0619   -1.3001    0.5508 N   0  0  0  0  0  0  0  0  0  0  0  0
   -0.7751   -1.5905    3.1859 C   0  0  0  0  0  0  0  0  0  0  0  0
   -0.1050   -2.1829    1.8039 C   0  0  0  0  0  0  0  0  0  0  0  0
   -0.6481   -2.6687    4.2982 C   0  0  0  0  0  0  0  0  0  0  0  0
   -2.8896   -0.7382    4.3935 C   0  0  0  0  0  0  0  0  0  0  0  0
   -2.4051   -0.0457    2.2316 C   0  0  0  0  0  0  0  0  0  0  0  0
   -1.0272   -0.9221   -0.2951 C   0  0  0  0  0  0  0  0  0  0  0  0
    1.3358   -0.7601    0.2829 C   0  0  0  0  0  0  0  0  0  0  0  0
   -1.1534    0.4453   -0.6989 C   0  0  0  0  0  0  0  0  0  0  0  0
    1.5079    0.5849   -0.1242 C   0  0  0  0  0  0  0  0  0  0  0  0
   -2.3060    0.4962    5.0606 C   0  0  0  0  0  0  0  0  0  0  0  0
   -1.5413    1.2052    2.2882 C   0  0  0  0  0  0  0  0  0  0  0  0
    2.4480   -1.6073    0.1254 C   0  0  0  0  0  0  0  0  0  0  0  0
   -2.1475   -1.7582   -0.4818 C   0  0  0  0  0  0  0  0  0  0  0  0
   -2.4228    0.9861   -0.9833 C   0  0  0  0  0  0  0  0  0  0  0  0
    2.7336    1.0967   -0.5132 C   0  0  0  0  0  0  0  0  0  0  0  0
    3.6338   -1.1253   -0.4152 C   0  0  0  0  0  0  0  0  0  0  0  0
   -3.3987   -1.2062   -0.8222 C   0  0  0  0  0  0  0  0  0  0  0  0
    3.8028    0.2252   -0.7138 C   0  0  0  0  0  0  0  0  0  0  0  0
   -3.5450    0.1678   -1.0182 C   0  0  0  0  0  0  0  0  0  0  0  0
  1 11  1  0
  1 12  1  0
  2  4  1  0
  2  7  1  0
  2  8  1  0
  3  5  1  0
  3  9  1  0
  3 10  1  0
  4  5  1  0
  4  6  1  0
  7 13  1  0
  8 14  1  0
  9 11  2  0
  9 16  1  0
 10 12  2  0
 10 15  1  0
 11 17  1  0
 12 18  1  0
 15 19  2  0
 16 20  2  0
 17 22  2  0
 18 21  2  0
 19 21  1  0
 20 22  1  0
M  END
>  <DRUGBANK_ID>  (1) 
DB00392

>  <SECONDARY_ACCESSION_NUMBERS>  (1) 
APRD00729

>  <COMMON_NAME>  (1) 
Profenamine

>  <CAS_NUMBER>  (1) 
522-00-9

>  <UNII>  (1) 
7WI4P02YN1

>  <SYNONYMS>  (1) 
10-(2-diethylaminopropyl)phenothiazine; 10-[2-(diethylamino)-1-propyl]phenothiazine; 10-[2-(diethylamino)-2-methylethyl]phenothiazine; 10-[2-(diethylamino)propyl]phenothiazine; 2-diethylamino-1-propyl-N-dibenzoparathiazine; Ethopropazine; N,N-diethyl-1-(10H-phenothiazin-10-yl)-2-propanamine; N,N-diethyl-α-methyl-10H-phenothiazine-10-ethanamine; Profenamina; Profénamine; Profenamine; Profenaminum

$$$$
