
     RDKit          3D

 33 36  0  0  0  0  0  0  0  0999 V2000
    7.0393   -4.5923    3.8236 C   0  0  1  0  0  0  0  0  0  0  0  0
    6.6661   -9.3817    5.7320 C   0  0  1  0  0  0  0  0  0  0  0  0
    7.5404   -4.2453    1.9932 C   0  0  1  0  0  0  0  0  0  0  0  0
    5.9716   -7.0994    4.2829 C   0  0  2  0  0  0  0  0  0  0  0  0
    6.4942   -5.9288    3.4053 C   0  0  2  0  0  0  0  0  0  0  0  0
    7.0487   -7.7256    5.1657 C   0  0  1  0  0  0  0  0  0  0  0  0
    5.2279   -9.7737    5.5507 C   0  0  0  0  0  0  0  0  0  0  0  0
    8.1081   -5.1660    5.1248 C   0  0  0  0  0  0  0  0  0  0  0  0
    7.4343   -6.3493    6.0414 C   0  0  2  0  0  0  0  0  0  0  0  0
    7.1532  -11.0903    4.9361 C   0  0  0  0  0  0  0  0  0  0  0  0
    6.7824   -3.7004    0.4121 C   0  0  0  0  0  0  0  0  0  0  0  0
    5.1351  -10.9228    6.3145 C   0  0  0  0  0  0  0  0  0  0  0  0
    8.7311   -5.1718    2.1427 C   0  0  0  0  0  0  0  0  0  0  0  0
    7.8679   -6.3674    2.7663 C   0  0  0  0  0  0  0  0  0  0  0  0
    5.5035   -8.2460    3.4078 C   0  0  0  0  0  0  0  0  0  0  0  0
    6.5966  -12.3669    5.2106 C   0  0  0  0  0  0  0  0  0  0  0  0
    5.1098  -12.0918    5.3969 C   0  0  0  0  0  0  0  0  0  0  0  0
    9.2816   -2.5929   -1.2870 C   0  0  0  0  0  0  0  0  0  0  0  0
    4.6856   -9.3195    4.1945 C   0  0  0  0  0  0  0  0  0  0  0  0
    7.1582   -2.3211   -0.1521 C   0  0  0  0  0  0  0  0  0  0  0  0
    6.2136   -4.3797   -0.4875 O   0  0  0  0  0  0  0  0  0  0  0  0
    8.0130   -2.1117   -1.3041 O   0  0  0  0  0  0  0  0  0  0  0  0
    9.7251   -3.2382   -0.3456 O   0  0  0  0  0  0  0  0  0  0  0  0
    4.2295  -12.3742    4.6994 O   0  0  0  0  0  0  0  0  0  0  0  0
    7.4653   -5.4361    0.8174 O   0  0  0  0  0  0  0  0  0  0  0  0
   10.1167   -2.2308   -2.5342 C   0  0  0  0  0  0  0  0  0  0  0  0
    9.6264   -2.8618   -3.8569 C   0  0  0  0  0  0  0  0  0  0  0  0
    6.3315   -3.5266    4.8723 C   0  0  0  0  0  0  0  0  0  0  0  0
    8.4066   -6.7737    6.9760 O   0  0  0  0  0  0  0  0  0  0  0  0
    6.1488   -8.7615    7.2811 C   0  0  0  0  0  0  0  0  0  0  0  0
    8.2392   -2.3197   -4.2131 C   0  0  0  0  0  0  0  0  0  0  0  0
   10.5789   -2.5163   -5.0220 C   0  0  0  0  0  0  0  0  0  0  0  0
    9.5799   -4.3873   -3.7093 C   0  0  0  0  0  0  0  0  0  0  0  0
  1 28  1  1
  2  6  1  0
  2 30  1  1
  3  1  1  0
  3 11  1  0
  3 25  1  6
  4  5  1  0
  5  1  1  0
  6  9  1  1
  6  4  1  0
  7  2  1  0
  8  1  1  0
  9  8  1  0
  9 29  1  1
 10  2  1  0
 12  7  2  0
 13  3  1  0
 13 14  1  0
  5 14  1  1
  4 15  1  6
 16 10  2  0
 17 16  1  0
 17 12  1  0
 18 22  1  0
 19 15  1  0
 19  7  1  0
 20 11  1  0
 21 11  2  0
 22 20  1  0
 23 18  2  0
 24 17  2  0
 26 18  1  0
 27 26  1  0
 31 27  1  0
 32 27  1  0
 33 27  1  0
M  END
>  <DRUGBANK_ID>  (1) 
DB14632

>  <SECONDARY_ACCESSION_NUMBERS>  (1) 
DBSALT000786; DBSALT001635

>  <COMMON_NAME>  (1) 
Prednisolone tebutate

>  <CAS_NUMBER>  (1) 
7681-14-3

>  <UNII>  (1) 
1V7A1U282K

>  <SYNONYMS>  (1) 
Anhydrous prednisolone tebutate; Prednisolone 21-tert-butylacetate; Prednisolone butylacetate; Prednisolone tebutate; Prednisolone tertiary butylacetate

$$$$
