273
     RDKit          3D

 22 24  0  0  1  0  0  0  0  0999 V2000
    1.2686   -0.7104   -0.2966 S   0  0  0  0  0  0  0  0  0  0  0  0
    0.6833    1.3117    1.3609 O   0  0  0  0  0  0  0  0  0  0  0  0
    0.4782    4.3186   -0.3530 O   0  0  0  0  0  0  0  0  0  0  0  0
   -0.8814    2.7466    0.9286 O   0  0  0  0  0  0  0  0  0  0  0  0
   -0.0265    3.3346    2.9439 O   0  0  0  0  0  0  0  0  0  0  0  0
    0.7326    5.5026    3.1648 O   0  0  0  0  0  0  0  0  0  0  0  0
    0.3967    0.5109   -0.9947 O   0  0  0  0  0  0  0  0  0  0  0  0
    1.0706   -1.8817   -1.0914 O   0  0  0  0  0  0  0  0  0  0  0  0
    1.1229   -0.8775    1.1441 O   0  0  0  0  0  0  0  0  0  0  0  0
    2.8208   -0.2127   -0.4474 N   0  0  0  0  0  0  0  0  0  0  0  0
    1.2820    2.5747    1.0818 C   0  0  2  0  0  0  0  0  0  0  0  0
    1.2372    3.4538    2.2922 C   0  0  1  0  0  0  0  0  0  0  0  0
    0.3044    2.9707    0.0662 C   0  0  2  0  0  0  0  0  0  0  0  0
    1.2792    4.9161    1.9565 C   0  0  1  0  0  0  0  0  0  0  0  0
    0.4110    5.2640    0.7209 C   0  0  0  0  0  0  0  0  0  0  0  0
   -0.7710    1.3590    1.2035 C   0  0  0  0  0  0  0  0  0  0  0  0
   -0.2121    4.5297    3.6603 C   0  0  0  0  0  0  0  0  0  0  0  0
    0.6904    1.9328   -1.1535 C   0  0  0  0  0  0  0  0  0  0  0  0
   -1.8730    1.2919    0.0732 C   0  0  0  0  0  0  0  0  0  0  0  0
   -1.2643    0.0645    1.9834 C   0  0  0  0  0  0  0  0  0  0  0  0
    0.0612    3.9974    5.0511 C   0  0  0  0  0  0  0  0  0  0  0  0
   -1.6650    5.0034    3.5554 C   0  0  0  0  0  0  0  0  0  0  0  0
  1  7  1  0
  1  8  2  0
  1  9  2  0
  1 10  1  0
 11  2  1  1
  2 16  1  0
  3 13  1  0
  3 15  1  0
  4 13  1  0
  4 16  1  0
 12  5  1  6
  5 17  1  0
  6 14  1  0
  6 17  1  0
  7 18  1  0
 11 12  1  0
 11 13  1  0
 12 14  1  0
 13 18  1  6
 14 15  1  6
 16 19  1  0
 16 20  1  0
 17 21  1  0
 17 22  1  0
M  END
>  <DRUGBANK_ID>  (1) 
DB00273

>  <SECONDARY_ACCESSION_NUMBERS>  (1) 
APRD00237

>  <COMMON_NAME>  (1) 
Topiramate

>  <CAS_NUMBER>  (1) 
97240-79-4

>  <UNII>  (1) 
0H73WJJ391

>  <SYNONYMS>  (1) 
2,3:4,5-bis-O-(1-methylethylidene)-β-D-fructopyranose sulfamate; 2,3:4,5-di-O-isopropylidene-β-D-fructopyranose sulfamate; Tipiramate; Tipiramato; Topiramate; Topiramato; Topiramatum; TPM

$$$$
