
     RDKit          3D

  1  0  0  0  0  0  0  0  0  0999 V2000
    0.9763    0.0655   -0.0717 Ag  0  0  0  0  0 15  0  0  0  0  0  0
M  CHG  1   1   1
M  END
>  <DRUGBANK_ID>  (1) 
DB14521

>  <COMMON_NAME>  (1) 
Silver cation

>  <CAS_NUMBER>  (1) 
14701-21-4

>  <UNII>  (1) 
57N7B0K90A

>  <SYNONYMS>  (1) 
Silver, ion (Ag1+)

$$$$
