FR2
     RDKit          3D

 19 20  0  0  0  0  0  0  0  0999 V2000
   -1.1942    0.0312   -0.0625 C   0  0  0  0  0  0  0  0  0  0  0  0
   -0.3333   -1.0362   -0.0494 N   0  0  0  0  0  0  0  0  0  0  0  0
    0.9326   -0.5353    0.0538 C   0  0  0  0  0  0  0  0  0  0  0  0
    0.9372    0.7717    0.0225 N   0  0  0  0  0  0  0  0  0  0  0  0
   -0.3890    1.1609   -0.0224 C   0  0  0  0  0  0  0  0  0  0  0  0
   -0.7841    2.5699   -0.0046 C   0  0  0  0  0  0  0  0  0  0  0  0
    0.0144    3.5084    0.0066 O   0  0  0  0  0  0  0  0  0  0  0  0
   -2.1254    2.8318    0.0035 N   0  0  0  0  0  0  0  0  0  0  0  0
   -0.6939   -2.4525   -0.0254 C   0  0  1  0  0  0  0  0  0  0  0  0
   -0.1940   -3.1877   -1.2748 C   0  0  0  0  0  0  0  0  0  0  0  0
    1.2270   -3.2503   -1.3285 O   0  0  0  0  0  0  0  0  0  0  0  0
   -0.1881   -3.1419    1.2567 C   0  0  0  0  0  0  0  0  0  0  0  0
   -0.7468   -2.4806    2.5176 C   0  0  0  0  0  0  0  0  0  0  0  0
   -2.2503   -2.5548    2.5681 C   0  0  0  0  0  0  0  0  0  0  0  0
   -2.8841   -3.8036    2.5876 C   0  0  0  0  0  0  0  0  0  0  0  0
   -4.2692   -3.8894    2.6741 C   0  0  0  0  0  0  0  0  0  0  0  0
   -5.0315   -2.7272    2.7592 C   0  0  0  0  0  0  0  0  0  0  0  0
   -4.4106   -1.4792    2.7399 C   0  0  0  0  0  0  0  0  0  0  0  0
   -3.0271   -1.3909    2.6023 C   0  0  0  0  0  0  0  0  0  0  0  0
  1  2  1  0
  1  5  2  0
  2  3  1  0
  3  4  2  0
  4  5  1  0
  5  6  1  0
  6  7  2  0
  6  8  1  0
  9  2  1  0
  9 10  1  6
  9 12  1  0
 10 11  1  0
 12 13  1  0
 13 14  1  0
 14 15  2  0
 14 19  1  0
 15 16  1  0
 16 17  2  0
 17 18  1  0
 18 19  2  0
M  END
>  <DRUGBANK_ID>  (1) 
DB02096

>  <SECONDARY_ACCESSION_NUMBERS>  (1) 
EXPT01483

>  <COMMON_NAME>  (1) 
FR221647

>  <CAS_NUMBER>  (1) 
256461-28-6

>  <UNII>  (1) 
4Z97161Z8Y

>  <SYNONYMS>  (1) 
1-[(2R)-1-hydroxy-4-phenylbutan-2-yl]-1H-imidazole-4-carboxamide

$$$$
