
     RDKit          3D

 25 26  0  0  0  0  0  0  0  0999 V2000
   -0.8558   -0.2512    0.3411 N   0  0  0  0  0  0  0  0  0  0  0  0
   -0.3523    1.0093    0.2655 C   0  0  0  0  0  0  0  0  0  0  0  0
    0.9676    1.2439    0.0387 C   0  0  0  0  0  0  0  0  0  0  0  0
    1.7669    0.1160   -0.0807 C   0  0  0  0  0  0  0  0  0  0  0  0
    1.2162   -1.1779   -0.1742 C   0  0  0  0  0  0  0  0  0  0  0  0
   -0.1422   -1.3523   -0.0495 C   0  0  0  0  0  0  0  0  0  0  0  0
   -0.8978   -2.8302   -0.2058 C   0  0  0  0  0  0  0  0  0  0  0  0
   -2.0993   -2.7643    1.2175 C   0  0  0  0  0  0  0  0  0  0  0  0
   -3.3861   -1.4877    1.3766 C   0  0  0  0  0  0  0  0  0  0  0  0
   -4.4088   -1.2430    0.1740 N   0  0  0  0  0  0  0  0  0  0  0  0
   -5.4322   -0.2341    0.3028 C   0  0  0  0  0  0  0  0  0  0  0  0
   -4.8058    1.1577    0.3655 C   0  0  0  0  0  0  0  0  0  0  0  0
   -6.3220   -0.4151   -0.9700 C   0  0  0  0  0  0  0  0  0  0  0  0
   -3.8630   -0.9814   -1.2116 C   0  0  0  0  0  0  0  0  0  0  0  0
   -2.9264    0.2175   -1.6209 C   0  0  0  0  0  0  0  0  0  0  0  0
   -2.9421   -1.9717   -0.9908 C   0  0  0  0  0  0  0  0  0  0  0  0
   -1.3996   -3.2824   -2.0278 C   0  0  0  0  0  0  0  0  0  0  0  0
   -1.9964   -4.4790   -2.3813 N   0  0  0  0  0  0  0  0  0  0  0  0
    0.0500   -3.9403    0.0909 C   0  0  0  0  0  0  0  0  0  0  0  0
   -1.4928   -2.5455   -3.0127 O   0  0  0  0  0  0  0  0  0  0  0  0
    0.7515   -4.0137    1.2827 C   0  0  0  0  0  0  0  0  0  0  0  0
    1.6413   -5.0517    1.4096 C   0  0  0  0  0  0  0  0  0  0  0  0
    1.6586   -6.1075    0.4833 C   0  0  0  0  0  0  0  0  0  0  0  0
    0.8617   -6.0801   -0.6400 C   0  0  0  0  0  0  0  0  0  0  0  0
    0.3012   -4.8913   -0.8961 C   0  0  0  0  0  0  0  0  0  0  0  0
  1  2  2  0
  1  6  1  0
  2  3  1  0
  3  4  2  0
  4  5  1  0
  5  6  2  0
  6  7  1  0
  7  8  1  0
  7 17  1  0
  7 19  1  0
  8  9  1  0
  9 10  1  0
 10 11  1  0
 10 14  1  0
 11 12  1  0
 11 13  1  0
 14 15  1  0
 14 16  1  0
 17 18  1  0
 17 20  2  0
 19 21  2  0
 19 25  1  0
 21 22  1  0
 22 23  2  0
 23 24  1  0
 24 25  2  0
M  END
>  <DRUGBANK_ID>  (1) 
DB00280

>  <SECONDARY_ACCESSION_NUMBERS>  (1) 
APRD00507

>  <COMMON_NAME>  (1) 
Disopyramide

>  <CAS_NUMBER>  (1) 
3737-09-5

>  <UNII>  (1) 
GFO928U8MQ

>  <SYNONYMS>  (1) 
Disopiramida; Disopyramide; Disopyramidum

$$$$
