
     RDKit          3D

 17 18  0  0  0  0  0  0  0  0999 V2000
   -2.4765   -0.0764    0.0104 C   0  0  0  0  0  0  0  0  0  0  0  0
    3.6676    4.8588   -1.6530 C   0  0  0  0  0  0  0  0  0  0  0  0
    1.3528   -3.5151    0.0030 C   0  0  0  0  0  0  0  0  0  0  0  0
    0.6250    4.4153    2.8607 C   0  0  0  0  0  0  0  0  0  0  0  0
   -0.2692   -1.2492   -0.0056 C   0  0  0  0  0  0  0  0  0  0  0  0
    2.1772    4.5141    0.4263 C   0  0  0  0  0  0  0  0  0  0  0  0
   -0.9788   -0.0686    0.0348 C   0  0  0  0  0  0  0  0  0  0  0  0
    2.7859    4.0683   -0.7604 C   0  0  0  0  0  0  0  0  0  0  0  0
    1.1051   -1.1489   -0.0466 C   0  0  0  0  0  0  0  0  0  0  0  0
    1.4111    3.4649    0.8771 C   0  0  0  0  0  0  0  0  0  0  0  0
    0.9746    1.1442   -0.0149 C   0  0  0  0  0  0  0  0  0  0  0  0
   -0.3763    1.1320    0.0797 N   0  0  0  0  0  0  0  0  0  0  0  0
    1.7422    0.0341   -0.1031 N   0  0  0  0  0  0  0  0  0  0  0  0
    2.5041    2.7862   -1.0157 N   0  0  0  0  0  0  0  0  0  0  0  0
    1.6170    2.4262   -0.0299 N   0  0  0  0  0  0  0  0  0  0  0  0
    1.9537   -2.2252   -0.0248 O   0  0  0  0  0  0  0  0  0  0  0  0
    0.6507    3.3038    1.9709 O   0  0  0  0  0  0  0  0  0  0  0  0
  7  1  1  0
  7  5  2  0
  8  2  1  0
  8  6  1  0
  9  5  1  0
 10  6  2  0
 12  7  1  0
 12 11  2  0
 13  9  2  0
 13 11  1  0
 14  8  2  0
 15 10  1  0
 15 11  1  0
 15 14  1  0
 16  3  1  0
 16  9  1  0
 17  4  1  0
 17 10  1  0
M  END
>  <DRUGBANK_ID>  (1) 
DB08991

>  <COMMON_NAME>  (1) 
Epirizole

>  <CAS_NUMBER>  (1) 
18694-40-1

>  <UNII>  (1) 
3B46O2FH8I

>  <SYNONYMS>  (1) 
4-methoxy-2-(5-methoxy-3-methylpyrazol-1-yl)-6-methylpyrimidine; Epirizol; Epirizole; Epirizolum; Mepirizol; Methopyrimazole; Polihexanid

$$$$
