
     RDKit          3D

 31 32  0  0  0  0  0  0  0  0999 V2000
    1.0863   -0.0099   -0.0411 C   0  0  0  0  0  0  0  0  0  0  0  0
    0.6083    0.1878    1.2861 O   0  0  0  0  0  0  0  0  0  0  0  0
    0.2784   -0.9160    2.0266 C   0  0  0  0  0  0  0  0  0  0  0  0
    0.3318   -2.2463    1.5966 C   0  0  0  0  0  0  0  0  0  0  0  0
   -0.0856   -3.2937    2.4383 C   0  0  0  0  0  0  0  0  0  0  0  0
   -0.5483   -2.9857    3.7212 C   0  0  0  0  0  0  0  0  0  0  0  0
   -0.5794   -1.6722    4.1707 C   0  0  0  0  0  0  0  0  0  0  0  0
   -0.1669   -0.6527    3.3282 C   0  0  0  0  0  0  0  0  0  0  0  0
   -0.2134    0.6194    3.8290 O   0  0  0  0  0  0  0  0  0  0  0  0
   -0.0134   -4.6784    1.9463 C   0  0  0  0  0  0  0  0  0  0  0  0
   -0.3950   -5.7539    2.6511 C   0  0  0  0  0  0  0  0  0  0  0  0
   -0.3319   -7.1516    2.1623 C   0  0  0  0  0  0  0  0  0  0  0  0
   -0.6449   -8.0522    2.9427 O   0  0  0  0  0  0  0  0  0  0  0  0
    0.0852   -7.4466    0.7478 C   0  0  0  0  0  0  0  0  0  0  0  0
   -0.7874   -6.7890   -0.2934 C   0  0  0  0  0  0  0  0  0  0  0  0
   -0.3214   -5.9846   -1.1023 O   0  0  0  0  0  0  0  0  0  0  0  0
   -2.2400   -7.0866   -0.3638 C   0  0  0  0  0  0  0  0  0  0  0  0
   -2.8387   -8.0066    0.3982 C   0  0  0  0  0  0  0  0  0  0  0  0
   -4.2755   -8.2569    0.3520 C   0  0  0  0  0  0  0  0  0  0  0  0
   -5.0408   -8.4783   -0.7867 C   0  0  0  0  0  0  0  0  0  0  0  0
   -6.4450   -8.7553   -0.7022 C   0  0  0  0  0  0  0  0  0  0  0  0
   -7.1521   -8.8386    0.5365 C   0  0  0  0  0  0  0  0  0  0  0  0
   -6.2864   -8.6300    1.6708 C   0  0  0  0  0  0  0  0  0  0  0  0
   -4.9113   -8.3404    1.5629 C   0  0  0  0  0  0  0  0  0  0  0  0
   -6.4540   -8.6647    3.0453 O   0  0  0  0  0  0  0  0  0  0  0  0
   -7.7569   -8.9827    3.2801 C   0  0  0  0  0  0  0  0  0  0  0  0
   -8.5590   -9.1298    0.3559 O   0  0  0  0  0  0  0  0  0  0  0  0
   -9.8333   -9.2679    1.4554 S   0  0  0  0  0  0  0  0  0  0  0  0
   -9.7014  -10.4962    2.2374 O   0  0  0  0  0  0  0  0  0  0  0  0
  -10.1051   -8.0067    2.0970 O   0  0  0  0  0  0  0  0  0  0  0  0
  -11.2480   -9.5580    0.7566 O   0  0  0  0  0  0  0  0  0  0  0  0
  1  2  1  0
  2  3  1  0
  3  4  2  0
  3  8  1  0
  4  5  1  0
  5  6  2  0
  5 10  1  0
  6  7  1  0
  7  8  2  0
  8  9  1  0
 10 11  2  0
 11 12  1  0
 12 13  2  0
 12 14  1  0
 14 15  1  0
 15 16  2  0
 15 17  1  0
 17 18  2  0
 18 19  1  0
 19 20  2  0
 19 24  1  0
 20 21  1  0
 21 22  2  0
 22 23  1  0
 22 27  1  0
 23 24  2  0
 23 25  1  0
 25 26  1  0
 27 28  1  0
 28 29  2  0
 28 30  2  0
 28 31  1  0
M  END
>  <DRUGBANK_ID>  (1) 
DB14635

>  <SECONDARY_ACCESSION_NUMBERS>  (1) 
DBSALT002044

>  <COMMON_NAME>  (1) 
Curcumin sulfate

>  <CAS_NUMBER>  (1) 
339286-19-0

>  <UNII>  (1) 
160DHE331M

>  <SYNONYMS>  (1) 
Curcumin monosulfate; Curcumin sulphate

$$$$
