
     RDKit          3D

 15 14  0  0  1  0  0  0  0  0999 V2000
   -5.5776   -0.0214    5.0631 C   0  0  0  0  0  0  0  0  0  0  0  0
   -5.0259   -1.3660    5.5403 C   0  0  0  0  0  0  0  0  0  0  0  0
   -4.5150   -2.1881    4.3883 C   0  0  0  0  0  0  0  0  0  0  0  0
   -3.3567   -1.5313    3.6912 C   0  0  0  0  0  0  0  0  0  0  0  0
   -2.1564   -1.2067    4.6018 C   0  0  0  0  0  0  0  0  0  0  0  0
   -1.4987   -2.4903    5.0615 C   0  0  0  0  0  0  0  0  0  0  0  0
   -0.9384   -3.3302    3.8896 C   0  0  2  0  0  0  0  0  0  0  0  0
   -1.2780   -2.8488    2.4768 C   0  0  0  0  0  0  0  0  0  0  0  0
   -0.3194   -3.1022    1.3890 C   0  0  0  0  0  0  0  0  0  0  0  0
   -0.6012   -3.5783    0.3162 O   0  0  0  0  0  0  0  0  0  0  0  0
    0.8667   -2.5199    1.6362 O   0  0  0  0  0  0  0  0  0  0  0  0
   -4.5687    0.9365    4.4116 C   0  0  0  0  0  0  0  0  0  0  0  0
   -5.1054    2.2364    3.8952 C   0  0  0  0  0  0  0  0  0  0  0  0
   -5.5984    3.0409    5.0491 C   0  0  0  0  0  0  0  0  0  0  0  0
   -1.4675   -4.6537    4.0474 O   0  0  0  0  0  0  0  0  0  0  0  0
  1 12  1  0
  2  1  1  0
  3  2  1  0
  4  3  1  0
  5  4  1  0
  6  5  1  0
  7 15  1  1
  7  8  1  0
  7  6  1  0
  9  8  1  0
 10  9  2  0
 11  9  1  0
 12 13  1  0
 13 14  1  0
M  END
>  <DRUGBANK_ID>  (1) 
DB07930

>  <COMMON_NAME>  (1) 
(3R)-3-HYDROXYDODECANOIC ACID

$$$$
