972
     RDKit          3D

 27 30  0  0  1  0  0  0  0  0999 V2000
   -2.1271    0.0111   -0.0037 Cl  0  0  0  0  0  0  0  0  0  0  0  0
    6.0660   -2.6790    4.3867 O   0  0  0  0  0  0  0  0  0  0  0  0
    2.1337   -6.4654    1.8764 N   0  0  0  0  0  0  0  0  0  0  0  0
    4.8795   -2.7825    2.3816 N   0  0  0  0  0  0  0  0  0  0  0  0
    4.3014   -2.0902    1.3213 N   0  0  0  0  0  0  0  0  0  0  0  0
    4.2338   -4.0389    2.8198 C   0  0  0  0  0  0  0  0  0  0  0  0
    2.8104   -3.7154    3.2902 C   0  0  0  0  0  0  0  0  0  0  0  0
    4.3389   -5.2799    1.9164 C   0  0  0  0  0  0  0  0  0  0  0  0
    1.7658   -4.0087    2.2195 C   0  0  0  0  0  0  0  0  0  0  0  0
    3.4725   -6.4310    2.4877 C   0  0  0  0  0  0  0  0  0  0  0  0
    1.2223   -5.4230    2.3716 C   0  0  0  0  0  0  0  0  0  0  0  0
    5.6593   -2.1420    3.3468 C   0  0  0  0  0  0  0  0  0  0  0  0
    1.5010   -7.7705    2.0740 C   0  0  0  0  0  0  0  0  0  0  0  0
    5.9559   -0.7260    3.1488 C   0  0  0  0  0  0  0  0  0  0  0  0
    4.5188   -0.8092    1.1775 C   0  0  0  0  0  0  0  0  0  0  0  0
    5.3687   -0.0336    2.1034 C   0  0  0  0  0  0  0  0  0  0  0  0
    3.8935   -0.0754   -0.0157 C   0  0  0  0  0  0  0  0  0  0  0  0
    6.7949   -0.0659    4.0525 C   0  0  0  0  0  0  0  0  0  0  0  0
    5.5873    1.3443    1.9954 C   0  0  0  0  0  0  0  0  0  0  0  0
    2.3868   -0.0225   -0.0049 C   0  0  0  0  0  0  0  0  0  0  0  0
    6.9200    1.3170    3.9962 C   0  0  0  0  0  0  0  0  0  0  0  0
    6.2580    2.0280    3.0047 C   0  0  0  0  0  0  0  0  0  0  0  0
    1.6919    1.1969    0.0015 C   0  0  0  0  0  0  0  0  0  0  0  0
    1.6612   -1.2149   -0.0517 C   0  0  0  0  0  0  0  0  0  0  0  0
    0.2944    1.2081   -0.0099 C   0  0  0  0  0  0  0  0  0  0  0  0
    0.2709   -1.2087   -0.0389 C   0  0  0  0  0  0  0  0  0  0  0  0
   -0.4082    0.0038   -0.0168 C   0  0  0  0  0  0  0  0  0  0  0  0
  1 27  1  0
  2 12  2  0
  3 10  1  0
  3 11  1  0
  3 13  1  0
  4  5  1  0
  4  6  1  0
  4 12  1  0
  5 15  2  0
  6  7  1  0
  6  8  1  0
  7  9  1  0
  8 10  1  0
  9 11  1  0
 12 14  1  0
 14 16  2  0
 14 18  1  0
 15 16  1  0
 15 17  1  0
 16 19  1  0
 17 20  1  0
 18 21  2  0
 19 22  2  0
 20 23  2  0
 20 24  1  0
 21 22  1  0
 23 25  1  0
 24 26  2  0
 25 27  2  0
 26 27  1  0
M  END
>  <DRUGBANK_ID>  (1) 
DB00972

>  <SECONDARY_ACCESSION_NUMBERS>  (1) 
APRD00813

>  <COMMON_NAME>  (1) 
Azelastine

>  <CAS_NUMBER>  (1) 
58581-89-8

>  <UNII>  (1) 
ZQI909440X

>  <SYNONYMS>  (1) 
4-(p-Chlorobenzyl)-2-(hexahydro-1-methyl-1H-azepin-4-yl)-1-(2H)-phthalazinone; Azelastina; Azelastine; Az√©lastine; Azelastinum

$$$$
