
     RDKit          3D

 10 10  0  0  0  0  0  0  0  0999 V2000
    0.9817   -0.1146   -0.0467 C   0  0  0  0  0  0  0  0  0  0  0  0
    0.4649   -0.7409    1.2210 C   0  0  0  0  0  0  0  0  0  0  0  0
    0.7853   -2.0982    1.4410 C   0  0  0  0  0  0  0  0  0  0  0  0
    0.2690   -2.8199    2.5284 C   0  0  0  0  0  0  0  0  0  0  0  0
    0.6824   -4.1549    2.7165 N   0  0  0  0  0  0  0  0  0  0  0  0
   -0.4749   -2.1355    3.5033 C   0  0  0  0  0  0  0  0  0  0  0  0
   -0.8404   -2.7526    4.7177 N   0  0  0  0  0  0  0  0  0  0  0  0
   -0.6879   -0.7562    3.3497 C   0  0  0  0  0  0  0  0  0  0  0  0
   -0.2995   -0.0645    2.1813 C   0  0  0  0  0  0  0  0  0  0  0  0
   -0.7554    1.3639    2.0444 C   0  0  0  0  0  0  0  0  0  0  0  0
  1  2  1  0
  2  3  2  0
  2  9  1  0
  3  4  1  0
  4  5  1  0
  4  6  2  0
  6  7  1  0
  6  8  1  0
  8  9  2  0
  9 10  1  0
M  END
>  <DRUGBANK_ID>  (1) 
DB03180

>  <SECONDARY_ACCESSION_NUMBERS>  (1) 
EXPT00037

>  <COMMON_NAME>  (1) 
4,5-Dimethyl-1,2-phenylenediamine

>  <CAS_NUMBER>  (1) 
3171-45-7

>  <UNII>  (1) 
1OJ9D3R6NH

>  <SYNONYMS>  (1) 
4,5-Dimethyl-o-phenylenediamine

$$$$
