
     RDKit          3D

 12 13  0  0  0  0  0  0  0  0999 V2000
   -0.2731    0.6800    0.0963 C   0  0  0  0  0  0  0  0  0  0  0  0
   -0.2385   -0.6534    0.0887 C   0  0  0  0  0  0  0  0  0  0  0  0
    0.9659    1.4488    0.0092 C   0  0  0  0  0  0  0  0  0  0  0  0
   -2.3959   -0.0163   -0.0172 C   0  0  0  0  0  0  0  0  0  0  0  0
    2.1304   -0.7146   -0.0961 C   0  0  0  0  0  0  0  0  0  0  0  0
   -1.5645    1.1127    0.0939 N   0  0  0  0  0  0  0  0  0  0  0  0
   -1.5165   -1.1216    0.0878 N   0  0  0  0  0  0  0  0  0  0  0  0
    0.9146   -1.3506    0.0191 N   0  0  0  0  0  0  0  0  0  0  0  0
    2.0936    0.6645   -0.0883 N   0  0  0  0  0  0  0  0  0  0  0  0
    0.9806    2.6743   -0.0066 O   0  0  0  0  0  0  0  0  0  0  0  0
   -3.5933   -0.0408   -0.2059 O   0  0  0  0  0  0  0  0  0  0  0  0
    3.1804   -1.3360   -0.2094 O   0  0  0  0  0  0  0  0  0  0  0  0
  2  1  2  0
  3  1  1  0
  6  1  1  0
  6  4  1  0
  7  2  1  0
  7  4  1  0
  8  2  1  0
  8  5  1  0
  9  3  1  0
  9  5  1  0
 10  3  2  0
 11  4  2  0
 12  5  2  0
M  END
>  <DRUGBANK_ID>  (1) 
DB08844

>  <SECONDARY_ACCESSION_NUMBERS>  (1) 
DB01696; EXPT03202

>  <COMMON_NAME>  (1) 
Uric acid

>  <CAS_NUMBER>  (1) 
69-93-2

>  <UNII>  (1) 
268B43MJ25

>  <SYNONYMS>  (1) 
2,6,8-trihydroxypurine; 2,6,8-trioxopurine; 2,6,8-trioxypurine; 7,9-dihydro-1H-purine-2,6,8(3H)-trione; Lithic acid; Purine-2,6,8(1H,3H,9H)-trione; Urate; Uricum acidum

$$$$
