CM9
     RDKit          3D

 24 25  0  0  0  0  0  0  0  0999 V2000
    2.5663   -2.4006    2.8473 O   0  0  0  0  0  0  0  0  0  0  0  0
    2.6757   -1.3442    2.2121 C   0  0  0  0  0  0  0  0  0  0  0  0
    2.9881   -1.2688    0.7147 C   0  0  2  0  0  0  0  0  0  0  0  0
    2.5992   -2.5807    0.0241 C   0  0  0  0  0  0  0  0  0  0  0  0
    3.4220   -3.7580    0.5459 C   0  0  0  0  0  0  0  0  0  0  0  0
    4.9290   -3.4845    0.4779 C   0  0  2  0  0  0  0  0  0  0  0  0
    5.6781   -4.6157    1.1741 C   0  0  0  0  0  0  0  0  0  0  0  0
    5.3085   -2.1350    1.1114 C   0  0  0  0  0  0  0  0  0  0  0  0
    4.4813   -0.9906    0.5293 C   0  0  0  0  0  0  0  0  0  0  0  0
    2.6467   -0.1653    2.8920 N   0  0  0  0  0  0  0  0  0  0  0  0
    2.0908   -0.1380    4.2262 C   0  0  1  0  0  0  0  0  0  0  0  0
    2.5313    1.0396    5.1349 C   0  0  0  0  0  0  0  0  0  0  0  0
    1.8862    2.4640    4.9386 C   0  0  0  0  0  0  0  0  0  0  0  0
   -0.3164    2.7809    5.3617 S   0  0  0  0  0  0  0  0  0  0  0  0
   -1.7048    2.0662    3.7055 C   0  0  0  0  0  0  0  0  0  0  0  0
    0.6716    0.0661    3.9393 C   0  0  0  0  0  0  0  0  0  0  0  0
   -0.1847   -0.4937    4.6940 O   0  0  0  0  0  0  0  0  0  0  0  0
    0.3761    1.2911    3.3692 N   0  0  0  0  0  0  0  0  0  0  0  0
    0.7618    2.4898    2.5231 C   0  0  0  0  0  0  0  0  0  0  0  0
    1.5194    2.2679    1.4468 C   0  0  0  0  0  0  0  0  0  0  0  0
    2.4285    3.2598    1.1455 C   0  0  0  0  0  0  0  0  0  0  0  0
    2.4636    4.5208    1.6586 N   0  0  0  0  0  0  0  0  0  0  0  0
    1.4485    4.8693    2.4470 C   0  0  0  0  0  0  0  0  0  0  0  0
    0.5285    3.9133    2.8431 C   0  0  0  0  0  0  0  0  0  0  0  0
  1  2  2  0
  2 10  1  0
  3  4  1  0
  3  9  1  0
  3  2  1  1
  4  5  1  0
  5  6  1  0
  6  7  1  1
  6  8  1  0
  8  9  1  0
 11 10  1  0
 11 12  1  1
 11 16  1  0
 12 13  1  0
 13 14  1  0
 14 15  1  0
 16 17  2  0
 16 18  1  0
 18 19  1  0
 19 20  2  0
 19 24  1  0
 20 21  1  0
 21 22  2  0
 22 23  1  0
 23 24  2  0
M  END
>  <DRUGBANK_ID>  (1) 
DB07569

>  <COMMON_NAME>  (1) 
CIS-4-METHYL-N-[(1S)-3-(METHYLSULFANYL)-1-(PYRIDIN-4-YLCARBAMOYL)PROPYL]CYCLOHEXANECARBOXAMIDE

$$$$
