631
     RDKit          3D

 20 22  0  0  1  0  0  0  0  0999 V2000
    2.1651   -8.3446    1.1579 Cl  0  0  0  0  0  0  0  0  0  0  0  0
    3.6147   -4.6690   -1.5921 F   0  0  0  0  0  0  0  0  0  0  0  0
    4.4024   -3.3332    0.9764 O   0  0  0  0  0  0  0  0  0  0  0  0
    4.4288   -1.2194   -1.4389 O   0  0  0  0  0  0  0  0  0  0  0  0
    1.8071   -3.1829    2.0916 O   0  0  0  0  0  0  0  0  0  0  0  0
    5.8507   -5.0778    0.1470 N   0  0  0  0  0  0  0  0  0  0  0  0
    7.5069   -6.5838    0.1623 N   0  0  0  0  0  0  0  0  0  0  0  0
    3.9672   -6.5495    0.6471 N   0  0  0  0  0  0  0  0  0  0  0  0
    4.6892   -8.8697    0.9059 N   0  0  0  0  0  0  0  0  0  0  0  0
    6.9114   -9.5731    0.7127 N   0  0  0  0  0  0  0  0  0  0  0  0
    5.2495   -3.7819   -0.1007 C   0  0  1  0  0  0  0  0  0  0  0  0
    3.6576   -2.3854   -1.1170 C   0  0  1  0  0  0  0  0  0  0  0  0
    4.4669   -3.6330   -1.3958 C   0  0  2  0  0  0  0  0  0  0  0  0
    3.3630   -2.4934    0.3841 C   0  0  1  0  0  0  0  0  0  0  0  0
    2.0145   -3.1544    0.6800 C   0  0  0  0  0  0  0  0  0  0  0  0
    5.2624   -6.2827    0.4324 C   0  0  0  0  0  0  0  0  0  0  0  0
    7.1982   -5.3153   -0.0032 C   0  0  0  0  0  0  0  0  0  0  0  0
    6.3087   -7.2049    0.4327 C   0  0  0  0  0  0  0  0  0  0  0  0
    5.9814   -8.5544    0.6860 C   0  0  0  0  0  0  0  0  0  0  0  0
    3.7842   -7.8695    0.8700 C   0  0  0  0  0  0  0  0  0  0  0  0
  1 20  1  0
 13  2  1  1
  3 11  1  0
  3 14  1  0
  5 15  1  0
  6 16  1  0
  6 17  1  0
  7 17  2  0
  7 18  1  0
  8 16  1  0
  8 20  2  0
  9 19  2  0
  9 20  1  0
 10 19  1  0
 11 13  1  0
 11  6  1  1
 12  4  1  1
 12 13  1  0
 12 14  1  0
 14 15  1  6
 16 18  2  0
 18 19  1  0
M  END
>  <DRUGBANK_ID>  (1) 
DB00631

>  <SECONDARY_ACCESSION_NUMBERS>  (1) 
APRD00878; DB07554; DB06189

>  <COMMON_NAME>  (1) 
Clofarabine

>  <CAS_NUMBER>  (1) 
123318-82-1

>  <UNII>  (1) 
762RDY0Y2H

>  <SYNONYMS>  (1) 
(2R,3R,4S,5R)-5-(6-amino-2-chloropurin-9-yl)-4-fluoro-2-(hydroxymethyl)oxolan-3-ol; 2-chloro-9-(2-deoxy-2-fluoro-β-D-arabinofuranosyl)adenine; 2-chloro-9-(2'-deoxy-2'-fluoro-β-D-arabinofuranosyl)adenine; CAFdA; Cl-F-Ara-A; Clofarabin; Clofarabina; Clofarabine; Clofarabinum

$$$$
