
     RDKit          3D

 38 44  0  0  1  0  0  0  0  0999 V2000
    6.8539    1.6145    3.1961 C   0  0  0  0  0  0  0  0  0  0  0  0
    5.8077    0.6904    2.7335 N   0  0  0  0  0  0  0  0  0  0  0  0
    5.2027    1.1627    1.5396 C   0  0  0  0  0  0  0  0  0  0  0  0
    5.5796    0.8231    0.3225 N   0  0  0  0  0  0  0  0  0  0  0  0
    5.5065    2.1462   -0.4678 C   0  0  2  0  0  0  0  0  0  0  0  0
    6.9974    2.4230   -0.8118 C   0  0  0  0  0  0  0  0  0  0  0  0
    7.5043    2.8747    0.5309 C   0  0  0  0  0  0  0  0  0  0  0  0
    6.3755    3.8563    0.9912 C   0  0  0  0  0  0  0  0  0  0  0  0
    5.0190    3.2084    0.5835 C   0  0  2  0  0  0  0  0  0  0  0  0
    4.4694    2.3092    1.6037 N   0  0  0  0  0  0  0  0  0  0  0  0
    3.8236    2.5537    2.7739 C   0  0  0  0  0  0  0  0  0  0  0  0
    2.9482    3.5086    3.0524 N   0  0  0  0  0  0  0  0  0  0  0  0
    2.5543    3.2311    4.3259 N   0  0  0  0  0  0  0  0  0  0  0  0
    1.4680    4.0449    4.8698 C   0  0  0  0  0  0  0  0  0  0  0  0
    0.2831    3.2901    5.4348 C   0  0  0  0  0  0  0  0  0  0  0  0
    0.4174    2.3699    6.4737 C   0  0  0  0  0  0  0  0  0  0  0  0
   -0.6280    1.8325    7.1839 C   0  0  0  0  0  0  0  0  0  0  0  0
   -1.9154    2.1314    6.8004 C   0  0  0  0  0  0  0  0  0  0  0  0
   -2.1085    3.0110    5.7245 C   0  0  0  0  0  0  0  0  0  0  0  0
   -1.0217    3.5736    5.0343 C   0  0  0  0  0  0  0  0  0  0  0  0
   -2.9920    1.4252    7.4636 C   0  0  0  0  0  0  0  0  0  0  0  0
   -3.6922    0.5856    6.6713 N   0  0  0  0  0  0  0  0  0  0  0  0
   -4.6177   -0.1739    7.2755 C   0  0  0  0  0  0  0  0  0  0  0  0
   -5.3148   -1.0216    6.5070 F   0  0  0  0  0  0  0  0  0  0  0  0
   -4.8912   -0.1276    8.6318 C   0  0  0  0  0  0  0  0  0  0  0  0
   -4.1476    0.7303    9.4334 C   0  0  0  0  0  0  0  0  0  0  0  0
   -3.1696    1.5136    8.8428 C   0  0  0  0  0  0  0  0  0  0  0  0
    3.3606    2.2961    4.9740 C   0  0  0  0  0  0  0  0  0  0  0  0
    3.3023    2.1356    6.3341 N   0  0  0  0  0  0  0  0  0  0  0  0
    3.9434    1.1808    7.1527 C   0  0  0  0  0  0  0  0  0  0  0  0
    5.3064    1.3328    7.3627 C   0  0  0  0  0  0  0  0  0  0  0  0
    5.9988    0.4718    8.2047 C   0  0  0  0  0  0  0  0  0  0  0  0
    5.3174   -0.5047    8.9267 C   0  0  0  0  0  0  0  0  0  0  0  0
    3.9306   -0.5916    8.8378 C   0  0  0  0  0  0  0  0  0  0  0  0
    3.2420    0.2439    7.9452 C   0  0  0  0  0  0  0  0  0  0  0  0
    4.0343    1.7040    3.9172 C   0  0  0  0  0  0  0  0  0  0  0  0
    4.9735    0.5870    3.8612 C   0  0  0  0  0  0  0  0  0  0  0  0
    5.1565   -0.2441    4.7195 O   0  0  0  0  0  0  0  0  0  0  0  0
  1  2  1  0
  2  3  1  0
  2 37  1  0
  3  4  2  0
  3 10  1  0
  5  4  1  0
  5  6  1  1
  5  9  1  0
  6  7  1  0
  7  8  1  0
  9  8  1  1
  9 10  1  0
 10 11  1  0
 11 12  2  0
 11 36  1  0
 12 13  1  0
 13 14  1  0
 13 28  1  0
 14 15  1  0
 15 16  2  0
 15 20  1  0
 16 17  1  0
 17 18  2  0
 18 19  1  0
 18 21  1  0
 19 20  2  0
 21 22  2  0
 21 27  1  0
 22 23  1  0
 23 24  1  0
 23 25  2  0
 25 26  1  0
 26 27  2  0
 28 29  1  0
 28 36  2  0
 29 30  1  0
 30 31  2  0
 30 35  1  0
 31 32  1  0
 32 33  2  0
 33 34  1  0
 34 35  2  0
 36 37  1  0
 37 38  2  0
M  END
>  <DRUGBANK_ID>  (1) 
DB15039

>  <COMMON_NAME>  (1) 
ITI-214

>  <CAS_NUMBER>  (1) 
1160521-50-5

>  <UNII>  (1) 
3GBO34D1BE

$$$$
