
     RDKit          3D

 27 30  0  0  0  0  0  0  0  0999 V2000
   -3.7171   -1.3363   -0.0955 C   0  0  0  0  0  0  0  0  0  0  0  0
   -4.1539    0.0206    0.3915 C   0  0  0  0  0  0  0  0  0  0  0  0
   -3.1978    1.1418    0.2507 C   0  0  0  0  0  0  0  0  0  0  0  0
   -1.9489    0.9376   -0.2027 C   0  0  0  0  0  0  0  0  0  0  0  0
   -1.3359   -0.4532   -0.4234 C   0  0  2  0  0  0  0  0  0  0  0  0
   -2.2403   -1.5435    0.2121 C   0  0  0  0  0  0  0  0  0  0  0  0
   -1.0892    2.1268   -0.5542 C   0  0  0  0  0  0  0  0  0  0  0  0
    0.3181    2.0347    0.0076 C   0  0  0  0  0  0  0  0  0  0  0  0
    0.9635    0.6737   -0.2682 C   0  0  2  0  0  0  0  0  0  0  0  0
    0.0723   -0.4765    0.2721 C   0  0  2  0  0  0  0  0  0  0  0  0
    2.3225    0.5890    0.3944 C   0  0  1  0  0  0  0  0  0  0  0  0
    3.0495   -0.7421    0.0916 C   0  0  2  0  0  0  0  0  0  0  0  0
    2.2313   -1.8459    0.7659 C   0  0  0  0  0  0  0  0  0  0  0  0
    0.7809   -1.8622    0.2529 C   0  0  0  0  0  0  0  0  0  0  0  0
    3.3171    1.6662    0.0345 C   0  0  0  0  0  0  0  0  0  0  0  0
    4.6335    1.0364    0.4377 C   0  0  0  0  0  0  0  0  0  0  0  0
    4.3968   -0.4509    0.7759 C   0  0  2  0  0  0  0  0  0  0  0  0
    5.5978   -1.3283    0.4162 C   0  0  0  0  0  0  0  0  0  0  0  0
    5.5927   -2.1971   -0.4552 O   0  0  0  0  0  0  0  0  0  0  0  0
    6.8633   -1.1138    1.2293 C   0  0  0  0  0  0  0  0  0  0  0  0
    7.3060    0.2411    1.2927 O   0  0  0  0  0  0  0  0  0  0  0  0
    7.5547    0.9951    0.1949 C   0  0  0  0  0  0  0  0  0  0  0  0
    7.5755    0.3546   -1.1683 C   0  0  0  0  0  0  0  0  0  0  0  0
    7.6881    2.2162    0.3134 O   0  0  0  0  0  0  0  0  0  0  0  0
   -5.2924    0.2432    0.7941 O   0  0  0  0  0  0  0  0  0  0  0  0
    3.2140   -1.0228   -1.4243 C   0  0  0  0  0  0  0  0  0  0  0  0
   -1.2251   -0.7161   -1.9435 C   0  0  0  0  0  0  0  0  0  0  0  0
  1  2  1  0
  1  6  1  0
  2  3  1  0
  2 25  2  0
  3  4  2  0
  4  5  1  0
  4  7  1  0
  5  6  1  0
  5 10  1  0
  5 27  1  6
  7  8  1  0
  9  8  1  1
  9 10  1  0
  9 11  1  0
 10 14  1  6
 11 12  1  0
 11 15  1  6
 12 13  1  0
 12 17  1  0
 12 26  1  6
 13 14  1  0
 15 16  1  0
 16 17  1  0
 17 18  1  6
 18 19  2  0
 18 20  1  0
 20 21  1  0
 21 22  1  0
 22 23  1  0
 22 24  2  0
M  END
>  <DRUGBANK_ID>  (1) 
DB06780

>  <COMMON_NAME>  (1) 
Desoxycorticosterone acetate

>  <CAS_NUMBER>  (1) 
56-47-3

>  <UNII>  (1) 
6E0A168OB8

>  <SYNONYMS>  (1) 
11-deoxycorticosterone acetate; Deoxycorticosterone acetate; Desoxycorticosterone acetate; Desoxycorticosterone-21-acetate; Desoxycortone acetate; DOCA

$$$$
