
     RDKit          3D

 30 32  0  0  0  0  0  0  0  0999 V2000
    0.9199    0.1271   -0.0704 C   0  0  0  0  0  0  0  0  0  0  0  0
    0.4518   -1.1401   -0.7614 C   0  0  0  0  0  0  0  0  0  0  0  0
    0.9437   -2.4364   -0.1112 C   0  0  0  0  0  0  0  0  0  0  0  0
    0.5128   -2.5953    1.2962 N   0  0  0  0  0  0  0  0  0  0  0  0
    1.3214   -1.7844    2.2456 C   0  0  0  0  0  0  0  0  0  0  0  0
    2.8181   -2.1049    2.2126 C   0  0  0  0  0  0  0  0  0  0  0  0
    3.0373   -3.5233    2.4622 N   0  0  0  0  0  0  0  0  0  0  0  0
    2.1991   -4.4667    1.7247 C   0  0  0  0  0  0  0  0  0  0  0  0
    0.7125   -4.0113    1.7212 C   0  0  0  0  0  0  0  0  0  0  0  0
    3.7735   -3.9145    3.5428 C   0  0  0  0  0  0  0  0  0  0  0  0
    3.6628   -3.2309    4.7228 C   0  0  0  0  0  0  0  0  0  0  0  0
    4.5611   -3.4782    5.7476 C   0  0  0  0  0  0  0  0  0  0  0  0
    5.2712   -4.6672    5.8390 C   0  0  0  0  0  0  0  0  0  0  0  0
    5.3760   -5.3914    4.6571 C   0  0  0  0  0  0  0  0  0  0  0  0
    4.7277   -4.9283    3.4947 C   0  0  0  0  0  0  0  0  0  0  0  0
    5.8517   -5.1923    7.1309 C   0  0  0  0  0  0  0  0  0  0  0  0
    6.7146   -6.0712    7.0904 O   0  0  0  0  0  0  0  0  0  0  0  0
    5.3962   -4.7906    8.3836 N   0  0  0  0  0  0  0  0  0  0  0  0
    4.3672   -3.7703    8.7741 C   0  0  0  0  0  0  0  0  0  0  0  0
    5.1584   -2.4309    8.9198 C   0  0  0  0  0  0  0  0  0  0  0  0
    4.2875   -1.2876    9.3456 C   0  0  0  0  0  0  0  0  0  0  0  0
    3.3515   -1.6822   10.5502 C   0  0  0  0  0  0  0  0  0  0  0  0
    2.7453   -3.1342   10.5728 C   0  0  0  0  0  0  0  0  0  0  0  0
    3.7790   -4.1592   10.1449 C   0  0  0  0  0  0  0  0  0  0  0  0
    3.0509   -3.9843    7.8018 C   0  0  0  0  0  0  0  0  0  0  0  0
    2.8099   -5.1220    7.3666 O   0  0  0  0  0  0  0  0  0  0  0  0
    2.2058   -2.9785    7.3371 N   0  0  0  0  0  0  0  0  0  0  0  0
    1.6389   -1.8315    8.0206 C   0  0  0  0  0  0  0  0  0  0  0  0
    1.8426   -0.4625    7.5410 C   0  0  0  0  0  0  0  0  0  0  0  0
    2.1454    0.6596    7.3641 N   0  0  0  0  0  0  0  0  0  0  0  0
  1  2  1  0
  2  3  1  0
  3  4  1  0
  4  5  1  0
  4  9  1  0
  5  6  1  0
  6  7  1  0
  7  8  1  0
  7 10  1  0
  8  9  1  0
 10 11  2  0
 10 15  1  0
 11 12  1  0
 12 13  2  0
 13 14  1  0
 13 16  1  0
 14 15  2  0
 16 17  2  0
 16 18  1  0
 18 19  1  0
 19 20  1  0
 19 24  1  0
 19 25  1  0
 20 21  1  0
 21 22  1  0
 22 23  1  0
 23 24  1  0
 25 26  2  0
 25 27  1  0
 27 28  1  0
 28 29  1  0
 29 30  3  0
M  END
>  <DRUGBANK_ID>  (1) 
DB12239

>  <COMMON_NAME>  (1) 
Balicatib

>  <CAS_NUMBER>  (1) 
354813-19-7

>  <UNII>  (1) 
E00MVC7O57

>  <SYNONYMS>  (1) 
Balicatib

$$$$
