
     RDKit          3D

 19 21  0  0  0  0  0  0  0  0999 V2000
   -2.1531    0.6505    0.0376 N   0  0  0  0  0  0  0  0  0  0  0  0
   -2.1634   -0.7462   -0.0026 C   0  0  0  0  0  0  0  0  0  0  0  0
   -0.9315   -1.3993    0.0076 N   0  0  0  0  0  0  0  0  0  0  0  0
    0.2305   -0.6615    0.0341 C   0  0  0  0  0  0  0  0  0  0  0  0
    0.2011    0.6985    0.1366 C   0  0  0  0  0  0  0  0  0  0  0  0
   -1.0193    1.4255    0.2670 C   0  0  0  0  0  0  0  0  0  0  0  0
    1.5065   -1.1392   -0.0124 N   0  0  0  0  0  0  0  0  0  0  0  0
    2.2656   -0.0589    0.0004 C   0  0  0  0  0  0  0  0  0  0  0  0
    1.5103    1.0892    0.0320 N   0  0  0  0  0  0  0  0  0  0  0  0
   -1.0848    2.6160    0.5769 O   0  0  0  0  0  0  0  0  0  0  0  0
   -3.2262   -1.3730   -0.0290 O   0  0  0  0  0  0  0  0  0  0  0  0
    2.0235    2.4461   -0.0541 C   0  0  0  0  0  0  0  0  0  0  0  0
    1.6097    3.1981   -1.3340 C   0  0  0  0  0  0  0  0  0  0  0  0
    0.2025    3.4254   -1.4355 O   0  0  0  0  0  0  0  0  0  0  0  0
   -0.2365    2.6780   -2.5667 C   0  0  0  0  0  0  0  0  0  0  0  0
    0.9717    2.7188   -3.4476 C   0  0  0  0  0  0  0  0  0  0  0  0
    2.0568    2.5360   -2.5263 O   0  0  0  0  0  0  0  0  0  0  0  0
   -0.9085   -2.8459   -0.0046 C   0  0  0  0  0  0  0  0  0  0  0  0
   -3.4253    1.3471    0.0293 C   0  0  0  0  0  0  0  0  0  0  0  0
  1  2  1  0
  1  6  1  0
  1 19  1  0
  2  3  1  0
  2 11  2  0
  3  4  1  0
  3 18  1  0
  4  5  2  0
  4  7  1  0
  5  6  1  0
  5  9  1  0
  6 10  2  0
  7  8  2  0
  8  9  1  0
  9 12  1  0
 12 13  1  0
 13 14  1  0
 13 17  1  0
 14 15  1  0
 15 16  1  0
 16 17  1  0
M  END
>  <DRUGBANK_ID>  (1) 
DB09273

>  <COMMON_NAME>  (1) 
Doxofylline

>  <CAS_NUMBER>  (1) 
69975-86-6

>  <UNII>  (1) 
MPM23GMO7Z

>  <SYNONYMS>  (1) 
doxofilina; Doxofylline; Doxophylline

$$$$
