373
     RDKit          3D

 29 33  0  0  0  0  0  0  0  0999 V2000
    0.5710   -0.7972   -0.0112 C   0  0  0  0  0  0  0  0  0  0  0  0
    1.8910   -1.2583   -0.0002 C   0  0  0  0  0  0  0  0  0  0  0  0
    2.9503   -0.3469   -0.0023 C   0  0  0  0  0  0  0  0  0  0  0  0
    2.6949    1.0251   -0.0026 C   0  0  0  0  0  0  0  0  0  0  0  0
    1.3796    1.4925    0.0052 C   0  0  0  0  0  0  0  0  0  0  0  0
    0.3243    0.5804   -0.0021 C   0  0  0  0  0  0  0  0  0  0  0  0
   -0.9974    1.0396   -0.0135 N   0  0  0  0  0  0  0  0  0  0  0  0
   -2.0954    0.2151   -0.0777 C   0  0  0  0  0  0  0  0  0  0  0  0
   -1.8271   -1.2654   -0.1396 C   0  0  0  0  0  0  0  0  0  0  0  0
   -0.5641   -1.7200   -0.0498 C   0  0  0  0  0  0  0  0  0  0  0  0
   -2.8907   -2.2027   -0.1016 C   0  0  0  0  0  0  0  0  0  0  0  0
   -3.8581   -2.2614   -1.0888 N   0  0  0  0  0  0  0  0  0  0  0  0
   -4.8138   -3.2112   -0.7671 C   0  0  0  0  0  0  0  0  0  0  0  0
   -4.4464   -3.7081    0.4755 C   0  0  0  0  0  0  0  0  0  0  0  0
   -3.2120   -3.1431    0.8467 C   0  0  0  0  0  0  0  0  0  0  0  0
   -5.9855   -3.6478   -1.4129 C   0  0  0  0  0  0  0  0  0  0  0  0
   -6.7590   -4.6429   -0.7800 C   0  0  0  0  0  0  0  0  0  0  0  0
   -6.4064   -5.1514    0.4725 C   0  0  0  0  0  0  0  0  0  0  0  0
   -5.2936   -4.6029    1.1228 C   0  0  0  0  0  0  0  0  0  0  0  0
   -7.1497   -6.3098    1.1133 C   0  0  0  0  0  0  0  0  0  0  0  0
   -6.3681   -7.5636    1.2582 N   0  0  0  0  0  0  0  0  0  0  0  0
   -5.9617   -8.0941   -0.0485 C   0  0  0  0  0  0  0  0  0  0  0  0
   -5.1877   -9.3987    0.1205 C   0  0  0  0  0  0  0  0  0  0  0  0
   -3.9659   -9.2364    1.0421 C   0  0  0  0  0  0  0  0  0  0  0  0
   -4.3969   -8.6237    2.3768 C   0  0  0  0  0  0  0  0  0  0  0  0
   -5.1897   -7.3693    2.1102 C   0  0  0  0  0  0  0  0  0  0  0  0
   -3.2668  -10.5615    1.3256 C   0  0  0  0  0  0  0  0  0  0  0  0
   -2.8109  -11.1964    0.0980 N   0  0  0  0  0  0  0  0  0  0  0  0
   -3.2282    0.6785   -0.0797 O   0  0  0  0  0  0  0  0  0  0  0  0
  1  6  1  0
  1 10  1  0
  1  2  2  0
  2  3  1  0
  3  4  2  0
  4  5  1  0
  5  6  2  0
  6  7  1  0
  7  8  1  0
  8 29  2  0
  8  9  1  0
  9 11  1  0
  9 10  2  0
 11 12  1  0
 11 15  2  0
 12 13  1  0
 13 16  2  0
 13 14  1  0
 14 19  2  0
 14 15  1  0
 16 17  1  0
 17 18  2  0
 18 20  1  0
 18 19  1  0
 20 21  1  0
 21 22  1  0
 21 26  1  0
 22 23  1  0
 23 24  1  0
 24 27  1  0
 24 25  1  0
 25 26  1  0
 27 28  1  0
M  END
>  <DRUGBANK_ID>  (1) 
DB07025

>  <COMMON_NAME>  (1) 
3-(5-{[4-(AMINOMETHYL)PIPERIDIN-1-YL]METHYL}-1H-INDOL-2-YL)QUINOLIN-2(1H)-ONE

$$$$
