
     RDKit          3D

 29 32  0  0  1  0  0  0  0  0999 V2000
   -5.4498    8.0689   12.3832 C   0  0  0  0  0  0  0  0  0  0  0  0
    0.7425    3.8100   11.5303 C   0  0  0  0  0  0  0  0  0  0  0  0
   -0.5702    5.2026   17.7226 C   0  0  0  0  0  0  0  0  0  0  0  0
    2.7848    2.3674   15.0024 C   0  0  0  0  0  0  0  0  0  0  0  0
    1.4940    2.2550   15.7931 C   0  0  0  0  0  0  0  0  0  0  0  0
    3.2070    3.0259   11.0122 C   0  0  0  0  0  0  0  0  0  0  0  0
   -2.1862    3.5606   16.0249 C   0  0  0  0  0  0  0  0  0  0  0  0
    2.8813    3.8311   12.0714 C   0  0  0  0  0  0  0  0  0  0  0  0
   -2.8794    5.2481   15.5524 C   0  0  0  0  0  0  0  0  0  0  0  0
    2.6140    1.2524   12.7847 C   0  0  0  0  0  0  0  0  0  0  0  0
   -1.2830    4.6277   14.2866 C   0  0  0  0  0  0  0  0  0  0  0  0
   -2.3525    8.3152   14.5745 C   0  0  0  0  0  0  0  0  0  0  0  0
   -4.2527    7.6101   13.1611 C   0  0  0  0  0  0  0  0  0  0  0  0
    2.2898    2.2851   13.5592 C   0  0  0  0  0  0  0  0  0  0  0  0
    2.3232    1.6683   11.4461 C   0  0  0  0  0  0  0  0  0  0  0  0
    0.7159    3.5539   15.4217 C   0  0  2  0  0  0  0  0  0  0  0  0
   -0.6567    3.7685   16.2559 C   0  0  1  0  0  0  0  0  0  0  0  0
   -0.0938    5.1396   13.6837 C   0  0  1  0  0  0  0  0  0  0  0  0
   -2.6785    7.6878   15.9768 C   0  0  0  0  0  0  0  0  0  0  0  0
    0.6018    3.8190   13.8808 C   0  0  1  0  0  0  0  0  0  0  0  0
    1.6445    3.4945   12.8489 C   0  0  2  0  0  0  0  0  0  0  0  0
   -0.9306    5.3116   16.1052 C   0  0  2  0  0  0  0  0  0  0  0  0
   -2.2871    6.1640   16.4688 C   0  0  2  0  0  0  0  0  0  0  0  0
   -3.9981    6.4292   13.1875 O   0  0  0  0  0  0  0  0  0  0  0  0
    1.3227    1.2035   10.8132 O   0  0  0  0  0  0  0  0  0  0  0  0
   -0.3852    5.8546   12.4997 O   0  0  0  0  0  0  0  0  0  0  0  0
   -3.4754    8.3359   16.6800 O   0  0  0  0  0  0  0  0  0  0  0  0
   -3.1607    5.7990   17.5281 O   0  0  0  0  0  0  0  0  0  0  0  0
   -3.5164    8.6097   13.7257 O   0  0  0  0  0  0  0  0  0  0  0  0
  5  4  1  0
  8  6  2  0
  9  7  1  0
 13  1  1  0
 14  4  1  0
 14 10  2  0
 15  6  1  0
 15 10  1  0
 16  5  1  6
 17  7  1  6
 17 16  1  0
 18 11  1  0
 18 26  1  6
 19 12  1  0
 20 16  1  0
 20 18  1  1
 21  8  1  0
 21 14  1  0
 21 20  1  0
 21  2  1  6
 22 11  1  0
 22 17  1  0
 22  3  1  1
 23  9  1  0
 23 22  1  0
 23 19  1  0
 23 28  1  1
 24 13  2  0
 25 15  2  0
 27 19  2  0
 29 12  1  0
 29 13  1  0
M  END
>  <DRUGBANK_ID>  (1) 
DB15566

>  <SECONDARY_ACCESSION_NUMBERS>  (1) 
DBSALT000254

>  <COMMON_NAME>  (1) 
Prednisolone acetate

>  <CAS_NUMBER>  (1) 
52-21-1

>  <UNII>  (1) 
8B2807733D

>  <SYNONYMS>  (1) 
Prednisolone acetate

$$$$
