
     RDKit          3D

 29 31  0  0  0  0  0  0  0  0999 V2000
    2.1054    0.0768   -0.0635 Cl  0  0  0  0  0  0  0  0  0  0  0  0
    0.9200   -1.3844    7.3881 Cl  0  0  0  0  0  0  0  0  0  0  0  0
    4.9690   -2.3003    1.9330 O   0  0  0  0  0  0  0  0  0  0  0  0
    3.1246   -6.1212    0.7608 O   0  0  0  0  0  0  0  0  0  0  0  0
    3.4310   -4.6389    2.3867 N   0  0  0  0  0  0  0  0  0  0  0  0
    1.2037   -4.5398   -0.6443 N   0  0  0  0  0  0  0  0  0  0  0  0
   -3.7630    0.0004    0.0672 N   0  0  0  0  0  0  0  0  0  0  0  0
   -1.7078    1.1465    0.0191 N   0  0  0  0  0  0  0  0  0  0  0  0
    3.2288   -3.4487    3.2026 C   0  0  1  0  0  0  0  0  0  0  0  0
    2.5544   -3.6781    4.5304 C   0  0  0  0  0  0  0  0  0  0  0  0
    0.3670   -2.5396   -0.1547 C   0  0  0  0  0  0  0  0  0  0  0  0
    1.8043   -4.1839    0.5605 C   0  0  0  0  0  0  0  0  0  0  0  0
    4.4513   -2.5274    3.2429 C   0  0  0  0  0  0  0  0  0  0  0  0
   -0.3200   -1.2637   -0.1603 C   0  0  0  0  0  0  0  0  0  0  0  0
    2.7967   -5.0304    1.2217 C   0  0  0  0  0  0  0  0  0  0  0  0
    1.2375   -2.9602    0.8575 C   0  0  0  0  0  0  0  0  0  0  0  0
   -4.5087    1.2490    0.1195 C   0  0  0  0  0  0  0  0  0  0  0  0
    0.3348   -3.5540   -1.0741 C   0  0  0  0  0  0  0  0  0  0  0  0
   -2.3849   -0.0190    0.0108 C   0  0  0  0  0  0  0  0  0  0  0  0
   -1.7167   -1.2384   -0.0768 C   0  0  0  0  0  0  0  0  0  0  0  0
    2.0437   -2.5720    5.2430 C   0  0  0  0  0  0  0  0  0  0  0  0
    2.3827   -4.9593    5.0591 C   0  0  0  0  0  0  0  0  0  0  0  0
    0.3824   -0.0538   -0.0919 C   0  0  0  0  0  0  0  0  0  0  0  0
   -5.4420    1.3211   -1.0855 C   0  0  0  0  0  0  0  0  0  0  0  0
   -5.3219    1.3160    1.4092 C   0  0  0  0  0  0  0  0  0  0  0  0
    1.4607   -2.7499    6.4932 C   0  0  0  0  0  0  0  0  0  0  0  0
    1.7874   -5.1318    6.3048 C   0  0  0  0  0  0  0  0  0  0  0  0
   -0.3570    1.1099   -0.0240 C   0  0  0  0  0  0  0  0  0  0  0  0
    1.3407   -4.0272    7.0295 C   0  0  0  0  0  0  0  0  0  0  0  0
  1 23  1  0
  2 26  1  0
  3 13  1  0
  4 15  2  0
  5 15  1  0
  6 12  1  0
  6 18  1  0
  7 17  1  0
  7 19  1  0
  8 19  2  0
  8 28  1  0
  9  5  1  0
  9 10  1  0
  9 13  1  1
 10 21  2  0
 10 22  1  0
 11 14  1  0
 11 16  1  0
 11 18  2  0
 12 15  1  0
 12 16  2  0
 14 20  2  0
 14 23  1  0
 17 24  1  0
 17 25  1  0
 19 20  1  0
 21 26  1  0
 22 27  2  0
 23 28  2  0
 26 29  2  0
 27 29  1  0
M  END
>  <DRUGBANK_ID>  (1) 
DB13930

>  <COMMON_NAME>  (1) 
Ulixertinib

>  <CAS_NUMBER>  (1) 
869886-67-9

>  <UNII>  (1) 
16ZDH50O1U

>  <SYNONYMS>  (1) 
Ulixertinib

$$$$
