
     RDKit          3D

 23 24  0  0  0  0  0  0  0  0999 V2000
    1.0740    0.1854    0.5052 C   0  0  0  0  0  0  0  0  0  0  0  0
    0.4993   -1.2440    0.4774 C   0  0  0  0  0  0  0  0  0  0  0  0
    1.1452   -2.4317    1.0613 N   0  0  0  0  0  0  0  0  0  0  0  0
    0.5470   -3.7613    0.6736 C   0  0  0  0  0  0  0  0  0  0  0  0
    0.9794   -4.7163   -0.4903 C   0  0  0  0  0  0  0  0  0  0  0  0
    2.5845   -2.3981    0.8142 C   0  0  0  0  0  0  0  0  0  0  0  0
    3.0744   -2.6744   -0.6379 C   0  0  0  0  0  0  0  0  0  0  0  0
    2.4038   -1.9839   -1.7683 O   0  0  0  0  0  0  0  0  0  0  0  0
    1.1282   -2.0616   -2.2563 C   0  0  0  0  0  0  0  0  0  0  0  0
    0.1162   -2.7240   -1.9616 O   0  0  0  0  0  0  0  0  0  0  0  0
    0.7958   -0.9003   -3.0273 C   0  0  0  0  0  0  0  0  0  0  0  0
   -0.2216    0.0002   -2.6323 C   0  0  0  0  0  0  0  0  0  0  0  0
   -0.6215    1.0104   -3.4802 C   0  0  0  0  0  0  0  0  0  0  0  0
   -0.0842    1.0188   -4.7575 C   0  0  0  0  0  0  0  0  0  0  0  0
    0.8618    0.0447   -5.1716 C   0  0  0  0  0  0  0  0  0  0  0  0
    1.3267   -0.9065   -4.2832 C   0  0  0  0  0  0  0  0  0  0  0  0
    2.1950   -1.9176   -4.5937 O   0  0  0  0  0  0  0  0  0  0  0  0
    1.2876   -0.0044   -6.5473 C   0  0  0  0  0  0  0  0  0  0  0  0
    1.0389   -1.1535   -7.3157 C   0  0  0  0  0  0  0  0  0  0  0  0
    1.4372   -1.1949   -8.6391 C   0  0  0  0  0  0  0  0  0  0  0  0
    2.0452   -0.0745   -9.2013 C   0  0  0  0  0  0  0  0  0  0  0  0
    2.2834    1.0710   -8.4391 C   0  0  0  0  0  0  0  0  0  0  0  0
    1.9516    1.0881   -7.0967 C   0  0  0  0  0  0  0  0  0  0  0  0
  1  2  1  0
  2  3  1  0
  3  4  1  0
  3  6  1  0
  4  5  1  0
  6  7  1  0
  7  8  1  0
  8  9  1  0
  9 10  2  0
  9 11  1  0
 11 12  2  0
 11 16  1  0
 12 13  1  0
 13 14  2  0
 14 15  1  0
 15 16  2  0
 15 18  1  0
 16 17  1  0
 18 19  2  0
 18 23  1  0
 19 20  1  0
 20 21  2  0
 21 22  1  0
 22 23  2  0
M  END
>  <DRUGBANK_ID>  (1) 
DB13815

>  <COMMON_NAME>  (1) 
Xenysalate

>  <CAS_NUMBER>  (1) 
3572-52-9

>  <UNII>  (1) 
65X88IL51X

>  <SYNONYMS>  (1) 
Biphenamine; Xenysalate

$$$$
