1570
     RDKit          3D

 27 29  0  0  1  0  0  0  0  0999 V2000
    0.7029   -0.4074   -0.0425 O   0  0  0  0  0  0  0  0  0  0  0  0
    0.2853    5.2863   -1.8030 O   0  0  0  0  0  0  0  0  0  0  0  0
    2.5830    2.1038    0.9945 N   0  0  0  0  0  0  0  0  0  0  0  0
    2.6119    5.0204   -2.3006 N   0  0  0  0  0  0  0  0  0  0  0  0
    3.1682    4.2104   -1.1092 C   0  0  0  0  0  0  0  0  0  0  0  0
    2.6472    4.6001    0.2940 C   0  0  0  0  0  0  0  0  0  0  0  0
    3.0210    2.7248   -1.3069 C   0  0  0  0  0  0  0  0  0  0  0  0
    2.9991    3.4973    1.3269 C   0  0  0  0  0  0  0  0  0  0  0  0
    3.3123    1.7295   -0.2035 C   0  0  0  0  0  0  0  0  0  0  0  0
    1.1633    4.8677    0.4308 C   0  0  0  0  0  0  0  0  0  0  0  0
    1.1030    1.8282    0.9392 C   0  0  0  0  0  0  0  0  0  0  0  0
    0.3661    0.9668   -0.2481 C   0  0  0  0  0  0  0  0  0  0  0  0
    3.6371    5.3995   -3.2082 C   0  0  0  0  0  0  0  0  0  0  0  0
    1.2769    5.4354   -2.5547 C   0  0  0  0  0  0  0  0  0  0  0  0
    0.4966    1.2628   -1.7654 C   0  0  0  0  0  0  0  0  0  0  0  0
    0.8164    6.0616   -3.8698 C   0  0  0  0  0  0  0  0  0  0  0  0
    4.4206    4.4949   -3.9298 C   0  0  0  0  0  0  0  0  0  0  0  0
    3.8803    6.7542   -3.3390 C   0  0  0  0  0  0  0  0  0  0  0  0
    0.9732    7.5475   -3.8347 C   0  0  0  0  0  0  0  0  0  0  0  0
   -0.0739    2.4222   -2.2885 C   0  0  0  0  0  0  0  0  0  0  0  0
    1.3996    0.5817   -2.6313 C   0  0  0  0  0  0  0  0  0  0  0  0
    5.3158    4.9734   -4.8903 C   0  0  0  0  0  0  0  0  0  0  0  0
    4.6403    7.2295   -4.3947 C   0  0  0  0  0  0  0  0  0  0  0  0
    5.3865    6.3401   -5.1542 C   0  0  0  0  0  0  0  0  0  0  0  0
    0.3716    2.9365   -3.5209 C   0  0  0  0  0  0  0  0  0  0  0  0
    1.9451    1.1999   -3.7880 C   0  0  0  0  0  0  0  0  0  0  0  0
    1.4755    2.4324   -4.1912 C   0  0  0  0  0  0  0  0  0  0  0  0
  1 12  1  0
  2 14  2  0
  3  8  1  0
  3  9  1  0
  3 11  1  0
  4  5  1  0
  4 13  1  0
  4 14  1  0
  5  6  1  0
  5  7  1  0
  6  8  1  0
  6 10  1  0
  7  9  1  0
 11 12  1  0
 12 15  1  0
 13 17  2  0
 13 18  1  0
 14 16  1  0
 15 20  2  0
 15 21  1  0
 16 19  1  0
 17 22  1  0
 18 23  2  0
 20 25  1  0
 21 26  2  0
 22 24  2  0
 23 24  1  0
 25 27  2  0
 26 27  1  0
M  END
>  <DRUGBANK_ID>  (1) 
DB01570

>  <COMMON_NAME>  (1) 
Ohmefentanyl

>  <CAS_NUMBER>  (1) 
78995-14-9

>  <UNII>  (1) 
Y8263089ZX

>  <SYNONYMS>  (1) 
Beta-hydroxy-3-methylfentanyl; OMF; Î²-hydroxy-3-methylfentanyl

$$$$
