
     RDKit          3D

 21 23  0  0  1  0  0  0  0  0999 V2000
    1.2101    0.0296    0.0707 O   0  0  0  0  0  0  0  0  0  0  0  0
    2.5781    0.0132   -0.0977 C   0  0  0  0  0  0  0  0  0  0  0  0
    3.6148    0.5242    0.9651 C   0  0  2  0  0  0  0  0  0  0  0  0
    3.0113   -0.4373   -1.1820 O   0  0  0  0  0  0  0  0  0  0  0  0
    4.7117    1.5649    0.5538 C   0  0  0  0  0  0  0  0  0  0  0  0
    4.3938    2.8200   -0.0188 O   0  0  0  0  0  0  0  0  0  0  0  0
    4.2521   -0.6342    1.7111 C   0  0  0  0  0  0  0  0  0  0  0  0
    5.2139   -0.3579    2.6979 C   0  0  0  0  0  0  0  0  0  0  0  0
    3.8600   -1.9576    1.4897 C   0  0  0  0  0  0  0  0  0  0  0  0
    4.4541   -2.9821    2.2080 C   0  0  0  0  0  0  0  0  0  0  0  0
    5.4815   -2.6981    3.1044 C   0  0  0  0  0  0  0  0  0  0  0  0
    5.8552   -1.3853    3.3610 C   0  0  0  0  0  0  0  0  0  0  0  0
   -0.4198    2.9270    0.3519 C   0  0  2  0  0  0  0  0  0  0  0  0
   -0.8615    1.4776    0.6536 C   0  0  0  0  0  0  0  0  0  0  0  0
    0.5886    2.8751   -0.7671 C   0  0  0  0  0  0  0  0  0  0  0  0
    1.8516    2.8250    0.0438 C   0  0  0  0  0  0  0  0  0  0  0  0
    1.5339    2.6373    1.5549 C   0  0  2  0  0  0  0  0  0  0  0  0
    1.0623    1.2518    2.1633 C   0  0  0  0  0  0  0  0  0  0  0  0
    0.2832    0.5273    1.1249 C   0  0  2  0  0  0  0  0  0  0  0  0
    0.3821    3.5161    1.4402 N   0  0  0  0  0  0  0  0  0  0  0  0
   -0.2548    3.8156    2.6927 C   0  0  0  0  0  0  0  0  0  0  0  0
  2  1  1  0
  2  4  2  0
  3  2  1  0
  3  7  1  0
  3  5  1  6
  6  5  1  0
  7  9  1  0
  8  7  2  0
  8 12  1  0
  9 10  2  0
 10 11  1  0
 11 12  2  0
 13 20  1  0
 13 14  1  1
 15 13  1  0
 16 15  1  0
 17 16  1  6
 17 20  1  0
 18 17  1  0
 18 19  1  0
 19  1  1  6
 19 14  1  0
 20 21  1  0
M  END
>  <DRUGBANK_ID>  (1) 
DB00572

>  <SECONDARY_ACCESSION_NUMBERS>  (1) 
APRD00807; EXPT02427

>  <COMMON_NAME>  (1) 
Atropine

>  <CAS_NUMBER>  (1) 
51-55-8

>  <UNII>  (1) 
7C0697DR9I

>  <SYNONYMS>  (1) 
(±)-atropine; (±)-hyoscyamine; Atropin; Atropina; Atropine; Atropinum; dl-Hyoscyamine; dl-tropyltropate; Tropine tropate

$$$$
