
     RDKit          3D

 14 15  0  0  1  0  0  0  0  0999 V2000
    1.0535    0.0031    0.0729 O   0  0  0  0  0  0  0  0  0  0  0  0
    1.7133   -2.0155   -2.1174 N   0  0  0  0  0  0  0  0  0  0  0  0
    4.5522   -1.1868    0.4354 N   0  0  0  0  0  0  0  0  0  0  0  0
    0.4443   -1.9996   -1.3661 C   0  0  1  0  0  0  0  0  0  0  0  0
    0.0663   -3.4708   -1.1721 C   0  0  0  0  0  0  0  0  0  0  0  0
    0.8083   -4.2041   -2.2744 C   0  0  0  0  0  0  0  0  0  0  0  0
    2.0353   -3.3665   -2.5606 C   0  0  0  0  0  0  0  0  0  0  0  0
    0.2364   -1.1549   -0.0609 C   0  0  0  0  0  0  0  0  0  0  0  0
    2.3945   -0.1140    0.2870 C   0  0  0  0  0  0  0  0  0  0  0  0
    3.2002   -1.2468    0.5161 C   0  0  0  0  0  0  0  0  0  0  0  0
    3.0546    1.1200    0.1463 C   0  0  0  0  0  0  0  0  0  0  0  0
    2.7557   -2.6541    0.7510 C   0  0  0  0  0  0  0  0  0  0  0  0
    4.4357    1.1870    0.1225 C   0  0  0  0  0  0  0  0  0  0  0  0
    5.1419    0.0067    0.2219 C   0  0  0  0  0  0  0  0  0  0  0  0
  1  8  1  0
  1  9  1  0
  2  4  1  0
  2  7  1  0
  3 10  2  0
  3 14  1  0
  4  5  1  0
  4  8  1  1
  5  6  1  0
  6  7  1  0
  9 10  1  0
  9 11  2  0
 10 12  1  0
 11 13  1  0
 13 14  2  0
M  END
>  <DRUGBANK_ID>  (1) 
DB05458

>  <COMMON_NAME>  (1) 
Pozanicline

>  <CAS_NUMBER>  (1) 
161417-03-4

>  <UNII>  (1) 
CL2002R563

>  <SYNONYMS>  (1) 
Pozanicline

$$$$
