
     RDKit          3D

 10 10  0  0  1  0  0  0  0  0999 V2000
    0.9583    0.0996    0.0130 C   0  0  0  0  0  0  0  0  0  0  0  0
    0.5388   -2.0228    1.3116 C   0  0  0  0  0  0  0  0  0  0  0  0
    0.4570   -0.4979    1.3236 C   0  0  2  0  0  0  0  0  0  0  0  0
   -0.6777   -2.4483    2.1123 C   0  0  2  0  0  0  0  0  0  0  0  0
   -1.0260   -0.1967    1.5989 C   0  0  2  0  0  0  0  0  0  0  0  0
   -1.1954    0.6647    2.8571 C   0  0  0  0  0  0  0  0  0  0  0  0
   -1.1047   -3.7814    1.7974 N   0  0  0  0  0  0  0  0  0  0  0  0
   -1.7199   -1.5170    1.7298 N   0  0  0  0  0  0  0  0  0  0  0  0
   -1.6520    1.8015    2.8824 O   0  0  0  0  0  0  0  0  0  0  0  0
   -0.7426    0.0965    3.9943 O   0  0  0  0  0  0  0  0  0  0  0  0
  3  1  1  6
  3  2  1  0
  4  2  1  0
  4  7  1  6
  5  3  1  0
  5  6  1  1
  8  4  1  0
  8  5  1  0
  9  6  2  0
 10  6  1  0
M  END
>  <DRUGBANK_ID>  (1) 
DB03184

>  <SECONDARY_ACCESSION_NUMBERS>  (1) 
EXPT03249

>  <COMMON_NAME>  (1) 
5-Amino-3-Methyl-Pyrrolidine-2-Carboxylic Acid

$$$$
