L03
     RDKit          3D

 14 15  0  0  0  0  0  0  0  0999 V2000
    1.0032    0.1317   -0.0601 C   0  0  0  0  0  0  0  0  0  0  0  0
    0.5203   -0.1298   -1.7851 S   0  0  0  0  0  0  0  0  0  0  0  0
    0.9767    1.3405   -2.5577 C   0  0  0  0  0  0  0  0  0  0  0  0
    0.6729    2.5714   -2.2265 N   0  0  0  0  0  0  0  0  0  0  0  0
    1.1646    3.3953   -3.2223 N   0  0  0  0  0  0  0  0  0  0  0  0
    1.7349    2.6456   -4.1520 C   0  0  0  0  0  0  0  0  0  0  0  0
    1.6464    1.3365   -3.7454 N   0  0  0  0  0  0  0  0  0  0  0  0
    2.3864    3.1234   -5.3721 C   0  0  0  0  0  0  0  0  0  0  0  0
    2.0237    2.6557   -6.6448 C   0  0  0  0  0  0  0  0  0  0  0  0
    2.6174    3.1931   -7.7982 C   0  0  0  0  0  0  0  0  0  0  0  0
    3.5836    4.1916   -7.6863 C   0  0  0  0  0  0  0  0  0  0  0  0
    4.3117    4.8480   -9.1010 Cl  0  0  0  0  0  0  0  0  0  0  0  0
    3.9560    4.6650   -6.4320 C   0  0  0  0  0  0  0  0  0  0  0  0
    3.3557    4.1352   -5.2830 C   0  0  0  0  0  0  0  0  0  0  0  0
  1  2  1  0
  2  3  1  0
  3  4  2  0
  3  7  1  0
  4  5  1  0
  5  6  2  0
  6  7  1  0
  6  8  1  0
  8  9  2  0
  8 14  1  0
  9 10  1  0
 10 11  2  0
 11 12  1  0
 11 13  1  0
 13 14  2  0
M  END
>  <DRUGBANK_ID>  (1) 
DB08062

>  <COMMON_NAME>  (1) 
3-(4-CHLOROPHENYL)-5-(METHYLTHIO)-4H-1,2,4-TRIAZOLE

$$$$
