1144
     RDKit          3D

 16 16  0  0  0  0  0  0  0  0999 V2000
    1.4678    1.4495   -0.0103 Cl  0  0  0  0  0  0  0  0  0  0  0  0
    1.2887   -1.6761   -0.0012 Cl  0  0  0  0  0  0  0  0  0  0  0  0
   -1.4443    3.1934   -0.1196 S   0  0  0  0  0  0  0  0  0  0  0  0
   -4.0583   -1.6319    0.1017 S   0  0  0  0  0  0  0  0  0  0  0  0
   -2.0468    3.4971   -1.3961 O   0  0  0  0  0  0  0  0  0  0  0  0
   -2.0349    3.6362    1.1231 O   0  0  0  0  0  0  0  0  0  0  0  0
   -4.1564   -2.3595   -1.1360 O   0  0  0  0  0  0  0  0  0  0  0  0
   -4.1146   -2.2817    1.3934 O   0  0  0  0  0  0  0  0  0  0  0  0
    0.0807    3.8589   -0.1781 N   0  0  0  0  0  0  0  0  0  0  0  0
   -5.3055   -0.5065    0.0700 N   0  0  0  0  0  0  0  0  0  0  0  0
   -1.3074    1.4206   -0.0305 C   0  0  0  0  0  0  0  0  0  0  0  0
   -2.5606   -0.6770    0.0505 C   0  0  0  0  0  0  0  0  0  0  0  0
   -2.5433    0.7211   -0.0029 C   0  0  0  0  0  0  0  0  0  0  0  0
   -0.0987    0.7094   -0.0108 C   0  0  0  0  0  0  0  0  0  0  0  0
   -1.3617   -1.3876    0.0465 C   0  0  0  0  0  0  0  0  0  0  0  0
   -0.1464   -0.7001    0.0144 C   0  0  0  0  0  0  0  0  0  0  0  0
  1 14  1  0
  2 16  1  0
  3  5  2  0
  3  6  2  0
  3  9  1  0
  3 11  1  0
  4  7  2  0
  4  8  2  0
  4 10  1  0
  4 12  1  0
 11 13  2  0
 11 14  1  0
 12 13  1  0
 12 15  2  0
 14 16  2  0
 15 16  1  0
M  END
>  <DRUGBANK_ID>  (1) 
DB01144

>  <SECONDARY_ACCESSION_NUMBERS>  (1) 
APRD00131; DB07948

>  <COMMON_NAME>  (1) 
Diclofenamide

>  <CAS_NUMBER>  (1) 
120-97-8

>  <UNII>  (1) 
VVJ6673MHY

>  <SYNONYMS>  (1) 
1,3-disulfamoyl-4,5-dichlorobenzene; 1,3-disulfamyl-4,5-dichlorobenzene; 3,4-dichloro-5-sulfamylbenzenesulfonamide; 4,5-dichloro-1,3-benzenedisulfonamide; 4,5-dichloro-1,3-disulfamoylbenzene; 4,5-dichloro-benzene-1,3-disulfonic acid diamide; 4,5-dichloro-m-benzenedisulfonamide; 4,5-dichlorobenzene-1,3-disulfonamide; Dichlofenamide; Dichlorophenamide; Dichlorphenamide; Diclofenamida; Diclofenamide; Diclofenamidum

$$$$
