
     RDKit          3D

 16 16  0  0  1  0  0  0  0  0999 V2000
    1.5727    1.0470    6.1355 C   0  0  0  0  0  0  0  0  0  0  0  0
   -1.1548   -1.9556    3.6876 C   0  0  0  0  0  0  0  0  0  0  0  0
   -4.7873    1.6121    1.5466 C   0  0  0  0  0  0  0  0  0  0  0  0
    0.3210    1.0234    5.3235 C   0  0  0  0  0  0  0  0  0  0  0  0
   -3.5992    1.6698    2.5339 C   0  0  2  0  0  0  0  0  0  0  0  0
   -0.7645    1.5976    3.1397 C   0  0  2  0  0  0  0  0  0  0  0  0
   -2.7588    2.9377    2.3302 C   0  0  2  0  0  0  0  0  0  0  0  0
   -1.4938    2.9433    3.1952 C   0  0  2  0  0  0  0  0  0  0  0  0
   -1.7370    0.3945    3.3087 C   0  0  2  0  0  0  0  0  0  0  0  0
    0.3868    1.5745    4.0691 N   0  0  0  0  0  0  0  0  0  0  0  0
   -4.6106    2.4384    0.3947 O   0  0  0  0  0  0  0  0  0  0  0  0
   -0.6923    0.5124    5.8063 O   0  0  0  0  0  0  0  0  0  0  0  0
   -3.5674    4.0965    2.5841 O   0  0  0  0  0  0  0  0  0  0  0  0
   -0.6054    3.9917    2.7474 O   0  0  0  0  0  0  0  0  0  0  0  0
   -0.8984   -0.7323    3.0315 O   0  0  0  0  0  0  0  0  0  0  0  0
   -2.7996    0.4871    2.3563 O   0  0  0  0  0  0  0  0  0  0  0  0
  4  1  1  0
  5  3  1  6
  6 10  1  1
  7  5  1  0
  7 13  1  1
  8  6  1  0
  8  7  1  0
  8 14  1  6
  9  6  1  0
  9 15  1  6
 10  4  1  0
 11  3  1  0
 12  4  2  0
 15  2  1  0
 16  5  1  0
 16  9  1  0
M  END
>  <DRUGBANK_ID>  (1) 
DB04426

>  <SECONDARY_ACCESSION_NUMBERS>  (1) 
EXPT02108; DB02612

>  <COMMON_NAME>  (1) 
Alpha-Methyl-N-Acetyl-D-Glucosamine

$$$$
