
     RDKit          3D

 26 30  0  0  0  0  0  0  0  0999 V2000
    0.7668    0.0003   -0.0965 C   0  0  0  0  0  0  0  0  0  0  0  0
    0.0638   -0.7251   -0.7542 O   0  0  0  0  0  0  0  0  0  0  0  0
    0.1888    0.8765    0.8083 O   0  0  0  0  0  0  0  0  0  0  0  0
    0.7599    2.0373    1.4862 C   0  0  0  0  0  0  0  0  0  0  0  0
    2.2325    0.0991   -0.3428 C   0  0  0  0  0  0  0  0  0  0  0  0
    4.3153   -2.9340   -0.0948 N   0  0  0  0  0  0  0  0  0  0  0  0
    1.7348   -3.5413    1.1762 C   0  0  0  0  0  0  0  0  0  0  0  0
    4.2117   -3.6527    1.2219 C   0  0  0  0  0  0  0  0  0  0  0  0
    3.0963   -2.9799   -0.9466 C   0  0  2  0  0  0  0  0  0  0  0  0
    2.8503   -1.8067   -1.9210 C   0  0  0  0  0  0  0  0  0  0  0  0
    3.1905   -0.4512   -1.3581 C   0  0  2  0  0  0  0  0  0  0  0  0
    4.6897   -0.4651   -0.7431 C   0  0  2  0  0  0  0  0  0  0  0  0
    4.9540   -1.6588    0.1583 C   0  0  0  0  0  0  0  0  0  0  0  0
    1.8516   -3.3024   -0.1732 C   0  0  0  0  0  0  0  0  0  0  0  0
    0.3645   -3.7878    1.4632 C   0  0  0  0  0  0  0  0  0  0  0  0
   -0.3331   -3.6688    0.2616 C   0  0  0  0  0  0  0  0  0  0  0  0
   -1.7555   -4.2211    2.5528 C   0  0  0  0  0  0  0  0  0  0  0  0
   -2.4248   -4.0747    1.3392 C   0  0  0  0  0  0  0  0  0  0  0  0
   -1.7264   -3.7749    0.1686 C   0  0  0  0  0  0  0  0  0  0  0  0
   -0.3660   -4.0616    2.6324 C   0  0  0  0  0  0  0  0  0  0  0  0
    0.5943   -3.3942   -0.7166 N   0  0  0  0  0  0  0  0  0  0  0  0
    2.9168   -3.4308    2.0563 C   0  0  0  0  0  0  0  0  0  0  0  0
    5.0299    0.8575    0.0924 C   0  0  1  0  0  0  0  0  0  0  0  0
    3.9132    1.7040   -0.1674 O   0  0  0  0  0  0  0  0  0  0  0  0
    2.8301    1.0165    0.3330 C   0  0  0  0  0  0  0  0  0  0  0  0
    5.0522    0.9320    1.6499 C   0  0  0  0  0  0  0  0  0  0  0  0
  1  3  1  0
  1  2  2  0
  1  5  1  0
  3  4  1  0
  5 11  1  0
  6  8  1  0
  7 15  1  0
  7 14  2  0
  8 22  1  0
  9  6  1  0
  9 10  1  1
 11 10  1  1
 11 12  1  0
 12 13  1  1
 12 23  1  0
 13  6  1  0
 14  9  1  0
 15 20  2  0
 15 16  1  0
 16 21  1  0
 17 18  2  0
 18 19  1  0
 19 16  2  0
 20 17  1  0
 21 14  1  0
 22  7  1  0
 23 24  1  0
 23 26  1  1
 24 25  1  0
 25  5  2  0
M  END
>  <DRUGBANK_ID>  (1) 
DB15949

>  <COMMON_NAME>  (1) 
Raubasine

>  <CAS_NUMBER>  (1) 
483-04-5

>  <UNII>  (1) 
4QJL8OX71Z

>  <SYNONYMS>  (1) 
Ajmalicin; Circolene; delta-Yohimbine; Hydrosarpan

$$$$
