53T
     RDKit          3D

 29 31  0  0  0  0  0  0  0  0999 V2000
   -5.3529   -7.0382   -5.5802 N   0  0  0  0  0  0  0  0  0  0  0  0
   -4.9762   -3.1245   -4.0610 C   0  0  0  0  0  0  0  0  0  0  0  0
   -4.0000   -5.4042   -2.4800 C   0  0  0  0  0  0  0  0  0  0  0  0
   -3.4670   -5.1969   -1.4074 C   0  0  0  0  0  0  0  0  0  0  0  0
   -2.7946   -4.9854   -0.0866 C   0  0  2  0  0  0  0  0  0  0  0  0
   -2.0032   -3.6775   -0.0671 C   0  0  0  0  0  0  0  0  0  0  0  0
   -4.7754   -6.8582   -4.3647 C   0  0  0  0  0  0  0  0  0  0  0  0
   -3.1588  -10.0533   -0.0761 C   0  0  0  0  0  0  0  0  0  0  0  0
   -5.7791   -5.9480   -6.2355 C   0  0  0  0  0  0  0  0  0  0  0  0
   -5.0815   -4.5426   -4.5421 C   0  0  0  0  0  0  0  0  0  0  0  0
   -4.6177   -5.6030   -3.7769 C   0  0  0  0  0  0  0  0  0  0  0  0
    3.8629   -5.0057    3.9484 C   0  0  0  0  0  0  0  0  0  0  0  0
    3.4836   -5.7605    2.7105 C   0  0  0  0  0  0  0  0  0  0  0  0
    2.1410   -5.9782    2.3710 C   0  0  0  0  0  0  0  0  0  0  0  0
    4.4884   -6.2711    1.8830 C   0  0  0  0  0  0  0  0  0  0  0  0
    4.1642   -6.9833    0.7257 C   0  0  0  0  0  0  0  0  0  0  0  0
    5.2481   -7.5179   -0.1559 C   0  0  0  0  0  0  0  0  0  0  0  0
    2.8211   -7.1972    0.4055 C   0  0  0  0  0  0  0  0  0  0  0  0
    1.7933   -6.7151    1.2257 C   0  0  0  0  0  0  0  0  0  0  0  0
    0.3929   -6.9802    0.8750 C   0  0  0  0  0  0  0  0  0  0  0  0
   -0.4854   -5.9233    0.6280 C   0  0  0  0  0  0  0  0  0  0  0  0
   -0.0977   -8.2813    0.7366 C   0  0  0  0  0  0  0  0  0  0  0  0
   -1.4306   -8.5157    0.3880 C   0  0  0  0  0  0  0  0  0  0  0  0
   -1.7984   -9.8298    0.2830 O   0  0  0  0  0  0  0  0  0  0  0  0
   -2.2886   -7.4407    0.1634 C   0  0  0  0  0  0  0  0  0  0  0  0
   -1.8295   -6.1277    0.2461 C   0  0  0  0  0  0  0  0  0  0  0  0
   -5.6620   -4.7035   -5.7623 N   0  0  0  0  0  0  0  0  0  0  0  0
   -6.3765   -6.0887   -7.4616 N   0  0  0  0  0  0  0  0  0  0  0  0
   -4.4251   -8.0069   -3.6634 N   0  0  0  0  0  0  0  0  0  0  0  0
  1  7  2  0
  1  9  1  0
  2 10  1  0
  3  4  3  0
  3 11  1  0
  5 26  1  0
  5  6  1  6
  5  4  1  0
  7 11  1  0
  7 29  1  0
  8 24  1  0
  9 27  2  0
  9 28  1  0
 10 11  2  0
 10 27  1  0
 12 13  1  0
 13 14  2  0
 13 15  1  0
 14 19  1  0
 15 16  2  0
 16 17  1  0
 16 18  1  0
 18 19  2  0
 19 20  1  0
 20 21  2  0
 20 22  1  0
 21 26  1  0
 22 23  2  0
 23 24  1  0
 23 25  1  0
 25 26  2  0
M  END
>  <DRUGBANK_ID>  (1) 
DB07142

>  <COMMON_NAME>  (1) 
5-[(3R)-3-(5-methoxy-3',5'-dimethylbiphenyl-3-yl)but-1-yn-1-yl]-6-methylpyrimidine-2,4-diamine

$$$$
