
     RDKit          3D

 29 32  0  0  1  0  0  0  0  0999 V2000
    3.3368    0.5344    0.0578 F   0  0  0  0  0  0  0  0  0  0  0  0
   -5.9764  -10.8453    5.5173 F   0  0  0  0  0  0  0  0  0  0  0  0
   -1.8763   -1.1365   -0.1383 O   0  0  0  0  0  0  0  0  0  0  0  0
   -4.9206   -5.8707    3.4917 O   0  0  0  0  0  0  0  0  0  0  0  0
   -3.8229    0.8930    2.3343 O   0  0  0  0  0  0  0  0  0  0  0  0
   -3.5762   -4.3490    1.2351 O   0  0  0  0  0  0  0  0  0  0  0  0
   -1.8813   -2.2514    2.3359 N   0  0  0  0  0  0  0  0  0  0  0  0
   -2.8550   -0.1974    0.3571 C   0  0  0  0  0  0  0  0  0  0  0  0
   -3.5303   -5.5216    3.3802 C   0  0  0  0  0  0  0  0  0  0  0  0
   -2.7775    0.0151    1.9003 C   0  0  0  0  0  0  0  0  0  0  0  0
   -3.4324   -4.1826    2.6546 C   0  0  0  0  0  0  0  0  0  0  0  0
   -2.7224    1.1071   -0.4222 C   0  0  0  0  0  0  0  0  0  0  0  0
   -2.7578   -6.5965    2.6265 C   0  0  0  0  0  0  0  0  0  0  0  0
   -2.9249   -1.2919    2.6752 C   0  0  0  0  0  0  0  0  0  0  0  0
   -2.0702   -3.5405    2.9748 C   0  0  0  0  0  0  0  0  0  0  0  0
   -1.3826    1.7449   -0.0713 C   0  0  0  0  0  0  0  0  0  0  0  0
   -2.7561   -7.8512    3.4667 C   0  0  0  0  0  0  0  0  0  0  0  0
   -0.2900    0.7105   -0.0850 C   0  0  0  0  0  0  0  0  0  0  0  0
   -4.1306   -8.1162    4.0022 C   0  0  0  0  0  0  0  0  0  0  0  0
   -0.5868   -0.6574   -0.1356 C   0  0  0  0  0  0  0  0  0  0  0  0
   -5.1244   -7.1277    3.9954 C   0  0  0  0  0  0  0  0  0  0  0  0
    1.0505    1.1035    0.0032 C   0  0  0  0  0  0  0  0  0  0  0  0
   -4.4265   -9.3745    4.5344 C   0  0  0  0  0  0  0  0  0  0  0  0
    0.4292   -1.6178   -0.1552 C   0  0  0  0  0  0  0  0  0  0  0  0
   -6.4057   -7.3975    4.4741 C   0  0  0  0  0  0  0  0  0  0  0  0
    2.0553    0.1414   -0.0071 C   0  0  0  0  0  0  0  0  0  0  0  0
   -5.7008   -9.6303    5.0191 C   0  0  0  0  0  0  0  0  0  0  0  0
    1.7625   -1.2125   -0.0898 C   0  0  0  0  0  0  0  0  0  0  0  0
   -6.6947   -8.6609    4.9925 C   0  0  0  0  0  0  0  0  0  0  0  0
  1 26  1  0
  2 27  1  0
  3  8  1  0
  3 20  1  0
  4  9  1  0
  4 21  1  0
  5 10  1  0
  6 11  1  0
  7 14  1  0
  7 15  1  0
  8 10  1  0
  8 12  1  0
  9 11  1  0
  9 13  1  0
 10 14  1  0
 11 15  1  0
 12 16  1  0
 13 17  1  0
 16 18  1  0
 17 19  1  0
 18 20  2  0
 18 22  1  0
 19 21  2  0
 19 23  1  0
 20 24  1  0
 21 25  1  0
 22 26  2  0
 23 27  2  0
 24 28  2  0
 25 29  2  0
 26 28  1  0
 27 29  1  0
M  END
>  <DRUGBANK_ID>  (1) 
DB04861

>  <COMMON_NAME>  (1) 
Nebivolol

>  <CAS_NUMBER>  (1) 
118457-14-0

>  <UNII>  (1) 
030Y90569U

>  <SYNONYMS>  (1) 
Narbivolol; Nebivolol; Nebivololum

$$$$
