5105
     RDKit          3D

 25 26  0  0  0  0  0  0  0  0999 V2000
    1.0487   -0.0351   -0.1136 O   0  0  0  0  0  0  0  0  0  0  0  0
    5.0358    0.9584   -4.1443 O   0  0  0  0  0  0  0  0  0  0  0  0
    4.1151    3.9326   -2.5925 O   0  0  0  0  0  0  0  0  0  0  0  0
    6.6361    2.0968   -2.9557 O   0  0  0  0  0  0  0  0  0  0  0  0
   -0.2629    3.6702    4.2817 N   0  0  0  0  0  0  0  0  0  0  0  0
    3.0327    2.0203   -2.1509 N   0  0  0  0  0  0  0  0  0  0  0  0
   -1.4148    3.1203    5.0005 C   0  0  0  0  0  0  0  0  0  0  0  0
   -0.6952    4.3229    3.0372 C   0  0  0  0  0  0  0  0  0  0  0  0
   -1.7344    5.4076    3.3273 C   0  0  0  0  0  0  0  0  0  0  0  0
   -2.4604    4.1476    5.3706 C   0  0  0  0  0  0  0  0  0  0  0  0
   -2.9274    4.8535    4.1041 C   0  0  0  0  0  0  0  0  0  0  0  0
    0.7472    2.6264    4.0231 C   0  0  0  0  0  0  0  0  0  0  0  0
    0.2898    1.4736    3.1493 C   0  0  0  0  0  0  0  0  0  0  0  0
    0.8564    1.3070    1.8879 C   0  0  0  0  0  0  0  0  0  0  0  0
   -0.6992    0.5622    3.5598 C   0  0  0  0  0  0  0  0  0  0  0  0
    0.4553    0.2444    1.0810 C   0  0  0  0  0  0  0  0  0  0  0  0
   -1.1723   -0.4319    2.7131 C   0  0  0  0  0  0  0  0  0  0  0  0
   -0.5999   -0.5825    1.4607 C   0  0  0  0  0  0  0  0  0  0  0  0
    2.4794   -0.0328   -0.0368 C   0  0  0  0  0  0  0  0  0  0  0  0
    3.0052   -0.3318   -1.4304 C   0  0  0  0  0  0  0  0  0  0  0  0
    2.5029    0.6983   -2.4359 C   0  0  0  0  0  0  0  0  0  0  0  0
    3.8353    2.7887   -2.9466 C   0  0  0  0  0  0  0  0  0  0  0  0
    4.3094    2.1870   -4.2720 C   0  0  0  0  0  0  0  0  0  0  0  0
    6.1865    1.0591   -3.4287 C   0  0  0  0  0  0  0  0  0  0  0  0
    6.8514   -0.2728   -3.2699 C   0  0  0  0  0  0  0  0  0  0  0  0
  1 16  1  0
  1 19  1  0
  2 23  1  0
  2 24  1  0
  3 22  2  0
  4 24  2  0
  5  7  1  0
  5  8  1  0
  5 12  1  0
  6 21  1  0
  6 22  1  0
  7 10  1  0
  8  9  1  0
  9 11  1  0
 10 11  1  0
 12 13  1  0
 13 14  2  0
 13 15  1  0
 14 16  1  0
 15 17  2  0
 16 18  2  0
 17 18  1  0
 19 20  1  0
 20 21  1  0
 22 23  1  0
 24 25  1  0
M  END
>  <DRUGBANK_ID>  (1) 
DB08806

>  <COMMON_NAME>  (1) 
Roxatidine acetate

>  <CAS_NUMBER>  (1) 
78628-28-1

>  <UNII>  (1) 
ZUP3LSD0DO

>  <SYNONYMS>  (1) 
Pifatidine

$$$$
