
     RDKit          3D

 27 29  0  0  1  0  0  0  0  0999 V2000
   -0.7878   -1.2019    0.2661 C   0  0  0  0  0  0  0  0  0  0  0  0
    2.3770   -0.4930   -6.6747 C   0  0  0  0  0  0  0  0  0  0  0  0
    2.4278    0.8648   -6.5764 N   0  0  0  0  0  0  0  0  0  0  0  0
    0.6864    1.1579   -0.3014 C   0  0  1  0  0  0  0  0  0  0  0  0
    1.3685   -0.0326    0.1622 O   0  0  0  0  0  0  0  0  0  0  0  0
    4.5148    0.5608   -5.5036 C   0  0  0  0  0  0  0  0  0  0  0  0
    4.4315   -0.8068   -5.5162 N   0  0  0  0  0  0  0  0  0  0  0  0
    0.6990    1.2030   -1.8424 C   0  0  0  0  0  0  0  0  0  0  0  0
    0.0212    2.3638   -2.4033 N   0  0  0  0  0  0  0  0  0  0  0  0
   -1.5267    0.0085   -0.1466 N   0  0  0  0  0  0  0  0  0  0  0  0
    3.3180   -1.3205   -6.0931 C   0  0  0  0  0  0  0  0  0  0  0  0
    2.6321    4.7712   -4.5703 N   0  0  0  0  0  0  0  0  0  0  0  0
    2.5429    3.4455   -4.8172 C   0  0  0  0  0  0  0  0  0  0  0  0
    3.4859    2.7823   -5.6340 N   0  0  0  0  0  0  0  0  0  0  0  0
   -0.7454    1.1917    0.2649 C   0  0  0  0  0  0  0  0  0  0  0  0
    1.7475    5.3161   -3.6725 C   0  0  0  0  0  0  0  0  0  0  0  0
    0.6676   -1.2240   -0.2261 C   0  0  0  0  0  0  0  0  0  0  0  0
    3.1251   -2.7394   -6.0482 C   0  0  0  0  0  0  0  0  0  0  0  0
    3.5007    1.4133   -5.9529 C   0  0  0  0  0  0  0  0  0  0  0  0
    0.8511    4.5862   -2.9033 C   0  0  0  0  0  0  0  0  0  0  0  0
    0.7647    3.2329   -3.1778 C   0  0  0  0  0  0  0  0  0  0  0  0
    1.5582    2.7021   -4.1916 C   0  0  0  0  0  0  0  0  0  0  0  0
    0.0473    5.1963   -1.8011 C   0  0  0  0  0  0  0  0  0  0  0  0
    2.9051   -3.8868   -6.0121 N   0  0  0  0  0  0  0  0  0  0  0  0
   -1.2955    5.0081   -1.9629 F   0  0  0  0  0  0  0  0  0  0  0  0
    0.2195    6.5383   -1.6585 F   0  0  0  0  0  0  0  0  0  0  0  0
    0.3359    4.6586   -0.5775 F   0  0  0  0  0  0  0  0  0  0  0  0
  1 17  1  0
  1 10  1  0
  2  3  2  0
  2 11  1  0
  3 19  1  0
  4  5  1  0
  4  8  1  6
  4 15  1  0
  5 17  1  0
  6 19  2  0
  6  7  1  0
  7 11  2  0
  8  9  1  0
  9 21  1  0
 10 15  1  0
 11 18  1  0
 12 16  2  0
 12 13  1  0
 13 14  1  0
 13 22  2  0
 14 19  1  0
 16 20  1  0
 18 24  3  0
 20 23  1  0
 20 21  2  0
 21 22  1  0
 23 25  1  0
 23 27  1  0
 23 26  1  0
M  END
>  <DRUGBANK_ID>  (1) 
DB16876

>  <COMMON_NAME>  (1) 
SRA-737

>  <CAS_NUMBER>  (1) 
1489389-18-5

>  <UNII>  (1) 
QB6LNL4NF6

$$$$
