SMG
     RDKit          3D

 16 15  0  0  0  0  0  0  0  0999 V2000
    0.6836    1.2871    0.2381 O   0  0  0  0  0  0  0  0  0  0  0  0
    0.5339    2.0518   -1.8026 O   0  0  0  0  0  0  0  0  0  0  0  0
   -0.0281    1.6001   -0.8373 C   0  0  0  0  0  0  0  0  0  0  0  0
   -1.4479    1.2146   -0.6418 C   0  0  0  0  0  0  0  0  0  0  0  0
   -1.8037   -0.2450   -0.8426 C   0  0  0  0  0  0  0  0  0  0  0  0
   -1.8330   -2.2832    0.3904 O   0  0  0  0  0  0  0  0  0  0  0  0
   -1.0905   -1.4473   -0.1538 C   0  0  0  0  0  0  0  0  0  0  0  0
    0.2332   -1.7885   -0.1179 N   0  0  0  0  0  0  0  0  0  0  0  0
    3.7319   -0.3952    0.1295 O   0  0  0  0  0  0  0  0  0  0  0  0
    2.0376   -0.1370    1.5297 O   0  0  0  0  0  0  0  0  0  0  0  0
    2.5690   -0.6648    0.3993 C   0  0  0  0  0  0  0  0  0  0  0  0
    1.4982   -1.2314   -0.6440 C   0  0  1  0  0  0  0  0  0  0  0  0
    2.2218   -2.0441   -1.7372 C   0  0  0  0  0  0  0  0  0  0  0  0
    1.3601   -2.6884   -2.8310 C   0  0  0  0  0  0  0  0  0  0  0  0
    0.8590   -1.6176   -4.2471 S   0  0  0  0  0  0  0  0  0  0  0  0
   -0.4502   -0.7187   -3.4586 C   0  0  0  0  0  0  0  0  0  0  0  0
  1  3  1  0
  2  3  2  0
  3  4  1  0
  4  5  1  0
  5  7  1  0
  6  7  2  0
  7  8  1  0
  9 11  2  0
 10 11  1  0
 11 12  1  0
 12  8  1  0
 12 13  1  1
 13 14  1  0
 14 15  1  0
 15 16  1  0
M  END
>  <DRUGBANK_ID>  (1) 
DB04511

>  <SECONDARY_ACCESSION_NUMBERS>  (1) 
EXPT02922

>  <COMMON_NAME>  (1) 
N-Succinyl Methionine

$$$$
