
     RDKit          3D

 18 19  0  0  0  0  0  0  0  0999 V2000
    2.4152   -0.6868   -0.0170 C   0  0  0  0  0  0  0  0  0  0  0  0
    2.4355    0.7081   -0.0083 C   0  0  0  0  0  0  0  0  0  0  0  0
    1.2399    1.4271    0.0275 C   0  0  0  0  0  0  0  0  0  0  0  0
    1.1932   -1.3791   -0.0262 C   0  0  0  0  0  0  0  0  0  0  0  0
   -0.0108   -0.6358   -0.1283 C   0  0  0  0  0  0  0  0  0  0  0  0
    0.0054    0.7679   -0.0288 C   0  0  0  0  0  0  0  0  0  0  0  0
   -1.2141    1.4717   -0.0037 C   0  0  0  0  0  0  0  0  0  0  0  0
   -2.4387    0.8023   -0.0767 C   0  0  0  0  0  0  0  0  0  0  0  0
   -2.4625   -0.5652   -0.2892 C   0  0  0  0  0  0  0  0  0  0  0  0
   -1.2513   -1.2508   -0.3504 C   0  0  0  0  0  0  0  0  0  0  0  0
   -3.6995   -1.1304   -0.4390 O   0  0  0  0  0  0  0  0  0  0  0  0
   -3.7147   -2.5300   -0.6766 C   0  0  0  0  0  0  0  0  0  0  0  0
    1.1840   -2.8987    0.0903 C   0  0  0  0  0  0  0  0  0  0  0  0
    0.5870   -3.4660    1.4139 C   0  0  0  0  0  0  0  0  0  0  0  0
   -0.8266   -3.1954    1.7199 N   0  0  0  0  0  0  0  0  0  0  0  0
   -1.8023   -4.1786    1.7407 C   0  0  0  0  0  0  0  0  0  0  0  0
   -3.2362   -3.7295    2.0311 C   0  0  0  0  0  0  0  0  0  0  0  0
   -1.5670   -5.3412    1.4634 O   0  0  0  0  0  0  0  0  0  0  0  0
  1  2  2  0
  2  3  1  0
  3  6  2  0
  4  1  1  0
  4 13  1  0
  5  6  1  0
  5  4  2  0
  6  7  1  0
  7  8  2  0
  8  9  1  0
  9 10  2  0
  9 11  1  0
 10  5  1  0
 11 12  1  0
 13 14  1  0
 14 15  1  0
 15 16  1  0
 16 17  1  0
 16 18  2  0
M  END
>  <DRUGBANK_ID>  (1) 
DB06594

>  <COMMON_NAME>  (1) 
Agomelatine

>  <CAS_NUMBER>  (1) 
138112-76-2

>  <UNII>  (1) 
137R1N49AD

>  <SYNONYMS>  (1) 
Agomelatina; Agomelatine

$$$$
