
     RDKit          3D

 10  9  0  0  1  0  0  0  0  0999 V2000
   -2.5959   -4.4927   -0.2596 C   0  0  0  0  0  0  0  0  0  0  0  0
   -1.6143   -4.0645    0.8272 C   0  0  0  0  0  0  0  0  0  0  0  0
   -0.5865   -5.1814    1.0525 C   0  0  0  0  0  0  0  0  0  0  0  0
   -0.8342   -2.7745    0.4908 C   0  0  0  0  0  0  0  0  0  0  0  0
   -1.5203   -1.3959    0.3475 C   0  0  2  0  0  0  0  0  0  0  0  0
   -1.0126   -0.4413    1.3629 N   0  0  0  0  0  0  0  0  0  0  0  0
   -3.0565   -1.3648    0.3332 C   0  0  0  0  0  0  0  0  0  0  0  0
   -3.6862   -1.0296   -0.6762 O   0  0  0  0  0  0  0  0  0  0  0  0
   -3.7279   -1.7103    1.4641 N   0  0  0  0  0  0  0  0  0  0  0  0
   -3.1394   -2.0357    2.6933 O   0  0  0  0  0  0  0  0  0  0  0  0
  1  2  1  0
  2  3  1  0
  2  4  1  0
  5  7  1  0
  5  6  1  1
  5  4  1  0
  7  8  2  0
  7  9  1  0
  9 10  1  0
M  END
>  <DRUGBANK_ID>  (1) 
DB03308

>  <SECONDARY_ACCESSION_NUMBERS>  (1) 
EXPT02048

>  <COMMON_NAME>  (1) 
L-Leucyl-Hydroxylamine

$$$$
