848
     RDKit          3D

 14 16  0  0  1  0  0  0  0  0999 V2000
    1.7057   -1.0957   -0.0091 S   0  0  0  0  0  0  0  0  0  0  0  0
   -0.1646    0.6488   -0.0458 N   0  0  0  0  0  0  0  0  0  0  0  0
   -0.9938   -1.4657    0.0228 N   0  0  0  0  0  0  0  0  0  0  0  0
   -1.5570    0.9494    0.0020 C   0  0  0  0  0  0  0  0  0  0  0  0
   -2.1656   -0.4909    0.0249 C   0  0  2  0  0  0  0  0  0  0  0  0
    0.9462    1.5407    0.0149 C   0  0  0  0  0  0  0  0  0  0  0  0
    0.0324   -0.6804   -0.0095 C   0  0  0  0  0  0  0  0  0  0  0  0
    2.2184    0.6733    0.0153 C   0  0  0  0  0  0  0  0  0  0  0  0
   -3.1483   -0.6966    1.1647 C   0  0  0  0  0  0  0  0  0  0  0  0
   -4.2558    0.1601    1.3064 C   0  0  0  0  0  0  0  0  0  0  0  0
   -3.0274   -1.7769    2.0485 C   0  0  0  0  0  0  0  0  0  0  0  0
   -5.2107   -0.0607    2.3015 C   0  0  0  0  0  0  0  0  0  0  0  0
   -4.0082   -2.0247    3.0109 C   0  0  0  0  0  0  0  0  0  0  0  0
   -5.0897   -1.1581    3.1492 C   0  0  0  0  0  0  0  0  0  0  0  0
  1  7  1  0
  1  8  1  0
  2  4  1  0
  2  6  1  0
  2  7  1  0
  3  5  1  0
  3  7  2  0
  4  5  1  0
  5  9  1  1
  6  8  1  0
  9 10  2  0
  9 11  1  0
 10 12  1  0
 11 13  2  0
 12 14  2  0
 13 14  1  0
M  END
>  <DRUGBANK_ID>  (1) 
DB00848

>  <SECONDARY_ACCESSION_NUMBERS>  (1) 
APRD01067

>  <COMMON_NAME>  (1) 
Levamisole

>  <CAS_NUMBER>  (1) 
14769-73-4

>  <UNII>  (1) 
2880D3468G

>  <SYNONYMS>  (1) 
Levamisol; Levamisole; Levamisolum

$$$$
