
     RDKit          3D

 36 37  0  0  1  0  0  0  0  0999 V2000
   -8.0341   -1.8549    4.8918 C   0  0  0  0  0  0  0  0  0  0  0  0
   -8.3401   -0.9236    5.8882 C   0  0  0  0  0  0  0  0  0  0  0  0
   -8.1702    0.4456    5.6745 C   0  0  0  0  0  0  0  0  0  0  0  0
   -7.7466    0.8991    4.4326 C   0  0  0  0  0  0  0  0  0  0  0  0
   -7.5385   -0.0613    3.4200 C   0  0  0  0  0  0  0  0  0  0  0  0
   -7.6166   -1.4224    3.6511 C   0  0  0  0  0  0  0  0  0  0  0  0
   -7.5192    2.3775    4.2093 C   0  0  0  0  0  0  0  0  0  0  0  0
   -6.0419    2.7180    3.9277 C   0  0  0  0  0  0  0  0  0  0  0  0
   -5.5506    1.9717    2.6713 C   0  0  1  0  0  0  0  0  0  0  0  0
   -6.3429    2.4180    1.4319 C   0  0  0  0  0  0  0  0  0  0  0  0
   -6.3038    3.9353    1.2036 C   0  0  0  0  0  0  0  0  0  0  0  0
   -4.9125    4.5211    0.9193 C   0  0  1  0  0  0  0  0  0  0  0  0
   -5.0748    6.0320    0.6215 C   0  0  1  0  0  0  0  0  0  0  0  0
   -4.4421    6.8014    1.7897 C   0  0  0  0  0  0  0  0  0  0  0  0
   -4.0907    5.7650    2.8219 C   0  0  1  0  0  0  0  0  0  0  0  0
   -3.8089    4.5013    2.0330 C   0  0  2  0  0  0  0  0  0  0  0  0
   -2.3948    4.1543    1.4979 C   0  0  0  0  0  0  0  0  0  0  0  0
   -2.2022    4.4350    0.0473 C   0  0  0  0  0  0  0  0  0  0  0  0
   -1.5773    5.5283   -0.3731 C   0  0  0  0  0  0  0  0  0  0  0  0
   -0.9040    6.4856    0.5521 C   0  0  0  0  0  0  0  0  0  0  0  0
    0.5377    6.5771    0.1221 C   0  0  0  0  0  0  0  0  0  0  0  0
    0.6794    7.0356   -1.3194 C   0  0  0  0  0  0  0  0  0  0  0  0
    0.1357    8.3994   -1.5954 C   0  0  0  0  0  0  0  0  0  0  0  0
    0.7860    9.1818   -2.2798 O   0  0  0  0  0  0  0  0  0  0  0  0
   -1.0828    8.6235   -1.0483 O   0  0  0  0  0  0  0  0  0  0  0  0
   -1.6775    9.9343   -0.9814 C   0  0  0  0  0  0  0  0  0  0  0  0
   -0.9792   10.8181    0.0742 C   0  0  0  0  0  0  0  0  0  0  0  0
    0.4564   11.1549   -0.3199 C   0  0  0  0  0  0  0  0  0  0  0  0
    0.5378   11.7569   -1.7406 C   0  0  0  0  0  0  0  0  0  0  0  0
    0.1759   13.1334   -1.7534 O   0  0  0  0  0  0  0  0  0  0  0  0
   -1.2157   13.4160   -1.7939 N   0  0  0  0  0  0  0  0  0  0  0  0
   -2.0108   12.5074   -1.9728 O   0  0  0  0  0  0  0  0  0  0  0  0
   -1.4470   14.6175   -1.6165 O   0  0  0  0  0  0  0  0  0  0  0  0
   -3.0788    6.1332    3.7316 O   0  0  0  0  0  0  0  0  0  0  0  0
   -4.4651    6.3814   -0.6084 O   0  0  0  0  0  0  0  0  0  0  0  0
   -4.1677    1.9482    2.3892 O   0  0  0  0  0  0  0  0  0  0  0  0
  1  2  2  0
  1  6  1  0
  2  3  1  0
  3  4  2  0
  4  5  1  0
  4  7  1  0
  5  6  2  0
  7  8  1  0
  8  9  1  0
  9 10  1  0
  9 36  1  6
 10 11  1  0
 12 13  1  0
 12 16  1  0
 12 11  1  1
 13 14  1  0
 13 35  1  6
 14 15  1  0
 15 16  1  0
 15 34  1  6
 16 17  1  6
 17 18  1  0
 18 19  2  0
 19 20  1  0
 20 21  1  0
 21 22  1  0
 22 23  1  0
 23 24  2  0
 23 25  1  0
 25 26  1  0
 26 27  1  0
 27 28  1  0
 28 29  1  0
 29 30  1  0
 30 31  1  0
 31 32  2  0
 31 33  1  0
M  CHG  2  31   1  33  -1
M  END
>  <DRUGBANK_ID>  (1) 
DB11660

>  <COMMON_NAME>  (1) 
Latanoprostene bunod

>  <CAS_NUMBER>  (1) 
860005-21-6

>  <UNII>  (1) 
I6393O0922

>  <SYNONYMS>  (1) 
Latanoprostene bunod

$$$$
