C18
     RDKit          3D

 23 25  0  0  0  0  0  0  0  0999 V2000
   -3.2266    0.5489    0.0867 O   0  0  0  0  0  0  0  0  0  0  0  0
   -2.0757    0.1528   -0.0011 C   0  0  0  0  0  0  0  0  0  0  0  0
   -0.9972    1.0123   -0.0246 O   0  0  0  0  0  0  0  0  0  0  0  0
    0.3084    0.5120    0.0926 C   0  0  0  0  0  0  0  0  0  0  0  0
    0.5976   -0.8445    0.0631 C   0  0  0  0  0  0  0  0  0  0  0  0
   -0.5260   -1.7813   -0.0596 C   0  0  0  0  0  0  0  0  0  0  0  0
    0.5266   -3.6199   -1.2708 N   0  0  0  0  0  0  0  0  0  0  0  0
   -0.2676   -3.2590   -0.0995 C   0  0  0  0  0  0  0  0  0  0  0  0
    0.8042   -5.0442   -1.2849 C   0  0  0  0  0  0  0  0  0  0  0  0
   -1.7726   -1.2848   -0.0843 C   0  0  0  0  0  0  0  0  0  0  0  0
    1.3027    1.4698    0.2195 C   0  0  0  0  0  0  0  0  0  0  0  0
    2.6447    1.0870    0.2307 C   0  0  0  0  0  0  0  0  0  0  0  0
    2.9650   -0.2683    0.2063 C   0  0  0  0  0  0  0  0  0  0  0  0
    1.9462   -1.2254    0.1418 C   0  0  0  0  0  0  0  0  0  0  0  0
    3.7012    1.9522    0.0938 O   0  0  0  0  0  0  0  0  0  0  0  0
    3.3917    3.3371   -0.1423 C   0  0  0  0  0  0  0  0  0  0  0  0
    2.7404    3.6552   -1.4864 C   0  0  0  0  0  0  0  0  0  0  0  0
    2.5347    4.9864   -1.8670 C   0  0  0  0  0  0  0  0  0  0  0  0
    1.8503    5.2831   -3.0533 C   0  0  0  0  0  0  0  0  0  0  0  0
    1.3019    4.2634   -3.8365 C   0  0  0  0  0  0  0  0  0  0  0  0
    1.4782    2.9452   -3.4576 C   0  0  0  0  0  0  0  0  0  0  0  0
    0.7395    1.6596   -4.3301 Cl  0  0  0  0  0  0  0  0  0  0  0  0
    2.2435    2.6507   -2.3392 C   0  0  0  0  0  0  0  0  0  0  0  0
  1  2  2  0
  2 10  1  0
  2  3  1  0
  3  4  1  0
  4 11  2  0
  4  5  1  0
  5 14  2  0
  5  6  1  0
  6  8  1  0
  6 10  2  0
  7  9  1  0
  7  8  1  0
 11 12  1  0
 12 15  1  0
 12 13  2  0
 13 14  1  0
 15 16  1  0
 16 17  1  0
 17 23  1  0
 17 18  2  0
 18 19  1  0
 19 20  2  0
 20 21  1  0
 21 22  1  0
 21 23  2  0
M  END
>  <DRUGBANK_ID>  (1) 
DB07513

>  <COMMON_NAME>  (1) 
7-[(3-CHLOROBENZYL)OXY]-4-[(METHYLAMINO)METHYL]-2H-CHROMEN-2-ONE

>  <UNII>  (1) 
XT4DJB88UB

$$$$
