
     RDKit          3D

 32 35  0  0  0  0  0  0  0  0999 V2000
    0.9675    0.0508   -0.0085 C   0  0  0  0  0  0  0  0  0  0  0  0
    0.6133   -1.2758   -0.6606 C   0  0  0  0  0  0  0  0  0  0  0  0
    1.0546   -2.5681    0.0507 C   0  0  0  0  0  0  0  0  0  0  0  0
    0.1747   -3.4484    0.6214 C   0  0  0  0  0  0  0  0  0  0  0  0
    0.5951   -4.6324    1.4547 C   0  0  0  0  0  0  0  0  0  0  0  0
    1.5729   -4.5545    2.4490 C   0  0  0  0  0  0  0  0  0  0  0  0
    1.8919   -5.6697    3.2254 C   0  0  0  0  0  0  0  0  0  0  0  0
    1.1609   -6.8568    3.1025 C   0  0  0  0  0  0  0  0  0  0  0  0
    0.1235   -6.9046    2.1662 C   0  0  0  0  0  0  0  0  0  0  0  0
   -0.1017   -5.8413    1.3019 C   0  0  0  0  0  0  0  0  0  0  0  0
    1.5242   -8.0183    3.9290 C   0  0  0  0  0  0  0  0  0  0  0  0
    0.8876   -9.1974    3.8772 C   0  0  0  0  0  0  0  0  0  0  0  0
    1.2380  -10.3846    4.6677 C   0  0  0  0  0  0  0  0  0  0  0  0
    0.6418  -11.4310    4.6129 O   0  0  0  0  0  0  0  0  0  0  0  0
    2.3002  -10.1994    5.4713 O   0  0  0  0  0  0  0  0  0  0  0  0
   -1.2972   -3.2796    0.4430 C   0  0  0  0  0  0  0  0  0  0  0  0
   -1.8875   -3.0305   -0.8115 C   0  0  0  0  0  0  0  0  0  0  0  0
   -3.2584   -2.8100   -0.9314 C   0  0  0  0  0  0  0  0  0  0  0  0
   -3.9886   -3.0458    0.2284 C   0  0  0  0  0  0  0  0  0  0  0  0
   -3.4686   -3.6626    1.3589 C   0  0  0  0  0  0  0  0  0  0  0  0
   -2.1023   -3.5579    1.5641 C   0  0  0  0  0  0  0  0  0  0  0  0
   -4.6205   -3.9782    2.1088 C   0  0  0  0  0  0  0  0  0  0  0  0
   -5.4338   -2.9226    1.9625 N   0  0  0  0  0  0  0  0  0  0  0  0
   -5.2543   -2.7214    0.6392 N   0  0  0  0  0  0  0  0  0  0  0  0
    2.5367   -2.8217    0.1124 C   0  0  0  0  0  0  0  0  0  0  0  0
    3.3739   -1.8217    0.6404 C   0  0  0  0  0  0  0  0  0  0  0  0
    4.7294   -2.0294    0.8675 C   0  0  0  0  0  0  0  0  0  0  0  0
    5.2425   -3.3000    0.7152 C   0  0  0  0  0  0  0  0  0  0  0  0
    4.4446   -4.3383    0.2660 C   0  0  0  0  0  0  0  0  0  0  0  0
    3.1410   -4.0726   -0.1619 C   0  0  0  0  0  0  0  0  0  0  0  0
    2.3533   -5.3563   -1.0249 Cl  0  0  0  0  0  0  0  0  0  0  0  0
    6.5305   -3.5241    0.9955 F   0  0  0  0  0  0  0  0  0  0  0  0
  1  2  1  0
  2  3  1  0
  3  4  2  0
  3 25  1  0
  4  5  1  0
  4 16  1  0
  5  6  2  0
  5 10  1  0
  6  7  1  0
  7  8  2  0
  8  9  1  0
  8 11  1  0
  9 10  2  0
 11 12  2  0
 12 13  1  0
 13 14  2  0
 13 15  1  0
 16 17  2  0
 16 21  1  0
 17 18  1  0
 18 19  2  0
 19 20  1  0
 19 24  1  0
 20 21  2  0
 20 22  1  0
 22 23  2  0
 23 24  1  0
 25 26  2  0
 25 30  1  0
 26 27  1  0
 27 28  2  0
 28 29  1  0
 28 32  1  0
 29 30  2  0
 30 31  1  0
M  END
>  <DRUGBANK_ID>  (1) 
DB12253

>  <COMMON_NAME>  (1) 
GDC-0810

>  <CAS_NUMBER>  (1) 
1365888-06-7

>  <UNII>  (1) 
9MM2R1A06R

$$$$
