
     RDKit          3D

 34 38  0  0  1  0  0  0  0  0999 V2000
    1.4452   -0.3124    0.0351 C   0  0  0  0  0  0  0  0  0  0  0  0
    0.5298   -1.3669    0.0013 C   0  0  0  0  0  0  0  0  0  0  0  0
    0.9855    0.9858    0.0219 C   0  0  0  0  0  0  0  0  0  0  0  0
   -0.8525   -1.1257   -0.0361 C   0  0  0  0  0  0  0  0  0  0  0  0
   -0.3795    1.2055   -0.0049 C   0  0  0  0  0  0  0  0  0  0  0  0
   -1.6597    3.7044   -1.8586 C   0  0  0  0  0  0  0  0  0  0  0  0
    0.4340    4.8720   -1.6194 C   0  0  0  0  0  0  0  0  0  0  0  0
   -0.7313    0.2185    5.3889 C   0  0  0  0  0  0  0  0  0  0  0  0
   -0.8922   -1.3930    3.6122 C   0  0  0  0  0  0  0  0  0  0  0  0
   -1.0212    2.6925   -2.5730 C   0  0  0  0  0  0  0  0  0  0  0  0
    1.0803    3.8552   -2.3310 C   0  0  0  0  0  0  0  0  0  0  0  0
   -0.0134   -0.7049    6.1674 C   0  0  0  0  0  0  0  0  0  0  0  0
   -0.1403   -2.3008    4.3678 C   0  0  0  0  0  0  0  0  0  0  0  0
   -2.7981    0.5452    0.0011 C   0  0  0  0  0  0  0  0  0  0  0  0
   -1.5756    5.6675   -0.2796 C   0  0  0  0  0  0  0  0  0  0  0  0
   -1.0778    2.0571    2.9601 C   0  0  0  0  0  0  0  0  0  0  0  0
   -1.3273    0.1839   -0.0206 C   0  0  0  0  0  0  0  0  0  0  0  0
   -0.9255    4.7527   -1.2967 C   0  0  0  0  0  0  0  0  0  0  0  0
   -1.1623   -0.1035    4.0883 C   0  0  0  0  0  0  0  0  0  0  0  0
    0.3513    2.7612   -2.7951 C   0  0  0  0  0  0  0  0  0  0  0  0
    0.2831   -1.9575    5.6440 C   0  0  0  0  0  0  0  0  0  0  0  0
   -3.2777    1.3725    1.2477 C   0  0  2  0  0  0  0  0  0  0  0  0
   -1.7557    0.9141    3.1851 C   0  0  0  0  0  0  0  0  0  0  0  0
   -2.6925    2.8238    1.3398 C   0  0  0  0  0  0  0  0  0  0  0  0
   -1.0453    4.2324    1.8180 C   0  0  0  0  0  0  0  0  0  0  0  0
   -2.1300    4.9778    1.0154 C   0  0  2  0  0  0  0  0  0  0  0  0
    1.3011    1.1955   -3.7807 I   0  0  0  0  0  0  0  0  0  0  0  0
   -2.9435    0.6617    2.5067 N   0  0  0  0  0  0  0  0  0  0  0  0
   -3.1075    3.8568    0.6617 N   0  0  0  0  0  0  0  0  0  0  0  0
   -1.5982    3.0181    2.1232 N   0  0  0  0  0  0  0  0  0  0  0  0
    0.9763   -2.8933    6.3536 O   0  0  0  0  0  0  0  0  0  0  0  0
    0.0913    4.6221    2.0914 O   0  0  0  0  0  0  0  0  0  0  0  0
   -1.9599    7.1785    1.8846 O   0  0  0  0  0  0  0  0  0  0  0  0
   -2.7396    5.9441    1.9061 O   0  0  0  0  0  0  0  0  0  0  0  0
  2  1  2  0
  3  1  1  0
  4  2  1  0
  5  3  2  0
 10  6  2  0
 11  7  1  0
 12  8  2  0
 13  9  1  0
 17  4  2  0
 17  5  1  0
 17 14  1  0
 18  6  1  0
 18  7  2  0
 18 15  1  0
 19  8  1  0
 19  9  2  0
 20 10  1  0
 20 11  2  0
 21 12  1  0
 21 13  2  0
 22 14  1  6
 23 16  2  0
 23 19  1  0
 24 22  1  0
 26 25  1  0
 26 34  1  0
 26 15  1  6
 27 20  1  0
 28 22  1  0
 28 23  1  0
 29 24  2  0
 29 26  1  0
 30 16  1  0
 30 24  1  0
 30 25  1  0
 31 21  1  0
 32 25  2  0
 34 33  1  0
M  END
>  <DRUGBANK_ID>  (1) 
DB04146

>  <SECONDARY_ACCESSION_NUMBERS>  (1) 
EXPT01086

>  <COMMON_NAME>  (1) 
I-Coeleneterazine

$$$$
