PM4
     RDKit          3D

 28 27  0  0  0  0  0  0  0  0999 V2000
    1.9802   -1.0323   -1.8248 O   0  0  0  0  0  0  0  0  0  0  0  0
    0.6830   -0.0990   -1.5500 P   0  0  2  0  0  0  0  0  0  0  0  0
    1.0690    1.2462   -1.0322 O   0  0  0  0  0  0  0  0  0  0  0  0
   -0.1078   -0.9555   -0.4418 O   0  0  0  0  0  0  0  0  0  0  0  0
   -0.4410   -0.5488    0.8757 C   0  0  0  0  0  0  0  0  0  0  0  0
    0.5071   -1.3690    1.7113 C   0  0  0  0  0  0  0  0  0  0  0  0
    1.9003   -1.0058    1.1911 C   0  0  0  0  0  0  0  0  0  0  0  0
    0.4121   -0.8999    3.1475 C   0  0  0  0  0  0  0  0  0  0  0  0
    0.2240   -2.9028    1.5537 C   0  0  1  0  0  0  0  0  0  0  0  0
   -0.9106   -3.3687    2.2951 O   0  0  0  0  0  0  0  0  0  0  0  0
   -0.0746   -3.4421    0.1467 C   0  0  0  0  0  0  0  0  0  0  0  0
    0.8071   -4.0509   -0.4765 O   0  0  0  0  0  0  0  0  0  0  0  0
   -1.3093   -3.2594   -0.4484 N   0  0  0  0  0  0  0  0  0  0  0  0
   -2.4486   -2.3587   -0.3131 C   0  0  0  0  0  0  0  0  0  0  0  0
   -2.5115   -1.0849   -1.2104 C   0  0  0  0  0  0  0  0  0  0  0  0
   -2.5328   -1.3053   -2.6960 C   0  0  0  0  0  0  0  0  0  0  0  0
   -3.4502   -0.7967   -3.3495 O   0  0  0  0  0  0  0  0  0  0  0  0
   -1.5169   -1.8852   -3.3977 N   0  0  0  0  0  0  0  0  0  0  0  0
   -0.3167   -2.6859   -3.1382 C   0  0  0  0  0  0  0  0  0  0  0  0
   -0.3711   -4.2250   -3.1461 C   0  0  0  0  0  0  0  0  0  0  0  0
   -0.7166   -5.0814   -4.6388 S   0  0  0  0  0  0  0  0  0  0  0  0
   -2.0353   -4.1571   -5.3244 C   0  0  0  0  0  0  0  0  0  0  0  0
   -2.8180   -3.5341   -4.6550 O   0  0  0  0  0  0  0  0  0  0  0  0
   -2.1978   -4.2772   -6.8121 C   0  0  0  0  0  0  0  0  0  0  0  0
   -1.0527   -3.6907   -7.6391 C   0  0  0  0  0  0  0  0  0  0  0  0
    0.3101   -4.3682   -7.4305 C   0  0  0  0  0  0  0  0  0  0  0  0
    0.2273   -5.8986   -7.5507 C   0  0  0  0  0  0  0  0  0  0  0  0
   -0.1367   -6.2912   -8.9637 C   0  0  0  0  0  0  0  0  0  0  0  0
  2  4  1  0
  2  3  2  0
  2  1  1  1
  4  5  1  0
  5  6  1  0
  6  7  1  0
  6  8  1  0
  6  9  1  0
  9 10  1  1
  9 11  1  0
 11 12  2  0
 11 13  1  0
 13 14  1  0
 14 15  1  0
 15 16  1  0
 16 17  2  0
 16 18  1  0
 18 19  1  0
 19 20  1  0
 20 21  1  0
 21 22  1  0
 22 23  2  0
 22 24  1  0
 24 25  1  0
 25 26  1  0
 26 27  1  0
 27 28  1  0
M  END
>  <DRUGBANK_ID>  (1) 
DB08404

>  <COMMON_NAME>  (1) 
S-(2-{[N-(2-HYDROXY-4-{[HYDROXY(OXIDO)PHOSPHINO]OXY}-3,3-DIMETHYLBUTANOYL)-BETA-ALANYL]AMINO}ETHYL) HEXANETHIOATE

$$$$
