
     RDKit          3D

 21 23  0  0  0  0  0  0  0  0999 V2000
    0.9036    0.0577   -0.0102 C   0  0  0  0  0  0  0  0  0  0  0  0
    6.5207   -2.1144    6.1094 C   0  0  0  0  0  0  0  0  0  0  0  0
    1.2937   -4.6037    5.7516 C   0  0  0  0  0  0  0  0  0  0  0  0
    5.3338   -7.9135    4.9625 C   0  0  0  0  0  0  0  0  0  0  0  0
    4.0031   -7.7922    4.5950 C   0  0  0  0  0  0  0  0  0  0  0  0
    2.2071   -1.2823    2.1822 C   0  0  0  0  0  0  0  0  0  0  0  0
   -0.0564   -1.6347    2.8771 C   0  0  0  0  0  0  0  0  0  0  0  0
    2.6270   -2.2449    3.1018 C   0  0  0  0  0  0  0  0  0  0  0  0
    0.3665   -2.6677    3.7228 C   0  0  0  0  0  0  0  0  0  0  0  0
    6.1109   -6.7648    5.1248 C   0  0  0  0  0  0  0  0  0  0  0  0
    3.4539   -6.5277    4.4914 C   0  0  0  0  0  0  0  0  0  0  0  0
    4.3507   -3.0731    5.5104 N   0  0  0  0  0  0  0  0  0  0  0  0
    6.2946   -4.4532    5.5150 N   0  0  0  0  0  0  0  0  0  0  0  0
    0.3798    0.0590    1.3139 O   0  0  0  0  0  0  0  0  0  0  0  0
    5.6731   -3.2750    5.6821 C   0  0  0  0  0  0  0  0  0  0  0  0
    0.8630   -0.9533    2.0922 C   0  0  0  0  0  0  0  0  0  0  0  0
    1.7268   -2.9540    3.9180 C   0  0  0  0  0  0  0  0  0  0  0  0
    3.5952   -4.1251    5.1175 C   0  0  0  0  0  0  0  0  0  0  0  0
    5.5403   -5.5013    5.1847 C   0  0  0  0  0  0  0  0  0  0  0  0
    4.1629   -5.3923    4.9270 C   0  0  0  0  0  0  0  0  0  0  0  0
    2.2074   -3.9212    4.8226 N   0  0  0  0  0  0  0  0  0  0  0  0
  1 14  1  0
  2 15  1  0
  3 21  1  0
  4  5  2  0
  4 10  1  0
  5 11  1  0
  6  8  2  0
  6 16  1  0
  7  9  1  0
  7 16  2  0
  8 17  1  0
  9 17  2  0
 10 19  2  0
 11 20  2  0
 12 15  1  0
 12 18  2  0
 13 15  2  0
 13 19  1  0
 14 16  1  0
 17 21  1  0
 18 20  1  0
 18 21  1  0
 19 20  1  0
M  END
>  <DRUGBANK_ID>  (1) 
DB05585

>  <COMMON_NAME>  (1) 
Verubulin

>  <CAS_NUMBER>  (1) 
827031-83-4

>  <UNII>  (1) 
X97O9FTB92

>  <SYNONYMS>  (1) 
Varbulin; Verubulin

$$$$
