
     RDKit          3D

  9  9  0  0  0  0  0  0  0  0999 V2000
   -1.4009   -0.0735   -0.0429 C   0  0  0  0  0  0  0  0  0  0  0  0
   -0.6177   -1.2383   -0.0244 C   0  0  0  0  0  0  0  0  0  0  0  0
   -0.7583    1.1765    0.0144 C   0  0  0  0  0  0  0  0  0  0  0  0
   -2.8968   -0.1361   -0.1816 C   0  0  0  0  0  0  0  0  0  0  0  0
    0.7771   -1.1589    0.0357 C   0  0  0  0  0  0  0  0  0  0  0  0
   -1.3302   -2.8101   -0.1171 Cl  0  0  0  0  0  0  0  0  0  0  0  0
    0.6354    1.2403   -0.0120 C   0  0  0  0  0  0  0  0  0  0  0  0
    1.4025    0.0861   -0.0009 C   0  0  0  0  0  0  0  0  0  0  0  0
    1.2927    2.4342   -0.0700 O   0  0  0  0  0  0  0  0  0  0  0  0
  1  2  2  0
  1  3  1  0
  1  4  1  0
  2  5  1  0
  2  6  1  0
  3  7  2  0
  5  8  2  0
  7  9  1  0
  7  8  1  0
M  END
>  <DRUGBANK_ID>  (1) 
DB16864

>  <COMMON_NAME>  (1) 
Chlorocresol

>  <CAS_NUMBER>  (1) 
59-50-7

>  <UNII>  (1) 
36W53O7109

>  <SYNONYMS>  (1) 
3-Methyl-4-chlorophenol; 4-Chloro-3-methyl phenol; Chlorocresol; p-Chloro-m-cresol

$$$$
