DT1
     RDKit          3D

 28 31  0  0  0  0  0  0  0  0999 V2000
    0.9019    0.2631    0.0165 O   0  0  0  0  0  0  0  0  0  0  0  0
    2.3347    0.0007    0.1201 S   0  0  0  0  0  0  0  0  0  0  0  0
    3.1142   -0.3447   -1.0280 O   0  0  0  0  0  0  0  0  0  0  0  0
    3.0246    1.4273    0.6884 N   0  0  0  0  0  0  0  0  0  0  0  0
    2.5369   -1.2008    1.4350 C   0  0  0  0  0  0  0  0  0  0  0  0
    3.3094   -1.0061    2.5740 C   0  0  0  0  0  0  0  0  0  0  0  0
    1.9278   -2.4455    1.2804 C   0  0  0  0  0  0  0  0  0  0  0  0
    2.2313   -3.5360    2.1542 C   0  0  0  0  0  0  0  0  0  0  0  0
    3.5653   -2.0969    3.4691 C   0  0  0  0  0  0  0  0  0  0  0  0
    3.1214   -3.4154    3.2190 C   0  0  0  0  0  0  0  0  0  0  0  0
    3.7310   -4.5536    3.8521 N   0  0  0  0  0  0  0  0  0  0  0  0
    3.6429   -5.9189    3.4619 C   0  0  0  0  0  0  0  0  0  0  0  0
    2.6402   -6.7948    3.9524 N   0  0  0  0  0  0  0  0  0  0  0  0
    2.4898   -8.1062    3.4359 C   0  0  0  0  0  0  0  0  0  0  0  0
    3.2383   -8.5783    2.3996 N   0  0  0  0  0  0  0  0  0  0  0  0
    1.5333   -8.7235    4.0911 N   0  0  0  0  0  0  0  0  0  0  0  0
    1.1359   -7.8036    5.0049 C   0  0  0  0  0  0  0  0  0  0  0  0
    1.7444   -6.6175    4.9579 N   0  0  0  0  0  0  0  0  0  0  0  0
    4.5404   -6.4845    2.6232 C   0  0  0  0  0  0  0  0  0  0  0  0
    4.1999   -7.8063    2.0102 C   0  0  0  0  0  0  0  0  0  0  0  0
    5.7459   -7.3135    0.1173 C   0  0  0  0  0  0  0  0  0  0  0  0
    4.8538   -8.1672    0.8733 O   0  0  0  0  0  0  0  0  0  0  0  0
    5.0881   -6.0847   -0.5256 C   0  0  0  0  0  0  0  0  0  0  0  0
    5.9632   -4.8450   -0.2091 C   0  0  0  0  0  0  0  0  0  0  0  0
    5.3518   -3.5740   -0.7347 C   0  0  0  0  0  0  0  0  0  0  0  0
    3.9531   -3.5346   -0.2329 C   0  0  0  0  0  0  0  0  0  0  0  0
    3.0156   -4.6645   -0.6648 C   0  0  0  0  0  0  0  0  0  0  0  0
    3.5928   -5.9667   -0.2144 C   0  0  0  0  0  0  0  0  0  0  0  0
  1  2  2  0
  2  3  2  0
  2  4  1  0
  2  5  1  0
  5  6  2  0
  5  7  1  0
  6  9  1  0
  7  8  2  0
  8 10  1  0
  9 10  2  0
 10 11  1  0
 11 12  1  0
 12 13  1  0
 12 19  2  0
 13 14  1  0
 13 18  1  0
 14 15  1  0
 14 16  2  0
 15 20  2  0
 16 17  1  0
 17 18  2  0
 19 20  1  0
 20 22  1  0
 21 22  1  0
 21 23  1  0
 23 24  1  0
 23 28  1  0
 24 25  1  0
 25 26  1  0
 26 27  1  0
 27 28  1  0
M  END
>  <DRUGBANK_ID>  (1) 
DB07685

>  <COMMON_NAME>  (1) 
4-{[5-(CYCLOHEXYLMETHOXY)[1,2,4]TRIAZOLO[1,5-A]PYRIMIDIN-7-YL]AMINO}BENZENESULFONAMIDE

$$$$
