598
     RDKit          3D

 24 25  0  0  1  0  0  0  0  0999 V2000
    1.0369   -0.0583   -0.0760 O   0  0  0  0  0  0  0  0  0  0  0  0
    2.4757    1.7750   -6.0375 O   0  0  0  0  0  0  0  0  0  0  0  0
    2.0265   -2.1961   -4.3457 O   0  0  0  0  0  0  0  0  0  0  0  0
    2.5194    2.4157    0.0983 N   0  0  0  0  0  0  0  0  0  0  0  0
    2.6030   -1.1738   -6.2367 N   0  0  0  0  0  0  0  0  0  0  0  0
    3.0200    3.5646    0.8388 C   0  0  0  0  0  0  0  0  0  0  0  0
    2.5885    3.4659    2.3260 C   0  0  0  0  0  0  0  0  0  0  0  0
    1.0511    2.3240    0.1257 C   0  0  0  0  0  0  0  0  0  0  0  0
    3.0802    2.1981    3.0613 C   0  0  0  0  0  0  0  0  0  0  0  0
    0.5774    1.1330   -0.7284 C   0  0  0  0  0  0  0  0  0  0  0  0
    4.5287    3.6181    0.5719 C   0  0  0  0  0  0  0  0  0  0  0  0
    1.0690    1.2213   -2.1630 C   0  0  0  0  0  0  0  0  0  0  0  0
    4.5795    2.1528    3.2321 C   0  0  0  0  0  0  0  0  0  0  0  0
    1.3883    0.0785   -2.9189 C   0  0  0  0  0  0  0  0  0  0  0  0
    1.2178    2.4771   -2.7670 C   0  0  0  0  0  0  0  0  0  0  0  0
    5.3065    3.3455    3.3960 C   0  0  0  0  0  0  0  0  0  0  0  0
    5.2854    0.9495    3.1295 C   0  0  0  0  0  0  0  0  0  0  0  0
    1.8701    0.1758   -4.2485 C   0  0  0  0  0  0  0  0  0  0  0  0
    1.7027    2.5944   -4.0546 C   0  0  0  0  0  0  0  0  0  0  0  0
    2.0199    1.4604   -4.7926 C   0  0  0  0  0  0  0  0  0  0  0  0
    6.6923    3.3617    3.3238 C   0  0  0  0  0  0  0  0  0  0  0  0
    6.6801    0.9555    3.2188 C   0  0  0  0  0  0  0  0  0  0  0  0
    7.3820    2.1615    3.2662 C   0  0  0  0  0  0  0  0  0  0  0  0
    2.1725   -1.1186   -4.9380 C   0  0  0  0  0  0  0  0  0  0  0  0
  1 10  1  0
  2 20  1  0
  3 24  2  0
  4  6  1  0
  4  8  1  0
  5 24  1  0
  6  7  1  0
  6 11  1  0
  7  9  1  0
  8 10  1  0
  9 13  1  0
 10 12  1  0
 12 14  2  0
 12 15  1  0
 13 16  2  0
 13 17  1  0
 14 18  1  0
 15 19  2  0
 16 21  1  0
 17 22  2  0
 18 20  2  0
 18 24  1  0
 19 20  1  0
 21 23  2  0
 22 23  1  0
M  END
>  <DRUGBANK_ID>  (1) 
DB00598

>  <SECONDARY_ACCESSION_NUMBERS>  (1) 
APRD01062

>  <COMMON_NAME>  (1) 
Labetalol

>  <CAS_NUMBER>  (1) 
36894-69-6

>  <UNII>  (1) 
R5H8897N95

>  <SYNONYMS>  (1) 
3-Carboxamido-4-hydroxy-alpha-((1-methyl-3-phenylpropylamino)methyl)benzyl alcohol; 5-(1-Hydroxy-2-(1-methyl-3-phenylpropylamino)ethyl)salicylamide; Lab√©talol; Labetalol; Labetalolum; Labetolol

$$$$
