
     RDKit          3D

 25 25  0  0  0  0  0  0  0  0999 V2000
    1.0364   -0.5054   -0.0162 S   0  0  0  0  0  0  0  0  0  0  0  0
    1.1663   -2.7187   -1.3292 O   0  0  0  0  0  0  0  0  0  0  0  0
    3.9223    1.1495    1.4657 O   0  0  0  0  0  0  0  0  0  0  0  0
    0.4599    4.3830   -1.5472 O   0  0  0  0  0  0  0  0  0  0  0  0
   -0.4406    1.5635    3.4144 O   0  0  0  0  0  0  0  0  0  0  0  0
    2.9139    6.0719    2.1623 O   0  0  0  0  0  0  0  0  0  0  0  0
    0.7320    5.6651    1.8317 O   0  0  0  0  0  0  0  0  0  0  0  0
    3.0552    2.2427   -0.2721 N   0  0  0  0  0  0  0  0  0  0  0  0
   -0.1257    3.0124    0.1012 N   0  0  0  0  0  0  0  0  0  0  0  0
    1.1739    3.0720    3.0080 N   0  0  0  0  0  0  0  0  0  0  0  0
   -1.0616   -1.9270   -0.9655 C   0  0  0  0  0  0  0  0  0  0  0  0
    0.4429   -1.8553   -0.8901 C   0  0  0  0  0  0  0  0  0  0  0  0
    3.2856    1.0715    0.4110 C   0  0  0  0  0  0  0  0  0  0  0  0
   -1.8828   -0.8603   -1.3834 C   0  0  0  0  0  0  0  0  0  0  0  0
   -1.6495   -3.1609   -0.6779 C   0  0  0  0  0  0  0  0  0  0  0  0
    2.8068   -0.2823   -0.1613 C   0  0  0  0  0  0  0  0  0  0  0  0
    0.7486    3.3775   -0.8910 C   0  0  0  0  0  0  0  0  0  0  0  0
    2.0258    2.5351   -1.2721 C   0  0  0  0  0  0  0  0  0  0  0  0
    0.1733    2.2414    2.5902 C   0  0  0  0  0  0  0  0  0  0  0  0
    0.0240    1.9847    1.0999 C   0  0  0  0  0  0  0  0  0  0  0  0
   -3.2562   -1.0660   -1.5903 C   0  0  0  0  0  0  0  0  0  0  0  0
   -3.0073   -3.3729   -0.9312 C   0  0  0  0  0  0  0  0  0  0  0  0
   -3.8122   -2.3271   -1.3799 C   0  0  0  0  0  0  0  0  0  0  0  0
    2.1236    3.7831    2.1826 C   0  0  0  0  0  0  0  0  0  0  0  0
    1.9883    5.2777    2.1370 C   0  0  0  0  0  0  0  0  0  0  0  0
  1 12  1  0
  1 16  1  0
  2 12  2  0
  3 13  2  0
  4 17  2  0
  5 19  2  0
  6 25  2  0
  7 25  1  0
  8 13  1  0
  8 18  1  0
  9 17  1  0
  9 20  1  0
 10 19  1  0
 10 24  1  0
 11 12  1  0
 11 14  2  0
 11 15  1  0
 13 16  1  0
 14 21  1  0
 15 22  2  0
 17 18  1  0
 19 20  1  0
 21 23  2  0
 22 23  1  0
 24 25  1  0
M  END
>  <DRUGBANK_ID>  (1) 
DB14082

>  <COMMON_NAME>  (1) 
Betiatide

>  <CAS_NUMBER>  (1) 
103725-47-9

>  <UNII>  (1) 
9NV2SR34P8

>  <SYNONYMS>  (1) 
Betiatida; Betiatide

$$$$
