
     RDKit          3D

 10  9  0  0  0  0  0  0  0  0999 V2000
    0.8016    0.0782    0.0717 O   0  0  0  0  0  0  0  0  0  0  0  0
    0.2168    1.2287    0.4912 C   0  0  0  0  0  0  0  0  0  0  0  0
    0.8790    2.1983    0.7762 O   0  0  0  0  0  0  0  0  0  0  0  0
   -1.2778    1.1262    0.5910 C   0  0  0  0  0  0  0  0  0  0  0  0
   -1.8082   -0.0963    0.3534 C   0  0  0  0  0  0  0  0  0  0  0  0
   -2.0276    2.3190    0.8666 O   0  0  0  0  0  0  0  0  0  0  0  0
   -3.7576    2.3190    0.8666 P   0  0  0  0  0  0  0  0  0  0  0  0
   -3.6432    3.7632    0.0979 O   0  0  0  0  0  0  0  0  0  0  0  0
   -3.7680    1.4117   -0.5056 O   0  0  0  0  0  0  0  0  0  0  0  0
   -5.3060    2.3190    0.8666 O   0  0  0  0  0  0  0  0  0  0  0  0
  1  2  1  0
  2  3  2  0
  2  4  1  0
  4  5  2  0
  4  6  1  0
  6  7  1  0
  7  8  1  0
  7  9  1  0
  7 10  2  0
M  END
>  <DRUGBANK_ID>  (1) 
DB01819

>  <SECONDARY_ACCESSION_NUMBERS>  (1) 
EXPT02550

>  <COMMON_NAME>  (1) 
Phosphoenolpyruvate

>  <CAS_NUMBER>  (1) 
138-08-9

>  <UNII>  (1) 
545YL308OW

$$$$
