
     RDKit          3D

 26 29  0  0  0  0  0  0  0  0999 V2000
    2.1642    0.0305    0.0076 F   0  0  0  0  0  0  0  0  0  0  0  0
    0.8238    0.0178   -0.0015 C   0  0  0  0  0  0  0  0  0  0  0  0
    0.1439    1.2325   -0.0048 C   0  0  0  0  0  0  0  0  0  0  0  0
   -1.2503    1.2483   -0.0027 C   0  0  0  0  0  0  0  0  0  0  0  0
   -1.9571    0.0491   -0.0238 C   0  0  0  0  0  0  0  0  0  0  0  0
   -1.2687   -1.1627   -0.0479 C   0  0  0  0  0  0  0  0  0  0  0  0
    0.1355   -1.1955   -0.0065 C   0  0  0  0  0  0  0  0  0  0  0  0
    0.8856   -2.5057    0.0343 C   0  0  0  0  0  0  0  0  0  0  0  0
    0.5046   -3.3586    1.2279 C   0  0  0  0  0  0  0  0  0  0  0  0
   -0.7460   -3.7093    1.4002 N   0  0  0  0  0  0  0  0  0  0  0  0
   -1.0840   -4.5104    2.4703 C   0  0  0  0  0  0  0  0  0  0  0  0
   -0.1859   -4.9995    3.3466 C   0  0  0  0  0  0  0  0  0  0  0  0
    1.1387   -4.6436    3.1724 N   0  0  0  0  0  0  0  0  0  0  0  0
    2.2734   -4.9770    3.8573 C   0  0  0  0  0  0  0  0  0  0  0  0
    3.2899   -4.2978    3.2188 C   0  0  0  0  0  0  0  0  0  0  0  0
    2.8116   -3.5776    2.1500 N   0  0  0  0  0  0  0  0  0  0  0  0
    1.5194   -3.8167    2.1451 C   0  0  0  0  0  0  0  0  0  0  0  0
   -2.4494   -4.8793    2.5272 C   0  0  0  0  0  0  0  0  0  0  0  0
   -3.2277   -5.4497    1.6312 N   0  0  0  0  0  0  0  0  0  0  0  0
   -4.4621   -5.5401    2.2493 C   0  0  0  0  0  0  0  0  0  0  0  0
   -4.4691   -5.0288    3.5002 N   0  0  0  0  0  0  0  0  0  0  0  0
   -3.2020   -4.5948    3.6322 N   0  0  0  0  0  0  0  0  0  0  0  0
   -5.6610   -6.1717    1.5747 C   0  0  0  0  0  0  0  0  0  0  0  0
   -6.1372   -7.2442    2.2678 F   0  0  0  0  0  0  0  0  0  0  0  0
   -6.7008   -5.3022    1.4395 F   0  0  0  0  0  0  0  0  0  0  0  0
   -5.3788   -6.6263    0.3212 F   0  0  0  0  0  0  0  0  0  0  0  0
  1  2  1  0
  2  3  2  0
  2  7  1  0
  3  4  1  0
  4  5  2  0
  5  6  1  0
  6  7  2  0
  7  8  1  0
  8  9  1  0
  9 10  2  0
  9 17  1  0
 10 11  1  0
 11 12  2  0
 11 18  1  0
 12 13  1  0
 13 14  1  0
 13 17  1  0
 14 15  2  0
 15 16  1  0
 16 17  2  0
 18 19  2  0
 18 22  1  0
 19 20  1  0
 20 21  2  0
 20 23  1  0
 21 22  1  0
 23 24  1  0
 23 25  1  0
 23 26  1  0
M  END
>  <DRUGBANK_ID>  (1) 
DB18315

>  <COMMON_NAME>  (1) 
Zagociguat

>  <CAS_NUMBER>  (1) 
2201048-82-8

>  <UNII>  (1) 
H7KEN3O8AI

>  <SYNONYMS>  (1) 
CY6463; Zagociguat

$$$$
