
     RDKit          3D

 23 26  0  0  1  0  0  0  0  0999 V2000
    3.0949    1.2726    0.7410 C   0  0  0  0  0  0  0  0  0  0  0  0
    3.7318   -0.1110    0.7258 C   0  0  2  0  0  0  0  0  0  0  0  0
    2.7178   -1.1963    0.3893 C   0  0  0  0  0  0  0  0  0  0  0  0
    2.0414   -0.9283   -0.9712 C   0  0  2  0  0  0  0  0  0  0  0  0
    1.3825    0.4942   -1.0293 C   0  0  2  0  0  0  0  0  0  0  0  0
    2.4147    1.5690   -0.5861 C   0  0  0  0  0  0  0  0  0  0  0  0
    1.0593   -2.0685   -1.2925 C   0  0  0  0  0  0  0  0  0  0  0  0
   -0.1930   -2.0177   -0.4363 C   0  0  0  0  0  0  0  0  0  0  0  0
   -0.8669   -0.6484   -0.5139 C   0  0  2  0  0  0  0  0  0  0  0  0
    0.1077    0.5033   -0.1233 C   0  0  2  0  0  0  0  0  0  0  0  0
   -2.0521   -0.5918    0.4386 C   0  0  1  0  0  0  0  0  0  0  0  0
   -2.8164    0.7370    0.3079 C   0  0  2  0  0  0  0  0  0  0  0  0
   -1.8922    1.8490    0.8228 C   0  0  0  0  0  0  0  0  0  0  0  0
   -0.5965    1.8863   -0.0129 C   0  0  0  0  0  0  0  0  0  0  0  0
   -3.1052   -1.6778    0.2976 C   0  0  0  0  0  0  0  0  0  0  0  0
   -4.3524   -1.0752    0.9430 C   0  0  0  0  0  0  0  0  0  0  0  0
   -4.0747    0.4293    1.1528 C   0  0  2  0  0  0  0  0  0  0  0  0
   -5.3241    1.2820    0.9017 C   0  0  0  0  0  0  0  0  0  0  0  0
   -3.1988    1.0898   -1.1351 C   0  0  0  0  0  0  0  0  0  0  0  0
    1.0228    0.8406   -2.4931 C   0  0  0  0  0  0  0  0  0  0  0  0
    4.3315   -0.3811    1.9861 O   0  0  0  0  0  0  0  0  0  0  0  0
   -6.0546    1.2818   -0.4301 C   0  0  0  0  0  0  0  0  0  0  0  0
   -5.7869    1.9650    1.8292 O   0  0  0  0  0  0  0  0  0  0  0  0
  1  2  1  0
  1  6  1  0
  2  3  1  0
  2 21  1  1
  4  3  1  1
  4  5  1  0
  4  7  1  0
  5  6  1  0
  5 10  1  0
  5 20  1  6
  7  8  1  0
  9  8  1  1
  9 10  1  0
  9 11  1  0
 10 14  1  6
 11 12  1  0
 11 15  1  6
 12 13  1  0
 12 17  1  0
 12 19  1  6
 13 14  1  0
 15 16  1  0
 16 17  1  0
 17 18  1  6
 18 22  1  0
 18 23  2  0
M  END
>  <DRUGBANK_ID>  (1) 
DB12308

>  <COMMON_NAME>  (1) 
Eltanolone

>  <CAS_NUMBER>  (1) 
128-20-1

>  <UNII>  (1) 
BXO86P3XXW

>  <SYNONYMS>  (1) 
eltanolona; Eltanolone; Pregnanolone

$$$$
