CMQ
     RDKit          3D

 31 32  0  0  0  0  0  0  0  0999 V2000
    4.6957   -1.1042    1.9500 O   0  0  0  0  0  0  0  0  0  0  0  0
    4.4169    0.0540    1.5150 C   0  0  0  0  0  0  0  0  0  0  0  0
    4.0441    1.0120    2.3874 O   0  0  0  0  0  0  0  0  0  0  0  0
    3.7190    2.3627    2.0237 C   0  0  0  0  0  0  0  0  0  0  0  0
    4.8890    3.0982    1.4539 C   0  0  0  0  0  0  0  0  0  0  0  0
    4.7593    3.5075    0.1601 C   0  0  0  0  0  0  0  0  0  0  0  0
    5.8271    4.1326   -0.4394 C   0  0  0  0  0  0  0  0  0  0  0  0
    7.0524    4.3507    0.1191 C   0  0  0  0  0  0  0  0  0  0  0  0
    7.1051    4.1518    1.4687 C   0  0  0  0  0  0  0  0  0  0  0  0
    6.0555    3.4767    2.1278 C   0  0  0  0  0  0  0  0  0  0  0  0
    4.4695    0.3407    0.1955 N   0  0  0  0  0  0  0  0  0  0  0  0
    4.9987   -0.5823   -0.7798 C   0  0  1  0  0  0  0  0  0  0  0  0
    3.7759   -1.1542   -1.6364 C   0  0  0  0  0  0  0  0  0  0  0  0
    3.2533   -0.1219   -2.5927 C   0  0  0  0  0  0  0  0  0  0  0  0
    4.5989   -0.1322   -3.6284 C   0  0  0  0  0  0  0  0  0  0  0  0
    1.7254   -0.4759   -3.1735 C   0  0  0  0  0  0  0  0  0  0  0  0
    6.3833    0.1342   -1.4893 C   0  0  0  0  0  0  0  0  0  0  0  0
    7.3506   -0.6121   -1.7425 O   0  0  0  0  0  0  0  0  0  0  0  0
    6.3335    1.4127   -2.2587 N   0  0  0  0  0  0  0  0  0  0  0  0
    5.1245    2.3948   -2.9190 C   0  0  2  0  0  0  0  0  0  0  0  0
    4.0208    2.2809   -4.3774 C   0  0  1  0  0  0  0  0  0  0  0  0
    4.5763    2.0931   -5.6624 O   0  0  0  0  0  0  0  0  0  0  0  0
    2.8263    1.4215   -4.4519 C   0  0  0  0  0  0  0  0  0  0  0  0
    5.7287    3.7267   -3.3555 C   0  0  0  0  0  0  0  0  0  0  0  0
    4.6232    4.8046   -3.2198 C   0  0  0  0  0  0  0  0  0  0  0  0
    3.2709    4.5244   -2.8304 C   0  0  0  0  0  0  0  0  0  0  0  0
    2.2569    5.4520   -2.8804 C   0  0  0  0  0  0  0  0  0  0  0  0
    2.6380    6.7587   -3.0176 C   0  0  0  0  0  0  0  0  0  0  0  0
    1.7004    7.7415   -3.0024 O   0  0  0  0  0  0  0  0  0  0  0  0
    3.9879    7.1012   -3.1372 C   0  0  0  0  0  0  0  0  0  0  0  0
    4.9718    6.1323   -3.3407 C   0  0  0  0  0  0  0  0  0  0  0  0
  1  2  2  0
  2  3  1  0
  2 11  1  0
  3  4  1  0
  4  5  1  0
  5  6  2  0
  5 10  1  0
  6  7  1  0
  7  8  2  0
  8  9  1  0
  9 10  2  0
 12 11  1  0
 12 13  1  6
 12 17  1  0
 13 14  1  0
 14 15  1  0
 14 16  1  0
 17 18  2  0
 17 19  1  0
 20 24  1  6
 20 21  1  0
 20 19  1  0
 21 22  1  0
 21 23  1  1
 24 25  1  0
 25 26  2  0
 25 31  1  0
 26 27  1  0
 27 28  2  0
 28 29  1  0
 28 30  1  0
 30 31  2  0
M  END
>  <DRUGBANK_ID>  (1) 
DB07571

>  <COMMON_NAME>  (1) 
N~2~-[(BENZYLOXY)CARBONYL]-N-[(1S,2S)-2-HYDROXY-1-(4-HYDROXYBENZYL)PROPYL]-L-LEUCINAMIDE

$$$$
