YE6
     RDKit          3D

 16 17  0  0  0  0  0  0  0  0999 V2000
   -2.0962    0.1059    0.0533 Cl  0  0  0  0  0  0  0  0  0  0  0  0
   -0.3627   -0.0043    0.0785 C   0  0  0  0  0  0  0  0  0  0  0  0
    0.3362    1.2043    0.0288 C   0  0  0  0  0  0  0  0  0  0  0  0
    1.7273    1.2011    0.0213 C   0  0  0  0  0  0  0  0  0  0  0  0
    2.4190   -0.0101    0.0543 C   0  0  0  0  0  0  0  0  0  0  0  0
    1.7230   -1.2261    0.0927 C   0  0  0  0  0  0  0  0  0  0  0  0
    0.3218   -1.2404    0.1116 C   0  0  0  0  0  0  0  0  0  0  0  0
   -0.4043   -2.4846   -0.0967 C   0  0  0  0  0  0  0  0  0  0  0  0
   -0.3686   -3.5073    0.8172 O   0  0  0  0  0  0  0  0  0  0  0  0
   -1.2285   -2.8100   -1.1391 C   0  0  0  0  0  0  0  0  0  0  0  0
   -1.7853   -4.0523   -0.8337 C   0  0  0  0  0  0  0  0  0  0  0  0
   -1.2541   -4.4975    0.3644 C   0  0  0  0  0  0  0  0  0  0  0  0
   -1.4546   -5.7090    1.1724 C   0  0  0  0  0  0  0  0  0  0  0  0
   -0.8578   -5.9246    2.2282 O   0  0  0  0  0  0  0  0  0  0  0  0
   -2.3663   -6.7092    0.7776 N   0  0  0  0  0  0  0  0  0  0  0  0
   -3.1394   -6.8185   -0.3889 N   0  0  0  0  0  0  0  0  0  0  0  0
  1  2  1  0
  2  3  2  0
  2  7  1  0
  3  4  1  0
  4  5  2  0
  5  6  1  0
  6  7  2  0
  7  8  1  0
  8  9  1  0
  8 10  2  0
  9 12  1  0
 10 11  1  0
 11 12  2  0
 12 13  1  0
 13 14  2  0
 13 15  1  0
 15 16  1  0
M  END
>  <DRUGBANK_ID>  (1) 
DB08757

>  <COMMON_NAME>  (1) 
5-(2-chlorophenyl)furan-2-carbohydrazide

$$$$
