
     RDKit          3D

 13 13  0  0  0  0  0  0  0  0999 V2000
    0.6757   -0.0050    0.1464 C   0  0  0  0  0  0  0  0  0  0  0  0
    0.2923    2.0575   -4.2461 C   0  0  0  0  0  0  0  0  0  0  0  0
    0.4691    1.1401   -0.8237 C   0  0  0  0  0  0  0  0  0  0  0  0
    0.1723    0.8754   -3.2901 C   0  0  0  0  0  0  0  0  0  0  0  0
    4.4347    0.3249    0.7880 C   0  0  0  0  0  0  0  0  0  0  0  0
    3.6245    0.0566   -0.3138 C   0  0  0  0  0  0  0  0  0  0  0  0
    5.3554    1.3437    0.6712 C   0  0  0  0  0  0  0  0  0  0  0  0
    4.5290    1.9246   -1.4134 C   0  0  0  0  0  0  0  0  0  0  0  0
    3.5254    0.9704   -1.3537 C   0  0  0  0  0  0  0  0  0  0  0  0
    2.4948    0.8829   -2.4265 C   0  0  0  0  0  0  0  0  0  0  0  0
    5.4583    2.1171   -0.4314 N   0  0  0  0  0  0  0  0  0  0  0  0
    1.1005    0.9280   -2.1418 N   0  0  0  0  0  0  0  0  0  0  0  0
    2.9300    0.7974   -3.5649 O   0  0  0  0  0  0  0  0  0  0  0  0
  3  1  1  0
  4  2  1  0
  6  5  2  0
  7  5  1  0
  9  6  1  0
  9  8  2  0
 10  9  1  0
 11  7  2  0
 11  8  1  0
 12  3  1  0
 12  4  1  0
 12 10  1  0
 13 10  2  0
M  END
>  <DRUGBANK_ID>  (1) 
DB13655

>  <COMMON_NAME>  (1) 
Nikethamide

>  <CAS_NUMBER>  (1) 
59-26-7

>  <UNII>  (1) 
368IVD6M32

>  <SYNONYMS>  (1) 
Nikethamide

$$$$
