
     RDKit          3D

 11  8  0  0  0  0  0  0  0  0999 V2000
    0.4534    0.9729    0.6346 Zn  0  0  0  0  0 15  0  0  0  0  0  0
    2.0971   -1.0752    0.6236 O   0  0  0  0  0  0  0  0  0  0  0  0
    0.3573    0.1688   -1.1326 O   0  0  0  0  0  0  0  0  0  0  0  0
    3.9468    0.2661    0.2540 O   0  0  0  0  0  0  0  0  0  0  0  0
    1.8205    1.5514   -0.5563 O   0  0  0  0  0  0  0  0  0  0  0  0
    2.9945    0.3770    2.9267 N   0  0  0  0  0  0  0  0  0  0  0  0
    2.4046   -1.7857   -2.1453 N   0  0  0  0  0  0  0  0  0  0  0  0
    3.6959   -0.7693    2.2608 C   0  0  0  0  0  0  0  0  0  0  0  0
    2.6602   -0.3092   -2.0464 C   0  0  0  0  0  0  0  0  0  0  0  0
    3.2519   -0.6331    0.8513 C   0  0  0  0  0  0  0  0  0  0  0  0
    1.5827    0.5205   -1.2927 C   0  0  0  0  0  0  0  0  0  0  0  0
  2 10  1  0
  3 11  1  0
  4 10  2  0
  5 11  2  0
  6  8  1  0
  7  9  1  0
  8 10  1  0
  9 11  1  0
M  CHG  3   1   2   2  -1   3  -1
M  END
>  <DRUGBANK_ID>  (1) 
DB14493

>  <COMMON_NAME>  (1) 
Zinc glycinate

>  <CAS_NUMBER>  (1) 
14281-83-5

>  <UNII>  (1) 
681VJX72FE

>  <SYNONYMS>  (1) 
Zinc bisglycinate; Zinc(II) glycinate

$$$$
