
     RDKit          3D

 32 35  0  0  1  0  0  0  0  0999 V2000
    0.1375   -1.2072    1.4366 C   0  0  0  0  0  0  0  0  0  0  0  0
   -0.0650   -0.8098   -0.8706 C   0  0  0  0  0  0  0  0  0  0  0  0
    1.9785   -2.4215   -8.7087 C   0  0  0  0  0  0  0  0  0  0  0  0
   -3.0955   -1.9506   -1.7158 C   0  0  0  0  0  0  0  0  0  0  0  0
   -1.9453   -0.8974   -3.5300 C   0  0  0  0  0  0  0  0  0  0  0  0
   -4.1154   -1.0491   -1.7463 C   0  0  0  0  0  0  0  0  0  0  0  0
   -2.9573    0.0816   -3.5259 C   0  0  0  0  0  0  0  0  0  0  0  0
    2.0202   -4.6974   -4.6547 C   0  0  0  0  0  0  0  0  0  0  0  0
    0.5727   -3.9698   -6.5181 C   0  0  0  0  0  0  0  0  0  0  0  0
    0.7464   -5.2777   -3.9981 C   0  0  0  0  0  0  0  0  0  0  0  0
   -0.6651   -4.5488   -5.8585 C   0  0  0  0  0  0  0  0  0  0  0  0
    4.3447   -2.4937   -9.2708 C   0  0  0  0  0  0  0  0  0  0  0  0
   -1.1870   -3.8757   -1.1014 C   0  0  0  0  0  0  0  0  0  0  0  0
    3.8992   -6.8727   -7.9256 C   0  0  0  0  0  0  0  0  0  0  0  0
   -0.6457   -1.7075    0.2212 C   0  0  0  0  0  0  0  0  0  0  0  0
    3.3286   -2.8119   -8.1712 C   0  0  2  0  0  0  0  0  0  0  0  0
   -2.0672   -2.0002   -2.6558 C   0  0  0  0  0  0  0  0  0  0  0  0
   -4.0776   -0.0619   -2.6965 C   0  0  0  0  0  0  0  0  0  0  0  0
   -1.1066   -3.2037   -2.5134 C   0  0  2  0  0  0  0  0  0  0  0  0
    4.9209   -3.8202   -9.7771 C   0  0  2  0  0  0  0  0  0  0  0  0
    3.4107   -4.2844   -7.9484 C   0  0  0  0  0  0  0  0  0  0  0  0
    4.3045   -4.8574   -8.8417 C   0  0  0  0  0  0  0  0  0  0  0  0
    2.7642   -5.0790   -7.0060 C   0  0  0  0  0  0  0  0  0  0  0  0
   -1.4924   -4.1671   -3.6257 C   0  0  0  0  0  0  0  0  0  0  0  0
   -5.4252    0.9887   -2.7802 Cl  0  0  0  0  0  0  0  0  0  0  0  0
   -0.4694   -3.1696    0.0090 N   0  0  0  0  0  0  0  0  0  0  0  0
    4.5616   -6.1692   -8.8678 N   0  0  0  0  0  0  0  0  0  0  0  0
    3.0445   -6.3940   -6.9842 N   0  0  0  0  0  0  0  0  0  0  0  0
    1.8383   -4.5910   -6.1067 N   0  0  0  0  0  0  0  0  0  0  0  0
   -0.4648   -4.5732   -4.4312 N   0  0  0  0  0  0  0  0  0  0  0  0
    6.3374   -3.7134   -9.7000 O   0  0  0  0  0  0  0  0  0  0  0  0
   -2.6859   -4.3561   -3.9496 O   0  0  0  0  0  0  0  0  0  0  0  0
  6  4  2  0
  7  5  1  0
 10  8  1  0
 11  9  1  0
 15  1  1  0
 15  2  1  0
 16  3  1  6
 16 12  1  0
 17  4  1  0
 17  5  2  0
 18  6  1  0
 18  7  2  0
 19 24  1  0
 19 17  1  0
 19 13  1  1
 20 12  1  0
 20 31  1  1
 21 16  1  0
 22 20  1  0
 22 21  2  0
 23 21  1  0
 25 18  1  0
 26 13  1  0
 26 15  1  0
 27 14  2  0
 27 22  1  0
 28 14  1  0
 28 23  2  0
 29  8  1  0
 29  9  1  0
 29 23  1  0
 30 10  1  0
 30 11  1  0
 30 24  1  0
 32 24  2  0
M  END
>  <DRUGBANK_ID>  (1) 
DB11743

>  <COMMON_NAME>  (1) 
Ipatasertib

>  <CAS_NUMBER>  (1) 
1001264-89-6

>  <UNII>  (1) 
524Y3IB4HQ

>  <SYNONYMS>  (1) 
Ipatasertib

$$$$
