
     RDKit          3D

 20 23  0  0  1  0  0  0  0  0999 V2000
    1.7335   -0.1774    0.8406 C   0  0  0  0  0  0  0  0  0  0  0  0
   -1.6590   -4.6726    0.7182 C   0  0  0  0  0  0  0  0  0  0  0  0
   -1.0547    2.1617    3.6332 C   0  0  0  0  0  0  0  0  0  0  0  0
   -0.5415   -0.9724    3.0268 C   0  0  0  0  0  0  0  0  0  0  0  0
    0.4767   -2.4207    4.0017 C   0  0  0  0  0  0  0  0  0  0  0  0
    0.5384   -2.1972    2.1750 C   0  0  0  0  0  0  0  0  0  0  0  0
    1.1401   -0.4632    3.2069 C   0  0  0  0  0  0  0  0  0  0  0  0
   -0.0426    0.2318    1.3391 C   0  0  2  0  0  0  0  0  0  0  0  0
   -0.3358   -4.5786    1.6462 C   0  0  2  0  0  0  0  0  0  0  0  0
   -1.2024   -1.3785    1.8666 C   0  0  2  0  0  0  0  0  0  0  0  0
   -0.6503   -3.6779    3.2687 C   0  0  2  0  0  0  0  0  0  0  0  0
    0.9404   -3.6644    0.4507 C   0  0  1  0  0  0  0  0  0  0  0  0
   -1.1131   -1.4475    1.2033 C   0  0  2  0  0  0  0  0  0  0  0  0
   -0.5809    0.7553    3.6881 C   0  0  2  0  0  0  0  0  0  0  0  0
   -1.6326   -2.4968    2.9307 C   0  0  2  0  0  0  0  0  0  0  0  0
    1.1491   -4.9634   -0.0759 O   0  0  0  0  0  0  0  0  0  0  0  0
   -0.1019   -2.1821   -0.1554 O   0  0  0  0  0  0  0  0  0  0  0  0
   -1.7356    0.3759    2.0984 O   0  0  0  0  0  0  0  0  0  0  0  0
   -1.0502   -0.1039    4.9690 O   0  0  0  0  0  0  0  0  0  0  0  0
   -1.5275   -1.8133    4.6246 O   0  0  0  0  0  0  0  0  0  0  0  0
  4  5  1  0
  6  7  1  0
  8  4  1  0
  8  1  1  1
  9 12  1  0
  9  2  1  6
 10  6  1  6
 10  8  1  0
 11  5  1  6
 11  9  1  0
 12 17  1  0
 12 16  1  6
 13 17  1  6
 13 18  1  0
 14  7  1  0
 14 18  1  0
 14 19  1  0
 14  3  1  1
 15 10  1  0
 15 11  1  0
 15 13  1  0
 15 20  1  6
 19 20  1  0
M  END
>  <DRUGBANK_ID>  (1) 
DB11638

>  <COMMON_NAME>  (1) 
Artenimol

>  <CAS_NUMBER>  (1) 
71939-50-9

>  <UNII>  (1) 
6A9O50735X

>  <SYNONYMS>  (1) 
Artenimol; beta-Dihydroartemisinin; Dihydroartemisinin

$$$$
