BNT
     RDKit          3D

 14 14  0  0  0  0  0  0  0  0999 V2000
    1.1168    0.0819   -0.0783 C   0  0  0  0  0  0  0  0  0  0  0  0
    0.5355    1.4685    0.2827 C   0  0  0  0  0  0  0  0  0  0  0  0
    1.1647    2.4114   -0.7566 C   0  0  0  0  0  0  0  0  0  0  0  0
   -1.0012    1.5481    0.3178 C   0  0  0  0  0  0  0  0  0  0  0  0
   -1.7350    0.2458    0.4697 C   0  0  0  0  0  0  0  0  0  0  0  0
   -1.2209   -0.7380    0.9952 O   0  0  0  0  0  0  0  0  0  0  0  0
   -3.1325    0.1611    0.0011 C   0  0  0  0  0  0  0  0  0  0  0  0
   -3.8066   -1.5594   -0.3381 Br  0  0  0  0  0  0  0  0  0  0  0  0
   -3.8686    1.2733   -0.0895 C   0  0  0  0  0  0  0  0  0  0  0  0
   -5.3128    1.2539   -0.4644 C   0  0  0  0  0  0  0  0  0  0  0  0
   -3.2620    2.5805    0.2383 C   0  0  0  0  0  0  0  0  0  0  0  0
   -3.9760    3.5663    0.4034 O   0  0  0  0  0  0  0  0  0  0  0  0
   -1.7680    2.6637    0.2928 C   0  0  0  0  0  0  0  0  0  0  0  0
   -1.1529    4.4468    0.3648 Br  0  0  0  0  0  0  0  0  0  0  0  0
  1  2  1  0
  2  3  1  0
  2  4  1  0
  4  5  1  0
  4 13  2  0
  5  6  2  0
  5  7  1  0
  7  8  1  0
  7  9  2  0
  9 10  1  0
  9 11  1  0
 11 12  2  0
 11 13  1  0
 13 14  1  0
M  END
>  <DRUGBANK_ID>  (1) 
DB04646

>  <COMMON_NAME>  (1) 
Dibromothymoquinone

>  <CAS_NUMBER>  (1) 
29096-93-3

>  <UNII>  (1) 
0BY5UFN2U6

>  <SYNONYMS>  (1) 
2,5-dibromo-3-isopropyl-6-methyl-1,4-benzoquinone; 2,5-dibromo-3-isopropyl-6-methylbenzoquinone; 2,5-dibromo-3-methyl-6-(1-methylethyl)-2,5-cyclohexadiene-1,4-dione; 2,5-dibromo-3-methyl-6-(1-methylethyl)cyclohexa-2,5-diene-1,4-dione

$$$$
