
     RDKit          3D

 16 17  0  0  0  0  0  0  0  0999 V2000
    1.3250   -0.1956    0.0999 C   0  0  0  0  0  0  0  0  0  0  0  0
    2.8221   -0.4020    0.1748 C   0  0  0  0  0  0  0  0  0  0  0  0
    0.4604   -1.2964    0.0167 C   0  0  0  0  0  0  0  0  0  0  0  0
    0.7631    1.0904    0.1485 C   0  0  0  0  0  0  0  0  0  0  0  0
    3.6128    0.1058   -1.0610 C   0  0  0  0  0  0  0  0  0  0  0  0
    3.3156    0.1680    1.3872 O   0  0  0  0  0  0  0  0  0  0  0  0
   -0.9224   -1.1053   -0.0307 C   0  0  0  0  0  0  0  0  0  0  0  0
   -0.6114    1.2821    0.0761 C   0  0  0  0  0  0  0  0  0  0  0  0
    3.4734    1.5386   -1.3578 N   0  0  0  0  0  0  0  0  0  0  0  0
   -1.4551    0.1831   -0.0143 C   0  0  0  0  0  0  0  0  0  0  0  0
    4.5384    2.3929   -1.1106 C   0  0  0  0  0  0  0  0  0  0  0  0
    5.7401    2.1463   -1.7524 C   0  0  0  0  0  0  0  0  0  0  0  0
    4.3368    3.4857   -0.3483 N   0  0  0  0  0  0  0  0  0  0  0  0
    6.7824    3.0569   -1.6441 C   0  0  0  0  0  0  0  0  0  0  0  0
    5.3858    4.3447   -0.2195 C   0  0  0  0  0  0  0  0  0  0  0  0
    6.6075    4.1783   -0.8505 C   0  0  0  0  0  0  0  0  0  0  0  0
  1  2  1  0
  1  3  2  0
  1  4  1  0
  2  5  1  0
  2  6  1  0
  3  7  1  0
  4  8  2  0
  5  9  1  0
  7 10  2  0
  8 10  1  0
  9 11  1  0
 11 12  2  0
 11 13  1  0
 12 14  1  0
 13 15  2  0
 14 16  2  0
 15 16  1  0
M  END
>  <DRUGBANK_ID>  (1) 
DB13414

>  <COMMON_NAME>  (1) 
Fenyramidol

>  <CAS_NUMBER>  (1) 
553-69-5

>  <UNII>  (1) 
R3V02WL7O3

>  <SYNONYMS>  (1) 
Feniramidol; Fenyramidol; Fenyramidolum; Phenyramidol

$$$$
