
     RDKit          3D

 21 20  0  0  1  0  0  0  0  0999 V2000
    1.1461   16.7161    7.3483 C   0  0  0  0  0  0  0  0  0  0  0  0
    0.1662   15.6749    7.8685 C   0  0  0  0  0  0  0  0  0  0  0  0
   -0.6284   16.1822    9.0684 C   0  0  0  0  0  0  0  0  0  0  0  0
   -0.7721   15.1943    6.7409 C   0  0  0  0  0  0  0  0  0  0  0  0
   -0.0228   14.4320    5.6452 C   0  0  0  0  0  0  0  0  0  0  0  0
    0.8232   13.2493    6.1622 C   0  0  0  0  0  0  0  0  0  0  0  0
   -0.0264   12.1804    6.8713 C   0  0  2  0  0  0  0  0  0  0  0  0
   -0.4446   12.4435    8.3207 C   0  0  0  0  0  0  0  0  0  0  0  0
    0.6671   10.8027    6.8734 C   0  0  0  0  0  0  0  0  0  0  0  0
   -0.3214    9.7111    7.2862 C   0  0  0  0  0  0  0  0  0  0  0  0
   -1.5906    9.6863    6.4247 C   0  0  0  0  0  0  0  0  0  0  0  0
   -1.2789    9.4948    4.9266 C   0  0  2  0  0  0  0  0  0  0  0  0
   -0.8774   10.7459    4.1363 C   0  0  0  0  0  0  0  0  0  0  0  0
   -2.5195    8.9359    4.2422 C   0  0  0  0  0  0  0  0  0  0  0  0
   -2.2347    8.4800    2.8048 C   0  0  0  0  0  0  0  0  0  0  0  0
   -1.2109    7.3464    2.7288 C   0  0  0  0  0  0  0  0  0  0  0  0
   -1.6636    6.0597    3.4554 C   0  0  2  0  0  0  0  0  0  0  0  0
   -0.9826    4.8455    2.8138 C   0  0  0  0  0  0  0  0  0  0  0  0
   -3.2011    5.8728    3.4746 C   0  0  0  0  0  0  0  0  0  0  0  0
   -3.7080    4.7343    4.3448 C   0  0  0  0  0  0  0  0  0  0  0  0
   -3.2516    4.8595    5.6815 O   0  0  0  0  0  0  0  0  0  0  0  0
  1  2  1  0
  2  3  1  0
  2  4  1  0
  4  5  1  0
  5  6  1  0
  7  9  1  0
  7  8  1  1
  7  6  1  0
  9 10  1  0
 10 11  1  0
 12 14  1  0
 12 13  1  6
 12 11  1  0
 14 15  1  0
 15 16  1  0
 17 19  1  0
 17 18  1  6
 17 16  1  0
 19 20  1  0
 20 21  1  0
M  END
>  <DRUGBANK_ID>  (1) 
DB01637

>  <SECONDARY_ACCESSION_NUMBERS>  (1) 
EXPT00556

>  <COMMON_NAME>  (1) 
3,7,11,15-tetramethyl-hexadecan-1-ol

$$$$
