
     RDKit          3D

 28 30  0  0  0  0  0  0  0  0999 V2000
    0.2264   -0.5890    0.0286 C   0  0  0  0  0  0  0  0  0  0  0  0
    1.6173   -1.0158    0.1262 C   0  0  0  0  0  0  0  0  0  0  0  0
    2.6828   -0.0539    0.2605 C   0  0  0  0  0  0  0  0  0  0  0  0
    2.2510    1.2530    0.1231 C   0  0  0  0  0  0  0  0  0  0  0  0
    0.9386    1.6656    0.0145 C   0  0  0  0  0  0  0  0  0  0  0  0
   -0.0989    0.7650    0.0046 C   0  0  0  0  0  0  0  0  0  0  0  0
   -1.4240    1.3441   -0.0088 C   0  0  0  0  0  0  0  0  0  0  0  0
   -2.4020    1.9374   -0.0059 N   0  0  0  0  0  0  0  0  0  0  0  0
    4.2396   -0.1000    0.3279 C   0  0  0  0  0  0  0  0  0  0  0  0
    5.0645    0.8462    0.9985 N   0  0  0  0  0  0  0  0  0  0  0  0
    6.0841    1.1423    0.0046 N   0  0  0  0  0  0  0  0  0  0  0  0
    5.2921    0.9185   -1.1645 C   0  0  0  0  0  0  0  0  0  0  0  0
    5.0433   -0.4340   -0.8202 C   0  0  0  0  0  0  0  0  0  0  0  0
    7.4966    0.6677    0.0818 C   0  0  0  0  0  0  0  0  0  0  0  0
    7.7281   -0.1733    1.3505 C   0  0  1  0  0  0  0  0  0  0  0  0
    6.7096   -1.2325    1.5999 N   0  0  0  0  0  0  0  0  0  0  0  0
    6.8369   -2.5967    1.3655 C   0  0  0  0  0  0  0  0  0  0  0  0
    5.6051   -3.4221    1.3250 C   0  0  0  0  0  0  0  0  0  0  0  0
    5.5111   -4.5376    2.0713 N   0  0  0  0  0  0  0  0  0  0  0  0
    4.3650   -5.1198    1.6954 N   0  0  0  0  0  0  0  0  0  0  0  0
    3.6835   -4.4517    0.7221 C   0  0  0  0  0  0  0  0  0  0  0  0
    4.4900   -3.3637    0.4455 C   0  0  0  0  0  0  0  0  0  0  0  0
    2.4328   -4.8207    0.0888 C   0  0  0  0  0  0  0  0  0  0  0  0
    1.6784   -6.0276    0.5745 C   0  0  0  0  0  0  0  0  0  0  0  0
    1.9551   -4.1634   -0.8373 O   0  0  0  0  0  0  0  0  0  0  0  0
    7.9238   -3.1307    1.1703 O   0  0  0  0  0  0  0  0  0  0  0  0
    9.1193   -0.7603    1.2979 C   0  0  0  0  0  0  0  0  0  0  0  0
   -1.0863   -1.7357   -0.0072 Cl  0  0  0  0  0  0  0  0  0  0  0  0
  1  6  2  0
  1 28  1  0
  2  1  1  0
  3  2  2  0
  3  9  1  0
  4  3  1  0
  5  4  2  0
  6  5  1  0
  6  7  1  0
  7  8  3  0
 10  9  2  0
 10 11  1  0
 11 12  1  0
 11 14  1  0
 12 13  2  0
 13  9  1  0
 14 15  1  0
 15 16  1  0
 15 27  1  6
 16 17  1  0
 17 18  1  0
 17 26  2  0
 19 18  2  0
 19 20  1  0
 20 21  1  0
 21 22  2  0
 21 23  1  0
 22 18  1  0
 23 24  1  0
 23 25  2  0
M  END
>  <DRUGBANK_ID>  (1) 
DB15647

>  <COMMON_NAME>  (1) 
Ketodarolutamide

>  <CAS_NUMBER>  (1) 
1297537-33-7

>  <UNII>  (1) 
9EPS75QMTL

$$$$
