
     RDKit          3D

 19 19  0  0  0  0  0  0  0  0999 V2000
   -0.8361    1.4807   -0.0003 C   0  0  0  0  0  0  0  0  0  0  0  0
   -0.1618   -6.5617   -0.8652 C   0  0  0  0  0  0  0  0  0  0  0  0
    1.5141   -6.7641    0.8552 C   0  0  0  0  0  0  0  0  0  0  0  0
    0.0358   -5.1843   -0.8756 C   0  0  0  0  0  0  0  0  0  0  0  0
    1.7608   -5.3826    0.7951 C   0  0  0  0  0  0  0  0  0  0  0  0
    1.4943   -0.3298   -0.0065 C   0  0  0  0  0  0  0  0  0  0  0  0
   -0.8999   -0.0257   -0.0031 C   0  0  0  0  0  0  0  0  0  0  0  0
    0.6099   -7.3731   -0.0317 C   0  0  0  0  0  0  0  0  0  0  0  0
    0.9900   -4.5809   -0.0492 C   0  0  0  0  0  0  0  0  0  0  0  0
    0.1729   -0.8589   -0.0090 C   0  0  0  0  0  0  0  0  0  0  0  0
   -0.0176   -2.3577   -0.0355 C   0  0  0  0  0  0  0  0  0  0  0  0
    0.5480   -8.8741   -0.1623 C   0  0  0  0  0  0  0  0  0  0  0  0
    1.7605   -9.3980   -0.5037 F   0  0  0  0  0  0  0  0  0  0  0  0
    0.1774   -9.5024    0.9843 F   0  0  0  0  0  0  0  0  0  0  0  0
   -0.3156   -9.3019   -1.1267 F   0  0  0  0  0  0  0  0  0  0  0  0
    2.5661    0.1065    0.0014 N   0  0  0  0  0  0  0  0  0  0  0  0
    1.1235   -3.1672   -0.0402 N   0  0  0  0  0  0  0  0  0  0  0  0
   -2.1985   -0.5119   -0.0095 O   0  0  0  0  0  0  0  0  0  0  0  0
   -1.1477   -2.8449   -0.0020 O   0  0  0  0  0  0  0  0  0  0  0  0
  4  2  2  0
  5  3  1  0
  7  1  1  0
  8  2  1  0
  8  3  2  0
  9  4  1  0
  9  5  2  0
 10  6  1  0
 10  7  2  0
 11 10  1  0
 12  8  1  0
 13 12  1  0
 14 12  1  0
 15 12  1  0
 16  6  3  0
 17  9  1  0
 17 11  1  0
 18  7  1  0
 19 11  2  0
M  END
>  <DRUGBANK_ID>  (1) 
DB08880

>  <SECONDARY_ACCESSION_NUMBERS>  (1) 
EXPT00364; DB03805

>  <COMMON_NAME>  (1) 
Teriflunomide

>  <CAS_NUMBER>  (1) 
163451-81-8

>  <UNII>  (1) 
1C058IKG3B

>  <SYNONYMS>  (1) 
(Z)-2-cyano-alpha,alpha,alpha-trifluoro-3-hydroxy-p-crotonotoluidide; Teriflunomida; Teriflunomide; TÃ©riflunomide; Teriflunomidum

$$$$
