
     RDKit          3D

 28 29  0  0  0  0  0  0  0  0999 V2000
    1.0498    0.0855   -0.0146 P   0  0  0  0  0  0  0  0  0  0  0  0
    3.4231    1.2427   -1.2299 P   0  0  2  0  0  0  0  0  0  0  0  0
    0.8280    1.4148   -2.3330 P   0  0  0  0  0  0  0  0  0  0  0  0
   -1.5073   -1.5759   -0.9128 O   0  0  0  0  0  0  0  0  0  0  0  0
   -1.2881   -3.2264   -3.2881 O   0  0  0  0  0  0  0  0  0  0  0  0
    1.1388   -1.4149    0.8184 O   0  0  0  0  0  0  0  0  0  0  0  0
    1.5702    0.6569   -1.2408 O   0  0  0  0  0  0  0  0  0  0  0  0
    0.9821   -0.9813   -1.3256 O   0  0  0  0  0  0  0  0  0  0  0  0
   -0.4986    0.0855   -0.0146 O   0  0  0  0  0  0  0  0  0  0  0  0
    1.9135    2.0853   -1.1647 O   0  0  0  0  0  0  0  0  0  0  0  0
   -0.1837    5.1611    0.0589 O   0  0  0  0  0  0  0  0  0  0  0  0
    4.3171    1.8596    0.0049 O   0  0  0  0  0  0  0  0  0  0  0  0
    3.9392    2.2494   -2.2871 O   0  0  0  0  0  0  0  0  0  0  0  0
    2.1885    0.4023   -3.0236 O   0  0  0  0  0  0  0  0  0  0  0  0
    0.5027    2.9502   -2.6602 O   0  0  0  0  0  0  0  0  0  0  0  0
   -0.1436    0.8148   -3.3786 O   0  0  0  0  0  0  0  0  0  0  0  0
   -1.1564    1.3232   -1.3089 N   0  0  0  0  0  0  0  0  0  0  0  0
    0.4310    2.9955   -0.0064 N   0  0  0  0  0  0  0  0  0  0  0  0
    2.8298    0.0855   -0.0146 N   0  0  0  0  0  0  0  0  0  0  0  0
   -0.2022   -2.5958   -2.6440 C   0  0  2  0  0  0  0  0  0  0  0  0
   -0.4282   -2.6097   -1.1077 C   0  0  1  0  0  0  0  0  0  0  0  0
   -0.4449   -1.2056   -3.1163 C   0  0  0  0  0  0  0  0  0  0  0  0
   -1.4070   -0.4077   -1.9569 C   0  0  1  0  0  0  0  0  0  0  0  0
    0.9719   -2.5986   -0.1093 C   0  0  0  0  0  0  0  0  0  0  0  0
    0.3045    1.6961   -0.5681 C   0  0  0  0  0  0  0  0  0  0  0  0
   -2.1059    2.3180   -1.3285 C   0  0  0  0  0  0  0  0  0  0  0  0
   -1.8481    3.5327   -0.7572 C   0  0  0  0  0  0  0  0  0  0  0  0
   -0.5008    3.9898   -0.1300 C   0  0  0  0  0  0  0  0  0  0  0  0
  1  9  2  0
  1 19  1  0
  1  8  1  0
  1  6  1  0
  2 10  1  0
  2 12  1  0
  2 13  2  0
  2 19  1  0
  3 10  1  0
  3 14  1  0
  3 15  1  0
  3 16  2  0
  4 21  1  0
  4 23  1  0
  6 24  1  0
  7 25  2  0
 11 28  2  0
 17 25  1  0
 17 26  1  0
 18 25  1  0
 18 28  1  0
 20  5  1  6
 20 21  1  0
 20 22  1  0
 21 24  1  1
 22 23  1  0
 23 17  1  1
 26 27  2  0
 27 28  1  0
M  END
>  <DRUGBANK_ID>  (1) 
DB01965

>  <SECONDARY_ACCESSION_NUMBERS>  (1) 
EXPT01299

>  <COMMON_NAME>  (1) 
2'-Deoxyuridine 5'-alpha,beta-imido-triphosphate

$$$$
