
     RDKit          3D

 27 33  0  0  1  0  0  0  0  0999 V2000
   -1.4150    0.0821    2.7629 C   0  0  0  0  0  0  0  0  0  0  0  0
   -0.8299    0.4898    1.4820 C   0  0  0  0  0  0  0  0  0  0  0  0
   -1.1833    1.9730    1.1322 C   0  0  0  0  0  0  0  0  0  0  0  0
    0.6106    0.3605    1.5750 C   0  0  2  0  0  0  0  0  0  0  0  0
    1.3938    1.5328    1.5002 C   0  0  2  0  0  0  0  0  0  0  0  0
    0.8315    0.6857    0.3085 O   0  0  0  0  0  0  0  0  0  0  0  0
    2.1081    2.4427    0.7241 C   0  0  1  0  0  0  0  0  0  0  0  0
    3.1880    1.2490    0.5775 C   0  0  1  0  0  0  0  0  0  0  0  0
    2.3677    1.8148   -0.5331 O   0  0  0  0  0  0  0  0  0  0  0  0
    4.5099    1.7985    0.0927 C   0  0  1  0  0  0  0  0  0  0  0  0
    5.6469    2.8701    0.7872 C   0  0  0  0  0  0  0  0  0  0  0  0
    6.4576    2.8496   -0.4909 C   0  0  0  0  0  0  0  0  0  0  0  0
    7.1794    1.5993   -0.5017 C   0  0  0  0  0  0  0  0  0  0  0  0
    6.8303    0.3124   -0.4042 C   0  0  0  0  0  0  0  0  0  0  0  0
    5.3677    0.0512   -0.3136 C   0  0  1  0  0  0  0  0  0  0  0  0
    5.2772   -1.5094    0.5379 C   0  0  0  0  0  0  0  0  0  0  0  0
    3.8331   -1.8524    0.3896 C   0  0  2  0  0  0  0  0  0  0  0  0
    2.6980   -0.6052    0.9016 C   0  0  2  0  0  0  0  0  0  0  0  0
    1.5604   -0.6167    2.0179 C   0  0  2  0  0  0  0  0  0  0  0  0
    0.8925   -1.6949    2.6223 O   0  0  0  0  0  0  0  0  0  0  0  0
    3.4403   -1.5592    1.6542 O   0  0  0  0  0  0  0  0  0  0  0  0
    5.0961   -0.6670   -1.6442 O   0  0  0  0  0  0  0  0  0  0  0  0
    7.7796   -0.4960   -1.2466 C   0  0  0  0  0  0  0  0  0  0  0  0
    8.8159    0.4848   -1.1645 O   0  0  0  0  0  0  0  0  0  0  0  0
    8.1121    1.5043   -1.5578 C   0  0  0  0  0  0  0  0  0  0  0  0
    7.8154    1.8067   -2.7673 O   0  0  0  0  0  0  0  0  0  0  0  0
    3.8577    3.5650   -0.4943 C   0  0  0  0  0  0  0  0  0  0  0  0
  1  2  1  0
  2  3  1  0
  4  5  1  0
  4  6  1  0
  4 19  1  0
  4  2  1  6
  5  6  1  6
  5  7  1  0
  7  8  1  0
  7  9  1  6
  8  9  1  6
  8 10  1  0
  8 18  1  0
 10 11  1  0
 10 15  1  0
 10 27  1  6
 11 12  1  0
 12 13  1  0
 13 14  2  0
 13 25  1  0
 14 15  1  0
 14 23  1  0
 15 16  1  0
 15 22  1  6
 17 16  1  1
 17 18  1  0
 17 21  1  0
 18 19  1  0
 18 21  1  6
 19 20  1  6
 23 24  1  0
 24 25  1  0
 25 26  2  0
M  END
>  <DRUGBANK_ID>  (1) 
DB12252

>  <COMMON_NAME>  (1) 
PG-701

>  <CAS_NUMBER>  (1) 
583028-68-6

>  <UNII>  (1) 
XT5J6G12EH

>  <SYNONYMS>  (1) 
Hydroxytriptolide; LLDT-8

$$$$
