
     RDKit          3D

  6  5  0  0  1  0  0  0  0  0999 V2000
   -2.7287   -0.6797   -2.4258 C   0  0  0  0  0  0  0  0  0  0  0  0
   -1.5963   -0.2403   -1.5071 C   0  0  1  0  0  0  0  0  0  0  0  0
   -2.0141    0.9008   -0.7527 O   0  0  0  0  0  0  0  0  0  0  0  0
   -1.1062   -1.3390   -0.5297 C   0  0  2  0  0  0  0  0  0  0  0  0
    0.4190   -1.3416   -0.4634 C   0  0  0  0  0  0  0  0  0  0  0  0
   -1.5327   -2.6497   -0.9030 O   0  0  0  0  0  0  0  0  0  0  0  0
  2  1  1  1
  2  3  1  0
  4  6  1  0
  4  5  1  6
  4  2  1  0
M  END
>  <DRUGBANK_ID>  (1) 
DB02418

>  <SECONDARY_ACCESSION_NUMBERS>  (1) 
EXPT00773

>  <COMMON_NAME>  (1) 
(R,R)-2,3-Butanediol

>  <CAS_NUMBER>  (1) 
24347-58-8

>  <UNII>  (1) 
F5IA8X9O8M

$$$$
