
     RDKit          3D

 17 17  0  0  0  0  0  0  0  0999 V2000
    1.2677    1.4193   -0.6649 C   0  0  0  0  0  0  0  0  0  0  0  0
    1.4948   -2.6054    1.7693 C   0  0  0  0  0  0  0  0  0  0  0  0
   -3.8487    0.6533    1.1039 C   0  0  0  0  0  0  0  0  0  0  0  0
   -1.1976    0.7068    3.2179 C   0  0  0  0  0  0  0  0  0  0  0  0
    1.7733    0.0561   -0.0660 C   0  0  0  0  0  0  0  0  0  0  0  0
    1.4540   -2.3826    0.2480 C   0  0  0  0  0  0  0  0  0  0  0  0
   -2.5973    0.7648    0.2868 C   0  0  0  0  0  0  0  0  0  0  0  0
   -0.5272    0.7671    1.8844 C   0  0  0  0  0  0  0  0  0  0  0  0
   -0.1953    1.6512   -0.9288 C   0  0  0  0  0  0  0  0  0  0  0  0
   -0.0286   -3.2919    2.3525 Cl  0  0  0  0  0  0  0  0  0  0  0  0
   -4.0543    2.0521    2.1897 Cl  0  0  0  0  0  0  0  0  0  0  0  0
   -1.4879   -0.8939    3.8580 Cl  0  0  0  0  0  0  0  0  0  0  0  0
    0.9142   -1.0945   -0.2484 N   0  0  0  0  0  0  0  0  0  0  0  0
   -1.3510    0.0478    0.8516 N   0  0  0  0  0  0  0  0  0  0  0  0
   -1.5014   -1.9443   -0.8962 O   0  0  0  0  0  0  0  0  0  0  0  0
   -0.6960    0.4401   -1.4751 O   0  0  0  0  0  0  0  0  0  0  0  0
   -0.6943   -0.8173   -0.4132 P   0  0  0  0  0  0  0  0  0  0  0  0
  5  1  1  0
  6  2  1  0
  7  3  1  0
  8  4  1  0
  9  1  1  0
 10  2  1  0
 11  3  1  0
 12  4  1  0
 13  5  1  0
 13  6  1  0
 14  7  1  0
 14  8  1  0
 16  9  1  0
 17 13  1  0
 17 14  1  0
 17 15  2  0
 17 16  1  0
M  END
>  <DRUGBANK_ID>  (1) 
DB12902

>  <COMMON_NAME>  (1) 
Trofosfamide

>  <CAS_NUMBER>  (1) 
22089-22-1

>  <UNII>  (1) 
H64JRU6GJ0

>  <SYNONYMS>  (1) 
Trofosfamide

$$$$
