
     RDKit          3D

 10  9  0  0  0  0  0  0  0  0999 V2000
    0.8704   -0.0673    0.0349 C   0  0  0  0  0  0  0  0  0  0  0  0
    3.6566    1.5306    0.9160 C   0  0  0  0  0  0  0  0  0  0  0  0
    0.3780   -1.4009    0.5204 C   0  0  0  0  0  0  0  0  0  0  0  0
    4.5002    0.9720   -0.2423 C   0  0  0  0  0  0  0  0  0  0  0  0
    0.5087    1.0303    1.0195 C   0  0  0  0  0  0  0  0  0  0  0  0
    2.7992    2.7407    0.5594 C   0  0  0  0  0  0  0  0  0  0  0  0
   -0.3217   -1.5657    1.5153 O   0  0  0  0  0  0  0  0  0  0  0  0
    3.2673    3.8657    0.3794 O   0  0  0  0  0  0  0  0  0  0  0  0
    5.8944    2.0475   -0.7118 S   0  0  0  0  0  0  0  0  0  0  0  0
    1.0323    2.6511    0.4594 S   0  0  0  0  0  0  0  0  0  0  0  0
  3  1  1  0
  4  2  1  0
  5  1  1  0
  6  2  1  0
  7  3  2  0
  8  6  2  0
  9  4  1  0
 10  5  1  0
 10  6  1  0
M  CHG  1   9  -1
M  END
>  <DRUGBANK_ID>  (1) 
DB04749

>  <COMMON_NAME>  (1) 
2-(3-OXO-PROPYLSULFANYLCARBONYL)-ETHANETHIOLATE

$$$$
