NCF
     RDKit          3D

 21 22  0  0  0  0  0  0  0  0999 V2000
    0.4618    1.8379   -0.6443 S   0  0  0  0  0  0  0  0  0  0  0  0
    1.5893    0.5076   -0.3095 C   0  0  0  0  0  0  0  0  0  0  0  0
    1.0633   -0.8943   -0.4693 C   0  0  0  0  0  0  0  0  0  0  0  0
   -0.4405   -1.1762   -0.4483 C   0  0  0  0  0  0  0  0  0  0  0  0
   -0.8498   -2.6910   -0.5941 C   0  0  0  0  0  0  0  0  0  0  0  0
   -2.1548   -2.9504   -0.3568 O   0  0  0  0  0  0  0  0  0  0  0  0
   -0.0346   -3.5447   -0.8165 O   0  0  0  0  0  0  0  0  0  0  0  0
   -1.3833   -0.3192   -0.2558 N   0  0  0  0  0  0  0  0  0  0  0  0
   -1.1061    1.1239   -0.0942 C   0  0  1  0  0  0  0  0  0  0  0  0
   -1.5557    1.6353    1.3127 C   0  0  1  0  0  0  0  0  0  0  0  0
   -1.3167    3.1304    1.5132 C   0  0  0  0  0  0  0  0  0  0  0  0
   -2.1897    3.9741    1.6802 O   0  0  0  0  0  0  0  0  0  0  0  0
   -2.9372    1.2532    1.5956 N   0  0  0  0  0  0  0  0  0  0  0  0
   -3.3970    0.3866    2.5440 C   0  0  0  0  0  0  0  0  0  0  0  0
   -4.6131    0.1896    2.5998 O   0  0  0  0  0  0  0  0  0  0  0  0
   -2.4489   -0.2409    3.5632 C   0  0  0  0  0  0  0  0  0  0  0  0
   -1.5090   -1.2832    3.0130 C   0  0  0  0  0  0  0  0  0  0  0  0
   -0.2206   -1.1556    2.5224 C   0  0  0  0  0  0  0  0  0  0  0  0
    0.3413   -2.4097    2.1593 C   0  0  0  0  0  0  0  0  0  0  0  0
   -0.5317   -3.4494    2.3218 C   0  0  0  0  0  0  0  0  0  0  0  0
   -1.9687   -2.9429    3.0692 S   0  0  0  0  0  0  0  0  0  0  0  0
  1  2  1  0
  1  9  1  0
  2  3  1  0
  3  4  1  0
  4  5  1  0
  4  8  2  0
  5  6  1  0
  5  7  2  0
  9  8  1  1
  9 10  1  0
 10 11  1  6
 10 13  1  0
 11 12  2  0
 13 14  1  0
 14 15  2  0
 14 16  1  0
 16 17  1  0
 17 18  2  0
 17 21  1  0
 18 19  1  0
 19 20  2  0
 20 21  1  0
M  END
>  <DRUGBANK_ID>  (1) 
DB04742

>  <COMMON_NAME>  (1) 
(2R)-2-{(1R)-2-oxo-1-[(2-thienylacetyl)amino]ethyl}-5,6-dihydro-2h-1,3-thiazine-4-carboxylic acid

$$$$
