
     RDKit          3D

 21 20  0  0  0  0  0  0  0  0999 V2000
    4.8003   -3.6462    7.7899 O   0  0  0  0  0  0  0  0  0  0  0  0
    5.3248   -4.3573    6.6696 C   0  0  0  0  0  0  0  0  0  0  0  0
    4.1828   -5.0527    5.9445 C   0  0  1  0  0  0  0  0  0  0  0  0
    3.3170   -3.9819    5.5457 O   0  0  0  0  0  0  0  0  0  0  0  0
    4.6943   -5.8742    4.7393 C   0  0  1  0  0  0  0  0  0  0  0  0
    5.6285   -6.8788    5.1644 O   0  0  0  0  0  0  0  0  0  0  0  0
    3.5279   -6.5734    3.9762 C   0  0  1  0  0  0  0  0  0  0  0  0
    2.4474   -5.6070    3.4328 C   0  0  1  0  0  0  0  0  0  0  0  0
    2.9604   -4.5620    2.3812 C   0  0  2  0  0  0  0  0  0  0  0  0
    2.5276   -4.8621    0.9455 C   0  0  0  0  0  0  0  0  0  0  0  0
    3.0477   -6.2132    0.4769 C   0  0  0  0  0  0  0  0  0  0  0  0
    2.0115   -7.2897    0.1230 C   0  0  0  0  0  0  0  0  0  0  0  0
    2.4976   -8.5276   -0.0068 O   0  0  0  0  0  0  0  0  0  0  0  0
    0.8177   -7.0274    0.1120 O   0  0  0  0  0  0  0  0  0  0  0  0
    4.2402   -6.5173    0.4819 O   0  0  0  0  0  0  0  0  0  0  0  0
    4.3706   -4.3189    2.3725 O   0  0  0  0  0  0  0  0  0  0  0  0
    1.2558   -6.3343    2.9649 N   0  0  0  0  0  0  0  0  0  0  0  0
   -0.0145   -6.1143    3.4377 C   0  0  0  0  0  0  0  0  0  0  0  0
   -1.0942   -6.8496    2.6843 C   0  0  0  0  0  0  0  0  0  0  0  0
   -0.2682   -5.3773    4.3839 O   0  0  0  0  0  0  0  0  0  0  0  0
    3.9842   -7.4298    2.9087 O   0  0  0  0  0  0  0  0  0  0  0  0
  1  2  1  0
  2  3  1  0
  3  4  1  6
  3  5  1  0
  5  6  1  1
  5  7  1  0
  7  8  1  0
  7 21  1  6
  8 17  1  6
  9 16  1  6
  9 10  1  0
  9  8  1  0
 10 11  1  0
 11 12  1  0
 11 15  2  0
 12 13  1  0
 12 14  2  0
 17 18  1  0
 18 19  1  0
 18 20  2  0
M  END
>  <DRUGBANK_ID>  (1) 
DB11797

>  <COMMON_NAME>  (1) 
Aceneuramic acid

>  <CAS_NUMBER>  (1) 
131-48-6

>  <UNII>  (1) 
GZP2782OP0

>  <SYNONYMS>  (1) 
Aceneuramic acid; Acidium aceneuramicum; Acido aceneuramico

$$$$
