PFZ
     RDKit          3D

 22 23  0  0  0  0  0  0  0  0999 V2000
    0.9774   -0.0575   -0.0828 C   0  0  1  0  0  0  0  0  0  0  0  0
    0.5872   -0.9962   -1.1157 O   0  0  0  0  0  0  0  0  0  0  0  0
    0.2246    1.2787   -0.2025 C   0  0  0  0  0  0  0  0  0  0  0  0
    0.5062   -0.8084    1.1918 C   0  0  0  0  0  0  0  0  0  0  0  0
    2.5044    0.1494   -0.1907 C   0  0  0  0  0  0  0  0  0  0  0  0
    1.0102   -2.2325    1.3982 C   0  0  0  0  0  0  0  0  0  0  0  0
    2.5217   -2.3311    1.6022 C   0  0  0  0  0  0  0  0  0  0  0  0
    3.0643   -1.3494    2.6620 C   0  0  0  0  0  0  0  0  0  0  0  0
    2.5808   -1.7526    4.0503 C   0  0  0  0  0  0  0  0  0  0  0  0
    3.0356   -3.1695    4.3542 C   0  0  0  0  0  0  0  0  0  0  0  0
    2.9796    0.6459   -1.4588 N   0  0  0  0  0  0  0  0  0  0  0  0
   -0.1406    1.7322   -1.4866 C   0  0  0  0  0  0  0  0  0  0  0  0
   -1.0825    2.7383   -1.6566 C   0  0  0  0  0  0  0  0  0  0  0  0
   -1.6701    3.3166   -0.5427 C   0  0  0  0  0  0  0  0  0  0  0  0
   -1.2157    3.0063    0.7289 C   0  0  0  0  0  0  0  0  0  0  0  0
   -0.2102    2.0579    0.8939 C   0  0  0  0  0  0  0  0  0  0  0  0
    3.0344    1.9464   -1.8477 C   0  0  0  0  0  0  0  0  0  0  0  0
    3.4422    1.8939   -3.1523 C   0  0  0  0  0  0  0  0  0  0  0  0
    3.7328    0.6023   -3.5270 N   0  0  0  0  0  0  0  0  0  0  0  0
    3.4794   -0.1218   -2.4755 C   0  0  0  0  0  0  0  0  0  0  0  0
    0.4889    2.0445    2.4802 Cl  0  0  0  0  0  0  0  0  0  0  0  0
   -2.9432    4.4481   -0.7355 Cl  0  0  0  0  0  0  0  0  0  0  0  0
  1  4  1  0
  1  5  1  0
  1  3  1  0
  1  2  1  6
  3 12  2  0
  3 16  1  0
  4  6  1  0
  5 11  1  0
  6  7  1  0
  7  8  1  0
  8  9  1  0
  9 10  1  0
 11 17  1  0
 11 20  1  0
 12 13  1  0
 13 14  2  0
 14 15  1  0
 14 22  1  0
 15 16  2  0
 16 21  1  0
 17 18  2  0
 18 19  1  0
 19 20  2  0
M  END
>  <DRUGBANK_ID>  (1) 
DB02617

>  <SECONDARY_ACCESSION_NUMBERS>  (1) 
EXPT02560

>  <COMMON_NAME>  (1) 
1-(N-Imidazolyl)-2-Hydroxy-2-(2,3-Dichlorophenyl)Octane

$$$$
