
     RDKit          3D

 37 41  0  0  1  0  0  0  0  0999 V2000
   -3.1733    1.8009    9.1005 C   0  0  0  0  0  0  0  0  0  0  0  0
   -1.1478    0.3540    4.7271 C   0  0  0  0  0  0  0  0  0  0  0  0
    0.1498   11.0584    6.9696 C   0  0  0  0  0  0  0  0  0  0  0  0
    4.6310    8.9166    7.5851 C   0  0  0  0  0  0  0  0  0  0  0  0
   -2.4157    3.1082    9.0477 C   0  0  0  0  0  0  0  0  0  0  0  0
   -0.7143    1.8087    4.6743 C   0  0  0  0  0  0  0  0  0  0  0  0
    3.6352   -1.5019    7.3071 C   0  0  0  0  0  0  0  0  0  0  0  0
    3.0898   -1.6727    5.9049 C   0  0  0  0  0  0  0  0  0  0  0  0
    4.6662   -0.3738    7.1907 C   0  0  0  0  0  0  0  0  0  0  0  0
    3.0441   -0.2529    5.3705 C   0  0  0  0  0  0  0  0  0  0  0  0
    2.4346    3.6487    8.0298 C   0  0  0  0  0  0  0  0  0  0  0  0
    3.2927    2.3670    7.8795 C   0  0  0  0  0  0  0  0  0  0  0  0
    2.4181    9.9661    7.2714 C   0  0  0  0  0  0  0  0  0  0  0  0
    0.0132    3.3499    8.6121 C   0  0  0  0  0  0  0  0  0  0  0  0
    0.6536    2.9834    6.4023 C   0  0  0  0  0  0  0  0  0  0  0  0
    3.2999    5.4762    3.5546 C   0  0  0  0  0  0  0  0  0  0  0  0
    4.9192    3.1642    6.2914 C   0  0  0  0  0  0  0  0  0  0  0  0
    1.1246    9.9951    6.5265 C   0  0  0  0  0  0  0  0  0  0  0  0
    3.3127    9.0431    6.8910 C   0  0  0  0  0  0  0  0  0  0  0  0
    1.0176    3.3324    7.6929 C   0  0  0  0  0  0  0  0  0  0  0  0
    4.1712    0.5824    6.1098 C   0  0  0  0  0  0  0  0  0  0  0  0
   -1.2327    2.9259    8.1704 C   0  0  0  0  0  0  0  0  0  0  0  0
   -0.5258    2.3870    6.0537 C   0  0  0  0  0  0  0  0  0  0  0  0
    3.6936    4.3019    4.4169 C   0  0  0  0  0  0  0  0  0  0  0  0
    4.6868    4.2710    5.3187 C   0  0  0  0  0  0  0  0  0  0  0  0
    2.8926    6.6816    4.3637 C   0  0  0  0  0  0  0  0  0  0  0  0
    2.9316    3.0820    4.2313 C   0  0  0  0  0  0  0  0  0  0  0  0
    1.7336    8.2507    5.1979 C   0  0  0  0  0  0  0  0  0  0  0  0
    3.8163    2.0872    6.4101 C   0  0  1  0  0  0  0  0  0  0  0  0
    0.7990    9.1874    5.5574 N   0  0  0  0  0  0  0  0  0  0  0  0
   -1.5054    2.3943    6.9419 N   0  0  0  0  0  0  0  0  0  0  0  0
    1.6694    7.2887    4.2943 N   0  0  0  0  0  0  0  0  0  0  0  0
    3.7454    7.2433    5.2340 N   0  0  0  0  0  0  0  0  0  0  0  0
    2.9862    8.1941    5.8281 N   0  0  0  0  0  0  0  0  0  0  0  0
    5.4988    5.3569    5.5792 O   0  0  0  0  0  0  0  0  0  0  0  0
    2.1807    2.9184    3.2628 O   0  0  0  0  0  0  0  0  0  0  0  0
    2.9101    2.2437    5.2807 O   0  0  0  0  0  0  0  0  0  0  0  0
  5  1  1  0
  6  2  1  0
  8  7  1  0
  9  7  1  0
 10  8  1  0
 12 11  1  0
 18  3  1  0
 18 13  1  0
 19  4  1  0
 19 13  2  0
 20 11  1  0
 20 14  2  0
 20 15  1  0
 21  9  1  0
 21 10  1  0
 22  5  1  0
 22 14  1  0
 23  6  1  0
 23 15  2  0
 24 16  1  0
 25 17  1  0
 25 24  2  0
 26 16  1  0
 27 24  1  0
 29 17  1  0
 29 21  1  0
 29 12  1  1
 30 18  2  0
 30 28  1  0
 31 22  2  0
 31 23  1  0
 32 26  1  0
 32 28  2  0
 33 26  2  0
 34 19  1  0
 34 28  1  0
 34 33  1  0
 35 25  1  0
 36 27  2  0
 37 27  1  0
 37 29  1  0
M  END
>  <DRUGBANK_ID>  (1) 
DB11878

>  <COMMON_NAME>  (1) 
Filibuvir

>  <CAS_NUMBER>  (1) 
877130-28-4

>  <UNII>  (1) 
198J479Y2L

>  <SYNONYMS>  (1) 
Filibuvir

$$$$
