1PL
     RDKit          3D

 17 19  0  0  0  0  0  0  0  0999 V2000
   -5.9571   -1.1111    1.1921 C   0  0  0  0  0  0  0  0  0  0  0  0
   -5.5231   -0.2321    2.3390 C   0  0  1  0  0  0  0  0  0  0  0  0
   -6.5710   -0.1131    3.4571 C   0  0  0  0  0  0  0  0  0  0  0  0
   -6.3217   -1.3029    4.3935 C   0  0  0  0  0  0  0  0  0  0  0  0
   -4.9787   -1.9765    3.9966 C   0  0  2  0  0  0  0  0  0  0  0  0
   -4.2549   -0.8107    3.0490 C   0  0  2  0  0  0  0  0  0  0  0  0
   -3.2682    0.4130    3.0431 C   0  0  0  0  0  0  0  0  0  0  0  0
   -2.4024    0.2181    1.6745 C   0  0  0  0  0  0  0  0  0  0  0  0
   -3.1005    0.6095    0.3483 C   0  0  0  0  0  0  0  0  0  0  0  0
   -1.0653    0.9631    1.6379 C   0  0  0  0  0  0  0  0  0  0  0  0
   -2.1979   -1.2819    1.5897 C   0  0  0  0  0  0  0  0  0  0  0  0
   -3.1969   -1.7884    2.5650 C   0  0  2  0  0  0  0  0  0  0  0  0
   -3.9765   -2.9191    2.1072 C   0  0  0  0  0  0  0  0  0  0  0  0
   -4.8682   -3.3007    2.9740 C   0  0  0  0  0  0  0  0  0  0  0  0
   -5.1188   -4.7197    2.4767 C   0  0  0  0  0  0  0  0  0  0  0  0
   -6.2013   -5.4711    2.6246 O   0  0  0  0  0  0  0  0  0  0  0  0
   -4.2442   -5.2779    1.7775 O   0  0  0  0  0  0  0  0  0  0  0  0
  2  3  1  0
  2  6  1  0
  2  1  1  6
  3  4  1  0
  5  4  1  6
  5 14  1  0
  6  5  1  0
  6 12  1  0
  6  7  1  1
  7  8  1  0
  8 11  1  0
  8 10  1  0
  9  8  1  0
 12 11  1  6
 12 13  1  0
 14 13  2  0
 14 15  1  0
 15 16  1  0
 17 15  2  0
M  END
>  <DRUGBANK_ID>  (1) 
DB06903

>  <COMMON_NAME>  (1) 
(1S,3aS,5aR,8aS)-1,7,7-trimethyl-1,2,3,3a,5a,6,7,8-octahydrocyclopenta[c]pentalene-4-carboxylic acid

$$$$
