Glycyrrhetinic acid ChEBI
     RDKit          3D

 34 38  0  0  1  0  0  0  0  0999 V2000
   -1.0066    3.3229   -3.9206 C   0  0  0  0  0  0  0  0  0  0  0  0
   -2.5404    3.5607   -3.4702 C   0  0  0  0  0  0  0  0  0  0  0  0
   -3.1821    4.2512   -4.7162 C   0  0  1  0  0  0  0  0  0  0  0  0
   -2.8109    5.8376   -4.6981 C   0  0  0  0  0  0  0  0  0  0  0  0
   -0.8297    5.7056   -5.1887 C   0  0  1  0  0  0  0  0  0  0  0  0
    0.0803    7.2904   -4.4861 C   0  0  0  0  0  0  0  0  0  0  0  0
    1.2297    6.7206   -3.3938 C   0  0  0  0  0  0  0  0  0  0  0  0
    1.8564    5.4802   -1.7712 C   0  0  2  0  0  0  0  0  0  0  0  0
    0.9717    4.6296   -2.9833 C   0  0  2  0  0  0  0  0  0  0  0  0
   -0.2230    4.6507   -4.2304 C   0  0  2  0  0  0  0  0  0  0  0  0
    0.1346    4.4556   -1.8211 C   0  0  0  0  0  0  0  0  0  0  0  0
    0.8434    4.1880   -0.5729 C   0  0  0  0  0  0  0  0  0  0  0  0
    1.0795    5.2860    0.6743 C   0  0  0  0  0  0  0  0  0  0  0  0
    1.7162    4.2748    0.0882 C   0  0  1  0  0  0  0  0  0  0  0  0
    0.2673    3.3585    1.3924 C   0  0  0  0  0  0  0  0  0  0  0  0
   -1.0273    4.0762    2.5800 C   0  0  0  0  0  0  0  0  0  0  0  0
   -1.4293    5.2678    1.8246 C   0  0  2  0  0  0  0  0  0  0  0  0
   -0.2996    6.1439    1.3806 C   0  0  2  0  0  0  0  0  0  0  0  0
   -1.0521    6.9441    0.1000 C   0  0  0  0  0  0  0  0  0  0  0  0
   -1.8427    7.9468    0.6020 C   0  0  1  0  0  0  0  0  0  0  0  0
   -3.1349    6.8487    0.7430 C   0  0  0  0  0  0  0  0  0  0  0  0
   -2.9144    5.6080    1.6467 C   0  0  0  0  0  0  0  0  0  0  0  0
   -3.9075    6.8968   -4.8129 C   0  0  0  0  0  0  0  0  0  0  0  0
   -2.7120    6.8836   -3.0022 C   0  0  0  0  0  0  0  0  0  0  0  0
   -1.1069    5.7060   -3.7899 C   0  0  0  0  0  0  0  0  0  0  0  0
    3.1448    6.2538   -3.0698 C   0  0  0  0  0  0  0  0  0  0  0  0
    2.1505    3.6388    1.9623 C   0  0  0  0  0  0  0  0  0  0  0  0
   -1.2402    4.7324    0.4507 C   0  0  0  0  0  0  0  0  0  0  0  0
   -2.6228    9.1622    0.4877 C   0  0  0  0  0  0  0  0  0  0  0  0
   -0.6367    8.5904   -0.5632 C   0  0  0  0  0  0  0  0  0  0  0  0
   -0.5641    9.7744   -0.8571 O   0  0  0  0  0  0  0  0  0  0  0  0
    0.4109    7.9023   -1.1474 O   0  0  0  0  0  0  0  0  0  0  0  0
   -2.7644    3.5151   -5.8853 O   0  0  0  0  0  0  0  0  0  0  0  0
   -1.0546    4.6030   -1.7987 O   0  0  0  0  0  0  0  0  0  0  0  0
  1 10  1  0
  2  1  1  0
  2  3  1  0
  3  4  1  0
  3 33  1  6
  4  5  1  0
  4 23  1  0
  4 24  1  0
  5 10  1  0
  5  6  1  1
  6  7  1  0
  7  8  1  0
  8 26  1  6
  9  8  1  0
  9 10  1  0
 10 25  1  6
  9 11  1  1
 12 13  2  0
 12 11  1  0
 13 14  1  0
 14  8  1  0
 14 27  1  1
 15 14  1  0
 16 17  1  0
 16 15  1  0
 17 18  1  0
 17 28  1  6
 18 13  1  0
 18 19  1  6
 20 19  1  0
 20 29  1  6
 20 30  1  0
 21 20  1  0
 21 22  1  0
 22 17  1  0
 31 30  2  0
 32 30  1  0
 34 11  2  0
M  END
>  <DRUGBANK_ID>  (1) 
DB13089

>  <COMMON_NAME>  (1) 
Enoxolone

>  <CAS_NUMBER>  (1) 
471-53-4

>  <UNII>  (1) 
P540XA09DR

>  <SYNONYMS>  (1) 
Enoxolona; Enoxolone; Glycyrrhetic Acid

$$$$
