
     RDKit          3D

 23 25  0  0  0  0  0  0  0  0999 V2000
   -1.9538   -0.9972   -0.0765 C   0  0  0  0  0  0  0  0  0  0  0  0
   -3.0410   -0.1376   -0.0455 C   0  0  0  0  0  0  0  0  0  0  0  0
   -2.8274    1.2386    0.0309 C   0  0  0  0  0  0  0  0  0  0  0  0
   -1.5313    1.7559    0.0735 C   0  0  0  0  0  0  0  0  0  0  0  0
   -0.6546   -0.4804   -0.0326 C   0  0  0  0  0  0  0  0  0  0  0  0
   -0.4553    0.8835    0.0544 C   0  0  0  0  0  0  0  0  0  0  0  0
    1.7398   -0.8776    0.1412 C   0  0  0  0  0  0  0  0  0  0  0  0
    3.0425   -2.6074    1.4134 C   0  0  0  0  0  0  0  0  0  0  0  0
    2.9938   -1.7333    0.1437 C   0  0  0  0  0  0  0  0  0  0  0  0
    3.1826   -2.5667   -1.1523 C   0  0  0  0  0  0  0  0  0  0  0  0
    0.4970   -1.3471   -0.0771 C   0  0  0  0  0  0  0  0  0  0  0  0
    0.1567   -2.6342   -0.4193 O   0  0  0  0  0  0  0  0  0  0  0  0
    0.8342    1.4230    0.1239 O   0  0  0  0  0  0  0  0  0  0  0  0
    1.9620    0.6090    0.1814 C   0  0  0  0  0  0  0  0  0  0  0  0
    3.0799    1.0936    0.1278 O   0  0  0  0  0  0  0  0  0  0  0  0
    2.0204   -3.5094    1.7700 C   0  0  0  0  0  0  0  0  0  0  0  0
    4.1325   -2.5298    2.2862 C   0  0  0  0  0  0  0  0  0  0  0  0
    4.2271   -3.4053    3.3792 C   0  0  0  0  0  0  0  0  0  0  0  0
    3.2146   -4.3236    3.6600 C   0  0  0  0  0  0  0  0  0  0  0  0
    2.1030   -4.3727    2.8508 C   0  0  0  0  0  0  0  0  0  0  0  0
    3.2598   -1.7585   -2.4444 C   0  0  0  0  0  0  0  0  0  0  0  0
    4.2112   -1.9121   -3.2106 O   0  0  0  0  0  0  0  0  0  0  0  0
    2.1042   -0.8661   -2.8413 C   0  0  0  0  0  0  0  0  0  0  0  0
  1  2  2  0
  1  5  1  0
  2  3  1  0
  3  4  2  0
  4  6  1  0
  6  5  2  0
  6 13  1  0
  7  9  1  0
  8 16  2  0
  8 17  1  0
  9  8  1  0
  9 10  1  0
 10 21  1  0
 11  5  1  0
 11  7  2  0
 11 12  1  0
 13 14  1  0
 14  7  1  0
 14 15  2  0
 17 18  2  0
 18 19  1  0
 19 20  2  0
 20 16  1  0
 21 22  2  0
 21 23  1  0
M  END
>  <DRUGBANK_ID>  (1) 
DB00682

>  <SECONDARY_ACCESSION_NUMBERS>  (1) 
APRD00341

>  <COMMON_NAME>  (1) 
Warfarin

>  <CAS_NUMBER>  (1) 
81-81-2

>  <UNII>  (1) 
5Q7ZVV76EI

>  <SYNONYMS>  (1) 
4-Hydroxy-3-(3-oxo-1-phenylbutyl)coumarin; Coumafene; Warfarin; Warfarina; Zoocoumarin

$$$$
