
     RDKit          3D

 30 33  0  0  0  0  0  0  0  0999 V2000
   -1.0058   -1.6931    1.9688 O   0  0  0  0  0  0  0  0  0  0  0  0
   -7.2378   -4.1280    1.6618 O   0  0  0  0  0  0  0  0  0  0  0  0
   -1.7653   -1.5556   -0.4454 O   0  0  0  0  0  0  0  0  0  0  0  0
   -0.5757   -1.7401    5.1492 C   0  0  0  0  0  0  0  0  0  0  0  0
   -2.0280   -2.1527    5.2427 C   0  0  2  0  0  0  0  0  0  0  0  0
    0.6358   -2.3848    5.1132 C   0  0  2  0  0  0  0  0  0  0  0  0
   -2.2540   -3.6677    5.1435 C   0  0  2  0  0  0  0  0  0  0  0  0
    0.4230   -1.6966    3.2112 C   0  0  2  0  0  0  0  0  0  0  0  0
   -3.5955   -4.0978    3.9882 C   0  0  1  0  0  0  0  0  0  0  0  0
    0.2040   -0.3448    4.9812 C   0  0  0  0  0  0  0  0  0  0  0  0
   -0.1927   -3.6229    6.3492 C   0  0  0  0  0  0  0  0  0  0  0  0
   -1.8393   -3.7939    6.5757 C   0  0  0  0  0  0  0  0  0  0  0  0
   -2.6383   -2.0693    3.9737 C   0  0  0  0  0  0  0  0  0  0  0  0
    0.1273   -0.2646    3.5578 C   0  0  0  0  0  0  0  0  0  0  0  0
   -4.8446   -3.3202    4.0504 C   0  0  0  0  0  0  0  0  0  0  0  0
    0.9459   -1.5378    6.8663 C   0  0  0  0  0  0  0  0  0  0  0  0
   -4.2493   -1.9455    4.0612 C   0  0  0  0  0  0  0  0  0  0  0  0
   -3.7150   -3.3685    2.1600 C   0  0  0  0  0  0  0  0  0  0  0  0
    1.2143   -1.7682    1.7249 C   0  0  0  0  0  0  0  0  0  0  0  0
   -5.7901   -4.1342    3.5240 C   0  0  0  0  0  0  0  0  0  0  0  0
   -5.2266   -2.8432    1.5349 C   0  0  0  0  0  0  0  0  0  0  0  0
   -6.1797   -3.7748    2.1494 C   0  0  0  0  0  0  0  0  0  0  0  0
   -1.6698   -0.9677    0.6513 C   0  0  0  0  0  0  0  0  0  0  0  0
    1.1302   -1.7364    0.4987 C   0  0  0  0  0  0  0  0  0  0  0  0
   -2.7795    0.3624    0.7231 C   0  0  0  0  0  0  0  0  0  0  0  0
   -3.7945    0.2052    1.8047 C   0  0  0  0  0  0  0  0  0  0  0  0
   -2.8746    0.2293    2.9082 C   0  0  0  0  0  0  0  0  0  0  0  0
   -1.9979    1.3722    3.1863 C   0  0  0  0  0  0  0  0  0  0  0  0
   -2.6283    2.0034    4.3591 C   0  0  0  0  0  0  0  0  0  0  0  0
   -2.9088    1.1217    5.6217 C   0  0  0  0  0  0  0  0  0  0  0  0
  1 23  1  0
  2 22  2  0
  3 23  2  0
  4  5  1  0
  4  6  1  0
  4 10  1  0
  5  7  1  0
  5 13  1  6
  6  8  1  0
  6 11  1  0
  6 16  1  1
  7  9  1  0
  7 12  1  1
  8 14  1  0
  8 19  1  6
  8  1  1  0
  9 15  1  0
  9 18  1  6
 10 14  1  0
 11 12  1  0
 13 17  1  0
 15 17  1  0
 15 20  2  0
 18 21  1  0
 19 24  3  0
 20 22  1  0
 21 22  1  0
 23 25  1  0
 25 26  1  0
 26 27  1  0
 27 28  1  0
 28 29  1  0
 29 30  1  0
M  END
>  <DRUGBANK_ID>  (1) 
DB14678

>  <COMMON_NAME>  (1) 
Norethindrone enanthate

>  <CAS_NUMBER>  (1) 
3836-23-5

>  <UNII>  (1) 
HY3S2K0J0F

>  <SYNONYMS>  (1) 
Norethisterone enanthate; Norethisterone oenanthate

$$$$
