
     RDKit          3D

 29 24  0  0  0  0  0  0  0  0999 V2000
    1.0526    0.0409    0.0746 C   0  0  0  0  0  0  0  0  0  0  0  0
    1.0526    1.7967   -1.6800 C   0  0  0  0  0  0  0  0  0  0  0  0
    0.5459   -0.3305    1.4587 C   0  0  0  0  0  0  0  0  0  0  0  0
    0.5459    0.7837   -2.6936 C   0  0  0  0  0  0  0  0  0  0  0  0
   -0.9741    1.4253   -0.2959 C   0  0  0  0  0  0  0  0  0  0  0  0
    0.5459    1.4253   -0.2959 C   0  0  0  0  0  0  0  0  0  0  0  0
   -0.1848    0.4824    2.1072 O   0  0  0  0  0  0  0  0  0  0  0  0
    0.8889   -1.5857    2.0272 O   0  0  0  0  0  0  0  0  0  0  0  0
   -0.1848    1.1641   -3.6614 O   0  0  0  0  0  0  0  0  0  0  0  0
    0.8889   -0.5877   -2.5593 O   0  0  0  0  0  0  0  0  0  0  0  0
   -1.6095    2.2033    0.4827 O   0  0  0  0  0  0  0  0  0  0  0  0
   -1.6841    0.5560   -1.1657 O   0  0  0  0  0  0  0  0  0  0  0  0
    1.0192    2.3716    0.6511 O   0  0  0  0  0  0  0  0  0  0  0  0
    1.0726    0.0664   -0.0181 C   0  0  0  0  0  0  0  0  0  0  0  0
    1.0726    2.1541    1.3245 C   0  0  0  0  0  0  0  0  0  0  0  0
    0.5659   -1.3651   -0.0867 C   0  0  0  0  0  0  0  0  0  0  0  0
    0.5659    2.9292    0.1192 C   0  0  0  0  0  0  0  0  0  0  0  0
   -0.9541    0.7226    1.2559 C   0  0  0  0  0  0  0  0  0  0  0  0
    0.5659    0.7226    1.2559 C   0  0  0  0  0  0  0  0  0  0  0  0
   -0.1648   -1.8259    0.8454 O   0  0  0  0  0  0  0  0  0  0  0  0
    0.9090   -2.1874   -1.1924 O   0  0  0  0  0  0  0  0  0  0  0  0
   -0.1647    3.9558    0.2852 O   0  0  0  0  0  0  0  0  0  0  0  0
    0.9090    2.5064   -1.1923 O   0  0  0  0  0  0  0  0  0  0  0  0
   -1.5895    0.1273    2.1816 O   0  0  0  0  0  0  0  0  0  0  0  0
   -1.6641    1.3878    0.2216 O   0  0  0  0  0  0  0  0  0  0  0  0
    1.0392   -0.0015    2.3819 O   0  0  0  0  0  0  0  0  0  0  0  0
    0.9539    0.0420   -0.0782 Mn  0  0  0  0  0 15  0  0  0  0  0  0
    0.9717    0.0781    0.0556 Mn  0  0  0  0  0 15  0  0  0  0  0  0
    0.9446   -0.0563    0.0613 Mn  0  0  0  0  0 15  0  0  0  0  0  0
  3  1  1  0
  4  2  1  0
  6  1  1  0
  6  2  1  0
  6  5  1  0
  7  3  2  0
  8  3  1  0
  9  4  2  0
 10  4  1  0
 11  5  2  0
 12  5  1  0
 13  6  1  0
 16 14  1  0
 17 15  1  0
 19 14  1  0
 19 15  1  0
 19 18  1  0
 20 16  2  0
 21 16  1  0
 22 17  2  0
 23 17  1  0
 24 18  2  0
 25 18  1  0
 26 19  1  0
M  CHG  8   8  -1  10  -1  12  -1  21  -1  23  -1  25  -1  27   2  28   2
M  CHG  1  29   2
M  END
>  <DRUGBANK_ID>  (1) 
DB14495

>  <COMMON_NAME>  (1) 
Manganese citrate

>  <CAS_NUMBER>  (1) 
10060-26-1

>  <UNII>  (1) 
74NE0422XH

>  <SYNONYMS>  (1) 
Manganese citrate anhydrous; Trimanganese dicitrate

$$$$
