
     RDKit          3D

 32 38  0  0  1  0  0  0  0  0999 V2000
   -4.3451    3.8194   -0.1000 C   0  0  1  0  0  0  0  0  0  0  0  0
   -2.5792    3.4525    0.2728 C   0  0  0  0  0  0  0  0  0  0  0  0
   -2.5239    4.7182    1.0114 C   0  0  1  0  0  0  0  0  0  0  0  0
   -1.7209    5.4241    0.1303 O   0  0  0  0  0  0  0  0  0  0  0  0
   -2.8524    6.2664    0.0862 C   0  0  2  0  0  0  0  0  0  0  0  0
   -2.2791    7.7601    0.8593 C   0  0  1  0  0  0  0  0  0  0  0  0
   -1.8414    9.1681    0.3738 O   0  0  0  0  0  0  0  0  0  0  0  0
   -1.8929    9.6847   -1.0007 C   0  0  0  0  0  0  0  0  0  0  0  0
   -1.3711    8.9053   -2.0749 O   0  0  0  0  0  0  0  0  0  0  0  0
   -0.2116    7.8284   -1.8180 P   0  0  0  0  0  0  0  0  0  0  0  0
    0.2120    8.2064   -0.3262 O   0  0  0  0  0  0  0  0  0  0  0  0
   -1.0459    6.4703   -1.8656 O   0  0  0  0  0  0  0  0  0  0  0  0
    0.9801    7.8466   -2.6965 O   0  0  0  0  0  0  0  0  0  0  0  0
   -3.6869    8.0038    0.7531 C   0  0  2  0  0  0  0  0  0  0  0  0
   -3.3842    8.1379   -0.8276 O   0  0  0  0  0  0  0  0  0  0  0  0
   -4.4687    8.6670   -0.2996 C   0  0  1  0  0  0  0  0  0  0  0  0
   -5.3207    7.7733   -0.9916 C   0  0  1  0  0  0  0  0  0  0  0  0
   -4.7470    7.0818   -2.1108 O   0  0  0  0  0  0  0  0  0  0  0  0
   -4.4598    6.2540   -0.9495 C   0  0  1  0  0  0  0  0  0  0  0  0
   -5.4423    5.1985   -0.9880 C   0  0  2  0  0  0  0  0  0  0  0  0
   -7.1243    6.1133   -1.0859 C   0  0  0  0  0  0  0  0  0  0  0  0
   -5.9821    4.7203   -2.4538 C   0  0  0  0  0  0  0  0  0  0  0  0
   -6.6512    3.5548   -1.8585 C   0  0  0  0  0  0  0  0  0  0  0  0
   -5.6192    2.4981   -1.7229 C   0  0  0  0  0  0  0  0  0  0  0  0
   -4.6046    2.5663   -0.8394 C   0  0  0  0  0  0  0  0  0  0  0  0
   -4.5299    1.2733   -0.0550 C   0  0  0  0  0  0  0  0  0  0  0  0
   -5.1771    0.4568   -0.9904 O   0  0  0  0  0  0  0  0  0  0  0  0
   -6.1747    1.2956   -1.2201 C   0  0  0  0  0  0  0  0  0  0  0  0
   -7.2238    1.3976   -0.4625 O   0  0  0  0  0  0  0  0  0  0  0  0
   -4.4486    6.9073    1.6764 C   0  0  0  0  0  0  0  0  0  0  0  0
   -3.4834    6.5971    2.8590 C   0  0  0  0  0  0  0  0  0  0  0  0
   -5.6857    7.4807    2.2776 C   0  0  0  0  0  0  0  0  0  0  0  0
  1  2  1  6
  1 25  1  0
  3  2  1  6
  3  4  1  0
  5  4  1  6
  5  3  1  0
  5  6  1  0
  5 19  1  0
  6 14  1  0
  6  7  1  6
  7  8  1  0
  8  9  1  0
  9 10  1  0
 10 11  1  0
 10 12  1  0
 10 13  2  0
 14 15  1  0
 14 16  1  0
 14 30  1  6
 16 15  1  6
 17 16  1  0
 17 18  1  6
 19 18  1  6
 19 17  1  0
 19 20  1  0
 20  1  1  0
 20 22  1  0
 20 21  1  1
 22 23  1  0
 23 24  1  0
 24 25  2  0
 24 28  1  0
 25 26  1  0
 26 27  1  0
 27 28  1  0
 28 29  2  0
 30 31  1  0
 30 32  1  0
M  END
>  <DRUGBANK_ID>  (1) 
DB17260

>  <COMMON_NAME>  (1) 
Minnelide free acid

>  <CAS_NUMBER>  (1) 
1254885-39-6

>  <UNII>  (1) 
15OP6DI2OA

>  <SYNONYMS>  (1) 
Trisoxireno(4b,5:6,7:8a,9)phenanthro(1,2-c)furan-1(3h)-one, 3b,4,4a,6,6a,7a,7b,8b,9,10-decahydro-8b-methyl-6a-(1-methylethyl)-6-((phosphonooxy)methoxy)-, (3bs,4as,5ar,6r,6as,7as,7bs,8as,8bs)-

$$$$
