MFR
     RDKit          3D

 18 20  0  0  0  0  0  0  0  0999 V2000
   -2.1521   -0.7130    0.0146 C   0  0  0  0  0  0  0  0  0  0  0  0
   -2.0216    0.6693    0.0026 C   0  0  0  0  0  0  0  0  0  0  0  0
   -1.0038   -1.5107    0.0027 C   0  0  0  0  0  0  0  0  0  0  0  0
    2.2059   -2.5650   -0.0608 C   0  0  0  0  0  0  0  0  0  0  0  0
    4.2590   -4.6403    1.9282 N   0  0  0  0  0  0  0  0  0  0  0  0
    3.4734   -4.1976    0.9064 C   0  0  0  0  0  0  0  0  0  0  0  0
    3.2389   -5.0650   -0.0859 N   0  0  0  0  0  0  0  0  0  0  0  0
    2.4652   -4.6316   -1.0936 C   0  0  0  0  0  0  0  0  0  0  0  0
    1.9167   -3.3767   -1.1367 C   0  0  0  0  0  0  0  0  0  0  0  0
    2.9991   -2.9474    0.9619 N   0  0  0  0  0  0  0  0  0  0  0  0
    1.6253   -1.2317    0.0059 C   0  0  0  0  0  0  0  0  0  0  0  0
    2.3768   -0.0686    0.0414 C   0  0  0  0  0  0  0  0  0  0  0  0
    1.5107    0.9957    0.0245 N   0  0  0  0  0  0  0  0  0  0  0  0
    0.2427   -0.8449    0.0015 C   0  0  0  0  0  0  0  0  0  0  0  0
   -1.0014   -2.8798    0.0013 O   0  0  0  0  0  0  0  0  0  0  0  0
   -2.2658   -3.5275    0.0500 C   0  0  0  0  0  0  0  0  0  0  0  0
    0.2196    0.5464    0.0031 C   0  0  0  0  0  0  0  0  0  0  0  0
   -0.8577    1.3519   -0.0098 N   0  0  0  0  0  0  0  0  0  0  0  0
  1  2  2  0
  1  3  1  0
  2 18  1  0
  3 14  2  0
  3 15  1  0
  4  9  1  0
  4 10  2  0
  4 11  1  0
  5  6  1  0
  6  7  2  0
  6 10  1  0
  7  8  1  0
  8  9  2  0
 11 12  2  0
 11 14  1  0
 12 13  1  0
 13 17  1  0
 14 17  1  0
 15 16  1  0
 17 18  2  0
M  END
>  <DRUGBANK_ID>  (1) 
DB08178

>  <COMMON_NAME>  (1) 
4-(4-methoxy-1H-pyrrolo[2,3-b]pyridin-3-yl)pyrimidin-2-amine

>  <UNII>  (1) 
MP2RY8OR8X

$$$$
