
     RDKit          3D

 10  9  0  0  0  0  0  0  0  0999 V2000
    1.0767   -0.0333    0.0779 C   0  0  0  0  0  0  0  0  0  0  0  0
    0.3350    1.0916    0.8120 C   0  0  2  0  0  0  0  0  0  0  0  0
    2.4208    0.0680    0.1419 O   0  0  0  0  0  0  0  0  0  0  0  0
    0.2675    2.5264   -1.2635 C   0  0  0  0  0  0  0  0  0  0  0  0
    0.9270    1.6441   -2.0353 O   0  0  0  0  0  0  0  0  0  0  0  0
    0.6592    2.4699    0.2047 C   0  0  1  0  0  0  0  0  0  0  0  0
    0.5438   -0.9638   -0.5109 O   0  0  0  0  0  0  0  0  0  0  0  0
   -0.5347    3.2941   -1.7749 O   0  0  0  0  0  0  0  0  0  0  0  0
   -0.0856    3.5861    0.9524 C   0  0  0  0  0  0  0  0  0  0  0  0
    0.6669    1.0230    2.2602 N   0  0  0  0  0  0  0  0  0  0  0  0
  1  7  2  0
  1  3  1  0
  2  1  1  0
  2 10  1  1
  4  8  2  0
  4  5  1  0
  4  6  1  0
  6  2  1  0
  6  9  1  1
M  END
>  <DRUGBANK_ID>  (1) 
DB04538

>  <SECONDARY_ACCESSION_NUMBERS>  (1) 
EXPT00179

>  <COMMON_NAME>  (1) 
threo-3-methyl-L-aspartic acid

>  <CAS_NUMBER>  (1) 
6061-13-8

>  <UNII>  (1) 
X72YFG5KQE

>  <SYNONYMS>  (1) 
(3S)-3-methyl-L-aspartic acid; 2S,3S-3-methylaspartic acid; L-threo-3-Methylaspartate

$$$$
