
     RDKit          3D

 32 34  0  0  0  0  0  0  0  0999 V2000
    1.0634   -0.0574   -1.1881 C   0  0  0  0  0  0  0  0  0  0  0  0
    0.6492   -1.3507   -0.6499 N   0  0  0  0  0  0  0  0  0  0  0  0
   -0.7065   -1.4772   -0.6087 C   0  0  0  0  0  0  0  0  0  0  0  0
   -1.5138   -0.6019   -0.8903 O   0  0  0  0  0  0  0  0  0  0  0  0
   -1.2664   -2.7573   -0.1680 C   0  0  0  0  0  0  0  0  0  0  0  0
   -2.6331   -2.6389    0.0122 O   0  0  0  0  0  0  0  0  0  0  0  0
   -0.4271   -3.8252   -0.1484 C   0  0  0  0  0  0  0  0  0  0  0  0
    0.9349   -3.5696    0.0582 N   0  0  0  0  0  0  0  0  0  0  0  0
    1.3981   -2.3576   -0.0672 C   0  0  0  0  0  0  0  0  0  0  0  0
    2.8766   -2.0834    0.4289 C   0  0  0  0  0  0  0  0  0  0  0  0
    3.2943   -2.8256    1.7099 C   0  0  0  0  0  0  0  0  0  0  0  0
    3.7679   -2.6515   -0.7124 C   0  0  0  0  0  0  0  0  0  0  0  0
    3.1509   -0.6499    0.6802 N   0  0  0  0  0  0  0  0  0  0  0  0
    2.3517    0.3658    1.2328 C   0  0  0  0  0  0  0  0  0  0  0  0
    2.7616    1.4992    0.9318 O   0  0  0  0  0  0  0  0  0  0  0  0
    1.0032    0.1300    1.8336 C   0  0  0  0  0  0  0  0  0  0  0  0
    0.5386   -0.9877    2.3596 N   0  0  0  0  0  0  0  0  0  0  0  0
   -0.8464   -0.8693    2.4384 N   0  0  0  0  0  0  0  0  0  0  0  0
   -1.1696    0.3146    1.9594 C   0  0  0  0  0  0  0  0  0  0  0  0
   -2.5269    0.9126    1.7671 C   0  0  0  0  0  0  0  0  0  0  0  0
   -0.0475    1.0292    1.5808 O   0  0  0  0  0  0  0  0  0  0  0  0
   -0.7848   -5.3721   -0.1912 C   0  0  0  0  0  0  0  0  0  0  0  0
    0.1219   -6.2223   -0.0924 O   0  0  0  0  0  0  0  0  0  0  0  0
   -2.0452   -5.8785   -0.4319 N   0  0  0  0  0  0  0  0  0  0  0  0
   -3.2052   -5.0900   -0.7164 C   0  0  0  0  0  0  0  0  0  0  0  0
   -3.8143   -5.0621   -2.0756 C   0  0  0  0  0  0  0  0  0  0  0  0
   -4.1562   -3.8376   -2.7246 C   0  0  0  0  0  0  0  0  0  0  0  0
   -4.7071   -3.8557   -4.0001 C   0  0  0  0  0  0  0  0  0  0  0  0
   -4.9132   -5.0851   -4.6075 C   0  0  0  0  0  0  0  0  0  0  0  0
   -5.4719   -5.1322   -5.8216 F   0  0  0  0  0  0  0  0  0  0  0  0
   -4.5609   -6.2780   -3.9802 C   0  0  0  0  0  0  0  0  0  0  0  0
   -4.0112   -6.2666   -2.7135 C   0  0  0  0  0  0  0  0  0  0  0  0
  1  2  1  0
  2  3  1  0
  2  9  1  0
  3  4  2  0
  3  5  1  0
  5  6  1  0
  5  7  2  0
  7  8  1  0
  7 22  1  0
  8  9  2  0
  9 10  1  0
 10 11  1  0
 10 12  1  0
 10 13  1  0
 13 14  1  0
 14 15  2  0
 14 16  1  0
 16 17  2  0
 16 21  1  0
 17 18  1  0
 18 19  2  0
 19 20  1  0
 19 21  1  0
 22 23  2  0
 22 24  1  0
 24 25  1  0
 25 26  1  0
 26 27  2  0
 26 32  1  0
 27 28  1  0
 28 29  2  0
 29 30  1  0
 29 31  1  0
 31 32  2  0
M  END
>  <DRUGBANK_ID>  (1) 
DB06817

>  <SECONDARY_ACCESSION_NUMBERS>  (1) 
DB05355

>  <COMMON_NAME>  (1) 
Raltegravir

>  <CAS_NUMBER>  (1) 
518048-05-0

>  <UNII>  (1) 
22VKV8053U

>  <SYNONYMS>  (1) 
Raltegravir

$$$$
