CKE
     RDKit          3D

 31 35  0  0  0  0  0  0  0  0999 V2000
   -2.3946    0.0127   -0.0138 C   0  0  0  0  0  0  0  0  0  0  0  0
   -3.9046    0.0207    0.0080 C   0  0  0  0  0  0  0  0  0  0  0  0
   -4.4276    0.7115    1.2482 C   0  0  0  0  0  0  0  0  0  0  0  0
   -5.0771   -0.0036    2.2564 C   0  0  0  0  0  0  0  0  0  0  0  0
   -5.4000    0.6282    3.4624 C   0  0  0  0  0  0  0  0  0  0  0  0
   -5.0825    1.9708    3.6822 C   0  0  0  0  0  0  0  0  0  0  0  0
   -6.2130    3.7420    4.9772 C   0  0  0  0  0  0  0  0  0  0  0  0
   -5.5495    4.8422    5.8306 C   0  0  0  0  0  0  0  0  0  0  0  0
   -4.7734    2.0600    6.1295 C   0  0  0  0  0  0  0  0  0  0  0  0
   -1.6733   -3.3881    1.1642 C   0  0  0  0  0  0  0  0  0  0  0  0
   -1.9094   -5.4113   -0.3513 C   0  0  0  0  0  0  0  0  0  0  0  0
   -4.5679    5.3848    7.9766 C   0  0  0  0  0  0  0  0  0  0  0  0
    2.1244    0.6244    0.0063 N   0  0  0  0  0  0  0  0  0  0  0  0
    0.9923    1.3428   -0.0087 C   0  0  0  0  0  0  0  0  0  0  0  0
   -0.2333    0.6938   -0.0169 C   0  0  0  0  0  0  0  0  0  0  0  0
   -0.2372   -0.6936    0.0196 C   0  0  0  0  0  0  0  0  0  0  0  0
    0.8688   -1.4608    0.0140 N   0  0  0  0  0  0  0  0  0  0  0  0
    2.0199   -0.7288    0.0086 C   0  0  0  0  0  0  0  0  0  0  0  0
   -1.5631    1.1190   -0.0799 C   0  0  0  0  0  0  0  0  0  0  0  0
   -1.5673   -1.1073    0.0439 N   0  0  0  0  0  0  0  0  0  0  0  0
    3.5576   -2.3178    1.2080 N   0  0  0  0  0  0  0  0  0  0  0  0
   -4.4786    2.6884    2.6545 C   0  0  0  0  0  0  0  0  0  0  0  0
   -4.1848    2.0770    1.4416 C   0  0  0  0  0  0  0  0  0  0  0  0
   -5.3305    2.5816    4.8849 N   0  0  0  0  0  0  0  0  0  0  0  0
   -5.1387    4.3248    7.1573 N   0  0  0  0  0  0  0  0  0  0  0  0
   -4.1654    3.2251    6.9492 C   0  0  0  0  0  0  0  0  0  0  0  0
   -2.0384   -2.4910   -0.0273 C   0  0  0  0  0  0  0  0  0  0  0  0
   -1.6865   -3.1253   -1.3765 C   0  0  0  0  0  0  0  0  0  0  0  0
   -2.3025   -4.5123   -1.5186 C   0  0  0  0  0  0  0  0  0  0  0  0
   -2.2829   -4.7873    0.9924 C   0  0  0  0  0  0  0  0  0  0  0  0
    3.3518   -1.4678    0.0248 C   0  0  0  0  0  0  0  0  0  0  0  0
  1 19  2  0
  2  3  1  0
  2  1  1  0
  3 23  2  0
  4  5  2  0
  4  3  1  0
  5  6  1  0
  6 24  1  0
  6 22  2  0
  8  7  1  0
  9 24  1  0
 11 30  1  0
 12 25  1  0
 14 13  2  0
 15 14  1  0
 16 17  1  0
 16 15  2  0
 17 18  2  0
 18 31  1  0
 18 13  1  0
 19 15  1  0
 20  1  1  0
 20 16  1  0
 23 22  1  0
 24  7  1  0
 25  8  1  0
 26  9  1  0
 26 25  1  0
 27 10  1  0
 27 20  1  0
 28 27  1  0
 29 11  1  0
 29 28  1  0
 30 10  1  0
 31 21  1  0
M  END
>  <DRUGBANK_ID>  (1) 
DB07563

>  <COMMON_NAME>  (1) 
1-{7-cyclohexyl-6-[4-(4-methylpiperazin-1-yl)benzyl]-7H-pyrrolo[2,3-d]pyrimidin-2-yl}methanamine

$$$$
