
     RDKit          3D

 39 45  0  0  0  0  0  0  0  0999 V2000
    2.4260    1.4925   -0.0381 C   0  0  0  0  0  0  0  0  0  0  0  0
    1.5337    0.3590   -0.0194 N   0  0  0  0  0  0  0  0  0  0  0  0
    1.9332   -0.9457   -0.0799 C   0  0  0  0  0  0  0  0  0  0  0  0
    0.7801   -1.6807   -0.1879 C   0  0  0  0  0  0  0  0  0  0  0  0
   -0.3379   -0.8588   -0.0753 C   0  0  0  0  0  0  0  0  0  0  0  0
   -1.7160   -1.1264   -0.0342 C   0  0  0  0  0  0  0  0  0  0  0  0
   -2.5883   -0.0528   -0.0105 C   0  0  0  0  0  0  0  0  0  0  0  0
   -2.0913    1.2484    0.0136 C   0  0  0  0  0  0  0  0  0  0  0  0
   -0.7165    1.5214    0.0348 C   0  0  0  0  0  0  0  0  0  0  0  0
    0.1540    0.4363   -0.0077 C   0  0  0  0  0  0  0  0  0  0  0  0
    0.6704   -3.0607   -0.2449 C   0  0  0  0  0  0  0  0  0  0  0  0
    1.0019   -3.8433    0.7859 C   0  0  0  0  0  0  0  0  0  0  0  0
    0.8438   -5.2629   -0.0855 C   0  0  0  0  0  0  0  0  0  0  0  0
    1.1467   -6.4440   -0.0236 O   0  0  0  0  0  0  0  0  0  0  0  0
    0.2640   -5.0682   -1.2497 N   0  0  0  0  0  0  0  0  0  0  0  0
    0.0700   -3.7938   -1.3939 C   0  0  0  0  0  0  0  0  0  0  0  0
   -0.5687   -3.3231   -2.3643 O   0  0  0  0  0  0  0  0  0  0  0  0
    1.7386   -3.3293    2.1390 C   0  0  0  0  0  0  0  0  0  0  0  0
    3.0992   -3.0203    2.4722 C   0  0  0  0  0  0  0  0  0  0  0  0
    3.1473   -3.4764    3.8093 N   0  0  0  0  0  0  0  0  0  0  0  0
    2.1853   -2.7144    4.3664 C   0  0  0  0  0  0  0  0  0  0  0  0
    2.0785   -2.0367    5.5785 C   0  0  0  0  0  0  0  0  0  0  0  0
    0.8315   -1.4771    5.8009 C   0  0  0  0  0  0  0  0  0  0  0  0
   -0.2091   -1.6145    4.8696 C   0  0  0  0  0  0  0  0  0  0  0  0
   -0.0525   -2.2816    3.6567 C   0  0  0  0  0  0  0  0  0  0  0  0
    1.1930   -2.7841    3.3562 C   0  0  0  0  0  0  0  0  0  0  0  0
    4.0434   -4.4586    4.4208 C   0  0  0  0  0  0  0  0  0  0  0  0
    3.6314   -6.3287    4.4457 C   0  0  0  0  0  0  0  0  0  0  0  0
    4.8617   -7.3107    4.8566 C   0  0  0  0  0  0  0  0  0  0  0  0
    5.7577   -6.2309    5.0470 N   0  0  0  0  0  0  0  0  0  0  0  0
    4.8253   -5.5021    6.1803 C   0  0  0  0  0  0  0  0  0  0  0  0
    4.7093   -4.1011    5.8130 C   0  0  0  0  0  0  0  0  0  0  0  0
    6.0269   -5.9003    3.3825 C   0  0  0  0  0  0  0  0  0  0  0  0
    4.9704   -6.2117    2.2256 C   0  0  0  0  0  0  0  0  0  0  0  0
    4.2410   -7.3956    1.9605 C   0  0  0  0  0  0  0  0  0  0  0  0
    2.8553   -7.3157    1.7352 C   0  0  0  0  0  0  0  0  0  0  0  0
    2.3564   -6.0794    1.8800 C   0  0  0  0  0  0  0  0  0  0  0  0
    3.2635   -5.2424    1.2543 C   0  0  0  0  0  0  0  0  0  0  0  0
    4.5516   -5.1678    1.5672 N   0  0  0  0  0  0  0  0  0  0  0  0
  1  2  1  0
  2  3  1  0
  2 10  1  0
  3  4  2  0
  4  5  1  0
  4 11  1  0
  5  6  1  0
  5 10  2  0
  6  7  2  0
  7  8  1  0
  8  9  2  0
  9 10  1  0
 11 12  2  0
 11 16  1  0
 12 13  1  0
 12 18  1  0
 13 14  2  0
 13 15  1  0
 15 16  1  0
 16 17  2  0
 18 19  2  0
 18 26  1  0
 19 20  1  0
 20 21  1  0
 20 27  1  0
 21 22  1  0
 21 26  2  0
 22 23  2  0
 23 24  1  0
 24 25  2  0
 25 26  1  0
 27 28  1  0
 27 32  1  0
 28 29  1  0
 29 30  1  0
 30 31  1  0
 30 33  1  0
 31 32  1  0
 33 34  1  0
 34 35  2  0
 34 39  1  0
 35 36  1  0
 36 37  2  0
 37 38  1  0
 38 39  2  0
M  END
>  <DRUGBANK_ID>  (1) 
DB06486

>  <COMMON_NAME>  (1) 
Enzastaurin

>  <CAS_NUMBER>  (1) 
170364-57-5

>  <UNII>  (1) 
UC96G28EQF

>  <SYNONYMS>  (1) 
Enzastaurin

$$$$
