
     RDKit          3D

 32 35  0  0  0  0  0  0  0  0999 V2000
    2.4759   -0.6771    0.4344 C   0  0  2  0  0  0  0  0  0  0  0  0
    1.0533   -1.3551    0.5852 C   0  0  2  0  0  0  0  0  0  0  0  0
    2.5714    0.5681   -0.4897 C   0  0  0  0  0  0  0  0  0  0  0  0
    3.5910   -1.5255   -0.2688 C   0  0  0  0  0  0  0  0  0  0  0  0
   -0.1178   -0.9366   -0.2630 C   0  0  2  0  0  0  0  0  0  0  0  0
    1.4243    1.4935   -0.3743 C   0  0  1  0  0  0  0  0  0  0  0  0
    0.0148    0.6513   -0.4972 C   0  0  2  0  0  0  0  0  0  0  0  0
   -1.5219   -1.4788   -0.6515 C   0  0  0  0  0  0  0  0  0  0  0  0
    1.8792    2.4584    0.5842 O   0  0  0  0  0  0  0  0  0  0  0  0
   -1.2433    1.5636   -0.1823 C   0  0  2  0  0  0  0  0  0  0  0  0
    0.0148    0.4817   -1.9175 F   0  0  0  0  0  0  0  0  0  0  0  0
   -2.6242   -0.6448    0.0864 C   0  0  0  0  0  0  0  0  0  0  0  0
   -2.5639    0.8248   -0.2482 C   0  0  0  0  0  0  0  0  0  0  0  0
   -1.2090    2.6441   -1.2371 C   0  0  0  0  0  0  0  0  0  0  0  0
   -1.2958    2.4868    1.0997 C   0  0  0  0  0  0  0  0  0  0  0  0
   -3.6663    1.5251   -0.5776 C   0  0  0  0  0  0  0  0  0  0  0  0
   -2.2508    3.4556   -1.4320 C   0  0  0  0  0  0  0  0  0  0  0  0
   -3.5691    2.9571   -0.9925 C   0  0  0  0  0  0  0  0  0  0  0  0
   -4.5602    3.6812   -1.0513 O   0  0  0  0  0  0  0  0  0  0  0  0
    0.4171   -0.7677    1.9819 C   0  0  0  0  0  0  0  0  0  0  0  0
    1.4289    0.0403    2.6786 C   0  0  1  0  0  0  0  0  0  0  0  0
    2.7199   -0.5329    2.0178 C   0  0  2  0  0  0  0  0  0  0  0  0
    4.0658    0.0651    2.4093 C   0  0  0  0  0  0  0  0  0  0  0  0
    4.0495    1.3105    3.2444 C   0  0  0  0  0  0  0  0  0  0  0  0
    5.1272   -0.4598    2.0684 O   0  0  0  0  0  0  0  0  0  0  0  0
    0.9751    1.4802    2.6912 C   0  0  0  0  0  0  0  0  0  0  0  0
    5.0487    1.1447    4.6812 Cl  0  0  0  0  0  0  0  0  0  0  0  0
    2.8158   -1.9654    2.4635 O   0  0  0  0  0  0  0  0  0  0  0  0
    2.6401   -2.4452    3.7089 C   0  0  0  0  0  0  0  0  0  0  0  0
    2.5817   -1.4747    4.8476 C   0  0  0  0  0  0  0  0  0  0  0  0
    1.2302   -1.4842    5.5556 C   0  0  0  0  0  0  0  0  0  0  0  0
    2.5124   -3.6736    3.9046 O   0  0  0  0  0  0  0  0  0  0  0  0
  1  3  1  0
  1  4  1  6
  1  2  1  0
  2  5  1  0
  3  6  1  0
  5  7  1  0
  5  8  1  1
  6  9  1  1
  6  7  1  0
  7 10  1  0
  7 11  1  6
  8 12  1  0
 10 13  1  0
 10 14  1  0
 10 15  1  1
 12 13  1  0
 13 16  2  0
 14 17  2  0
 16 18  1  0
 17 18  1  0
 18 19  2  0
  2 20  1  1
 21 20  1  0
 21 26  1  6
 22  1  1  0
 22 21  1  0
 22 28  1  1
 22 23  1  0
 23 24  1  0
 23 25  2  0
 24 27  1  0
 28 29  1  0
 29 30  1  0
 29 32  2  0
 30 31  1  0
M  END
>  <DRUGBANK_ID>  (1) 
DB01013

>  <SECONDARY_ACCESSION_NUMBERS>  (1) 
APRD00876

>  <COMMON_NAME>  (1) 
Clobetasol propionate

>  <CAS_NUMBER>  (1) 
25122-46-7

>  <UNII>  (1) 
779619577M

>  <SYNONYMS>  (1) 
21-chloro-9-fluoro-11β,17-dihydroxy-16β-methylpregna-1,4-diene-3,20-dione 17-propionate; clobetasol 17-propanoate; clobetasol 17-propionate; Clobetasol propionate; Clobetasol propionate E

$$$$
