
     RDKit          3D

 24 25  0  0  1  0  0  0  0  0999 V2000
  -12.1194   -0.1048    3.9886 C   0  0  0  0  0  0  0  0  0  0  0  0
  -12.8216    1.2980    2.1548 C   0  0  0  0  0  0  0  0  0  0  0  0
  -13.2449   -0.9181    3.8119 C   0  0  0  0  0  0  0  0  0  0  0  0
  -13.9458    0.4848    1.9758 C   0  0  0  0  0  0  0  0  0  0  0  0
  -10.6970    1.8460    3.3309 C   0  0  0  0  0  0  0  0  0  0  0  0
   -5.7708   -1.3650    1.9979 C   0  0  0  0  0  0  0  0  0  0  0  0
   -5.8165    1.5567    3.2027 C   0  0  0  0  0  0  0  0  0  0  0  0
  -11.8943    1.0073    3.1607 C   0  0  0  0  0  0  0  0  0  0  0  0
  -14.1536   -0.6109    2.8062 C   0  0  0  0  0  0  0  0  0  0  0  0
   -7.1740   -1.3604    2.5821 C   0  0  1  0  0  0  0  0  0  0  0  0
   -9.4585    1.3473    3.2216 C   0  0  0  0  0  0  0  0  0  0  0  0
   -5.6765   -1.4719    0.5143 C   0  0  0  0  0  0  0  0  0  0  0  0
   -5.0431    0.7613    4.2490 C   0  0  0  0  0  0  0  0  0  0  0  0
   -7.8371    0.0124    2.8675 C   0  0  0  0  0  0  0  0  0  0  0  0
   -8.2020    2.1180    3.4025 C   0  0  0  0  0  0  0  0  0  0  0  0
   -8.0972   -2.1634    1.7473 N   0  0  0  0  0  0  0  0  0  0  0  0
   -9.1404    0.0522    2.9044 N   0  0  0  0  0  0  0  0  0  0  0  0
   -7.2270    1.1763    3.1933 N   0  0  0  0  0  0  0  0  0  0  0  0
  -15.2736   -1.3590    2.5911 O   0  0  0  0  0  0  0  0  0  0  0  0
   -5.4583   -0.5310   -0.2342 O   0  0  0  0  0  0  0  0  0  0  0  0
   -5.8975   -2.7079    0.0481 O   0  0  0  0  0  0  0  0  0  0  0  0
   -4.0682    0.0530    4.0463 O   0  0  0  0  0  0  0  0  0  0  0  0
   -5.5394    0.8638    5.4933 O   0  0  0  0  0  0  0  0  0  0  0  0
   -8.0871    3.3101    3.6413 O   0  0  0  0  0  0  0  0  0  0  0  0
  3  1  2  0
  4  2  1  0
  8  1  1  0
  8  2  2  0
  8  5  1  0
  9  3  1  0
  9  4  2  0
 10 16  1  6
 10 14  1  0
 10  6  1  0
 11  5  2  0
 12  6  1  0
 13  7  1  0
 15 11  1  0
 17 11  1  0
 17 14  2  0
 18  7  1  0
 18 14  1  0
 18 15  1  0
 19  9  1  0
 20 12  2  0
 21 12  1  0
 22 13  2  0
 23 13  1  0
 24 15  2  0
M  END
>  <DRUGBANK_ID>  (1) 
DB04686

>  <COMMON_NAME>  (1) 
CHROMOPHORE (ASP-TYR-GLY)

$$$$
