
     RDKit          3D

 34 35  0  0  1  0  0  0  0  0999 V2000
   -2.9069    4.8493    0.2676 C   0  0  0  0  0  0  0  0  0  0  0  0
   -2.0267    4.3415   -0.8545 C   0  0  0  0  0  0  0  0  0  0  0  0
   -1.1131    5.5442   -1.4551 C   0  0  0  0  0  0  0  0  0  0  0  0
   -1.4541    2.9961   -0.2915 C   0  0  0  0  0  0  0  0  0  0  0  0
   -1.7991    1.4923   -0.3253 C   0  0  2  0  0  0  0  0  0  0  0  0
   -1.0041    0.7099   -1.3167 N   0  0  0  0  0  0  0  0  0  0  0  0
    0.1740    1.4492   -2.2705 S   0  0  0  0  0  0  0  0  0  0  0  0
    0.6631    0.3599   -3.1371 O   0  0  0  0  0  0  0  0  0  0  0  0
   -0.4345    2.5609   -2.9352 O   0  0  0  0  0  0  0  0  0  0  0  0
    1.5890    1.9772   -1.1122 C   0  0  0  0  0  0  0  0  0  0  0  0
    1.3181    2.8522    0.1563 C   0  0  0  0  0  0  0  0  0  0  0  0
    1.1681    2.3809    1.4693 C   0  0  0  0  0  0  0  0  0  0  0  0
    0.6121    3.1879    2.5165 C   0  0  0  0  0  0  0  0  0  0  0  0
    0.1696    4.4807    2.2934 C   0  0  0  0  0  0  0  0  0  0  0  0
    0.4216    5.0085    1.0508 C   0  0  0  0  0  0  0  0  0  0  0  0
    1.0313    4.2198    0.0119 C   0  0  0  0  0  0  0  0  0  0  0  0
   -3.2840    1.3879   -0.2557 C   0  0  0  0  0  0  0  0  0  0  0  0
   -3.8340    1.2271    0.8322 O   0  0  0  0  0  0  0  0  0  0  0  0
   -3.9168    1.7699   -1.4091 N   0  0  0  0  0  0  0  0  0  0  0  0
   -3.4850    1.5110   -2.7660 C   0  0  0  0  0  0  0  0  0  0  0  0
   -3.7767    2.7609   -3.5326 C   0  0  0  0  0  0  0  0  0  0  0  0
   -5.0412    3.1734   -2.8574 C   0  0  0  0  0  0  0  0  0  0  0  0
   -5.0777    2.6334   -1.4061 C   0  0  1  0  0  0  0  0  0  0  0  0
   -6.3328    1.8530   -0.9288 C   0  0  0  0  0  0  0  0  0  0  0  0
   -6.3523    1.0200   -0.0262 O   0  0  0  0  0  0  0  0  0  0  0  0
   -7.5354    2.1590   -1.4579 N   0  0  0  0  0  0  0  0  0  0  0  0
   -7.7888    3.1135   -2.4595 C   0  0  0  0  0  0  0  0  0  0  0  0
   -8.1023    2.4403   -3.8104 C   0  0  0  0  0  0  0  0  0  0  0  0
   -9.5745    2.0987   -3.8153 C   0  0  0  0  0  0  0  0  0  0  0  0
  -10.4391    3.3507   -3.5630 C   0  0  0  0  0  0  0  0  0  0  0  0
  -10.3544    4.2958   -4.6847 N   0  0  0  0  0  0  0  0  0  0  0  0
   -9.4074    5.1115   -4.9433 C   0  0  0  0  0  0  0  0  0  0  0  0
   -8.2910    5.4040   -4.2498 N   0  0  0  0  0  0  0  0  0  0  0  0
   -9.3445    5.8379   -6.0702 N   0  0  0  0  0  0  0  0  0  0  0  0
  1  2  1  0
  2  3  1  0
  2  4  1  0
  5 17  1  0
  5  6  1  0
  5  4  1  6
  6  7  1  0
  7  8  2  0
  7  9  2  0
  7 10  1  0
 10 11  1  0
 11 12  2  0
 11 16  1  0
 12 13  1  0
 13 14  2  0
 14 15  1  0
 15 16  2  0
 17 18  2  0
 17 19  1  0
 19 20  1  0
 19 23  1  0
 20 21  1  0
 21 22  1  0
 22 23  1  0
 23 24  1  6
 24 25  2  0
 24 26  1  0
 26 27  1  0
 27 28  1  0
 28 29  1  0
 29 30  1  0
 30 31  1  0
 31 32  2  3
 32 33  1  0
 32 34  1  0
M  END
>  <DRUGBANK_ID>  (1) 
DB04772

>  <COMMON_NAME>  (1) 
1-GUANIDINO-4-(N-PHENYLMETHANESULFONYL-L-LEUCYL-L-PROLYLAMINO)BUTANE

$$$$
