
     RDKit          3D

 34 37  0  0  0  0  0  0  0  0999 V2000
    0.9565   -0.2008   -0.2822 C   0  0  0  0  0  0  0  0  0  0  0  0
    0.4349    1.0848   -0.7331 N   0  0  0  0  0  0  0  0  0  0  0  0
   -1.0257    1.0698   -0.7735 C   0  0  0  0  0  0  0  0  0  0  0  0
    0.9389    2.2436    0.0331 C   0  0  0  0  0  0  0  0  0  0  0  0
    0.4483    2.3984    1.4910 C   0  0  0  0  0  0  0  0  0  0  0  0
    0.8659    1.2693    2.3509 N   0  0  0  0  0  0  0  0  0  0  0  0
    0.1783    1.1826    3.8801 S   0  0  0  0  0  0  0  0  0  0  0  0
   -1.2236    1.3894    3.7189 O   0  0  0  0  0  0  0  0  0  0  0  0
    0.6546   -0.0841    4.4505 O   0  0  0  0  0  0  0  0  0  0  0  0
    0.9483    2.5891    4.6738 C   0  0  0  0  0  0  0  0  0  0  0  0
    2.4603    2.5812    4.6165 C   0  0  0  0  0  0  0  0  0  0  0  0
    3.1457    3.8118    4.6623 C   0  0  0  0  0  0  0  0  0  0  0  0
    4.5395    3.8568    4.8003 C   0  0  0  0  0  0  0  0  0  0  0  0
    5.2210    5.0903    4.8046 N   0  0  0  0  0  0  0  0  0  0  0  0
    6.5998    5.2001    4.9814 C   0  0  0  0  0  0  0  0  0  0  0  0
    7.0918    5.7724    6.0851 N   0  0  0  0  0  0  0  0  0  0  0  0
    8.4318    5.7009    6.2379 C   0  0  0  0  0  0  0  0  0  0  0  0
    8.9006    6.3224    7.3733 O   0  0  0  0  0  0  0  0  0  0  0  0
   10.2542    6.2701    7.5914 C   0  0  0  0  0  0  0  0  0  0  0  0
   11.1944    7.0496    6.8536 C   0  0  0  0  0  0  0  0  0  0  0  0
   12.4690    7.0270    7.4476 C   0  0  0  0  0  0  0  0  0  0  0  0
   12.8513    5.7667    7.8994 C   0  0  0  0  0  0  0  0  0  0  0  0
   14.2734    5.8470    7.7263 N   0  0  0  0  0  0  0  0  0  0  0  0
   14.5091    6.8257    8.7020 C   0  0  0  0  0  0  0  0  0  0  0  0
   14.4591    5.9494   10.0793 C   0  0  0  0  0  0  0  0  0  0  0  0
   13.7293    7.6884    7.7188 C   0  0  0  0  0  0  0  0  0  0  0  0
   11.9725    5.3431    8.9036 C   0  0  0  0  0  0  0  0  0  0  0  0
   10.6342    5.5218    8.6878 C   0  0  0  0  0  0  0  0  0  0  0  0
    9.2740    5.0970    5.3279 C   0  0  0  0  0  0  0  0  0  0  0  0
    8.6813    4.6128    4.2077 C   0  0  0  0  0  0  0  0  0  0  0  0
    7.3634    4.6471    4.0227 N   0  0  0  0  0  0  0  0  0  0  0  0
    5.2403    2.6406    4.8665 C   0  0  0  0  0  0  0  0  0  0  0  0
    4.5888    1.4237    4.8296 C   0  0  0  0  0  0  0  0  0  0  0  0
    3.2180    1.3998    4.6628 C   0  0  0  0  0  0  0  0  0  0  0  0
  1  2  1  0
  2  3  1  0
  2  4  1  0
  4  5  1  0
  5  6  1  0
  6  7  1  0
  7  8  2  0
  7  9  2  0
  7 10  1  0
 10 11  1  0
 11 12  2  0
 11 34  1  0
 12 13  1  0
 13 14  1  0
 13 32  2  0
 14 15  1  0
 15 16  2  0
 15 31  1  0
 16 17  1  0
 17 18  1  0
 17 29  2  0
 18 19  1  0
 19 20  2  0
 19 28  1  0
 20 21  1  0
 21 22  2  0
 21 26  1  0
 22 23  1  0
 22 27  1  0
 23 24  1  0
 24 25  1  0
 24 26  2  0
 27 28  2  0
 29 30  1  0
 30 31  2  0
 32 33  1  0
 33 34  2  0
M  END
>  <DRUGBANK_ID>  (1) 
DB15106

>  <COMMON_NAME>  (1) 
Surufatinib

>  <CAS_NUMBER>  (1) 
1308672-74-3

>  <UNII>  (1) 
B2K5L1L8S9

>  <SYNONYMS>  (1) 
SULFATINIB; Surufatinib

$$$$
