1123
     RDKit          3D

 16 18  0  0  0  0  0  0  0  0999 V2000
    0.0111   -1.3937   -0.0003 N   0  0  0  0  0  0  0  0  0  0  0  0
   -4.8066   -1.4102    0.0286 N   0  0  0  0  0  0  0  0  0  0  0  0
    4.8375   -1.3590    0.0056 N   0  0  0  0  0  0  0  0  0  0  0  0
   -1.2024    0.6919   -0.0020 C   0  0  0  0  0  0  0  0  0  0  0  0
    1.2055    0.6986   -0.0008 C   0  0  0  0  0  0  0  0  0  0  0  0
   -1.1597   -0.7155   -0.0015 C   0  0  0  0  0  0  0  0  0  0  0  0
    1.1778   -0.7094   -0.0001 C   0  0  0  0  0  0  0  0  0  0  0  0
   -0.0008    1.3899   -0.0017 C   0  0  0  0  0  0  0  0  0  0  0  0
   -2.4197    1.3811   -0.0012 C   0  0  0  0  0  0  0  0  0  0  0  0
    2.4146    1.3987   -0.0005 C   0  0  0  0  0  0  0  0  0  0  0  0
   -2.3801   -1.3887   -0.0019 C   0  0  0  0  0  0  0  0  0  0  0  0
    2.4065   -1.3720    0.0005 C   0  0  0  0  0  0  0  0  0  0  0  0
   -3.6110   -0.7157   -0.0084 C   0  0  0  0  0  0  0  0  0  0  0  0
    3.6299   -0.6853   -0.0013 C   0  0  0  0  0  0  0  0  0  0  0  0
   -3.6173    0.6769    0.0008 C   0  0  0  0  0  0  0  0  0  0  0  0
    3.6190    0.7072   -0.0002 C   0  0  0  0  0  0  0  0  0  0  0  0
  1  6  2  0
  1  7  1  0
  2 13  1  0
  3 14  1  0
  4  6  1  0
  4  8  2  0
  4  9  1  0
  5  7  2  0
  5  8  1  0
  5 10  1  0
  6 11  1  0
  7 12  1  0
  9 15  2  0
 10 16  2  0
 11 13  2  0
 12 14  2  0
 13 15  1  0
 14 16  1  0
M  END
>  <DRUGBANK_ID>  (1) 
DB01123

>  <SECONDARY_ACCESSION_NUMBERS>  (1) 
APRD00535

>  <COMMON_NAME>  (1) 
Proflavine

>  <CAS_NUMBER>  (1) 
92-62-6

>  <UNII>  (1) 
CY3RNB3K4T

>  <SYNONYMS>  (1) 
2,8-Diaminoacridine; 3,6-acridinediamine; 3,6-diaminoacridine; Diaminoacridine; Proflavin; Proflavina; Proflavine; Proflavinum

$$$$
