
     RDKit          3D

 34 38  0  0  0  0  0  0  0  0999 V2000
    0.9513   -0.1320   -0.2630 O   0  0  0  0  0  0  0  0  0  0  0  0
    5.9329    5.6201   -4.5488 O   0  0  0  0  0  0  0  0  0  0  0  0
    9.3976   -5.1809   -2.4925 O   0  0  0  0  0  0  0  0  0  0  0  0
    1.7487    2.5388    1.7746 N   0  0  0  0  0  0  0  0  0  0  0  0
    7.0598    0.7461   -2.1231 N   0  0  0  0  0  0  0  0  0  0  0  0
    2.7100    1.4701    1.5765 C   0  0  0  0  0  0  0  0  0  0  0  0
    2.1236    3.7462    1.0042 C   0  0  0  0  0  0  0  0  0  0  0  0
    4.1853    1.7365    1.5866 C   0  0  0  0  0  0  0  0  0  0  0  0
    3.5993    4.1414    1.1767 C   0  0  0  0  0  0  0  0  0  0  0  0
    4.4801    2.9891    0.7933 C   0  0  0  0  0  0  0  0  0  0  0  0
    0.4398    1.9669    1.3081 C   0  0  0  0  0  0  0  0  0  0  0  0
    0.3007    1.1803   -0.0926 C   0  0  0  0  0  0  0  0  0  0  0  0
    7.6077    0.0677   -3.1949 C   0  0  0  0  0  0  0  0  0  0  0  0
    6.8437    2.0890   -2.4969 C   0  0  0  0  0  0  0  0  0  0  0  0
    7.7352    0.9718   -4.2398 C   0  0  0  0  0  0  0  0  0  0  0  0
    7.1412    2.2040   -3.8680 C   0  0  0  0  0  0  0  0  0  0  0  0
    6.5919    0.0321   -0.8915 C   0  0  0  0  0  0  0  0  0  0  0  0
    5.1006   -0.3223   -0.9861 C   0  0  0  0  0  0  0  0  0  0  0  0
    8.0396   -1.3243   -3.1198 C   0  0  0  0  0  0  0  0  0  0  0  0
    6.3466    3.2200   -1.8484 C   0  0  0  0  0  0  0  0  0  0  0  0
    6.8819    3.4358   -4.5213 C   0  0  0  0  0  0  0  0  0  0  0  0
    8.3708    0.7203   -5.5499 C   0  0  0  0  0  0  0  0  0  0  0  0
    2.2115   -0.2835   -0.8318 C   0  0  0  0  0  0  0  0  0  0  0  0
    4.4118   -1.4247   -0.4796 C   0  0  0  0  0  0  0  0  0  0  0  0
    4.2805    0.6894   -1.4752 C   0  0  0  0  0  0  0  0  0  0  0  0
    6.2088    4.4662   -3.8776 C   0  0  0  0  0  0  0  0  0  0  0  0
    5.8802    4.3435   -2.5366 C   0  0  0  0  0  0  0  0  0  0  0  0
    2.9751   -1.4090   -0.4342 C   0  0  0  0  0  0  0  0  0  0  0  0
    2.8899    0.7341   -1.4646 C   0  0  0  0  0  0  0  0  0  0  0  0
    7.1345   -2.3710   -2.8934 C   0  0  0  0  0  0  0  0  0  0  0  0
    9.4045   -1.6016   -3.2177 C   0  0  0  0  0  0  0  0  0  0  0  0
    7.6083   -3.6562   -2.6410 C   0  0  0  0  0  0  0  0  0  0  0  0
    9.8660   -2.9064   -3.0903 C   0  0  0  0  0  0  0  0  0  0  0  0
    8.9695   -3.9129   -2.7457 C   0  0  0  0  0  0  0  0  0  0  0  0
  1 12  1  0
  1 23  1  0
  2 26  1  0
  3 34  1  0
  4  6  1  0
  4  7  1  0
  4 11  1  0
  5 13  1  0
  5 14  1  0
  5 17  1  0
  6  8  1  0
  7  9  1  0
  8 10  1  0
  9 10  1  0
 11 12  1  0
 13 15  2  0
 13 19  1  0
 14 16  2  0
 14 20  1  0
 15 16  1  0
 15 22  1  0
 16 21  1  0
 17 18  1  0
 18 24  2  0
 18 25  1  0
 19 30  2  0
 19 31  1  0
 20 27  2  0
 21 26  2  0
 23 28  2  0
 23 29  1  0
 24 28  1  0
 25 29  2  0
 26 27  1  0
 30 32  1  0
 31 33  2  0
 32 34  2  0
 33 34  1  0
M  END
>  <DRUGBANK_ID>  (1) 
DB05414

>  <COMMON_NAME>  (1) 
Pipendoxifene

>  <CAS_NUMBER>  (1) 
198480-55-6

>  <UNII>  (1) 
TPC5Q8496G

>  <SYNONYMS>  (1) 
Pipendoxifene

$$$$
