
     RDKit          3D

 30 32  0  0  1  0  0  0  0  0999 V2000
    0.9399   -6.5203    3.9581 C   0  0  0  0  0  0  0  0  0  0  0  0
    2.2661   -6.5757    3.2187 C   0  0  0  0  0  0  0  0  0  0  0  0
    3.2734   -5.7051    3.9353 C   0  0  0  0  0  0  0  0  0  0  0  0
    3.4398   -6.2057    5.3654 C   0  0  0  0  0  0  0  0  0  0  0  0
    4.1638   -7.5434    5.4838 C   0  0  0  0  0  0  0  0  0  0  0  0
    5.5455   -7.5895    4.8052 C   0  0  0  0  0  0  0  0  0  0  0  0
    6.6572   -6.7060    5.4600 C   0  0  0  0  0  0  0  0  0  0  0  0
    6.9179   -7.1922    6.8926 C   0  0  0  0  0  0  0  0  0  0  0  0
    7.9610   -6.8814    4.6453 C   0  0  0  0  0  0  0  0  0  0  0  0
    6.3100   -5.2206    5.4770 C   0  0  0  0  0  0  0  0  0  0  0  0
    5.7511   -4.5762    6.5863 C   0  0  0  0  0  0  0  0  0  0  0  0
    5.1840   -3.2960    6.5036 C   0  0  0  0  0  0  0  0  0  0  0  0
    4.3342   -2.8383    7.4966 O   0  0  0  0  0  0  0  0  0  0  0  0
    4.0127   -3.7105    8.5860 C   0  0  0  0  0  0  0  0  0  0  0  0
    5.3661   -2.4902    5.3372 C   0  0  0  0  0  0  0  0  0  0  0  0
    4.8078   -1.0326    5.4434 C   0  0  1  0  0  0  0  0  0  0  0  0
    5.2772   -0.2491    6.6619 C   0  0  0  0  0  0  0  0  0  0  0  0
    5.8764    0.9844    6.5584 C   0  0  0  0  0  0  0  0  0  0  0  0
    6.4885    1.6884    7.6967 C   0  0  0  0  0  0  0  0  0  0  0  0
    7.9017    1.6894    7.5299 O   0  0  0  0  0  0  0  0  0  0  0  0
    6.0501    1.5713    5.1866 C   0  0  1  0  0  0  0  0  0  0  0  0
    6.7525    0.5086    4.3652 C   0  0  0  0  0  0  0  0  0  0  0  0
    5.1815   -0.1257    4.2643 C   0  0  2  0  0  0  0  0  0  0  0  0
    4.8425    1.3945    4.1638 C   0  0  0  0  0  0  0  0  0  0  0  0
    3.4486    1.7660    4.6171 C   0  0  0  0  0  0  0  0  0  0  0  0
    5.0169    1.8762    2.6922 C   0  0  0  0  0  0  0  0  0  0  0  0
    5.9452   -3.1773    4.2125 C   0  0  0  0  0  0  0  0  0  0  0  0
    6.1764   -2.8510    2.8859 O   0  0  0  0  0  0  0  0  0  0  0  0
    6.7315   -1.5927    2.7221 C   0  0  0  0  0  0  0  0  0  0  0  0
    6.3839   -4.4969    4.3076 C   0  0  0  0  0  0  0  0  0  0  0  0
  1  2  1  0
  2  3  1  0
  3  4  1  0
  4  5  1  0
  5  6  1  0
  6  7  1  0
  7  8  1  0
  7  9  1  0
  7 10  1  0
 10 11  2  0
 10 30  1  0
 11 12  1  0
 12 13  1  0
 12 15  2  0
 13 14  1  0
 15 27  1  0
 16 17  1  0
 16 23  1  0
 16 15  1  6
 17 18  2  0
 18 19  1  0
 19 20  1  0
 21 18  1  0
 21 22  1  6
 21 24  1  0
 23 22  1  1
 23 24  1  0
 24 25  1  0
 24 26  1  0
 27 28  1  0
 27 30  2  0
 28 29  1  0
M  END
>  <DRUGBANK_ID>  (1) 
DB18076

>  <COMMON_NAME>  (1) 
Onternabez

>  <CAS_NUMBER>  (1) 
256934-39-1

>  <UNII>  (1) 
8I5L034D55

>  <SYNONYMS>  (1) 
[(1S,2S,5S)-2-[2,6-dimethoxy-4-(2-methyloctan-2-yl)phenyl]-6,6-dimethyl-4-bicyclo[3.1.1]hept-3-enyl]methanol

$$$$
