
     RDKit          3D

 18 19  0  0  0  0  0  0  0  0999 V2000
    1.1905    0.2637   -0.0124 O   0  0  0  0  0  0  0  0  0  0  0  0
    3.1025   -0.0425    1.1786 N   0  0  0  0  0  0  0  0  0  0  0  0
    4.4868   -0.2153    1.2929 N   0  0  0  0  0  0  0  0  0  0  0  0
    3.1782    0.5247   -1.2826 C   0  0  0  0  0  0  0  0  0  0  0  0
    2.4293    0.2705   -0.0006 C   0  0  0  0  0  0  0  0  0  0  0  0
    4.4532   -2.7535    0.7476 C   0  0  0  0  0  0  0  0  0  0  0  0
    4.9306   -1.5892    1.6340 C   0  0  0  0  0  0  0  0  0  0  0  0
    2.6925    1.5359   -2.1002 C   0  0  0  0  0  0  0  0  0  0  0  0
    4.3124   -0.1913   -1.7254 C   0  0  0  0  0  0  0  0  0  0  0  0
    5.0503   -4.0092    0.8501 C   0  0  0  0  0  0  0  0  0  0  0  0
    3.4061   -2.6863   -0.1819 C   0  0  0  0  0  0  0  0  0  0  0  0
    3.3842    1.8759   -3.2669 C   0  0  0  0  0  0  0  0  0  0  0  0
    5.0073    0.1454   -2.8784 C   0  0  0  0  0  0  0  0  0  0  0  0
    4.7057   -5.0490   -0.0267 C   0  0  0  0  0  0  0  0  0  0  0  0
    3.1087   -3.6644   -1.1202 C   0  0  0  0  0  0  0  0  0  0  0  0
    4.5390    1.1877   -3.6520 C   0  0  0  0  0  0  0  0  0  0  0  0
    6.4789   -1.5047    1.6423 C   0  0  0  0  0  0  0  0  0  0  0  0
    3.7767   -4.8593   -1.0476 C   0  0  0  0  0  0  0  0  0  0  0  0
  1  5  2  0
  2  3  1  0
  2  5  1  0
  3  7  1  0
  4  5  1  0
  4  8  2  0
  4  9  1  0
  6  7  1  0
  6 10  2  0
  6 11  1  0
  7 17  1  0
  8 12  1  0
  9 13  2  0
 10 14  1  0
 11 15  2  0
 12 16  2  0
 13 16  1  0
 14 18  2  0
 15 18  1  0
M  END
>  <DRUGBANK_ID>  (1) 
DB09246

>  <COMMON_NAME>  (1) 
Benmoxin

>  <CAS_NUMBER>  (1) 
7654-03-7

>  <UNII>  (1) 
XC9FY2SGBG

>  <SYNONYMS>  (1) 
Benmoxin; Mebamoxine

$$$$
