
     RDKit          3D

 12 11  0  0  1  0  0  0  0  0999 V2000
    0.9723   -0.1862   -0.0702 N   0  0  0  0  0  0  0  0  0  0  0  0
    0.7217   -0.8885    1.2214 C   0  0  1  0  0  0  0  0  0  0  0  0
    1.1196    0.0518    2.3609 C   0  0  0  0  0  0  0  0  0  0  0  0
    0.4816    1.4805    2.3008 C   0  0  0  0  0  0  0  0  0  0  0  0
   -1.3532    1.9291    2.2076 S   0  0  0  0  0  0  0  0  0  0  0  0
   -2.1463    1.2450    0.6778 C   0  0  0  0  0  0  0  0  0  0  0  0
   -1.7142    1.9408   -0.4018 F   0  0  0  0  0  0  0  0  0  0  0  0
   -1.9951   -0.0493    0.3284 F   0  0  0  0  0  0  0  0  0  0  0  0
   -3.4955    1.4227    0.7546 F   0  0  0  0  0  0  0  0  0  0  0  0
   -0.6918   -1.3546    1.6317 C   0  0  0  0  0  0  0  0  0  0  0  0
   -1.2390   -2.4645    1.1462 O   0  0  0  0  0  0  0  0  0  0  0  0
   -1.3524   -0.7670    2.5089 O   0  0  0  0  0  0  0  0  0  0  0  0
  2  1  1  6
  2  3  1  0
  2 10  1  0
  3  4  1  0
  4  5  1  0
  5  6  1  0
  6  7  1  0
  6  8  1  0
  6  9  1  0
 10 11  1  0
 10 12  2  0
M  END
>  <DRUGBANK_ID>  (1) 
DB03799

>  <SECONDARY_ACCESSION_NUMBERS>  (1) 
EXPT02158

>  <COMMON_NAME>  (1) 
Trifluoromethionine

>  <UNII>  (1) 
QH3U5JK2DR

$$$$
