SB9
     RDKit          3D

 14 14  0  0  0  0  0  0  0  0999 V2000
    0.8888   -0.1548    0.0355 C   0  0  0  0  0  0  0  0  0  0  0  0
    0.2554    1.0320    0.1002 N   0  0  0  0  0  0  0  0  0  0  0  0
   -1.1021    1.1053    0.0722 C   0  0  0  0  0  0  0  0  0  0  0  0
   -1.8715   -0.0336    0.0018 C   0  0  0  0  0  0  0  0  0  0  0  0
   -1.2227   -1.2642   -0.0090 C   0  0  0  0  0  0  0  0  0  0  0  0
    0.1714   -1.3325    0.0053 C   0  0  0  0  0  0  0  0  0  0  0  0
    2.3902   -0.1266    0.0030 C   0  0  0  0  0  0  0  0  0  0  0  0
   -1.7613    2.4696    0.1415 C   0  0  0  0  0  0  0  0  0  0  0  0
   -1.2107    3.3139    1.2895 C   0  0  0  0  0  0  0  0  0  0  0  0
    0.2988    3.5683    1.2161 C   0  0  0  0  0  0  0  0  0  0  0  0
    0.7142    4.2608   -0.0208 N   0  0  0  0  0  0  0  0  0  0  0  0
    1.2809    5.5412    0.1633 O   0  0  0  0  0  0  0  0  0  0  0  0
    0.6814    3.8644   -1.3417 C   0  0  0  0  0  0  0  0  0  0  0  0
    0.3034    2.8212   -1.8694 O   0  0  0  0  0  0  0  0  0  0  0  0
  1  2  2  0
  1  6  1  0
  1  7  1  0
  2  3  1  0
  3  4  2  0
  3  8  1  0
  4  5  1  0
  5  6  2  0
  8  9  1  0
  9 10  1  0
 10 11  1  0
 11 12  1  0
 11 13  1  0
 13 14  2  0
M  END
>  <DRUGBANK_ID>  (1) 
DB08525

>  <COMMON_NAME>  (1) 
HYDROXY[3-(6-METHYLPYRIDIN-2-YL)PROPYL]FORMAMIDE

$$$$
