
     RDKit          3D

 36 39  0  0  0  0  0  0  0  0999 V2000
    0.1040   -7.5882    1.9244 C   0  0  0  0  0  0  0  0  0  0  0  0
    0.3600   -7.7406    0.4367 C   0  0  0  0  0  0  0  0  0  0  0  0
    0.1931   -6.6635   -0.4605 C   0  0  0  0  0  0  0  0  0  0  0  0
    1.0255   -6.5361   -1.5986 C   0  0  0  0  0  0  0  0  0  0  0  0
    1.5744   -7.7215   -2.0886 C   0  0  0  0  0  0  0  0  0  0  0  0
    1.3869   -8.9197   -1.3854 C   0  0  0  0  0  0  0  0  0  0  0  0
    0.8591   -8.9175   -0.0885 C   0  0  0  0  0  0  0  0  0  0  0  0
    2.3028   -7.8022   -3.2453 O   0  0  0  0  0  0  0  0  0  0  0  0
    1.4755   -5.1949   -2.1754 C   0  0  0  0  0  0  0  0  0  0  0  0
    2.0132   -5.1790   -3.2867 O   0  0  0  0  0  0  0  0  0  0  0  0
    1.4218   -3.9916   -1.4738 N   0  0  0  0  0  0  0  0  0  0  0  0
    1.0568   -3.7556   -0.0821 C   0  0  1  0  0  0  0  0  0  0  0  0
    1.7048   -4.7795    0.8460 C   0  0  0  0  0  0  0  0  0  0  0  0
    3.1854   -4.7620    0.8694 C   0  0  0  0  0  0  0  0  0  0  0  0
    3.5369   -3.4530    1.4619 C   0  0  2  0  0  0  0  0  0  0  0  0
    2.9979   -2.2851    0.6427 C   0  0  0  0  0  0  0  0  0  0  0  0
    1.4703   -2.3824    0.4683 C   0  0  0  0  0  0  0  0  0  0  0  0
    4.9536   -3.5110    1.6537 N   0  0  0  0  0  0  0  0  0  0  0  0
    5.5914   -3.5351    2.8645 C   0  0  0  0  0  0  0  0  0  0  0  0
    6.7405   -3.9735    2.9671 O   0  0  0  0  0  0  0  0  0  0  0  0
    4.9120   -2.9446    4.0208 C   0  0  0  0  0  0  0  0  0  0  0  0
    5.2643   -1.7240    4.6061 C   0  0  0  0  0  0  0  0  0  0  0  0
    4.5529   -1.2455    5.6730 N   0  0  0  0  0  0  0  0  0  0  0  0
    3.4928   -1.9701    6.1304 C   0  0  0  0  0  0  0  0  0  0  0  0
    3.0869   -3.1607    5.5706 C   0  0  0  0  0  0  0  0  0  0  0  0
    3.8228   -3.6717    4.5278 C   0  0  0  0  0  0  0  0  0  0  0  0
    2.0048   -3.8153    6.0070 F   0  0  0  0  0  0  0  0  0  0  0  0
    6.3031   -0.8763    4.2483 O   0  0  0  0  0  0  0  0  0  0  0  0
    7.0339   -1.0981    3.1031 C   0  0  0  0  0  0  0  0  0  0  0  0
    8.3812   -1.4498    3.2252 C   0  0  0  0  0  0  0  0  0  0  0  0
    9.0841   -1.8564    2.0894 C   0  0  0  0  0  0  0  0  0  0  0  0
    8.4540   -1.9275    0.8510 C   0  0  0  0  0  0  0  0  0  0  0  0
    7.1292   -1.5315    0.7173 C   0  0  0  0  0  0  0  0  0  0  0  0
    6.4378   -1.0474    1.8357 C   0  0  0  0  0  0  0  0  0  0  0  0
    9.1066   -2.4010   -0.2200 F   0  0  0  0  0  0  0  0  0  0  0  0
   10.3668   -2.2286    2.2054 F   0  0  0  0  0  0  0  0  0  0  0  0
  1  2  1  0
  2  3  2  0
  2  7  1  0
  3  4  1  0
  4  5  2  0
  4  9  1  0
  5  6  1  0
  5  8  1  0
  6  7  2  0
  9 10  2  0
  9 11  1  0
 12 13  1  0
 12 17  1  0
 12 11  1  6
 13 14  1  0
 14 15  1  0
 15 16  1  0
 15 18  1  6
 16 17  1  0
 18 19  1  0
 19 20  2  0
 19 21  1  0
 21 22  1  0
 21 26  2  0
 22 23  2  0
 22 28  1  0
 23 24  1  0
 24 25  2  0
 25 26  1  0
 25 27  1  0
 28 29  1  0
 29 30  2  0
 29 34  1  0
 30 31  1  0
 31 32  2  0
 31 36  1  0
 32 33  1  0
 32 35  1  0
 33 34  2  0
M  END
>  <DRUGBANK_ID>  (1) 
DB12837

>  <COMMON_NAME>  (1) 
UK-500001

>  <CAS_NUMBER>  (1) 
582332-31-8

>  <UNII>  (1) 
YOG0PR3Q8J

$$$$
