
     RDKit          3D

 21 22  0  0  0  0  0  0  0  0999 V2000
    1.7050   -1.2637   -0.0117 C   0  0  0  0  0  0  0  0  0  0  0  0
    2.4082   -0.0663   -0.0281 C   0  0  0  0  0  0  0  0  0  0  0  0
    1.7206    1.1476   -0.0706 C   0  0  0  0  0  0  0  0  0  0  0  0
    0.3139    1.1544   -0.0539 C   0  0  0  0  0  0  0  0  0  0  0  0
   -0.3833   -0.0451   -0.0291 C   0  0  0  0  0  0  0  0  0  0  0  0
    0.3091   -1.2532   -0.0214 C   0  0  0  0  0  0  0  0  0  0  0  0
   -2.1022   -0.0305   -0.0021 Cl  0  0  0  0  0  0  0  0  0  0  0  0
    2.4595    2.3922   -0.0378 C   0  0  0  0  0  0  0  0  0  0  0  0
    2.1988    3.2801    0.9833 C   0  0  0  0  0  0  0  0  0  0  0  0
    2.7488    4.5446    0.9350 C   0  0  0  0  0  0  0  0  0  0  0  0
    3.7956    4.8338    0.0415 C   0  0  0  0  0  0  0  0  0  0  0  0
    4.0915    3.9350   -0.9461 N   0  0  0  0  0  0  0  0  0  0  0  0
    3.3766    2.7845   -1.0038 C   0  0  0  0  0  0  0  0  0  0  0  0
    4.7555    6.0458    0.0403 C   0  0  0  0  0  0  0  0  0  0  0  0
    5.5978    6.1680   -0.8558 O   0  0  0  0  0  0  0  0  0  0  0  0
    4.7954    7.0286    1.0199 N   0  0  0  0  0  0  0  0  0  0  0  0
    4.0559    7.0777    2.2481 C   0  0  0  0  0  0  0  0  0  0  0  0
    4.6463    6.9191    3.6291 C   0  0  0  0  0  0  0  0  0  0  0  0
    4.2415    7.4439    4.6416 O   0  0  0  0  0  0  0  0  0  0  0  0
    5.4681    5.8368    3.6774 O   0  0  0  0  0  0  0  0  0  0  0  0
    2.0206    5.4178    1.7030 O   0  0  0  0  0  0  0  0  0  0  0  0
  1  2  2  0
  1  6  1  0
  2  3  1  0
  3  4  2  0
  3  8  1  0
  4  5  1  0
  5  6  2  0
  5  7  1  0
  8  9  2  0
  8 13  1  0
  9 10  1  0
 10 11  2  0
 10 21  1  0
 11 12  1  0
 11 14  1  0
 12 13  2  0
 14 15  2  0
 14 16  1  0
 16 17  1  0
 17 18  1  0
 18 19  2  0
 18 20  1  0
M  END
>  <DRUGBANK_ID>  (1) 
DB12255

>  <COMMON_NAME>  (1) 
Vadadustat

>  <CAS_NUMBER>  (1) 
1000025-07-9

>  <UNII>  (1) 
I60W9520VV

>  <SYNONYMS>  (1) 
Glycine, N-((5-(3-chlorophenyl)-3-hydroxy-2-pyridinyl)carbonyl)-; N-(5-(3-Chlorophenyl)-3-hydroxypyridine-2-carbonyl)glycine; Vadadustat

$$$$
