
     RDKit          3D

 17 19  0  0  0  0  0  0  0  0999 V2000
   -0.3102   -1.0231   -0.0445 C   0  0  0  0  0  0  0  0  0  0  0  0
   -1.2352   -0.0978   -0.0265 N   0  0  0  0  0  0  0  0  0  0  0  0
   -0.4840    1.1805   -0.1604 C   0  0  0  0  0  0  0  0  0  0  0  0
    0.9847    0.8450    0.1191 C   0  0  0  0  0  0  0  0  0  0  0  0
    0.9780   -0.5664   -0.1589 N   0  0  0  0  0  0  0  0  0  0  0  0
   -0.6555   -2.4930    0.0437 C   0  0  0  0  0  0  0  0  0  0  0  0
   -1.3244   -2.8797    1.3579 C   0  0  0  0  0  0  0  0  0  0  0  0
   -2.5526   -2.2615    1.6633 C   0  0  0  0  0  0  0  0  0  0  0  0
   -3.2310   -2.5399    2.8421 C   0  0  0  0  0  0  0  0  0  0  0  0
   -2.7127   -3.4779    3.7274 C   0  0  0  0  0  0  0  0  0  0  0  0
   -1.4990   -4.1549    3.4550 C   0  0  0  0  0  0  0  0  0  0  0  0
   -0.9595   -5.1338    4.3228 C   0  0  0  0  0  0  0  0  0  0  0  0
    0.2374   -5.7905    4.0457 C   0  0  0  0  0  0  0  0  0  0  0  0
    0.9358   -5.4795    2.8924 C   0  0  0  0  0  0  0  0  0  0  0  0
    0.4297   -4.5213    2.0176 C   0  0  0  0  0  0  0  0  0  0  0  0
   -0.7871   -3.8428    2.2560 C   0  0  0  0  0  0  0  0  0  0  0  0
   -3.6358   -3.7655    5.1699 Cl  0  0  0  0  0  0  0  0  0  0  0  0
  1  2  2  0
  1  5  1  0
  1  6  1  0
  2  3  1  0
  3  4  1  0
  4  5  1  0
  6  7  1  0
  7  8  2  0
  7 16  1  0
  8  9  1  0
  9 10  2  0
 10 11  1  0
 10 17  1  0
 11 12  1  0
 11 16  2  0
 12 13  2  0
 13 14  1  0
 14 15  2  0
 15 16  1  0
M  END
>  <DRUGBANK_ID>  (1) 
DB15881

>  <COMMON_NAME>  (1) 
Clonazoline

>  <CAS_NUMBER>  (1) 
17692-28-3

>  <UNII>  (1) 
YH9K692U9S

>  <SYNONYMS>  (1) 
Clonazolina; Clonazoline; Clonazolinum

$$$$
