
     RDKit          3D

  6  5  0  0  0  0  0  0  0  0999 V2000
    1.0546    0.1243   -0.0656 C   0  0  0  0  0  0  0  0  0  0  0  0
    0.3203   -0.8226    0.8845 C   0  0  2  0  0  0  0  0  0  0  0  0
    2.3979    0.0306    0.0078 O   0  0  0  0  0  0  0  0  0  0  0  0
    0.6526   -0.4825    2.3287 C   0  0  0  0  0  0  0  0  0  0  0  0
    0.5248    0.8838   -0.8632 O   0  0  0  0  0  0  0  0  0  0  0  0
    0.6277   -2.1925    0.6536 O   0  0  0  0  0  0  0  0  0  0  0  0
  1  5  2  0
  1  2  1  0
  1  3  1  0
  2  6  1  0
  2  4  1  1
M  END
>  <DRUGBANK_ID>  (1) 
DB14475

>  <COMMON_NAME>  (1) 
L-Lactic acid

>  <CAS_NUMBER>  (1) 
79-33-4

>  <UNII>  (1) 
F9S9FFU82N

>  <SYNONYMS>  (1) 
(+)-lactic acid; (S)-(+)-lactic acid; (S)-2-hydroxypropanoic acid; (S)-2-hydroxypropionic acid; (S)-lactic acid; L-(+)-lactic acid; L-(+)-α-hydroxypropionic acid; L-Lactic acid; L-Milchsäure

$$$$
