218
     RDKit          3D

 29 33  0  0  1  0  0  0  0  0999 V2000
    0.8829   -0.1091    0.0206 F   0  0  0  0  0  0  0  0  0  0  0  0
    5.0488    2.3612   -0.0322 O   0  0  0  0  0  0  0  0  0  0  0  0
    4.3862   -3.5209   -0.0012 O   0  0  0  0  0  0  0  0  0  0  0  0
    8.6264   -3.7382   -0.0108 O   0  0  0  0  0  0  0  0  0  0  0  0
    6.7285   -4.8806    0.0028 O   0  0  0  0  0  0  0  0  0  0  0  0
    2.0507    2.3773    0.0286 N   0  0  0  0  0  0  0  0  0  0  0  0
    1.2190    5.9537   -0.5373 N   0  0  0  0  0  0  0  0  0  0  0  0
    6.5019   -0.0226   -0.1752 N   0  0  0  0  0  0  0  0  0  0  0  0
    0.6374    4.0272    1.0059 C   0  0  2  0  0  0  0  0  0  0  0  0
    1.6445    4.6983    0.0692 C   0  0  1  0  0  0  0  0  0  0  0  0
    1.2607    2.6257    1.2444 C   0  0  0  0  0  0  0  0  0  0  0  0
    1.9262    3.5013   -0.9027 C   0  0  0  0  0  0  0  0  0  0  0  0
   -0.7004    3.8677    0.2780 C   0  0  0  0  0  0  0  0  0  0  0  0
    7.2800    1.2153    0.1538 C   0  0  0  0  0  0  0  0  0  0  0  0
   -1.1094    5.0947   -0.5389 C   0  0  0  0  0  0  0  0  0  0  0  0
    8.1866    2.0740   -0.6866 C   0  0  0  0  0  0  0  0  0  0  0  0
    8.7069    1.3652    0.5429 C   0  0  0  0  0  0  0  0  0  0  0  0
    0.0237    5.7481   -1.3345 C   0  0  0  0  0  0  0  0  0  0  0  0
    2.8421    1.2497   -0.0515 C   0  0  0  0  0  0  0  0  0  0  0  0
    5.0384    0.0222   -0.1138 C   0  0  0  0  0  0  0  0  0  0  0  0
    4.2634    1.2462   -0.0840 C   0  0  0  0  0  0  0  0  0  0  0  0
    4.3358   -1.1946   -0.0615 C   0  0  0  0  0  0  0  0  0  0  0  0
    2.2246   -0.0205   -0.0108 C   0  0  0  0  0  0  0  0  0  0  0  0
    7.1238   -1.2724   -0.0927 C   0  0  0  0  0  0  0  0  0  0  0  0
    2.9386   -1.2148   -0.0080 C   0  0  0  0  0  0  0  0  0  0  0  0
    6.5443   -2.4886   -0.0492 C   0  0  0  0  0  0  0  0  0  0  0  0
    5.0506   -2.4924   -0.0400 C   0  0  0  0  0  0  0  0  0  0  0  0
    7.2712   -3.8006   -0.0126 C   0  0  0  0  0  0  0  0  0  0  0  0
    4.5794    3.6606    0.1331 C   0  0  0  0  0  0  0  0  0  0  0  0
  1 23  1  0
  2 21  1  0
  2 29  1  0
  3 27  2  0
  4 28  1  0
  5 28  2  0
  6 11  1  0
  6 12  1  0
  6 19  1  0
  7 10  1  0
  7 18  1  0
  8 14  1  0
  8 20  1  0
  8 24  1  0
  9 10  1  0
  9 11  1  6
  9 13  1  0
 10 12  1  6
 13 15  1  0
 14 16  1  0
 14 17  1  0
 15 18  1  0
 16 17  1  0
 19 21  2  0
 19 23  1  0
 20 21  1  0
 20 22  2  0
 22 25  1  0
 22 27  1  0
 23 25  2  0
 24 26  2  0
 26 27  1  0
 26 28  1  0
M  END
>  <DRUGBANK_ID>  (1) 
DB00218

>  <SECONDARY_ACCESSION_NUMBERS>  (1) 
APRD00281

>  <COMMON_NAME>  (1) 
Moxifloxacin

>  <CAS_NUMBER>  (1) 
151096-09-2

>  <UNII>  (1) 
U188XYD42P

>  <SYNONYMS>  (1) 
1-Cyclopropyl-6-fluoro-1,4-dihydro-8-methoxy-7-((4as,7as)-octahydro-6H-pyrrolo(3,4-b)pyridin-6-yl)-4-oxo-3-quinolinecarboxylic acid; Moxifloxacin; Moxifloxacino

$$$$
