
     RDKit          3D

 25 28  0  0  0  0  0  0  0  0999 V2000
   -2.1221    0.0495   -0.0382 Cl  0  0  0  0  0  0  0  0  0  0  0  0
    3.8225   -0.0035   -0.0594 N   0  0  0  0  0  0  0  0  0  0  0  0
    6.1309   -2.5858    1.0617 N   0  0  0  0  0  0  0  0  0  0  0  0
    5.4351   -1.4070    0.9847 N   0  0  0  0  0  0  0  0  0  0  0  0
   11.1455   -3.5030    0.2079 N   0  0  0  0  0  0  0  0  0  0  0  0
    5.1865   -3.3469   -1.0190 C   0  0  0  0  0  0  0  0  0  0  0  0
    4.4631   -2.1325   -1.0857 C   0  0  0  0  0  0  0  0  0  0  0  0
    6.0531   -3.5125    0.0721 C   0  0  0  0  0  0  0  0  0  0  0  0
    6.9911   -4.6980    0.2090 C   0  0  0  0  0  0  0  0  0  0  0  0
    4.6151   -1.1828   -0.0570 C   0  0  0  0  0  0  0  0  0  0  0  0
    4.9711   -4.2964   -2.0475 C   0  0  0  0  0  0  0  0  0  0  0  0
    8.4519   -4.3051    0.2096 C   0  0  0  0  0  0  0  0  0  0  0  0
    3.6039   -1.9183   -2.1864 C   0  0  0  0  0  0  0  0  0  0  0  0
    4.0522   -4.0842   -3.0749 C   0  0  0  0  0  0  0  0  0  0  0  0
    3.3589   -2.8897   -3.1413 C   0  0  0  0  0  0  0  0  0  0  0  0
    2.4091    0.0031    0.0945 C   0  0  0  0  0  0  0  0  0  0  0  0
    8.9755   -3.5318    1.2507 C   0  0  0  0  0  0  0  0  0  0  0  0
    9.3071   -4.6804   -0.8301 C   0  0  0  0  0  0  0  0  0  0  0  0
    1.7144    1.2154    0.0345 C   0  0  0  0  0  0  0  0  0  0  0  0
    1.6545   -1.1865    0.1259 C   0  0  0  0  0  0  0  0  0  0  0  0
   10.3036   -3.1511    1.2009 C   0  0  0  0  0  0  0  0  0  0  0  0
   10.6282   -4.2600   -0.7831 C   0  0  0  0  0  0  0  0  0  0  0  0
    0.3127    1.2302    0.0059 C   0  0  0  0  0  0  0  0  0  0  0  0
    0.2638   -1.1792    0.0525 C   0  0  0  0  0  0  0  0  0  0  0  0
   -0.4043    0.0339    0.0076 C   0  0  0  0  0  0  0  0  0  0  0  0
  1 25  1  0
  2 10  1  0
  2 16  1  0
  3  4  2  0
  3  8  1  0
  4 10  1  0
  5 21  2  0
  5 22  1  0
  6  7  1  0
  6  8  2  0
  6 11  1  0
  7 10  2  0
  7 13  1  0
  8  9  1  0
  9 12  1  0
 11 14  2  0
 12 17  2  0
 12 18  1  0
 13 15  2  0
 14 15  1  0
 16 19  2  0
 16 20  1  0
 17 21  1  0
 18 22  2  0
 19 23  1  0
 20 24  2  0
 23 25  2  0
 24 25  1  0
M  END
>  <DRUGBANK_ID>  (1) 
DB04879

>  <COMMON_NAME>  (1) 
Vatalanib

>  <CAS_NUMBER>  (1) 
212141-54-3

>  <UNII>  (1) 
5DX9U76296

>  <SYNONYMS>  (1) 
Vatalanib; Vatalinib

$$$$
