
     RDKit          3D

 35 39  0  0  0  0  0  0  0  0999 V2000
    2.5954   -0.4535   -0.2843 C   0  0  2  0  0  0  0  0  0  0  0  0
    1.8097   -1.5341   -0.7875 C   0  0  1  0  0  0  0  0  0  0  0  0
    3.5062   -1.7323    0.4668 C   0  0  2  0  0  0  0  0  0  0  0  0
    2.4938    0.7854    0.6138 C   0  0  0  0  0  0  0  0  0  0  0  0
    2.3266   -0.0354   -2.1371 C   0  0  0  0  0  0  0  0  0  0  0  0
    0.2670   -0.6712   -0.5137 C   0  0  2  0  0  0  0  0  0  0  0  0
    3.7231   -1.3610   -1.2108 C   0  0  0  0  0  0  0  0  0  0  0  0
    4.5355   -0.8041    0.1011 C   0  0  0  0  0  0  0  0  0  0  0  0
    4.6809   -2.5354    1.1139 C   0  0  0  0  0  0  0  0  0  0  0  0
    2.6883   -2.3328    1.4326 O   0  0  0  0  0  0  0  0  0  0  0  0
    1.4495    1.5696    0.0094 C   0  0  1  0  0  0  0  0  0  0  0  0
    0.1837    0.7815    0.1558 C   0  0  1  0  0  0  0  0  0  0  0  0
   -1.1527   -1.1198    0.0065 C   0  0  0  0  0  0  0  0  0  0  0  0
    5.3256   -3.6052    0.2390 C   0  0  0  0  0  0  0  0  0  0  0  0
    5.0079   -2.4378    2.2984 O   0  0  0  0  0  0  0  0  0  0  0  0
    1.7883    2.9168   -0.1518 O   0  0  0  0  0  0  0  0  0  0  0  0
   -0.8564    1.6633   -0.4396 C   0  0  2  0  0  0  0  0  0  0  0  0
   -2.4456   -0.0018   -0.6401 C   0  0  0  0  0  0  0  0  0  0  0  0
    6.7061   -3.7477    0.5412 O   0  0  0  0  0  0  0  0  0  0  0  0
   -2.2303    1.6914   -0.8007 C   0  0  0  0  0  0  0  0  0  0  0  0
   -0.7198    1.3624   -2.2122 C   0  0  0  0  0  0  0  0  0  0  0  0
   -1.0839    2.8395    0.6894 C   0  0  0  0  0  0  0  0  0  0  0  0
    7.6605   -2.8372    0.2065 C   0  0  0  0  0  0  0  0  0  0  0  0
   -2.1955    2.9640   -1.5565 C   0  0  0  0  0  0  0  0  0  0  0  0
    0.1495    2.4254   -2.7285 C   0  0  0  0  0  0  0  0  0  0  0  0
    7.2459   -1.4302   -0.2447 C   0  0  0  0  0  0  0  0  0  0  0  0
    8.8179   -3.1917    0.2097 O   0  0  0  0  0  0  0  0  0  0  0  0
   -0.5520    3.5014   -1.9162 C   0  0  0  0  0  0  0  0  0  0  0  0
    7.1332   -0.2564    0.7964 C   0  0  0  0  0  0  0  0  0  0  0  0
   -0.0307    4.4963   -1.4841 O   0  0  0  0  0  0  0  0  0  0  0  0
    8.4806    0.2467    1.2395 C   0  0  0  0  0  0  0  0  0  0  0  0
    9.2895   -0.9276    1.7277 C   0  0  0  0  0  0  0  0  0  0  0  0
    8.4563    1.1959    2.4280 C   0  0  0  0  0  0  0  0  0  0  0  0
   10.1909   -0.4452    2.8205 C   0  0  0  0  0  0  0  0  0  0  0  0
    9.8709    1.0311    2.9704 C   0  0  0  0  0  0  0  0  0  0  0  0
  1  2  1  0
  1  3  1  0
  1  4  1  0
  1  5  1  6
  2  6  1  0
  2  7  1  6
  3  8  1  0
  3  9  1  0
  3 10  1  6
  4 11  1  0
  6 12  1  0
  6 13  1  1
  7  8  1  0
  9 14  1  0
  9 15  2  0
 12 11  1  6
 11 16  1  1
 12 17  1  0
 13 18  1  0
 14 19  1  0
 17 20  1  0
 17 21  1  0
 17 22  1  6
 18 20  1  0
 19 23  1  0
 20 24  2  0
 21 25  1  0
 23 26  1  0
 23 27  2  0
 24 28  1  0
 25 28  1  0
 26 29  1  0
 28 30  2  0
 29 31  1  0
 31 32  1  0
 31 33  1  0
 32 34  1  0
 33 35  1  0
 34 35  1  0
M  END
>  <DRUGBANK_ID>  (1) 
DB14541

>  <SECONDARY_ACCESSION_NUMBERS>  (1) 
DBSALT001388

>  <COMMON_NAME>  (1) 
Hydrocortisone cypionate

>  <CAS_NUMBER>  (1) 
508-99-6

>  <UNII>  (1) 
4XDY25L70B

>  <SYNONYMS>  (1) 
Cortisol 21-cyclopentanepropionate; Hydrocortisone cipionate

$$$$
