
     RDKit          3D

 24 26  0  0  0  0  0  0  0  0999 V2000
    0.8893   -0.1226    0.1601 F   0  0  0  0  0  0  0  0  0  0  0  0
    2.2463   -0.0739    0.0705 C   0  0  0  0  0  0  0  0  0  0  0  0
    2.6755    0.5543    1.2003 F   0  0  0  0  0  0  0  0  0  0  0  0
    2.6762   -1.3626    0.1765 F   0  0  0  0  0  0  0  0  0  0  0  0
    2.7172    0.6208   -1.1781 C   0  0  0  0  0  0  0  0  0  0  0  0
    2.4436    1.9834   -1.3792 C   0  0  0  0  0  0  0  0  0  0  0  0
    2.8780    2.6416   -2.5383 C   0  0  0  0  0  0  0  0  0  0  0  0
    3.4514   -0.0672   -2.1431 C   0  0  0  0  0  0  0  0  0  0  0  0
    3.9218    0.6061   -3.2641 C   0  0  0  0  0  0  0  0  0  0  0  0
    3.6065    1.9505   -3.5118 C   0  0  0  0  0  0  0  0  0  0  0  0
    4.0311    2.5762   -4.6889 N   0  0  0  0  0  0  0  0  0  0  0  0
    4.5942    1.9551   -5.8080 C   0  0  0  0  0  0  0  0  0  0  0  0
    5.6875    2.5053   -6.3436 N   0  0  0  0  0  0  0  0  0  0  0  0
    6.3058    1.7994   -7.3155 C   0  0  0  0  0  0  0  0  0  0  0  0
    5.8296    0.6175   -7.8259 C   0  0  0  0  0  0  0  0  0  0  0  0
    4.0512    0.8126   -6.2526 N   0  0  0  0  0  0  0  0  0  0  0  0
    4.6638    0.1670   -7.2658 C   0  0  0  0  0  0  0  0  0  0  0  0
    3.9018   -0.9566   -7.8040 C   0  0  0  0  0  0  0  0  0  0  0  0
    4.5637   -2.5328   -7.9612 S   0  0  0  0  0  0  0  0  0  0  0  0
    2.5951   -0.9594   -8.2679 C   0  0  0  0  0  0  0  0  0  0  0  0
    1.6745    0.2061   -8.3363 C   0  0  0  0  0  0  0  0  0  0  0  0
    2.1389   -2.1790   -8.7440 N   0  0  0  0  0  0  0  0  0  0  0  0
    3.0775   -3.0919   -8.6251 C   0  0  0  0  0  0  0  0  0  0  0  0
    2.8936   -4.5118   -9.0418 C   0  0  0  0  0  0  0  0  0  0  0  0
  2  1  1  0
  2  3  1  0
  2  4  1  0
  5  2  1  0
  5  6  2  0
  6  7  1  0
  8  5  1  0
  9  8  2  0
 10  7  2  0
 10  9  1  0
 10 11  1  0
 12 11  1  0
 12 13  2  0
 12 16  1  0
 14 13  1  0
 15 14  2  0
 17 15  1  0
 17 16  2  0
 17 18  1  0
 18 19  1  0
 20 18  2  0
 20 21  1  0
 20 22  1  0
 23 19  1  0
 23 22  2  0
 23 24  1  0
M  END
>  <DRUGBANK_ID>  (1) 
DB02915

>  <SECONDARY_ACCESSION_NUMBERS>  (1) 
EXPT00927

>  <COMMON_NAME>  (1) 
4-(2,4-Dimethyl-1,3-thiazol-5-yl)-N-[4-(trifluoromethyl)phenyl]-2-pyrimidinamine

$$$$
