JJ3
     RDKit          3D

 24 27  0  0  0  0  0  0  0  0999 V2000
   -2.6343    1.3007    0.0464 C   0  0  0  0  0  0  0  0  0  0  0  0
   -3.0487    0.0894   -0.4860 C   0  0  0  0  0  0  0  0  0  0  0  0
   -2.1534   -0.9954   -0.5360 C   0  0  0  0  0  0  0  0  0  0  0  0
   -0.8505   -0.8464   -0.0377 C   0  0  0  0  0  0  0  0  0  0  0  0
   -0.0457   -1.9536   -0.0700 O   0  0  0  0  0  0  0  0  0  0  0  0
    1.1485   -1.9081    0.7292 C   0  0  2  0  0  0  0  0  0  0  0  0
    1.8950   -0.5851    0.5111 C   0  0  1  0  0  0  0  0  0  0  0  0
    2.2887   -0.3336   -0.9514 C   0  0  0  0  0  0  0  0  0  0  0  0
    2.3720    1.1781   -1.0915 C   0  0  0  0  0  0  0  0  0  0  0  0
    1.6486    1.7769    0.1113 C   0  0  0  0  0  0  0  0  0  0  0  0
    1.0035    0.6072    0.8647 C   0  0  1  0  0  0  0  0  0  0  0  0
   -0.4232    0.3915    0.4422 C   0  0  0  0  0  0  0  0  0  0  0  0
   -1.3388    1.4541    0.5120 C   0  0  0  0  0  0  0  0  0  0  0  0
    2.0458   -3.1005    0.3864 C   0  0  0  0  0  0  0  0  0  0  0  0
    3.2699   -3.2797    1.0596 C   0  0  0  0  0  0  0  0  0  0  0  0
    4.1926   -4.2294    0.6123 C   0  0  0  0  0  0  0  0  0  0  0  0
    3.8647   -5.0709   -0.4371 C   0  0  0  0  0  0  0  0  0  0  0  0
    4.8090   -5.9539   -0.8712 O   0  0  0  0  0  0  0  0  0  0  0  0
    2.6107   -5.0032   -1.0353 C   0  0  0  0  0  0  0  0  0  0  0  0
    1.7213   -3.9987   -0.6421 C   0  0  0  0  0  0  0  0  0  0  0  0
   -2.6448   -2.3381   -1.0128 C   0  0  0  0  0  0  0  0  0  0  0  0
   -3.6999   -2.8103   -0.1690 O   0  0  0  0  0  0  0  0  0  0  0  0
   -3.2551   -3.0326    1.1680 C   0  0  0  0  0  0  0  0  0  0  0  0
   -3.4656    2.3760    0.1348 O   0  0  0  0  0  0  0  0  0  0  0  0
  1  2  2  0
  1 13  1  0
  1 24  1  0
  2  3  1  0
  3  4  2  0
  3 21  1  0
  4  5  1  0
  4 12  1  0
  5  6  1  0
  6  7  1  0
  6 14  1  6
  7  8  1  6
  7 11  1  0
  8  9  1  0
  9 10  1  0
 11 10  1  6
 11 12  1  0
 12 13  2  0
 14 15  2  0
 14 20  1  0
 15 16  1  0
 16 17  2  0
 17 18  1  0
 17 19  1  0
 19 20  2  0
 21 22  1  0
 22 23  1  0
M  END
>  <DRUGBANK_ID>  (1) 
DB08020

>  <COMMON_NAME>  (1) 
(3AS,4R,9BR)-4-(4-HYDROXYPHENYL)-6-(METHOXYMETHYL)-1,2,3,3A,4,9B-HEXAHYDROCYCLOPENTA[C]CHROMEN-8-OL

$$$$
