S60
     RDKit          3D

 16 18  0  0  0  0  0  0  0  0999 V2000
   -3.2490    0.7805   -0.0905 C   0  0  0  0  0  0  0  0  0  0  0  0
   -4.3911    1.4955   -0.2093 N   0  0  0  0  0  0  0  0  0  0  0  0
   -2.1260    1.3858    0.1030 N   0  0  0  0  0  0  0  0  0  0  0  0
   -0.9433    0.6282    0.1721 C   0  0  0  0  0  0  0  0  0  0  0  0
    0.2501    1.3364    0.2872 C   0  0  0  0  0  0  0  0  0  0  0  0
    1.4703    0.6747    0.1346 C   0  0  0  0  0  0  0  0  0  0  0  0
    2.7143    1.2269    0.0366 N   0  0  0  0  0  0  0  0  0  0  0  0
    3.5395    0.2268   -0.1670 C   0  0  0  0  0  0  0  0  0  0  0  0
    4.9974    0.3988   -0.4066 C   0  0  0  0  0  0  0  0  0  0  0  0
    2.8605   -0.9793   -0.1218 N   0  0  0  0  0  0  0  0  0  0  0  0
    1.5079   -0.7126    0.0338 C   0  0  0  0  0  0  0  0  0  0  0  0
    0.3255   -1.4882    0.0851 C   0  0  0  0  0  0  0  0  0  0  0  0
   -0.9042   -0.7664    0.0781 C   0  0  0  0  0  0  0  0  0  0  0  0
   -2.2294   -1.4200   -0.0808 C   0  0  0  0  0  0  0  0  0  0  0  0
   -2.3518   -2.6428   -0.1450 O   0  0  0  0  0  0  0  0  0  0  0  0
   -3.3221   -0.5789   -0.1798 N   0  0  0  0  0  0  0  0  0  0  0  0
  1  2  1  0
  1  3  2  0
  1 16  1  0
  3  4  1  0
  4  5  2  0
  4 13  1  0
  5  6  1  0
  6  7  1  0
  6 11  2  0
  7  8  2  0
  8  9  1  0
  8 10  1  0
 10 11  1  0
 11 12  1  0
 12 13  2  0
 13 14  1  0
 14 15  2  0
 14 16  1  0
M  END
>  <DRUGBANK_ID>  (1) 
DB08511

>  <COMMON_NAME>  (1) 
6-amino-2-methyl-1,7-dihydro-8H-imidazo[4,5-g]quinazolin-8-one

$$$$
