DQN
     RDKit          3D

 12 12  0  0  0  0  0  0  0  0999 V2000
    1.4240   -0.2544    0.1528 C   0  0  0  0  0  0  0  0  0  0  0  0
    2.5957   -0.4686    0.4514 O   0  0  0  0  0  0  0  0  0  0  0  0
    0.9219    1.1222   -0.0566 C   0  0  0  0  0  0  0  0  0  0  0  0
    1.9609    2.1842   -0.2453 C   0  0  0  0  0  0  0  0  0  0  0  0
   -0.3997    1.3721   -0.0718 C   0  0  0  0  0  0  0  0  0  0  0  0
   -0.9657    2.7507   -0.2614 C   0  0  0  0  0  0  0  0  0  0  0  0
   -1.3744    0.2534    0.1009 C   0  0  0  0  0  0  0  0  0  0  0  0
   -2.5597    0.4726    0.3312 O   0  0  0  0  0  0  0  0  0  0  0  0
   -0.8552   -1.1337   -0.0701 C   0  0  0  0  0  0  0  0  0  0  0  0
   -1.8317   -2.2582   -0.2561 C   0  0  0  0  0  0  0  0  0  0  0  0
    0.4699   -1.3644   -0.0573 C   0  0  0  0  0  0  0  0  0  0  0  0
    1.0589   -2.7286   -0.2519 C   0  0  0  0  0  0  0  0  0  0  0  0
  1  2  2  0
  1  3  1  0
  1 11  1  0
  3  4  1  0
  3  5  2  0
  5  6  1  0
  5  7  1  0
  7  8  2  0
  7  9  1  0
  9 10  1  0
  9 11  2  0
 11 12  1  0
M  END
>  <DRUGBANK_ID>  (1) 
DB01927

>  <SECONDARY_ACCESSION_NUMBERS>  (1) 
EXPT01265

>  <COMMON_NAME>  (1) 
Duroquinone

>  <CAS_NUMBER>  (1) 
527-17-3

>  <UNII>  (1) 
X0Q8791R69

$$$$
