
     RDKit          3D

 32 35  0  0  0  0  0  0  0  0999 V2000
    0.6888   -0.1024   -0.0759 C   0  0  0  0  0  0  0  0  0  0  0  0
    0.3419    0.3406   -1.3848 O   0  0  0  0  0  0  0  0  0  0  0  0
    0.8397    1.5265   -1.8598 C   0  0  0  0  0  0  0  0  0  0  0  0
    2.1418    2.0241   -1.7953 C   0  0  0  0  0  0  0  0  0  0  0  0
    2.5122    3.1765   -2.5452 C   0  0  0  0  0  0  0  0  0  0  0  0
    1.5807    3.8854   -3.3182 C   0  0  0  0  0  0  0  0  0  0  0  0
    1.9687    5.0758   -4.1878 C   0  0  0  0  0  0  0  0  0  0  0  0
    1.8111    4.7938   -5.7099 C   0  0  0  0  0  0  0  0  0  0  0  0
    0.4280    4.8966   -6.2346 N   0  0  0  0  0  0  0  0  0  0  0  0
    0.4022    4.7462   -7.6959 C   0  0  0  0  0  0  0  0  0  0  0  0
   -0.4788    3.8889   -5.6506 C   0  0  0  0  0  0  0  0  0  0  0  0
   -0.7650    4.1345   -4.1675 C   0  0  0  0  0  0  0  0  0  0  0  0
    0.2610    3.4262   -3.3220 C   0  0  0  0  0  0  0  0  0  0  0  0
   -0.0848    2.2464   -2.6300 C   0  0  0  0  0  0  0  0  0  0  0  0
    3.3591    1.1805   -0.8285 S   0  0  0  0  0  0  0  0  0  0  0  0
    3.0152    1.3238    0.5673 O   0  0  0  0  0  0  0  0  0  0  0  0
    3.5284   -0.1325   -1.4499 O   0  0  0  0  0  0  0  0  0  0  0  0
    4.9024    1.9725   -0.9466 C   0  0  0  0  0  0  0  0  0  0  0  0
    5.0585    3.2924   -0.5151 C   0  0  0  0  0  0  0  0  0  0  0  0
    6.2506    3.9610   -0.7898 C   0  0  0  0  0  0  0  0  0  0  0  0
    7.3073    3.2690   -1.3737 C   0  0  0  0  0  0  0  0  0  0  0  0
    8.4761    3.9520   -1.5719 O   0  0  0  0  0  0  0  0  0  0  0  0
    9.5915    3.2450   -2.1560 C   0  0  0  0  0  0  0  0  0  0  0  0
   10.2016    2.2084   -1.2257 C   0  0  0  0  0  0  0  0  0  0  0  0
   10.9423    2.5701   -0.0999 C   0  0  0  0  0  0  0  0  0  0  0  0
   11.4023    1.5751    0.7714 C   0  0  0  0  0  0  0  0  0  0  0  0
   10.9490    0.2625    0.6372 C   0  0  0  0  0  0  0  0  0  0  0  0
   11.4839   -0.9708    1.7054 Cl  0  0  0  0  0  0  0  0  0  0  0  0
   10.1200   -0.0814   -0.4117 C   0  0  0  0  0  0  0  0  0  0  0  0
    9.9306    0.8438   -1.4249 C   0  0  0  0  0  0  0  0  0  0  0  0
    7.1135    1.9286   -1.6889 C   0  0  0  0  0  0  0  0  0  0  0  0
    5.9382    1.2574   -1.4836 C   0  0  0  0  0  0  0  0  0  0  0  0
  1  2  1  0
  2  3  1  0
  3  4  2  0
  3 14  1  0
  4  5  1  0
  4 15  1  0
  5  6  2  0
  6  7  1  0
  6 13  1  0
  7  8  1  0
  8  9  1  0
  9 10  1  0
  9 11  1  0
 11 12  1  0
 12 13  1  0
 13 14  2  0
 15 16  2  0
 15 17  2  0
 15 18  1  0
 18 19  2  0
 18 32  1  0
 19 20  1  0
 20 21  2  0
 21 22  1  0
 21 31  1  0
 22 23  1  0
 23 24  1  0
 24 25  2  0
 24 30  1  0
 25 26  1  0
 26 27  2  0
 27 28  1  0
 27 29  1  0
 29 30  2  0
 31 32  2  0
M  END
>  <DRUGBANK_ID>  (1) 
DB16042

>  <COMMON_NAME>  (1) 
SB-773812

>  <CAS_NUMBER>  (1) 
630407-66-8

>  <UNII>  (1) 
ZNP5SNF9FY

$$$$
