
     RDKit          3D

 20 20  0  0  0  0  0  0  0  0999 V2000
   -0.0643   -0.0995   -2.1528 O   0  0  0  0  0  0  0  0  0  0  0  0
   -1.6879    2.2305   -2.7379 O   0  0  0  0  0  0  0  0  0  0  0  0
    0.5317    1.3595   -0.2025 O   0  0  0  0  0  0  0  0  0  0  0  0
    1.1622    4.0948   -0.1863 O   0  0  0  0  0  0  0  0  0  0  0  0
    0.3971    6.1266   -8.3519 O   0  0  0  0  0  0  0  0  0  0  0  0
    1.4980    1.9174   -9.5467 O   0  0  0  0  0  0  0  0  0  0  0  0
    0.3757    6.5963   -5.7815 O   0  0  0  0  0  0  0  0  0  0  0  0
    1.1219    2.6916   -5.0961 N   0  0  0  0  0  0  0  0  0  0  0  0
    1.4703    2.4346   -7.3502 N   0  0  0  0  0  0  0  0  0  0  0  0
    0.9743    4.0340   -8.9222 N   0  0  0  0  0  0  0  0  0  0  0  0
    0.8992    5.5035   -5.5565 N   0  0  0  0  0  0  0  0  0  0  0  0
    0.5013    1.1453   -2.6252 C   0  0  1  0  0  0  0  0  0  0  0  0
   -0.5474    1.8404   -3.5063 C   0  0  2  0  0  0  0  0  0  0  0  0
    1.0473    1.9495   -1.4077 C   0  0  1  0  0  0  0  0  0  0  0  0
    0.0032    3.0534   -4.2382 C   0  0  0  0  0  0  0  0  0  0  0  0
    0.7529    3.4551   -1.3835 C   0  0  0  0  0  0  0  0  0  0  0  0
    1.2354    3.3004   -6.3242 C   0  0  0  0  0  0  0  0  0  0  0  0
    0.9834    4.6174   -6.5603 C   0  0  0  0  0  0  0  0  0  0  0  0
    0.7715    5.0145   -7.9858 C   0  0  0  0  0  0  0  0  0  0  0  0
    1.3345    2.7431   -8.6677 C   0  0  0  0  0  0  0  0  0  0  0  0
  4 16  1  0
  5 19  2  0
  6 20  2  0
  7 11  2  0
  8 15  1  0
  8 17  1  0
  9 17  1  0
  9 20  1  0
 10 19  1  0
 10 20  1  0
 11 18  1  0
 12  1  1  1
 12 13  1  0
 13  2  1  1
 13 15  1  0
 14 16  1  0
 14 12  1  0
 14  3  1  1
 17 18  2  0
 18 19  1  0
M  END
>  <DRUGBANK_ID>  (1) 
DB04128

>  <SECONDARY_ACCESSION_NUMBERS>  (1) 
EXPT02045

>  <COMMON_NAME>  (1) 
5-Nitroso-6-ribityl-amino-2,4(1H,3H)-pyrimidinedione

>  <SYNONYMS>  (1) 
1-Deoxy-1-[(5-nitroso-2,6-dioxo-1,2,3,6-tetrahydro-4-pyrimidinyl)amino]-D-ribitol

$$$$
