OST
     RDKit          3D

 22 23  0  0  0  0  0  0  0  0999 V2000
    0.9971   -0.0139   -0.1047 C   0  0  0  0  0  0  0  0  0  0  0  0
    0.5087   -1.3013   -0.5226 O   0  0  0  0  0  0  0  0  0  0  0  0
    0.8997   -1.6311   -1.7889 C   0  0  0  0  0  0  0  0  0  0  0  0
    1.6066   -0.9176   -2.4776 O   0  0  0  0  0  0  0  0  0  0  0  0
    0.3886   -2.9760   -2.2678 C   0  0  0  0  0  0  0  0  0  0  0  0
   -0.2797   -3.8185   -1.4376 C   0  0  0  0  0  0  0  0  0  0  0  0
   -0.7648   -5.1044   -1.5758 O   0  0  0  0  0  0  0  0  0  0  0  0
   -0.4622   -5.9347   -2.6941 C   0  0  0  0  0  0  0  0  0  0  0  0
    0.6884   -3.3395   -3.6828 C   0  0  0  0  0  0  0  0  0  0  0  0
    2.0420   -3.4288   -4.0695 C   0  0  0  0  0  0  0  0  0  0  0  0
   -0.3191   -3.7375   -4.5969 C   0  0  0  0  0  0  0  0  0  0  0  0
    0.0891   -4.4371   -5.7458 C   0  0  0  0  0  0  0  0  0  0  0  0
    1.4264   -4.5158   -6.1206 C   0  0  0  0  0  0  0  0  0  0  0  0
    2.4021   -3.9694   -5.3029 C   0  0  0  0  0  0  0  0  0  0  0  0
   -1.7665   -3.6260   -4.2650 C   0  0  0  0  0  0  0  0  0  0  0  0
   -2.7700   -4.2572   -4.9006 C   0  0  0  0  0  0  0  0  0  0  0  0
   -4.1652   -4.1689   -4.4656 C   0  0  0  0  0  0  0  0  0  0  0  0
   -4.6541   -2.9517   -3.9828 C   0  0  0  0  0  0  0  0  0  0  0  0
   -6.0101   -2.7784   -3.7416 C   0  0  0  0  0  0  0  0  0  0  0  0
   -5.0515   -5.2343   -4.6695 C   0  0  0  0  0  0  0  0  0  0  0  0
   -6.4212   -5.0428   -4.4744 C   0  0  0  0  0  0  0  0  0  0  0  0
   -6.8957   -3.8198   -3.9989 C   0  0  0  0  0  0  0  0  0  0  0  0
  1  2  1  0
  2  3  1  0
  3  4  2  0
  3  5  1  0
  5  6  2  0
  5  9  1  0
  6  7  1  0
  7  8  1  0
  9 10  2  0
  9 11  1  0
 10 14  1  0
 11 12  2  0
 11 15  1  0
 12 13  1  0
 13 14  2  0
 15 16  2  0
 16 17  1  0
 17 18  2  0
 17 20  1  0
 18 19  1  0
 19 22  2  0
 20 21  2  0
 21 22  1  0
M  END
>  <DRUGBANK_ID>  (1) 
DB08330

>  <COMMON_NAME>  (1) 
METHYL (2Z)-3-METHOXY-2-{2-[(E)-2-PHENYLVINYL]PHENYL}ACRYLATE

$$$$
