
     RDKit          3D

 10 11  0  0  0  0  0  0  0  0999 V2000
   -1.2238    0.0170    1.0105 C   0  0  0  0  0  0  0  0  0  0  0  0
   -0.6050   -1.0498   -0.0029 C   0  0  0  0  0  0  0  0  0  0  0  0
   -0.5971    1.0731   -0.0100 C   0  0  0  0  0  0  0  0  0  0  0  0
    0.8931    1.2206    0.1861 C   0  0  0  0  0  0  0  0  0  0  0  0
    0.9136   -1.2777    0.1872 C   0  0  0  0  0  0  0  0  0  0  0  0
    1.6969   -0.0022   -0.1878 C   0  0  0  0  0  0  0  0  0  0  0  0
   -2.7573    0.0127    1.1490 C   0  0  0  0  0  0  0  0  0  0  0  0
   -0.6687    0.0376    2.4409 C   0  0  0  0  0  0  0  0  0  0  0  0
    1.3953    2.3077    0.7955 C   0  0  0  0  0  0  0  0  0  0  0  0
   -0.9096    0.0041   -1.1228 C   0  0  0  0  0  0  0  0  0  0  0  0
  1  7  1  0
  1  8  1  0
  1  2  1  0
  2  5  1  0
  3  1  1  0
  3  4  1  0
  4  9  2  0
  4  6  1  0
  6  5  1  0
 10  3  1  0
 10  2  1  0
M  END
>  <DRUGBANK_ID>  (1) 
DB15574

>  <COMMON_NAME>  (1) 
beta-Pinene

>  <CAS_NUMBER>  (1) 
127-91-3

>  <UNII>  (1) 
4MS8VHZ1HJ

>  <SYNONYMS>  (1) 
2(10)-pinene; nopinene; pseudopinene; Î²-pinene

$$$$
