23939
     RDKit          3D

  1  0  0  0  0  0  0  0  0  0999 V2000
    0.9825   -0.0734   -0.0656 Pt  0  0  0  0  0 15  0  0  0  0  0  0
M  END
>  <DRUGBANK_ID>  (1) 
DB12257

>  <COMMON_NAME>  (1) 
Platinum

>  <CAS_NUMBER>  (1) 
7440-06-4

>  <UNII>  (1) 
49DFR088MY

>  <SYNONYMS>  (1) 
platino

$$$$
