
     RDKit          3D

 35 39  0  0  1  0  0  0  0  0999 V2000
    5.0008    0.7343   -0.2011 C   0  0  0  0  0  0  0  0  0  0  0  0
    4.5299    9.8115   -3.8522 C   0  0  0  0  0  0  0  0  0  0  0  0
    8.6860   -0.5876    0.8640 C   0  0  0  0  0  0  0  0  0  0  0  0
    4.1256    6.5683   -5.7722 C   0  0  0  0  0  0  0  0  0  0  0  0
    8.8798    3.1682    1.7662 C   0  0  0  0  0  0  0  0  0  0  0  0
    4.7318    1.3485   -1.6964 C   0  0  0  0  0  0  0  0  0  0  0  0
    2.3884    5.9343    0.5084 C   0  0  0  0  0  0  0  0  0  0  0  0
    6.7692    1.9549   -4.2812 C   0  0  0  0  0  0  0  0  0  0  0  0
    3.0370    4.5644    0.7257 C   0  0  0  0  0  0  0  0  0  0  0  0
    7.3678    3.2230   -4.8657 C   0  0  0  0  0  0  0  0  0  0  0  0
    2.5482    3.2288   -2.6294 C   0  0  0  0  0  0  0  0  0  0  0  0
    4.9429    4.7983   -2.1714 C   0  0  0  0  0  0  0  0  0  0  0  0
    3.1623    7.7484   -1.1516 C   0  0  0  0  0  0  0  0  0  0  0  0
    7.5579    0.7530   -2.2440 C   0  0  0  0  0  0  0  0  0  0  0  0
    2.6387    6.0546   -3.2880 C   0  0  0  0  0  0  0  0  0  0  0  0
    7.9064    3.1922   -0.7418 C   0  0  0  0  0  0  0  0  0  0  0  0
    5.7636    4.0703   -3.9069 C   0  0  0  0  0  0  0  0  0  0  0  0
    5.1558    2.9062   -2.2769 C   0  0  1  0  0  0  0  0  0  0  0  0
    2.6224    6.4792   -0.8798 C   0  0  0  0  0  0  0  0  0  0  0  0
    7.3695    1.9526   -2.8630 C   0  0  0  0  0  0  0  0  0  0  0  0
    3.9756    3.4939   -2.8247 C   0  0  1  0  0  0  0  0  0  0  0  0
    2.3489    5.6134   -1.9429 C   0  0  0  0  0  0  0  0  0  0  0  0
    7.5117    3.1863   -2.0456 C   0  0  0  0  0  0  0  0  0  0  0  0
    2.0544    4.1382   -1.5531 C   0  0  2  0  0  0  0  0  0  0  0  0
    6.8621    4.4997   -2.4907 C   0  0  1  0  0  0  0  0  0  0  0  0
    3.5572    8.1288   -2.4598 C   0  0  0  0  0  0  0  0  0  0  0  0
    8.0329    0.7680   -0.9310 C   0  0  0  0  0  0  0  0  0  0  0  0
    3.3651    7.2384   -3.5309 C   0  0  0  0  0  0  0  0  0  0  0  0
    8.2168    1.9809   -0.1855 C   0  0  0  0  0  0  0  0  0  0  0  0
    2.7076    3.6143   -0.3243 N   0  0  0  0  0  0  0  0  0  0  0  0
    7.1353    4.3829   -3.9511 N   0  0  0  0  0  0  0  0  0  0  0  0
    4.1243    9.3822   -2.5503 O   0  0  0  0  0  0  0  0  0  0  0  0
    8.1444   -0.5102   -0.4381 O   0  0  0  0  0  0  0  0  0  0  0  0
    4.0834    7.4690   -4.6818 O   0  0  0  0  0  0  0  0  0  0  0  0
    8.6078    1.9341    1.1212 O   0  0  0  0  0  0  0  0  0  0  0  0
  6  1  1  0
  9  7  1  0
 10  8  1  0
 18  6  1  6
 18 17  1  0
 19  7  1  0
 19 13  2  0
 20  8  1  0
 20 14  2  0
 21 11  1  1
 21 12  1  0
 21 18  1  0
 22 15  2  0
 22 19  1  0
 23 16  2  0
 23 20  1  0
 24 22  1  0
 24 11  1  6
 25 12  1  6
 25 23  1  0
 26 13  1  0
 27 14  1  0
 28 15  1  0
 28 26  2  0
 29 16  1  0
 29 27  2  0
 30  9  1  0
 30 24  1  0
 31 10  1  0
 31 17  1  0
 31 25  1  0
 32  2  1  0
 32 26  1  0
 33  3  1  0
 33 27  1  0
 34  4  1  0
 34 28  1  0
 35  5  1  0
 35 29  1  0
M  END
>  <DRUGBANK_ID>  (1) 
DB13393

>  <COMMON_NAME>  (1) 
Emetine

>  <CAS_NUMBER>  (1) 
483-18-1

>  <UNII>  (1) 
X8D5EPO80M

$$$$
