
     RDKit          3D

 33 38  0  0  0  0  0  0  0  0999 V2000
   -2.3088   -0.2329   -0.2057 N   0  0  0  0  0  0  0  0  0  0  0  0
   -0.9325   -0.1178   -0.0230 C   0  0  0  0  0  0  0  0  0  0  0  0
   -0.1148   -1.2503   -0.0119 C   0  0  0  0  0  0  0  0  0  0  0  0
    1.2386   -1.2177    0.0271 N   0  0  0  0  0  0  0  0  0  0  0  0
    1.7516    0.0223    0.0233 C   0  0  0  0  0  0  0  0  0  0  0  0
    0.9728    1.1679   -0.0210 C   0  0  0  0  0  0  0  0  0  0  0  0
   -0.3930    1.1177   -0.0247 N   0  0  0  0  0  0  0  0  0  0  0  0
    1.6474    2.4731   -0.0048 C   0  0  0  0  0  0  0  0  0  0  0  0
    2.7503    2.6535   -0.8210 C   0  0  0  0  0  0  0  0  0  0  0  0
    3.3167    3.9173   -0.8269 N   0  0  0  0  0  0  0  0  0  0  0  0
    4.1273    4.5142   -1.8164 C   0  0  0  0  0  0  0  0  0  0  0  0
    2.9961    4.9324   -2.5186 C   0  0  0  0  0  0  0  0  0  0  0  0
    2.1381    5.5281   -1.5644 N   0  0  0  0  0  0  0  0  0  0  0  0
    2.5104    4.9618   -0.3961 C   0  0  0  0  0  0  0  0  0  0  0  0
    1.6556    4.6731    0.7800 C   0  0  0  0  0  0  0  0  0  0  0  0
    1.3247    5.5292    1.8055 N   0  0  0  0  0  0  0  0  0  0  0  0
    0.6816    5.1248    3.0082 C   0  0  0  0  0  0  0  0  0  0  0  0
    1.0851    4.0006    3.7509 C   0  0  0  0  0  0  0  0  0  0  0  0
    0.3806    3.5841    4.8956 C   0  0  0  0  0  0  0  0  0  0  0  0
   -0.7522    4.2710    5.3318 C   0  0  0  0  0  0  0  0  0  0  0  0
   -1.1451    5.3969    4.5997 C   0  0  0  0  0  0  0  0  0  0  0  0
   -0.4373    5.8224    3.4630 C   0  0  0  0  0  0  0  0  0  0  0  0
   -1.4944    3.8635    6.4271 N   0  0  0  0  0  0  0  0  0  0  0  0
   -0.8150    3.5248    7.6885 C   0  0  0  0  0  0  0  0  0  0  0  0
   -1.1802    2.1188    8.1804 C   0  0  0  0  0  0  0  0  0  0  0  0
   -2.6193    1.8160    8.1696 N   0  0  0  0  0  0  0  0  0  0  0  0
   -3.1156    1.9748    6.7872 C   0  0  0  0  0  0  0  0  0  0  0  0
   -2.8632    3.3692    6.1676 C   0  0  0  0  0  0  0  0  0  0  0  0
   -3.5013    2.4864    9.1521 C   0  0  0  0  0  0  0  0  0  0  0  0
   -3.7118    4.0094    9.0694 C   0  0  0  0  0  0  0  0  0  0  0  0
   -3.4977    4.1297   10.5045 O   0  0  0  0  0  0  0  0  0  0  0  0
   -2.8498    2.8224   10.5045 C   0  0  0  0  0  0  0  0  0  0  0  0
    1.2386    3.4029    0.8757 N   0  0  0  0  0  0  0  0  0  0  0  0
  1  2  1  0
  2  3  2  0
  2  7  1  0
  3  4  1  0
  4  5  2  0
  5  6  1  0
  6  7  2  0
  6  8  1  0
  8  9  2  0
  8 33  1  0
  9 10  1  0
 10 11  1  0
 10 14  1  0
 11 12  2  0
 12 13  1  0
 13 14  2  0
 14 15  1  0
 15 16  1  0
 15 33  2  0
 16 17  1  0
 17 18  2  0
 17 22  1  0
 18 19  1  0
 19 20  2  0
 20 21  1  0
 20 23  1  0
 21 22  2  0
 23 24  1  0
 23 28  1  0
 24 25  1  0
 25 26  1  0
 26 27  1  0
 26 29  1  0
 27 28  1  0
 29 30  1  0
 29 32  1  0
 30 31  1  0
 31 32  1  0
M  END
>  <DRUGBANK_ID>  (1) 
DB14770

>  <COMMON_NAME>  (1) 
Lanraplenib

>  <CAS_NUMBER>  (1) 
1800046-95-0

>  <UNII>  (1) 
A6U64OU57E

>  <SYNONYMS>  (1) 
Lanraplenib

$$$$
