
     RDKit          3D

 23 22  0  0  0  0  0  0  0  0999 V2000
    1.0665    0.0744    0.0063 C   0  0  0  0  0  0  0  0  0  0  0  0
    0.3065    1.2787   -0.5253 C   0  0  0  0  0  0  0  0  0  0  0  0
    0.4311   -0.9325    0.4508 O   0  0  0  0  0  0  0  0  0  0  0  0
   -0.5674    0.8511   -1.6932 C   0  0  0  0  0  0  0  0  0  0  0  0
   -1.5551   -0.2058   -1.2266 C   0  0  0  0  0  0  0  0  0  0  0  0
   -2.4290    0.3691   -0.1238 C   0  0  0  0  0  0  0  0  0  0  0  0
   -3.1890    1.5733   -0.6554 C   0  0  0  0  0  0  0  0  0  0  0  0
   -4.0629    1.1458   -1.8233 C   0  0  0  0  0  0  0  0  0  0  0  0
   -5.0506    0.0888   -1.3567 C   0  0  0  0  0  0  0  0  0  0  0  0
   -5.9245    0.6637   -0.2538 C   0  0  0  0  0  0  0  0  0  0  0  0
   -6.6845    1.8680   -0.7855 C   0  0  0  0  0  0  0  0  0  0  0  0
   -7.5583    1.4404   -1.9533 C   0  0  0  0  0  0  0  0  0  0  0  0
   -8.5461    0.3835   -1.4868 C   0  0  0  0  0  0  0  0  0  0  0  0
   -9.4200    0.9584   -0.3839 C   0  0  0  0  0  0  0  0  0  0  0  0
  -10.1800    2.1626   -0.9155 C   0  0  0  0  0  0  0  0  0  0  0  0
  -11.0538    1.7351   -2.0834 C   0  0  0  0  0  0  0  0  0  0  0  0
  -12.0416    0.6782   -1.6168 C   0  0  0  0  0  0  0  0  0  0  0  0
  -12.9155    1.2530   -0.5140 C   0  0  0  0  0  0  0  0  0  0  0  0
  -13.6755    2.4573   -1.0456 C   0  0  0  0  0  0  0  0  0  0  0  0
    2.4865    0.0744    0.0063 O   0  0  0  0  0  0  0  0  0  0  0  0
    2.4865    3.0375   -1.3017 O   0  0  0  0  0  0  0  0  0  0  0  0
    3.4215    1.5559   -0.6477 Al  0  0  0  0  0  3  0  0  0  0  0  0
    5.2915    1.5559   -0.6477 O   0  0  0  0  0  0  0  0  0  0  0  0
  1  2  1  0
  1  3  2  0
  1 20  1  0
  2  4  1  0
  4  5  1  0
  5  6  1  0
  6  7  1  0
  7  8  1  0
  8  9  1  0
  9 10  1  0
 10 11  1  0
 12 11  1  0
 13 12  1  0
 14 13  1  0
 15 14  1  0
 16 15  1  0
 17 16  1  0
 18 17  1  0
 19 18  1  0
 20 22  1  0
 22 21  1  0
 22 23  1  0
M  END
>  <DRUGBANK_ID>  (1) 
DB01375

>  <COMMON_NAME>  (1) 
Aluminium monostearate

>  <CAS_NUMBER>  (1) 
7047-84-9

>  <UNII>  (1) 
P9BC99461E

>  <SYNONYMS>  (1) 
Aluminium, dihydroxide stearate; Aluminum monostearate; Aluminum stearate 300; Dibasic aluminium stearate; Dibasic aluminum stearate; Dihydroxy(stearato)aluminium; Dihydroxy(stearato)aluminum; Dihydroxyaluminum stearate

$$$$
