327
     RDKit          3D

 21 25  0  0  1  0  0  0  0  0999 V2000
   -1.7226    0.2206    2.2904 O   0  0  0  0  0  0  0  0  0  0  0  0
   -1.1748    3.4709    2.2978 O   0  0  0  0  0  0  0  0  0  0  0  0
   -1.7116   -2.8107    1.3571 O   0  0  0  0  0  0  0  0  0  0  0  0
   -5.9142    1.1551    0.5692 N   0  0  0  0  0  0  0  0  0  0  0  0
   -3.7647    1.3137    2.2818 C   0  0  2  0  0  0  0  0  0  0  0  0
   -4.9941    2.0636    2.7270 C   0  0  1  0  0  0  0  0  0  0  0  0
   -6.2058    1.2397    2.0856 C   0  0  2  0  0  0  0  0  0  0  0  0
   -2.3911    1.3968    2.9284 C   0  0  2  0  0  0  0  0  0  0  0  0
   -3.5861    1.8745    0.8261 C   0  0  0  0  0  0  0  0  0  0  0  0
   -3.9367   -0.1669    2.4533 C   0  0  0  0  0  0  0  0  0  0  0  0
   -4.6579    3.1045    3.8003 C   0  0  0  0  0  0  0  0  0  0  0  0
   -6.4321   -0.1710    2.6299 C   0  0  0  0  0  0  0  0  0  0  0  0
   -4.8936    2.0459    0.0760 C   0  0  0  0  0  0  0  0  0  0  0  0
   -5.1283   -0.8891    2.6157 C   0  0  0  0  0  0  0  0  0  0  0  0
   -3.3627    3.8866    3.3040 C   0  0  0  0  0  0  0  0  0  0  0  0
   -2.1369    2.9752    2.8468 C   0  0  0  0  0  0  0  0  0  0  0  0
   -2.7271   -0.7679    2.2263 C   0  0  0  0  0  0  0  0  0  0  0  0
   -6.2130    0.1176   -0.4016 C   0  0  0  0  0  0  0  0  0  0  0  0
   -5.1452   -2.2655    2.4440 C   0  0  0  0  0  0  0  0  0  0  0  0
   -2.7751   -2.1260    1.8729 C   0  0  0  0  0  0  0  0  0  0  0  0
   -3.9901   -2.8653    1.9731 C   0  0  0  0  0  0  0  0  0  0  0  0
  8  1  1  6
  1 17  1  0
  2 16  2  0
  3 20  1  0
  4  7  1  0
  4 13  1  0
  4 18  1  0
  5  6  1  0
  5  8  1  0
  5  9  1  6
  5 10  1  0
  6  7  1  0
  6 11  1  1
  7 12  1  1
  8 16  1  0
  9 13  1  0
 10 14  2  0
 10 17  1  0
 11 15  1  0
 12 14  1  0
 14 19  1  0
 15 16  1  0
 17 20  2  0
 19 21  2  0
 20 21  1  0
M  END
>  <DRUGBANK_ID>  (1) 
DB00327

>  <SECONDARY_ACCESSION_NUMBERS>  (1) 
APRD01021

>  <COMMON_NAME>  (1) 
Hydromorphone

>  <CAS_NUMBER>  (1) 
466-99-9

>  <UNII>  (1) 
Q812464R06

>  <SYNONYMS>  (1) 
(-)-(5R)-4,5-Epoxy-3-hydroxy-9Î±-methylmorphinan-6-one; 4,5-Epoxy-3-hydroxy-17-methylmorphinan-6-one; 4,5alpha-Epoxy-3-hydroxy-17-methyl-6-morphinanone; 6-Deoxy-7,8-dihydro-6-oxomorphine; 7,8-Dihydromorphinone; Dihydromorfinon; Dihydromorphinone; Dimorphone; Hidromorfona; Hydromorfona; Hydromorphone; Hydromorphonum; Idromorfone

$$$$
