
     RDKit          3D

 19 20  0  0  0  0  0  0  0  0999 V2000
    1.0283    0.1135   -0.0573 C   0  0  0  0  0  0  0  0  0  0  0  0
    0.5279   -0.7067    1.1127 C   0  0  0  0  0  0  0  0  0  0  0  0
    1.0546   -0.1469    2.3600 N   0  0  0  0  0  0  0  0  0  0  0  0
    0.5759   -0.9164    3.5179 C   0  0  0  0  0  0  0  0  0  0  0  0
    1.0386   -2.3843    3.4329 C   0  0  0  0  0  0  0  0  0  0  0  0
    2.2859   -2.6166    3.1489 N   0  0  0  0  0  0  0  0  0  0  0  0
    2.7435   -3.9407    3.0040 C   0  0  0  0  0  0  0  0  0  0  0  0
    1.8904   -5.0366    3.1944 C   0  0  0  0  0  0  0  0  0  0  0  0
    0.4865   -4.7295    3.5372 C   0  0  0  0  0  0  0  0  0  0  0  0
   -0.3319   -5.6282    3.7308 O   0  0  0  0  0  0  0  0  0  0  0  0
    0.1197   -3.3892    3.6331 N   0  0  0  0  0  0  0  0  0  0  0  0
   -1.2852   -3.1817    3.9674 C   0  0  0  0  0  0  0  0  0  0  0  0
    2.3792   -6.3491    3.0597 C   0  0  0  0  0  0  0  0  0  0  0  0
    1.4296   -7.7788    3.2808 Cl  0  0  0  0  0  0  0  0  0  0  0  0
    3.7186   -6.5703    2.7311 C   0  0  0  0  0  0  0  0  0  0  0  0
    4.5705   -5.4920    2.5284 C   0  0  0  0  0  0  0  0  0  0  0  0
    6.2184   -5.8028    2.1235 Cl  0  0  0  0  0  0  0  0  0  0  0  0
    4.0910   -4.1840    2.6586 C   0  0  0  0  0  0  0  0  0  0  0  0
    4.9338   -3.1161    2.4505 O   0  0  0  0  0  0  0  0  0  0  0  0
  1  2  1  0
  2  3  1  0
  3  4  1  0
  4  5  1  0
  5  6  2  0
  5 11  1  0
  6  7  1  0
  7  8  2  0
  7 18  1  0
  8  9  1  0
  8 13  1  0
  9 10  2  0
  9 11  1  0
 11 12  1  0
 13 14  1  0
 13 15  2  0
 15 16  1  0
 16 17  1  0
 16 18  2  0
 18 19  1  0
M  END
>  <DRUGBANK_ID>  (1) 
DB16965

>  <COMMON_NAME>  (1) 
PBT-434

>  <CAS_NUMBER>  (1) 
1232840-87-7

>  <UNII>  (1) 
UK4JEM5WVX

>  <SYNONYMS>  (1) 
5,7-dichloro-2-((ethylamino)methyl)-8-hydroxy-3-methylquinazolin-4(3h)-one

$$$$
