
     RDKit          3D

 17 17  0  0  1  0  0  0  0  0999 V2000
    1.0635   -0.0110   -0.1954 C   0  0  0  0  0  0  0  0  0  0  0  0
    0.5581   -1.1672    0.6646 C   0  0  1  0  0  0  0  0  0  0  0  0
    1.0557   -1.0767    2.0870 C   0  0  0  0  0  0  0  0  0  0  0  0
    1.1748    0.1507    2.7586 C   0  0  0  0  0  0  0  0  0  0  0  0
    1.5815    0.2127    4.0838 C   0  0  0  0  0  0  0  0  0  0  0  0
    1.9008   -0.9626    4.7660 C   0  0  0  0  0  0  0  0  0  0  0  0
    1.8018   -2.1884    4.0846 C   0  0  0  0  0  0  0  0  0  0  0  0
    1.3633   -2.2549    2.7727 C   0  0  0  0  0  0  0  0  0  0  0  0
    2.3443   -0.8830    6.2062 C   0  0  1  0  0  0  0  0  0  0  0  0
    1.3270   -1.5023    7.1925 C   0  0  0  0  0  0  0  0  0  0  0  0
    1.0726   -2.9356    6.9278 N   0  0  0  0  0  0  0  0  0  0  0  0
    0.1143   -3.5833    7.8329 C   0  0  0  0  0  0  0  0  0  0  0  0
   -1.2678   -2.9255    7.6963 C   0  0  0  0  0  0  0  0  0  0  0  0
    0.0038   -5.0502    7.3693 C   0  0  0  0  0  0  0  0  0  0  0  0
    0.6284   -3.5480    9.2735 C   0  0  0  0  0  0  0  0  0  0  0  0
    3.6135   -1.5194    6.3297 O   0  0  0  0  0  0  0  0  0  0  0  0
   -0.9054   -1.2044    0.6619 N   0  0  0  0  0  0  0  0  0  0  0  0
  2  1  1  6
  2  3  1  0
  2 17  1  0
  3  4  2  0
  3  8  1  0
  4  5  1  0
  5  6  2  0
  6  7  1  0
  6  9  1  0
  7  8  2  0
  9 10  1  0
  9 16  1  6
 10 11  1  0
 11 12  1  0
 12 13  1  0
 12 14  1  0
 12 15  1  0
M  END
>  <DRUGBANK_ID>  (1) 
DB12763

>  <COMMON_NAME>  (1) 
MK-1496

>  <CAS_NUMBER>  (1) 
1037254-47-9

>  <UNII>  (1) 
CS17H9370C

$$$$
