
     RDKit          3D

 30 34  0  0  1  0  0  0  0  0999 V2000
   -8.1644   -4.3772    5.7432 C   0  0  0  0  0  0  0  0  0  0  0  0
   -7.6748   -3.1285    6.2183 O   0  0  0  0  0  0  0  0  0  0  0  0
   -6.3854   -2.8375    5.8457 C   0  0  0  0  0  0  0  0  0  0  0  0
   -6.0693   -2.8931    4.4667 C   0  0  0  0  0  0  0  0  0  0  0  0
   -4.8333   -2.5200    3.9705 C   0  0  0  0  0  0  0  0  0  0  0  0
   -3.8768   -2.1008    4.9558 C   0  0  0  0  0  0  0  0  0  0  0  0
   -4.1951   -1.9450    6.3350 C   0  0  0  0  0  0  0  0  0  0  0  0
   -5.4637   -2.3611    6.8026 C   0  0  0  0  0  0  0  0  0  0  0  0
   -5.6768   -2.2770    8.1672 O   0  0  0  0  0  0  0  0  0  0  0  0
   -6.9049   -2.7720    8.7026 C   0  0  0  0  0  0  0  0  0  0  0  0
   -3.3358   -1.3965    7.2704 O   0  0  0  0  0  0  0  0  0  0  0  0
   -2.1136   -0.8145    6.8182 C   0  0  0  0  0  0  0  0  0  0  0  0
   -4.4274   -2.8725    2.5290 C   0  0  2  0  0  0  0  0  0  0  0  0
   -4.8679   -2.2396    0.9998 C   0  0  0  0  0  0  0  0  0  0  0  0
   -5.6634   -1.1089    0.7107 C   0  0  0  0  0  0  0  0  0  0  0  0
   -5.0582    0.0897    0.9647 C   0  0  0  0  0  0  0  0  0  0  0  0
   -3.7372    0.0490    1.2688 C   0  0  0  0  0  0  0  0  0  0  0  0
   -2.9466   -1.0281    0.8435 C   0  0  0  0  0  0  0  0  0  0  0  0
   -3.5855   -2.2159    0.4123 C   0  0  0  0  0  0  0  0  0  0  0  0
   -2.8229   -3.5915    0.4411 C   0  0  1  0  0  0  0  0  0  0  0  0
   -3.8361   -4.7079    0.8632 C   0  0  2  0  0  0  0  0  0  0  0  0
   -4.4697   -4.3844    2.2321 C   0  0  1  0  0  0  0  0  0  0  0  0
   -3.7204   -5.3355    3.1518 C   0  0  0  0  0  0  0  0  0  0  0  0
   -4.0085   -5.6150    4.2853 O   0  0  0  0  0  0  0  0  0  0  0  0
   -2.7442   -5.9886    2.4387 O   0  0  0  0  0  0  0  0  0  0  0  0
   -3.2218   -6.0647    1.1093 C   0  0  0  0  0  0  0  0  0  0  0  0
   -2.0650   -3.9519   -0.7065 O   0  0  0  0  0  0  0  0  0  0  0  0
   -3.4292    1.0430    2.1438 O   0  0  0  0  0  0  0  0  0  0  0  0
   -4.6115    1.8785    2.0229 C   0  0  0  0  0  0  0  0  0  0  0  0
   -5.5795    1.3330    1.0925 O   0  0  0  0  0  0  0  0  0  0  0  0
  1  2  1  0
  2  3  1  0
  3  4  2  0
  3  8  1  0
  4  5  1  0
  5  6  2  0
  6  7  1  0
  7  8  2  0
  7 11  1  0
  8  9  1  0
  9 10  1  0
 11 12  1  0
 13 14  1  0
 13 22  1  0
 13  5  1  1
 14 15  2  0
 14 19  1  0
 15 16  1  0
 16 17  2  0
 16 30  1  0
 17 18  1  0
 17 28  1  0
 18 19  2  0
 19 20  1  0
 20 21  1  0
 20 27  1  6
 21 22  1  0
 21 26  1  1
 22 23  1  1
 23 25  1  0
 23 24  2  0
 25 26  1  0
 28 29  1  0
 29 30  1  0
M  END
>  <DRUGBANK_ID>  (1) 
DB12802

>  <COMMON_NAME>  (1) 
Picropodophyllin

>  <CAS_NUMBER>  (1) 
477-47-4

>  <UNII>  (1) 
0F35AOI227

$$$$
