
     RDKit          3D

 14  9  0  0  0  0  0  0  0  0999 V2000
    1.0528    0.0784    0.0327 La  0  0  0  0  0 15  0  0  0  0  0  0
    1.0739   -0.0395    0.0546 La  0  0  0  0  0 15  0  0  0  0  0  0
    0.9730    0.0666   -0.0695 O   0  0  0  0  0  0  0  0  0  0  0  0
    3.1030   -1.0354   -0.6151 O   0  0  0  0  0  0  0  0  0  0  0  0
    0.9011    0.0049   -0.0136 O   0  0  0  0  0  0  0  0  0  0  0  0
    3.0311    1.0962   -0.5805 O   0  0  0  0  0  0  0  0  0  0  0  0
    0.9380   -0.0750    0.0231 O   0  0  0  0  0  0  0  0  0  0  0  0
    3.0680   -0.9489   -0.8421 O   0  0  0  0  0  0  0  0  0  0  0  0
    3.0284    1.0530    0.4189 O   0  0  0  0  0  0  0  0  0  0  0  0
    2.9565   -0.9718    0.4938 O   0  0  0  0  0  0  0  0  0  0  0  0
    2.9934    0.7072    0.7974 O   0  0  0  0  0  0  0  0  0  0  0  0
    2.3930    0.0666   -0.0695 C   0  0  0  0  0  0  0  0  0  0  0  0
    2.3211    0.0049   -0.0136 C   0  0  0  0  0  0  0  0  0  0  0  0
    2.3580   -0.0750    0.0231 C   0  0  0  0  0  0  0  0  0  0  0  0
  3 12  1  0
  4 12  1  0
  5 13  1  0
  6 13  1  0
  7 14  1  0
  8 14  1  0
  9 12  2  0
 10 13  2  0
 11 14  2  0
M  CHG  8   1   3   2   3   3  -1   4  -1   5  -1   6  -1   7  -1   8  -1
M  END
>  <DRUGBANK_ID>  (1) 
DB06792

>  <COMMON_NAME>  (1) 
Lanthanum carbonate

>  <CAS_NUMBER>  (1) 
587-26-8

>  <UNII>  (1) 
0M78EU4V9H

>  <SYNONYMS>  (1) 
Lanthanum (III) carbonate; Lanthanum carbonate anhydrous; Lanthanum sesquicarbonate; Lanthanum(3+) carbonate

$$$$
