P91
     RDKit          3D

 29 32  0  0  0  0  0  0  0  0999 V2000
    0.6744    1.9218   -0.0147 C   0  0  0  0  0  0  0  0  0  0  0  0
   -0.6991    1.9388    0.0154 C   0  0  0  0  0  0  0  0  0  0  0  0
   -1.3459    0.7016    0.0183 C   0  0  0  0  0  0  0  0  0  0  0  0
   -0.6872   -0.5612    0.0587 C   0  0  0  0  0  0  0  0  0  0  0  0
   -1.6755   -1.5957    0.0671 C   0  0  0  0  0  0  0  0  0  0  0  0
   -2.7576    0.4371   -0.0450 C   0  0  0  0  0  0  0  0  0  0  0  0
   -1.3916    3.2125    0.0048 C   0  0  0  0  0  0  0  0  0  0  0  0
   -1.6884   -2.7690    0.3535 O   0  0  0  0  0  0  0  0  0  0  0  0
   -3.7571    1.1327    0.0931 O   0  0  0  0  0  0  0  0  0  0  0  0
    7.7728    0.2878    1.2630 O   0  0  0  0  0  0  0  0  0  0  0  0
    4.1825   -3.0468   -0.0206 O   0  0  0  0  0  0  0  0  0  0  0  0
   -2.1471    3.6640    1.0956 C   0  0  0  0  0  0  0  0  0  0  0  0
   -2.8120   -0.9063   -0.2725 N   0  0  0  0  0  0  0  0  0  0  0  0
   -2.7852    4.8987    1.0370 C   0  0  0  0  0  0  0  0  0  0  0  0
   -2.7877    5.6258   -0.1527 C   0  0  0  0  0  0  0  0  0  0  0  0
   -2.0589    5.1774   -1.2478 C   0  0  0  0  0  0  0  0  0  0  0  0
    4.2027   -1.8113   -0.0425 C   0  0  0  0  0  0  0  0  0  0  0  0
    5.5079   -1.3283   -0.0804 N   0  0  0  0  0  0  0  0  0  0  0  0
    5.9025    0.0291   -0.1515 C   0  0  0  0  0  0  0  0  0  0  0  0
    6.4383    0.6987    1.0955 C   0  0  0  0  0  0  0  0  0  0  0  0
    2.9389   -0.9779   -0.0274 C   0  0  0  0  0  0  0  0  0  0  0  0
    1.6428   -1.5597    0.0258 C   0  0  0  0  0  0  0  0  0  0  0  0
    1.2366   -3.4038    0.0513 Br  0  0  0  0  0  0  0  0  0  0  0  0
    2.6723    0.4293   -0.0645 N   0  0  0  0  0  0  0  0  0  0  0  0
    3.5184    1.6098   -0.1279 C   0  0  0  0  0  0  0  0  0  0  0  0
    1.3254    0.6964   -0.0102 C   0  0  0  0  0  0  0  0  0  0  0  0
    0.7262   -0.5180    0.0484 C   0  0  0  0  0  0  0  0  0  0  0  0
   -1.2478    4.0591   -1.1128 C   0  0  0  0  0  0  0  0  0  0  0  0
   -2.2894    2.7462    2.5581 Cl  0  0  0  0  0  0  0  0  0  0  0  0
  1  2  2  0
  1 26  1  0
  2  3  1  0
  2  7  1  0
  3  4  2  0
  3  6  1  0
  4  5  1  0
  4 27  1  0
  5  8  2  0
  5 13  1  0
  6  9  2  0
  6 13  1  0
  7 12  2  0
  7 28  1  0
 10 20  1  0
 11 17  2  0
 12 14  1  0
 12 29  1  0
 14 15  2  0
 15 16  1  0
 16 28  2  0
 17 18  1  0
 17 21  1  0
 18 19  1  0
 19 20  1  0
 21 22  2  0
 21 24  1  0
 22 23  1  0
 22 27  1  0
 24 25  1  0
 24 26  1  0
 26 27  2  0
M  END
>  <DRUGBANK_ID>  (1) 
DB08365

>  <COMMON_NAME>  (1) 
8-bromo-4-(2-chlorophenyl)-N-(2-hydroxyethyl)-6-methyl-1,3-dioxo-1,2,3,6-tetrahydropyrrolo[3,4-e]indole-7-carboxamide

$$$$
