
     RDKit          3D

 32 33  0  0  0  0  0  0  0  0999 V2000
    0.9576   -0.3061    0.0097 O   0  0  0  0  0  0  0  0  0  0  0  0
    2.2716    2.7580   -5.1207 O   0  0  0  0  0  0  0  0  0  0  0  0
    2.1485    0.5256   -4.8739 O   0  0  0  0  0  0  0  0  0  0  0  0
    5.6950   -2.5852   -0.7686 O   0  0  0  0  0  0  0  0  0  0  0  0
    5.3350   -2.7516    3.8289 O   0  0  0  0  0  0  0  0  0  0  0  0
    3.2159   -2.1923    3.3103 O   0  0  0  0  0  0  0  0  0  0  0  0
    2.5538    0.8502   -2.2125 N   0  0  0  0  0  0  0  0  0  0  0  0
    2.9594   -1.1750    0.5894 N   0  0  0  0  0  0  0  0  0  0  0  0
    4.5923   -3.6785    0.8763 N   0  0  0  0  0  0  0  0  0  0  0  0
    2.9001    0.9376   -0.8047 C   0  0  1  0  0  0  0  0  0  0  0  0
    3.2588    1.7902   -3.0884 C   0  0  1  0  0  0  0  0  0  0  0  0
    4.8086    1.6070   -2.9899 C   0  0  0  0  0  0  0  0  0  0  0  0
    2.5534    2.3438   -0.2585 C   0  0  0  0  0  0  0  0  0  0  0  0
    5.3326    0.2410   -3.4615 C   0  0  0  0  0  0  0  0  0  0  0  0
    2.1843   -0.2333   -0.0759 C   0  0  0  0  0  0  0  0  0  0  0  0
    2.8992    2.6135    1.1781 C   0  0  0  0  0  0  0  0  0  0  0  0
    2.5283    1.6085   -4.4488 C   0  0  0  0  0  0  0  0  0  0  0  0
    4.4312   -1.2359    0.7738 C   0  0  1  0  0  0  0  0  0  0  0  0
    5.1376    0.0365   -4.9436 C   0  0  0  0  0  0  0  0  0  0  0  0
    4.9991   -1.0350    2.1961 C   0  0  0  0  0  0  0  0  0  0  0  0
    2.9932    3.8977    1.6872 C   0  0  0  0  0  0  0  0  0  0  0  0
    3.0303    1.5798    2.0877 C   0  0  0  0  0  0  0  0  0  0  0  0
    4.9671   -1.2619   -5.4302 C   0  0  0  0  0  0  0  0  0  0  0  0
    4.9192    1.1188   -5.8139 C   0  0  0  0  0  0  0  0  0  0  0  0
    4.9454   -2.5478    0.2032 C   0  0  0  0  0  0  0  0  0  0  0  0
    3.2080    4.0796    3.0609 C   0  0  0  0  0  0  0  0  0  0  0  0
    3.1988    1.7260    3.4452 C   0  0  0  0  0  0  0  0  0  0  0  0
    3.3201    2.9951    3.9362 C   0  0  0  0  0  0  0  0  0  0  0  0
    4.4780   -1.4613   -6.7218 C   0  0  0  0  0  0  0  0  0  0  0  0
    4.2885    0.9160   -7.0362 C   0  0  0  0  0  0  0  0  0  0  0  0
    4.4302   -2.0090    3.1737 C   0  0  0  0  0  0  0  0  0  0  0  0
    4.1020   -0.3735   -7.5086 C   0  0  0  0  0  0  0  0  0  0  0  0
  1 15  2  0
  2 17  1  0
  3 17  2  0
  4 25  2  0
  5 31  1  0
  6 31  2  0
  8 15  1  0
  9 25  1  0
 10  7  1  0
 10 13  1  1
 10 15  1  0
 11  7  1  0
 11 12  1  6
 11 17  1  0
 12 14  1  0
 13 16  1  0
 14 19  1  0
 16 21  2  0
 16 22  1  0
 18  8  1  0
 18 20  1  1
 18 25  1  0
 19 23  2  0
 19 24  1  0
 20 31  1  0
 21 26  1  0
 22 27  2  0
 23 29  1  0
 24 30  2  0
 26 28  2  0
 27 28  1  0
 29 32  2  0
 30 32  1  0
M  END
>  <DRUGBANK_ID>  (1) 
DB02307

>  <SECONDARY_ACCESSION_NUMBERS>  (1) 
EXPT01770

>  <COMMON_NAME>  (1) 
N-(1-carboxy-3-phenylpropyl)phenylalanyl-alpha-asparagine

$$$$
