
     RDKit          3D

 21 22  0  0  1  0  0  0  0  0999 V2000
    1.4512   -0.1299    0.0230 C   0  0  0  0  0  0  0  0  0  0  0  0
    0.6434   -1.2300    0.1401 C   0  0  0  0  0  0  0  0  0  0  0  0
   -0.7243   -1.0438    0.2838 C   0  0  0  0  0  0  0  0  0  0  0  0
   -1.3872    0.1922    0.1547 C   0  0  0  0  0  0  0  0  0  0  0  0
   -0.5378    1.3027    0.0669 C   0  0  0  0  0  0  0  0  0  0  0  0
    0.8660    1.1366    0.0015 C   0  0  0  0  0  0  0  0  0  0  0  0
   -2.9245    0.3776   -0.0035 C   0  0  0  0  0  0  0  0  0  0  0  0
   -3.3764    1.5144   -0.1494 O   0  0  0  0  0  0  0  0  0  0  0  0
   -3.8390   -0.7272   -0.0929 N   0  0  0  0  0  0  0  0  0  0  0  0
   -3.3251   -2.0123   -0.4819 C   0  0  2  0  0  0  0  0  0  0  0  0
   -2.6626   -1.8347   -1.8422 C   0  0  0  0  0  0  0  0  0  0  0  0
   -2.9814   -3.0897   -2.6291 C   0  0  2  0  0  0  0  0  0  0  0  0
   -2.8497   -4.0956   -1.5820 N   0  0  0  0  0  0  0  0  0  0  0  0
   -3.3862   -3.5620   -0.3090 C   0  0  0  0  0  0  0  0  0  0  0  0
   -2.4435   -5.4107   -1.7582 C   0  0  0  0  0  0  0  0  0  0  0  0
   -2.3414   -6.1857   -0.8035 O   0  0  0  0  0  0  0  0  0  0  0  0
   -2.0562   -5.8973   -3.1783 C   0  0  0  0  0  0  0  0  0  0  0  0
   -3.1715   -5.6887   -4.1082 N   0  0  0  0  0  0  0  0  0  0  0  0
   -2.0268   -3.0449   -3.8163 C   0  0  0  0  0  0  0  0  0  0  0  0
   -2.3396   -2.8052   -4.9819 O   0  0  0  0  0  0  0  0  0  0  0  0
   -0.7301   -3.2398   -3.4901 O   0  0  0  0  0  0  0  0  0  0  0  0
  1  2  2  0
  1  6  1  0
  2  3  1  0
  3  4  2  0
  4  5  1  0
  4  7  1  0
  5  6  2  0
  7  8  2  0
  7  9  1  0
 10  9  1  6
 10 11  1  0
 10 14  1  0
 11 12  1  0
 12 13  1  0
 12 19  1  6
 13 14  1  0
 13 15  1  0
 15 16  2  0
 15 17  1  0
 17 18  1  0
 19 20  2  0
 19 21  1  0
M  END
>  <DRUGBANK_ID>  (1) 
DB11821

>  <SECONDARY_ACCESSION_NUMBERS>  (1) 
DB06340

>  <COMMON_NAME>  (1) 
Danegaptide

>  <CAS_NUMBER>  (1) 
943134-39-2

>  <UNII>  (1) 
PA0Y7735AT

>  <SYNONYMS>  (1) 
Danegaptide

$$$$
