
     RDKit          3D

 19 19  0  0  0  0  0  0  0  0999 V2000
    1.0793    1.3349   -0.2841 C   0  0  0  0  0  0  0  0  0  0  0  0
    1.8104    0.1175   -0.1488 C   0  0  0  0  0  0  0  0  0  0  0  0
    1.2371   -1.0944   -0.5671 C   0  0  0  0  0  0  0  0  0  0  0  0
    0.1727   -0.9188   -1.4185 C   0  0  0  0  0  0  0  0  0  0  0  0
   -0.5319    0.2401   -1.6312 N   0  0  0  0  0  0  0  0  0  0  0  0
   -0.1340    1.3243   -0.9457 C   0  0  0  0  0  0  0  0  0  0  0  0
    1.6318   -2.4139   -0.1510 N   0  0  0  0  0  0  0  0  0  0  0  0
    0.9549   -3.6385   -0.0656 C   0  0  0  0  0  0  0  0  0  0  0  0
    1.6536   -4.6597    0.0074 O   0  0  0  0  0  0  0  0  0  0  0  0
   -0.5854   -3.8563    0.0329 C   0  0  0  0  0  0  0  0  0  0  0  0
   -1.2633   -3.4054    1.3334 C   0  0  0  0  0  0  0  0  0  0  0  0
   -1.1093   -1.9421    1.5448 C   0  0  0  0  0  0  0  0  0  0  0  0
   -1.7941   -1.2044    0.4108 C   0  0  0  0  0  0  0  0  0  0  0  0
   -3.2298   -0.8424    0.3539 C   0  0  0  0  0  0  0  0  0  0  0  0
   -3.5227    0.0073    1.5613 C   0  0  0  0  0  0  0  0  0  0  0  0
   -2.9513    1.4282    1.5067 C   0  0  0  0  0  0  0  0  0  0  0  0
   -3.6943    2.3573    1.1044 O   0  0  0  0  0  0  0  0  0  0  0  0
   -1.6914    1.7760    1.8451 N   0  0  0  0  0  0  0  0  0  0  0  0
   -0.6595    1.0030    2.3772 O   0  0  0  0  0  0  0  0  0  0  0  0
  1  2  2  0
  1  6  1  0
  2  3  1  0
  3  4  2  0
  3  7  1  0
  4  5  1  0
  5  6  2  0
  7  8  1  0
  8  9  2  0
  8 10  1  0
 10 11  1  0
 11 12  1  0
 12 13  1  0
 13 14  1  0
 14 15  1  0
 15 16  1  0
 16 17  2  0
 16 18  1  0
 18 19  1  0
M  END
>  <DRUGBANK_ID>  (1) 
DB12847

>  <COMMON_NAME>  (1) 
Pyroxamide

>  <CAS_NUMBER>  (1) 
382180-17-8

>  <UNII>  (1) 
12N86DSS23

$$$$
