1068
     RDKit          3D

 22 24  0  0  0  0  0  0  0  0999 V2000
   -2.1124   -0.1512   -0.1032 Cl  0  0  0  0  0  0  0  0  0  0  0  0
   -1.5582    5.5641    2.5177 O   0  0  0  0  0  0  0  0  0  0  0  0
   -0.5624    4.2697   -5.8065 O   0  0  0  0  0  0  0  0  0  0  0  0
   -0.2926    2.2178   -5.0774 O   0  0  0  0  0  0  0  0  0  0  0  0
   -0.8274    5.4177    0.3929 N   0  0  0  0  0  0  0  0  0  0  0  0
   -1.1626    2.5400    1.1177 N   0  0  0  0  0  0  0  0  0  0  0  0
   -0.4640    3.4305   -4.8997 N   0  0  0  0  0  0  0  0  0  0  0  0
   -0.5708    3.4480   -1.1145 C   0  0  0  0  0  0  0  0  0  0  0  0
   -0.7271    4.8331   -0.8793 C   0  0  0  0  0  0  0  0  0  0  0  0
   -0.5076    2.4562    0.0122 C   0  0  0  0  0  0  0  0  0  0  0  0
    0.2904    1.2061   -0.1030 C   0  0  0  0  0  0  0  0  0  0  0  0
   -0.4604    2.9964   -2.4433 C   0  0  0  0  0  0  0  0  0  0  0  0
   -0.7847    5.7332   -1.9580 C   0  0  0  0  0  0  0  0  0  0  0  0
   -2.1643    3.5707    1.3043 C   0  0  0  0  0  0  0  0  0  0  0  0
   -0.5493    3.9102   -3.5116 C   0  0  0  0  0  0  0  0  0  0  0  0
   -1.4780    4.9006    1.4810 C   0  0  0  0  0  0  0  0  0  0  0  0
   -0.7234    5.2764   -3.2732 C   0  0  0  0  0  0  0  0  0  0  0  0
   -0.3847   -0.0269   -0.0771 C   0  0  0  0  0  0  0  0  0  0  0  0
    1.6900    1.2403   -0.0616 C   0  0  0  0  0  0  0  0  0  0  0  0
    0.3382   -1.2185   -0.0436 C   0  0  0  0  0  0  0  0  0  0  0  0
    2.4052    0.0362   -0.0201 C   0  0  0  0  0  0  0  0  0  0  0  0
    1.7311   -1.1878   -0.0176 C   0  0  0  0  0  0  0  0  0  0  0  0
  1 18  1  0
  2 16  2  0
  3  7  1  0
  4  7  2  0
  5  9  1  0
  5 16  1  0
  6 10  2  0
  6 14  1  0
  7 15  1  0
  8  9  2  0
  8 10  1  0
  8 12  1  0
  9 13  1  0
 10 11  1  0
 11 18  2  0
 11 19  1  0
 12 15  2  0
 13 17  2  0
 14 16  1  0
 15 17  1  0
 18 20  1  0
 19 21  2  0
 20 22  2  0
 21 22  1  0
M  CHG  2   3  -1   7   1
M  END
>  <DRUGBANK_ID>  (1) 
DB01068

>  <SECONDARY_ACCESSION_NUMBERS>  (1) 
APRD00054

>  <COMMON_NAME>  (1) 
Clonazepam

>  <CAS_NUMBER>  (1) 
1622-61-3

>  <UNII>  (1) 
5PE9FDE8GB

>  <SYNONYMS>  (1) 
1,3-dihydro-7-nitro-5-(2-chlorophenyl)-2H-1,4.benzodiazepin-2-one; 5-(2-chloro-phenyl)-7-nitro-1,3-dihydro-benzo[e][1,4]diazepin-2-one; 5-(2-chlorophenyl)-7-nitro-1H-benzo[e][1,4]diazepin-2(3H)-one; 5-(o-chlorophenyl)-7-nitro-1,3-dihydro-2H-1,4-benzodiazepin-2-one; Clonazepam; Clonazepamum

$$$$
