
     RDKit          3D

 33 24  0  0  0  0  0  0  0  0999 V2000
    1.6803   -2.5432   -2.5770 K   0  0  0  0  0 15  0  0  0  0  0  0
    2.4302    1.4815   -3.6908 Na  0  0  0  0  0 15  0  0  0  0  0  0
   -3.3784   -1.5363   -0.5448 K   0  0  0  0  0 15  0  0  0  0  0  0
    3.3536    2.2613   -0.8201 Na  0  0  0  0  0 15  0  0  0  0  0  0
    3.0416   -2.3708    1.7095 K   0  0  0  0  0 15  0  0  0  0  0  0
   -1.8512   -0.3161    0.3976 Na  0  0  0  0  0 15  0  0  0  0  0  0
   -0.0814   -0.3259   -0.3155 C   0  0  0  0  0  0  0  0  0  0  0  0
   -0.3247    1.4386    0.7317 C   0  0  0  0  0  0  0  0  0  0  0  0
   -0.3271    1.4413    2.8758 C   0  0  0  0  0  0  0  0  0  0  0  0
    0.1610   -1.9758    0.1166 C   0  0  0  0  0  0  0  0  0  0  0  0
   -0.7568   -2.4512    0.7746 O   0  0  0  0  0  0  0  0  0  0  0  0
    1.1084   -2.6154   -0.4339 O   0  0  0  0  0  0  0  0  0  0  0  0
    0.6554    3.0446    0.1643 C   0  0  0  0  0  0  0  0  0  0  0  0
    0.0364    3.8156   -0.6224 O   0  0  0  0  0  0  0  0  0  0  0  0
    1.9536    2.9279    0.1818 O   0  0  0  0  0  0  0  0  0  0  0  0
   -0.0114    0.2002    4.3061 C   0  0  0  0  0  0  0  0  0  0  0  0
    1.2054   -0.2011    4.5497 O   0  0  0  0  0  0  0  0  0  0  0  0
   -1.0382   -0.4445    4.6286 O   0  0  0  0  0  0  0  0  0  0  0  0
   -1.5961    1.8996    0.1903 O   0  0  0  0  0  0  0  0  0  0  0  0
    1.5989    0.6126    0.2867 C   0  0  0  0  0  0  0  0  0  0  0  0
    0.7393    0.1919    1.7987 C   0  0  0  0  0  0  0  0  0  0  0  0
    1.6640    1.9478    2.2896 C   0  0  0  0  0  0  0  0  0  0  0  0
    0.8742    1.4410   -1.4022 C   0  0  0  0  0  0  0  0  0  0  0  0
   -0.2726    1.1955   -1.9246 O   0  0  0  0  0  0  0  0  0  0  0  0
    1.8080    1.9905   -2.0646 O   0  0  0  0  0  0  0  0  0  0  0  0
   -1.3041   -0.1517    2.2578 C   0  0  0  0  0  0  0  0  0  0  0  0
   -1.8247   -1.2934    2.2860 O   0  0  0  0  0  0  0  0  0  0  0  0
   -2.2243    0.7141    1.8997 O   0  0  0  0  0  0  0  0  0  0  0  0
    0.9595    3.7276    2.3411 C   0  0  0  0  0  0  0  0  0  0  0  0
   -0.2954    3.8928    2.4481 O   0  0  0  0  0  0  0  0  0  0  0  0
    1.7996    4.6282    2.0274 O   0  0  0  0  0  0  0  0  0  0  0  0
    1.2872   -1.0692    2.2458 O   0  0  0  0  0  0  0  0  0  0  0  0
    3.4684   -0.7359   -1.2242 O   0  0  0  0  0  0  0  0  0  0  0  0
  7 10  1  0
  7  8  1  0
  8 13  1  0
  8 19  1  0
  8  9  1  0
  9 16  1  0
 10 11  2  0
 10 12  1  0
 13 14  2  0
 13 15  1  0
 16 17  2  0
 16 18  1  0
 20 21  1  0
 20 23  1  0
 21 22  1  0
 21 26  1  0
 21 32  1  0
 22 29  1  0
 23 24  2  0
 23 25  1  0
 26 27  2  0
 26 28  1  0
 29 30  2  0
 29 31  1  0
M  CHG  8   1   1   2   1   3   1   4   1   5   1   6   1  12  -1  15  -1
M  CHG  4  18  -1  25  -1  28  -1  31  -1
M  END
>  <DRUGBANK_ID>  (1) 
DB16585

>  <COMMON_NAME>  (1) 
Potassium sodium hydrogen citrate

>  <CAS_NUMBER>  (1) 
55049-48-4

>  <UNII>  (1) 
X6T6YN87SU

>  <SYNONYMS>  (1) 
Hexapotassium hexasodium pentacitrate hydrate; Hexapotassium hexasodium pentacitrate hydrate complex; Potassium sodium hydrogen citrate; Sodium potassium hydrogen citrate; Uralyt-U

$$$$
