
     RDKit          3D

 19 21  0  0  0  0  0  0  0  0999 V2000
    0.2180   -1.1910   -0.0580 C   0  0  0  0  0  0  0  0  0  0  0  0
   -0.4870    0.0150   -0.0720 C   0  0  0  0  0  0  0  0  0  0  0  0
    0.2330    1.2040   -0.0470 C   0  0  0  0  0  0  0  0  0  0  0  0
    1.6060    1.1960    0.0140 C   0  0  0  0  0  0  0  0  0  0  0  0
    2.3470   -0.0150    0.0730 C   0  0  0  0  0  0  0  0  0  0  0  0
    1.5910   -1.2060    0.0220 C   0  0  0  0  0  0  0  0  0  0  0  0
   -1.9250    0.0100   -0.0200 C   0  0  0  0  0  0  0  0  0  0  0  0
   -3.0710   -0.0110    0.0770 N   0  0  0  0  0  0  0  0  0  0  0  0
    3.7631   -0.0264    0.1770 O   0  0  0  0  0  0  0  0  0  0  0  0
    4.4610   -1.2618    0.2330 C   0  0  0  0  0  0  0  0  0  0  0  0
    5.2366   -1.5503    1.3322 C   0  0  0  0  0  0  0  0  0  0  0  0
    5.9126   -2.7688    1.3635 C   0  0  0  0  0  0  0  0  0  0  0  0
    5.8190   -3.6845    0.3132 C   0  0  0  0  0  0  0  0  0  0  0  0
    5.0228   -3.3731   -0.7996 C   0  0  0  0  0  0  0  0  0  0  0  0
    4.3455   -2.1582   -0.8276 C   0  0  0  0  0  0  0  0  0  0  0  0
    6.7768   -3.3065    2.4738 C   0  0  0  0  0  0  0  0  0  0  0  0
    7.1951   -4.6253    2.0318 O   0  0  0  0  0  0  0  0  0  0  0  0
    6.6741   -4.9008    0.7742 B   0  0  0  0  0  0  0  0  0  0  0  0
    6.9486   -6.0907    0.2034 O   0  0  0  0  0  0  0  0  0  0  0  0
  1  2  2  0
  1  6  1  0
  2  3  1  0
  2  7  1  0
  3  4  2  0
  4  5  1  0
  5  6  2  0
  5  9  1  0
  7  8  3  0
  9 10  1  0
 10 11  2  0
 10 15  1  0
 11 12  1  0
 12 16  1  0
 12 13  2  0
 13 14  1  0
 13 18  1  0
 14 15  2  0
 16 17  1  0
 17 18  1  0
 18 19  1  0
M  END
>  <DRUGBANK_ID>  (1) 
DB05219

>  <COMMON_NAME>  (1) 
Crisaborole

>  <CAS_NUMBER>  (1) 
906673-24-3

>  <UNII>  (1) 
Q2R47HGR7P

>  <SYNONYMS>  (1) 
Crisaborole

$$$$
