
     RDKit          3D

 12 12  0  0  1  0  0  0  0  0999 V2000
   -1.3524   -0.4522   -0.0241 C   0  0  0  0  0  0  0  0  0  0  0  0
   -1.0823    1.0003   -0.0152 C   0  0  1  0  0  0  0  0  0  0  0  0
   -0.3987   -1.3893    0.0108 C   0  0  0  0  0  0  0  0  0  0  0  0
    0.3951    1.3913    0.0897 C   0  0  2  0  0  0  0  0  0  0  0  0
   -0.8480   -2.8132    0.0008 C   0  0  0  0  0  0  0  0  0  0  0  0
    1.3960    0.2236   -0.0821 C   0  0  2  0  0  0  0  0  0  0  0  0
   -1.6710    1.5464   -1.1930 O   0  0  0  0  0  0  0  0  0  0  0  0
    0.6097    2.0125    1.3747 O   0  0  0  0  0  0  0  0  0  0  0  0
   -2.0050   -3.2043   -0.0099 O   0  0  0  0  0  0  0  0  0  0  0  0
    0.1807   -3.6769   -0.0066 O   0  0  0  0  0  0  0  0  0  0  0  0
    2.0862    0.3398   -1.3249 O   0  0  0  0  0  0  0  0  0  0  0  0
    0.9413   -1.1166    0.0648 O   0  0  0  0  0  0  0  0  0  0  0  0
  2  1  1  0
  2  7  1  6
  3  1  2  0
  4  2  1  0
  4  8  1  1
  5  3  1  0
  6  4  1  0
  6 11  1  6
  9  5  2  0
 10  5  1  0
 12  3  1  0
 12  6  1  0
M  END
>  <DRUGBANK_ID>  (1) 
DB02305

>  <SECONDARY_ACCESSION_NUMBERS>  (1) 
EXPT01556

>  <COMMON_NAME>  (1) 
4,5-Dehydro-D-Glucuronic Acid

$$$$
