
     RDKit          3D

 22 22  0  0  1  0  0  0  0  0999 V2000
    1.2158    2.2739   -2.0137 C   0  0  0  0  0  0  0  0  0  0  0  0
    0.7262    2.3861   -0.5691 C   0  0  0  0  0  0  0  0  0  0  0  0
    0.6937    4.0729   -0.0072 Cl  0  0  0  0  0  0  0  0  0  0  0  0
    0.3818    2.9288   -3.0323 N   0  0  0  0  0  0  0  0  0  0  0  0
   -1.2704    2.2712   -3.1097 P   0  0  0  0  0  0  0  0  0  0  0  0
   -1.7283    3.7261   -3.2141 O   0  0  0  0  0  0  0  0  0  0  0  0
   -0.9977    1.8758   -4.7346 N   0  0  0  0  0  0  0  0  0  0  0  0
   -1.9156    2.5433   -5.7058 C   0  0  0  0  0  0  0  0  0  0  0  0
   -1.8232    4.0809   -5.8596 C   0  0  0  0  0  0  0  0  0  0  0  0
   -0.1642    4.5956   -6.2487 Cl  0  0  0  0  0  0  0  0  0  0  0  0
   -2.8763    1.6321   -3.1848 O   0  0  0  0  0  0  0  0  0  0  0  0
   -3.5277    1.8152   -1.8846 C   0  0  1  0  0  0  0  0  0  0  0  0
   -3.3433    3.2453   -1.2926 C   0  0  1  0  0  0  0  0  0  0  0  0
   -4.1078    3.5361   -0.0258 C   0  0  2  0  0  0  0  0  0  0  0  0
   -5.5398    3.0999   -0.1454 C   0  0  1  0  0  0  0  0  0  0  0  0
   -5.5841    1.6601   -0.6721 C   0  0  2  0  0  0  0  0  0  0  0  0
   -4.9302    1.5173   -1.9549 O   0  0  0  0  0  0  0  0  0  0  0  0
   -7.0527    1.2638   -0.8034 C   0  0  0  0  0  0  0  0  0  0  0  0
   -7.1533   -0.0783   -1.2598 O   0  0  0  0  0  0  0  0  0  0  0  0
   -6.1632    3.1898    1.1372 O   0  0  0  0  0  0  0  0  0  0  0  0
   -4.0126    4.9277    0.3080 O   0  0  0  0  0  0  0  0  0  0  0  0
   -1.9857    3.4440   -0.9109 O   0  0  0  0  0  0  0  0  0  0  0  0
  1  2  1  0
  1  4  1  0
  2  3  1  0
  4  5  1  0
  5  6  2  0
  5  7  1  0
  5 11  1  0
  7  8  1  0
  8  9  1  0
  9 10  1  0
 12 13  1  0
 12 17  1  0
 12 11  1  6
 13 14  1  0
 13 22  1  1
 14 15  1  0
 14 21  1  6
 15 16  1  0
 15 20  1  1
 16 17  1  0
 16 18  1  6
 18 19  1  0
M  END
>  <DRUGBANK_ID>  (1) 
DB06177

>  <COMMON_NAME>  (1) 
Glufosfamide

>  <CAS_NUMBER>  (1) 
132682-98-5

>  <UNII>  (1) 
1W5N8SZD9A

>  <SYNONYMS>  (1) 
Glufosfamide

$$$$
