518
     RDKit          3D

 18 19  0  0  0  0  0  0  0  0999 V2000
    0.8802   -0.0743   -0.0241 S   0  0  0  0  0  0  0  0  0  0  0  0
   -3.8123    8.2445   -2.5814 O   0  0  0  0  0  0  0  0  0  0  0  0
   -1.8554    7.9285   -1.5952 O   0  0  0  0  0  0  0  0  0  0  0  0
   -2.3252    3.7675   -1.7914 N   0  0  0  0  0  0  0  0  0  0  0  0
   -1.0179    5.4218   -1.1531 N   0  0  0  0  0  0  0  0  0  0  0  0
   -3.0923    6.0449   -2.2032 N   0  0  0  0  0  0  0  0  0  0  0  0
   -1.2185    3.1680   -1.2234 C   0  0  0  0  0  0  0  0  0  0  0  0
   -0.4212    4.2373   -0.8441 C   0  0  0  0  0  0  0  0  0  0  0  0
    0.4188    1.6110   -0.3897 C   0  0  0  0  0  0  0  0  0  0  0  0
   -0.8365    1.8357   -1.0020 C   0  0  0  0  0  0  0  0  0  0  0  0
    0.8140    4.0055   -0.2304 C   0  0  0  0  0  0  0  0  0  0  0  0
   -2.1632    5.1382   -1.7250 C   0  0  0  0  0  0  0  0  0  0  0  0
    2.7232   -0.0574   -0.0639 C   0  0  0  0  0  0  0  0  0  0  0  0
    1.2242    2.6876   -0.0129 C   0  0  0  0  0  0  0  0  0  0  0  0
    3.2626   -1.4721    0.1672 C   0  0  0  0  0  0  0  0  0  0  0  0
    2.8189   -2.4510   -0.9115 C   0  0  0  0  0  0  0  0  0  0  0  0
   -2.8494    7.4059   -2.0912 C   0  0  0  0  0  0  0  0  0  0  0  0
   -5.0353    7.8312   -3.1931 C   0  0  0  0  0  0  0  0  0  0  0  0
  1  9  1  0
  1 13  1  0
  2 17  1  0
  2 18  1  0
  3 17  2  0
  4  7  1  0
  4 12  1  0
  5  8  1  0
  5 12  2  0
  6 12  1  0
  6 17  1  0
  7  8  2  0
  7 10  1  0
  8 11  1  0
  9 10  2  0
  9 14  1  0
 11 14  2  0
 13 15  1  0
 15 16  1  0
M  END
>  <DRUGBANK_ID>  (1) 
DB00518

>  <SECONDARY_ACCESSION_NUMBERS>  (1) 
APRD00782

>  <COMMON_NAME>  (1) 
Albendazole

>  <CAS_NUMBER>  (1) 
54965-21-8

>  <UNII>  (1) 
F4216019LN

>  <SYNONYMS>  (1) 
(5-(propylthio)-1H-benzimidazol-2-yl)carbamic acid methyl ester; 5-(propylthio)-2-carbomethoxyaminobenzimidazole; Albendazol; Albendazole; Albendazolum; Eskazole; O-methyl N-(5-(propylthio)-2-benzimidazolyl)carbamate; Proftril

$$$$
