
     RDKit          3D

 35 38  0  0  1  0  0  0  0  0999 V2000
    0.6708   -0.1278   -0.3627 C   0  0  0  0  0  0  0  0  0  0  0  0
    0.2189   -0.3461    1.0683 C   0  0  1  0  0  0  0  0  0  0  0  0
    0.8636    0.8266    1.7398 C   0  0  0  0  0  0  0  0  0  0  0  0
    0.2826    1.5524    2.6333 O   0  0  0  0  0  0  0  0  0  0  0  0
    2.1538    1.1765    1.4118 N   0  0  0  0  0  0  0  0  0  0  0  0
    3.6285    0.2726    1.2091 C   0  0  1  0  0  0  0  0  0  0  0  0
    4.4927    1.2360    0.4669 C   0  0  0  0  0  0  0  0  0  0  0  0
    5.9462    0.8450    0.6644 C   0  0  0  0  0  0  0  0  0  0  0  0
    6.8503    1.7930   -0.0158 C   0  0  0  0  0  0  0  0  0  0  0  0
    6.5439    3.2035    0.4843 C   0  0  0  0  0  0  0  0  0  0  0  0
    5.0922    3.6076    0.3107 C   0  0  0  0  0  0  0  0  0  0  0  0
    4.2075    2.6374    1.0021 C   0  0  0  0  0  0  0  0  0  0  0  0
    4.7857   -0.4361    2.4715 C   0  0  0  0  0  0  0  0  0  0  0  0
    5.1598   -1.6116    2.2492 O   0  0  0  0  0  0  0  0  0  0  0  0
    5.4525    0.3192    3.5702 N   0  0  0  0  0  0  0  0  0  0  0  0
    5.2951    1.6273    4.3728 C   0  0  0  0  0  0  0  0  0  0  0  0
    6.6290    2.2586    4.4044 C   0  0  0  0  0  0  0  0  0  0  0  0
    7.5134    1.0346    4.5874 C   0  0  0  0  0  0  0  0  0  0  0  0
    6.7786   -0.2038    3.9607 C   0  0  1  0  0  0  0  0  0  0  0  0
    6.8193   -1.4658    4.8936 C   0  0  0  0  0  0  0  0  0  0  0  0
    7.4561   -2.4679    4.5434 O   0  0  0  0  0  0  0  0  0  0  0  0
    6.3620   -1.4654    6.1910 N   0  0  0  0  0  0  0  0  0  0  0  0
    5.4725   -0.6181    6.8014 C   0  0  0  0  0  0  0  0  0  0  0  0
    4.1753   -0.1879    6.5712 C   0  0  0  0  0  0  0  0  0  0  0  0
    3.7765    0.9100    7.3328 N   0  0  0  0  0  0  0  0  0  0  0  0
    4.6912    1.2428    8.2213 N   0  0  0  0  0  0  0  0  0  0  0  0
    5.9884    0.1768    8.2289 S   0  0  0  0  0  0  0  0  0  0  0  0
    3.3423   -0.6108    5.4968 C   0  0  0  0  0  0  0  0  0  0  0  0
    3.2170   -1.9529    5.0742 C   0  0  0  0  0  0  0  0  0  0  0  0
    2.5935   -2.3457    3.8934 C   0  0  0  0  0  0  0  0  0  0  0  0
    2.2904   -1.3645    3.0313 C   0  0  0  0  0  0  0  0  0  0  0  0
    2.4833   -0.0804    3.5318 C   0  0  0  0  0  0  0  0  0  0  0  0
    2.8115    0.3745    4.7323 C   0  0  0  0  0  0  0  0  0  0  0  0
   -1.2423   -0.3575    1.2510 N   0  0  0  0  0  0  0  0  0  0  0  0
   -1.5899   -0.7244    2.6347 C   0  0  0  0  0  0  0  0  0  0  0  0
  2  1  1  6
  2  3  1  0
  2 34  1  0
  3  4  2  0
  3  5  1  0
  6  5  1  1
  6  7  1  0
  6 13  1  0
  7  8  1  0
  7 12  1  0
  8  9  1  0
  9 10  1  0
 10 11  1  0
 11 12  1  0
 13 14  2  0
 13 15  1  0
 15 16  1  0
 15 19  1  0
 16 17  1  0
 17 18  1  0
 18 19  1  0
 19 20  1  1
 20 21  2  0
 20 22  1  0
 22 23  1  0
 23 24  2  0
 23 27  1  0
 24 25  1  0
 24 28  1  0
 25 26  2  0
 26 27  1  0
 28 29  2  0
 28 33  1  0
 29 30  1  0
 30 31  2  0
 31 32  1  0
 32 33  2  0
 34 35  1  0
M  END
>  <DRUGBANK_ID>  (1) 
DB12380

>  <COMMON_NAME>  (1) 
GDC-0152

>  <CAS_NUMBER>  (1) 
873652-48-3

>  <UNII>  (1) 
4KW1M48SHS

$$$$
