
     RDKit          3D

 26 30  0  0  0  0  0  0  0  0999 V2000
    2.1693    0.1826   -0.9341 N   0  0  0  0  0  0  0  0  0  0  0  0
    2.4063   -1.3259   -1.1062 C   0  0  0  0  0  0  0  0  0  0  0  0
    2.5668   -1.2852    0.2896 C   0  0  0  0  0  0  0  0  0  0  0  0
    1.1300   -0.7067    0.6346 C   0  0  0  0  0  0  0  0  0  0  0  0
   -0.2329   -1.1746    0.8961 C   0  0  0  0  0  0  0  0  0  0  0  0
   -1.3720   -0.5149    0.5343 C   0  0  0  0  0  0  0  0  0  0  0  0
   -1.2320    0.8022    0.1776 C   0  0  0  0  0  0  0  0  0  0  0  0
    0.0289    1.4060   -0.0359 C   0  0  0  0  0  0  0  0  0  0  0  0
    1.0903    0.4635   -0.0807 C   0  0  0  0  0  0  0  0  0  0  0  0
   -2.6839   -1.0371    0.2682 N   0  0  0  0  0  0  0  0  0  0  0  0
   -2.6323    1.3217    0.0122 C   0  0  0  0  0  0  0  0  0  0  0  0
   -3.5423    0.0465    0.0145 C   0  0  0  0  0  0  0  0  0  0  0  0
    3.4479   -2.5032    0.6023 C   0  0  0  0  0  0  0  0  0  0  0  0
    2.7763   -3.4123    1.5874 C   0  0  0  0  0  0  0  0  0  0  0  0
    1.2553   -3.4730    1.3782 C   0  0  0  0  0  0  0  0  0  0  0  0
    0.9417   -3.5321   -0.1656 C   0  0  0  0  0  0  0  0  0  0  0  0
    1.7220   -2.9143   -1.2028 C   0  0  0  0  0  0  0  0  0  0  0  0
    0.3952   -4.2940   -2.0038 N   0  0  0  0  0  0  0  0  0  0  0  0
    1.6894   -3.8417   -2.1991 N   0  0  0  0  0  0  0  0  0  0  0  0
   -0.1011   -3.3466   -1.0981 C   0  0  0  0  0  0  0  0  0  0  0  0
   -4.7227    0.0083   -0.1320 O   0  0  0  0  0  0  0  0  0  0  0  0
   -2.8184    2.0301   -1.3119 C   0  0  0  0  0  0  0  0  0  0  0  0
   -2.8875    2.1078    1.2827 C   0  0  0  0  0  0  0  0  0  0  0  0
   -0.5413   -2.0324   -1.9072 C   0  0  0  0  0  0  0  0  0  0  0  0
   -3.1604   -2.4529    0.1623 C   0  0  0  0  0  0  0  0  0  0  0  0
   -3.0450   -3.2757   -1.1533 C   0  0  0  0  0  0  0  0  0  0  0  0
  1  2  1  0
  1  9  1  0
  2  3  2  0
  3  4  1  0
  4  5  1  0
  4  9  2  0
  5  6  2  0
  6  7  1  0
  7  8  2  0
  8  9  1  0
 10 12  1  0
 10  6  1  0
 10 25  1  0
 11 12  1  0
 11  7  1  0
 11 22  1  0
 11 23  1  0
 12 21  2  0
 13 14  1  0
 13  3  1  0
 14 15  1  0
 15 16  1  0
 16 17  1  0
 17  2  1  0
 18 19  1  0
 18 20  1  0
 19 17  2  0
 20 16  2  0
 20 24  1  0
 25 26  1  0
M  END
>  <DRUGBANK_ID>  (1) 
DB07266

>  <COMMON_NAME>  (1) 
AKI-001

>  <CAS_NUMBER>  (1) 
925218-37-7

>  <UNII>  (1) 
LM7NL857V1

$$$$
