
     RDKit          3D

 30 33  0  0  0  0  0  0  0  0999 V2000
    0.5734   -0.2206   -2.7303 C   0  0  0  0  0  0  0  0  0  0  0  0
    1.6620   -0.0361   -0.2643 C   0  0  0  0  0  0  0  0  0  0  0  0
    3.1078   -0.0198    0.0909 C   0  0  0  0  0  0  0  0  0  0  0  0
    3.9559   -0.6037   -0.8609 C   0  0  0  0  0  0  0  0  0  0  0  0
    3.4876   -1.2541   -2.0918 C   0  0  0  0  0  0  0  0  0  0  0  0
    3.9136   -0.4444   -3.2258 N   0  0  0  0  0  0  0  0  0  0  0  0
    4.9527   -1.0000   -3.9154 C   0  0  0  0  0  0  0  0  0  0  0  0
    5.1458   -0.3974   -5.2368 C   0  0  0  0  0  0  0  0  0  0  0  0
    4.2119   -0.7422   -6.1956 C   0  0  0  0  0  0  0  0  0  0  0  0
    2.7599   -1.5280   -5.3970 C   0  0  2  0  0  0  0  0  0  0  0  0
    1.4678   -1.1925   -3.9817 O   0  0  0  0  0  0  0  0  0  0  0  0
    5.4928   -2.0533   -3.5973 O   0  0  0  0  0  0  0  0  0  0  0  0
    5.7913    0.8280   -5.3789 C   0  0  0  0  0  0  0  0  0  0  0  0
    5.7034    1.5739   -6.5622 C   0  0  0  0  0  0  0  0  0  0  0  0
    5.2762    0.9480   -7.7116 C   0  0  0  0  0  0  0  0  0  0  0  0
    4.5954   -0.2893   -7.5737 C   0  0  0  0  0  0  0  0  0  0  0  0
    5.4229    1.5929   -8.8894 F   0  0  0  0  0  0  0  0  0  0  0  0
    3.3912    0.9046   -3.5281 C   0  0  0  0  0  0  0  0  0  0  0  0
    3.4938   -3.0373   -5.1945 C   0  0  0  0  0  0  0  0  0  0  0  0
    3.9990    0.5518    1.0149 C   0  0  0  0  0  0  0  0  0  0  0  0
    5.2763    0.2797    0.5118 N   0  0  0  0  0  0  0  0  0  0  0  0
    5.2364   -0.3898   -0.6387 N   0  0  0  0  0  0  0  0  0  0  0  0
   -0.6200   -0.8342   -1.7487 C   0  0  0  0  0  0  0  0  0  0  0  0
   -0.3563   -1.3775   -0.5090 N   0  0  0  0  0  0  0  0  0  0  0  0
    0.8680   -1.1433    0.0298 C   0  0  0  0  0  0  0  0  0  0  0  0
    1.3862    0.4909   -1.6399 C   0  0  0  0  0  0  0  0  0  0  0  0
   -1.9859   -0.1690   -1.3904 N   0  0  0  0  0  0  0  0  0  0  0  0
    6.6370    0.5574    0.9382 C   0  0  0  0  0  0  0  0  0  0  0  0
    3.7593    1.2953    2.2428 C   0  0  0  0  0  0  0  0  0  0  0  0
    3.5977    1.8618    3.2058 N   0  0  0  0  0  0  0  0  0  0  0  0
  1 11  1  0
  1 23  2  0
  1 26  1  0
  2  3  1  0
  2 25  1  0
  2 26  2  0
  3  4  1  0
  3 20  2  0
  4  5  1  0
  4 22  2  0
  5  6  1  0
  6  7  1  0
  6 18  1  0
  7  8  1  0
  7 12  2  0
  8  9  2  0
  8 13  1  0
  9 10  1  0
  9 16  1  0
 10 11  1  0
 10 19  1  1
 13 14  2  0
 14 15  1  0
 15 16  2  0
 15 17  1  0
 20 21  1  0
 20 29  1  0
 21 22  1  0
 21 28  1  0
 23 24  1  0
 23 27  1  0
 24 25  2  0
 29 30  3  0
M  END
>  <DRUGBANK_ID>  (1) 
DB12130

>  <COMMON_NAME>  (1) 
Lorlatinib

>  <CAS_NUMBER>  (1) 
1454846-35-5

>  <UNII>  (1) 
OSP71S83EU

>  <SYNONYMS>  (1) 
Lorlatinib

$$$$
