
     RDKit          3D

 22 24  0  0  0  0  0  0  0  0999 V2000
    1.0827    0.1195    0.0001 C   0  0  0  0  0  0  0  0  0  0  0  0
    0.6698    1.0638   -1.0906 C   0  0  0  0  0  0  0  0  0  0  0  0
    0.9303    2.3766   -0.9224 N   0  0  0  0  0  0  0  0  0  0  0  0
    0.6157    3.1994   -1.9462 C   0  0  0  0  0  0  0  0  0  0  0  0
    0.9780    4.8530   -1.6673 Cl  0  0  0  0  0  0  0  0  0  0  0  0
    0.0350    2.7968   -3.1372 C   0  0  0  0  0  0  0  0  0  0  0  0
   -0.2602    1.4434   -3.2967 C   0  0  0  0  0  0  0  0  0  0  0  0
    0.0886    0.5708   -2.2522 C   0  0  0  0  0  0  0  0  0  0  0  0
   -0.9832    0.9400   -4.4739 C   0  0  0  0  0  0  0  0  0  0  0  0
   -0.3964    1.1025   -5.6716 N   0  0  0  0  0  0  0  0  0  0  0  0
   -1.0034    0.5596   -6.7762 N   0  0  0  0  0  0  0  0  0  0  0  0
   -2.1596   -0.1216   -6.6481 C   0  0  0  0  0  0  0  0  0  0  0  0
   -2.7278   -0.6890   -7.7615 N   0  0  0  0  0  0  0  0  0  0  0  0
   -2.7972   -0.2927   -5.4874 N   0  0  0  0  0  0  0  0  0  0  0  0
   -2.2037    0.2642   -4.4012 C   0  0  0  0  0  0  0  0  0  0  0  0
   -2.9071    0.0949   -3.1187 C   0  0  0  0  0  0  0  0  0  0  0  0
   -3.3477    1.2185   -2.3891 C   0  0  0  0  0  0  0  0  0  0  0  0
   -3.8514    1.0796   -1.0961 C   0  0  0  0  0  0  0  0  0  0  0  0
   -3.8203   -0.1668   -0.4876 C   0  0  0  0  0  0  0  0  0  0  0  0
   -4.2507   -0.2966    0.7734 F   0  0  0  0  0  0  0  0  0  0  0  0
   -3.3506   -1.2832   -1.1688 C   0  0  0  0  0  0  0  0  0  0  0  0
   -2.9823   -1.1695   -2.5108 C   0  0  0  0  0  0  0  0  0  0  0  0
  1  2  1  0
  2  3  2  0
  2  8  1  0
  3  4  1  0
  4  5  1  0
  4  6  2  0
  6  7  1  0
  7  8  2  0
  7  9  1  0
  9 10  2  0
  9 15  1  0
 10 11  1  0
 11 12  2  0
 12 13  1  0
 12 14  1  0
 14 15  2  0
 15 16  1  0
 16 17  2  0
 16 22  1  0
 17 18  1  0
 18 19  2  0
 19 20  1  0
 19 21  1  0
 21 22  2  0
M  END
>  <DRUGBANK_ID>  (1) 
DB16192

>  <COMMON_NAME>  (1) 
Imaradenant

>  <CAS_NUMBER>  (1) 
1321514-06-0

>  <UNII>  (1) 
770140J08A

>  <SYNONYMS>  (1) 
Imaradenant

$$$$
