
     RDKit          3D

 35 40  0  0  1  0  0  0  0  0999 V2000
   -2.5736   -5.8711   -0.1722 C   0  0  1  0  0  0  0  0  0  0  0  0
   -3.0583   -7.8127   -0.3592 C   0  0  0  0  0  0  0  0  0  0  0  0
   -2.0843   -8.3494   -1.5969 C   0  0  0  0  0  0  0  0  0  0  0  0
   -1.4009   -7.6531   -0.5652 C   0  0  2  0  0  0  0  0  0  0  0  0
   -0.9693   -8.8699    0.3793 C   0  0  0  0  0  0  0  0  0  0  0  0
   -0.1927   -8.5973    1.3089 O   0  0  0  0  0  0  0  0  0  0  0  0
   -1.2254  -10.2068    0.1832 N   0  0  0  0  0  0  0  0  0  0  0  0
   -2.1247  -11.0069   -0.6689 C   0  0  0  0  0  0  0  0  0  0  0  0
   -1.4322  -11.5461   -1.9132 C   0  0  0  0  0  0  0  0  0  0  0  0
   -0.6937  -10.9222   -2.8306 N   0  0  0  0  0  0  0  0  0  0  0  0
   -0.4170  -11.8533   -3.8169 C   0  0  0  0  0  0  0  0  0  0  0  0
   -1.0041  -13.0662   -3.4949 C   0  0  0  0  0  0  0  0  0  0  0  0
   -1.6520  -12.8411   -2.3123 N   0  0  0  0  0  0  0  0  0  0  0  0
   -0.8746  -14.1955   -4.2944 C   0  0  0  0  0  0  0  0  0  0  0  0
   -0.1108  -14.0351   -5.4447 C   0  0  0  0  0  0  0  0  0  0  0  0
    0.4470  -12.7906   -5.7177 C   0  0  0  0  0  0  0  0  0  0  0  0
    0.3196  -11.6761   -4.9470 N   0  0  0  0  0  0  0  0  0  0  0  0
   -2.5459   -6.5278   -1.4129 C   0  0  1  0  0  0  0  0  0  0  0  0
   -4.2970   -6.0969   -1.2348 C   0  0  0  0  0  0  0  0  0  0  0  0
   -1.8769   -6.2686   -2.7506 C   0  0  0  0  0  0  0  0  0  0  0  0
   -2.4823   -5.1650   -3.4442 C   0  0  0  0  0  0  0  0  0  0  0  0
   -2.1765   -3.9014   -2.6479 C   0  0  2  0  0  0  0  0  0  0  0  0
   -2.4962   -4.1708   -1.0774 C   0  0  2  0  0  0  0  0  0  0  0  0
   -2.0851   -2.7577   -0.5408 C   0  0  0  0  0  0  0  0  0  0  0  0
   -3.0832   -1.4287   -1.3554 C   0  0  0  0  0  0  0  0  0  0  0  0
   -3.8995   -1.4181   -3.0892 C   0  0  2  0  0  0  0  0  0  0  0  0
   -5.7729   -1.5833   -3.6144 N   0  0  0  0  0  0  0  0  0  0  0  0
   -6.9992   -1.8525   -4.9377 C   0  0  0  0  0  0  0  0  0  0  0  0
   -6.1156   -2.9063   -3.2869 C   0  0  0  0  0  0  0  0  0  0  0  0
   -7.1013   -3.4129   -2.6534 O   0  0  0  0  0  0  0  0  0  0  0  0
   -5.1424   -3.6460   -4.0106 C   0  0  0  0  0  0  0  0  0  0  0  0
   -4.8516   -3.2300   -5.2806 F   0  0  0  0  0  0  0  0  0  0  0  0
   -4.2807   -3.3306   -3.0607 C   0  0  0  0  0  0  0  0  0  0  0  0
   -3.0081   -2.7238   -3.4168 C   0  0  2  0  0  0  0  0  0  0  0  0
   -2.3186   -2.5546   -4.7757 C   0  0  0  0  0  0  0  0  0  0  0  0
  1  2  1  6
  1 18  1  0
  1 23  1  0
  2  3  1  0
  4  3  1  0
  4  5  1  1
  5  6  2  0
  5  7  1  0
  7  8  1  0
  8  9  1  0
  9 10  2  0
  9 13  1  0
 10 11  1  0
 11 12  2  0
 11 17  1  0
 12 13  1  0
 12 14  1  0
 14 15  2  0
 15 16  1  0
 16 17  2  0
 18  4  1  0
 18 20  1  0
 18 19  1  6
 20 21  1  0
 22 21  1  6
 22 34  1  0
 23 22  1  0
 23 24  1  1
 24 25  1  0
 26 25  1  1
 26 27  1  0
 27 29  1  0
 27 28  1  0
 29 31  1  0
 29 30  2  0
 31 33  2  0
 31 32  1  0
 34 33  1  0
 34 26  1  0
 34 35  1  6
M  END
>  <DRUGBANK_ID>  (1) 
DB16244

>  <COMMON_NAME>  (1) 
MK-0773

>  <CAS_NUMBER>  (1) 
606101-58-0

>  <UNII>  (1) 
5730VNW22X

$$$$
