
     RDKit          3D

 29 32  0  0  0  0  0  0  0  0999 V2000
   -0.7415    1.2505    0.3062 C   0  0  0  0  0  0  0  0  0  0  0  0
    0.6713    1.1627   -0.1600 C   0  0  0  0  0  0  0  0  0  0  0  0
    1.3482   -0.0667    0.2447 N   0  0  0  0  0  0  0  0  0  0  0  0
    0.6298   -1.2501   -0.2376 C   0  0  0  0  0  0  0  0  0  0  0  0
   -0.8036   -1.2660    0.2729 C   0  0  0  0  0  0  0  0  0  0  0  0
   -1.5444    0.0220   -0.0985 C   0  0  0  0  0  0  0  0  0  0  0  0
   -2.9285    0.0617    0.5252 C   0  0  0  0  0  0  0  0  0  0  0  0
   -3.9524    0.0163   -0.1518 O   0  0  0  0  0  0  0  0  0  0  0  0
   -3.0426    0.0833    2.0061 C   0  0  0  0  0  0  0  0  0  0  0  0
   -2.5247    1.1391    2.7691 C   0  0  0  0  0  0  0  0  0  0  0  0
   -2.5304    1.0814    4.1567 C   0  0  0  0  0  0  0  0  0  0  0  0
   -3.1586    0.0158    4.7778 C   0  0  0  0  0  0  0  0  0  0  0  0
   -3.7413   -1.0088    4.0341 C   0  0  0  0  0  0  0  0  0  0  0  0
   -3.6684   -0.9897    2.6397 C   0  0  0  0  0  0  0  0  0  0  0  0
   -3.2296   -0.0081    6.1136 F   0  0  0  0  0  0  0  0  0  0  0  0
    2.7498   -0.0875   -0.2275 C   0  0  0  0  0  0  0  0  0  0  0  0
    2.9673   -0.0300   -1.7710 C   0  0  0  0  0  0  0  0  0  0  0  0
    2.4436    1.1806   -2.4072 N   0  0  0  0  0  0  0  0  0  0  0  0
    1.3434    1.0549   -3.2651 C   0  0  0  0  0  0  0  0  0  0  0  0
    0.8311   -0.0210   -3.6027 O   0  0  0  0  0  0  0  0  0  0  0  0
    0.7093    2.3050   -3.7125 C   0  0  0  0  0  0  0  0  0  0  0  0
   -0.3354    2.2967   -4.6341 C   0  0  0  0  0  0  0  0  0  0  0  0
   -0.6834    3.4919   -5.2545 C   0  0  0  0  0  0  0  0  0  0  0  0
   -0.0827    4.6874   -4.8546 C   0  0  0  0  0  0  0  0  0  0  0  0
    0.7422    4.7154   -3.7340 C   0  0  0  0  0  0  0  0  0  0  0  0
    1.2005    3.5098   -3.2228 C   0  0  0  0  0  0  0  0  0  0  0  0
    2.2132    3.5116   -2.2757 N   0  0  0  0  0  0  0  0  0  0  0  0
    2.8848    2.3941   -1.8891 C   0  0  0  0  0  0  0  0  0  0  0  0
    3.7951    2.5167   -1.0678 O   0  0  0  0  0  0  0  0  0  0  0  0
  1  2  1  0
  1  6  1  0
  2  3  1  0
  3  4  1  0
  3 16  1  0
  4  5  1  0
  5  6  1  0
  6  7  1  0
  7  8  2  0
  7  9  1  0
  9 10  2  0
  9 14  1  0
 10 11  1  0
 11 12  2  0
 12 13  1  0
 12 15  1  0
 13 14  2  0
 16 17  1  0
 17 18  1  0
 18 19  1  0
 18 28  1  0
 19 20  2  0
 19 21  1  0
 21 22  2  0
 21 26  1  0
 22 23  1  0
 23 24  2  0
 24 25  1  0
 25 26  2  0
 26 27  1  0
 27 28  1  0
 28 29  2  0
M  END
>  <DRUGBANK_ID>  (1) 
DB12465

>  <COMMON_NAME>  (1) 
Ketanserin

>  <CAS_NUMBER>  (1) 
74050-98-9

>  <UNII>  (1) 
97F9DE4CT4

>  <SYNONYMS>  (1) 
Ketanserin; ketanserina

$$$$
