
     RDKit          3D

  6  5  0  0  0  0  0  0  0  0999 V2000
    0.9048   -0.0954   -0.0429 C   0  0  0  0  0  0  0  0  0  0  0  0
    0.5322    0.9323    1.0118 C   0  0  0  0  0  0  0  0  0  0  0  0
    1.1142    2.5934    0.6235 S   0  0  0  0  0  0  0  0  0  0  0  0
    2.8537    2.5589    0.6513 C   0  0  0  0  0  0  0  0  0  0  0  0
    3.5470    1.4548    0.9958 N   0  0  0  0  0  0  0  0  0  0  0  0
    3.4412    3.6527    0.3276 N   0  0  0  0  0  0  0  0  0  0  0  0
  1  2  1  0
  2  3  1  0
  3  4  1  0
  4  5  1  0
  4  6  2  0
M  END
>  <DRUGBANK_ID>  (1) 
DB02234

>  <SECONDARY_ACCESSION_NUMBERS>  (1) 
EXPT01944; EXPT02886; DB02539

>  <COMMON_NAME>  (1) 
S-Ethylisothiourea

>  <CAS_NUMBER>  (1) 
2986-20-1

>  <UNII>  (1) 
236P47H4VR

>  <SYNONYMS>  (1) 
2-Ethyl-2-thiopseudourea; CARBAMIMIDOTHIOIC ACID, ETHYL ESTER; Ethyron; Etiron; S-ETHYLISOTHIOURONIUM

$$$$
