
     RDKit          3D

 28 30  0  0  0  0  0  0  0  0999 V2000
   -0.4717    2.8994    3.7918 N   0  0  0  0  0  0  0  0  0  0  0  0
   -0.6114    2.0594    2.7684 C   0  0  0  0  0  0  0  0  0  0  0  0
   -1.2551    2.6602    1.6518 N   0  0  0  0  0  0  0  0  0  0  0  0
   -1.6766    3.9193    2.1580 C   0  0  0  0  0  0  0  0  0  0  0  0
   -1.0132    4.1452    3.4154 C   0  0  0  0  0  0  0  0  0  0  0  0
   -0.4125    5.5448    4.0781 C   0  0  0  0  0  0  0  0  0  0  0  0
    0.8191    5.8936    3.5697 F   0  0  0  0  0  0  0  0  0  0  0  0
   -1.2219    6.6127    3.8405 F   0  0  0  0  0  0  0  0  0  0  0  0
   -0.1802    5.5105    5.4194 F   0  0  0  0  0  0  0  0  0  0  0  0
   -0.9910    2.2844    0.1980 C   0  0  2  0  0  0  0  0  0  0  0  0
    0.1722    1.2838    0.2610 C   0  0  0  0  0  0  0  0  0  0  0  0
   -0.4880    3.1531   -1.1545 C   0  0  0  0  0  0  0  0  0  0  0  0
   -0.7955    2.4764   -2.5286 C   0  0  0  0  0  0  0  0  0  0  0  0
   -0.4775    0.9803   -2.5652 C   0  0  0  0  0  0  0  0  0  0  0  0
   -0.3594    0.5670   -4.0156 C   0  0  0  0  0  0  0  0  0  0  0  0
   -0.1250    1.8608   -4.7800 C   0  0  0  0  0  0  0  0  0  0  0  0
    0.0684    2.9537   -3.7197 C   0  0  0  0  0  0  0  0  0  0  0  0
   -0.0430    0.0735    0.1509 O   0  0  0  0  0  0  0  0  0  0  0  0
    1.4843    1.8437    0.4279 N   0  0  0  0  0  0  0  0  0  0  0  0
    1.8023    3.2657    0.5800 C   0  0  0  0  0  0  0  0  0  0  0  0
    0.8802    4.0486    1.1886 C   0  0  0  0  0  0  0  0  0  0  0  0
    0.5842    5.4093    1.1171 C   0  0  0  0  0  0  0  0  0  0  0  0
    1.6372    6.1779    0.8556 C   0  0  0  0  0  0  0  0  0  0  0  0
    2.7139    5.4260    0.3511 C   0  0  0  0  0  0  0  0  0  0  0  0
    2.8077    3.9974    0.1367 N   0  0  0  0  0  0  0  0  0  0  0  0
    1.4372    7.5875    1.3979 C   0  0  0  0  0  0  0  0  0  0  0  0
    2.5734    8.3098    1.3171 O   0  0  0  0  0  0  0  0  0  0  0  0
    0.4422    8.0091    1.8948 O   0  0  0  0  0  0  0  0  0  0  0  0
  1  2  2  0
  1  5  1  0
  2  3  1  0
  3  4  1  0
  4  5  2  0
  5  6  1  0
  6  7  1  0
  6  8  1  0
  6  9  1  0
 10 12  1  6
 10 11  1  0
 10  3  1  0
 11 18  2  0
 11 19  1  0
 12 13  1  0
 13 14  1  0
 13 17  1  0
 14 15  1  0
 15 16  1  0
 16 17  1  0
 19 20  1  0
 20 21  2  0
 20 25  1  0
 21 22  1  0
 22 23  2  0
 23 24  1  0
 23 26  1  0
 24 25  2  0
 26 27  1  0
 26 28  2  0
M  END
>  <DRUGBANK_ID>  (1) 
DB11765

>  <COMMON_NAME>  (1) 
PF-04991532

>  <CAS_NUMBER>  (1) 
1215197-37-7

>  <UNII>  (1) 
AJ212MS2O2

$$$$
