
     RDKit          3D

 11 10  0  0  0  0  0  0  0  0999 V2000
    1.0610   -0.0691   -0.0387 P   0  0  0  0  0  0  0  0  0  0  0  0
    1.1427    0.5523   -1.4426 O   0  0  0  0  0  0  0  0  0  0  0  0
    0.9458   -1.7012   -0.2854 O   0  0  0  0  0  0  0  0  0  0  0  0
   -0.6690   -0.0691   -0.0387 O   0  0  0  0  0  0  0  0  0  0  0  0
    2.7910   -0.0691   -0.0387 O   0  0  0  0  0  0  0  0  0  0  0  0
   -1.2725    1.0062   -0.7718 C   0  0  0  0  0  0  0  0  0  0  0  0
   -0.7946    2.3730   -0.2902 C   0  0  0  0  0  0  0  0  0  0  0  0
    1.9308   -2.6273   -0.7145 C   0  0  0  0  0  0  0  0  0  0  0  0
    2.7982   -2.2076   -1.8959 C   0  0  0  0  0  0  0  0  0  0  0  0
    3.6124   -0.8129    0.8550 C   0  0  0  0  0  0  0  0  0  0  0  0
    2.9770   -1.3466    2.1270 C   0  0  0  0  0  0  0  0  0  0  0  0
  1  2  2  0
  1  3  1  0
  1  4  1  0
  1  5  1  0
  3  8  1  0
  4  6  1  0
  5 10  1  0
  6  7  1  0
  8  9  1  0
 10 11  1  0
M  END
>  <DRUGBANK_ID>  (1) 
DB03347

>  <SECONDARY_ACCESSION_NUMBERS>  (1) 
EXPT03038

>  <COMMON_NAME>  (1) 
Triethyl phosphate

>  <CAS_NUMBER>  (1) 
78-40-0

>  <UNII>  (1) 
QIH4K96K7J

>  <SYNONYMS>  (1) 
Ethyl phosphate; o-Phosphoric acid triethyl ester; TEP; Triethoxyphosphine oxide; Triethylphosphate; Tris(ethyl) phosphate

$$$$
