DRL
     RDKit          3D

 12 13  0  0  0  0  0  0  0  0999 V2000
    0.9843   -0.0157    0.0643 C   0  0  0  0  0  0  0  0  0  0  0  0
    0.5370    1.4145    0.2033 C   0  0  0  0  0  0  0  0  0  0  0  0
    1.3372    2.3951   -0.0667 N   0  0  0  0  0  0  0  0  0  0  0  0
    0.8578    3.6816    0.0847 C   0  0  0  0  0  0  0  0  0  0  0  0
    1.8609    4.7768   -0.2456 C   0  0  0  0  0  0  0  0  0  0  0  0
    1.2512    6.1529   -0.5131 C   0  0  0  0  0  0  0  0  0  0  0  0
    0.1996    6.6455    0.8720 S   0  0  0  0  0  0  0  0  0  0  0  0
   -1.0159    5.3194    0.6797 C   0  0  0  0  0  0  0  0  0  0  0  0
   -0.3983    3.9705    0.4796 C   0  0  0  0  0  0  0  0  0  0  0  0
   -1.2963    2.8302    0.7614 C   0  0  0  0  0  0  0  0  0  0  0  0
   -2.4638    2.9862    1.1087 O   0  0  0  0  0  0  0  0  0  0  0  0
   -0.7535    1.5935    0.6062 N   0  0  0  0  0  0  0  0  0  0  0  0
  1  2  1  0
  2  3  2  0
  2 12  1  0
  3  4  1  0
  4  5  1  0
  4  9  2  0
  5  6  1  0
  6  7  1  0
  7  8  1  0
  8  9  1  0
  9 10  1  0
 10 11  2  0
 10 12  1  0
M  END
>  <DRUGBANK_ID>  (1) 
DB07677

>  <COMMON_NAME>  (1) 
2-methyl-3,5,7,8-tetrahydro-4H-thiopyrano[4,3-d]pyrimidin-4-one

>  <UNII>  (1) 
4GM3843TP6

$$$$
