
     RDKit          3D

 17 18  0  0  1  0  0  0  0  0999 V2000
   -1.0832   -0.0819   -0.0003 C   0  0  0  0  0  0  0  0  0  0  0  0
   -0.3317   -1.1592   -0.0157 N   0  0  0  0  0  0  0  0  0  0  0  0
    0.9532   -0.6525   -0.0169 C   0  0  0  0  0  0  0  0  0  0  0  0
    1.0085    0.6957   -0.0269 N   0  0  0  0  0  0  0  0  0  0  0  0
   -0.3052    1.0350   -0.0194 N   0  0  0  0  0  0  0  0  0  0  0  0
   -0.7196    2.4334   -0.0015 C   0  0  1  0  0  0  0  0  0  0  0  0
   -1.5666    2.8832   -1.1957 C   0  0  1  0  0  0  0  0  0  0  0  0
   -2.4226    3.9912   -0.5935 C   0  0  1  0  0  0  0  0  0  0  0  0
   -2.6097    3.5585    0.8597 C   0  0  2  0  0  0  0  0  0  0  0  0
   -1.4875    2.7094    1.1946 O   0  0  0  0  0  0  0  0  0  0  0  0
   -3.9358    2.8197    1.0981 C   0  0  0  0  0  0  0  0  0  0  0  0
   -3.9086    1.4812    0.6189 O   0  0  0  0  0  0  0  0  0  0  0  0
   -1.7310    5.2476   -0.6721 O   0  0  0  0  0  0  0  0  0  0  0  0
   -0.7989    3.3470   -2.3029 O   0  0  0  0  0  0  0  0  0  0  0  0
    2.1579   -1.5044   -0.0147 C   0  0  0  0  0  0  0  0  0  0  0  0
    3.3519   -0.9936   -0.0125 N   0  0  0  0  0  0  0  0  0  0  0  0
    1.9576   -2.8403   -0.0187 N   0  0  0  0  0  0  0  0  0  0  0  0
  1  2  2  0
  1  5  1  0
  2  3  1  0
  3  4  2  0
  3 15  1  0
  4  5  1  0
  6  5  1  6
  6  7  1  0
  6 10  1  0
  7  8  1  0
  7 14  1  6
  8  9  1  0
  8 13  1  1
  9 10  1  0
  9 11  1  6
 11 12  1  0
 15 16  2  0
 15 17  1  0
M  END
>  <DRUGBANK_ID>  (1) 
DB06408

>  <COMMON_NAME>  (1) 
Taribavirin

>  <CAS_NUMBER>  (1) 
119567-79-2

>  <UNII>  (1) 
R3B1994K2E

>  <SYNONYMS>  (1) 
Ribavirin amidine; Taribavirin; Viramidine

$$$$
