
     RDKit          3D

 18 20  0  0  0  0  0  0  0  0999 V2000
    0.8878    0.0515   -0.0576 F   0  0  0  0  0  0  0  0  0  0  0  0
    6.9343   -3.3202    0.8560 O   0  0  0  0  0  0  0  0  0  0  0  0
    6.4100    0.1756   -0.0648 O   0  0  0  0  0  0  0  0  0  0  0  0
    7.7500   -2.3791    3.4808 N   0  0  0  0  0  0  0  0  0  0  0  0
    4.7821    2.7327   -0.0546 C   0  0  0  0  0  0  0  0  0  0  0  0
    4.3166    1.3050   -0.0905 C   0  0  0  0  0  0  0  0  0  0  0  0
    3.4709    3.5542   -0.0528 C   0  0  0  0  0  0  0  0  0  0  0  0
    2.2810    2.5964   -0.0875 C   0  0  0  0  0  0  0  0  0  0  0  0
    2.9167    1.2566   -0.0823 C   0  0  0  0  0  0  0  0  0  0  0  0
    6.8920   -1.9165    1.1896 C   0  0  1  0  0  0  0  0  0  0  0  0
    7.9339   -1.5655    2.2608 C   0  0  0  0  0  0  0  0  0  0  0  0
    5.0393    0.1150   -0.1310 C   0  0  0  0  0  0  0  0  0  0  0  0
    7.1057   -1.0873   -0.0944 C   0  0  0  0  0  0  0  0  0  0  0  0
    7.7519   -3.8052    3.0980 C   0  0  0  0  0  0  0  0  0  0  0  0
    6.6972   -4.1148    2.0277 C   0  0  0  0  0  0  0  0  0  0  0  0
    2.2287    0.0597   -0.0850 C   0  0  0  0  0  0  0  0  0  0  0  0
    4.3159   -1.0954   -0.1932 C   0  0  0  0  0  0  0  0  0  0  0  0
    2.9199   -1.1263   -0.1317 C   0  0  0  0  0  0  0  0  0  0  0  0
  1 16  1  0
  2 10  1  0
  2 15  1  0
  3 12  1  0
  3 13  1  0
  4 11  1  0
  4 14  1  0
  5  6  1  0
  5  7  1  0
  6  9  2  0
  6 12  1  0
  7  8  1  0
  8  9  1  0
  9 16  1  0
 10 11  1  0
 10 13  1  6
 12 17  2  0
 14 15  1  0
 16 18  2  0
 17 18  1  0
M  END
>  <DRUGBANK_ID>  (1) 
DB09196

>  <COMMON_NAME>  (1) 
Lubazodone

>  <CAS_NUMBER>  (1) 
161178-07-0

>  <UNII>  (1) 
850TB2B172

>  <SYNONYMS>  (1) 
Lubazodone

$$$$
