450
     RDKit          3D

 28 31  0  0  1  0  0  0  0  0999 V2000
    2.3372   -0.2787    0.0564 F   0  0  0  0  0  0  0  0  0  0  0  0
   -5.4057    5.5900   -3.2737 O   0  0  0  0  0  0  0  0  0  0  0  0
   -3.9929   -1.3572    0.0384 O   0  0  0  0  0  0  0  0  0  0  0  0
   -2.1899    3.4266    0.1760 N   0  0  0  0  0  0  0  0  0  0  0  0
   -3.0403    5.9832   -3.0963 N   0  0  0  0  0  0  0  0  0  0  0  0
   -4.2034    6.8424   -4.8356 N   0  0  0  0  0  0  0  0  0  0  0  0
   -2.2243    4.8546    0.4170 C   0  0  0  0  0  0  0  0  0  0  0  0
   -1.9415    5.6462   -0.8769 C   0  0  0  0  0  0  0  0  0  0  0  0
   -2.9955    3.0752   -1.0020 C   0  0  0  0  0  0  0  0  0  0  0  0
   -2.7063    5.1650   -2.0775 C   0  0  0  0  0  0  0  0  0  0  0  0
   -2.5584    2.6364    1.3909 C   0  0  0  0  0  0  0  0  0  0  0  0
   -3.1345    3.9186   -2.1530 C   0  0  0  0  0  0  0  0  0  0  0  0
   -3.9579    2.0113    1.3319 C   0  0  0  0  0  0  0  0  0  0  0  0
   -2.1359    6.6150   -3.9449 C   0  0  0  0  0  0  0  0  0  0  0  0
   -4.2563    0.9863    0.1930 C   0  0  0  0  0  0  0  0  0  0  0  0
   -4.3381    6.0731   -3.6811 C   0  0  0  0  0  0  0  0  0  0  0  0
   -2.8585    7.1574   -4.9980 C   0  0  0  0  0  0  0  0  0  0  0  0
   -0.7588    6.6652   -3.8738 C   0  0  0  0  0  0  0  0  0  0  0  0
   -3.3963   -0.2771    0.0806 C   0  0  0  0  0  0  0  0  0  0  0  0
   -2.2389    7.8487   -6.0027 C   0  0  0  0  0  0  0  0  0  0  0  0
   -0.1097    7.3731   -4.8763 C   0  0  0  0  0  0  0  0  0  0  0  0
   -0.8449    7.9676   -5.9220 C   0  0  0  0  0  0  0  0  0  0  0  0
   -1.8645   -0.2939   -0.0569 C   0  0  0  0  0  0  0  0  0  0  0  0
   -1.0248    0.7993   -0.2391 C   0  0  0  0  0  0  0  0  0  0  0  0
   -1.1635   -1.4789    0.0180 C   0  0  0  0  0  0  0  0  0  0  0  0
    0.3513    0.8888   -0.1059 C   0  0  0  0  0  0  0  0  0  0  0  0
    0.2584   -1.4703    0.0277 C   0  0  0  0  0  0  0  0  0  0  0  0
    1.0026   -0.2868    0.0119 C   0  0  0  0  0  0  0  0  0  0  0  0
  1 28  1  0
  2 16  2  0
  3 19  2  0
  4  7  1  0
  4  9  1  0
  4 11  1  0
  5 10  1  0
  5 14  1  0
  5 16  1  0
  6 16  1  0
  6 17  1  0
  7  8  1  0
  8 10  1  0
  9 12  1  0
 10 12  2  0
 11 13  1  0
 13 15  1  0
 14 17  2  0
 14 18  1  0
 15 19  1  0
 17 20  1  0
 18 21  2  0
 19 23  1  0
 20 22  2  0
 21 22  1  0
 23 24  2  0
 23 25  1  0
 24 26  1  0
 25 27  2  0
 26 28  2  0
 27 28  1  0
M  END
>  <DRUGBANK_ID>  (1) 
DB00450

>  <SECONDARY_ACCESSION_NUMBERS>  (1) 
APRD00939

>  <COMMON_NAME>  (1) 
Droperidol

>  <CAS_NUMBER>  (1) 
548-73-2

>  <UNII>  (1) 
O9U0F09D5X

>  <SYNONYMS>  (1) 
1-(1-(3-(p-fluorobenzoyl)propyl)-1,2,3,6-tetrahydro-4-pyridyl)-2-benzimidazolinone; 1-(1-(4-(p-fluorophenyl)-4-oxobutyl)-1,2,3,6-tetrahydro-4-pyridyl)-2-benzimidazolinone; 1-{1-[4-(4-Fluoro-phenyl)-4-oxo-butyl]-1,2,3,6-tetrahydro-pyridin-4-yl}-1,3-dihydro-benzoimidazol-2-one; 1-{1-[4-(4-fluorophenyl)-4-oxobutyl]-1,2,3,6-tetrahydro-4-pyridinyl}-2,3-dihydro-1H-benzo[d]imidazol-2-one; Droperidol; Drop√©ridol; Droperidolo; Droperidolum

$$$$
