
     RDKit          3D

 31 34  0  0  0  0  0  0  0  0999 V2000
    2.3865    0.3469   -0.8755 C   0  0  0  0  0  0  0  0  0  0  0  0
    2.1878   -5.8906   -0.5786 C   0  0  0  0  0  0  0  0  0  0  0  0
    1.8902   -6.3939    0.7219 C   0  0  0  0  0  0  0  0  0  0  0  0
    2.4276   -4.5783   -0.7195 C   0  0  0  0  0  0  0  0  0  0  0  0
   -1.2337    1.5210   -0.2342 C   0  0  0  0  0  0  0  0  0  0  0  0
   -2.0056    0.4003   -0.5200 C   0  0  0  0  0  0  0  0  0  0  0  0
    4.1202   -1.0412    4.8414 C   0  0  0  0  0  0  0  0  0  0  0  0
    4.6823   -0.3771    3.7036 C   0  0  0  0  0  0  0  0  0  0  0  0
    0.1626    1.5347   -0.4523 C   0  0  0  0  0  0  0  0  0  0  0  0
    1.6884   -5.5856    1.8992 C   0  0  0  0  0  0  0  0  0  0  0  0
    2.5401   -3.8193    0.5084 C   0  0  0  0  0  0  0  0  0  0  0  0
   -1.3924   -0.7036   -1.0664 C   0  0  0  0  0  0  0  0  0  0  0  0
    2.8670   -1.7069    4.8216 C   0  0  0  0  0  0  0  0  0  0  0  0
    4.0009   -0.2640    2.5596 C   0  0  0  0  0  0  0  0  0  0  0  0
   -1.9973   -2.4000    1.5192 C   0  0  0  0  0  0  0  0  0  0  0  0
   -0.2646   -0.9871    2.3099 C   0  0  0  0  0  0  0  0  0  0  0  0
   -1.0314   -3.3849    0.8589 C   0  0  0  0  0  0  0  0  0  0  0  0
    0.7189   -1.7190    1.3368 C   0  0  0  0  0  0  0  0  0  0  0  0
   -1.6460   -2.2730    3.9602 C   0  0  0  0  0  0  0  0  0  0  0  0
   -0.9745   -3.6671    4.2259 C   0  0  0  0  0  0  0  0  0  0  0  0
    0.4972   -2.1543   -0.8646 C   0  0  0  0  0  0  0  0  0  0  0  0
    0.8423    0.3833   -0.8645 C   0  0  0  0  0  0  0  0  0  0  0  0
    2.0425   -4.2675    1.8981 C   0  0  0  0  0  0  0  0  0  0  0  0
    0.0034   -0.7565   -1.0789 C   0  0  0  0  0  0  0  0  0  0  0  0
    2.1799   -1.6833    3.6689 C   0  0  0  0  0  0  0  0  0  0  0  0
    2.6783   -0.6531    2.6828 C   0  0  0  0  0  0  0  0  0  0  0  0
    1.4025   -3.2719    3.2993 C   0  0  0  0  0  0  0  0  0  0  0  0
    1.8330    0.9401    2.3207 Cl  0  0  0  0  0  0  0  0  0  0  0  0
   -1.5208   -1.6415    2.6563 N   0  0  0  0  0  0  0  0  0  0  0  0
    0.1764   -2.6916    0.4404 N   0  0  0  0  0  0  0  0  0  0  0  0
    0.5180   -3.7929    4.4142 O   0  0  0  0  0  0  0  0  0  0  0  0
  3  2  2  0
  4  2  1  0
  6  5  2  0
  8  7  2  0
  9  5  1  0
 10  3  1  0
 11  4  2  0
 12  6  1  0
 13  7  1  0
 14  8  1  0
 17 15  1  0
 18 16  1  0
 20 19  1  0
 22  1  1  0
 22  9  2  0
 23 10  2  0
 23 11  1  0
 24 12  2  0
 24 21  1  0
 24 22  1  0
 25 13  2  0
 26 14  2  0
 26 25  1  0
 27 23  1  0
 27 25  1  0
 28 26  1  0
 29 15  1  0
 29 16  1  0
 29 19  1  0
 30 17  1  0
 30 18  1  0
 30 21  1  0
 31 20  1  0
 31 27  1  0
M  END
>  <DRUGBANK_ID>  (1) 
DB13788

>  <COMMON_NAME>  (1) 
Chlorbenzoxamine

>  <CAS_NUMBER>  (1) 
522-18-9

>  <UNII>  (1) 
N52918SLYN

>  <SYNONYMS>  (1) 
Chlorbenzoxamine

$$$$
