
     RDKit          3D

 13 15  0  0  0  0  0  0  0  0999 V2000
   -0.0611    0.7944   -0.0349 C   0  0  0  0  0  0  0  0  0  0  0  0
    0.7426   -0.4675    0.0939 C   0  0  0  0  0  0  0  0  0  0  0  0
   -0.7463   -0.5589   -0.1543 C   0  0  0  0  0  0  0  0  0  0  0  0
   -1.7487   -1.0932    0.8622 C   0  0  0  0  0  0  0  0  0  0  0  0
   -3.1406   -0.5151    0.6444 C   0  0  0  0  0  0  0  0  0  0  0  0
   -3.8556   -0.5530   -0.6971 C   0  0  0  0  0  0  0  0  0  0  0  0
   -3.4091    0.7640   -0.1294 C   0  0  0  0  0  0  0  0  0  0  0  0
   -1.8545   -2.5318    0.6940 N   0  0  0  0  0  0  0  0  0  0  0  0
   -1.5919   -3.5162    1.5965 C   0  0  0  0  0  0  0  0  0  0  0  0
   -1.0597   -4.6519    1.2970 N   0  0  0  0  0  0  0  0  0  0  0  0
   -1.1442   -5.4408    2.5311 C   0  0  0  0  0  0  0  0  0  0  0  0
   -1.6079   -4.4686    3.5897 C   0  0  0  0  0  0  0  0  0  0  0  0
   -2.0062   -3.3024    2.8716 O   0  0  0  0  0  0  0  0  0  0  0  0
  1  2  1  0
  1  3  1  0
  2  3  1  0
  3  4  1  0
  4  5  1  0
  4  8  1  0
  5  6  1  0
  5  7  1  0
  6  7  1  0
  8  9  1  0
  9 10  2  0
  9 13  1  0
 10 11  1  0
 11 12  1  0
 12 13  1  0
M  END
>  <DRUGBANK_ID>  (1) 
DB11738

>  <COMMON_NAME>  (1) 
Rilmenidine

>  <CAS_NUMBER>  (1) 
54187-04-1

>  <UNII>  (1) 
P67IM25ID8

>  <SYNONYMS>  (1) 
HYPERIUM; Rilmenidine

$$$$
