
     RDKit          3D

 18 19  0  0  0  0  0  0  0  0999 V2000
   -0.2904   -1.0932   -0.0492 N   0  0  0  0  0  0  0  0  0  0  0  0
   -0.7421   -2.4683    0.0563 C   0  0  2  0  0  0  0  0  0  0  0  0
    1.0176   -0.6782   -0.0206 C   0  0  0  0  0  0  0  0  0  0  0  0
   -1.0689    0.0379   -0.0473 C   0  0  0  0  0  0  0  0  0  0  0  0
   -1.5528   -2.8438   -1.0715 O   0  0  0  0  0  0  0  0  0  0  0  0
   -1.5318   -2.7757    1.3236 C   0  0  1  0  0  0  0  0  0  0  0  0
    0.9749    0.7071   -0.0150 C   0  0  0  0  0  0  0  0  0  0  0  0
    2.0791   -1.5080    0.0144 N   0  0  0  0  0  0  0  0  0  0  0  0
   -0.3439    1.1413   -0.0194 N   0  0  0  0  0  0  0  0  0  0  0  0
   -2.5903   -3.7415   -0.6074 C   0  0  1  0  0  0  0  0  0  0  0  0
   -2.3523   -3.9815    0.8886 C   0  0  1  0  0  0  0  0  0  0  0  0
   -0.7129   -3.0443    2.4568 O   0  0  0  0  0  0  0  0  0  0  0  0
    2.1621    1.5626    0.0027 C   0  0  0  0  0  0  0  0  0  0  0  0
   -1.6129   -5.1918    1.1109 O   0  0  0  0  0  0  0  0  0  0  0  0
    1.9504    2.9077    0.0117 N   0  0  0  0  0  0  0  0  0  0  0  0
    3.3174    1.1242    0.0048 O   0  0  0  0  0  0  0  0  0  0  0  0
   -3.9528   -3.1060   -0.8988 C   0  0  0  0  0  0  0  0  0  0  0  0
   -4.0613   -1.8053   -0.3274 O   0  0  0  0  0  0  0  0  0  0  0  0
  1  3  1  0
  1  4  1  0
  2  1  1  6
  2  5  1  0
  2  6  1  0
  3  7  2  0
  3  8  1  0
  4  9  2  0
  5 10  1  0
  6 11  1  0
  6 12  1  1
  7 13  1  0
  7  9  1  0
 10 11  1  0
 10 17  1  1
 11 14  1  6
 13 15  1  0
 13 16  2  0
 17 18  1  0
M  END
>  <DRUGBANK_ID>  (1) 
DB04944

>  <COMMON_NAME>  (1) 
Acadesine

>  <CAS_NUMBER>  (1) 
2627-69-2

>  <UNII>  (1) 
53IEF47846

>  <SYNONYMS>  (1) 
Acadesina; Acadesine; Acadesinum; AICA-riboside

$$$$
