1618
     RDKit          3D

 20 22  0  0  1  0  0  0  0  0999 V2000
    0.8371   -0.0173    1.3686 O   0  0  0  0  0  0  0  0  0  0  0  0
   -0.0037    2.2437   -2.7590 O   0  0  0  0  0  0  0  0  0  0  0  0
   -1.6689    0.0479   -0.1561 N   0  0  0  0  0  0  0  0  0  0  0  0
    3.5478    0.5280   -0.4868 N   0  0  0  0  0  0  0  0  0  0  0  0
   -0.1070   -0.0986   -2.5309 C   0  0  0  0  0  0  0  0  0  0  0  0
    0.7530   -1.3869   -2.3389 C   0  0  0  0  0  0  0  0  0  0  0  0
   -1.4709    0.0169   -1.6582 C   0  0  0  0  0  0  0  0  0  0  0  0
    2.1846   -1.2793   -1.6590 C   0  0  0  0  0  0  0  0  0  0  0  0
    1.9970    1.2757   -1.9108 C   0  0  0  0  0  0  0  0  0  0  0  0
    2.6439    0.1364   -1.4698 C   0  0  0  0  0  0  0  0  0  0  0  0
    0.6341    1.2445   -2.5196 C   0  0  0  0  0  0  0  0  0  0  0  0
    2.6222    2.3977   -1.2524 C   0  0  0  0  0  0  0  0  0  0  0  0
   -1.1075    1.2475    0.5319 C   0  0  0  0  0  0  0  0  0  0  0  0
   -1.2137   -1.1554    0.5830 C   0  0  0  0  0  0  0  0  0  0  0  0
    3.6132    1.9045   -0.4207 C   0  0  0  0  0  0  0  0  0  0  0  0
    0.3934    1.1490    0.6598 C   0  0  0  0  0  0  0  0  0  0  0  0
    0.2888   -1.1551    0.7069 C   0  0  0  0  0  0  0  0  0  0  0  0
    2.1870    3.8233   -1.3386 C   0  0  0  0  0  0  0  0  0  0  0  0
    4.5445    2.6648    0.4663 C   0  0  0  0  0  0  0  0  0  0  0  0
    2.1930    4.2241   -2.7976 C   0  0  0  0  0  0  0  0  0  0  0  0
  1 16  1  0
  1 17  1  0
  2 11  2  0
  3  7  1  0
  3 13  1  0
  3 14  1  0
  4 10  1  0
  4 15  1  0
  5  6  1  0
  5  7  1  0
  5 11  1  0
  6  8  1  0
  8 10  1  0
  9 10  2  0
  9 11  1  0
  9 12  1  0
 12 15  2  0
 12 18  1  0
 13 16  1  0
 14 17  1  0
 15 19  1  0
 18 20  1  0
M  END
>  <DRUGBANK_ID>  (1) 
DB01618

>  <COMMON_NAME>  (1) 
Molindone

>  <CAS_NUMBER>  (1) 
7416-34-4

>  <UNII>  (1) 
RT3Y3QMF8N

>  <SYNONYMS>  (1) 
(+/-)-molindone; Molindona; Molindone; Molindonum

$$$$
