
     RDKit          3D

  9  9  0  0  0  0  0  0  0  0999 V2000
    1.4704    0.0088   -0.0033 C   0  0  0  0  0  0  0  0  0  0  0  0
    0.7283    1.1975    0.0024 C   0  0  0  0  0  0  0  0  0  0  0  0
    0.7863   -1.2068   -0.0026 C   0  0  0  0  0  0  0  0  0  0  0  0
    2.9584    0.1246   -0.0101 C   0  0  0  0  0  0  0  0  0  0  0  0
   -0.6535    1.1186    0.0009 C   0  0  0  0  0  0  0  0  0  0  0  0
   -0.5994   -1.1788    0.0057 C   0  0  0  0  0  0  0  0  0  0  0  0
    3.6639   -1.0241   -0.0198 O   0  0  0  0  0  0  0  0  0  0  0  0
    3.5163    1.2124   -0.0080 O   0  0  0  0  0  0  0  0  0  0  0  0
   -1.3308   -0.0470    0.0042 N   0  0  0  0  0  0  0  0  0  0  0  0
  1  2  2  0
  1  3  1  0
  1  4  1  0
  2  5  1  0
  3  6  2  0
  4  7  1  0
  4  8  2  0
  5  9  2  0
  6  9  1  0
M  END
>  <DRUGBANK_ID>  (1) 
DB16884

>  <COMMON_NAME>  (1) 
Isonicotinic acid

>  <CAS_NUMBER>  (1) 
55-22-1

>  <UNII>  (1) 
Y8SYN761TQ

>  <SYNONYMS>  (1) 
4-Pyridinecarboxylic acid

$$$$
