
     RDKit          3D

 30 33  0  0  0  0  0  0  0  0999 V2000
    0.7284   -0.0182    0.0818 C   0  0  0  0  0  0  0  0  0  0  0  0
    0.4522    1.3715    0.5840 C   0  0  0  0  0  0  0  0  0  0  0  0
    7.5979    0.6346   -4.3258 C   0  0  0  0  0  0  0  0  0  0  0  0
    5.2808    7.0833    2.9728 C   0  0  0  0  0  0  0  0  0  0  0  0
    7.4269   -0.7504   -4.3318 C   0  0  0  0  0  0  0  0  0  0  0  0
    6.0827    6.4696    3.9333 C   0  0  0  0  0  0  0  0  0  0  0  0
    6.8737    1.4333   -3.4369 C   0  0  0  0  0  0  0  0  0  0  0  0
    4.6156    6.3055    2.0343 C   0  0  0  0  0  0  0  0  0  0  0  0
    6.5033   -1.3336   -3.4785 C   0  0  0  0  0  0  0  0  0  0  0  0
    6.2480    5.0833    3.9326 C   0  0  0  0  0  0  0  0  0  0  0  0
    5.9743    0.8484   -2.5430 C   0  0  0  0  0  0  0  0  0  0  0  0
    4.7412    4.9121    2.0524 C   0  0  0  0  0  0  0  0  0  0  0  0
    5.7854   -0.5216   -2.6128 C   0  0  0  0  0  0  0  0  0  0  0  0
    5.5803    4.3214    2.9806 C   0  0  0  0  0  0  0  0  0  0  0  0
    3.4222    1.7192    0.2571 C   0  0  0  0  0  0  0  0  0  0  0  0
    4.3283    0.9971   -0.7460 C   0  0  0  0  0  0  0  0  0  0  0  0
    4.1550    2.7399    1.1237 C   0  0  0  0  0  0  0  0  0  0  0  0
    5.2200    1.6081   -1.5556 C   0  0  0  0  0  0  0  0  0  0  0  0
    3.9836    4.0767    1.1372 C   0  0  0  0  0  0  0  0  0  0  0  0
    2.3406    2.3728   -0.6280 C   0  0  0  0  0  0  0  0  0  0  0  0
    4.1995   -0.4925   -0.8127 C   0  0  0  0  0  0  0  0  0  0  0  0
    5.1379    2.1156    2.0711 C   0  0  0  0  0  0  0  0  0  0  0  0
    5.5039    2.9569   -1.5594 O   0  0  0  0  0  0  0  0  0  0  0  0
    3.1231    4.8175    0.3607 O   0  0  0  0  0  0  0  0  0  0  0  0
    2.6710    3.1485   -1.5342 O   0  0  0  0  0  0  0  0  0  0  0  0
    3.5141   -1.1444   -0.0227 O   0  0  0  0  0  0  0  0  0  0  0  0
    5.3556    0.9081    2.0570 O   0  0  0  0  0  0  0  0  0  0  0  0
    1.0320    2.3243   -0.3148 O   0  0  0  0  0  0  0  0  0  0  0  0
    4.8600   -1.1726   -1.8057 O   0  0  0  0  0  0  0  0  0  0  0  0
    5.7788    2.9363    2.9873 O   0  0  0  0  0  0  0  0  0  0  0  0
  2  1  1  0
  5  3  2  0
  6  4  2  0
  7  3  1  0
  8  4  1  0
  9  5  1  0
 10  6  1  0
 11  7  2  0
 12  8  2  0
 13  9  2  0
 13 11  1  0
 14 10  2  0
 14 12  1  0
 16 15  1  0
 17 15  1  0
 18 11  1  0
 18 16  2  0
 19 12  1  0
 19 17  2  0
 20 15  1  0
 21 16  1  0
 22 17  1  0
 23 18  1  0
 24 19  1  0
 25 20  2  0
 26 21  2  0
 27 22  2  0
 28  2  1  0
 28 20  1  0
 29 13  1  0
 29 21  1  0
 30 14  1  0
 30 22  1  0
M  END
>  <DRUGBANK_ID>  (1) 
DB08794

>  <COMMON_NAME>  (1) 
Ethyl biscoumacetate

>  <CAS_NUMBER>  (1) 
548-00-5

>  <UNII>  (1) 
08KL644731

>  <SYNONYMS>  (1) 
Ethyl bis(4-hydroxy-2-oxo-2h-1-benzopyran-3-yl)acetate; Ethyl biscoumacetate; Ethyldicoumarol

$$$$
