IMM
     RDKit          3D

 25 27  0  0  0  0  0  0  0  0999 V2000
    1.6326    1.1508   -0.0303 N   0  0  0  0  0  0  0  0  0  0  0  0
    2.4175   -0.0107    0.0268 C   0  0  0  0  0  0  0  0  0  0  0  0
    1.6008   -1.1260    0.0123 C   0  0  0  0  0  0  0  0  0  0  0  0
    0.2611   -0.6796   -0.0104 C   0  0  0  0  0  0  0  0  0  0  0  0
   -0.9724   -1.3711   -0.0086 C   0  0  0  0  0  0  0  0  0  0  0  0
   -2.1731   -0.6639   -0.0033 C   0  0  0  0  0  0  0  0  0  0  0  0
   -2.1397    0.7257   -0.0034 C   0  0  0  0  0  0  0  0  0  0  0  0
   -0.9280    1.4346   -0.0076 C   0  0  0  0  0  0  0  0  0  0  0  0
    0.2850    0.7203   -0.0136 C   0  0  0  0  0  0  0  0  0  0  0  0
    2.0845    2.5166   -0.0641 C   0  0  0  0  0  0  0  0  0  0  0  0
    3.5102    2.9407   -0.1483 C   0  0  0  0  0  0  0  0  0  0  0  0
    4.3229    2.4942   -1.2014 C   0  0  0  0  0  0  0  0  0  0  0  0
    5.7173    2.5188   -1.0504 C   0  0  0  0  0  0  0  0  0  0  0  0
    6.2869    3.1622    0.0495 C   0  0  0  0  0  0  0  0  0  0  0  0
    5.4745    3.7815    1.0009 C   0  0  0  0  0  0  0  0  0  0  0  0
    4.0842    3.6195    0.9366 C   0  0  0  0  0  0  0  0  0  0  0  0
    3.8955   -0.1052    0.1192 C   0  0  0  0  0  0  0  0  0  0  0  0
    2.0726   -2.5463    0.0502 C   0  0  0  0  0  0  0  0  0  0  0  0
    1.5937   -3.2720    1.2750 C   0  0  0  0  0  0  0  0  0  0  0  0
   -4.5374   -0.7207    0.0106 C   0  0  0  0  0  0  0  0  0  0  0  0
    1.2499    3.4174    0.0219 O   0  0  0  0  0  0  0  0  0  0  0  0
   -3.3060   -1.4346    0.0043 O   0  0  0  0  0  0  0  0  0  0  0  0
    0.9150   -4.2947    1.2787 O   0  0  0  0  0  0  0  0  0  0  0  0
    2.0068   -2.7193    2.4328 O   0  0  0  0  0  0  0  0  0  0  0  0
    8.3500    3.1154    0.3168 I   0  0  0  0  0  0  0  0  0  0  0  0
  1  2  1  0
  1  9  1  0
  1 10  1  0
  2  3  2  0
  2 17  1  0
  3  4  1  0
  3 18  1  0
  4  5  1  0
  4  9  2  0
  5  6  2  0
  6  7  1  0
  6 22  1  0
  7  8  2  0
  8  9  1  0
 10 11  1  0
 10 21  2  0
 11 12  2  0
 11 16  1  0
 12 13  1  0
 13 14  2  0
 14 15  1  0
 14 25  1  0
 15 16  2  0
 18 19  1  0
 19 23  2  0
 19 24  1  0
 20 22  1  0
M  END
>  <DRUGBANK_ID>  (1) 
DB07983

>  <COMMON_NAME>  (1) 
1-(4-IODOBENZOYL)-5-METHOXY-2-METHYL INDOLE-3-ACETIC ACID

$$$$
