
     RDKit          3D

 36 40  0  0  0  0  0  0  0  0999 V2000
    0.9979   -0.0691    0.0519 C   0  0  0  0  0  0  0  0  0  0  0  0
    0.6132   -1.1406   -0.8310 N   0  0  0  0  0  0  0  0  0  0  0  0
   -0.3762   -2.1308   -0.4202 C   0  0  0  0  0  0  0  0  0  0  0  0
   -1.7475   -2.0579   -1.0333 C   0  0  0  0  0  0  0  0  0  0  0  0
   -2.4616   -0.9349   -1.3837 C   0  0  0  0  0  0  0  0  0  0  0  0
   -3.6500   -1.2387   -2.0983 C   0  0  0  0  0  0  0  0  0  0  0  0
   -3.8707   -2.6071   -2.2183 C   0  0  0  0  0  0  0  0  0  0  0  0
   -2.5573   -3.4764   -1.5077 S   0  0  0  0  0  0  0  0  0  0  0  0
   -5.0282   -3.0633   -2.8792 C   0  0  0  0  0  0  0  0  0  0  0  0
   -5.8500   -2.1040   -3.3933 N   0  0  0  0  0  0  0  0  0  0  0  0
   -5.5493   -0.7982   -3.2343 C   0  0  0  0  0  0  0  0  0  0  0  0
   -4.4782   -0.3051   -2.6115 N   0  0  0  0  0  0  0  0  0  0  0  0
   -6.4710    0.1941   -3.7821 C   0  0  0  0  0  0  0  0  0  0  0  0
   -7.8005    0.2999   -3.3701 C   0  0  0  0  0  0  0  0  0  0  0  0
   -8.6351    1.2761   -3.9220 C   0  0  0  0  0  0  0  0  0  0  0  0
   -8.1279    2.1424   -4.8814 C   0  0  0  0  0  0  0  0  0  0  0  0
   -6.8437    2.0787   -5.2905 N   0  0  0  0  0  0  0  0  0  0  0  0
   -6.0536    1.1229   -4.7313 C   0  0  0  0  0  0  0  0  0  0  0  0
   -8.8487    3.1277   -5.4999 O   0  0  0  0  0  0  0  0  0  0  0  0
  -10.2068    3.2623   -5.1004 C   0  0  0  0  0  0  0  0  0  0  0  0
   -5.4437   -4.3795   -2.9688 N   0  0  0  0  0  0  0  0  0  0  0  0
   -5.5879   -4.9793   -4.3035 C   0  0  0  0  0  0  0  0  0  0  0  0
   -6.6366   -6.1073   -4.2153 C   0  0  0  0  0  0  0  0  0  0  0  0
   -6.2907   -7.0818   -3.2096 O   0  0  0  0  0  0  0  0  0  0  0  0
   -6.1810   -6.4484   -1.9233 C   0  0  0  0  0  0  0  0  0  0  0  0
   -5.0970   -5.3637   -1.9389 C   0  0  0  0  0  0  0  0  0  0  0  0
    0.9195   -1.0101   -2.1641 C   0  0  0  0  0  0  0  0  0  0  0  0
   -0.0512   -1.2517   -3.0392 N   0  0  0  0  0  0  0  0  0  0  0  0
    0.1869   -1.1238   -4.3530 C   0  0  0  0  0  0  0  0  0  0  0  0
    1.4031   -0.8290   -4.8924 C   0  0  0  0  0  0  0  0  0  0  0  0
    2.3681   -0.6234   -3.9181 C   0  0  0  0  0  0  0  0  0  0  0  0
    2.1451   -0.6645   -2.5691 N   0  0  0  0  0  0  0  0  0  0  0  0
    1.7522   -0.7228   -6.3309 C   0  0  0  0  0  0  0  0  0  0  0  0
    2.9234   -0.4739   -6.6108 O   0  0  0  0  0  0  0  0  0  0  0  0
    0.8771   -0.8799   -7.3693 N   0  0  0  0  0  0  0  0  0  0  0  0
   -0.4775   -1.1746   -7.4293 O   0  0  0  0  0  0  0  0  0  0  0  0
  1  2  1  0
  2  3  1  0
  2 27  1  0
  3  4  1  0
  4  5  2  0
  4  8  1  0
  5  6  1  0
  6  7  2  0
  6 12  1  0
  7  8  1  0
  7  9  1  0
  9 10  2  0
  9 21  1  0
 10 11  1  0
 11 12  2  0
 11 13  1  0
 13 14  2  0
 13 18  1  0
 14 15  1  0
 15 16  2  0
 16 17  1  0
 16 19  1  0
 17 18  2  0
 19 20  1  0
 21 22  1  0
 21 26  1  0
 22 23  1  0
 23 24  1  0
 24 25  1  0
 25 26  1  0
 27 28  2  0
 27 32  1  0
 28 29  1  0
 29 30  2  0
 30 31  1  0
 30 33  1  0
 31 32  2  0
 33 34  2  0
 33 35  1  0
 35 36  1  0
M  END
>  <DRUGBANK_ID>  (1) 
DB11891

>  <COMMON_NAME>  (1) 
Fimepinostat

>  <CAS_NUMBER>  (1) 
1339928-25-4

>  <UNII>  (1) 
3S9RX35S5X

>  <SYNONYMS>  (1) 
5-pyrimidinecarboxamide, N-hydroxy-2-[[[2-(6-methoxy-3-pyridinyl)-4-(4-morpholinyl)thieno[3,2-d]pyrimidin-6-yl]methyl]methylamino]-; N-hydroxy-2-(((2-(6-methoxypyridin-3-yl)-4-morpholinothieno[3,2-d]pyrimidin-6-yl)methyl)(methyl)amino)pyrimidine-5-carboxamide; PI3K/HDAC inhibitor CUDC-907

$$$$
