
     RDKit          3D

 33 34  0  0  0  0  0  0  0  0999 V2000
    4.9335    1.2397   -4.4794 C   0  0  0  0  0  0  0  0  0  0  0  0
    4.0938    2.1472   -3.8556 C   0  0  0  0  0  0  0  0  0  0  0  0
    3.4158    1.8096   -2.6870 C   0  0  0  0  0  0  0  0  0  0  0  0
    3.7035    0.6132   -2.0276 C   0  0  0  0  0  0  0  0  0  0  0  0
    4.5510   -0.3016   -2.6209 C   0  0  0  0  0  0  0  0  0  0  0  0
    5.1185   -0.0054   -3.8615 C   0  0  0  0  0  0  0  0  0  0  0  0
    2.2994    2.6982   -2.2371 C   0  0  0  0  0  0  0  0  0  0  0  0
    1.0526    1.9469   -2.2414 N   0  0  0  0  0  0  0  0  0  0  0  0
    7.9199    0.4451   -5.1880 P   0  0  2  0  0  0  0  0  0  0  0  0
    7.9705    0.0373   -6.6380 O   0  0  0  0  0  0  0  0  0  0  0  0
    9.2501    1.5140   -4.2311 C   0  0  2  0  0  0  0  0  0  0  0  0
   10.6428    1.8947   -4.9481 C   0  0  0  0  0  0  0  0  0  0  0  0
   11.7006    2.7431   -4.1046 C   0  0  0  0  0  0  0  0  0  0  0  0
   11.3917    0.6753   -5.4083 C   0  0  0  0  0  0  0  0  0  0  0  0
    9.5166    1.0139   -2.8069 N   0  0  0  0  0  0  0  0  0  0  0  0
    8.1551    0.7991   -1.8298 S   0  0  0  0  0  0  0  0  0  0  0  0
    7.3728   -0.1239   -2.5795 O   0  0  0  0  0  0  0  0  0  0  0  0
    8.6362    0.3921   -0.5128 O   0  0  0  0  0  0  0  0  0  0  0  0
    7.3196    2.4453   -1.6624 C   0  0  0  0  0  0  0  0  0  0  0  0
    8.1734    3.4280   -0.8620 C   0  0  0  0  0  0  0  0  0  0  0  0
    9.4342    3.8746   -1.6126 C   0  0  0  0  0  0  0  0  0  0  0  0
    9.1157    4.7703   -2.7999 C   0  0  0  0  0  0  0  0  0  0  0  0
    8.7064    6.0583   -2.7084 C   0  0  0  0  0  0  0  0  0  0  0  0
    8.4525    6.7993   -3.8937 C   0  0  0  0  0  0  0  0  0  0  0  0
    8.5580    6.2756   -5.1984 C   0  0  0  0  0  0  0  0  0  0  0  0
    8.9983    5.0129   -5.3281 C   0  0  0  0  0  0  0  0  0  0  0  0
    9.2464    4.3937   -4.1225 C   0  0  0  0  0  0  0  0  0  0  0  0
    9.0483   -0.5819   -4.7086 O   0  0  0  0  0  0  0  0  0  0  0  0
    5.6223    1.5715   -5.7886 C   0  0  1  0  0  0  0  0  0  0  0  0
    4.8091    2.3804   -6.7694 C   0  0  0  0  0  0  0  0  0  0  0  0
    4.3724    1.9518   -7.8275 O   0  0  0  0  0  0  0  0  0  0  0  0
    4.4797    3.6229   -6.3727 O   0  0  0  0  0  0  0  0  0  0  0  0
    7.0687    2.0502   -5.5342 C   0  0  0  0  0  0  0  0  0  0  0  0
  1  2  2  0
  1  6  1  0
  2  3  1  0
  3  4  2  0
  3  7  1  0
  4  5  1  0
  5  6  2  0
  7  8  1  0
  9 10  2  0
  9 28  1  6
  9 33  1  0
 11 15  1  1
 11 12  1  0
 11  9  1  0
 12 13  1  0
 12 14  1  0
 15 16  1  0
 16 17  2  0
 16 18  2  0
 16 19  1  0
 19 20  1  0
 20 21  1  0
 21 22  1  0
 22 23  2  0
 22 27  1  0
 23 24  1  0
 24 25  2  0
 25 26  1  0
 26 27  2  0
 29 30  1  0
 29 33  1  1
 29  1  1  0
 30 31  2  0
 30 32  1  0
M  END
>  <DRUGBANK_ID>  (1) 
DB07136

>  <COMMON_NAME>  (1) 
BX-528

>  <CAS_NUMBER>  (1) 
607837-17-2

>  <UNII>  (1) 
60045PL22T

$$$$
