
     RDKit          3D

 30 32  0  0  1  0  0  0  0  0999 V2000
    1.9711    3.3201    0.7712 C   0  0  0  0  0  0  0  0  0  0  0  0
    1.6986    6.1480    0.0727 C   0  0  0  0  0  0  0  0  0  0  0  0
    1.3062    5.2520   -2.4050 C   0  0  0  0  0  0  0  0  0  0  0  0
    1.2708    3.7984   -2.9205 C   0  0  0  0  0  0  0  0  0  0  0  0
    1.8843    4.3239    1.8886 C   0  0  0  0  0  0  0  0  0  0  0  0
    1.1060    7.3566   -0.0882 C   0  0  0  0  0  0  0  0  0  0  0  0
    2.2971    5.6835    1.3864 C   0  0  0  0  0  0  0  0  0  0  0  0
    1.0884    8.3929    0.9223 C   0  0  0  0  0  0  0  0  0  0  0  0
    2.1336    8.8279    1.6720 C   0  0  0  0  0  0  0  0  0  0  0  0
    3.5078    8.2811    1.6494 C   0  0  0  0  0  0  0  0  0  0  0  0
    1.9196    9.8924    2.7233 C   0  0  0  0  0  0  0  0  0  0  0  0
    4.1747    8.0435    0.5020 C   0  0  0  0  0  0  0  0  0  0  0  0
    2.4825    9.5102    4.1016 C   0  0  2  0  0  0  0  0  0  0  0  0
    3.9143    8.9813    4.0312 C   0  0  0  0  0  0  0  0  0  0  0  0
    1.6311    8.5655    4.7558 O   0  0  0  0  0  0  0  0  0  0  0  0
   -0.0610    1.0988   -0.3855 C   0  0  0  0  0  0  0  0  0  0  0  0
    0.5726    1.5775   -1.7010 C   0  0  2  0  0  0  0  0  0  0  0  0
    1.4179    0.3695   -2.1645 C   0  0  0  0  0  0  0  0  0  0  0  0
    0.5272   -0.8645   -2.3841 C   0  0  0  0  0  0  0  0  0  0  0  0
    0.7991   -1.4721   -5.2641 C   0  0  0  0  0  0  0  0  0  0  0  0
   -1.1991   -0.0190   -5.7675 C   0  0  0  0  0  0  0  0  0  0  0  0
   -0.5991   -0.5932   -3.3963 C   0  0  0  0  0  0  0  0  0  0  0  0
    1.4272    2.8680   -1.6689 C   0  0  2  0  0  0  0  0  0  0  0  0
    1.8603    5.1045   -0.9899 C   0  0  2  0  0  0  0  0  0  0  0  0
    1.1931    3.8076   -0.4753 C   0  0  2  0  0  0  0  0  0  0  0  0
   -0.3036    4.1472   -0.1902 C   0  0  0  0  0  0  0  0  0  0  0  0
   -0.0560   -0.2907   -4.8052 C   0  0  0  0  0  0  0  0  0  0  0  0
    0.7190    0.9079   -4.8125 O   0  0  0  0  0  0  0  0  0  0  0  0
    4.0413    7.8539    3.0205 C   0  0  2  0  0  0  0  0  0  0  0  0
    5.3965    7.4165    2.9603 O   0  0  0  0  0  0  0  0  0  0  0  0
  1  5  1  0
  2  6  2  0
  2  7  1  0
  3  4  1  0
  5  7  1  0
  6  8  1  0
  8  9  2  0
  9 10  1  0
  9 11  1  0
 10 29  1  0
 10 12  2  0
 11 13  1  0
 13 15  1  6
 13 14  1  0
 17 18  1  0
 17 16  1  1
 18 19  1  0
 19 22  1  0
 22 27  1  0
 23  4  1  6
 23 17  1  0
 24 25  1  0
 24  2  1  0
 24  3  1  6
 25 23  1  0
 25  1  1  0
 25 26  1  1
 27 20  1  0
 27 21  1  0
 27 28  1  0
 29 14  1  0
 29 30  1  6
M  END
>  <DRUGBANK_ID>  (1) 
DB00136

>  <SECONDARY_ACCESSION_NUMBERS>  (1) 
NUTR00003; APRD00246; DB05314

>  <COMMON_NAME>  (1) 
Calcitriol

>  <CAS_NUMBER>  (1) 
32222-06-3

>  <UNII>  (1) 
FXC9231JVH

>  <SYNONYMS>  (1) 
(1S,3R,5Z,7E)-9,10-secocholesta-5,7,10-triene-1,3,25-triol; (1α,3β,5Z,7E)-9,10-secocholesta-5,7,10(19)-triene-1,3,25-triol; (5Z,7E)-(1S,3R)-9,10-secocholesta-5,7,10(19)-triene-1,3,25-triol; 1-alpha-25-Dihydroxyvitamin D3; 1,25-DHCC; 1,25-dihydroxycholecalciferol; 1α,25-dihydroxycholecalciferol; 1α,25-dihydroxyvitamin D3; 1α,25(OH)2D3; Calcitriol; Calcitriolum

$$$$
