
     RDKit          3D

 22 23  0  0  0  0  0  0  0  0999 V2000
    1.7625    0.1675    0.2573 C   0  0  0  0  0  0  0  0  0  0  0  0
   -2.7362   -3.1918    0.0799 C   0  0  0  0  0  0  0  0  0  0  0  0
   -2.6841   -0.6177   -0.1770 C   0  0  0  0  0  0  0  0  0  0  0  0
   -2.3254   -3.4897   -2.9530 C   0  0  0  0  0  0  0  0  0  0  0  0
    2.3593   -2.7756   -3.3799 C   0  0  0  0  0  0  0  0  0  0  0  0
    2.6469   -0.2704   -2.8784 C   0  0  0  0  0  0  0  0  0  0  0  0
    1.0934   -0.8131   -0.3257 C   0  0  0  0  0  0  0  0  0  0  0  0
   -0.4063   -0.5464   -0.4903 C   0  0  0  0  0  0  0  0  0  0  0  0
   -0.4936   -2.5825   -1.5627 C   0  0  0  0  0  0  0  0  0  0  0  0
   -2.4327    0.1185   -4.3753 C   0  0  0  0  0  0  0  0  0  0  0  0
   -1.8353   -2.2715   -0.6586 C   0  0  0  0  0  0  0  0  0  0  0  0
   -2.1652   -1.7493   -2.9926 C   0  0  0  0  0  0  0  0  0  0  0  0
   -1.5456   -0.6253   -2.1485 C   0  0  0  0  0  0  0  0  0  0  0  0
    0.4416   -1.4174   -2.6605 C   0  0  0  0  0  0  0  0  0  0  0  0
   -1.8265    0.5020   -3.0414 C   0  0  0  0  0  0  0  0  0  0  0  0
   -2.4341   -1.3856   -4.4024 C   0  0  0  0  0  0  0  0  0  0  0  0
    0.4836   -1.1213   -4.1440 C   0  0  0  0  0  0  0  0  0  0  0  0
   -0.0867   -1.9210   -5.2246 C   0  0  0  0  0  0  0  0  0  0  0  0
    1.7432   -1.4507   -3.3132 C   0  0  0  0  0  0  0  0  0  0  0  0
   -1.5809    1.6887   -2.6999 O   0  0  0  0  0  0  0  0  0  0  0  0
    0.6376   -2.3353   -6.1207 O   0  0  0  0  0  0  0  0  0  0  0  0
   -1.4491   -1.9986   -5.2969 O   0  0  0  0  0  0  0  0  0  0  0  0
  7  1  2  0
  8  7  1  0
 11  2  1  0
 11  3  1  0
 11  9  2  3
 12  4  1  0
 13  8  1  0
 13 12  2  0
 14  9  1  0
 15 10  1  0
 15 13  1  0
 16 10  1  0
 16 12  1  0
 17 14  1  0
 18 17  1  0
 19  5  1  0
 19  6  1  0
 19 14  1  0
 19 17  1  0
 20 15  2  0
 21 18  2  0
 22 16  1  0
 22 18  1  0
M  END
>  <DRUGBANK_ID>  (1) 
DB13746

>  <COMMON_NAME>  (1) 
Bioallethrin

>  <CAS_NUMBER>  (1) 
584-79-2

>  <UNII>  (1) 
0X03II877M

>  <SYNONYMS>  (1) 
Depall√©thrine

$$$$
