
     RDKit          3D

 30 34  0  0  0  0  0  0  0  0999 V2000
    5.4988    7.3211    4.2311 C   0  0  1  0  0  0  0  0  0  0  0  0
    4.7640    6.6404    5.9089 C   0  0  1  0  0  0  0  0  0  0  0  0
    6.5997    3.7810    0.1425 C   0  0  0  0  0  0  0  0  0  0  0  0
    5.5208    5.8667    3.7291 C   0  0  2  0  0  0  0  0  0  0  0  0
    5.9206    5.2671    2.3304 C   0  0  2  0  0  0  0  0  0  0  0  0
    5.1020    5.5571    0.8950 C   0  0  2  0  0  0  0  0  0  0  0  0
    5.3706    4.3068   -0.5344 C   0  0  2  0  0  0  0  0  0  0  0  0
    7.3344    3.3256   -0.9412 C   0  0  0  0  0  0  0  0  0  0  0  0
    5.1534    5.1620    6.5488 C   0  0  0  0  0  0  0  0  0  0  0  0
    6.4169    3.1778    1.4027 C   0  0  0  0  0  0  0  0  0  0  0  0
    7.0736    1.9512   -1.2232 C   0  0  0  0  0  0  0  0  0  0  0  0
    4.7071    7.7777    2.6400 C   0  0  0  0  0  0  0  0  0  0  0  0
    5.7768    3.8048    2.5471 C   0  0  0  0  0  0  0  0  0  0  0  0
    4.4107    7.2506    7.2740 O   0  0  0  0  0  0  0  0  0  0  0  0
    5.5342    7.2316    1.1841 C   0  0  0  0  0  0  0  0  0  0  0  0
    3.9565    5.5919    3.9563 C   0  0  0  0  0  0  0  0  0  0  0  0
    5.1925    4.3042    7.4361 C   0  0  0  0  0  0  0  0  0  0  0  0
    4.9658    2.6766   -1.6225 C   0  0  0  0  0  0  0  0  0  0  0  0
    3.4890    6.5820    8.2296 C   0  0  0  0  0  0  0  0  0  0  0  0
    3.5017    6.5052    5.0958 C   0  0  0  0  0  0  0  0  0  0  0  0
    6.5696    1.1380   -0.2446 O   0  0  0  0  0  0  0  0  0  0  0  0
    3.7179    5.8971    9.2376 O   0  0  0  0  0  0  0  0  0  0  0  0
    6.3231    1.9374   -2.4228 C   0  0  0  0  0  0  0  0  0  0  0  0
    6.6596    8.4645    4.0834 C   0  0  0  0  0  0  0  0  0  0  0  0
    7.6160    0.3845    0.2915 C   0  0  0  0  0  0  0  0  0  0  0  0
    2.1247    7.1273    8.0129 C   0  0  0  0  0  0  0  0  0  0  0  0
    8.8918    1.2046    0.4894 C   0  0  0  0  0  0  0  0  0  0  0  0
    7.8537   -0.6434   -0.7859 C   0  0  0  0  0  0  0  0  0  0  0  0
    9.9431    0.4225   -0.2464 C   0  0  0  0  0  0  0  0  0  0  0  0
    9.3158   -0.9036   -0.6781 C   0  0  0  0  0  0  0  0  0  0  0  0
  1 24  1  1
  2  1  1  0
  2 14  1  0
  2  9  1  1
  3  7  1  0
  4  1  1  0
  5  4  1  0
  5  6  1  0
  6 15  1  6
  7  6  1  0
  8  3  1  0
  8 11  2  0
 10 13  1  0
 10  3  2  0
 11 23  1  0
 12  1  1  0
  5 13  1  1
 15 12  1  0
  4 16  1  6
 17  9  3  0
  7 18  1  1
 19 14  1  0
 20  2  1  0
 20 16  1  0
 21 11  1  0
 22 19  2  0
 23 18  1  0
 25 21  1  0
 26 19  1  0
 27 25  1  0
 28 25  1  0
 29 27  1  0
 29 30  1  0
 30 28  1  0
M  END
>  <DRUGBANK_ID>  (1) 
DB14679

>  <COMMON_NAME>  (1) 
Quingestanol acetate

>  <CAS_NUMBER>  (1) 
3000-39-3

>  <UNII>  (1) 
M33GGZ63KG

>  <SYNONYMS>  (1) 
Norethindrone acetate 3-cyclopentyl enol ether; Quingestanol acetate

$$$$
