
     RDKit          3D

 32 36  0  0  1  0  0  0  0  0999 V2000
    1.9339   -0.2331   -0.5887 C   0  0  0  0  0  0  0  0  0  0  0  0
    0.8767   -0.1111    0.5008 C   0  0  2  0  0  0  0  0  0  0  0  0
   -0.2440   -1.1221    0.3620 C   0  0  0  0  0  0  0  0  0  0  0  0
   -1.2826   -0.4087   -0.3087 O   0  0  0  0  0  0  0  0  0  0  0  0
   -0.9334    0.8995   -0.1931 C   0  0  0  0  0  0  0  0  0  0  0  0
    0.2232    1.1797    0.3299 N   0  0  0  0  0  0  0  0  0  0  0  0
   -1.8651    1.7831   -0.6285 N   0  0  0  0  0  0  0  0  0  0  0  0
   -1.6319    3.1638   -0.6398 C   0  0  0  0  0  0  0  0  0  0  0  0
   -0.5110    3.6928   -1.2814 C   0  0  0  0  0  0  0  0  0  0  0  0
   -0.2168    5.0547   -1.2040 C   0  0  0  0  0  0  0  0  0  0  0  0
   -1.0106    5.9270   -0.4818 C   0  0  0  0  0  0  0  0  0  0  0  0
   -2.1380    5.4172    0.1851 C   0  0  0  0  0  0  0  0  0  0  0  0
   -2.4461    4.0326    0.0847 C   0  0  0  0  0  0  0  0  0  0  0  0
   -2.8686    6.3632    0.9210 C   0  0  0  0  0  0  0  0  0  0  0  0
   -2.5123    7.6669    0.9472 N   0  0  0  0  0  0  0  0  0  0  0  0
   -1.4358    8.0302    0.2507 C   0  0  0  0  0  0  0  0  0  0  0  0
   -0.6595    7.2149   -0.4617 N   0  0  0  0  0  0  0  0  0  0  0  0
   -4.0838    5.9948    1.5686 N   0  0  0  0  0  0  0  0  0  0  0  0
   -4.7870    6.9249    2.3636 C   0  0  0  0  0  0  0  0  0  0  0  0
   -5.4354    7.9852    1.7292 C   0  0  0  0  0  0  0  0  0  0  0  0
   -6.0771    8.9753    2.4652 C   0  0  0  0  0  0  0  0  0  0  0  0
   -5.9679    8.9965    3.8590 C   0  0  0  0  0  0  0  0  0  0  0  0
   -5.1165    8.0589    4.4723 C   0  0  0  0  0  0  0  0  0  0  0  0
   -4.6654    6.9470    3.7503 C   0  0  0  0  0  0  0  0  0  0  0  0
   -4.5399    8.1397    6.1098 Cl  0  0  0  0  0  0  0  0  0  0  0  0
   -6.8284    9.8914    4.4387 O   0  0  0  0  0  0  0  0  0  0  0  0
   -7.1190    9.8172    5.8427 C   0  0  0  0  0  0  0  0  0  0  0  0
   -7.9207    8.5851    6.2677 C   0  0  0  0  0  0  0  0  0  0  0  0
   -8.8668    8.6058    7.1935 N   0  0  0  0  0  0  0  0  0  0  0  0
   -9.2562    7.3110    7.5125 C   0  0  0  0  0  0  0  0  0  0  0  0
   -8.5277    6.3060    6.9247 C   0  0  0  0  0  0  0  0  0  0  0  0
   -7.6782    6.9877    5.6311 S   0  0  0  0  0  0  0  0  0  0  0  0
  2  1  1  6
  2  3  1  0
  2  6  1  0
  3  4  1  0
  4  5  1  0
  5  6  2  0
  5  7  1  0
  7  8  1  0
  8  9  2  0
  8 13  1  0
  9 10  1  0
 10 11  2  0
 11 12  1  0
 11 17  1  0
 12 13  2  0
 12 14  1  0
 14 15  2  0
 14 18  1  0
 15 16  1  0
 16 17  2  0
 18 19  1  0
 19 20  2  0
 19 24  1  0
 20 21  1  0
 21 22  2  0
 22 23  1  0
 22 26  1  0
 23 24  2  0
 23 25  1  0
 26 27  1  0
 27 28  1  0
 28 29  2  0
 28 32  1  0
 29 30  1  0
 30 31  2  0
 31 32  1  0
M  END
>  <DRUGBANK_ID>  (1) 
DB05944

>  <SECONDARY_ACCESSION_NUMBERS>  (1) 
DB12723

>  <COMMON_NAME>  (1) 
Varlitinib

>  <CAS_NUMBER>  (1) 
845272-21-1

>  <UNII>  (1) 
846Y8197W1

>  <SYNONYMS>  (1) 
Varlitinib

$$$$
