5CN
     RDKit          3D

 25 27  0  0  0  0  0  0  0  0999 V2000
    1.4451   -0.1673    0.0312 C   0  0  0  0  0  0  0  0  0  0  0  0
    0.5478   -1.2629    0.0049 C   0  0  0  0  0  0  0  0  0  0  0  0
   -0.8455   -1.0928   -0.0208 C   0  0  0  0  0  0  0  0  0  0  0  0
    4.2086   -2.4416   -0.1164 C   0  0  0  0  0  0  0  0  0  0  0  0
    3.5129   -1.2694   -0.8113 C   0  0  0  0  0  0  0  0  0  0  0  0
    3.5559    0.0403    1.3120 C   0  0  0  0  0  0  0  0  0  0  0  0
    4.2304   -1.1393    2.0266 C   0  0  0  0  0  0  0  0  0  0  0  0
    5.0728   -1.9903    1.0675 C   0  0  0  0  0  0  0  0  0  0  0  0
    5.6760   -3.1995    1.7868 C   0  0  0  0  0  0  0  0  0  0  0  0
   -2.8595    0.4468   -0.1730 C   0  0  0  0  0  0  0  0  0  0  0  0
    1.2360    3.6180   -0.3573 C   0  0  0  0  0  0  0  0  0  0  0  0
    2.2264    4.6378   -0.6546 C   0  0  0  0  0  0  0  0  0  0  0  0
    3.2369    4.7085   -1.5927 C   0  0  0  0  0  0  0  0  0  0  0  0
    3.2616    7.9656    0.0438 C   0  0  0  0  0  0  0  0  0  0  0  0
   -1.3863    0.1849   -0.0039 C   0  0  0  0  0  0  0  0  0  0  0  0
   -0.5122    1.2714    0.0751 C   0  0  0  0  0  0  0  0  0  0  0  0
    0.8829    1.1394   -0.0051 C   0  0  0  0  0  0  0  0  0  0  0  0
    2.8132   -0.4044    0.1336 N   0  0  0  0  0  0  0  0  0  0  0  0
   -3.3911    1.1647    0.9287 O   0  0  0  0  0  0  0  0  0  0  0  0
    1.7047    2.2982   -0.2238 N   0  0  0  0  0  0  0  0  0  0  0  0
    0.0624    3.9588   -0.2559 O   0  0  0  0  0  0  0  0  0  0  0  0
    3.8117    6.0027   -1.4901 C   0  0  0  0  0  0  0  0  0  0  0  0
    3.1101    6.6582   -0.5053 C   0  0  0  0  0  0  0  0  0  0  0  0
    2.1303    5.8536   -0.0081 O   0  0  0  0  0  0  0  0  0  0  0  0
    3.4406    9.0265    0.4727 N   0  0  0  0  0  0  0  0  0  0  0  0
  1 18  1  0
  1  2  2  0
  1 17  1  0
  2  3  1  0
  3 15  2  0
  4  8  1  0
  4  5  1  0
  5 18  1  0
  6  7  1  0
  6 18  1  0
  7  8  1  0
  8  9  1  0
 10 15  1  0
 10 19  1  0
 11 12  1  0
 11 20  1  0
 11 21  2  0
 12 24  1  0
 12 13  2  0
 13 22  1  0
 14 25  3  0
 14 23  1  0
 15 16  1  0
 16 17  2  0
 17 20  1  0
 22 23  2  0
 23 24  1  0
M  END
>  <DRUGBANK_ID>  (1) 
DB07167

>  <COMMON_NAME>  (1) 
5-CYANO-FURAN-2-CARBOXYLIC ACID [5-HYDROXYMETHYL-2-(4-METHYL-PIPERIDIN-1-YL)-PHENYL]-AMIDE

$$$$
