S13
     RDKit          3D

 22 24  0  0  0  0  0  0  0  0999 V2000
   -1.0420    1.2026    0.1304 C   0  0  0  0  0  0  0  0  0  0  0  0
    0.3472    1.2022    0.0477 C   0  0  0  0  0  0  0  0  0  0  0  0
    1.0421   -0.0066    0.0172 C   0  0  0  0  0  0  0  0  0  0  0  0
    2.5388   -0.0122   -0.0208 C   0  0  0  0  0  0  0  0  0  0  0  0
    0.3419   -1.2169    0.0292 C   0  0  0  0  0  0  0  0  0  0  0  0
   -1.0509   -1.2172    0.0942 C   0  0  0  0  0  0  0  0  0  0  0  0
   -1.7470   -0.0069    0.1702 C   0  0  0  0  0  0  0  0  0  0  0  0
   -3.2523   -0.0248    0.1411 C   0  0  2  0  0  0  0  0  0  0  0  0
   -3.7039    0.5676   -1.1611 C   0  0  0  0  0  0  0  0  0  0  0  0
   -3.9185    0.7115    1.2037 N   0  0  0  0  0  0  0  0  0  0  0  0
   -4.3538    1.9695    0.5967 O   0  0  0  0  0  0  0  0  0  0  0  0
   -4.5624    1.7719   -0.8305 C   0  0  2  0  0  0  0  0  0  0  0  0
   -5.9438    1.4793   -1.1119 O   0  0  0  0  0  0  0  0  0  0  0  0
   -6.3083    1.4702   -2.5070 C   0  0  2  0  0  0  0  0  0  0  0  0
   -5.7422    0.2715   -3.3015 C   0  0  0  0  0  0  0  0  0  0  0  0
   -6.1873    0.2449   -4.6476 O   0  0  0  0  0  0  0  0  0  0  0  0
   -5.9784    2.8072   -3.1978 C   0  0  1  0  0  0  0  0  0  0  0  0
   -6.8036    3.8661   -2.6999 O   0  0  0  0  0  0  0  0  0  0  0  0
   -4.4964    3.1738   -2.9942 C   0  0  2  0  0  0  0  0  0  0  0  0
   -3.6276    2.3217   -3.7491 O   0  0  0  0  0  0  0  0  0  0  0  0
   -4.1103    3.1055   -1.5060 C   0  0  1  0  0  0  0  0  0  0  0  0
   -4.6627    4.2543   -0.8309 O   0  0  0  0  0  0  0  0  0  0  0  0
  1  7  2  0
  1  2  1  0
  2  3  2  0
  3  5  1  0
  3  4  1  0
  6  5  2  0
  7  6  1  0
  8  7  1  1
  9  8  1  0
 10  8  1  0
 11 10  1  0
 12 13  1  0
 12 11  1  0
 12  9  1  6
 14 13  1  0
 14 15  1  6
 16 15  1  0
 17 14  1  0
 17 18  1  1
 19 17  1  0
 19 21  1  0
 19 20  1  6
 21 12  1  0
 21 22  1  1
M  END
>  <DRUGBANK_ID>  (1) 
DB08503

>  <COMMON_NAME>  (1) 
(3S,5R,7R,8S,9S,10R)-7-(hydroxymethyl)-3-(4-methylphenyl)-1,6-dioxa-2-azaspiro[4.5]decane-8,9,10-triol

$$$$
