Zeaxanthin
     RDKit          3D

 42 43  0  0  0  0  0  0  0  0999 V2000
   -1.4360   -0.3880    0.0002 C   0  0  0  0  0  0  0  0  0  0  0  0
   -2.8924   -0.6896    0.0045 C   0  0  0  0  0  0  0  0  0  0  0  0
    0.9809   -1.1270   -0.0124 C   0  0  0  0  0  0  0  0  0  0  0  0
    0.4929    1.4303    0.0324 C   0  0  0  0  0  0  0  0  0  0  0  0
   -3.9186    0.1911    0.0417 C   0  0  0  0  0  0  0  0  0  0  0  0
   -5.3485   -0.0892    0.0376 C   0  0  0  0  0  0  0  0  0  0  0  0
   -6.2436    0.9311    0.0397 C   0  0  0  0  0  0  0  0  0  0  0  0
   -5.7011   -1.5503    0.0365 C   0  0  0  0  0  0  0  0  0  0  0  0
   -7.6779    0.7398    0.0457 C   0  0  0  0  0  0  0  0  0  0  0  0
   -8.6495    1.6724    0.0509 C   0  0  0  0  0  0  0  0  0  0  0  0
  -10.0842    1.3247    0.0615 C   0  0  0  0  0  0  0  0  0  0  0  0
  -11.0312    2.2911    0.0670 C   0  0  0  0  0  0  0  0  0  0  0  0
  -10.4355   -0.1497    0.0668 C   0  0  0  0  0  0  0  0  0  0  0  0
  -12.4632    2.0434    0.0778 C   0  0  0  0  0  0  0  0  0  0  0  0
  -13.3971    3.0084    0.0832 C   0  0  0  0  0  0  0  0  0  0  0  0
  -14.8285    2.7333    0.0946 C   0  0  0  0  0  0  0  0  0  0  0  0
  -15.7770    3.7004    0.1008 C   0  0  0  0  0  0  0  0  0  0  0  0
  -17.2053    3.3550    0.1104 C   0  0  0  0  0  0  0  0  0  0  0  0
  -15.3394    5.1482    0.0941 C   0  0  0  0  0  0  0  0  0  0  0  0
  -18.1990    4.2622    0.1132 C   0  0  0  0  0  0  0  0  0  0  0  0
  -19.6257    4.0196    0.1085 C   0  0  0  0  0  0  0  0  0  0  0  0
  -20.5398    5.0241    0.1024 C   0  0  0  0  0  0  0  0  0  0  0  0
  -21.9606    4.7019    0.0843 C   0  0  0  0  0  0  0  0  0  0  0  0
  -20.1113    6.4754    0.1159 C   0  0  0  0  0  0  0  0  0  0  0  0
  -22.9791    5.5732    0.2164 C   0  0  0  0  0  0  0  0  0  0  0  0
  -24.4045    5.2367    0.2243 C   0  0  0  0  0  0  0  0  0  0  0  0
  -26.3651    3.9524    1.1007 C   0  0  0  0  0  0  0  0  0  0  0  0
  -26.7873    5.7214   -0.7834 C   0  0  0  0  0  0  0  0  0  0  0  0
   -0.5076   -1.3731   -0.0130 C   0  0  0  0  0  0  0  0  0  0  0  0
   -0.8530   -2.8437   -0.0121 C   0  0  0  0  0  0  0  0  0  0  0  0
  -24.0709    3.5527    2.0594 C   0  0  0  0  0  0  0  0  0  0  0  0
  -24.9120    4.3123    1.0631 C   0  0  0  0  0  0  0  0  0  0  0  0
   -1.4914    1.6316    1.4106 C   0  0  0  0  0  0  0  0  0  0  0  0
   -1.0216    1.0837    0.0367 C   0  0  0  0  0  0  0  0  0  0  0  0
   -1.5532    1.7503   -1.2650 C   0  0  0  0  0  0  0  0  0  0  0  0
  -24.7682    5.6554   -2.1724 C   0  0  0  0  0  0  0  0  0  0  0  0
  -25.2681    6.0297   -0.7604 C   0  0  0  0  0  0  0  0  0  0  0  0
  -25.1552    7.5409   -0.4315 C   0  0  0  0  0  0  0  0  0  0  0  0
  -27.3367    4.7401    0.2301 C   0  0  2  0  0  0  0  0  0  0  0  0
  -28.2165    5.4775    1.0892 O   0  0  0  0  0  0  0  0  0  0  0  0
    1.4898    0.3052   -0.0932 C   0  0  2  0  0  0  0  0  0  0  0  0
    2.1642    0.4827   -1.3453 O   0  0  0  0  0  0  0  0  0  0  0  0
  1 29  2  0
  1 34  1  0
  1  2  1  0
  2  5  2  0
  3 41  1  0
  4 41  1  0
  5  6  1  0
  6  7  2  0
  6  8  1  0
  7  9  1  0
  9 10  2  0
 10 11  1  0
 11 12  2  0
 11 13  1  0
 12 14  1  0
 14 15  2  0
 15 16  1  0
 16 17  2  0
 17 18  1  0
 17 19  1  0
 18 20  2  0
 20 21  1  0
 21 22  2  0
 22 23  1  0
 22 24  1  0
 23 25  2  0
 25 26  1  0
 26 32  2  0
 26 37  1  0
 27 39  1  0
 28 39  1  0
 29  3  1  0
 29 30  1  0
 32 27  1  0
 32 31  1  0
 34  4  1  0
 34 33  1  0
 34 35  1  0
 37 28  1  0
 37 36  1  0
 37 38  1  0
 39 40  1  1
 41 42  1  6
M  END
>  <DRUGBANK_ID>  (1) 
DB11176

>  <COMMON_NAME>  (1) 
Zeaxanthin

>  <CAS_NUMBER>  (1) 
144-68-3

>  <UNII>  (1) 
CV0IB81ORO

$$$$
