
     RDKit          3D

 12 12  0  0  0  0  0  0  0  0999 V2000
    2.2900    0.0538    0.0092 O   0  0  0  0  0  0  0  0  0  0  0  0
    0.9259    2.3863    0.0306 O   0  0  0  0  0  0  0  0  0  0  0  0
   -1.2306   -1.1665    0.0044 C   0  0  0  0  0  0  0  0  0  0  0  0
   -2.0382   -2.4440    0.0144 C   0  0  0  0  0  0  0  0  0  0  0  0
    0.1735   -1.2068    0.0117 C   0  0  0  0  0  0  0  0  0  0  0  0
    0.9195   -0.0241    0.0094 C   0  0  0  0  0  0  0  0  0  0  0  0
   -1.8798    0.0776   -0.0215 C   0  0  0  0  0  0  0  0  0  0  0  0
    0.2415    1.2010    0.0103 C   0  0  0  0  0  0  0  0  0  0  0  0
   -1.1454    1.2604   -0.0079 C   0  0  0  0  0  0  0  0  0  0  0  0
   -2.9560   -2.5234    1.2021 C   0  0  0  0  0  0  0  0  0  0  0  0
    2.9852   -1.1901   -0.0237 C   0  0  0  0  0  0  0  0  0  0  0  0
   -4.2917   -2.5890    1.1019 C   0  0  0  0  0  0  0  0  0  0  0  0
  1  6  1  0
  1 11  1  0
  2  8  1  0
  3  4  1  0
  3  5  2  0
  3  7  1  0
  4 10  1  0
  5  6  1  0
  6  8  2  0
  7  9  2  0
  8  9  1  0
 10 12  2  0
M  END
>  <DRUGBANK_ID>  (1) 
DB09086

>  <COMMON_NAME>  (1) 
Eugenol

>  <CAS_NUMBER>  (1) 
97-53-0

>  <UNII>  (1) 
3T8H1794QW

>  <SYNONYMS>  (1) 
Eugenol

$$$$
