
     RDKit          3D

 16 16  0  0  0  0  0  0  0  0999 V2000
    0.6866    0.8226   -0.1403 C   0  0  1  0  0  0  0  0  0  0  0  0
    1.4134   -0.4811    0.2634 C   0  0  1  0  0  0  0  0  0  0  0  0
    0.7602   -1.6632   -0.1837 O   0  0  0  0  0  0  0  0  0  0  0  0
   -0.8177    0.7492    0.1468 C   0  0  2  0  0  0  0  0  0  0  0  0
   -0.5968   -1.7749    0.2540 C   0  0  1  0  0  0  0  0  0  0  0  0
   -1.4284   -0.5950   -0.2577 C   0  0  1  0  0  0  0  0  0  0  0  0
    2.7211   -0.5115   -0.2903 O   0  0  0  0  0  0  0  0  0  0  0  0
    1.2541    1.9567    0.5383 O   0  0  0  0  0  0  0  0  0  0  0  0
   -1.5019    1.8122   -0.5363 O   0  0  0  0  0  0  0  0  0  0  0  0
   -2.7669   -0.6960    0.2383 O   0  0  0  0  0  0  0  0  0  0  0  0
   -1.1749   -3.0809   -0.3220 C   0  0  0  0  0  0  0  0  0  0  0  0
   -1.1355   -4.1251    0.6427 O   0  0  0  0  0  0  0  0  0  0  0  0
   -0.0278   -5.5729    2.1121 O   0  0  0  0  0  0  0  0  0  0  0  0
    0.0179   -5.8459   -0.4007 O   0  0  0  0  0  0  0  0  0  0  0  0
    0.4153   -4.8673    0.8351 P   0  0  0  0  0  0  0  0  0  0  0  0
    1.9661   -5.6095    1.0274 O   0  0  0  0  0  0  0  0  0  0  0  0
  1  8  1  1
  1  4  1  0
  2  1  1  0
  2  7  1  6
  2  3  1  0
  4  9  1  6
  4  6  1  0
  5  3  1  0
  5 11  1  6
  6  5  1  0
  6 10  1  1
 12 11  1  0
 12 15  1  0
 13 15  2  0
 14 15  1  0
 15 16  1  0
M  END
>  <DRUGBANK_ID>  (1) 
DB04122

>  <SECONDARY_ACCESSION_NUMBERS>  (1) 
EXPT00684

>  <COMMON_NAME>  (1) 
beta-D-glucose 6-phosphate

>  <CAS_NUMBER>  (1) 
15209-12-8

>  <UNII>  (1) 
G6FRT62N3J

>  <SYNONYMS>  (1) 
6-H2PO3Glcβ; 6-O-phosphono-β-D-glucopyranose; beta-D-glucose 6-(dihydrogen phosphate); beta-D-Glucose 6-phosphic acid; beta-D-glucose-6-phosphate; β-D-glucose 6-phosphate

$$$$
