
     RDKit          3D

  7  6  0  0  0  0  0  0  0  0999 V2000
    0.9708    0.0917   -0.0170 C   0  0  0  0  0  0  0  0  0  0  0  0
    0.5596    0.9844    1.1422 C   0  0  0  0  0  0  0  0  0  0  0  0
    1.0213    2.3377    0.9785 O   0  0  0  0  0  0  0  0  0  0  0  0
    2.3619    2.5407    1.0176 C   0  0  0  0  0  0  0  0  0  0  0  0
    3.2096    1.6698    1.1757 O   0  0  0  0  0  0  0  0  0  0  0  0
    2.7241    3.8438    0.8487 N   0  0  0  0  0  0  0  0  0  0  0  0
    1.8454    4.9784    0.7240 C   0  0  0  0  0  0  0  0  0  0  0  0
  1  2  1  0
  2  3  1  0
  3  4  1  0
  4  5  2  0
  4  6  1  0
  6  7  1  0
M  END
>  <DRUGBANK_ID>  (1) 
DB02856

>  <SECONDARY_ACCESSION_NUMBERS>  (1) 
EXPT01337

>  <COMMON_NAME>  (1) 
Ethyl N-methylcarbamate

>  <CAS_NUMBER>  (1) 
105-40-8

>  <UNII>  (1) 
1W34GCF5CS

>  <SYNONYMS>  (1) 
Ethyl methylcarbamate; Ethyl N-methylcarbamate; Ethyl-N-methylcarbamate; N-Methyl urethan; N-Methylurethan; N-Methylurethane

$$$$
