
     RDKit          3D

 24 26  0  0  1  0  0  0  0  0999 V2000
    1.0490   -0.1060   -0.0596 C   0  0  0  0  0  0  0  0  0  0  0  0
   -0.2731    0.4427   -2.1888 C   0  0  0  0  0  0  0  0  0  0  0  0
    0.9757    2.2173   -0.9518 C   0  0  0  0  0  0  0  0  0  0  0  0
    1.8088    2.7995    0.1636 C   0  0  0  0  0  0  0  0  0  0  0  0
    5.7966   10.4228    0.9161 C   0  0  0  0  0  0  0  0  0  0  0  0
    3.4639    6.4840    1.3710 C   0  0  0  0  0  0  0  0  0  0  0  0
    4.5268    6.5969   -2.8605 C   0  0  0  0  0  0  0  0  0  0  0  0
    0.6059    0.9176   -1.0637 C   0  0  0  0  0  0  0  0  0  0  0  0
    5.8862   10.5313   -0.6167 C   0  0  2  0  0  0  0  0  0  0  0  0
    3.8341    5.5794   -1.1099 C   0  0  0  0  0  0  0  0  0  0  0  0
    4.6183   11.1317   -1.2430 C   0  0  2  0  0  0  0  0  0  0  0  0
    3.8203    9.8993   -1.6559 C   0  0  2  0  0  0  0  0  0  0  0  0
    3.2957    4.7094   -0.1373 C   0  0  0  0  0  0  0  0  0  0  0  0
    4.1276    6.8804   -0.7045 C   0  0  0  0  0  0  0  0  0  0  0  0
    4.9228    8.9045   -2.0040 C   0  0  2  0  0  0  0  0  0  0  0  0
    3.0050    3.3802   -0.3963 N   0  0  0  0  0  0  0  0  0  0  0  0
    3.0956    5.2111    1.1091 N   0  0  0  0  0  0  0  0  0  0  0  0
    3.9872    7.3998    0.5238 N   0  0  0  0  0  0  0  0  0  0  0  0
    4.1065    5.4160   -2.4526 N   0  0  0  0  0  0  0  0  0  0  0  0
    4.5645    7.5104   -1.8393 N   0  0  0  0  0  0  0  0  0  0  0  0
    6.2799    9.1782    1.4034 O   0  0  0  0  0  0  0  0  0  0  0  0
    4.9135   11.9236   -2.4047 O   0  0  0  0  0  0  0  0  0  0  0  0
    2.9541   10.1357   -2.7647 O   0  0  0  0  0  0  0  0  0  0  0  0
    6.0665    9.2171   -1.1992 O   0  0  0  0  0  0  0  0  0  0  0  0
  4  3  1  0
  8  1  1  0
  8  2  1  0
  8  3  2  3
  9  5  1  1
 11  9  1  0
 11 22  1  6
 12 11  1  0
 12 23  1  6
 13 10  2  0
 14 10  1  0
 15 12  1  0
 15 20  1  1
 16  4  1  0
 16 13  1  0
 17  6  2  0
 17 13  1  0
 18  6  1  0
 18 14  2  0
 19  7  2  0
 19 10  1  0
 20  7  1  0
 20 14  1  0
 21  5  1  0
 24  9  1  0
 24 15  1  0
M  END
>  <DRUGBANK_ID>  (1) 
DB11933

>  <COMMON_NAME>  (1) 
Riboprine

>  <CAS_NUMBER>  (1) 
7724-76-7

>  <UNII>  (1) 
8EU82FAZ5J

>  <SYNONYMS>  (1) 
IPA; riboprina; Riboprine

$$$$
