
     RDKit          3D

 10  9  0  0  0  0  0  0  0  0999 V2000
    1.0299   -0.0300   -0.0328 C   0  0  0  0  0  0  0  0  0  0  0  0
    0.4928   -0.8138   -1.2565 C   0  0  1  0  0  0  0  0  0  0  0  0
    0.6887   -0.4868    1.3353 N   0  0  0  0  0  0  0  0  0  0  0  0
    1.0885   -2.2274   -1.2920 C   0  0  0  0  0  0  0  0  0  0  0  0
   -0.9829   -0.8136   -1.3291 N   0  0  0  0  0  0  0  0  0  0  0  0
   -0.3658   -0.0290    1.9573 N   0  0  0  0  0  0  0  0  0  0  0  0
    0.8152   -1.9294    1.4094 O   0  0  0  0  0  0  0  0  0  0  0  0
    0.1791   -3.2315   -1.2842 O   0  0  0  0  0  0  0  0  0  0  0  0
    2.2961   -2.4561   -1.3241 O   0  0  0  0  0  0  0  0  0  0  0  0
   -0.5181    1.1855    1.7950 O   0  0  0  0  0  0  0  0  0  0  0  0
  1  3  1  0
  2  1  1  0
  2  4  1  0
  2  5  1  1
  3  6  1  0
  3  7  1  0
  4  8  1  0
  4  9  2  0
  6 10  2  0
M  END
>  <DRUGBANK_ID>  (1) 
DB05540

>  <COMMON_NAME>  (1) 
Alanosine

>  <CAS_NUMBER>  (1) 
5854-93-3

>  <UNII>  (1) 
2CNI71214Y

>  <SYNONYMS>  (1) 
Alanosina; Alanosine; Alanosinum; L-Alanosine

$$$$
