
     RDKit          3D

 22 24  0  0  0  0  0  0  0  0999 V2000
   -2.4497    0.3437   -0.2569 C   0  0  0  0  0  0  0  0  0  0  0  0
   -1.2533    0.9850   -0.0515 C   0  0  0  0  0  0  0  0  0  0  0  0
   -0.0011    0.3554    0.2022 C   0  0  0  0  0  0  0  0  0  0  0  0
    0.0668   -1.0147    0.1051 C   0  0  0  0  0  0  0  0  0  0  0  0
   -1.1902   -1.6655    0.1016 C   0  0  0  0  0  0  0  0  0  0  0  0
   -2.4283   -1.0060   -0.0709 C   0  0  0  0  0  0  0  0  0  0  0  0
   -1.2510   -3.3688    0.3511 Cl  0  0  0  0  0  0  0  0  0  0  0  0
    1.3114   -1.5973    0.0037 N   0  0  0  0  0  0  0  0  0  0  0  0
    2.4187   -0.7859   -0.0441 C   0  0  0  0  0  0  0  0  0  0  0  0
    2.3427    0.5726    0.1451 C   0  0  0  0  0  0  0  0  0  0  0  0
    1.1444    1.0602    0.4233 N   0  0  0  0  0  0  0  0  0  0  0  0
    3.4356    1.4759    0.0013 N   0  0  0  0  0  0  0  0  0  0  0  0
    3.4735    3.1762   -0.0679 S   0  0  0  0  0  0  0  0  0  0  0  0
    4.2146    3.5735    1.1022 O   0  0  0  0  0  0  0  0  0  0  0  0
    4.0216    3.4863   -1.3873 O   0  0  0  0  0  0  0  0  0  0  0  0
    1.9197    4.0219    0.0089 C   0  0  0  0  0  0  0  0  0  0  0  0
    1.7093    5.3811    0.1314 C   0  0  0  0  0  0  0  0  0  0  0  0
    0.3612    5.8660    0.2288 C   0  0  0  0  0  0  0  0  0  0  0  0
   -0.6847    4.9974    0.5107 C   0  0  0  0  0  0  0  0  0  0  0  0
   -0.2585    3.7457    0.7564 C   0  0  0  0  0  0  0  0  0  0  0  0
    0.7620    3.3586   -0.0809 C   0  0  0  0  0  0  0  0  0  0  0  0
   -1.9967    5.3459    0.7982 N   0  0  0  0  0  0  0  0  0  0  0  0
  1  2  2  0
  1  6  1  0
  2  3  1  0
  3  4  2  0
  3 11  1  0
  4  5  1  0
  4  8  1  0
  5  6  2  0
  5  7  1  0
  8  9  2  0
  9 10  1  0
 10 11  2  0
 10 12  1  0
 12 13  1  0
 13 14  2  0
 13 15  2  0
 13 16  1  0
 16 17  2  0
 16 21  1  0
 17 18  1  0
 18 19  2  0
 19 20  1  0
 19 22  1  0
 20 21  2  0
M  END
>  <DRUGBANK_ID>  (1) 
DB12921

>  <COMMON_NAME>  (1) 
Chlorsulfaquinoxaline

>  <CAS_NUMBER>  (1) 
97919-22-7

>  <UNII>  (1) 
O0408QB48D

>  <SYNONYMS>  (1) 
Chloroquinoxaline sulfonamide

$$$$
