
     RDKit          3D

 23 24  0  0  1  0  0  0  0  0999 V2000
    5.0018    0.8081    3.2883 C   0  0  0  0  0  0  0  0  0  0  0  0
    4.1045   -0.1873    2.8357 O   0  0  0  0  0  0  0  0  0  0  0  0
    2.7416    0.3197    2.9484 N   0  0  0  0  0  0  0  0  0  0  0  0
    2.4886    1.3259    1.9074 C   0  0  1  0  0  0  0  0  0  0  0  0
    2.7644    2.8143    2.1914 C   0  0  0  0  0  0  0  0  0  0  0  0
    2.7891    3.4175    0.7962 C   0  0  1  0  0  0  0  0  0  0  0  0
    3.5107    2.4101   -0.0565 N   0  0  0  0  0  0  0  0  0  0  0  0
    3.0888    1.0565    0.4843 C   0  0  0  0  0  0  0  0  0  0  0  0
    5.2716    2.4836   -0.1708 S   0  0  0  0  0  0  0  0  0  0  0  0
    5.8763    2.4516    1.1502 O   0  0  0  0  0  0  0  0  0  0  0  0
    5.6629    1.5030   -1.1471 O   0  0  0  0  0  0  0  0  0  0  0  0
    5.7534    4.0862   -0.7158 C   0  0  0  0  0  0  0  0  0  0  0  0
    5.5074    5.1714    0.1286 C   0  0  0  0  0  0  0  0  0  0  0  0
    5.9711    6.4348   -0.1773 C   0  0  0  0  0  0  0  0  0  0  0  0
    6.8339    6.6006   -1.2492 C   0  0  0  0  0  0  0  0  0  0  0  0
    7.3490    7.8075   -1.6329 O   0  0  0  0  0  0  0  0  0  0  0  0
    6.7981    8.9468   -0.9703 C   0  0  0  0  0  0  0  0  0  0  0  0
    7.2391    5.4778   -1.9855 C   0  0  0  0  0  0  0  0  0  0  0  0
    6.6614    4.2226   -1.7601 C   0  0  0  0  0  0  0  0  0  0  0  0
    1.4458    4.0081    0.3286 C   0  0  0  0  0  0  0  0  0  0  0  0
    1.3785    5.2219    0.0850 O   0  0  0  0  0  0  0  0  0  0  0  0
    0.2886    3.3156    0.2294 N   0  0  0  0  0  0  0  0  0  0  0  0
    0.1057    1.9425    0.3081 O   0  0  0  0  0  0  0  0  0  0  0  0
  1  2  1  0
  2  3  1  0
  4  5  1  0
  4  8  1  0
  4  3  1  1
  5  6  1  0
  6  7  1  0
  6 20  1  6
  7  8  1  0
  7  9  1  0
  9 10  2  0
  9 11  2  0
  9 12  1  0
 12 13  2  0
 12 19  1  0
 13 14  1  0
 14 15  2  0
 15 16  1  0
 15 18  1  0
 16 17  1  0
 18 19  2  0
 20 21  2  0
 20 22  1  0
 22 23  1  0
M  END
>  <DRUGBANK_ID>  (1) 
DB01877

>  <SECONDARY_ACCESSION_NUMBERS>  (1) 
EXPT02941

>  <COMMON_NAME>  (1) 
N-Hydroxy 1n(4-Methoxyphenyl)Sulfonyl-4-(Z,E-N-Methoxyimino)Pyrrolidine-2r-Carboxamide

$$$$
