
     RDKit          3D

 25 26  0  0  0  0  0  0  0  0999 V2000
    0.9333    0.0535   -0.2653 C   0  0  0  0  0  0  0  0  0  0  0  0
    0.3393    0.1397    1.1368 C   0  0  1  0  0  0  0  0  0  0  0  0
    0.6843    1.3364    1.9635 C   0  0  0  0  0  0  0  0  0  0  0  0
    0.2926    2.6445    1.4575 C   0  0  0  0  0  0  0  0  0  0  0  0
    0.8592    3.8224    1.8979 C   0  0  0  0  0  0  0  0  0  0  0  0
    0.3447    5.1411    0.9484 S   0  0  0  0  0  0  0  0  0  0  0  0
   -0.6184    4.1358   -0.0375 C   0  0  0  0  0  0  0  0  0  0  0  0
   -0.5753    2.8321    0.3596 C   0  0  0  0  0  0  0  0  0  0  0  0
   -1.0549   -0.1806    1.2375 N   0  0  0  0  0  0  0  0  0  0  0  0
   -1.6340   -1.2277    1.7959 C   0  0  0  0  0  0  0  0  0  0  0  0
   -2.8795   -1.2314    1.8855 O   0  0  0  0  0  0  0  0  0  0  0  0
   -0.9683   -2.2908    2.2230 N   0  0  0  0  0  0  0  0  0  0  0  0
    0.4380   -2.6900    2.4258 C   0  0  0  0  0  0  0  0  0  0  0  0
    0.9540   -2.6034    3.8952 C   0  0  1  0  0  0  0  0  0  0  0  0
    0.4888   -3.8173    4.6353 N   0  0  0  0  0  0  0  0  0  0  0  0
    0.9975   -3.8655    6.0021 C   0  0  0  0  0  0  0  0  0  0  0  0
   -0.9767   -3.8891    4.7025 C   0  0  0  0  0  0  0  0  0  0  0  0
    2.5293   -2.4837    3.8638 C   0  0  0  0  0  0  0  0  0  0  0  0
    3.0964   -1.1799    3.3274 C   0  0  0  0  0  0  0  0  0  0  0  0
    3.9104   -1.1420    2.1806 C   0  0  0  0  0  0  0  0  0  0  0  0
    4.3203    0.0820    1.6299 C   0  0  0  0  0  0  0  0  0  0  0  0
    3.9789    1.2663    2.2729 C   0  0  0  0  0  0  0  0  0  0  0  0
    3.2680    1.2396    3.4749 C   0  0  0  0  0  0  0  0  0  0  0  0
    2.7946    0.0234    3.9764 C   0  0  0  0  0  0  0  0  0  0  0  0
    4.1233    2.4842    1.6671 O   0  0  0  0  0  0  0  0  0  0  0  0
  2  1  1  6
  2  3  1  0
  2  9  1  0
  3  4  1  0
  4  5  2  0
  4  8  1  0
  5  6  1  0
  6  7  1  0
  7  8  2  0
  9 10  1  0
 10 11  2  0
 10 12  1  0
 12 13  1  0
 14 13  1  6
 14 15  1  0
 14 18  1  0
 15 16  1  0
 15 17  1  0
 18 19  1  0
 19 20  2  0
 19 24  1  0
 20 21  1  0
 21 22  2  0
 22 23  1  0
 22 25  1  0
 23 24  2  0
M  END
>  <DRUGBANK_ID>  (1) 
DB14030

>  <COMMON_NAME>  (1) 
PZM21

>  <CAS_NUMBER>  (1) 
1997387-43-5

>  <UNII>  (1) 
M8GB23F27E

$$$$
