
     RDKit          3D

 14 13  0  0  1  0  0  0  0  0999 V2000
    0.1654   -0.4822   -2.6333 C   0  0  0  0  0  0  0  0  0  0  0  0
    0.3858   -2.3607    0.1493 C   0  0  0  0  0  0  0  0  0  0  0  0
   -0.1587    0.4527   -1.4430 C   0  0  2  0  0  0  0  0  0  0  0  0
    0.0650   -1.0000    0.7961 C   0  0  2  0  0  0  0  0  0  0  0  0
    0.3983    0.3005    0.0228 C   0  0  1  0  0  0  0  0  0  0  0  0
    1.4986   -0.5145   -3.0375 O   0  0  0  0  0  0  0  0  0  0  0  0
   -1.5861    0.4627   -1.3283 O   0  0  0  0  0  0  0  0  0  0  0  0
    0.7550   -0.9205    2.0627 O   0  0  0  0  0  0  0  0  0  0  0  0
    1.7796    0.5979    0.2243 O   0  0  0  0  0  0  0  0  0  0  0  0
    3.9123   -1.9283    0.0881 O   0  0  0  0  0  0  0  0  0  0  0  0
    2.8605   -2.5497   -1.9783 O   0  0  0  0  0  0  0  0  0  0  0  0
    3.4378   -0.2864   -1.5535 O   0  0  0  0  0  0  0  0  0  0  0  0
    1.7754   -2.6509   -0.0066 O   0  0  0  0  0  0  0  0  0  0  0  0
    2.6527   -1.4032   -0.8229 P   0  0  0  0  0  0  0  0  0  0  0  0
  3  7  1  1
  3  5  1  0
  3  1  1  0
  4  2  1  0
  4  8  1  1
  5  4  1  0
  5  9  1  6
  6  1  1  0
 13  2  1  0
 14 10  1  0
 14 11  1  0
 14 12  2  0
 14 13  1  0
M  END
>  <DRUGBANK_ID>  (1) 
DB03745

>  <SECONDARY_ACCESSION_NUMBERS>  (1) 
EXPT00375

>  <COMMON_NAME>  (1) 
Arabinose-5-phosphate

$$$$
