ICL
     RDKit          3D

 24 24  0  0  0  0  0  0  0  0999 V2000
   -0.6248   -5.3140   -1.7335 C   0  0  0  0  0  0  0  0  0  0  0  0
    0.1303   -4.8968   -2.6056 O   0  0  0  0  0  0  0  0  0  0  0  0
   -1.4297   -4.3825   -0.9499 C   0  0  0  0  0  0  0  0  0  0  0  0
   -1.6733   -4.5701    0.4473 C   0  0  0  0  0  0  0  0  0  0  0  0
   -1.0447   -5.9163    1.3129 Cl  0  0  0  0  0  0  0  0  0  0  0  0
   -2.3880   -3.6344    1.2218 C   0  0  0  0  0  0  0  0  0  0  0  0
   -2.7534   -2.4745    0.6320 C   0  0  0  0  0  0  0  0  0  0  0  0
   -2.3488   -2.3378   -0.6762 C   0  0  0  0  0  0  0  0  0  0  0  0
   -1.8825   -3.2462   -1.5748 C   0  0  0  0  0  0  0  0  0  0  0  0
   -1.8566   -2.9249   -2.9667 N   0  0  0  0  0  0  0  0  0  0  0  0
   -2.4498   -1.9051   -3.7062 C   0  0  0  0  0  0  0  0  0  0  0  0
   -2.1330   -1.8155   -4.9035 O   0  0  0  0  0  0  0  0  0  0  0  0
   -3.3633   -0.7661   -3.1045 C   0  0  2  0  0  0  0  0  0  0  0  0
   -2.4643    0.4739   -2.6889 C   0  0  0  0  0  0  0  0  0  0  0  0
   -3.3273    1.6850   -2.3533 C   0  0  0  0  0  0  0  0  0  0  0  0
   -1.4573    0.3350   -1.5233 C   0  0  0  0  0  0  0  0  0  0  0  0
   -4.2899   -1.1942   -2.0551 N   0  0  0  0  0  0  0  0  0  0  0  0
   -5.5453   -1.4881   -1.8887 C   0  0  0  0  0  0  0  0  0  0  0  0
   -5.8253   -2.0231   -0.8037 O   0  0  0  0  0  0  0  0  0  0  0  0
   -6.3357   -1.0600   -2.8416 O   0  0  0  0  0  0  0  0  0  0  0  0
   -7.7172   -1.2139   -2.5363 C   0  0  0  0  0  0  0  0  0  0  0  0
   -8.0557   -2.7050   -2.4233 C   0  0  0  0  0  0  0  0  0  0  0  0
   -8.1133   -0.4196   -1.2781 C   0  0  0  0  0  0  0  0  0  0  0  0
   -8.3716   -0.6057   -3.7628 C   0  0  0  0  0  0  0  0  0  0  0  0
  1  2  2  0
  1  3  1  0
  3  4  2  0
  3  9  1  0
  4  5  1  0
  4  6  1  0
  6  7  2  0
  7  8  1  0
  8  9  2  0
  9 10  1  0
 10 11  1  0
 11 12  2  0
 13 17  1  1
 13 14  1  0
 13 11  1  0
 14 15  1  0
 14 16  1  0
 17 18  1  0
 18 19  2  0
 18 20  1  0
 20 21  1  0
 21 22  1  0
 21 23  1  0
 21 24  1  0
M  END
>  <DRUGBANK_ID>  (1) 
DB07956

>  <COMMON_NAME>  (1) 
[1-(3-CHLORO-2-FORMYL-PHENYLCARBAMOYL)-2-METHYL-PROPYL]-CARBAMIC ACID TERT-BUTYL ESTER

$$$$
