
     RDKit          3D

  3  2  0  0  0  0  0  0  0  0999 V2000
    0.9601    0.0737    0.0752 C   0  0  0  0  0  0  0  0  0  0  0  0
    0.9707   -1.7050   -1.4476 N   0  0  0  0  0  0  0  0  0  0  0  0
    0.5748   -1.2871   -0.1073 O   0  0  0  0  0  0  0  0  0  0  0  0
  3  1  1  0
  3  2  1  0
M  END
>  <DRUGBANK_ID>  (1) 
DB06328

>  <COMMON_NAME>  (1) 
Methoxyamine

>  <CAS_NUMBER>  (1) 
67-62-9

>  <UNII>  (1) 
9TZH4WY30J

$$$$
