
     RDKit          3D

 30 32  0  0  0  0  0  0  0  0999 V2000
   -1.0645   -0.5117   -1.3445 O   0  0  0  0  0  0  0  0  0  0  0  0
   -3.0965   -0.9682   -0.5394 O   0  0  0  0  0  0  0  0  0  0  0  0
    1.0067   -1.1473   -1.2324 O   0  0  0  0  0  0  0  0  0  0  0  0
   -3.7357    0.2819    2.6857 N   0  0  0  0  0  0  0  0  0  0  0  0
    0.5941   -0.6734    1.0285 N   0  0  0  0  0  0  0  0  0  0  0  0
   -1.2326   -0.2109    0.9642 C   0  0  2  0  0  0  0  0  0  0  0  0
   -1.7812    1.7310    1.2181 C   0  0  1  0  0  0  0  0  0  0  0  0
   -1.8360   -1.2683    2.0095 C   0  0  0  0  0  0  0  0  0  0  0  0
   -3.4392    1.2656    1.5575 C   0  0  0  0  0  0  0  0  0  0  0  0
   -3.3099   -1.0755    2.3365 C   0  0  0  0  0  0  0  0  0  0  0  0
   -0.4743    3.0015    2.5495 C   0  0  0  0  0  0  0  0  0  0  0  0
   -1.9288   -0.6573   -0.3511 C   0  0  0  0  0  0  0  0  0  0  0  0
   -3.2521    0.6405    4.0805 C   0  0  0  0  0  0  0  0  0  0  0  0
    1.6055   -0.2743    2.3898 C   0  0  0  0  0  0  0  0  0  0  0  0
    1.3647   -0.7821   -0.1210 C   0  0  0  0  0  0  0  0  0  0  0  0
   -1.7571    0.6761    4.2905 C   0  0  0  0  0  0  0  0  0  0  0  0
    2.8372   -0.6229   -0.0306 C   0  0  0  0  0  0  0  0  0  0  0  0
    1.2717   -0.7435    3.6577 C   0  0  0  0  0  0  0  0  0  0  0  0
    2.2397    1.0470    2.5160 C   0  0  0  0  0  0  0  0  0  0  0  0
   -1.5408    1.5092    3.1451 C   0  0  0  0  0  0  0  0  0  0  0  0
   -1.2910   -1.2232   -2.5483 C   0  0  0  0  0  0  0  0  0  0  0  0
    3.3619    0.7821   -0.0394 C   0  0  0  0  0  0  0  0  0  0  0  0
    1.7663   -0.1209    4.8285 C   0  0  0  0  0  0  0  0  0  0  0  0
    2.8963    1.5871    3.6058 C   0  0  0  0  0  0  0  0  0  0  0  0
   -2.4501    3.0318    2.8736 C   0  0  0  0  0  0  0  0  0  0  0  0
   -0.1682    1.2531    1.9969 C   0  0  0  0  0  0  0  0  0  0  0  0
    2.6374    0.9784    4.7935 C   0  0  0  0  0  0  0  0  0  0  0  0
   -1.9897    4.0585    1.5333 C   0  0  0  0  0  0  0  0  0  0  0  0
    0.2088    2.3225    0.6144 C   0  0  0  0  0  0  0  0  0  0  0  0
   -0.6853    3.6977    0.4604 C   0  0  0  0  0  0  0  0  0  0  0  0
  1 12  1  0
  1 21  1  0
  2 12  2  0
  3 15  2  0
  4  9  1  0
  4 10  1  0
  4 13  1  0
  5 14  1  0
  5 15  1  0
  6  7  1  0
  6  8  1  0
  6 12  1  6
  6  5  1  0
  7  9  1  0
  7 11  1  1
  8 10  1  0
 13 16  1  0
 14 18  2  0
 14 19  1  0
 15 17  1  0
 16 20  1  0
 17 22  1  0
 18 23  1  0
 19 24  2  0
 20 25  2  0
 20 26  1  0
 23 27  2  0
 24 27  1  0
 25 28  1  0
 26 29  2  0
 28 30  2  0
 29 30  1  0
M  END
>  <DRUGBANK_ID>  (1) 
DB09174

>  <COMMON_NAME>  (1) 
Lofentanil

>  <CAS_NUMBER>  (1) 
61380-40-3

>  <UNII>  (1) 
7H7YQ564XV

>  <SYNONYMS>  (1) 
Lofentanil

$$$$
