
     RDKit          3D

 17 20  0  0  0  0  0  0  0  0999 V2000
    3.4676   -0.0740   -0.0113 C   0  0  0  0  0  0  0  0  0  0  0  0
    2.9753    1.2341    0.0437 C   0  0  0  0  0  0  0  0  0  0  0  0
    1.6011    1.5045    0.0315 C   0  0  0  0  0  0  0  0  0  0  0  0
    0.7316    0.4155   -0.0642 C   0  0  0  0  0  0  0  0  0  0  0  0
    1.2018   -0.9004   -0.1484 C   0  0  0  0  0  0  0  0  0  0  0  0
    2.5795   -1.1486   -0.0917 C   0  0  0  0  0  0  0  0  0  0  0  0
   -0.6391    0.3386   -0.0626 N   0  0  0  0  0  0  0  0  0  0  0  0
   -1.0305   -0.9631   -0.0684 C   0  0  0  0  0  0  0  0  0  0  0  0
    0.0843   -1.7518   -0.2125 C   0  0  0  0  0  0  0  0  0  0  0  0
   -2.3855   -1.4764    0.2543 C   0  0  0  0  0  0  0  0  0  0  0  0
    4.9353   -0.3661    0.0001 C   0  0  0  0  0  0  0  0  0  0  0  0
   -0.0291   -3.2198   -0.1541 C   0  0  0  0  0  0  0  0  0  0  0  0
   -2.1135   -2.5937    1.3542 C   0  0  0  0  0  0  0  0  0  0  0  0
   -0.8844   -3.5651    1.0761 C   0  0  0  0  0  0  0  0  0  0  0  0
   -1.5956    1.4209    0.0536 C   0  0  0  0  0  0  0  0  0  0  0  0
   -2.9963    0.8615   -0.2351 C   0  0  0  0  0  0  0  0  0  0  0  0
   -3.2933   -0.3488    0.5962 N   0  0  0  0  0  0  0  0  0  0  0  0
  1  2  2  0
  1  6  1  0
  1 11  1  0
  2  3  1  0
  3  4  2  0
  4  5  1  0
  4  7  1  0
  5  6  2  0
  5  9  1  0
  7  8  1  0
  7 15  1  0
  8  9  2  0
  8 10  1  0
 10 13  1  0
 12  9  1  0
 12 14  1  0
 13 14  1  0
 15 16  1  0
 16 17  1  0
 17 10  1  0
M  END
>  <DRUGBANK_ID>  (1) 
DB09244

>  <COMMON_NAME>  (1) 
Pirlindole

>  <CAS_NUMBER>  (1) 
60762-57-4

>  <UNII>  (1) 
V39YPH45FZ

>  <SYNONYMS>  (1) 
2,3,3a,4,5,6-Hexahydro-8-methyl-1H-pyrazino(3,2,1-jk)carbazole; Pirlindol; Pirlindole; Pirlindolum

$$$$
