UC3
     RDKit          3D

 20 20  0  0  0  0  0  0  0  0999 V2000
    0.7306   -0.0045   -0.0144 C   0  0  0  0  0  0  0  0  0  0  0  0
   -0.3489   -0.1617    1.2418 S   0  0  0  0  0  0  0  0  0  0  0  0
    0.2172    0.1623   -1.2917 N   0  0  0  0  0  0  0  0  0  0  0  0
    0.8789    0.2414   -2.5353 C   0  0  0  0  0  0  0  0  0  0  0  0
    1.9539   -0.5848   -2.7935 C   0  0  0  0  0  0  0  0  0  0  0  0
    2.7243   -0.6820   -3.9764 C   0  0  0  0  0  0  0  0  0  0  0  0
    2.3245    0.2024   -4.9745 C   0  0  0  0  0  0  0  0  0  0  0  0
    3.1191    0.3894   -6.4983 Cl  0  0  0  0  0  0  0  0  0  0  0  0
    1.1915    1.0271   -4.7701 C   0  0  0  0  0  0  0  0  0  0  0  0
    0.4461    1.0198   -3.5757 C   0  0  0  0  0  0  0  0  0  0  0  0
    3.8858   -1.6658   -4.1750 C   0  0  0  0  0  0  0  0  0  0  0  0
    4.2440   -2.6276   -3.2848 O   0  0  0  0  0  0  0  0  0  0  0  0
    4.5629   -1.6360   -5.2100 O   0  0  0  0  0  0  0  0  0  0  0  0
    3.6980   -2.8378   -1.9854 C   0  0  0  0  0  0  0  0  0  0  0  0
    4.0567   -1.6144   -1.1400 C   0  0  0  0  0  0  0  0  0  0  0  0
    2.2530   -3.3934   -2.1320 C   0  0  0  0  0  0  0  0  0  0  0  0
    2.0828    0.0630    0.1355 O   0  0  0  0  0  0  0  0  0  0  0  0
    2.9113   -0.0513    1.3605 C   0  0  0  0  0  0  0  0  0  0  0  0
    2.7537    1.1834    2.2217 C   0  0  0  0  0  0  0  0  0  0  0  0
    2.7377   -1.3757    2.1183 C   0  0  0  0  0  0  0  0  0  0  0  0
  1  2  2  0
  1  3  1  0
  1 17  1  0
  3  4  1  0
  4  5  2  0
  4 10  1  0
  5  6  1  0
  6  7  2  0
  6 11  1  0
  7  8  1  0
  7  9  1  0
  9 10  2  0
 11 12  1  0
 11 13  2  0
 12 14  1  0
 14 15  1  0
 14 16  1  0
 17 18  1  0
 18 19  1  0
 18 20  1  0
M  END
>  <DRUGBANK_ID>  (1) 
DB08681

>  <COMMON_NAME>  (1) 
1-METHYL ETHYL 2-CHLORO-5-[[[(1-METHYLETHOXY)THIOOXO]METHYL]AMINO]-BENZOATE

$$$$
