
     RDKit          3D

 28 32  0  0  0  0  0  0  0  0999 V2000
    1.9538    0.0483    0.0400 O   0  0  0  0  0  0  0  0  0  0  0  0
    0.7261    0.0132    0.0815 C   0  0  0  0  0  0  0  0  0  0  0  0
   -0.1584    1.2211    0.2364 C   0  0  0  0  0  0  0  0  0  0  0  0
   -1.5052    0.7252   -0.2743 C   0  0  0  0  0  0  0  0  0  0  0  0
   -1.4946   -0.7618    0.0319 C   0  0  0  0  0  0  0  0  0  0  0  0
   -0.0955   -1.1039   -0.0101 N   0  0  0  0  0  0  0  0  0  0  0  0
    0.3712   -2.4286   -0.0057 C   0  0  0  0  0  0  0  0  0  0  0  0
    1.2493   -2.8743    0.9735 C   0  0  0  0  0  0  0  0  0  0  0  0
    1.7142   -4.1878    0.9345 C   0  0  0  0  0  0  0  0  0  0  0  0
    1.2867   -5.0403   -0.0799 C   0  0  0  0  0  0  0  0  0  0  0  0
    1.6830   -6.3599   -0.2070 O   0  0  0  0  0  0  0  0  0  0  0  0
    2.4637   -6.9216    0.7735 C   0  0  0  0  0  0  0  0  0  0  0  0
    2.0390   -7.0117    2.0955 C   0  0  0  0  0  0  0  0  0  0  0  0
    2.8593   -7.5804    3.0864 C   0  0  0  0  0  0  0  0  0  0  0  0
    4.1458   -8.0611    2.7244 C   0  0  0  0  0  0  0  0  0  0  0  0
    5.2023   -8.6343    3.6492 C   0  0  0  0  0  0  0  0  0  0  0  0
    4.6947   -9.6774    4.6277 C   0  0  0  0  0  0  0  0  0  0  0  0
    3.8185   -9.1618    5.6745 N   0  0  0  0  0  0  0  0  0  0  0  0
    2.4515   -8.9167    5.2080 C   0  0  0  0  0  0  0  0  0  0  0  0
    2.2475   -7.6025    4.4683 C   0  0  0  0  0  0  0  0  0  0  0  0
    4.3195   -8.1138    6.5850 C   0  0  0  0  0  0  0  0  0  0  0  0
    4.6033   -6.6986    5.9952 C   0  0  0  0  0  0  0  0  0  0  0  0
    5.9185   -6.6899    6.7652 C   0  0  0  0  0  0  0  0  0  0  0  0
    5.8371   -8.2266    6.8726 C   0  0  0  0  0  0  0  0  0  0  0  0
    4.5263   -8.0029    1.3749 C   0  0  0  0  0  0  0  0  0  0  0  0
    3.6860   -7.4649    0.4057 C   0  0  0  0  0  0  0  0  0  0  0  0
    0.4444   -4.6222   -1.0547 N   0  0  0  0  0  0  0  0  0  0  0  0
    0.0126   -3.3347   -0.9962 C   0  0  0  0  0  0  0  0  0  0  0  0
  1  2  2  0
  2  3  1  0
  2  6  1  0
  3  4  1  0
  4  5  1  0
  5  6  1  0
  6  7  1  0
  7  8  2  0
  7 28  1  0
  8  9  1  0
  9 10  2  0
 10 11  1  0
 10 27  1  0
 11 12  1  0
 12 13  2  0
 12 26  1  0
 13 14  1  0
 14 15  2  0
 14 20  1  0
 15 16  1  0
 15 25  1  0
 16 17  1  0
 17 18  1  0
 18 19  1  0
 18 21  1  0
 19 20  1  0
 21 22  1  0
 21 24  1  0
 22 23  1  0
 23 24  1  0
 25 26  2  0
 27 28  2  0
M  END
>  <DRUGBANK_ID>  (1) 
DB15120

>  <COMMON_NAME>  (1) 
GSK-239512

>  <CAS_NUMBER>  (1) 
720691-69-0

>  <UNII>  (1) 
4I7U5C459M

$$$$
