
     RDKit          3D

 28 31  0  0  0  0  0  0  0  0999 V2000
    0.9016    0.0658   -0.2091 C   0  0  0  0  0  0  0  0  0  0  0  0
    0.6112   -1.4176   -0.0358 C   0  0  0  0  0  0  0  0  0  0  0  0
    1.0895   -2.0360    1.1687 O   0  0  0  0  0  0  0  0  0  0  0  0
    2.4352   -2.1044    1.3974 C   0  0  0  0  0  0  0  0  0  0  0  0
    3.2931   -1.0098    1.3065 C   0  0  0  0  0  0  0  0  0  0  0  0
    4.6449   -1.0937    1.6318 C   0  0  0  0  0  0  0  0  0  0  0  0
    5.1426   -2.2641    2.1803 C   0  0  0  0  0  0  0  0  0  0  0  0
    4.2710   -3.3518    2.3641 C   0  0  0  0  0  0  0  0  0  0  0  0
    2.9375   -3.2898    1.9317 C   0  0  0  0  0  0  0  0  0  0  0  0
    6.5790   -2.4247    2.3758 C   0  0  0  0  0  0  0  0  0  0  0  0
    7.3517   -3.4252    1.7259 C   0  0  0  0  0  0  0  0  0  0  0  0
    8.6418   -3.2063    2.1365 C   0  0  0  0  0  0  0  0  0  0  0  0
    9.8940   -3.7995    1.8757 C   0  0  0  0  0  0  0  0  0  0  0  0
   10.9743   -3.3160    2.4955 C   0  0  0  0  0  0  0  0  0  0  0  0
   10.7653   -2.1580    3.4000 C   0  0  0  0  0  0  0  0  0  0  0  0
    9.6422   -1.5581    3.6410 N   0  0  0  0  0  0  0  0  0  0  0  0
    8.5932   -2.1170    2.9829 N   0  0  0  0  0  0  0  0  0  0  0  0
    7.3497   -1.6041    3.1074 N   0  0  0  0  0  0  0  0  0  0  0  0
    6.9357   -4.3801    0.7233 C   0  0  0  0  0  0  0  0  0  0  0  0
    6.3839   -3.8972   -0.4714 C   0  0  0  0  0  0  0  0  0  0  0  0
    5.8963   -4.7760   -1.4353 C   0  0  0  0  0  0  0  0  0  0  0  0
    5.9788   -6.1485   -1.2092 C   0  0  0  0  0  0  0  0  0  0  0  0
    6.5722   -6.6424   -0.0378 C   0  0  0  0  0  0  0  0  0  0  0  0
    7.0128   -5.7553    0.9487 C   0  0  0  0  0  0  0  0  0  0  0  0
    5.2468   -7.3189   -2.3319 S   0  0  0  0  0  0  0  0  0  0  0  0
    6.3450   -8.0794   -2.9051 O   0  0  0  0  0  0  0  0  0  0  0  0
    4.1835   -7.9726   -1.5993 O   0  0  0  0  0  0  0  0  0  0  0  0
    4.4926   -6.3939   -3.6447 C   0  0  0  0  0  0  0  0  0  0  0  0
  1  2  1  0
  2  3  1  0
  3  4  1  0
  4  5  2  0
  4  9  1  0
  5  6  1  0
  6  7  2  0
  7  8  1  0
  7 10  1  0
  8  9  2  0
 10 11  1  0
 10 18  2  0
 11 12  2  0
 11 19  1  0
 12 13  1  0
 12 17  1  0
 13 14  2  0
 14 15  1  0
 15 16  2  0
 16 17  1  0
 17 18  1  0
 19 20  2  0
 19 24  1  0
 20 21  1  0
 21 22  2  0
 22 23  1  0
 22 25  1  0
 23 24  2  0
 25 26  2  0
 25 27  2  0
 25 28  1  0
M  END
>  <DRUGBANK_ID>  (1) 
DB12009

>  <COMMON_NAME>  (1) 
GW-406381

>  <CAS_NUMBER>  (1) 
221148-46-5

>  <UNII>  (1) 
5Y869C2THE

$$$$
