
     RDKit          3D

 24 24  0  0  0  0  0  0  0  0999 V2000
    5.3306   -6.5292    2.7647 N   0  0  0  0  0  0  0  0  0  0  0  0
    7.0319   -4.7565    3.1624 C   0  0  0  0  0  0  0  0  0  0  0  0
    7.4642   -4.3152    4.2302 O   0  0  0  0  0  0  0  0  0  0  0  0
    6.7595   -6.2536    2.9794 C   0  0  0  0  0  0  0  0  0  0  0  0
    6.7791   -3.8751    2.1417 N   0  0  0  0  0  0  0  0  0  0  0  0
    7.3950   -3.7855   -0.2988 C   0  0  0  0  0  0  0  0  0  0  0  0
    4.8493   -3.6089    0.5859 C   0  0  0  0  0  0  0  0  0  0  0  0
    6.2962   -4.1119    0.7541 C   0  0  2  0  0  0  0  0  0  0  0  0
    8.4292   -4.4723   -0.2944 O   0  0  0  0  0  0  0  0  0  0  0  0
    7.3439   -2.8380   -1.2653 N   0  0  0  0  0  0  0  0  0  0  0  0
    3.9993   -2.1777   -1.2540 N   0  0  0  0  0  0  0  0  0  0  0  0
    4.3269   -3.4384   -0.8012 C   0  0  0  0  0  0  0  0  0  0  0  0
    3.9282   -3.5953   -2.9362 N   0  0  0  0  0  0  0  0  0  0  0  0
    3.8195   -2.2956   -2.5470 C   0  0  0  0  0  0  0  0  0  0  0  0
    4.0591   -4.3486   -1.7976 C   0  0  0  0  0  0  0  0  0  0  0  0
    6.3854   -1.2738   -2.9092 C   0  0  0  0  0  0  0  0  0  0  0  0
    6.4204   -2.1217   -3.8106 O   0  0  0  0  0  0  0  0  0  0  0  0
    6.7004   -1.5212   -1.3982 C   0  0  2  0  0  0  0  0  0  0  0  0
    7.5807   -0.3893   -0.9100 C   0  0  0  0  0  0  0  0  0  0  0  0
    6.7776    0.9268   -0.7590 C   0  0  0  0  0  0  0  0  0  0  0  0
    5.6570    0.8935    0.2926 C   0  0  0  0  0  0  0  0  0  0  0  0
    6.1966    0.5656    1.6759 C   0  0  0  0  0  0  0  0  0  0  0  0
    7.2183    1.5392    2.0383 N   0  0  0  0  0  0  0  0  0  0  0  0
    5.9796   -0.0311   -3.2272 O   0  0  0  0  0  0  0  0  0  0  0  0
  3  2  2  0
  4  2  1  0
  4  1  1  0
  5  2  1  0
  7 12  1  0
  8  5  1  0
  8  7  1  6
  8  6  1  0
  9  6  2  0
 10  6  1  0
 12 11  1  0
 14 11  2  0
 14 13  1  0
 15 12  2  0
 15 13  1  0
 16 24  1  0
 17 16  2  0
 18 10  1  0
 18 16  1  0
 18 19  1  6
 19 20  1  0
 20 21  1  0
 21 22  1  0
 22 23  1  0
M  END
>  <DRUGBANK_ID>  (1) 
DB11296

>  <COMMON_NAME>  (1) 
Prezatide

>  <CAS_NUMBER>  (1) 
49557-75-7

>  <UNII>  (1) 
39TG2H631E

>  <SYNONYMS>  (1) 
GHK; Gly-His-Lys; Glycyl-L-histidyl-L-lysine; Glycylhistidyllysine; Growth-modulating peptide (human); Liver cell growth factor; Tripeptide-1

$$$$
