
     RDKit          3D

 24 26  0  0  0  0  0  0  0  0999 V2000
    0.0158   -1.2795    0.6460 N   0  0  0  0  0  0  0  0  0  0  0  0
    1.2664   -0.7184    0.3144 C   0  0  0  0  0  0  0  0  0  0  0  0
    0.0115    1.7680    0.4398 S   0  0  0  0  0  0  0  0  0  0  0  0
    1.3749    0.6654    0.0932 C   0  0  0  0  0  0  0  0  0  0  0  0
   -1.1414   -0.7231    0.0612 C   0  0  0  0  0  0  0  0  0  0  0  0
   -1.3215    0.6696   -0.0124 C   0  0  0  0  0  0  0  0  0  0  0  0
    2.3468   -1.5746    0.0672 C   0  0  0  0  0  0  0  0  0  0  0  0
    3.5310   -1.0563   -0.4338 C   0  0  0  0  0  0  0  0  0  0  0  0
    4.6258   -2.0005   -0.7783 C   0  0  0  0  0  0  0  0  0  0  0  0
    2.5555    1.1803   -0.4055 C   0  0  0  0  0  0  0  0  0  0  0  0
    3.6306    0.3272   -0.6426 C   0  0  0  0  0  0  0  0  0  0  0  0
    4.4983   -3.2119   -0.5246 O   0  0  0  0  0  0  0  0  0  0  0  0
    0.1125   -2.0443    1.9418 C   0  0  0  0  0  0  0  0  0  0  0  0
   -0.7253   -1.5852    3.1513 C   0  0  0  0  0  0  0  0  0  0  0  0
   -3.0267   -2.6488    2.7059 N   0  0  0  0  0  0  0  0  0  0  0  0
   -2.1232   -1.4933   -0.5852 C   0  0  0  0  0  0  0  0  0  0  0  0
   -2.5278    1.2180   -0.4775 C   0  0  0  0  0  0  0  0  0  0  0  0
   -2.2335   -1.4120    2.9586 C   0  0  0  0  0  0  0  0  0  0  0  0
    5.8865   -1.4692   -1.4096 C   0  0  0  0  0  0  0  0  0  0  0  0
   -4.3509   -2.2383    2.2235 C   0  0  0  0  0  0  0  0  0  0  0  0
   -2.4289   -3.5086    1.6959 C   0  0  0  0  0  0  0  0  0  0  0  0
    5.6500   -0.8840   -2.7933 C   0  0  0  0  0  0  0  0  0  0  0  0
   -3.3857   -0.9748   -0.8837 C   0  0  0  0  0  0  0  0  0  0  0  0
   -3.5919    0.3912   -0.8267 C   0  0  0  0  0  0  0  0  0  0  0  0
  2  1  1  0
  3  6  1  0
  4  2  2  0
  4  3  1  0
  5  1  1  0
  6  5  2  0
  7  2  1  0
  8  7  2  0
  9  8  1  0
 10  4  1  0
 10 11  2  0
 11  8  1  0
 12  9  2  0
 13  1  1  0
 14 13  1  0
 15 18  1  0
 16  5  1  0
 17  6  1  0
 17 24  2  0
 18 14  1  0
 19  9  1  0
 20 15  1  0
 21 15  1  0
 22 19  1  0
 23 16  2  0
 24 23  1  0
M  END
>  <DRUGBANK_ID>  (1) 
DB11540

>  <COMMON_NAME>  (1) 
Propiopromazine

>  <CAS_NUMBER>  (1) 
3568-24-9

>  <UNII>  (1) 
Y1BCT334I7

>  <SYNONYMS>  (1) 
Propionpromazine; Propionylpromazine; Propionylpromazone; Propiopromazine

$$$$
