
     RDKit          3D

 23 24  0  0  0  0  0  0  0  0999 V2000
    1.1383    0.0987    0.1272 C   0  0  2  0  0  0  0  0  0  0  0  0
    0.5626    1.7704    0.3841 C   0  0  0  0  0  0  0  0  0  0  0  0
    0.6040   -0.5601   -1.2519 N   0  0  0  0  0  0  0  0  0  0  0  0
   -0.2506   -1.6779   -1.4242 C   0  0  0  0  0  0  0  0  0  0  0  0
   -1.4390   -1.9844   -0.6835 C   0  0  0  0  0  0  0  0  0  0  0  0
    0.9919   -1.0406    1.4339 C   0  0  0  0  0  0  0  0  0  0  0  0
   -2.1529   -3.1664   -0.6865 C   0  0  0  0  0  0  0  0  0  0  0  0
   -2.1729   -1.0523    0.1159 C   0  0  0  0  0  0  0  0  0  0  0  0
   -0.7514    2.4516    0.9640 C   0  0  0  0  0  0  0  0  0  0  0  0
    1.4497    2.7534   -0.1367 C   0  0  0  0  0  0  0  0  0  0  0  0
    0.0373   -2.6577   -2.3712 C   0  0  0  0  0  0  0  0  0  0  0  0
    1.9695   -1.6938    1.8209 O   0  0  0  0  0  0  0  0  0  0  0  0
   -3.0669   -1.3076    0.9516 O   0  0  0  0  0  0  0  0  0  0  0  0
   -0.2169   -1.3849    2.0296 N   0  0  0  0  0  0  0  0  0  0  0  0
   -1.8104   -4.1099   -1.5831 C   0  0  0  0  0  0  0  0  0  0  0  0
   -0.7422   -3.8508   -2.4455 C   0  0  0  0  0  0  0  0  0  0  0  0
   -2.8403    2.0544    1.6421 Br  0  0  0  0  0  0  0  0  0  0  0  0
    3.1524    2.4209   -0.9444 Br  0  0  0  0  0  0  0  0  0  0  0  0
   -0.0789    4.6515    0.4400 C   0  0  0  0  0  0  0  0  0  0  0  0
   -0.9943    3.8192    0.9744 C   0  0  0  0  0  0  0  0  0  0  0  0
    1.1070    4.1393   -0.0912 C   0  0  0  0  0  0  0  0  0  0  0  0
   -1.5895    0.2061    0.1114 C   0  0  0  0  0  0  0  0  0  0  0  0
   -0.4506   -4.9230   -3.4352 C   0  0  0  0  0  0  0  0  0  0  0  0
  1  6  1  0
  2  1  1  0
  1  3  1  6
  4  3  1  0
  5  4  2  0
  7  5  1  0
  8  5  1  0
  9  2  2  0
 10  2  1  0
 11  4  1  0
 12  6  2  0
 13  8  2  0
 14  6  1  0
 15 16  1  0
 15  7  2  0
 16 11  2  0
 17  9  1  0
 18 10  1  0
 19 21  1  0
 19 20  2  0
 20  9  1  0
 21 10  2  0
 22  8  1  0
 23 16  1  0
M  END
>  <DRUGBANK_ID>  (1) 
DB07327

>  <COMMON_NAME>  (1) 
R-95845

>  <CAS_NUMBER>  (1) 
163435-77-6

>  <UNII>  (1) 
X1KA97Q99G

$$$$
