
     RDKit          3D

 22 25  0  0  0  0  0  0  0  0999 V2000
    5.8934    3.9361    3.3468 N   0  0  0  0  0  0  0  0  0  0  0  0
    5.3689    4.5543    2.2782 C   0  0  0  0  0  0  0  0  0  0  0  0
    4.6225    2.0270    2.7057 C   0  0  0  0  0  0  0  0  0  0  0  0
    4.1933    2.7636    1.6289 C   0  0  0  0  0  0  0  0  0  0  0  0
    5.5406    2.6470    3.5763 C   0  0  0  0  0  0  0  0  0  0  0  0
    4.5522    4.0320    1.3604 N   0  0  0  0  0  0  0  0  0  0  0  0
    2.0900    2.5210    0.2110 C   0  0  2  0  0  0  0  0  0  0  0  0
    2.4902    2.9306   -1.1349 O   0  0  0  0  0  0  0  0  0  0  0  0
    1.9339    4.2504   -1.3456 C   0  0  1  0  0  0  0  0  0  0  0  0
    1.9539    4.8611    0.0462 C   0  0  2  0  0  0  0  0  0  0  0  0
    1.4515    3.7438    0.9383 C   0  0  1  0  0  0  0  0  0  0  0  0
    0.0409    3.6323    1.0273 O   0  0  0  0  0  0  0  0  0  0  0  0
    1.6635    6.2569    0.1400 O   0  0  0  0  0  0  0  0  0  0  0  0
    2.7461    5.0935   -2.3371 C   0  0  0  0  0  0  0  0  0  0  0  0
    2.4231    6.4706   -2.1911 O   0  0  0  0  0  0  0  0  0  0  0  0
    4.2095    6.5002   -0.3372 O   0  0  0  0  0  0  0  0  0  0  0  0
    2.8499    7.0172   -0.7216 P   0  0  2  0  0  0  0  0  0  0  0  0
    3.0614    9.0585   -0.8195 S   0  0  0  0  0  0  0  0  0  0  0  0
    3.2200    2.0113    1.0055 N   0  0  0  0  0  0  0  0  0  0  0  0
    3.1419    0.8361    1.7256 C   0  0  0  0  0  0  0  0  0  0  0  0
    3.9865    0.8010    2.7330 N   0  0  0  0  0  0  0  0  0  0  0  0
    6.0585    2.0263    4.6962 N   0  0  0  0  0  0  0  0  0  0  0  0
  1  2  2  0
  3 21  1  0
  3  4  1  0
  3  5  2  0
  4 19  1  0
  4  6  2  0
  5  1  1  0
  6  2  1  0
  7 11  1  0
  7 19  1  1
  8  7  1  0
  9  8  1  0
  9 14  1  6
  9 10  1  0
 10 13  1  6
 10 11  1  0
 11 12  1  6
 13 17  1  0
 15 14  1  0
 17 15  1  0
 17 16  2  0
 17 18  1  0
 20 19  1  0
 21 20  2  0
 22  5  1  0
M  END
>  <DRUGBANK_ID>  (1) 
DB01790

>  <SECONDARY_ACCESSION_NUMBERS>  (1) 
EXPT02808; EXPT02940

>  <COMMON_NAME>  (1) 
(Rp)-cAMPS

>  <SYNONYMS>  (1) 
(Rp)-adenosine-3',5'-cyclic monophosphorothioate; adenosine-3',5'-cyclic monophosphorothioate, Rp-isomer; Rp-cAMPS

$$$$
