NW1
     RDKit          3D

 18 19  0  0  0  0  0  0  0  0999 V2000
   -1.1724   -0.9762    0.0098 N   0  0  0  0  0  0  0  0  0  0  0  0
   -0.0399   -1.6331    0.3471 C   0  0  0  0  0  0  0  0  0  0  0  0
   -0.1814   -2.9886    0.1491 O   0  0  0  0  0  0  0  0  0  0  0  0
    0.9415   -3.8795    0.0222 C   0  0  0  0  0  0  0  0  0  0  0  0
    1.7817   -3.7761   -1.2988 C   0  0  0  0  0  0  0  0  0  0  0  0
    2.9856   -4.7358   -1.2528 C   0  0  0  0  0  0  0  0  0  0  0  0
    3.9816   -4.4491   -2.3913 C   0  0  0  0  0  0  0  0  0  0  0  0
    4.5182   -3.0160   -2.3890 C   0  0  0  0  0  0  0  0  0  0  0  0
    3.3705   -2.0397   -2.5219 C   0  0  0  0  0  0  0  0  0  0  0  0
    2.3392   -2.3763   -1.4854 C   0  0  0  0  0  0  0  0  0  0  0  0
    1.1230   -0.9483    0.7206 C   0  0  0  0  0  0  0  0  0  0  0  0
    2.1542   -1.5265    1.4445 N   0  0  0  0  0  0  0  0  0  0  0  0
    3.2915   -1.1152    1.1574 O   0  0  0  0  0  0  0  0  0  0  0  0
    1.1457    0.3873    0.2851 C   0  0  0  0  0  0  0  0  0  0  0  0
    2.3389    1.1317    0.2601 N   0  0  0  0  0  0  0  0  0  0  0  0
    0.0382    1.0478   -0.0693 N   0  0  0  0  0  0  0  0  0  0  0  0
   -1.1085    0.3567   -0.0854 C   0  0  0  0  0  0  0  0  0  0  0  0
   -2.2647    1.0740   -0.1826 N   0  0  0  0  0  0  0  0  0  0  0  0
  1  2  2  0
  1 17  1  0
  2  3  1  0
  2 11  1  0
  3  4  1  0
  4  5  1  0
  5  6  1  0
  5 10  1  0
  6  7  1  0
  7  8  1  0
  8  9  1  0
  9 10  1  0
 11 12  1  0
 11 14  2  0
 12 13  2  0
 14 15  1  0
 14 16  1  0
 16 17  2  0
 17 18  1  0
M  END
>  <DRUGBANK_ID>  (1) 
DB08312

>  <COMMON_NAME>  (1) 
6-CYCLOHEXYLMETHYLOXY-5-NITROSO-PYRIMIDINE-2,4-DIAMINE

$$$$
