
     RDKit          3D

 30 34  0  0  0  0  0  0  0  0999 V2000
   -1.1021   -1.3566   -0.0046 N   0  0  0  0  0  0  0  0  0  0  0  0
   -2.2366   -0.6447    0.0238 C   0  0  0  0  0  0  0  0  0  0  0  0
   -2.3571    0.6851   -0.0484 N   0  0  0  0  0  0  0  0  0  0  0  0
   -1.2336    1.3892   -0.2800 C   0  0  0  0  0  0  0  0  0  0  0  0
    0.0679    0.6889   -0.4086 C   0  0  0  0  0  0  0  0  0  0  0  0
    1.4198    1.1788   -0.6195 C   0  0  0  0  0  0  0  0  0  0  0  0
    2.6324    0.5433   -0.2516 C   0  0  0  0  0  0  0  0  0  0  0  0
    2.5576   -0.8247   -0.0677 C   0  0  0  0  0  0  0  0  0  0  0  0
    1.2538   -1.3953   -0.0682 C   0  0  0  0  0  0  0  0  0  0  0  0
    0.0408   -0.6818   -0.1620 C   0  0  0  0  0  0  0  0  0  0  0  0
   -1.4323    2.7693   -0.2599 N   0  0  0  0  0  0  0  0  0  0  0  0
   -0.7718    3.8092   -1.0446 C   0  0  0  0  0  0  0  0  0  0  0  0
   -0.7256    5.0506   -0.0836 C   0  0  1  0  0  0  0  0  0  0  0  0
   -2.0689    4.9442    0.6239 C   0  0  0  0  0  0  0  0  0  0  0  0
   -2.3219    3.4166    0.7495 C   0  0  0  0  0  0  0  0  0  0  0  0
    0.3496    5.2792    0.8907 O   0  0  0  0  0  0  0  0  0  0  0  0
    0.5662    4.5419    3.1516 N   0  0  0  0  0  0  0  0  0  0  0  0
    0.5767    4.3102    1.8496 C   0  0  0  0  0  0  0  0  0  0  0  0
    0.7994    3.0399    1.4377 C   0  0  0  0  0  0  0  0  0  0  0  0
    0.9015    1.9062    2.1538 N   0  0  0  0  0  0  0  0  0  0  0  0
    0.8186    2.0899    3.4245 C   0  0  0  0  0  0  0  0  0  0  0  0
    0.8627    0.9592    4.2232 C   0  0  0  0  0  0  0  0  0  0  0  0
    0.8004    1.1048    5.5882 C   0  0  0  0  0  0  0  0  0  0  0  0
    0.6878    2.3897    6.1260 C   0  0  0  0  0  0  0  0  0  0  0  0
    0.6306    3.5230    5.2996 C   0  0  0  0  0  0  0  0  0  0  0  0
    0.6792    3.4206    3.9454 C   0  0  0  0  0  0  0  0  0  0  0  0
    3.4990   -1.8104    0.0928 O   0  0  0  0  0  0  0  0  0  0  0  0
    4.8570   -1.4555    0.0478 C   0  0  0  0  0  0  0  0  0  0  0  0
    3.5708    1.5333   -0.1023 O   0  0  0  0  0  0  0  0  0  0  0  0
    4.9521    1.3309    0.0402 C   0  0  0  0  0  0  0  0  0  0  0  0
  1  2  2  0
  1 10  1  0
  2  3  1  0
  3  4  2  0
  4  5  1  0
  4 11  1  0
  5  6  1  0
  5 10  2  0
  6  7  2  0
  7  8  1  0
  7 29  1  0
  8  9  2  0
  8 27  1  0
  9 10  1  0
 11 12  1  0
 11 15  1  0
 12 13  1  0
 13 14  1  0
 13 16  1  1
 14 15  1  0
 16 18  1  0
 17 18  2  0
 17 26  1  0
 18 19  1  0
 19 20  2  0
 20 21  1  0
 21 22  1  0
 21 26  2  0
 22 23  2  0
 23 24  1  0
 24 25  2  0
 25 26  1  0
 27 28  1  0
 29 30  1  0
M  END
>  <DRUGBANK_ID>  (1) 
DB08391

>  <COMMON_NAME>  (1) 
PQ-10

>  <CAS_NUMBER>  (1) 
927691-21-2

>  <UNII>  (1) 
63643I762J

$$$$
