
     RDKit          3D

 20 19  0  0  0  0  0  0  0  0999 V2000
    0.9842   -0.0911    0.0484 C   0  0  0  0  0  0  0  0  0  0  0  0
    0.4431   -0.3558   -1.3399 C   0  0  0  0  0  0  0  0  0  0  0  0
    0.8701   -1.6713   -1.8045 N   0  0  0  0  0  0  0  0  0  0  0  0
    0.4180   -1.9189   -3.1718 C   0  0  0  0  0  0  0  0  0  0  0  0
    0.9732   -0.9282   -4.2080 C   0  0  0  0  0  0  0  0  0  0  0  0
    2.5088   -0.8830   -4.2659 C   0  0  0  0  0  0  0  0  0  0  0  0
    3.1326   -2.2207   -4.6455 C   0  0  0  0  0  0  0  0  0  0  0  0
    2.6903   -2.6169   -5.9795 N   0  0  0  0  0  0  0  0  0  0  0  0
    3.1241   -3.9673   -6.3125 C   0  0  0  0  0  0  0  0  0  0  0  0
    2.5344   -5.0604   -5.4073 C   0  0  0  0  0  0  0  0  0  0  0  0
    0.9983   -5.1185   -5.3872 C   0  0  0  0  0  0  0  0  0  0  0  0
    0.3743   -5.3875   -6.7477 C   0  0  0  0  0  0  0  0  0  0  0  0
    0.8091   -6.6831   -7.2620 N   0  0  0  0  0  0  0  0  0  0  0  0
    0.3689   -6.8862   -8.6390 C   0  0  0  0  0  0  0  0  0  0  0  0
    0.9595   -5.8698   -9.6290 C   0  0  0  0  0  0  0  0  0  0  0  0
    2.4954   -5.8635   -9.6862 C   0  0  0  0  0  0  0  0  0  0  0  0
    3.0985   -7.2070  -10.0751 C   0  0  0  0  0  0  0  0  0  0  0  0
    2.6049   -7.6164  -11.3867 N   0  0  0  0  0  0  0  0  0  0  0  0
    3.0644   -8.9488  -11.7617 C   0  0  0  0  0  0  0  0  0  0  0  0
    2.5191  -10.0384  -10.8481 C   0  0  0  0  0  0  0  0  0  0  0  0
  1  2  1  0
  2  3  1  0
  3  4  1  0
  4  5  1  0
  5  6  1  0
  6  7  1  0
  7  8  1  0
  8  9  1  0
  9 10  1  0
 10 11  1  0
 11 12  1  0
 12 13  1  0
 13 14  1  0
 14 15  1  0
 15 16  1  0
 16 17  1  0
 17 18  1  0
 18 19  1  0
 19 20  1  0
M  END
>  <DRUGBANK_ID>  (1) 
DB13011

>  <COMMON_NAME>  (1) 
Diethylhomospermine

>  <CAS_NUMBER>  (1) 
119422-08-1

>  <UNII>  (1) 
8G6X94GNHO

$$$$
