
     RDKit          3D

 17 17  0  0  0  0  0  0  0  0999 V2000
    1.3741   -0.2868    0.0350 C   0  0  0  0  0  0  0  0  0  0  0  0
    0.9293    1.0517    0.0298 C   0  0  0  0  0  0  0  0  0  0  0  0
   -0.4215    1.3167    0.0654 C   0  0  0  0  0  0  0  0  0  0  0  0
   -1.2671    0.2312   -0.0550 C   0  0  0  0  0  0  0  0  0  0  0  0
   -0.9115   -1.1294   -0.0142 C   0  0  0  0  0  0  0  0  0  0  0  0
    0.4574   -1.3690    0.0182 C   0  0  0  0  0  0  0  0  0  0  0  0
    2.7398   -0.4298    0.0935 O   0  0  0  0  0  0  0  0  0  0  0  0
    3.2159   -1.7583    0.2744 C   0  0  0  0  0  0  0  0  0  0  0  0
   -0.8869    2.6009    0.2142 O   0  0  0  0  0  0  0  0  0  0  0  0
   -2.3009    2.7396    0.4827 C   0  0  0  0  0  0  0  0  0  0  0  0
   -1.8906   -2.1841   -0.0047 N   0  0  0  0  0  0  0  0  0  0  0  0
   -3.2557   -1.9371    0.0643 C   0  0  0  0  0  0  0  0  0  0  0  0
   -4.1954   -2.9445    0.0966 N   0  0  0  0  0  0  0  0  0  0  0  0
   -5.5779   -2.9247    0.1244 C   0  0  0  0  0  0  0  0  0  0  0  0
   -6.3037   -1.7840    0.1025 N   0  0  0  0  0  0  0  0  0  0  0  0
   -3.6558   -0.7212    0.0837 N   0  0  0  0  0  0  0  0  0  0  0  0
   -6.3411   -3.9736    0.1818 N   0  0  0  0  0  0  0  0  0  0  0  0
  1  6  2  0
  1  2  1  0
  1  7  1  0
  2  3  2  0
  3  4  1  0
  3  9  1  0
  4  5  2  0
  5 11  1  0
  5  6  1  0
  8  7  1  0
 10  9  1  0
 12 11  1  0
 12 13  1  0
 12 16  2  0
 14 13  1  0
 14 17  2  0
 14 15  1  0
M  END
>  <DRUGBANK_ID>  (1) 
DB08479

>  <COMMON_NAME>  (1) 
N-(3,5-dimethoxyphenyl)imidodicarbonimidic diamide

>  <CAS_NUMBER>  (1) 
524055-74-1

$$$$
