
     RDKit          3D

 17 18  0  0  0  0  0  0  0  0999 V2000
   -1.2325    1.4606   -0.0006 C   0  0  0  0  0  0  0  0  0  0  0  0
   -2.4557    0.6581   -0.3465 C   0  0  0  0  0  0  0  0  0  0  0  0
   -2.4524   -0.6514    0.4390 C   0  0  0  0  0  0  0  0  0  0  0  0
   -1.2344   -1.4247   -0.0163 C   0  0  0  0  0  0  0  0  0  0  0  0
    0.0539    0.7214   -0.0292 C   0  0  0  0  0  0  0  0  0  0  0  0
    0.0489   -0.6810   -0.0652 C   0  0  0  0  0  0  0  0  0  0  0  0
    1.2502   -1.3903   -0.0917 C   0  0  0  0  0  0  0  0  0  0  0  0
    2.4550   -0.6908   -0.0512 C   0  0  0  0  0  0  0  0  0  0  0  0
    2.4584    0.7059    0.0201 C   0  0  0  0  0  0  0  0  0  0  0  0
    1.2583    1.4171    0.0373 C   0  0  0  0  0  0  0  0  0  0  0  0
   -1.2719   -2.5914   -0.3928 O   0  0  0  0  0  0  0  0  0  0  0  0
   -1.3111    2.6425    0.3084 O   0  0  0  0  0  0  0  0  0  0  0  0
   -2.2926   -0.4054    2.2380 S   0  0  0  0  0  0  0  0  0  0  0  0
   -3.7406   -1.4252    0.1432 C   0  0  0  0  0  0  0  0  0  0  0  0
   -3.6288    0.4789    2.4608 O   0  0  0  0  0  0  0  0  0  0  0  0
   -2.4648   -1.6670    2.9250 O   0  0  0  0  0  0  0  0  0  0  0  0
   -1.1862    0.4614    2.5542 O   0  0  0  0  0  0  0  0  0  0  0  0
  1 12  2  0
  1  2  1  0
  2  3  1  0
  3  4  1  0
  3 13  1  0
  3 14  1  0
  4 11  2  0
  5  6  2  0
  5  1  1  0
  6  4  1  0
  6  7  1  0
  7  8  2  0
  8  9  1  0
  9 10  2  0
 10  5  1  0
 13 15  1  0
 13 16  2  0
 13 17  2  0
M  END
>  <DRUGBANK_ID>  (1) 
DB15944

>  <COMMON_NAME>  (1) 
Menadione bisulfite

>  <CAS_NUMBER>  (1) 
130-36-9

>  <UNII>  (1) 
I2BE1ZEN8I

$$$$
