
     RDKit          3D

 15 12  0  0  1  0  0  0  0  0999 V2000
    0.9596   -0.0165    0.0900 C   0  0  0  0  0  0  0  0  0  0  0  0
    0.4530   -1.3381    0.6440 C   0  0  0  0  0  0  0  0  0  0  0  0
   -0.2777   -1.3529    1.6838 O   0  0  0  0  0  0  0  0  0  0  0  0
    0.7960   -2.5562   -0.0001 O   0  0  0  0  0  0  0  0  0  0  0  0
    1.0111    2.4557   -0.7750 C   0  0  2  0  0  0  0  0  0  0  0  0
    0.5045    1.4732    0.2682 C   0  0  2  0  0  0  0  0  0  0  0  0
    1.0111    0.0784   -0.0610 C   0  0  0  0  0  0  0  0  0  0  0  0
    2.2703    0.2490   -0.0392 O   0  0  0  0  0  0  0  0  0  0  0  0
    0.4732   -1.2050   -0.3434 O   0  0  0  0  0  0  0  0  0  0  0  0
   -0.9155    1.4732    0.2682 O   0  0  0  0  0  0  0  0  0  0  0  0
    0.6689    1.8765   -2.1381 C   0  0  0  0  0  0  0  0  0  0  0  0
    1.5768    1.7405   -3.0169 O   0  0  0  0  0  0  0  0  0  0  0  0
   -0.6653    1.4874   -2.4295 O   0  0  0  0  0  0  0  0  0  0  0  0
    2.3961    2.7651   -0.7264 O   0  0  0  0  0  0  0  0  0  0  0  0
    1.0569    0.0592   -0.0570 Al  0  0  0  0  0 15  0  0  0  0  0  0
  1  2  1  0
  2  3  2  0
  2  4  1  0
  5 11  1  0
  5 14  1  6
  6 10  1  6
  6  7  1  0
  6  5  1  0
  7  8  2  0
  7  9  1  0
 11 12  2  0
 11 13  1  0
M  CHG  4   4  -1   9  -1  13  -1  15   3
M  END
>  <DRUGBANK_ID>  (1) 
DB13789

>  <COMMON_NAME>  (1) 
Aluminium acetotartrate

>  <CAS_NUMBER>  (1) 
15930-12-8

>  <UNII>  (1) 
19MLB4EQ88

$$$$
