
     RDKit          3D

 12 12  0  0  0  0  0  0  0  0999 V2000
    0.6970    1.2824   -0.2657 C   0  0  1  0  0  0  0  0  0  0  0  0
    1.3675    2.4445    0.2520 O   0  0  0  0  0  0  0  0  0  0  0  0
    1.4490    0.0309    0.1926 C   0  0  1  0  0  0  0  0  0  0  0  0
    1.5995    0.1243    1.6230 O   0  0  0  0  0  0  0  0  0  0  0  0
    0.6723   -1.2424   -0.2027 C   0  0  2  0  0  0  0  0  0  0  0  0
   -1.4124   -0.0892   -0.1821 C   0  0  2  0  0  0  0  0  0  0  0  0
   -2.7232   -0.1178    0.3739 O   0  0  0  0  0  0  0  0  0  0  0  0
   -1.5001    2.4269   -0.2896 N   0  0  0  0  0  0  0  0  0  0  0  0
   -0.6688   -1.2054    0.3182 O   0  0  0  0  0  0  0  0  0  0  0  0
   -0.7578    1.2519    0.2254 C   0  0  2  0  0  0  0  0  0  0  0  0
    1.4589   -2.4930    0.2608 C   0  0  0  0  0  0  0  0  0  0  0  0
    0.6861   -3.4782    0.9259 O   0  0  0  0  0  0  0  0  0  0  0  0
  1 10  1  0
  1  2  1  1
  3  1  1  0
  3  4  1  1
  5  3  1  0
  5  9  1  0
  5 11  1  1
  6 10  1  0
  6  7  1  1
  9  6  1  0
 10  8  1  6
 11 12  1  0
M  END
>  <DRUGBANK_ID>  (1) 
DB02678

>  <SECONDARY_ACCESSION_NUMBERS>  (1) 
EXPT00074

>  <COMMON_NAME>  (1) 
beta-D-Galactosamine

>  <CAS_NUMBER>  (1) 
14196-86-2

>  <UNII>  (1) 
K8YZM765ZS

>  <SYNONYMS>  (1) 
2-amino-2-deoxy-beta-D-galactopyranose; 2-amino-2-deoxy-β-D-galactopyranose; 2-deoxy-2-aminogalactose; β-D-galactosamine; β-galactosylamine

$$$$
