
     RDKit          3D

 27 29  0  0  0  0  0  0  0  0999 V2000
    1.1480    1.1497   -2.8776 C   0  0  2  0  0  0  0  0  0  0  0  0
   -0.4503   -0.2517   -1.8816 C   0  0  0  0  0  0  0  0  0  0  0  0
    1.2333   -0.8103   -1.7257 C   0  0  0  0  0  0  0  0  0  0  0  0
   -1.0690   -0.0428   -0.0271 C   0  0  1  0  0  0  0  0  0  0  0  0
    1.2591   -0.5626   -0.3221 C   0  0  2  0  0  0  0  0  0  0  0  0
    0.1816   -0.5481    0.6156 O   0  0  0  0  0  0  0  0  0  0  0  0
    2.3306    2.9815   -3.0343 O   0  0  0  0  0  0  0  0  0  0  0  0
    3.5758    4.7066   -3.3199 C   0  0  0  0  0  0  0  0  0  0  0  0
    4.1073    6.0875   -2.8056 O   0  0  0  0  0  0  0  0  0  0  0  0
    1.2423    0.4582   -1.3259 C   0  0  0  0  0  0  0  0  0  0  0  0
    1.4903    1.9580   -1.0022 C   0  0  0  0  0  0  0  0  0  0  0  0
    3.5773    1.7212   -1.7018 C   0  0  0  0  0  0  0  0  0  0  0  0
    5.2241    2.0800   -3.3163 C   0  0  0  0  0  0  0  0  0  0  0  0
    4.5306    2.5015   -2.1297 C   0  0  0  0  0  0  0  0  0  0  0  0
    5.2662    5.6164   -4.1269 C   0  0  0  0  0  0  0  0  0  0  0  0
    4.3046    2.7783   -4.6573 C   0  0  0  0  0  0  0  0  0  0  0  0
    4.7316    4.4514   -4.1757 C   0  0  0  0  0  0  0  0  0  0  0  0
   -1.2665    1.3439    0.2104 C   0  0  2  0  0  0  0  0  0  0  0  0
   -2.0075    2.1424   -0.7465 C   0  0  0  0  0  0  0  0  0  0  0  0
   -0.0967    1.6848   -0.1207 N   0  0  0  0  0  0  0  0  0  0  0  0
   -1.4096    3.6967   -1.4235 S   0  0  0  0  0  0  0  0  0  0  0  0
    0.0728    3.3239   -0.9214 C   0  0  0  0  0  0  0  0  0  0  0  0
    1.0626    3.8607   -1.5211 O   0  0  0  0  0  0  0  0  0  0  0  0
    4.9127    4.1097   -5.4380 C   0  0  0  0  0  0  0  0  0  0  0  0
   -2.1819   -0.3083    0.9378 O   0  0  0  0  0  0  0  0  0  0  0  0
    2.7760    2.1127   -0.5774 C   0  0  1  0  0  0  0  0  0  0  0  0
    2.7372    3.5212   -0.0276 C   0  0  0  0  0  0  0  0  0  0  0  0
  1  7  1  0
  1  2  1  1
  3  1  1  0
  4  2  1  0
  4 25  1  6
  5  3  1  0
  5 10  1  6
  6  4  1  0
  6  5  1  0
  8  7  1  0
  8  9  2  0
 11 10  1  0
 12 26  1  0
 14 12  2  0
 14 13  1  0
 15  8  1  0
 16 13  1  0
 17 15  2  0
 17 16  1  0
 17 24  1  0
 18  4  1  0
 18 19  1  6
 20 18  1  0
 21 19  1  0
 22 20  1  0
 22 21  1  0
 22 23  2  0
 26 11  1  0
 26 27  1  6
M  END
>  <DRUGBANK_ID>  (1) 
DB08080

>  <COMMON_NAME>  (1) 
Latrunculin B

>  <CAS_NUMBER>  (1) 
76343-94-7

>  <UNII>  (1) 
LW7U308U7U

>  <SYNONYMS>  (1) 
(+)-latrunculin B; LAT-B

$$$$
