
     RDKit          3D

 13 12  0  0  1  0  0  0  0  0999 V2000
    1.0774    0.0253    0.0514 C   0  0  0  0  0  0  0  0  0  0  0  0
    0.5855    0.0326    1.4716 C   0  0  0  0  0  0  0  0  0  0  0  0
   -0.1215    0.9336    1.9124 O   0  0  0  0  0  0  0  0  0  0  0  0
    0.9782   -0.9952    2.2778 N   0  0  0  0  0  0  0  0  0  0  0  0
    1.7320   -2.1951    1.9066 C   0  0  1  0  0  0  0  0  0  0  0  0
    2.9604   -2.3359    2.8297 C   0  0  0  0  0  0  0  0  0  0  0  0
    2.7075   -2.4786    4.3391 C   0  0  0  0  0  0  0  0  0  0  0  0
    1.9796   -3.7232    4.8040 C   0  0  0  0  0  0  0  0  0  0  0  0
    2.7680   -4.7248    5.2445 O   0  0  0  0  0  0  0  0  0  0  0  0
    0.7751   -3.8146    4.8513 O   0  0  0  0  0  0  0  0  0  0  0  0
    0.7750   -3.4056    1.8065 C   0  0  0  0  0  0  0  0  0  0  0  0
    1.0159   -4.2474    0.7748 O   0  0  0  0  0  0  0  0  0  0  0  0
   -0.1850   -3.5915    2.5311 O   0  0  0  0  0  0  0  0  0  0  0  0
  1  2  1  0
  2  3  2  0
  2  4  1  0
  5  4  1  0
  5  6  1  1
  5 11  1  0
  6  7  1  0
  7  8  1  0
  8  9  1  0
  8 10  2  0
 11 12  1  0
 11 13  2  0
M  END
>  <DRUGBANK_ID>  (1) 
DB04075

>  <SECONDARY_ACCESSION_NUMBERS>  (1) 
EXPT02356

>  <COMMON_NAME>  (1) 
N-Acetyl-L-Glutamate

>  <CAS_NUMBER>  (1) 
1188-37-0

>  <UNII>  (1) 
MA61H539YZ

$$$$
