1AE
     RDKit          3D

 13 12  0  0  0  0  0  0  0  0999 V2000
    1.0527    0.0750    0.1485 C   0  0  0  0  0  0  0  0  0  0  0  0
    0.5527    1.2938   -0.6041 C   0  0  0  0  0  0  0  0  0  0  0  0
    1.0795    1.3436   -2.0317 C   0  0  0  0  0  0  0  0  0  0  0  0
    0.6221    0.1724   -2.8899 C   0  0  0  0  0  0  0  0  0  0  0  0
    0.8737   -1.0083   -2.6015 O   0  0  0  0  0  0  0  0  0  0  0  0
   -0.1325    0.5019   -4.1347 C   0  0  0  0  0  0  0  0  0  0  0  0
   -0.1563    1.8264   -4.5073 O   0  0  0  0  0  0  0  0  0  0  0  0
   -0.7338   -0.4857   -4.8194 C   0  0  0  0  0  0  0  0  0  0  0  0
   -1.4947   -0.3868   -5.9723 O   0  0  0  0  0  0  0  0  0  0  0  0
   -2.4271    0.8032   -6.5666 P   0  0  0  0  0  0  0  0  0  0  0  0
   -0.9339    1.0654   -7.2243 O   0  0  0  0  0  0  0  0  0  0  0  0
   -2.7202    1.3990   -5.2020 O   0  0  0  0  0  0  0  0  0  0  0  0
   -2.4743    2.3116   -7.1161 O   0  0  0  0  0  0  0  0  0  0  0  0
  1  2  1  0
  2  3  1  0
  3  4  1  0
  4  6  1  0
  4  5  2  0
  6  8  2  0
  6  7  1  0
  8  9  1  0
  9 10  1  0
 10 12  2  0
 10 11  1  0
 10 13  1  0
M  END
>  <DRUGBANK_ID>  (1) 
DB06881

>  <COMMON_NAME>  (1) 
(1Z)-2-HYDROXY-3-OXOHEX-1-EN-1-YL DIHYDROGEN PHOSPHATE

$$$$
