
     RDKit          3D

 22 21  0  0  0  0  0  0  0  0999 V2000
   -1.1332    0.6964    4.3703 C   0  0  0  0  0  0  0  0  0  0  0  0
    0.3241    1.0221    4.1799 C   0  0  0  0  0  0  0  0  0  0  0  0
    0.5733    1.7933    2.8836 C   0  0  0  0  0  0  0  0  0  0  0  0
   -0.1126    3.1624    2.8905 C   0  0  0  0  0  0  0  0  0  0  0  0
    0.3599    3.9986    4.0863 C   0  0  0  0  0  0  0  0  0  0  0  0
    1.8571    4.2856    3.9593 C   0  0  0  0  0  0  0  0  0  0  0  0
    2.1237    5.0436    2.6549 C   0  0  0  0  0  0  0  0  0  0  0  0
    1.3465    6.3663    2.6443 C   0  0  0  0  0  0  0  0  0  0  0  0
    1.7870    7.2370    3.8170 C   0  0  0  0  0  0  0  0  0  0  0  0
    3.2888    7.4561    3.7615 C   0  0  0  0  0  0  0  0  0  0  0  0
   -1.9184    1.7739    4.5489 O   0  0  0  0  0  0  0  0  0  0  0  0
    3.6105    8.2384    2.5297 C   0  0  0  0  0  0  0  0  0  0  0  0
    4.0964    9.4746    2.5719 C   0  0  0  0  0  0  0  0  0  0  0  0
   -1.6175   -0.4285    4.3595 O   0  0  0  0  0  0  0  0  0  0  0  0
    4.5130   10.1344    3.8462 C   0  0  0  0  0  0  0  0  0  0  0  0
    6.0158   10.3541    3.8122 C   0  0  0  0  0  0  0  0  0  0  0  0
    6.3774   11.3426    2.7075 C   0  0  0  0  0  0  0  0  0  0  0  0
    5.6177   12.6602    2.9041 C   0  0  0  0  0  0  0  0  0  0  0  0
    5.9726   13.2938    4.2550 C   0  0  0  0  0  0  0  0  0  0  0  0
    7.4690   13.6149    4.3262 C   0  0  0  0  0  0  0  0  0  0  0  0
    7.8872   14.5654    3.2031 C   0  0  0  0  0  0  0  0  0  0  0  0
    7.1270   15.8777    3.3075 C   0  0  0  0  0  0  0  0  0  0  0  0
  1 14  2  0
  1  2  1  0
  1 11  1  0
  2  3  1  0
  3  4  1  0
  4  5  1  0
  5  6  1  0
  6  7  1  0
  7  8  1  0
  8  9  1  0
  9 10  1  0
 12 10  1  0
 13 12  2  0
 15 13  1  0
 16 15  1  0
 17 16  1  0
 18 17  1  0
 19 18  1  0
 20 19  1  0
 21 20  1  0
 22 21  1  0
M  END
>  <DRUGBANK_ID>  (1) 
DB14073

>  <COMMON_NAME>  (1) 
Gondoic acid

>  <CAS_NUMBER>  (1) 
5561-99-9

>  <UNII>  (1) 
UDX6WPL94T

>  <SYNONYMS>  (1) 
(11Z)-Eicosenoic acid; (11Z)-Icosenoic acid; (Z)-eicos-11-enoic acid; (Z)-icos-11-enoic acid; (Z)-Icosa-11-enoic acid; 11-Eicosenoic acid; 11-Icosenoic acid; cis-11-eicosenoic acid; cis-gondoic acid; cis-Î”11-eicosenoic acid; Eicosenoic acid

$$$$
