1388
     RDKit          3D

 36 39  0  0  1  0  0  0  0  0999 V2000
    0.9720   -0.8929   -0.0429 F   0  0  0  0  0  0  0  0  0  0  0  0
    8.7355    1.1794   -0.4518 O   0  0  0  0  0  0  0  0  0  0  0  0
   10.8861    1.2761   -1.1022 O   0  0  0  0  0  0  0  0  0  0  0  0
    8.5347   -0.3660   -3.0190 O   0  0  0  0  0  0  0  0  0  0  0  0
    5.0132    3.6208   -1.8733 N   0  0  0  0  0  0  0  0  0  0  0  0
    2.6016    4.0967    2.7649 N   0  0  0  0  0  0  0  0  0  0  0  0
    2.9486    4.6534    0.6607 N   0  0  0  0  0  0  0  0  0  0  0  0
    7.2666    1.0660   -0.6185 C   0  0  1  0  0  0  0  0  0  0  0  0
    6.7413   -0.3219   -0.0185 C   0  0  1  0  0  0  0  0  0  0  0  0
    6.6602    2.0358    0.3004 C   0  0  0  0  0  0  0  0  0  0  0  0
    7.1990   -0.4434    1.5261 C   0  0  0  0  0  0  0  0  0  0  0  0
    6.8506    1.6806   -2.0076 C   0  0  0  0  0  0  0  0  0  0  0  0
    5.2368   -0.6286   -0.1165 C   0  0  0  0  0  0  0  0  0  0  0  0
    5.1342    1.7445    0.2665 C   0  0  0  0  0  0  0  0  0  0  0  0
    4.4170    0.4337   -0.0232 C   0  0  0  0  0  0  0  0  0  0  0  0
    5.5006    2.2775   -2.4328 C   0  0  0  0  0  0  0  0  0  0  0  0
    6.7684    0.5812    2.6215 C   0  0  0  0  0  0  0  0  0  0  0  0
    6.6934   -1.7633    2.0561 C   0  0  0  0  0  0  0  0  0  0  0  0
    4.5370   -1.8524   -0.0686 C   0  0  0  0  0  0  0  0  0  0  0  0
    3.0027    0.1861   -0.2628 C   0  0  0  0  0  0  0  0  0  0  0  0
    3.1101   -2.0187    0.0264 C   0  0  0  0  0  0  0  0  0  0  0  0
    9.7309    1.1276   -1.4007 C   0  0  0  0  0  0  0  0  0  0  0  0
    2.3091   -0.9429   -0.1343 C   0  0  0  0  0  0  0  0  0  0  0  0
    3.5290    3.7065   -1.8403 C   0  0  0  0  0  0  0  0  0  0  0  0
    5.5721    4.3016   -0.6700 C   0  0  0  0  0  0  0  0  0  0  0  0
    2.6193    2.7096   -1.0337 C   0  0  0  0  0  0  0  0  0  0  0  0
    9.3377    0.7931   -2.8528 C   0  0  0  0  0  0  0  0  0  0  0  0
    2.4734    2.4432    0.7826 C   0  0  0  0  0  0  0  0  0  0  0  0
    2.6157    3.6963    1.4493 C   0  0  0  0  0  0  0  0  0  0  0  0
    9.1174   -1.5107   -2.4308 C   0  0  0  0  0  0  0  0  0  0  0  0
    2.4152    5.4620    2.6704 C   0  0  0  0  0  0  0  0  0  0  0  0
    2.6221    5.7228    1.3260 C   0  0  0  0  0  0  0  0  0  0  0  0
    2.0478    6.4802    3.5273 C   0  0  0  0  0  0  0  0  0  0  0  0
    2.4138    6.9215    0.6994 C   0  0  0  0  0  0  0  0  0  0  0  0
    1.6224    7.6474    2.8560 C   0  0  0  0  0  0  0  0  0  0  0  0
    1.7735    7.8508    1.4718 C   0  0  0  0  0  0  0  0  0  0  0  0
  1 23  1  0
  2 22  1  0
  3 22  2  0
  4 27  1  0
  4 30  1  0
  5 16  1  0
  5 24  1  0
  5 25  1  0
  6 29  1  0
  6 31  1  0
  7 29  2  0
  7 32  1  0
  8  9  1  0
  8 10  1  0
  8 12  1  6
  8  2  1  0
  9 13  1  0
  9 11  1  1
 10 14  1  0
 11 17  1  0
 11 18  1  0
 12 16  1  0
 13 15  2  0
 13 19  1  0
 14 15  1  0
 15 20  1  0
 19 21  2  0
 20 23  2  0
 21 23  1  0
 22 27  1  0
 24 26  1  0
 26 28  1  0
 28 29  1  0
 31 32  2  0
 31 33  1  0
 32 34  1  0
 33 35  2  0
 34 36  2  0
 35 36  1  0
M  END
>  <DRUGBANK_ID>  (1) 
DB01388

>  <COMMON_NAME>  (1) 
Mibefradil

>  <CAS_NUMBER>  (1) 
116644-53-2

>  <UNII>  (1) 
27B90X776A

>  <SYNONYMS>  (1) 
Mibefradil

$$$$
