270
     RDKit          3D

 27 29  0  0  1  0  0  0  0  0999 V2000
    0.9974   -0.2190    0.0842 O   0  0  0  0  0  0  0  0  0  0  0  0
   -5.4873   -1.7000   -3.5456 O   0  0  0  0  0  0  0  0  0  0  0  0
    1.0328   -0.0721   -2.2042 O   0  0  0  0  0  0  0  0  0  0  0  0
   -3.0504   -1.1460   -6.2122 O   0  0  0  0  0  0  0  0  0  0  0  0
   -3.8209   -3.0751   -3.1276 O   0  0  0  0  0  0  0  0  0  0  0  0
   -3.0268    0.7043   -0.3399 N   0  0  0  0  0  0  0  0  0  0  0  0
   -2.8923   -0.8531   -4.8760 N   0  0  0  0  0  0  0  0  0  0  0  0
   -1.8929   -1.6817   -6.7415 N   0  0  0  0  0  0  0  0  0  0  0  0
   -1.9196   -1.3883   -1.8538 C   0  0  0  0  0  0  0  0  0  0  0  0
   -1.0646   -0.3139   -1.0714 C   0  0  0  0  0  0  0  0  0  0  0  0
   -3.4801   -1.0099   -1.9708 C   0  0  0  0  0  0  0  0  0  0  0  0
   -1.2641   -1.7318   -3.1888 C   0  0  0  0  0  0  0  0  0  0  0  0
   -1.6734    0.6813   -0.3979 C   0  0  0  0  0  0  0  0  0  0  0  0
   -3.8490    0.0629   -1.2140 C   0  0  0  0  0  0  0  0  0  0  0  0
   -1.7711   -1.4796   -4.4875 C   0  0  0  0  0  0  0  0  0  0  0  0
    0.4060   -0.2050   -1.1412 C   0  0  0  0  0  0  0  0  0  0  0  0
    0.0105   -2.3702   -3.2233 C   0  0  0  0  0  0  0  0  0  0  0  0
   -1.0703    1.8796    0.2729 C   0  0  0  0  0  0  0  0  0  0  0  0
   -4.3112   -1.9647   -2.8837 C   0  0  0  0  0  0  0  0  0  0  0  0
   -5.1396    0.7579   -1.1841 C   0  0  0  0  0  0  0  0  0  0  0  0
   -1.0784   -1.8821   -5.6974 C   0  0  0  0  0  0  0  0  0  0  0  0
    0.7616   -2.5846   -4.4031 C   0  0  0  0  0  0  0  0  0  0  0  0
    0.2296   -2.3864   -5.6829 C   0  0  0  0  0  0  0  0  0  0  0  0
    2.4398   -0.1009    0.0622 C   0  0  0  0  0  0  0  0  0  0  0  0
    2.9474    0.2885    1.4482 C   0  0  0  0  0  0  0  0  0  0  0  0
    3.0224   -1.4526   -0.3305 C   0  0  0  0  0  0  0  0  0  0  0  0
   -6.4883   -0.7149   -3.2800 C   0  0  0  0  0  0  0  0  0  0  0  0
  1 16  1  0
  1 24  1  0
  2 19  1  0
  2 27  1  0
  3 16  2  0
  4  7  1  0
  4  8  1  0
  5 19  2  0
  6 13  1  0
  6 14  1  0
  7 15  2  0
  8 21  2  0
  9 10  1  0
  9 11  1  0
  9 12  1  0
 10 13  2  0
 10 16  1  0
 11 14  2  0
 11 19  1  0
 12 15  1  0
 12 17  2  0
 13 18  1  0
 14 20  1  0
 15 21  1  0
 17 22  1  0
 21 23  1  0
 22 23  2  0
 24 25  1  0
 24 26  1  0
M  END
>  <DRUGBANK_ID>  (1) 
DB00270

>  <SECONDARY_ACCESSION_NUMBERS>  (1) 
APRD00298

>  <COMMON_NAME>  (1) 
Isradipine

>  <CAS_NUMBER>  (1) 
75695-93-1

>  <UNII>  (1) 
YO1UK1S598

>  <SYNONYMS>  (1) 
Isradipine; Isradipino; Isradipinum

$$$$
