
     RDKit          3D

 23 25  0  0  0  0  0  0  0  0999 V2000
    0.8887   -0.1403   -0.1985 C   0  0  0  0  0  0  0  0  0  0  0  0
    0.4227   -0.6128   -1.5552 C   0  0  0  0  0  0  0  0  0  0  0  0
    0.0153    0.2393   -2.5227 C   0  0  0  0  0  0  0  0  0  0  0  0
   -0.2914    1.5825   -2.5654 N   0  0  0  0  0  0  0  0  0  0  0  0
   -0.8250    2.3350   -3.6277 C   0  0  0  0  0  0  0  0  0  0  0  0
   -0.9153    3.5577   -3.5183 O   0  0  0  0  0  0  0  0  0  0  0  0
   -1.3074    1.7073   -4.8949 C   0  0  0  0  0  0  0  0  0  0  0  0
   -2.1333    0.5759   -4.8945 C   0  0  0  0  0  0  0  0  0  0  0  0
   -2.1777   -0.2316   -6.0363 C   0  0  0  0  0  0  0  0  0  0  0  0
   -1.5004    0.1845   -7.1744 C   0  0  0  0  0  0  0  0  0  0  0  0
   -0.8147    1.3475   -7.2546 N   0  0  0  0  0  0  0  0  0  0  0  0
   -0.7101    2.0718   -6.1030 C   0  0  0  0  0  0  0  0  0  0  0  0
    0.1829   -0.5788   -3.7345 C   0  0  0  0  0  0  0  0  0  0  0  0
    0.5791   -0.0874   -4.7883 O   0  0  0  0  0  0  0  0  0  0  0  0
   -0.0614   -1.8939   -3.4255 N   0  0  0  0  0  0  0  0  0  0  0  0
   -0.0999   -2.8951   -4.4564 C   0  0  0  0  0  0  0  0  0  0  0  0
    0.5576   -2.6722   -5.6947 C   0  0  0  0  0  0  0  0  0  0  0  0
    0.3842   -3.4786   -6.8292 C   0  0  0  0  0  0  0  0  0  0  0  0
   -0.4741   -4.5583   -6.7691 C   0  0  0  0  0  0  0  0  0  0  0  0
   -1.1769   -4.7894   -5.5852 C   0  0  0  0  0  0  0  0  0  0  0  0
   -1.0340   -3.9374   -4.4583 C   0  0  0  0  0  0  0  0  0  0  0  0
    0.3256   -1.9735   -2.0243 N   0  0  0  0  0  0  0  0  0  0  0  0
    0.8616   -3.1987   -1.4469 C   0  0  0  0  0  0  0  0  0  0  0  0
  1  2  1  0
  2  3  2  0
  2 22  1  0
  3  4  1  0
  3 13  1  0
  4  5  1  0
  5  6  2  0
  5  7  1  0
  7  8  2  0
  7 12  1  0
  8  9  1  0
  9 10  2  0
 10 11  1  0
 11 12  2  0
 13 14  2  0
 13 15  1  0
 15 16  1  0
 15 22  1  0
 16 17  2  0
 16 21  1  0
 17 18  1  0
 18 19  2  0
 19 20  1  0
 20 21  2  0
 22 23  1  0
M  END
>  <DRUGBANK_ID>  (1) 
DB13407

>  <COMMON_NAME>  (1) 
Nifenazone

>  <CAS_NUMBER>  (1) 
2139-47-1

>  <UNII>  (1) 
8780F0K71U

>  <SYNONYMS>  (1) 
Nifenazone

$$$$
