216
     RDKit          3D

 30 32  0  0  0  0  0  0  0  0999 V2000
    1.2053    0.1077   -0.1237 O   0  0  0  0  0  0  0  0  0  0  0  0
    5.5387    0.2263   -1.0945 O   0  0  0  0  0  0  0  0  0  0  0  0
    2.4352    0.9013   -2.9603 O   0  0  0  0  0  0  0  0  0  0  0  0
    3.1259   -1.1554   -0.3269 N   0  0  0  0  0  0  0  0  0  0  0  0
    3.2808    1.0872    0.1818 N   0  0  0  0  0  0  0  0  0  0  0  0
    2.4303   -0.0007    0.0406 C   0  0  0  0  0  0  0  0  0  0  0  0
    3.7079   -1.2254   -1.7209 C   0  0  1  0  0  0  0  0  0  0  0  0
    4.5414    0.0382   -2.0944 C   0  0  1  0  0  0  0  0  0  0  0  0
    3.6487    1.2743   -2.2850 C   0  0  2  0  0  0  0  0  0  0  0  0
    3.3749    2.0350   -0.9588 C   0  0  1  0  0  0  0  0  0  0  0  0
    3.5306   -2.0056    0.7851 C   0  0  0  0  0  0  0  0  0  0  0  0
    2.9812   -3.3907    0.7454 C   0  0  0  0  0  0  0  0  0  0  0  0
    3.6763   -4.4545    1.1803 C   0  0  0  0  0  0  0  0  0  0  0  0
    4.5828   -2.4330   -2.0886 C   0  0  0  0  0  0  0  0  0  0  0  0
    3.8406   -3.7362   -2.2006 C   0  0  0  0  0  0  0  0  0  0  0  0
    2.5725   -3.8593   -2.7849 C   0  0  0  0  0  0  0  0  0  0  0  0
    1.8257   -5.0224   -2.5908 C   0  0  0  0  0  0  0  0  0  0  0  0
    2.3493   -6.0702   -1.8388 C   0  0  0  0  0  0  0  0  0  0  0  0
    3.6657   -6.0114   -1.3948 C   0  0  0  0  0  0  0  0  0  0  0  0
    4.4133   -4.8508   -1.5865 C   0  0  0  0  0  0  0  0  0  0  0  0
    2.1511    2.9356   -1.1886 C   0  0  0  0  0  0  0  0  0  0  0  0
    1.8596    3.8921   -0.0786 C   0  0  0  0  0  0  0  0  0  0  0  0
    2.8217    4.8260    0.3197 C   0  0  0  0  0  0  0  0  0  0  0  0
    2.5056    5.7782    1.2778 C   0  0  0  0  0  0  0  0  0  0  0  0
    1.2182    5.8216    1.8103 C   0  0  0  0  0  0  0  0  0  0  0  0
    0.2589    4.8871    1.4204 C   0  0  0  0  0  0  0  0  0  0  0  0
    0.5906    3.8958    0.5071 C   0  0  0  0  0  0  0  0  0  0  0  0
    3.6947    1.5125    1.5286 C   0  0  0  0  0  0  0  0  0  0  0  0
    5.1983    1.6093    1.5950 C   0  0  0  0  0  0  0  0  0  0  0  0
    5.9035    2.7178    1.8558 C   0  0  0  0  0  0  0  0  0  0  0  0
  1  6  2  0
  4  6  1  0
  4  7  1  0
  4 11  1  0
  5  6  1  0
  5 10  1  0
  5 28  1  0
  7  8  1  0
  7 14  1  1
  8  9  1  0
  8  2  1  1
  9  3  1  1
  9 10  1  0
 10 21  1  6
 11 12  1  0
 12 13  2  0
 14 15  1  0
 15 16  2  0
 15 20  1  0
 16 17  1  0
 17 18  2  0
 18 19  1  0
 19 20  2  0
 21 22  1  0
 22 23  2  0
 22 27  1  0
 23 24  1  0
 24 25  2  0
 25 26  1  0
 26 27  2  0
 28 29  1  0
 29 30  2  0
M  END
>  <DRUGBANK_ID>  (1) 
DB06910

>  <COMMON_NAME>  (1) 
[4-R-(4-ALPHA,6-BETA,7-BETA]-HEXAHYDRO-5,6-DI(HYDROXY)-1,3-DI(ALLYL)-4,7-BISPHENYLMETHYL)-2H-1,3-DIAZEPINONE

$$$$
