
     RDKit          3D

 19 22  0  0  0  0  0  0  0  0999 V2000
   -1.0064    0.4586   -0.2366 C   0  0  2  0  0  0  0  0  0  0  0  0
    0.6361    0.4614    0.0654 C   0  0  0  0  0  0  0  0  0  0  0  0
   -0.6700   -1.9595   -0.4009 C   0  0  1  0  0  0  0  0  0  0  0  0
   -1.6983   -0.8961   -0.0862 C   0  0  1  0  0  0  0  0  0  0  0  0
   -0.1925   -1.4865   -1.7742 N   0  0  0  0  0  0  0  0  0  0  0  0
    1.4197   -0.7340    0.2215 C   0  0  0  0  0  0  0  0  0  0  0  0
    0.7664   -2.0714    0.1922 C   0  0  0  0  0  0  0  0  0  0  0  0
   -1.4835    0.5994   -1.7190 C   0  0  0  0  0  0  0  0  0  0  0  0
   -0.3679   -0.0682   -2.4183 C   0  0  0  0  0  0  0  0  0  0  0  0
    1.4210    1.6221   -0.0538 C   0  0  0  0  0  0  0  0  0  0  0  0
    2.8231   -0.7574    0.2317 C   0  0  0  0  0  0  0  0  0  0  0  0
    2.8144    1.6019   -0.0343 C   0  0  0  0  0  0  0  0  0  0  0  0
   -1.5594    1.6085    0.5744 C   0  0  0  0  0  0  0  0  0  0  0  0
    3.5569    0.4127    0.0991 C   0  0  0  0  0  0  0  0  0  0  0  0
   -0.4500   -2.5601   -2.6986 C   0  0  0  0  0  0  0  0  0  0  0  0
   -3.0812   -0.8940    0.5872 C   0  0  0  0  0  0  0  0  0  0  0  0
    3.4979    2.7812   -0.1895 O   0  0  0  0  0  0  0  0  0  0  0  0
   -3.0629    1.7287    0.4956 C   0  0  0  0  0  0  0  0  0  0  0  0
   -3.8322    0.4246    0.2734 C   0  0  0  0  0  0  0  0  0  0  0  0
  1  2  1  0
  1  8  1  6
  3  4  1  0
  3  5  1  0
  4  1  1  0
  5  9  1  0
  6  2  2  0
  6  7  1  0
  3  7  1  6
  9  8  1  0
 10  2  1  0
 11  6  1  0
 11 14  2  0
 12 10  2  0
 13  1  1  0
 14 12  1  0
 15  5  1  0
  4 16  1  1
 16 19  1  0
 17 12  1  0
 18 13  1  0
 19 18  1  0
M  END
>  <DRUGBANK_ID>  (1) 
DB14682

>  <COMMON_NAME>  (1) 
Dextrorphan

>  <CAS_NUMBER>  (1) 
125-73-5

>  <UNII>  (1) 
04B7QNO9WS

>  <SYNONYMS>  (1) 
(+)-dextrorphan; (+)-N-methylmorphinan-3-ol; d-3-hydroxy-N-methylmorphinan; Dextro-dromoran; Dextrorphan; Dextrorphane; Dextrorphanum; Levorphanol D-form

$$$$
