
     RDKit          3D

 27 31  0  0  0  0  0  0  0  0999 V2000
   -3.3932    0.0325    0.0023 C   0  0  0  0  0  0  0  0  0  0  0  0
   -1.9131   -0.0322    0.0044 C   0  0  0  0  0  0  0  0  0  0  0  0
   -1.1349    1.0986    0.0011 N   0  0  0  0  0  0  0  0  0  0  0  0
    0.1814    0.7155    0.0032 C   0  0  0  0  0  0  0  0  0  0  0  0
    1.3717    1.4457    0.0111 C   0  0  0  0  0  0  0  0  0  0  0  0
    2.5635    0.7009   -0.0345 C   0  0  0  0  0  0  0  0  0  0  0  0
    2.5552   -0.7005   -0.0727 C   0  0  0  0  0  0  0  0  0  0  0  0
    1.3372   -1.4002   -0.0298 C   0  0  0  0  0  0  0  0  0  0  0  0
    0.1352   -0.6737   -0.0068 C   0  0  0  0  0  0  0  0  0  0  0  0
   -1.1656   -1.1167    0.0101 N   0  0  0  0  0  0  0  0  0  0  0  0
    3.8010    1.3899    0.0335 N   0  0  0  0  0  0  0  0  0  0  0  0
    4.1927    2.3042    1.0125 C   0  0  0  0  0  0  0  0  0  0  0  0
    5.4804    2.7089    0.6938 C   0  0  0  0  0  0  0  0  0  0  0  0
    5.7433    2.0347   -0.5213 C   0  0  0  0  0  0  0  0  0  0  0  0
    4.7745    1.1904   -0.8884 N   0  0  0  0  0  0  0  0  0  0  0  0
    6.3193    3.6052    1.5225 C   0  0  0  0  0  0  0  0  0  0  0  0
    5.9784    3.9888    2.6047 O   0  0  0  0  0  0  0  0  0  0  0  0
    7.5895    3.9936    0.8891 C   0  0  0  0  0  0  0  0  0  0  0  0
    7.7372    4.6420   -0.3224 C   0  0  0  0  0  0  0  0  0  0  0  0
    9.1027    4.9287   -0.5058 C   0  0  0  0  0  0  0  0  0  0  0  0
    9.8601    5.7089   -1.3815 C   0  0  0  0  0  0  0  0  0  0  0  0
   11.0636    6.0268   -0.7677 C   0  0  0  0  0  0  0  0  0  0  0  0
   11.8780    4.9815   -0.6552 C   0  0  0  0  0  0  0  0  0  0  0  0
   11.2561    4.2334    0.3351 C   0  0  0  0  0  0  0  0  0  0  0  0
    9.8147    4.2612    0.4937 C   0  0  0  0  0  0  0  0  0  0  0  0
    8.8703    3.8750    1.4398 N   0  0  0  0  0  0  0  0  0  0  0  0
    3.4256    2.6322    2.0805 N   0  0  0  0  0  0  0  0  0  0  0  0
  1  2  1  0
  2  3  1  0
  2 10  2  0
  3  4  1  0
  4  5  2  0
  4  9  1  0
  5  6  1  0
  6  7  2  0
  6 11  1  0
  7  8  1  0
  8  9  2  0
  9 10  1  0
 11 12  1  0
 11 15  1  0
 12 13  2  0
 12 27  1  0
 13 14  1  0
 13 16  1  0
 14 15  2  0
 16 17  2  0
 16 18  1  0
 18 19  2  0
 18 26  1  0
 19 20  1  0
 20 21  2  0
 20 25  1  0
 21 22  1  0
 22 23  2  0
 23 24  1  0
 24 25  2  0
 25 26  1  0
M  END
>  <DRUGBANK_ID>  (1) 
DB12903

>  <COMMON_NAME>  (1) 
DEBIO-1347

>  <CAS_NUMBER>  (1) 
1265229-25-1

>  <UNII>  (1) 
NR9ZYH80Z8

$$$$
