
     RDKit          3D

 27 29  0  0  0  0  0  0  0  0999 V2000
   -5.7026   -3.8053   -0.2817 C   0  0  0  0  0  0  0  0  0  0  0  0
   -4.5920   -4.4788    0.2365 C   0  0  0  0  0  0  0  0  0  0  0  0
   -4.4227   -5.8395   -0.1090 C   0  0  0  0  0  0  0  0  0  0  0  0
   -5.3270   -6.5020   -0.9519 C   0  0  0  0  0  0  0  0  0  0  0  0
   -6.4104   -5.7862   -1.4647 C   0  0  0  0  0  0  0  0  0  0  0  0
   -6.6022   -4.4521   -1.1351 C   0  0  0  0  0  0  0  0  0  0  0  0
   -1.3532    2.4948    0.6733 C   0  0  0  0  0  0  0  0  0  0  0  0
   -0.6420    1.5304   -0.0767 C   0  0  0  0  0  0  0  0  0  0  0  0
   -0.4978    0.2170    0.4387 C   0  0  0  0  0  0  0  0  0  0  0  0
   -0.9693   -0.1503    1.6934 C   0  0  0  0  0  0  0  0  0  0  0  0
   -1.5984    0.8324    2.4458 C   0  0  0  0  0  0  0  0  0  0  0  0
   -1.8413    2.0931    1.9251 C   0  0  0  0  0  0  0  0  0  0  0  0
   -3.0897   -1.6579    3.3918 C   0  0  0  0  0  0  0  0  0  0  0  0
   -2.1175   -2.3416    2.4495 C   0  0  1  0  0  0  0  0  0  0  0  0
   -2.9702   -2.5428    1.1787 C   0  0  2  0  0  0  0  0  0  0  0  0
   -3.8961   -1.3588    1.2751 C   0  0  0  0  0  0  0  0  0  0  0  0
   -3.9580   -0.8912    2.5570 O   0  0  0  0  0  0  0  0  0  0  0  0
   -0.8102   -1.5582    2.1997 C   0  0  0  0  0  0  0  0  0  0  0  0
   -3.7186   -3.8806    1.3189 C   0  0  0  0  0  0  0  0  0  0  0  0
   -5.2657   -7.8244   -1.3150 O   0  0  0  0  0  0  0  0  0  0  0  0
   -4.1852   -8.5784   -0.7739 C   0  0  0  0  0  0  0  0  0  0  0  0
    0.0197    1.5386   -1.2799 O   0  0  0  0  0  0  0  0  0  0  0  0
    0.1783    2.7657   -1.9198 C   0  0  0  0  0  0  0  0  0  0  0  0
   -1.7056    3.8092    0.5374 O   0  0  0  0  0  0  0  0  0  0  0  0
   -1.4932    4.5748   -0.6158 C   0  0  0  0  0  0  0  0  0  0  0  0
   -7.3257   -6.3743   -2.2958 O   0  0  0  0  0  0  0  0  0  0  0  0
   -4.5534   -0.8842    0.3496 O   0  0  0  0  0  0  0  0  0  0  0  0
  1  2  2  0
  2  3  1  0
  3  4  2  0
  4  5  1  0
  4 20  1  0
  5  6  2  0
  5 26  1  0
  6  1  1  0
  7  8  2  0
  7 24  1  0
  8  9  1  0
  8 22  1  0
  9 10  2  0
 10 11  1  0
 11 12  2  0
 12  7  1  0
 13 14  1  0
 14 15  1  0
 14 18  1  6
 15 16  1  0
 15 19  1  1
 16 17  1  0
 16 27  2  0
 17 13  1  0
 18 10  1  0
 19  2  1  0
 20 21  1  0
 22 23  1  0
 24 25  1  0
M  END
>  <DRUGBANK_ID>  (1) 
DB16880

>  <COMMON_NAME>  (1) 
Arctigenin

>  <CAS_NUMBER>  (1) 
7770-78-7

>  <UNII>  (1) 
U76MR9VS6M

>  <SYNONYMS>  (1) 
(-)-Arctigenin

$$$$
