
     RDKit          3D

 21 22  0  0  0  0  0  0  0  0999 V2000
   -0.4420   -0.6670   -0.3270 C   0  0  1  0  0  0  0  0  0  0  0  0
   -0.4715    0.6989    0.3318 C   0  0  1  0  0  0  0  0  0  0  0  0
    0.9462    1.2178    0.0099 C   0  0  1  0  0  0  0  0  0  0  0  0
    1.7924    0.0630    0.0601 O   0  0  0  0  0  0  0  0  0  0  0  0
    0.9583   -1.1035    0.0554 C   0  0  2  0  0  0  0  0  0  0  0  0
    1.5293   -2.1844   -0.8387 C   0  0  0  0  0  0  0  0  0  0  0  0
   -1.4532   -1.5496    0.1462 O   0  0  0  0  0  0  0  0  0  0  0  0
   -1.5452    1.4986   -0.1404 O   0  0  0  0  0  0  0  0  0  0  0  0
    1.9228   -3.2145    0.0520 O   0  0  0  0  0  0  0  0  0  0  0  0
    3.4344   -3.3246    0.5369 P   0  0  0  0  0  0  0  0  0  0  0  0
    3.2779   -4.7293    1.2847 O   0  0  0  0  0  0  0  0  0  0  0  0
    4.5421   -3.2437   -0.4453 O   0  0  0  0  0  0  0  0  0  0  0  0
    3.6596   -2.5277    1.9012 O   0  0  0  0  0  0  0  0  0  0  0  0
    0.4715    3.2200   -1.2949 C   0  0  0  0  0  0  0  0  0  0  0  0
    1.0414    1.9561   -1.2702 N   0  0  0  0  0  0  0  0  0  0  0  0
    1.8491    1.5433   -2.3374 C   0  0  0  0  0  0  0  0  0  0  0  0
    1.8714    2.3086   -3.4779 N   0  0  0  0  0  0  0  0  0  0  0  0
    1.3491    3.4945   -3.4742 C   0  0  0  0  0  0  0  0  0  0  0  0
    0.6775    4.0632   -2.2993 C   0  0  0  0  0  0  0  0  0  0  0  0
    2.5130    0.5004   -2.3128 O   0  0  0  0  0  0  0  0  0  0  0  0
    1.4051    4.2255   -4.6201 N   0  0  0  0  0  0  0  0  0  0  0  0
  1  2  1  0
  1  7  1  1
  2  3  1  0
  2  8  1  6
  3  4  1  0
  3 15  1  6
  4  5  1  0
  5  1  1  0
  5  6  1  6
  6  9  1  0
  9 10  1  0
 10 11  1  0
 10 12  2  0
 10 13  1  0
 14 15  1  0
 15 16  1  0
 16 20  2  0
 16 17  1  0
 17 18  2  0
 18 19  1  0
 18 21  1  0
 19 14  2  0
M  END
>  <DRUGBANK_ID>  (1) 
DB02456

>  <SECONDARY_ACCESSION_NUMBERS>  (1) 
EXPT00831

>  <COMMON_NAME>  (1) 
Aracytidine 5'-monophosphate

>  <CAS_NUMBER>  (1) 
7075-11-8

>  <UNII>  (1) 
Y73692GHI4

>  <SYNONYMS>  (1) 
1-beta-D-Arabinofuranosylcytosine 5'-phosphate; Ara-5'-CMP; Aracytidine 5'-phosphate; Cytosine arabinose-5'-phosphate; Cytosine arabinoside 5'MP; Cytosine arabinoside monophosphate

$$$$
