1476
     RDKit          3D

 23 26  0  0  1  0  0  0  0  0999 V2000
    1.1561   -0.3310    0.0766 Br  0  0  0  0  0  0  0  0  0  0  0  0
    6.0184   -4.5757    2.3375 F   0  0  0  0  0  0  0  0  0  0  0  0
    6.4125   -4.2425   -0.0187 O   0  0  0  0  0  0  0  0  0  0  0  0
    8.0840    0.5293   -2.3041 O   0  0  0  0  0  0  0  0  0  0  0  0
    6.8399   -2.5935   -1.4709 N   0  0  0  0  0  0  0  0  0  0  0  0
    7.0956    0.0956   -0.3037 N   0  0  0  0  0  0  0  0  0  0  0  0
    6.3350   -2.7702   -0.0488 C   0  0  0  0  0  0  0  0  0  0  0  0
    7.1111   -3.9424   -2.0217 C   0  0  0  0  0  0  0  0  0  0  0  0
    5.2345   -1.5374    0.0339 C   0  0  0  0  0  0  0  0  0  0  0  0
    7.6475   -4.5747   -0.7985 C   0  0  0  0  0  0  0  0  0  0  0  0
    8.0131   -1.7567   -1.5936 C   0  0  0  0  0  0  0  0  0  0  0  0
    7.1438   -2.6969    1.2985 C   0  0  0  0  0  0  0  0  0  0  0  0
    5.7615   -0.1884   -0.0062 C   0  0  0  0  0  0  0  0  0  0  0  0
    7.6627   -0.2803   -1.5103 C   0  0  0  0  0  0  0  0  0  0  0  0
    3.8235   -1.5509    0.0916 C   0  0  0  0  0  0  0  0  0  0  0  0
    7.0038   -3.6583    2.3371 C   0  0  0  0  0  0  0  0  0  0  0  0
    8.1590   -1.7763    1.5048 C   0  0  0  0  0  0  0  0  0  0  0  0
    5.0103    1.0070    0.1290 C   0  0  0  0  0  0  0  0  0  0  0  0
    3.0581   -0.3193    0.1195 C   0  0  0  0  0  0  0  0  0  0  0  0
    3.6410    0.9494    0.1480 C   0  0  0  0  0  0  0  0  0  0  0  0
    7.9801   -3.7978    3.3292 C   0  0  0  0  0  0  0  0  0  0  0  0
    9.1446   -1.9087    2.4549 C   0  0  0  0  0  0  0  0  0  0  0  0
    9.0898   -2.9600    3.3366 C   0  0  0  0  0  0  0  0  0  0  0  0
  1 19  1  0
  2 16  1  0
  3  7  1  0
  3 10  1  0
  4 14  2  0
  5  7  1  0
  5  8  1  0
  5 11  1  0
  6 13  1  0
  6 14  1  0
  7  9  1  0
  7 12  1  0
  8 10  1  0
  9 13  2  0
  9 15  1  0
 11 14  1  0
 12 16  2  0
 12 17  1  0
 13 18  1  0
 15 19  2  0
 16 21  1  0
 17 22  2  0
 18 20  2  0
 19 20  1  0
 21 23  2  0
 22 23  1  0
M  END
>  <DRUGBANK_ID>  (1) 
DB01476

>  <COMMON_NAME>  (1) 
Haloxazolam

>  <CAS_NUMBER>  (1) 
59128-97-1

>  <UNII>  (1) 
M448L2V8XP

>  <SYNONYMS>  (1) 
Haloxazolam; Haloxazolamum

$$$$
