
     RDKit          3D

 16  8  0  0  0  0  0  0  0  0999 V2000
    0.9683    0.0861   -0.0398 O   0  0  0  0  0  0  0  0  0  0  0  0
    1.0740   -0.0241   -0.0628 O   0  0  0  0  0  0  0  0  0  0  0  0
    0.9514   -0.0022   -0.0874 O   0  0  0  0  0  0  0  0  0  0  0  0
    2.6614   -0.0022   -0.0874 S   0  0  0  0  0  0  0  0  0  0  0  0
    3.1716   -1.3375    0.4593 O   0  0  0  0  0  0  0  0  0  0  0  0
    3.1716    0.1920   -1.5172 O   0  0  0  0  0  0  0  0  0  0  0  0
    3.3614    1.5636    1.1243 S   0  0  0  0  0  0  0  0  0  0  0  0
    0.9772    0.0294    0.0928 O   0  0  0  0  0  0  0  0  0  0  0  0
    2.6872    0.0294    0.0928 S   0  0  0  0  0  0  0  0  0  0  0  0
    3.1974   -1.3738   -0.2436 O   0  0  0  0  0  0  0  0  0  0  0  0
    3.1974    1.0223   -0.9541 O   0  0  0  0  0  0  0  0  0  0  0  0
    3.3872    0.5923    1.9910 S   0  0  0  0  0  0  0  0  0  0  0  0
    0.9552    0.0717    0.0534 Na  0  0  0  0  0 15  0  0  0  0  0  0
    1.0749    0.0662   -0.0004 Na  0  0  0  0  0 15  0  0  0  0  0  0
    1.0351   -0.0676    0.0648 Na  0  0  0  0  0 15  0  0  0  0  0  0
    0.9861    0.0892   -0.0430 Au  0  0  0  0  0 15  0  0  0  0  0  0
  3  4  1  0
  4  5  2  0
  4  6  2  0
  4  7  1  0
  8  9  1  0
  9 10  2  0
  9 11  2  0
  9 12  1  0
M  CHG  8   3  -1   7  -1   8  -1  12  -1  13   1  14   1  15   1  16   1
M  END
>  <DRUGBANK_ID>  (1) 
DB13743

>  <COMMON_NAME>  (1) 
Sodium aurotiosulfate

>  <CAS_NUMBER>  (1) 
33614-49-2

>  <UNII>  (1) 
CKS1YQ9W1J

>  <SYNONYMS>  (1) 
Gold sodium thiosulfate; Sodium aurotiosulfate

$$$$
