3B6
     RDKit          3D

 25 26  0  0  0  0  0  0  0  0999 V2000
    4.3588   -3.1266   -0.0357 C   0  0  0  0  0  0  0  0  0  0  0  0
    4.4375   -3.8820   -1.2537 C   0  0  0  0  0  0  0  0  0  0  0  0
    4.4378   -5.9648   -1.1400 I   0  0  0  0  0  0  0  0  0  0  0  0
    4.5800   -3.2689   -2.5020 C   0  0  0  0  0  0  0  0  0  0  0  0
    4.5854   -3.9133   -3.7728 C   0  0  0  0  0  0  0  0  0  0  0  0
    4.6217   -4.4036   -4.8391 N   0  0  0  0  0  0  0  0  0  0  0  0
    4.8496   -1.9323   -2.4745 C   0  0  0  0  0  0  0  0  0  0  0  0
    4.8379   -1.2448   -1.2726 C   0  0  0  0  0  0  0  0  0  0  0  0
    4.3930   -1.7405   -0.0634 C   0  0  0  0  0  0  0  0  0  0  0  0
    3.9444   -0.9020    1.0202 N   0  0  0  0  0  0  0  0  0  0  0  0
    3.5461    0.4468    1.0645 C   0  0  0  0  0  0  0  0  0  0  0  0
    3.1709    0.9258    2.1402 O   0  0  0  0  0  0  0  0  0  0  0  0
    3.4724    1.2948   -0.2251 C   0  0  2  0  0  0  0  0  0  0  0  0
    2.7272    2.5253   -0.1842 O   0  0  0  0  0  0  0  0  0  0  0  0
    2.6203    0.4050   -1.1294 C   0  0  0  0  0  0  0  0  0  0  0  0
    4.9312    1.7745   -0.6520 C   0  0  0  0  0  0  0  0  0  0  0  0
    5.0592    2.4828   -1.9536 O   0  0  0  0  0  0  0  0  0  0  0  0
    4.8339    1.8509   -3.1549 C   0  0  0  0  0  0  0  0  0  0  0  0
    3.5677    1.5060   -3.6159 C   0  0  0  0  0  0  0  0  0  0  0  0
    3.4278    0.3800   -4.4390 C   0  0  0  0  0  0  0  0  0  0  0  0
    4.4464    0.0862   -5.3196 C   0  0  0  0  0  0  0  0  0  0  0  0
    4.3045   -0.9833   -6.2524 C   0  0  0  0  0  0  0  0  0  0  0  0
    4.1599   -1.8722   -7.0043 N   0  0  0  0  0  0  0  0  0  0  0  0
    5.6027    0.8638   -5.2278 C   0  0  0  0  0  0  0  0  0  0  0  0
    5.8445    1.6554   -4.0790 C   0  0  0  0  0  0  0  0  0  0  0  0
  1  2  2  0
  1  9  1  0
  2  3  1  0
  2  4  1  0
  4  5  1  0
  4  7  2  0
  5  6  3  0
  7  8  1  0
  8  9  2  0
  9 10  1  0
 10 11  1  0
 11 12  2  0
 13 15  1  6
 13 16  1  0
 13 14  1  0
 13 11  1  0
 16 17  1  0
 17 18  1  0
 18 19  2  0
 18 25  1  0
 19 20  1  0
 20 21  2  0
 21 22  1  0
 21 24  1  0
 22 23  3  0
 24 25  2  0
M  END
>  <DRUGBANK_ID>  (1) 
DB07039

>  <COMMON_NAME>  (1) 
(2S)-N-(4-cyano-3-iodophenyl)-3-(4-cyanophenoxy)-2-hydroxy-2-methylpropanamide

$$$$
