1AU
     RDKit          3D

 30 33  0  0  0  0  0  0  0  0999 V2000
   -0.0282   -0.7861    0.0154 C   0  0  0  0  0  0  0  0  0  0  0  0
    1.2331   -1.4312    0.0059 C   0  0  0  0  0  0  0  0  0  0  0  0
    2.4375   -0.7099   -0.0213 C   0  0  0  0  0  0  0  0  0  0  0  0
    2.4294    0.6788   -0.0104 C   0  0  0  0  0  0  0  0  0  0  0  0
    1.2158    1.3528    0.0219 C   0  0  0  0  0  0  0  0  0  0  0  0
    0.0025    0.6484    0.0165 C   0  0  0  0  0  0  0  0  0  0  0  0
   -1.1798    1.3919    0.0021 C   0  0  0  0  0  0  0  0  0  0  0  0
   -2.4010    0.7524   -0.0130 C   0  0  0  0  0  0  0  0  0  0  0  0
   -2.4498   -0.6351   -0.0081 C   0  0  0  0  0  0  0  0  0  0  0  0
   -1.3020   -1.4473    0.0129 C   0  0  0  0  0  0  0  0  0  0  0  0
   -1.4339   -2.8904    0.0273 N   0  0  0  0  0  0  0  0  0  0  0  0
   -2.6469   -3.5671    0.0182 C   0  0  0  0  0  0  0  0  0  0  0  0
   -3.7482   -3.0098    0.0078 O   0  0  0  0  0  0  0  0  0  0  0  0
   -2.5740   -4.9541    0.0517 N   0  0  0  0  0  0  0  0  0  0  0  0
   -3.8027   -5.6411    0.0422 C   0  0  0  0  0  0  0  0  0  0  0  0
   -4.9206   -5.3662   -0.7176 C   0  0  0  0  0  0  0  0  0  0  0  0
   -5.8875   -6.3427   -0.4045 C   0  0  0  0  0  0  0  0  0  0  0  0
   -7.2940   -6.4574   -0.9870 C   0  0  0  0  0  0  0  0  0  0  0  0
   -8.3700   -6.2538    0.0969 C   0  0  0  0  0  0  0  0  0  0  0  0
   -7.5257   -5.3833   -2.0785 C   0  0  0  0  0  0  0  0  0  0  0  0
   -7.4986   -7.8363   -1.6390 C   0  0  0  0  0  0  0  0  0  0  0  0
   -5.3873   -7.2368    0.4624 N   0  0  0  0  0  0  0  0  0  0  0  0
   -4.1431   -6.7641    0.7791 N   0  0  0  0  0  0  0  0  0  0  0  0
   -3.4036   -7.3818    1.8116 C   0  0  0  0  0  0  0  0  0  0  0  0
   -2.8803   -6.6265    2.8733 C   0  0  0  0  0  0  0  0  0  0  0  0
   -3.2173   -8.7644    1.7574 C   0  0  0  0  0  0  0  0  0  0  0  0
   -2.4685   -9.3889    2.7500 C   0  0  0  0  0  0  0  0  0  0  0  0
   -1.9627   -8.6422    3.8194 C   0  0  0  0  0  0  0  0  0  0  0  0
   -2.1966   -7.2647    3.9156 C   0  0  0  0  0  0  0  0  0  0  0  0
   -1.5578   -6.5154    4.9075 N   0  0  0  0  0  0  0  0  0  0  0  0
  1  2  2  0
  2  3  1  0
  4  3  2  0
  5  4  1  0
  6  1  1  0
  6  5  2  0
  7  6  1  0
  8  7  2  0
  8  9  1  0
  9 10  2  0
 10  1  1  0
 10 11  1  0
 12 11  1  0
 12 14  1  0
 13 12  2  0
 15 14  1  0
 15 23  1  0
 16 15  2  0
 16 17  1  0
 17 22  2  0
 18 17  1  0
 18 21  1  0
 19 18  1  0
 20 18  1  0
 22 23  1  0
 23 24  1  0
 24 26  1  0
 24 25  2  0
 25 29  1  0
 26 27  2  0
 27 28  1  0
 29 28  2  0
 29 30  1  0
M  END
>  <DRUGBANK_ID>  (1) 
DB06882

>  <COMMON_NAME>  (1) 
1-[1-(3-aminophenyl)-3-tert-butyl-1H-pyrazol-5-yl]-3-naphthalen-1-ylurea

$$$$
