CBC
     RDKit          3D

 27 29  0  0  0  0  0  0  0  0999 V2000
    1.0955    0.1503    0.1162 F   0  0  0  0  0  0  0  0  0  0  0  0
    2.4479    0.0782    0.0094 C   0  0  0  0  0  0  0  0  0  0  0  0
    2.9167    1.1867    0.6472 F   0  0  0  0  0  0  0  0  0  0  0  0
    2.8747   -0.9634    0.7617 F   0  0  0  0  0  0  0  0  0  0  0  0
    2.8759    0.0135   -1.4230 C   0  0  0  0  0  0  0  0  0  0  0  0
    3.0534    1.2560   -2.0783 C   0  0  0  0  0  0  0  0  0  0  0  0
    3.5972    1.3402   -3.3558 C   0  0  0  0  0  0  0  0  0  0  0  0
    3.9851    0.1771   -4.0045 C   0  0  0  0  0  0  0  0  0  0  0  0
    3.7667   -1.0659   -3.3966 C   0  0  0  0  0  0  0  0  0  0  0  0
    3.1389   -1.1640   -2.1318 C   0  0  0  0  0  0  0  0  0  0  0  0
    2.6191   -2.8223   -1.6679 S   0  0  0  0  0  0  0  0  0  0  0  0
    1.7597   -3.2789   -2.7479 O   0  0  0  0  0  0  0  0  0  0  0  0
    3.8158   -3.5443   -1.3161 O   0  0  0  0  0  0  0  0  0  0  0  0
    1.6270   -2.8506   -0.2798 N   0  0  0  0  0  0  0  0  0  0  0  0
    0.3790   -2.1502   -0.2626 N   0  0  0  0  0  0  0  0  0  0  0  0
   -0.8418   -2.5450    0.2306 C   0  0  0  0  0  0  0  0  0  0  0  0
   -1.7632   -1.7556   -0.0137 O   0  0  0  0  0  0  0  0  0  0  0  0
   -1.0959   -3.8390    0.8353 C   0  0  0  0  0  0  0  0  0  0  0  0
   -0.6092   -4.6881    1.8349 C   0  0  0  0  0  0  0  0  0  0  0  0
   -2.2242   -4.4003    0.3234 O   0  0  0  0  0  0  0  0  0  0  0  0
   -2.4592   -5.5659    0.9331 C   0  0  0  0  0  0  0  0  0  0  0  0
   -1.5172   -5.8323    1.9121 C   0  0  0  0  0  0  0  0  0  0  0  0
   -1.7037   -7.0499    2.6349 C   0  0  0  0  0  0  0  0  0  0  0  0
   -3.5394   -6.3610    0.5830 C   0  0  0  0  0  0  0  0  0  0  0  0
   -3.7254   -7.5258    1.3072 C   0  0  0  0  0  0  0  0  0  0  0  0
   -2.8086   -7.8814    2.2950 C   0  0  0  0  0  0  0  0  0  0  0  0
   -3.0319   -9.4181    3.0551 Cl  0  0  0  0  0  0  0  0  0  0  0  0
  1  2  1  0
  2  3  1  0
  2  4  1  0
  2  5  1  0
  5  6  2  0
  5 10  1  0
  6  7  1  0
  7  8  2  0
  8  9  1  0
  9 10  2  0
 10 11  1  0
 11 12  2  0
 11 13  2  0
 11 14  1  0
 14 15  1  0
 15 16  1  0
 16 17  2  0
 16 18  1  0
 18 19  2  0
 18 20  1  0
 19 22  1  0
 20 21  1  0
 21 22  2  0
 21 24  1  0
 22 23  1  0
 23 26  2  0
 24 25  2  0
 25 26  1  0
 26 27  1  0
M  END
>  <DRUGBANK_ID>  (1) 
DB07544

>  <COMMON_NAME>  (1) 
N'-(5-CHLOROBENZOFURAN-2-CARBONYL)-2-(TRIFLUOROMETHYL)BENZENESULFONOHYDRAZIDE

$$$$
