
     RDKit          3D

 22 23  0  0  0  0  0  0  0  0999 V2000
    2.4661   -0.6592   -0.0260 C   0  0  0  0  0  0  0  0  0  0  0  0
    2.4461    0.7249   -0.0137 C   0  0  0  0  0  0  0  0  0  0  0  0
    1.2258    1.4012    0.0185 C   0  0  0  0  0  0  0  0  0  0  0  0
    0.0046    0.7049   -0.0031 C   0  0  0  0  0  0  0  0  0  0  0  0
    0.0075   -0.7094   -0.0161 C   0  0  0  0  0  0  0  0  0  0  0  0
    1.2656   -1.3627   -0.0055 C   0  0  0  0  0  0  0  0  0  0  0  0
   -1.2163    1.4019   -0.0128 C   0  0  0  0  0  0  0  0  0  0  0  0
   -2.4339    0.7249   -0.0327 C   0  0  0  0  0  0  0  0  0  0  0  0
   -2.4478   -0.6618   -0.0454 C   0  0  0  0  0  0  0  0  0  0  0  0
   -1.2444   -1.3883   -0.0308 C   0  0  0  0  0  0  0  0  0  0  0  0
   -1.3374   -2.8971    0.0377 C   0  0  0  0  0  0  0  0  0  0  0  0
   -1.9816   -3.3959    1.2650 N   0  0  0  0  0  0  0  0  0  0  0  0
   -1.9919   -4.8699    1.2857 C   0  0  0  0  0  0  0  0  0  0  0  0
   -1.3341   -2.8716    2.4738 C   0  0  0  0  0  0  0  0  0  0  0  0
   -0.6149   -5.5013    1.3238 C   0  0  0  0  0  0  0  0  0  0  0  0
   -0.1347   -6.2403    2.3363 C   0  0  0  0  0  0  0  0  0  0  0  0
    1.2080   -6.7314    2.3531 C   0  0  0  0  0  0  0  0  0  0  0  0
    2.3424   -7.1515    2.3848 C   0  0  0  0  0  0  0  0  0  0  0  0
    3.7368   -7.6851    2.4184 C   0  0  0  0  0  0  0  0  0  0  0  0
    3.7980   -8.9797    3.2435 C   0  0  0  0  0  0  0  0  0  0  0  0
    4.2241   -7.9938    0.9948 C   0  0  0  0  0  0  0  0  0  0  0  0
    4.6950   -6.6631    3.0485 C   0  0  0  0  0  0  0  0  0  0  0  0
  1  2  2  0
  1  6  1  0
  2  3  1  0
  3  4  2  0
  4  5  1  0
  4  7  1  0
  5  6  2  0
  5 10  1  0
  7  8  2  0
  8  9  1  0
  9 10  2  0
 10 11  1  0
 11 12  1  0
 12 13  1  0
 12 14  1  0
 13 15  1  0
 15 16  2  0
 16 17  1  0
 17 18  3  0
 18 19  1  0
 19 20  1  0
 19 21  1  0
 19 22  1  0
M  END
>  <DRUGBANK_ID>  (1) 
DB00857

>  <SECONDARY_ACCESSION_NUMBERS>  (1) 
APRD00508

>  <COMMON_NAME>  (1) 
Terbinafine

>  <CAS_NUMBER>  (1) 
91161-71-6

>  <UNII>  (1) 
G7RIW8S0XP

>  <SYNONYMS>  (1) 
(E)-N-(6,6-Dimethyl-2-hepten-4-ynyl)-N-methyl-1-naphthalene methanamine; (E)-N-(6,6-Dimethyl-2-hepten-4-ynyl)-N-methyl-1-naphthalenemethylamine; Terbinafina; Terbinafine; Terbinafinum

$$$$
