
     RDKit          3D

 16 15  0  0  1  0  0  0  0  0999 V2000
   -0.1213   -0.6169   -2.9656 C   0  0  0  0  0  0  0  0  0  0  0  0
   -0.2508    3.8561   -0.4893 C   0  0  0  0  0  0  0  0  0  0  0  0
    1.2889   -0.1176   -2.9544 C   0  0  1  0  0  0  0  0  0  0  0  0
    0.8299    2.8904    0.1613 C   0  0  2  0  0  0  0  0  0  0  0  0
    1.6076    1.1664   -1.9989 C   0  0  2  0  0  0  0  0  0  0  0  0
    1.0373    1.3989   -0.4085 C   0  0  2  0  0  0  0  0  0  0  0  0
    1.8891   -1.3798   -2.5639 N   0  0  0  0  0  0  0  0  0  0  0  0
   -0.3493   -1.1595   -1.6253 O   0  0  0  0  0  0  0  0  0  0  0  0
    0.4584    2.7662    1.5682 O   0  0  0  0  0  0  0  0  0  0  0  0
    1.4617    2.4027   -2.7809 O   0  0  0  0  0  0  0  0  0  0  0  0
   -0.1983    0.7551   -0.0352 O   0  0  0  0  0  0  0  0  0  0  0  0
   -2.8691    2.5064   -2.3981 O   0  0  0  0  0  0  0  0  0  0  0  0
   -0.7157    2.2797   -2.5651 O   0  0  0  0  0  0  0  0  0  0  0  0
   -1.9019    0.3612   -2.1152 O   0  0  0  0  0  0  0  0  0  0  0  0
   -1.5967    3.3156   -0.7275 O   0  0  0  0  0  0  0  0  0  0  0  0
   -1.7578    1.7565   -1.4598 P   0  0  0  0  0  0  0  0  0  0  0  0
  3  1  1  0
  3  7  1  1
  4  2  1  0
  4  9  1  1
  5 10  1  6
  5  6  1  0
  5  3  1  0
  6  4  1  0
  6 11  1  6
  8  1  1  0
 15  2  1  0
 16 12  1  0
 16 13  1  0
 16 14  2  0
 16 15  1  0
M  END
>  <DRUGBANK_ID>  (1) 
DB02445

>  <SECONDARY_ACCESSION_NUMBERS>  (1) 
EXPT00457

>  <COMMON_NAME>  (1) 
2-Deoxy-2-Amino Glucitol-6-Phosphate

$$$$
