
     RDKit          3D

 19 21  0  0  0  0  0  0  0  0999 V2000
    1.2137    0.7549   -0.0008 C   0  0  0  0  0  0  0  0  0  0  0  0
    1.1574   -0.7542   -0.0000 C   0  0  0  0  0  0  0  0  0  0  0  0
   -1.1942    0.7475   -0.0016 C   0  0  0  0  0  0  0  0  0  0  0  0
   -1.1723   -0.6646   -0.0010 C   0  0  0  0  0  0  0  0  0  0  0  0
   -2.4461    1.3762   -0.0003 C   0  0  0  0  0  0  0  0  0  0  0  0
   -2.3814   -1.3778   -0.0018 C   0  0  0  0  0  0  0  0  0  0  0  0
   -3.6309   -0.7252   -0.0008 C   0  0  0  0  0  0  0  0  0  0  0  0
   -3.6594    0.6713    0.0039 C   0  0  0  0  0  0  0  0  0  0  0  0
    3.5488    0.6818   -0.0001 C   0  0  0  0  0  0  0  0  0  0  0  0
    0.0302   -1.4057   -0.0003 N   0  0  0  0  0  0  0  0  0  0  0  0
    2.4663   -1.5000    0.0009 C   0  0  0  0  0  0  0  0  0  0  0  0
    2.5367   -2.7167    0.0026 O   0  0  0  0  0  0  0  0  0  0  0  0
    4.6273    1.2728    0.0002 O   0  0  0  0  0  0  0  0  0  0  0  0
    3.5578   -0.6817   -0.0003 N   0  0  0  0  0  0  0  0  0  0  0  0
    2.3661    1.3553   -0.0005 N   0  0  0  0  0  0  0  0  0  0  0  0
    0.0182    1.4564   -0.0020 N   0  0  0  0  0  0  0  0  0  0  0  0
    0.0557    2.9141   -0.0022 C   0  0  0  0  0  0  0  0  0  0  0  0
   -4.9082    1.5078    0.0158 C   0  0  0  0  0  0  0  0  0  0  0  0
   -4.8759   -1.5629   -0.0065 C   0  0  0  0  0  0  0  0  0  0  0  0
  2  1  1  0
  2 11  1  0
  3  4  1  0
  4 10  1  0
  5  3  2  0
  5  8  1  0
  6  4  2  0
  7  6  1  0
  7 19  1  0
  8  7  2  0
  8 18  1  0
  9 13  2  0
 10  2  2  0
 11 14  1  0
 11 12  2  0
 14  9  1  0
 15  1  2  0
 15  9  1  0
 16  3  1  0
 16  1  1  0
 16 17  1  0
M  END
>  <DRUGBANK_ID>  (1) 
DB04726

>  <COMMON_NAME>  (1) 
Lumiflavin

>  <CAS_NUMBER>  (1) 
1088-56-8

>  <UNII>  (1) 
4M2669414M

>  <SYNONYMS>  (1) 
7,8,10-Trimethylbenzo(g)pteridine-2,4(3H,10H)-dione; 7,8,10-Trimethylisoalloxazine; Lumiflavin; Lumiflavine

$$$$
