ZZ6
     RDKit          3D

 23 25  0  0  0  0  0  0  0  0999 V2000
   -2.6554    0.9297    0.0117 Cl  0  0  0  0  0  0  0  0  0  0  0  0
   -1.2058   -0.0168   -0.0628 C   0  0  0  0  0  0  0  0  0  0  0  0
    0.0090    0.6687   -0.0243 C   0  0  0  0  0  0  0  0  0  0  0  0
    1.2059   -0.0424   -0.0090 C   0  0  0  0  0  0  0  0  0  0  0  0
    2.7010    0.8049    0.0188 Cl  0  0  0  0  0  0  0  0  0  0  0  0
    1.2054   -1.4333   -0.0145 C   0  0  0  0  0  0  0  0  0  0  0  0
   -0.0077   -2.1178   -0.0620 C   0  0  0  0  0  0  0  0  0  0  0  0
   -1.2341   -1.4207   -0.0982 C   0  0  0  0  0  0  0  0  0  0  0  0
   -2.4828   -2.1636   -0.0942 C   0  0  0  0  0  0  0  0  0  0  0  0
   -3.3646   -2.0048   -1.1248 N   0  0  0  0  0  0  0  0  0  0  0  0
   -4.5329   -2.6569   -1.0939 C   0  0  0  0  0  0  0  0  0  0  0  0
   -5.4267   -2.5094   -2.1136 N   0  0  0  0  0  0  0  0  0  0  0  0
   -4.9118   -3.4780   -0.1388 N   0  0  0  0  0  0  0  0  0  0  0  0
   -4.0140   -3.6138    0.8327 C   0  0  0  0  0  0  0  0  0  0  0  0
   -4.3388   -4.6478    2.0712 S   0  0  0  0  0  0  0  0  0  0  0  0
   -2.7892   -3.0142    0.9663 C   0  0  0  0  0  0  0  0  0  0  0  0
   -2.1434   -3.4298    2.2016 C   0  0  0  0  0  0  0  0  0  0  0  0
   -2.9057   -4.3460    2.9221 C   0  0  0  0  0  0  0  0  0  0  0  0
   -2.5848   -4.9956    4.1973 C   0  0  0  0  0  0  0  0  0  0  0  0
   -1.5272   -4.7821    4.7799 O   0  0  0  0  0  0  0  0  0  0  0  0
   -3.4520   -5.8862    4.8182 N   0  0  0  0  0  0  0  0  0  0  0  0
   -4.7807   -6.3896    4.4884 C   0  0  0  0  0  0  0  0  0  0  0  0
   -4.7771   -7.8468    4.0896 C   0  0  0  0  0  0  0  0  0  0  0  0
  1  2  1  0
  2  3  2  0
  2  8  1  0
  3  4  1  0
  4  5  1  0
  4  6  2  0
  6  7  1  0
  7  8  2  0
  8  9  1  0
  9 10  2  0
  9 16  1  0
 10 11  1  0
 11 12  1  0
 11 13  2  0
 13 14  1  0
 14 15  1  0
 14 16  2  0
 15 18  1  0
 16 17  1  0
 17 18  2  0
 18 19  1  0
 19 20  2  0
 19 21  1  0
 21 22  1  0
 22 23  1  0
M  END
>  <DRUGBANK_ID>  (1) 
DB08789

>  <COMMON_NAME>  (1) 
2-AMINO-4-(2,4-DICHLOROPHENYL)-N-ETHYLTHIENO[2,3-D]PYRIMIDINE-6-CARBOXAMIDE

$$$$
