
     RDKit          3D

  1  0  0  0  0  0  0  0  0  0999 V2000
    1.0043    0.0513   -0.0857 Mo  0  0  0  0  0 15  0  0  0  0  0  0
M  END
>  <DRUGBANK_ID>  (1) 
DB11137

>  <COMMON_NAME>  (1) 
Molybdenum

>  <CAS_NUMBER>  (1) 
7439-98-7

>  <UNII>  (1) 
81AH48963U

>  <SYNONYMS>  (1) 
molibdeno

$$$$
