C4E
     RDKit          3D

 16 18  0  0  0  0  0  0  0  0999 V2000
    0.9848   -0.0650   -0.0997 N   0  0  0  0  0  0  0  0  0  0  0  0
    0.3281    1.0767   -0.6208 C   0  0  0  0  0  0  0  0  0  0  0  0
    0.7052    1.6125   -1.8560 C   0  0  0  0  0  0  0  0  0  0  0  0
   -0.0500    2.6377   -2.4387 C   0  0  0  0  0  0  0  0  0  0  0  0
   -1.1748    3.1434   -1.7857 C   0  0  0  0  0  0  0  0  0  0  0  0
   -1.5358    2.6423   -0.5395 C   0  0  0  0  0  0  0  0  0  0  0  0
   -0.7732    1.6344    0.0464 C   0  0  0  0  0  0  0  0  0  0  0  0
    0.3577   -1.0625    0.5775 C   0  0  0  0  0  0  0  0  0  0  0  0
   -0.7836   -1.6901    0.1328 C   0  0  0  0  0  0  0  0  0  0  0  0
    0.7073   -1.6240    1.8352 C   0  0  0  0  0  0  0  0  0  0  0  0
    1.6848   -1.4033    2.8197 C   0  0  0  0  0  0  0  0  0  0  0  0
   -0.2556   -2.5941    2.1083 C   0  0  0  0  0  0  0  0  0  0  0  0
   -1.1367   -2.6316    1.0617 N   0  0  0  0  0  0  0  0  0  0  0  0
   -0.3572   -3.3710    3.2031 N   0  0  0  0  0  0  0  0  0  0  0  0
    0.6058   -3.1156    4.1161 C   0  0  0  0  0  0  0  0  0  0  0  0
    1.6156   -2.1700    3.9856 C   0  0  0  0  0  0  0  0  0  0  0  0
  1  2  1  0
  1  8  1  0
  2  3  2  0
  2  7  1  0
  3  4  1  0
  4  5  2  0
  5  6  1  0
  6  7  2  0
  8  9  2  0
  8 10  1  0
  9 13  1  0
 10 11  2  0
 10 12  1  0
 11 16  1  0
 12 13  1  0
 12 14  2  0
 14 15  1  0
 15 16  2  0
M  END
>  <DRUGBANK_ID>  (1) 
DB07524

>  <COMMON_NAME>  (1) 
N-phenyl-1H-pyrrolo[2,3-b]pyridin-3-amine

>  <UNII>  (1) 
B1XYZ89TUA

$$$$
