
     RDKit          3D

 33 38  0  0  0  0  0  0  0  0999 V2000
    0.1189    3.8725   -7.7284 C   0  0  0  0  0  0  0  0  0  0  0  0
   -0.9894    7.6662   -3.6268 C   0  0  0  0  0  0  0  0  0  0  0  0
   -0.9420    2.0193   -5.5183 C   0  0  0  0  0  0  0  0  0  0  0  0
    5.1704    3.2642   -7.9221 C   0  0  0  0  0  0  0  0  0  0  0  0
   -1.2080    2.4662   -1.7866 C   0  0  0  0  0  0  0  0  0  0  0  0
    0.9611    2.4324   -7.6819 C   0  0  0  0  0  0  0  0  0  0  0  0
    3.9724    7.6364   -6.3307 C   0  0  0  0  0  0  0  0  0  0  0  0
    2.7810    8.4479   -6.2238 C   0  0  0  0  0  0  0  0  0  0  0  0
    1.4067    1.5871   -6.3337 C   0  0  0  0  0  0  0  0  0  0  0  0
    3.0142    3.8246   -2.8837 C   0  0  0  0  0  0  0  0  0  0  0  0
    1.6953    3.6828   -3.1032 C   0  0  0  0  0  0  0  0  0  0  0  0
    2.0721    4.3882   -6.0948 C   0  0  0  0  0  0  0  0  0  0  0  0
    2.9756    4.5248   -7.2803 C   0  0  0  0  0  0  0  0  0  0  0  0
    5.0859    5.3138   -5.9926 C   0  0  0  0  0  0  0  0  0  0  0  0
    2.7934    1.9206   -3.8733 C   0  0  0  0  0  0  0  0  0  0  0  0
   -0.6487    8.9355   -4.3337 C   0  0  0  0  0  0  0  0  0  0  0  0
    4.1805    6.4910   -5.5247 C   0  0  0  0  0  0  0  0  0  0  0  0
    1.6954    8.0672   -5.4199 C   0  0  0  0  0  0  0  0  0  0  0  0
    0.9666    1.9218   -3.7116 C   0  0  2  0  0  0  0  0  0  0  0  0
    4.5901    3.7492   -5.5513 C   0  0  1  0  0  0  0  0  0  0  0  0
    3.0374    6.1452   -4.8149 C   0  0  0  0  0  0  0  0  0  0  0  0
    1.8115    6.8490   -4.8284 C   0  0  0  0  0  0  0  0  0  0  0  0
    1.1146    5.1484   -3.6607 C   0  0  2  0  0  0  0  0  0  0  0  0
    0.4214    1.4689   -5.1312 C   0  0  1  0  0  0  0  0  0  0  0  0
    3.4596    3.5371   -4.2729 C   0  0  2  0  0  0  0  0  0  0  0  0
    2.5787    4.7634   -4.7210 C   0  0  1  0  0  0  0  0  0  0  0  0
    0.3187    3.5593   -3.1487 C   0  0  2  0  0  0  0  0  0  0  0  0
    4.0711    3.5087   -6.9694 N   0  0  0  0  0  0  0  0  0  0  0  0
   -1.3187    9.9500   -4.1840 O   0  0  0  0  0  0  0  0  0  0  0  0
    0.3075    0.0517   -4.9490 O   0  0  0  0  0  0  0  0  0  0  0  0
   -0.2181    3.5042   -1.8421 O   0  0  0  0  0  0  0  0  0  0  0  0
    0.5259    8.9050   -5.2154 O   0  0  0  0  0  0  0  0  0  0  0  0
    0.6601    5.9855   -4.6888 O   0  0  0  0  0  0  0  0  0  0  0  0
  6  1  1  0
  8  7  2  0
  9  6  1  0
 11 10  2  0
 13 12  1  0
 16  2  1  0
 17  7  1  0
 17 14  1  0
 18  8  1  0
 19 15  1  6
 19 24  1  0
 20 14  1  6
 21 17  2  0
 22 18  2  0
 22 21  1  0
 24 30  1  0
 24  9  1  0
 24  3  1  6
 25 10  1  1
 25 15  1  0
 25 20  1  0
 26 12  1  6
 26 21  1  0
 26 23  1  0
 26 25  1  0
 27 11  1  0
 27 19  1  0
 27 23  1  0
 27 31  1  1
 28  4  1  0
 28 13  1  0
 28 20  1  0
 29 16  2  0
 31  5  1  0
 32 16  1  0
 32 18  1  0
 33 22  1  0
 23 33  1  6
M  END
>  <DRUGBANK_ID>  (1) 
DB01469

>  <COMMON_NAME>  (1) 
Acetorphine

>  <CAS_NUMBER>  (1) 
25333-77-1

>  <UNII>  (1) 
2OGQ81529L

>  <SYNONYMS>  (1) 
7alpha-etorphine 3-acetate; Acetorfina; Acetorphine; Acetylpropylorvinol

$$$$
