
     RDKit          3D

 25 27  0  0  1  0  0  0  0  0999 V2000
    1.6256    1.9486    0.6493 O   0  0  0  0  0  0  0  0  0  0  0  0
    5.2576    5.5282   -3.4402 O   0  0  0  0  0  0  0  0  0  0  0  0
    2.3283    2.7458   -2.2822 N   0  0  0  0  0  0  0  0  0  0  0  0
    2.4279    1.2923   -2.0068 C   0  0  1  0  0  0  0  0  0  0  0  0
    2.4875    3.3059   -3.5662 C   0  0  2  0  0  0  0  0  0  0  0  0
    3.0515    0.4313   -3.0804 C   0  0  0  0  0  0  0  0  0  0  0  0
    3.1097    2.3948   -4.5952 C   0  0  0  0  0  0  0  0  0  0  0  0
    2.6234    0.9684   -4.4072 C   0  0  0  0  0  0  0  0  0  0  0  0
    3.0802    0.6374   -0.7824 C   0  0  0  0  0  0  0  0  0  0  0  0
    3.0670    4.7229   -3.6170 C   0  0  0  0  0  0  0  0  0  0  0  0
    1.5454    3.7530   -1.3970 C   0  0  0  0  0  0  0  0  0  0  0  0
    3.1335    1.5914    0.2752 C   0  0  1  0  0  0  0  0  0  0  0  0
    4.2400    5.2157   -2.8074 C   0  0  0  0  0  0  0  0  0  0  0  0
    4.7618    2.8645    0.1949 C   0  0  0  0  0  0  0  0  0  0  0  0
    4.0427    5.3960   -1.1786 C   0  0  0  0  0  0  0  0  0  0  0  0
    5.4643    2.5720   -1.1079 C   0  0  0  0  0  0  0  0  0  0  0  0
    3.9542    4.5051    1.1432 C   0  0  0  0  0  0  0  0  0  0  0  0
    3.3195    3.7960   -0.2607 C   0  0  0  0  0  0  0  0  0  0  0  0
    5.3901    6.5120   -0.2953 C   0  0  0  0  0  0  0  0  0  0  0  0
    6.1762    3.6461   -1.3813 C   0  0  0  0  0  0  0  0  0  0  0  0
    4.4461    5.4060    0.6956 C   0  0  0  0  0  0  0  0  0  0  0  0
    5.8603    4.6380   -0.4241 C   0  0  0  0  0  0  0  0  0  0  0  0
    3.7587    2.9575    1.5969 C   0  0  0  0  0  0  0  0  0  0  0  0
    6.1501    5.5877    1.3300 C   0  0  0  0  0  0  0  0  0  0  0  0
    5.4183    3.9166    2.1100 C   0  0  0  0  0  0  0  0  0  0  0  0
  2 13  2  0
  3  4  1  0
  3  5  1  0
  3 11  1  0
  4  6  1  0
  4  9  1  1
  5  7  1  0
  5 10  1  1
  6  8  1  0
  7  8  1  0
  9 12  1  0
 10 13  1  0
 12  1  1  6
 12 14  1  0
 13 15  1  0
 14 16  2  0
 14 17  1  0
 15 18  2  0
 15 19  1  0
 16 20  1  0
 17 21  2  0
 18 23  1  0
 19 24  2  0
 20 22  2  0
 21 22  1  0
 23 25  2  0
 24 25  1  0
M  END
>  <DRUGBANK_ID>  (1) 
DB05137

>  <COMMON_NAME>  (1) 
Lobeline

>  <CAS_NUMBER>  (1) 
90-69-7

>  <UNII>  (1) 
D0P25S3P81

>  <SYNONYMS>  (1) 
Lobelina; Lobeline

$$$$
