
     RDKit          3D

 13 14  0  0  0  0  0  0  0  0999 V2000
    1.0286   -0.1354    0.0302 C   0  0  0  0  0  0  0  0  0  0  0  0
    0.5385   -0.1732    1.4563 C   0  0  0  0  0  0  0  0  0  0  0  0
    0.3023   -1.4210    2.0437 C   0  0  0  0  0  0  0  0  0  0  0  0
   -0.1620   -1.5000    3.3540 C   0  0  0  0  0  0  0  0  0  0  0  0
   -0.3829   -0.3361    4.0946 C   0  0  0  0  0  0  0  0  0  0  0  0
   -0.1721    0.9338    3.5441 C   0  0  0  0  0  0  0  0  0  0  0  0
    0.3003    1.0053    2.2038 C   0  0  0  0  0  0  0  0  0  0  0  0
    0.4392    2.2833    1.6417 C   0  0  0  0  0  0  0  0  0  0  0  0
   -0.0269    3.4017    2.3063 C   0  0  0  0  0  0  0  0  0  0  0  0
   -0.4110    3.2461    3.6190 C   0  0  0  0  0  0  0  0  0  0  0  0
   -0.4531    2.0538    4.2461 N   0  0  0  0  0  0  0  0  0  0  0  0
   -0.8592   -0.4220    5.3887 O   0  0  0  0  0  0  0  0  0  0  0  0
   -0.5174   -3.2132    4.0865 Br  0  0  0  0  0  0  0  0  0  0  0  0
  1  2  1  0
  2  3  2  0
  2  7  1  0
  3  4  1  0
  4  5  2  0
  4 13  1  0
  5  6  1  0
  5 12  1  0
  6  7  2  0
  6 11  1  0
  7  8  1  0
  8  9  2  0
  9 10  1  0
 10 11  2  0
M  END
>  <DRUGBANK_ID>  (1) 
DB13222

>  <COMMON_NAME>  (1) 
Tilbroquinol

>  <CAS_NUMBER>  (1) 
7175-09-9

>  <UNII>  (1) 
P6SB125NHA

>  <SYNONYMS>  (1) 
Tilbroquinol

$$$$
