
     RDKit          3D

 23 25  0  0  0  0  0  0  0  0999 V2000
    0.0023   -0.6985   -0.0063 C   0  0  0  0  0  0  0  0  0  0  0  0
   -0.0650    0.7119   -0.0342 C   0  0  0  0  0  0  0  0  0  0  0  0
    1.1521    1.3902   -0.0231 C   0  0  0  0  0  0  0  0  0  0  0  0
    2.3879    0.7221   -0.0031 C   0  0  0  0  0  0  0  0  0  0  0  0
    2.4313   -0.6654    0.0096 C   0  0  0  0  0  0  0  0  0  0  0  0
    1.2382   -1.3773    0.0080 C   0  0  0  0  0  0  0  0  0  0  0  0
   -1.2471    1.3834   -0.0690 N   0  0  0  0  0  0  0  0  0  0  0  0
   -1.1950   -1.4150   -0.0020 C   0  0  0  0  0  0  0  0  0  0  0  0
   -2.4244   -0.7471   -0.0072 C   0  0  0  0  0  0  0  0  0  0  0  0
   -2.4082    0.6586   -0.0311 C   0  0  0  0  0  0  0  0  0  0  0  0
   -3.6849   -1.5101   -0.1105 C   0  0  0  0  0  0  0  0  0  0  0  0
   -3.6673   -2.8504    0.0119 O   0  0  0  0  0  0  0  0  0  0  0  0
   -4.7272   -0.9559   -0.4137 O   0  0  0  0  0  0  0  0  0  0  0  0
   -4.4997    1.3812    1.0803 N   0  0  0  0  0  0  0  0  0  0  0  0
   -3.6727    1.4721    0.0744 C   0  0  0  0  0  0  0  0  0  0  0  0
   -4.0456    2.3219   -0.9203 N   0  0  0  0  0  0  0  0  0  0  0  0
   -5.3756    2.5852   -0.7590 C   0  0  0  0  0  0  0  0  0  0  0  0
   -5.6817    2.2293    0.6954 C   0  0  1  0  0  0  0  0  0  0  0  0
   -6.1393    3.0151   -1.6074 O   0  0  0  0  0  0  0  0  0  0  0  0
   -7.0416    1.5097    0.9212 C   0  0  0  0  0  0  0  0  0  0  0  0
   -5.6231    3.5277    1.5110 C   0  0  0  0  0  0  0  0  0  0  0  0
   -7.1057    0.0862    0.3814 C   0  0  0  0  0  0  0  0  0  0  0  0
   -7.4176    1.4371    2.4088 C   0  0  0  0  0  0  0  0  0  0  0  0
  1  2  1  0
  1  6  2  0
  2  3  2  0
  2  7  1  0
  3  4  1  0
  4  5  2  0
  5  6  1  0
  8  1  1  0
  9  8  2  0
  9 11  1  0
 10  7  2  0
 10  9  1  0
 11 12  1  0
 11 13  2  0
 15 10  1  0
 15 14  2  0
 15 16  1  0
 17 16  1  0
 17 19  2  0
 18 14  1  0
 18 17  1  0
 18 21  1  1
 18 20  1  0
 20 23  1  0
 22 20  1  0
M  END
>  <DRUGBANK_ID>  (1) 
DB04582

>  <COMMON_NAME>  (1) 
Imazaquin

>  <UNII>  (1) 
8LZY7C31XA

>  <SYNONYMS>  (1) 
(R)-imazaquin

$$$$
