KN2
     RDKit          3D

 18 20  0  0  0  0  0  0  0  0999 V2000
    2.3583   -1.0417   -0.0185 O   0  0  0  0  0  0  0  0  0  0  0  0
    1.2269   -0.2680   -0.0069 C   0  0  0  0  0  0  0  0  0  0  0  0
    0.0213   -0.9688   -0.0059 C   0  0  0  0  0  0  0  0  0  0  0  0
   -1.1805   -0.2727    0.0079 C   0  0  0  0  0  0  0  0  0  0  0  0
   -2.3334   -1.0014   -0.0036 O   0  0  0  0  0  0  0  0  0  0  0  0
   -1.1954    1.1185    0.0288 C   0  0  0  0  0  0  0  0  0  0  0  0
    0.0169    1.8220    0.0275 C   0  0  0  0  0  0  0  0  0  0  0  0
    1.2433    1.1367    0.0002 C   0  0  0  0  0  0  0  0  0  0  0  0
    2.4925    1.8926   -0.0778 C   0  0  0  0  0  0  0  0  0  0  0  0
    3.4851    1.7980   -1.1020 C   0  0  0  0  0  0  0  0  0  0  0  0
    3.6298    1.0696   -2.2995 C   0  0  0  0  0  0  0  0  0  0  0  0
    4.7946    1.2296   -3.0577 C   0  0  0  0  0  0  0  0  0  0  0  0
    5.7897    2.1040   -2.6318 C   0  0  0  0  0  0  0  0  0  0  0  0
    6.9279    2.2763   -3.3673 O   0  0  0  0  0  0  0  0  0  0  0  0
    5.6750    2.8396   -1.4506 C   0  0  0  0  0  0  0  0  0  0  0  0
    4.5022    2.6571   -0.7087 C   0  0  0  0  0  0  0  0  0  0  0  0
    4.0706    3.2031    0.4695 N   0  0  0  0  0  0  0  0  0  0  0  0
    2.8599    2.7682    0.8701 N   0  0  0  0  0  0  0  0  0  0  0  0
  1  2  1  0
  2  3  2  0
  2  8  1  0
  3  4  1  0
  4  5  1  0
  4  6  2  0
  6  7  1  0
  7  8  2  0
  8  9  1  0
  9 18  2  0
  9 10  1  0
 10 11  2  0
 10 16  1  0
 11 12  1  0
 12 13  2  0
 13 15  1  0
 13 14  1  0
 15 16  2  0
 16 17  1  0
 17 18  1  0
M  END
>  <DRUGBANK_ID>  (1) 
DB08048

>  <COMMON_NAME>  (1) 
4-(6-HYDROXY-1H-INDAZOL-3-YL)BENZENE-1,3-DIOL

$$$$
