
     RDKit          3D

 12 11  0  0  1  0  0  0  0  0999 V2000
    0.9986    2.6946    0.3493 C   0  0  0  0  0  0  0  0  0  0  0  0
    1.8368   -2.8853   -0.4113 C   0  0  0  0  0  0  0  0  0  0  0  0
    0.4229    1.3350    0.7492 C   0  0  2  0  0  0  0  0  0  0  0  0
    2.3126   -1.9762    0.7220 C   0  0  2  0  0  0  0  0  0  0  0  0
    0.8563    0.0195    0.0686 C   0  0  2  0  0  0  0  0  0  0  0  0
    2.2707   -0.4476    0.4636 C   0  0  2  0  0  0  0  0  0  0  0  0
    1.7324    2.8731   -1.4362 Br  0  0  0  0  0  0  0  0  0  0  0  0
    2.9813   -2.8055   -1.9871 Br  0  0  0  0  0  0  0  0  0  0  0  0
   -1.0149    1.4143    0.6746 O   0  0  0  0  0  0  0  0  0  0  0  0
    3.6232   -2.3633    1.1492 O   0  0  0  0  0  0  0  0  0  0  0  0
    0.6848    0.0425   -1.3516 O   0  0  0  0  0  0  0  0  0  0  0  0
    3.2352   -0.0588   -0.5172 O   0  0  0  0  0  0  0  0  0  0  0  0
  3  9  1  6
  3  5  1  0
  3  1  1  0
  4  2  1  0
  4 10  1  6
  5 11  1  6
  5  6  1  0
  6  4  1  0
  6 12  1  6
  7  1  1  0
  8  2  1  0
M  END
>  <DRUGBANK_ID>  (1) 
DB13543

>  <COMMON_NAME>  (1) 
Mitobronitol

>  <CAS_NUMBER>  (1) 
488-41-5

>  <UNII>  (1) 
5UP30YED7N

>  <SYNONYMS>  (1) 
Mitobronitol

$$$$
