397
     RDKit          3D

 17 19  0  0  0  0  0  0  0  0999 V2000
    2.0976   -0.6908    0.0004 C   0  0  0  0  0  0  0  0  0  0  0  0
    0.8675   -1.3810    0.0108 C   0  0  0  0  0  0  0  0  0  0  0  0
   -0.3003   -0.6045    0.0252 C   0  0  0  0  0  0  0  0  0  0  0  0
   -0.2786    0.7847    0.0113 C   0  0  0  0  0  0  0  0  0  0  0  0
    0.9568    1.4551   -0.0015 C   0  0  0  0  0  0  0  0  0  0  0  0
    2.1298    0.7019   -0.0008 C   0  0  0  0  0  0  0  0  0  0  0  0
   -1.6054   -1.0479    0.0559 O   0  0  0  0  0  0  0  0  0  0  0  0
   -2.4103    0.0659    0.0426 C   0  0  0  0  0  0  0  0  0  0  0  0
   -1.6273    1.2053    0.0107 C   0  0  0  0  0  0  0  0  0  0  0  0
   -3.8605   -0.0966    0.0084 C   0  0  0  0  0  0  0  0  0  0  0  0
   -4.5619   -0.7775    1.0129 C   0  0  0  0  0  0  0  0  0  0  0  0
   -5.9579   -0.9034    0.9451 C   0  0  0  0  0  0  0  0  0  0  0  0
   -6.6665   -0.2976   -0.0859 C   0  0  0  0  0  0  0  0  0  0  0  0
   -6.0033    0.4663   -1.0378 C   0  0  0  0  0  0  0  0  0  0  0  0
   -4.6054    0.5402   -1.0016 C   0  0  0  0  0  0  0  0  0  0  0  0
    3.3019    1.4034   -0.0002 O   0  0  0  0  0  0  0  0  0  0  0  0
   -8.0176   -0.4756   -0.1286 O   0  0  0  0  0  0  0  0  0  0  0  0
  1  2  2  0
  1  6  1  0
  2  3  1  0
  3  4  2  0
  3  7  1  0
  4  5  1  0
  4  9  1  0
  5  6  2  0
  6 16  1  0
  7  8  1  0
  8  9  2  0
  8 10  1  0
 10 11  2  0
 10 15  1  0
 11 12  1  0
 12 13  2  0
 13 14  1  0
 13 17  1  0
 14 15  2  0
M  END
>  <DRUGBANK_ID>  (1) 
DB07032

>  <COMMON_NAME>  (1) 
2-(4-HYDROXY-PHENYL)BENZOFURAN-5-OL

$$$$
