PSK
     RDKit          3D

 12 11  0  0  0  0  0  0  0  0999 V2000
   -1.1436    0.0685    2.8830 C   0  0  0  0  0  0  0  0  0  0  0  0
    0.3726    0.2425    2.8776 C   0  0  0  0  0  0  0  0  0  0  0  0
    1.0444   -1.0072    2.2844 C   0  0  2  0  0  0  0  0  0  0  0  0
    0.6906   -1.0774    0.9062 O   0  0  0  0  0  0  0  0  0  0  0  0
    0.6066   -2.2761    3.0271 C   0  0  1  0  0  0  0  0  0  0  0  0
    1.0138   -3.5683    2.3436 C   0  0  0  0  0  0  0  0  0  0  0  0
    1.0814   -2.1646    4.4601 C   0  0  0  0  0  0  0  0  0  0  0  0
    0.2585   -2.1233    5.3894 O   0  0  0  0  0  0  0  0  0  0  0  0
    2.5467   -2.1529    4.7682 C   0  0  0  0  0  0  0  0  0  0  0  0
    3.3175   -3.7770    4.6075 P   0  0  1  0  0  0  0  0  0  0  0  0
    4.2724   -3.9263    5.7580 O   0  0  0  0  0  0  0  0  0  0  0  0
    2.0240   -4.7341    4.8289 O   0  0  0  0  0  0  0  0  0  0  0  0
  1  2  1  0
  3  5  1  0
  3  4  1  6
  3  2  1  0
  5  6  1  6
  5  7  1  0
  7  8  2  0
  7  9  1  0
  9 10  1  0
 10 11  2  0
 10 12  1  1
M  END
>  <DRUGBANK_ID>  (1) 
DB08431

>  <COMMON_NAME>  (1) 
[(3R,4S)-4-HYDROXY-3-METHYL-2-OXOHEXYL]PHOSPHONIC ACID

$$$$
