544
     RDKit          3D

  9  9  0  0  0  0  0  0  0  0999 V2000
   -2.4265   -0.7890    0.0031 F   0  0  0  0  0  0  0  0  0  0  0  0
   -1.4267    1.7988    0.0016 O   0  0  0  0  0  0  0  0  0  0  0  0
    2.8509    0.2399    0.0044 O   0  0  0  0  0  0  0  0  0  0  0  0
    0.7153    1.0241   -0.0059 N   0  0  0  0  0  0  0  0  0  0  0  0
    1.1402   -1.2568    0.0003 N   0  0  0  0  0  0  0  0  0  0  0  0
   -0.6475    0.8527   -0.0021 C   0  0  0  0  0  0  0  0  0  0  0  0
    1.6454    0.0191   -0.0007 C   0  0  0  0  0  0  0  0  0  0  0  0
   -1.1018   -0.5563   -0.0004 C   0  0  0  0  0  0  0  0  0  0  0  0
   -0.2006   -1.5387    0.0013 C   0  0  0  0  0  0  0  0  0  0  0  0
  1  8  1  0
  2  6  2  0
  3  7  2  0
  4  6  1  0
  4  7  1  0
  5  7  1  0
  5  9  1  0
  6  8  1  0
  8  9  2  0
M  END
>  <DRUGBANK_ID>  (1) 
DB00544

>  <SECONDARY_ACCESSION_NUMBERS>  (1) 
APRD00516; EXPT03204

>  <COMMON_NAME>  (1) 
Fluorouracil

>  <CAS_NUMBER>  (1) 
51-21-8

>  <UNII>  (1) 
U3P01618RT

>  <SYNONYMS>  (1) 
5-Fluoracil; 5-Fluoropyrimidine-2,4-dione; 5-Fluorouracil; 5-Fluracil; 5-FU; Fluoro Uracil; Fluorouracil; Fluorouracilo; Fluorouracilum; Fluouracil

$$$$
