
     RDKit          3D

 29 31  0  0  0  0  0  0  0  0999 V2000
   -1.2220   -1.4563   -0.0030 C   0  0  0  0  0  0  0  0  0  0  0  0
    0.0138   -2.1105    0.0220 C   0  0  0  0  0  0  0  0  0  0  0  0
    1.2219   -1.3855    0.0421 C   0  0  0  0  0  0  0  0  0  0  0  0
    1.1335    0.0293   -0.0286 C   0  0  0  0  0  0  0  0  0  0  0  0
   -0.1037    0.6732   -0.0153 C   0  0  0  0  0  0  0  0  0  0  0  0
   -1.2717   -0.0675    0.0026 C   0  0  0  0  0  0  0  0  0  0  0  0
   -2.7804    0.7521    0.0026 Cl  0  0  0  0  0  0  0  0  0  0  0  0
    2.4515    1.1312   -0.2632 Cl  0  0  0  0  0  0  0  0  0  0  0  0
    2.3988   -2.1384    0.2918 N   0  0  0  0  0  0  0  0  0  0  0  0
    3.6784   -1.6076    0.3007 C   0  0  0  0  0  0  0  0  0  0  0  0
    4.4077   -1.8115   -0.7710 N   0  0  0  0  0  0  0  0  0  0  0  0
    5.5205   -1.0530   -0.8646 C   0  0  0  0  0  0  0  0  0  0  0  0
    6.0384   -0.1577    0.0656 C   0  0  0  0  0  0  0  0  0  0  0  0
    5.2251   -0.0461    1.1794 C   0  0  0  0  0  0  0  0  0  0  0  0
    4.0663   -0.7963    1.2854 N   0  0  0  0  0  0  0  0  0  0  0  0
    5.3875    0.9012    2.3561 C   0  0  0  0  0  0  0  0  0  0  0  0
    4.3816    1.8298    2.3956 F   0  0  0  0  0  0  0  0  0  0  0  0
    5.2802    0.2106    3.5344 F   0  0  0  0  0  0  0  0  0  0  0  0
    6.5201    1.6205    2.5141 F   0  0  0  0  0  0  0  0  0  0  0  0
    7.3305    0.5882   -0.0891 C   0  0  0  0  0  0  0  0  0  0  0  0
    7.6777    1.4571    0.6824 O   0  0  0  0  0  0  0  0  0  0  0  0
    8.2489    0.3439   -1.0715 N   0  0  0  0  0  0  0  0  0  0  0  0
    8.2183   -0.4305   -2.2776 C   0  0  0  0  0  0  0  0  0  0  0  0
    8.0124    0.4210   -3.5151 C   0  0  0  0  0  0  0  0  0  0  0  0
    9.3298    1.1314   -3.7856 C   0  0  0  0  0  0  0  0  0  0  0  0
    9.2037    2.0451   -4.9786 C   0  0  0  0  0  0  0  0  0  0  0  0
    8.1306    2.9654   -4.7952 O   0  0  0  0  0  0  0  0  0  0  0  0
    6.8630    2.3189   -4.6755 C   0  0  0  0  0  0  0  0  0  0  0  0
    6.8372    1.4144   -3.4495 C   0  0  0  0  0  0  0  0  0  0  0  0
  1  2  2  0
  1  6  1  0
  2  3  1  0
  3  4  2  0
  3  9  1  0
  4  5  1  0
  4  8  1  0
  5  6  2  0
  6  7  1  0
  9 10  1  0
 10 11  2  0
 10 15  1  0
 11 12  1  0
 12 13  2  0
 13 14  1  0
 13 20  1  0
 14 15  2  0
 14 16  1  0
 16 17  1  0
 16 18  1  0
 16 19  1  0
 20 21  2  0
 20 22  1  0
 22 23  1  0
 23 24  1  0
 24 25  1  0
 24 29  1  0
 25 26  1  0
 26 27  1  0
 27 28  1  0
 28 29  1  0
M  END
>  <DRUGBANK_ID>  (1) 
DB11903

>  <COMMON_NAME>  (1) 
GW842166

>  <CAS_NUMBER>  (1) 
666260-75-9

>  <UNII>  (1) 
VL1I6P2DZ8

$$$$
