1CE
     RDKit          3D

 20 23  0  0  0  0  0  0  0  0999 V2000
    1.0116   -0.0643    0.2440 O   0  0  0  0  0  0  0  0  0  0  0  0
    2.2197   -0.0250    0.0133 C   0  0  0  0  0  0  0  0  0  0  0  0
    2.9561    1.1477   -0.1418 N   0  0  0  0  0  0  0  0  0  0  0  0
    2.2189    2.4100   -0.1686 C   0  0  0  0  0  0  0  0  0  0  0  0
    1.3280    2.4818   -1.3721 C   0  0  0  0  0  0  0  0  0  0  0  0
    0.3419    1.6575   -1.6709 N   0  0  0  0  0  0  0  0  0  0  0  0
    1.3480    3.4388   -2.3504 N   0  0  0  0  0  0  0  0  0  0  0  0
    0.4024    3.1815   -3.2674 N   0  0  0  0  0  0  0  0  0  0  0  0
   -0.2059    2.0872   -2.8436 N   0  0  0  0  0  0  0  0  0  0  0  0
    3.0086   -1.2297   -0.0380 C   0  0  0  0  0  0  0  0  0  0  0  0
    2.5625   -2.5789   -0.0669 C   0  0  0  0  0  0  0  0  0  0  0  0
    1.1363   -3.0512   -0.0785 C   0  0  0  0  0  0  0  0  0  0  0  0
    1.0613   -4.5254   -0.4942 C   0  0  0  0  0  0  0  0  0  0  0  0
    2.0843   -5.3491    0.3023 C   0  0  0  0  0  0  0  0  0  0  0  0
    3.5198   -4.9394   -0.0716 C   0  0  0  0  0  0  0  0  0  0  0  0
    3.6362   -3.4480   -0.0560 C   0  0  0  0  0  0  0  0  0  0  0  0
    5.1377   -2.6432   -0.0580 S   0  0  0  0  0  0  0  0  0  0  0  0
    4.3799   -1.1121   -0.0401 C   0  0  0  0  0  0  0  0  0  0  0  0
    5.0799    0.0501   -0.0109 N   0  0  0  0  0  0  0  0  0  0  0  0
    4.3394    1.1140   -0.0632 C   0  0  0  0  0  0  0  0  0  0  0  0
  1  2  2  0
  2  3  1  0
  2 10  1  0
  3  4  1  0
  3 20  1  0
  4  5  1  0
  5  6  2  0
  5  7  1  0
  6  9  1  0
  7  8  1  0
  8  9  2  0
 10 11  1  0
 10 18  2  0
 11 12  1  0
 11 16  2  0
 12 13  1  0
 13 14  1  0
 14 15  1  0
 15 16  1  0
 16 17  1  0
 17 18  1  0
 18 19  1  0
 19 20  2  0
M  END
>  <DRUGBANK_ID>  (1) 
DB06889

>  <COMMON_NAME>  (1) 
3-(1H-tetrazol-5-ylmethyl)-5,6,7,8-tetrahydro[1]benzothieno[2,3-d]pyrimidin-4(3H)-one

$$$$
