625
     RDKit          3D

 21 23  0  0  1  0  0  0  0  0999 V2000
    0.9561    0.1442    0.0521 Cl  0  0  0  0  0  0  0  0  0  0  0  0
    3.4996   -3.3831   -1.0214 F   0  0  0  0  0  0  0  0  0  0  0  0
    5.4101   -3.4428   -2.0302 F   0  0  0  0  0  0  0  0  0  0  0  0
    4.9770   -4.8291   -0.4028 F   0  0  0  0  0  0  0  0  0  0  0  0
    6.8547   -2.3823   -0.0212 O   0  0  0  0  0  0  0  0  0  0  0  0
    8.5372   -1.2543    0.9844 O   0  0  0  0  0  0  0  0  0  0  0  0
    6.8443   -0.0820    0.0214 N   0  0  0  0  0  0  0  0  0  0  0  0
    5.3658   -3.9666    4.1015 C   0  0  0  0  0  0  0  0  0  0  0  0
    4.6004   -5.1792    4.5723 C   0  0  0  0  0  0  0  0  0  0  0  0
    4.1798   -3.8106    5.0234 C   0  0  0  0  0  0  0  0  0  0  0  0
    5.4322   -2.5160    0.2282 C   0  0  2  0  0  0  0  0  0  0  0  0
    5.2710   -3.4986    2.7443 C   0  0  0  0  0  0  0  0  0  0  0  0
    4.7236   -1.1744    0.1139 C   0  0  0  0  0  0  0  0  0  0  0  0
    5.3011   -3.0582    1.6188 C   0  0  0  0  0  0  0  0  0  0  0  0
    5.4562    0.0025   -0.0237 C   0  0  0  0  0  0  0  0  0  0  0  0
    4.8320   -3.5428   -0.8070 C   0  0  0  0  0  0  0  0  0  0  0  0
    3.3252   -1.0899    0.1873 C   0  0  0  0  0  0  0  0  0  0  0  0
    4.8095    1.2419   -0.0860 C   0  0  0  0  0  0  0  0  0  0  0  0
    7.4649   -1.2447    0.3950 C   0  0  0  0  0  0  0  0  0  0  0  0
    2.6732    0.1254    0.0616 C   0  0  0  0  0  0  0  0  0  0  0  0
    3.4096    1.2967   -0.0529 C   0  0  0  0  0  0  0  0  0  0  0  0
  1 20  1  0
  2 16  1  0
  3 16  1  0
  4 16  1  0
  5 11  1  0
  5 19  1  0
  6 19  2  0
  7 15  1  0
  7 19  1  0
  8  9  1  0
  8 10  1  0
  8 12  1  0
  9 10  1  0
 11 13  1  0
 11 16  1  0
 11 14  1  1
 12 14  3  0
 13 15  2  0
 13 17  1  0
 15 18  1  0
 17 20  2  0
 18 21  2  0
 20 21  1  0
M  END
>  <DRUGBANK_ID>  (1) 
DB00625

>  <SECONDARY_ACCESSION_NUMBERS>  (1) 
APRD00059; DB07709

>  <COMMON_NAME>  (1) 
Efavirenz

>  <CAS_NUMBER>  (1) 
154598-52-4

>  <UNII>  (1) 
JE6H2O27P8

>  <SYNONYMS>  (1) 
(S)-6-chloro-4-(Cyclopropylethynyl)-1,4-dihydro-(S)-6-chloro-4-(cyclopropylethynyl)-1,4-dihydro-4-(trifluoromethyl)-2H-3,1-benzoxazin-2-one4-(trifluoromethyl)-2H-3,1-benzoxazin-2-one; (S)-6-chloro-4-cyclopropylethynyl-4-trifluoromethyl-1,4-dihydro-benzo[d][1,3]oxazin-2-one; 6-chloro-4-(2-cyclopropyl-1-ethynyl)-4-trifluoromethyl-(4S)-1,4-dihydro-2H-benzo[d][1,3]oxazin-2-one; Efavirenz; Ã‰favirenz; Efavirenzum

$$$$
