
     RDKit          3D

 12 12  0  0  0  0  0  0  0  0999 V2000
   -1.4194   -0.0407   -0.1856 N   0  0  0  0  0  0  0  0  0  0  0  0
   -2.5883    0.1894   -0.8975 C   0  0  0  0  0  0  0  0  0  0  0  0
   -3.0651    1.4684   -1.2093 N   0  0  0  0  0  0  0  0  0  0  0  0
   -2.7583    2.8042   -0.9501 C   0  0  0  0  0  0  0  0  0  0  0  0
   -3.2982    3.7690   -1.7461 N   0  0  0  0  0  0  0  0  0  0  0  0
   -0.5662    1.0308    0.3010 C   0  0  0  0  0  0  0  0  0  0  0  0
    0.8588    0.9654   -0.1896 C   0  0  0  0  0  0  0  0  0  0  0  0
    1.4670   -0.2429    0.2163 O   0  0  0  0  0  0  0  0  0  0  0  0
    0.6806   -1.3363   -0.2912 C   0  0  0  0  0  0  0  0  0  0  0  0
   -0.7937   -1.3160    0.2033 C   0  0  0  0  0  0  0  0  0  0  0  0
   -3.3075   -0.7947   -1.3743 N   0  0  0  0  0  0  0  0  0  0  0  0
   -1.9617    3.2542   -0.0616 N   0  0  0  0  0  0  0  0  0  0  0  0
  1  2  1  0
  1 10  1  0
  1  6  1  0
  2 11  2  0
  2  3  1  0
  3  4  1  0
  4  5  1  0
  4 12  2  0
  6  7  1  0
  7  8  1  0
  8  9  1  0
  9 10  1  0
M  END
>  <DRUGBANK_ID>  (1) 
DB13597

>  <COMMON_NAME>  (1) 
Moroxydine

>  <CAS_NUMBER>  (1) 
3731-59-7

>  <UNII>  (1) 
O611591WAH

>  <SYNONYMS>  (1) 
Moroxidina; Moroxydine; Moroxydinum

$$$$
