716
     RDKit          3D

 27 29  0  0  0  0  0  0  0  0999 V2000
    2.4711   -1.3755    0.0416 O   0  0  0  0  0  0  0  0  0  0  0  0
   -2.4718    2.6382   -0.0156 O   0  0  0  0  0  0  0  0  0  0  0  0
    2.5035    2.6989   -0.0012 O   0  0  0  0  0  0  0  0  0  0  0  0
   -5.3204   -2.6223    0.0433 O   0  0  0  0  0  0  0  0  0  0  0  0
   -6.0433   -0.5677   -0.0186 O   0  0  0  0  0  0  0  0  0  0  0  0
    4.8941   -2.7019   -0.0001 O   0  0  0  0  0  0  0  0  0  0  0  0
    6.0403   -0.7670   -0.0029 O   0  0  0  0  0  0  0  0  0  0  0  0
   -2.4431   -1.4079   -0.4184 N   0  0  0  0  0  0  0  0  0  0  0  0
   -1.1834   -0.7603   -0.1520 C   0  0  0  0  0  0  0  0  0  0  0  0
    0.0606   -1.4392    0.0680 C   0  0  0  0  0  0  0  0  0  0  0  0
   -1.1676    0.6627   -0.0851 C   0  0  0  0  0  0  0  0  0  0  0  0
    0.1740   -2.9216    0.4092 C   0  0  0  0  0  0  0  0  0  0  0  0
    1.2655   -0.6856    0.0388 C   0  0  0  0  0  0  0  0  0  0  0  0
    1.2268    0.7119   -0.0006 C   0  0  0  0  0  0  0  0  0  0  0  0
    0.0184    1.3958   -0.0071 C   0  0  0  0  0  0  0  0  0  0  0  0
   -2.4313   -2.8088   -0.7860 C   0  0  0  0  0  0  0  0  0  0  0  0
   -3.6552   -0.7099   -0.1817 C   0  0  0  0  0  0  0  0  0  0  0  0
   -0.5771   -3.4365    1.7005 C   0  0  0  0  0  0  0  0  0  0  0  0
   -2.4396    1.4132   -0.0621 C   0  0  0  0  0  0  0  0  0  0  0  0
   -3.6825    0.6303   -0.0301 C   0  0  0  0  0  0  0  0  0  0  0  0
    2.4790    1.4637    0.0014 C   0  0  0  0  0  0  0  0  0  0  0  0
   -1.8443   -3.2976   -2.0569 C   0  0  0  0  0  0  0  0  0  0  0  0
   -2.0531   -3.0763    2.0623 C   0  0  0  0  0  0  0  0  0  0  0  0
    3.6519   -0.6506    0.0113 C   0  0  0  0  0  0  0  0  0  0  0  0
    3.7137    0.6895    0.0003 C   0  0  0  0  0  0  0  0  0  0  0  0
   -5.0609   -1.3043   -0.0582 C   0  0  0  0  0  0  0  0  0  0  0  0
    4.9632   -1.3565    0.0023 C   0  0  0  0  0  0  0  0  0  0  0  0
  1 13  1  0
  1 24  1  0
  2 19  2  0
  3 21  2  0
  4 26  1  0
  5 26  2  0
  6 27  1  0
  7 27  2  0
  8  9  1  0
  8 16  1  0
  8 17  1  0
  9 10  1  0
  9 11  2  0
 10 12  1  0
 10 13  2  0
 11 15  1  0
 11 19  1  0
 12 18  1  0
 13 14  1  0
 14 15  2  0
 14 21  1  0
 16 22  1  0
 17 20  2  0
 17 26  1  0
 18 23  1  0
 19 20  1  0
 21 25  1  0
 24 25  2  0
 24 27  1  0
M  END
>  <DRUGBANK_ID>  (1) 
DB00716

>  <SECONDARY_ACCESSION_NUMBERS>  (1) 
APRD01137

>  <COMMON_NAME>  (1) 
Nedocromil

>  <CAS_NUMBER>  (1) 
69049-73-6

>  <UNII>  (1) 
0B535E0BN0

>  <SYNONYMS>  (1) 
9-Ethyl-6,9-dihydro-4,6-dioxo-10-propyl-4H-pyrano(3,2-g)chinolin-2,8-dicarbonsäure; 9-ethyl-6,9-dihydro-4,6-dioxo-10-propyl-4H-pyrano(3,2-g)quinoline-2,8-dicarboxylic acid; Nédocromil; Nedocromil; Nedocromilo; Nedocromilum

$$$$
