
     RDKit          3D

 31 34  0  0  1  0  0  0  0  0999 V2000
    7.7774   -9.7433   -2.2826 N   0  0  0  0  0  0  0  0  0  0  0  0
    7.4931   -8.7814   -1.3395 C   0  0  0  0  0  0  0  0  0  0  0  0
    7.9218   -7.6513   -1.4610 O   0  0  0  0  0  0  0  0  0  0  0  0
    6.6906   -9.2404   -0.1681 C   0  0  0  0  0  0  0  0  0  0  0  0
    7.0695  -10.4455    0.4437 C   0  0  0  0  0  0  0  0  0  0  0  0
    6.3564  -10.9314    1.5275 C   0  0  0  0  0  0  0  0  0  0  0  0
    5.2728  -10.2093    2.0075 C   0  0  0  0  0  0  0  0  0  0  0  0
    4.8740   -8.9933    1.4034 C   0  0  0  0  0  0  0  0  0  0  0  0
    5.6004   -8.4892    0.2970 C   0  0  0  0  0  0  0  0  0  0  0  0
    5.2432   -7.3442   -0.3002 N   0  0  0  0  0  0  0  0  0  0  0  0
    4.1596   -6.7277    0.1589 C   0  0  0  0  0  0  0  0  0  0  0  0
    3.3768   -7.1651    1.1471 N   0  0  0  0  0  0  0  0  0  0  0  0
    3.7552   -8.2497    1.8277 C   0  0  0  0  0  0  0  0  0  0  0  0
    3.1343   -8.5183    3.0539 N   0  0  0  0  0  0  0  0  0  0  0  0
    1.8833   -7.8612    3.4972 C   0  0  2  0  0  0  0  0  0  0  0  0
    2.0187   -6.2717    3.5069 C   0  0  0  0  0  0  0  0  0  0  0  0
    0.8704   -5.3521    3.5731 N   0  0  0  0  0  0  0  0  0  0  0  0
    0.3784   -4.8341    4.8556 C   0  0  0  0  0  0  0  0  0  0  0  0
   -1.0389   -4.9487    4.2896 C   0  0  0  0  0  0  0  0  0  0  0  0
   -0.4337   -5.9397    3.2725 C   0  0  0  0  0  0  0  0  0  0  0  0
    1.5680   -8.4061    4.9186 C   0  0  0  0  0  0  0  0  0  0  0  0
    1.4139   -7.5186    5.9931 C   0  0  0  0  0  0  0  0  0  0  0  0
    1.0100   -7.8286    7.3010 C   0  0  0  0  0  0  0  0  0  0  0  0
    1.0021   -9.1701    7.6098 C   0  0  0  0  0  0  0  0  0  0  0  0
    0.7974   -9.7386    9.2196 Cl  0  0  0  0  0  0  0  0  0  0  0  0
    1.2654  -10.1192    6.6035 C   0  0  0  0  0  0  0  0  0  0  0  0
    1.4825   -9.7519    5.2589 C   0  0  0  0  0  0  0  0  0  0  0  0
    0.6650   -6.6870    8.2326 C   0  0  0  0  0  0  0  0  0  0  0  0
    1.6275   -5.7177    8.2356 F   0  0  0  0  0  0  0  0  0  0  0  0
   -0.4810   -6.0390    7.8552 F   0  0  0  0  0  0  0  0  0  0  0  0
    0.4708   -7.0090    9.5363 F   0  0  0  0  0  0  0  0  0  0  0  0
  1  2  1  0
  2  3  2  0
  2  4  1  0
  4  5  2  0
  4  9  1  0
  5  6  1  0
  6  7  2  0
  7  8  1  0
  8  9  2  0
  8 13  1  0
  9 10  1  0
 10 11  2  0
 11 12  1  0
 12 13  2  0
 13 14  1  0
 15 21  1  0
 15 16  1  1
 15 14  1  0
 16 17  1  0
 17 18  1  0
 17 20  1  0
 18 19  1  0
 19 20  1  0
 21 22  2  0
 21 27  1  0
 22 23  1  0
 23 24  2  0
 23 28  1  0
 24 25  1  0
 24 26  1  0
 26 27  2  0
 28 29  1  0
 28 30  1  0
 28 31  1  0
M  END
>  <DRUGBANK_ID>  (1) 
DB15431

>  <COMMON_NAME>  (1) 
M-2698

>  <CAS_NUMBER>  (1) 
1379545-95-5

>  <UNII>  (1) 
0DXG50I4WD

>  <SYNONYMS>  (1) 
MSC2363318A

$$$$
