
     RDKit          3D

  7  7  0  0  0  0  0  0  0  0999 V2000
   -0.6108   -1.2540   -0.0141 C   0  0  0  0  0  0  0  0  0  0  0  0
   -1.3651   -0.0902   -0.0155 C   0  0  0  0  0  0  0  0  0  0  0  0
   -0.6954    1.1204    0.0456 C   0  0  0  0  0  0  0  0  0  0  0  0
    0.6513    1.2319    0.0382 N   0  0  0  0  0  0  0  0  0  0  0  0
    1.3710    0.0909    0.0087 C   0  0  0  0  0  0  0  0  0  0  0  0
    0.7808   -1.1697    0.0267 C   0  0  0  0  0  0  0  0  0  0  0  0
    3.1350    0.2824   -0.0978 S   0  0  0  0  0  0  0  0  0  0  0  0
  1  2  2  0
  1  6  1  0
  2  3  1  0
  3  4  2  0
  4  5  1  0
  5  6  2  0
  5  7  1  0
M  END
>  <DRUGBANK_ID>  (1) 
DB03329

>  <SECONDARY_ACCESSION_NUMBERS>  (1) 
EXPT02724

>  <COMMON_NAME>  (1) 
2-Pyridinethiol

>  <CAS_NUMBER>  (1) 
73018-10-7

>  <UNII>  (1) 
EE982KT952

>  <SYNONYMS>  (1) 
2-Mercaptopyridine; Pyridine-2-thiol

$$$$
