074
     RDKit          3D

 27 27  0  0  0  0  0  0  0  0999 V2000
    0.9842   -3.3103   -2.4146 C   0  0  0  0  0  0  0  0  0  0  0  0
    1.4664   -3.5756   -1.0076 C   0  0  0  0  0  0  0  0  0  0  0  0
    0.5791   -2.8676   -0.0068 C   0  0  0  0  0  0  0  0  0  0  0  0
   -0.7518   -3.4354    0.0476 N   0  0  0  0  0  0  0  0  0  0  0  0
   -1.3704   -4.0925    1.0697 C   0  0  0  0  0  0  0  0  0  0  0  0
   -2.5101   -4.5187    0.8844 O   0  0  0  0  0  0  0  0  0  0  0  0
   -0.6263   -4.2800    2.4030 C   0  0  2  0  0  0  0  0  0  0  0  0
   -0.2272   -2.9343    3.0149 C   0  0  0  0  0  0  0  0  0  0  0  0
    0.4922   -5.1517    2.2653 O   0  0  0  0  0  0  0  0  0  0  0  0
   -0.0891   -3.0075    4.5040 C   0  0  0  0  0  0  0  0  0  0  0  0
    1.0184   -2.9851    5.0415 O   0  0  0  0  0  0  0  0  0  0  0  0
   -1.1848   -3.0939    5.2896 N   0  0  0  0  0  0  0  0  0  0  0  0
   -2.5856   -3.0146    4.9073 C   0  0  1  0  0  0  0  0  0  0  0  0
   -3.3243   -4.3580    5.1807 C   0  0  1  0  0  0  0  0  0  0  0  0
   -3.4396   -4.6605    6.6646 C   0  0  0  0  0  0  0  0  0  0  0  0
   -4.7406   -4.3748    4.5739 C   0  0  0  0  0  0  0  0  0  0  0  0
   -4.7223   -4.2919    3.0606 C   0  0  0  0  0  0  0  0  0  0  0  0
   -3.3735   -1.7837    5.4511 C   0  0  0  0  0  0  0  0  0  0  0  0
   -4.0428   -1.1254    4.6461 O   0  0  0  0  0  0  0  0  0  0  0  0
   -3.5404   -1.6133    6.8141 N   0  0  0  0  0  0  0  0  0  0  0  0
   -2.6259   -1.8864    7.9071 C   0  0  0  0  0  0  0  0  0  0  0  0
   -3.5154   -2.3602    9.0428 C   0  0  0  0  0  0  0  0  0  0  0  0
   -4.7723   -1.5235    8.8573 C   0  0  0  0  0  0  0  0  0  0  0  0
   -4.8482   -1.2002    7.3459 C   0  0  1  0  0  0  0  0  0  0  0  0
   -5.1615    0.2807    7.1440 C   0  0  0  0  0  0  0  0  0  0  0  0
   -4.5454    1.1034    6.4773 O   0  0  0  0  0  0  0  0  0  0  0  0
   -6.2745    0.6623    7.8096 O   0  0  0  0  0  0  0  0  0  0  0  0
  1  2  1  0
  2  3  1  0
  3  4  1  0
  4  5  1  0
  5  6  2  0
  7  9  1  6
  7  8  1  0
  7  5  1  0
  8 10  1  0
 10 11  2  0
 10 12  1  0
 13 12  1  1
 13 14  1  0
 13 18  1  0
 14 15  1  1
 14 16  1  0
 16 17  1  0
 18 19  2  0
 18 20  1  0
 20 21  1  0
 20 24  1  0
 21 22  1  0
 22 23  1  0
 23 24  1  0
 24 25  1  1
 25 26  2  0
 25 27  1  0
M  END
>  <DRUGBANK_ID>  (1) 
DB02855

>  <SECONDARY_ACCESSION_NUMBERS>  (1) 
EXPT00003

>  <COMMON_NAME>  (1) 
N-(3-Propylcarbamoyloxirane-2-Carbonyl)-Isoleucyl-Proline

>  <CAS_NUMBER>  (1) 
134448-10-5

>  <SYNONYMS>  (1) 
N-(3-Propylcarbamoyloxirane-2-carbonyl)-isoleucyl-proline

$$$$
