
     RDKit          3D

 30 29  0  0  0  0  0  0  0  0999 V2000
    0.9669   -0.1113    0.0959 C   0  0  0  0  0  0  0  0  0  0  0  0
    0.4718   -0.5896    1.4379 C   0  0  0  0  0  0  0  0  0  0  0  0
   -0.3800    0.1727    2.1294 C   0  0  0  0  0  0  0  0  0  0  0  0
   -0.8899    0.0127    3.5303 C   0  0  0  0  0  0  0  0  0  0  0  0
   -0.3031    1.0688    4.4825 C   0  0  0  0  0  0  0  0  0  0  0  0
   -0.7384    2.4996    4.1840 C   0  0  0  0  0  0  0  0  0  0  0  0
   -1.4413    3.1633    5.1052 C   0  0  0  0  0  0  0  0  0  0  0  0
   -2.1383    4.4833    4.9600 C   0  0  0  0  0  0  0  0  0  0  0  0
   -3.6663    4.3474    4.9547 C   0  0  0  0  0  0  0  0  0  0  0  0
   -4.2460    3.9096    6.2828 C   0  0  0  0  0  0  0  0  0  0  0  0
   -5.0199    4.7586    6.9737 C   0  0  0  0  0  0  0  0  0  0  0  0
   -5.5404    4.4946    8.3506 C   0  0  0  0  0  0  0  0  0  0  0  0
   -4.8905    5.4297    9.3555 C   0  0  0  0  0  0  0  0  0  0  0  0
   -5.3798    6.8279    9.1498 C   0  0  0  0  0  0  0  0  0  0  0  0
   -6.1545    7.4675   10.0392 C   0  0  0  0  0  0  0  0  0  0  0  0
   -6.7534    8.8074    9.6998 C   0  0  0  0  0  0  0  0  0  0  0  0
   -8.2867    8.7904    9.5785 C   0  0  0  0  0  0  0  0  0  0  0  0
   -8.9733    8.4459   10.8701 C   0  0  0  0  0  0  0  0  0  0  0  0
   -9.6677    9.3125   11.6367 C   0  0  0  0  0  0  0  0  0  0  0  0
  -10.0802    8.9386   13.0457 C   0  0  0  0  0  0  0  0  0  0  0  0
   -9.4916    9.8424   14.1512 C   0  0  0  0  0  0  0  0  0  0  0  0
   -9.9379   11.2739   14.0386 C   0  0  0  0  0  0  0  0  0  0  0  0
  -10.8110   11.9083   14.8385 C   0  0  0  0  0  0  0  0  0  0  0  0
  -11.3287   13.2731   14.4823 C   0  0  0  0  0  0  0  0  0  0  0  0
    0.9535   -1.9169    1.9219 C   0  0  0  0  0  0  0  0  0  0  0  0
   -0.3593    3.1570    2.8942 C   0  0  0  0  0  0  0  0  0  0  0  0
   -3.9239    2.5338    6.7985 C   0  0  0  0  0  0  0  0  0  0  0  0
   -6.4526    6.8346   11.3693 C   0  0  0  0  0  0  0  0  0  0  0  0
  -10.0379   10.6468   11.0714 C   0  0  0  0  0  0  0  0  0  0  0  0
  -11.2850   11.2816   16.1099 C   0  0  0  0  0  0  0  0  0  0  0  0
  2  1  1  0
  3  2  2  3
  4  3  1  0
  5  4  1  0
  6  5  1  0
  7  6  2  0
  8  7  1  0
  9  8  1  0
 10  9  1  0
 11 10  2  0
 12 11  1  0
 13 12  1  0
 14 13  1  0
 15 14  2  0
 16 15  1  0
 17 16  1  0
 18 17  1  0
 19 18  2  0
 20 19  1  0
 21 20  1  0
 22 21  1  0
 23 22  2  3
 24 23  1  0
 25  2  1  0
 26  6  1  0
 27 10  1  0
 28 15  1  0
 29 19  1  0
 30 23  1  0
M  END
>  <DRUGBANK_ID>  (1) 
DB11460

>  <COMMON_NAME>  (1) 
Squalene

>  <CAS_NUMBER>  (1) 
111-02-4

>  <UNII>  (1) 
7QWM220FJH

>  <SYNONYMS>  (1) 
(all-E)-2,6,10,15,19,23-hexamethyl-2,6,10,14,18,22-tetracosahexaene; (E,E,E,E)-Squalene; Spinacene; Squalene; Supraene

$$$$
