
     RDKit          3D

 27 30  0  0  0  0  0  0  0  0999 V2000
    3.7069   -0.0051   -0.8051 C   0  0  0  0  0  0  0  0  0  0  0  0
   -3.5578    0.2471   -1.1019 C   0  0  0  0  0  0  0  0  0  0  0  0
    3.3369   -1.3124   -0.4936 C   0  0  0  0  0  0  0  0  0  0  0  0
   -3.0263   -1.0246   -1.2172 C   0  0  0  0  0  0  0  0  0  0  0  0
   -0.6004   -0.2545    3.4620 C   0  0  0  0  0  0  0  0  0  0  0  0
    2.8771    1.0763   -0.4773 C   0  0  0  0  0  0  0  0  0  0  0  0
   -2.7173    1.2597   -0.6497 C   0  0  0  0  0  0  0  0  0  0  0  0
    2.1410   -1.5385    0.1619 C   0  0  0  0  0  0  0  0  0  0  0  0
   -1.7233   -1.3012   -0.7300 C   0  0  0  0  0  0  0  0  0  0  0  0
    0.7482    2.0247    0.4087 C   0  0  0  0  0  0  0  0  0  0  0  0
   -0.5795    2.0687    0.3426 C   0  0  0  0  0  0  0  0  0  0  0  0
   -2.0928   -0.0681    3.3636 C   0  0  0  0  0  0  0  0  0  0  0  0
   -0.0046   -1.1777    2.3720 C   0  0  0  0  0  0  0  0  0  0  0  0
   -2.9826   -2.5008    3.9960 C   0  0  0  0  0  0  0  0  0  0  0  0
   -3.3177   -1.4231    1.8613 C   0  0  0  0  0  0  0  0  0  0  0  0
   -2.8325   -3.8788    3.2291 C   0  0  0  0  0  0  0  0  0  0  0  0
   -2.9629   -2.7824    1.2132 C   0  0  0  0  0  0  0  0  0  0  0  0
   -4.8770   -4.1345    1.6902 C   0  0  0  0  0  0  0  0  0  0  0  0
   -5.8634   -3.0533    2.1667 C   0  0  0  0  0  0  0  0  0  0  0  0
    1.6442    0.8657    0.1272 C   0  0  0  0  0  0  0  0  0  0  0  0
   -1.4502    0.9639   -0.0934 C   0  0  0  0  0  0  0  0  0  0  0  0
    1.2951   -0.4563    0.4587 C   0  0  0  0  0  0  0  0  0  0  0  0
   -1.0448   -0.3679    0.0728 C   0  0  0  0  0  0  0  0  0  0  0  0
   -2.7641   -1.3278    3.1660 N   0  0  0  0  0  0  0  0  0  0  0  0
   -3.4327   -3.9582    1.8927 N   0  0  0  0  0  0  0  0  0  0  0  0
    0.0054   -0.7435    0.9214 N   0  0  0  0  0  0  0  0  0  0  0  0
   -6.0056   -1.9949    1.2148 O   0  0  0  0  0  0  0  0  0  0  0  0
  3  1  2  0
  4  2  2  0
  6  1  1  0
  7  2  1  0
  8  3  1  0
  9  4  1  0
 11 10  2  0
 12  5  1  0
 13  5  1  0
 16 14  1  0
 17 15  1  0
 19 18  1  0
 20  6  2  0
 20 10  1  0
 21  7  2  0
 21 11  1  0
 22  8  2  0
 22 20  1  0
 23  9  2  0
 23 21  1  0
 24 12  1  0
 24 14  1  0
 24 15  1  0
 25 16  1  0
 25 17  1  0
 25 18  1  0
 26 13  1  0
 26 22  1  0
 26 23  1  0
 27 19  1  0
M  END
>  <DRUGBANK_ID>  (1) 
DB12930

>  <COMMON_NAME>  (1) 
Opipramol

>  <CAS_NUMBER>  (1) 
315-72-0

>  <UNII>  (1) 
D23ZXO613C

>  <SYNONYMS>  (1) 
Opipramol

$$$$
