
     RDKit          3D

 35 39  0  0  1  0  0  0  0  0999 V2000
   -2.6961    0.1915    0.0208 C   0  0  0  0  0  0  0  0  0  0  0  0
   -1.2498   -0.0682   -0.0649 C   0  0  0  0  0  0  0  0  0  0  0  0
   -0.0754   -0.2941   -0.0902 C   0  0  0  0  0  0  0  0  0  0  0  0
    1.3550   -0.5540    0.0441 C   0  0  0  0  0  0  0  0  0  0  0  0
    2.1051    0.4042    0.1736 O   0  0  0  0  0  0  0  0  0  0  0  0
    1.7480   -1.8642    0.1829 N   0  0  0  0  0  0  0  0  0  0  0  0
    1.1621   -3.0028   -0.4909 C   0  0  0  0  0  0  0  0  0  0  0  0
    1.4225   -4.1427    0.4713 C   0  0  0  0  0  0  0  0  0  0  0  0
    2.8050   -3.8089    1.0380 C   0  0  0  0  0  0  0  0  0  0  0  0
    2.8969   -2.2663    0.9935 C   0  0  1  0  0  0  0  0  0  0  0  0
    4.1857   -1.8079    0.3816 C   0  0  0  0  0  0  0  0  0  0  0  0
    4.6200   -2.1318   -0.8258 N   0  0  0  0  0  0  0  0  0  0  0  0
    5.8312   -1.4962   -0.9722 C   0  0  0  0  0  0  0  0  0  0  0  0
    6.1289   -0.7497    0.1333 C   0  0  0  0  0  0  0  0  0  0  0  0
    5.0945   -0.9762    1.0132 N   0  0  0  0  0  0  0  0  0  0  0  0
    5.1359   -0.3970    2.2677 C   0  0  0  0  0  0  0  0  0  0  0  0
    6.1798    0.3948    2.5623 C   0  0  0  0  0  0  0  0  0  0  0  0
    7.2170    0.6777    1.6903 N   0  0  0  0  0  0  0  0  0  0  0  0
    7.2062    0.1319    0.4975 C   0  0  0  0  0  0  0  0  0  0  0  0
    8.2358    0.4099   -0.3505 N   0  0  0  0  0  0  0  0  0  0  0  0
    6.5686   -1.5628   -2.2034 C   0  0  0  0  0  0  0  0  0  0  0  0
    5.9135   -1.1200   -3.3281 C   0  0  0  0  0  0  0  0  0  0  0  0
    6.4962   -1.3198   -4.5620 C   0  0  0  0  0  0  0  0  0  0  0  0
    7.7528   -1.8684   -4.7551 C   0  0  0  0  0  0  0  0  0  0  0  0
    8.3520   -2.4323   -3.6219 C   0  0  0  0  0  0  0  0  0  0  0  0
    7.8234   -2.1708   -2.3393 C   0  0  0  0  0  0  0  0  0  0  0  0
    8.4090   -1.8656   -6.1131 C   0  0  0  0  0  0  0  0  0  0  0  0
    9.3991   -2.5864   -6.2745 O   0  0  0  0  0  0  0  0  0  0  0  0
    7.9329   -1.1336   -7.2113 N   0  0  0  0  0  0  0  0  0  0  0  0
    6.8498   -0.2302   -7.2922 C   0  0  0  0  0  0  0  0  0  0  0  0
    5.8119   -0.5471   -8.1669 C   0  0  0  0  0  0  0  0  0  0  0  0
    4.5265   -0.0664   -7.8802 C   0  0  0  0  0  0  0  0  0  0  0  0
    4.3582    0.9088   -6.9063 C   0  0  0  0  0  0  0  0  0  0  0  0
    5.4814    1.3076   -6.2064 C   0  0  0  0  0  0  0  0  0  0  0  0
    6.7114    0.7453   -6.3653 N   0  0  0  0  0  0  0  0  0  0  0  0
  1  2  1  0
  2  3  3  0
  3  4  1  0
  4  5  2  0
  4  6  1  0
  6  7  1  0
  6 10  1  0
  7  8  1  0
  8  9  1  0
  9 10  1  0
 10 11  1  6
 11 12  2  0
 11 15  1  0
 12 13  1  0
 13 14  2  0
 13 21  1  0
 14 15  1  0
 14 19  1  0
 15 16  1  0
 16 17  2  0
 17 18  1  0
 18 19  2  0
 19 20  1  0
 21 22  2  0
 21 26  1  0
 22 23  1  0
 23 24  2  0
 24 25  1  0
 24 27  1  0
 25 26  2  0
 27 28  2  0
 27 29  1  0
 29 30  1  0
 30 31  2  0
 30 35  1  0
 31 32  1  0
 32 33  2  0
 33 34  1  0
 34 35  2  0
M  END
>  <DRUGBANK_ID>  (1) 
DB11703

>  <COMMON_NAME>  (1) 
Acalabrutinib

>  <CAS_NUMBER>  (1) 
1420477-60-6

>  <UNII>  (1) 
I42748ELQW

>  <SYNONYMS>  (1) 
Acalabrutinib; Acalabrutinibum

$$$$
