Indole.mol
     RDKit          3D

  9 10  0  0  0  0  0  0  0  0999 V2000
   -1.5678    1.0355    0.0053 N   0  0  0  0  0  0  0  0  0  0  0  0
   -2.3863   -0.0638   -0.0353 C   0  0  0  0  0  0  0  0  0  0  0  0
   -1.5889   -1.1838   -0.0058 C   0  0  0  0  0  0  0  0  0  0  0  0
   -0.2354   -0.7511    0.0125 C   0  0  0  0  0  0  0  0  0  0  0  0
    1.0013   -1.4223    0.0166 C   0  0  0  0  0  0  0  0  0  0  0  0
    2.1844   -0.6773   -0.0136 C   0  0  0  0  0  0  0  0  0  0  0  0
    2.1459    0.7156   -0.0252 C   0  0  0  0  0  0  0  0  0  0  0  0
    0.9288    1.4061   -0.0006 C   0  0  0  0  0  0  0  0  0  0  0  0
   -0.2466    0.6439    0.0084 C   0  0  0  0  0  0  0  0  0  0  0  0
  1  2  1  0
  1  9  1  0
  2  3  2  0
  3  4  1  0
  4  5  1  0
  4  9  2  0
  5  6  2  0
  6  7  1  0
  7  8  2  0
  8  9  1  0
M  END
>  <DRUGBANK_ID>  (1) 
DB04532

>  <SECONDARY_ACCESSION_NUMBERS>  (1) 
EXPT01882

>  <COMMON_NAME>  (1) 
Indole

>  <CAS_NUMBER>  (1) 
120-72-9

>  <UNII>  (1) 
8724FJW4M5

$$$$
