1AD
     RDKit          3D

 19 20  0  0  0  0  0  0  0  0999 V2000
   -5.9519    2.2555   -1.0792 C   0  0  2  0  0  0  0  0  0  0  0  0
   -4.4427    0.5163   -0.9748 C   0  0  1  0  0  0  0  0  0  0  0  0
   -4.0308    2.6759    0.4478 C   0  0  0  0  0  0  0  0  0  0  0  0
   -6.8262    1.0113   -1.0463 C   0  0  0  0  0  0  0  0  0  0  0  0
   -5.6479    2.6128   -2.5250 C   0  0  0  0  0  0  0  0  0  0  0  0
   -5.8380   -0.1298   -0.8661 C   0  0  0  0  0  0  0  0  0  0  0  0
   -3.6968    0.3173   -2.3082 C   0  0  0  0  0  0  0  0  0  0  0  0
   -2.7778    2.2071    1.3022 C   0  0  2  0  0  0  0  0  0  0  0  0
   -4.6749    1.8745   -0.4897 N   0  0  0  0  0  0  0  0  0  0  0  0
   -4.4471    3.8454    0.6531 O   0  0  0  0  0  0  0  0  0  0  0  0
   -5.3871    2.9192   -3.7652 C   0  0  0  0  0  0  0  0  0  0  0  0
   -2.2702    0.0176   -2.0831 N   0  0  0  0  0  0  0  0  0  0  0  0
   -2.4506    0.7267    1.2444 C   0  0  0  0  0  0  0  0  0  0  0  0
   -2.9074    2.5677    2.7368 N   0  0  0  0  0  0  0  0  0  0  0  0
   -5.0831    3.2765   -5.2110 C   0  0  0  0  0  0  0  0  0  0  0  0
   -3.5695   -0.2299    1.7341 C   0  0  0  0  0  0  0  0  0  0  0  0
   -1.2527    0.2028    2.0236 C   0  0  0  0  0  0  0  0  0  0  0  0
   -2.9097   -1.5701    1.9291 C   0  0  0  0  0  0  0  0  0  0  0  0
   -1.4169   -1.3062    1.8513 C   0  0  0  0  0  0  0  0  0  0  0  0
  1  4  1  0
  1  5  1  6
  1  9  1  0
  2  6  1  0
  2  9  1  0
  2  7  1  6
  3  9  1  0
  3 10  2  0
  4  6  1  0
  5 11  3  0
  7 12  1  0
  8 14  1  1
  8 13  1  0
  8  3  1  0
 11 15  1  0
 13 16  1  0
 13 17  1  0
 16 18  1  0
 17 19  1  0
 18 19  1  0
M  END
>  <DRUGBANK_ID>  (1) 
DB06880

>  <COMMON_NAME>  (1) 
(1S)-2-[(2S,5R)-2-(AMINOMETHYL)-5-PROP-1-YN-1-YLPYRROLIDIN-1-YL]-1-CYCLOPENTYL-2-OXOETHANAMINE

$$$$
