
     RDKit          3D

  5  4  0  0  0  0  0  0  0  0999 V2000
    1.0619   -0.0464    0.0898 S   0  0  0  0  0  0  0  0  0  0  0  0
    0.5705    0.4636   -1.2032 O   0  0  0  0  0  0  0  0  0  0  0  0
    0.5705   -1.4211    0.2947 O   0  0  0  0  0  0  0  0  0  0  0  0
    2.5361   -0.0464    0.0898 O   0  0  0  0  0  0  0  0  0  0  0  0
    0.5705    0.8184    1.1780 O   0  0  0  0  0  0  0  0  0  0  0  0
  1  5  1  0
  2  1  2  0
  3  1  2  0
  4  1  1  0
M  CHG  2   4  -1   5  -1
M  END
>  <DRUGBANK_ID>  (1) 
DB14546

>  <COMMON_NAME>  (1) 
Sulfate ion

>  <CAS_NUMBER>  (1) 
14808-79-8

>  <UNII>  (1) 
7IS9N8KPMG

>  <SYNONYMS>  (1) 
Sulfate; Sulfate dianion; Sulfate(2-); Sulfuric acid ion(2-)

$$$$
