
     RDKit          3D

 19 20  0  0  0  0  0  0  0  0999 V2000
    2.1783   -0.6428    0.0133 C   0  0  0  0  0  0  0  0  0  0  0  0
    2.1556    0.7623    0.0010 C   0  0  0  0  0  0  0  0  0  0  0  0
    0.9262    1.4313    0.0177 C   0  0  0  0  0  0  0  0  0  0  0  0
    0.9954   -1.4102    0.0264 C   0  0  0  0  0  0  0  0  0  0  0  0
   -0.2118   -0.7042    0.0186 C   0  0  0  0  0  0  0  0  0  0  0  0
   -0.2604    0.6819    0.0226 C   0  0  0  0  0  0  0  0  0  0  0  0
   -1.5536    1.1180    0.0142 N   0  0  0  0  0  0  0  0  0  0  0  0
   -2.3216    0.0536    0.0035 C   0  0  0  0  0  0  0  0  0  0  0  0
   -1.5391   -1.0843   -0.0063 N   0  0  0  0  0  0  0  0  0  0  0  0
   -3.7058    0.0276    0.0037 N   0  0  0  0  0  0  0  0  0  0  0  0
   -4.4198    1.2158    0.0217 C   0  0  0  0  0  0  0  0  0  0  0  0
   -5.7838    1.1150    0.0298 O   0  0  0  0  0  0  0  0  0  0  0  0
   -3.9430    2.3474    0.0323 O   0  0  0  0  0  0  0  0  0  0  0  0
   -6.5256   -0.1067    0.0223 C   0  0  0  0  0  0  0  0  0  0  0  0
    3.6712    1.7288   -0.2193 S   0  0  0  0  0  0  0  0  0  0  0  0
    3.7664    2.6551    1.3472 C   0  0  0  0  0  0  0  0  0  0  0  0
    4.8047    0.7503   -0.2937 O   0  0  0  0  0  0  0  0  0  0  0  0
    3.7633    1.8159    2.6195 C   0  0  0  0  0  0  0  0  0  0  0  0
    4.9426    0.8604    2.7145 C   0  0  0  0  0  0  0  0  0  0  0  0
  1  2  2  0
  2  3  1  0
  2 15  1  0
  3  6  2  0
  4  1  1  0
  5  6  1  0
  5  4  2  0
  6  7  1  0
  7  8  2  0
  8 10  1  0
  8  9  1  0
  9  5  1  0
 10 11  1  0
 11 12  1  0
 11 13  2  0
 12 14  1  0
 15 16  1  0
 15 17  2  0
 16 18  1  0
 18 19  1  0
M  END
>  <DRUGBANK_ID>  (1) 
DB13871

>  <COMMON_NAME>  (1) 
Albendazole oxide

>  <CAS_NUMBER>  (1) 
54029-12-8

>  <UNII>  (1) 
J39B52TV34

>  <SYNONYMS>  (1) 
(Â±)-albendazole sulfoxide; Albendazole oxide; Albendazole S-oxide; Albendazole sulfoxide; Methyl 5-(propylsulfinyl)-2-benzimidazolecarbamate; Ricobendazole; Rycobendazole

$$$$
