
     RDKit          3D

 36 39  0  0  1  0  0  0  0  0999 V2000
  -10.8379   13.8503   -0.1819 C   0  0  0  0  0  0  0  0  0  0  0  0
   -9.8472   13.6644    0.9947 C   0  0  2  0  0  0  0  0  0  0  0  0
   -8.7228   14.4581    0.6013 O   0  0  0  0  0  0  0  0  0  0  0  0
   -9.4804   12.2062    1.2292 C   0  0  0  0  0  0  0  0  0  0  0  0
  -10.1401   11.2062    0.6545 N   0  0  0  0  0  0  0  0  0  0  0  0
   -9.4730   10.0530    0.9836 C   0  0  0  0  0  0  0  0  0  0  0  0
   -9.9837    8.6905    0.4414 C   0  0  0  0  0  0  0  0  0  0  0  0
   -8.9664    7.8937   -0.2885 N   0  0  0  0  0  0  0  0  0  0  0  0
   -7.8737    7.4098    0.3883 N   0  0  0  0  0  0  0  0  0  0  0  0
   -7.1689    6.7912   -0.5064 C   0  0  0  0  0  0  0  0  0  0  0  0
   -7.7235    6.7273   -1.7474 N   0  0  0  0  0  0  0  0  0  0  0  0
   -7.1520    6.0411   -2.9378 C   0  0  0  0  0  0  0  0  0  0  0  0
   -7.9825    4.8778   -3.4958 C   0  0  2  0  0  0  0  0  0  0  0  0
   -7.1357    3.6996   -3.6435 O   0  0  0  0  0  0  0  0  0  0  0  0
   -8.5753    5.2576   -4.8488 C   0  0  0  0  0  0  0  0  0  0  0  0
   -9.3434    4.2387   -5.3040 F   0  0  0  0  0  0  0  0  0  0  0  0
   -9.3251    6.3665   -4.8099 F   0  0  0  0  0  0  0  0  0  0  0  0
   -7.5942    5.4502   -5.7627 F   0  0  0  0  0  0  0  0  0  0  0  0
   -8.9267    7.4176   -1.6216 C   0  0  0  0  0  0  0  0  0  0  0  0
   -9.7871    7.5394   -2.4923 O   0  0  0  0  0  0  0  0  0  0  0  0
   -5.8533    6.2230   -0.2017 C   0  0  0  0  0  0  0  0  0  0  0  0
   -5.7390    5.2829    0.8233 C   0  0  0  0  0  0  0  0  0  0  0  0
   -4.4792    4.7796    1.1542 C   0  0  0  0  0  0  0  0  0  0  0  0
   -3.3487    5.2219    0.4648 C   0  0  0  0  0  0  0  0  0  0  0  0
   -1.7956    4.6204    0.8945 Cl  0  0  0  0  0  0  0  0  0  0  0  0
   -3.4645    6.1588   -0.5616 C   0  0  0  0  0  0  0  0  0  0  0  0
   -4.7188    6.6735   -0.8879 C   0  0  0  0  0  0  0  0  0  0  0  0
   -8.4549   10.2802    1.8423 N   0  0  0  0  0  0  0  0  0  0  0  0
   -8.4625   11.6523    2.0284 N   0  0  0  0  0  0  0  0  0  0  0  0
   -7.4949   12.2757    2.9146 C   0  0  0  0  0  0  0  0  0  0  0  0
   -7.8753   13.1182    3.9750 C   0  0  0  0  0  0  0  0  0  0  0  0
   -6.8966   13.6982    4.8192 C   0  0  0  0  0  0  0  0  0  0  0  0
   -7.3737   14.7133    6.1319 Cl  0  0  0  0  0  0  0  0  0  0  0  0
   -5.5356   13.4770    4.6177 C   0  0  0  0  0  0  0  0  0  0  0  0
   -5.1468   12.6368    3.5783 C   0  0  0  0  0  0  0  0  0  0  0  0
   -6.1160   12.0180    2.7535 C   0  0  0  0  0  0  0  0  0  0  0  0
  2  4  1  0
  2  3  1  0
  2  1  1  6
  4  5  2  0
  4 29  1  0
  5  6  1  0
  6  7  1  0
  6 28  2  0
  7  8  1  0
  8  9  1  0
  8 19  1  0
  9 10  2  0
 10 11  1  0
 10 21  1  0
 11 12  1  0
 11 19  1  0
 13 15  1  0
 13 14  1  6
 13 12  1  0
 15 16  1  0
 15 17  1  0
 15 18  1  0
 19 20  2  0
 21 22  2  0
 21 27  1  0
 22 23  1  0
 23 24  2  0
 24 25  1  0
 24 26  1  0
 26 27  2  0
 28 29  1  0
 29 30  1  0
 30 31  2  0
 30 36  1  0
 31 32  1  0
 32 33  1  0
 32 34  2  0
 34 35  1  0
 35 36  2  0
M  END
>  <DRUGBANK_ID>  (1) 
DB16279

>  <COMMON_NAME>  (1) 
Pecavaptan

>  <CAS_NUMBER>  (1) 
1914998-56-3

>  <UNII>  (1) 
44Q500OSL4

>  <SYNONYMS>  (1) 
Pecavaptan

$$$$
