I24
     RDKit          3D

 32 35  0  0  0  0  0  0  0  0999 V2000
   -0.8358    1.4567    0.3158 N   0  0  0  0  0  0  0  0  0  0  0  0
   -1.9204    0.6877    0.3515 C   0  0  0  0  0  0  0  0  0  0  0  0
   -1.8490   -0.6372    0.4704 N   0  0  0  0  0  0  0  0  0  0  0  0
   -0.6612   -1.2662    0.2773 C   0  0  0  0  0  0  0  0  0  0  0  0
    0.3242    0.8042    0.1636 C   0  0  0  0  0  0  0  0  0  0  0  0
    0.4774   -0.5607    0.0863 C   0  0  0  0  0  0  0  0  0  0  0  0
    1.7810   -0.9415   -0.0972 N   0  0  0  0  0  0  0  0  0  0  0  0
    2.4494    0.1704   -0.0487 C   0  0  0  0  0  0  0  0  0  0  0  0
    1.6064    1.2479    0.0153 N   0  0  0  0  0  0  0  0  0  0  0  0
   -0.6373   -2.6266    0.2811 N   0  0  0  0  0  0  0  0  0  0  0  0
   -3.1288    1.3268    0.0627 O   0  0  0  0  0  0  0  0  0  0  0  0
    0.5256   -3.4930    0.1945 C   0  0  0  0  0  0  0  0  0  0  0  0
    0.2929   -4.6262    1.2263 C   0  0  0  0  0  0  0  0  0  0  0  0
   -1.0289   -5.2878    1.0671 N   0  0  0  0  0  0  0  0  0  0  0  0
   -1.1323   -6.7277    1.4070 C   0  0  0  0  0  0  0  0  0  0  0  0
   -0.7167   -7.7119    0.2740 C   0  0  0  0  0  0  0  0  0  0  0  0
   -1.2735   -7.3852   -1.0107 O   0  0  0  0  0  0  0  0  0  0  0  0
   -0.9487   -6.0424   -1.3086 C   0  0  0  0  0  0  0  0  0  0  0  0
   -1.6161   -5.1588   -0.2818 C   0  0  0  0  0  0  0  0  0  0  0  0
   -4.3839    0.6153    0.0244 C   0  0  0  0  0  0  0  0  0  0  0  0
   -4.6638   -0.2237   -1.2452 C   0  0  0  0  0  0  0  0  0  0  0  0
   -3.7038   -1.3832   -1.3852 C   0  0  0  0  0  0  0  0  0  0  0  0
   -3.8555   -2.2830   -0.1576 C   0  0  0  0  0  0  0  0  0  0  0  0
    2.0467    2.6207    0.0008 C   0  0  0  0  0  0  0  0  0  0  0  0
    1.5731    3.3481   -1.2192 C   0  0  0  0  0  0  0  0  0  0  0  0
    0.2232    3.6148   -1.4674 C   0  0  0  0  0  0  0  0  0  0  0  0
   -0.2345    4.2347   -2.6139 C   0  0  0  0  0  0  0  0  0  0  0  0
    0.6865    4.7992   -3.4709 C   0  0  0  0  0  0  0  0  0  0  0  0
    2.0488    4.6390   -3.2129 C   0  0  0  0  0  0  0  0  0  0  0  0
    2.4801    3.8768   -2.1261 C   0  0  0  0  0  0  0  0  0  0  0  0
   -0.6975    3.4690   -0.5205 F   0  0  0  0  0  0  0  0  0  0  0  0
    3.7963    3.7303   -1.9168 F   0  0  0  0  0  0  0  0  0  0  0  0
  1  2  2  0
  1  5  1  0
  2  3  1  0
  2 11  1  0
  3  4  2  0
  4  6  1  0
  4 10  1  0
  5  6  2  0
  5  9  1  0
  6  7  1  0
  7  8  2  0
  8  9  1  0
  9 24  1  0
 10 12  1  0
 11 20  1  0
 12 13  1  0
 13 14  1  0
 14 15  1  0
 14 19  1  0
 15 16  1  0
 16 17  1  0
 17 18  1  0
 18 19  1  0
 20 21  1  0
 21 22  1  0
 22 23  1  0
 24 25  1  0
 25 26  2  0
 25 30  1  0
 26 27  1  0
 26 31  1  0
 27 28  2  0
 28 29  1  0
 29 30  2  0
 30 32  1  0
M  END
>  <DRUGBANK_ID>  (1) 
DB07937

>  <COMMON_NAME>  (1) 
2-butoxy-9-(2,6-difluorobenzyl)-N-(2-morpholin-4-ylethyl)-9H-purin-6-amine

$$$$
