
     RDKit          3D

 39 42  0  0  1  0  0  0  0  0999 V2000
    4.5173   -1.0698    0.4771 O   0  0  0  0  0  0  0  0  0  0  0  0
   -6.3192   -0.4305   -0.2026 O   0  0  0  0  0  0  0  0  0  0  0  0
   -6.6798   -2.7282    0.2309 O   0  0  0  0  0  0  0  0  0  0  0  0
    1.5907    0.7438    0.2796 C   0  0  2  0  0  0  0  0  0  0  0  0
    2.2853   -0.5083   -0.3001 C   0  0  2  0  0  0  0  0  0  0  0  0
    0.1275    0.8269   -0.1604 C   0  0  1  0  0  0  0  0  0  0  0  0
   -0.5917   -0.4374    0.3821 C   0  0  2  0  0  0  0  0  0  0  0  0
    1.6051   -1.7541    0.2479 C   0  0  0  0  0  0  0  0  0  0  0  0
    2.5530    1.8812   -0.0466 C   0  0  0  0  0  0  0  0  0  0  0  0
    0.1096   -1.7381   -0.0923 C   0  0  0  0  0  0  0  0  0  0  0  0
   -0.5908    2.0662    0.3796 C   0  0  0  0  0  0  0  0  0  0  0  0
    3.6832   -0.2190    0.2011 C   0  0  0  0  0  0  0  0  0  0  0  0
    3.9330    1.2777    0.2727 C   0  0  0  0  0  0  0  0  0  0  0  0
    2.3694   -0.5675   -1.8356 C   0  0  0  0  0  0  0  0  0  0  0  0
   -2.0857   -0.3891    0.1295 C   0  0  0  0  0  0  0  0  0  0  0  0
   -2.0240    2.1325   -0.1645 C   0  0  0  0  0  0  0  0  0  0  0  0
   -2.7833    0.8261   -0.0495 C   0  0  0  0  0  0  0  0  0  0  0  0
   -2.8146   -1.5730    0.2002 C   0  0  0  0  0  0  0  0  0  0  0  0
   -4.1989    0.8105   -0.1748 C   0  0  0  0  0  0  0  0  0  0  0  0
   -4.1890   -1.5785    0.0831 C   0  0  0  0  0  0  0  0  0  0  0  0
   -4.8987   -0.4057   -0.0994 C   0  0  0  0  0  0  0  0  0  0  0  0
   -7.0926   -1.5843    0.0366 C   0  0  0  0  0  0  0  0  0  0  0  0
   -8.5710   -1.3361    0.0428 C   0  0  0  0  0  0  0  0  0  0  0  0
   -9.0016   -0.4626    1.2111 C   0  0  0  0  0  0  0  0  0  0  0  0
   -8.4957    0.9676    1.0483 C   0  0  0  0  0  0  0  0  0  0  0  0
   -8.9531    1.5448   -0.2972 C   0  0  0  0  0  0  0  0  0  0  0  0
  -10.4838    1.6189   -0.3528 C   0  0  0  0  0  0  0  0  0  0  0  0
  -11.0035    2.5084    0.7726 C   0  0  0  0  0  0  0  0  0  0  0  0
  -10.3550    3.8804    0.6941 C   0  0  0  0  0  0  0  0  0  0  0  0
  -11.8729    8.5667   -0.5413 C   0  0  0  0  0  0  0  0  0  0  0  0
  -13.3956    8.6629   -0.3859 C   0  0  0  0  0  0  0  0  0  0  0  0
  -11.2738    7.7540    0.6031 C   0  0  0  0  0  0  0  0  0  0  0  0
  -13.7642    9.3470    0.9364 C   0  0  0  0  0  0  0  0  0  0  0  0
  -11.9189    6.3797    0.6647 C   0  0  0  0  0  0  0  0  0  0  0  0
  -10.7985    4.5437   -0.5690 C   0  0  0  0  0  0  0  0  0  0  0  0
  -13.2126   10.7756    0.9810 C   0  0  0  0  0  0  0  0  0  0  0  0
  -11.5648    5.6296   -0.5783 C   0  0  0  0  0  0  0  0  0  0  0  0
  -13.7460   11.6153   -0.1809 C   0  0  0  0  0  0  0  0  0  0  0  0
  -15.2624   11.7048   -0.1206 C   0  0  0  0  0  0  0  0  0  0  0  0
  1 12  2  0
  2 21  1  0
  2 22  1  0
  3 22  2  0
  4  5  1  0
  4  6  1  0
  4  9  1  6
  5  8  1  0
  5 12  1  0
  5 14  1  6
  6  7  1  0
  6 11  1  1
  7 10  1  6
  7 15  1  0
  8 10  1  0
  9 13  1  0
 11 16  1  0
 12 13  1  0
 15 17  2  0
 15 18  1  0
 16 17  1  0
 17 19  1  0
 18 20  2  0
 19 21  2  0
 20 21  1  0
 22 23  1  0
 23 24  1  0
 24 25  1  0
 25 26  1  0
 26 27  1  0
 27 28  1  0
 28 29  1  0
 29 35  1  0
 30 31  1  0
 30 32  1  0
 31 33  1  0
 32 34  1  0
 33 36  1  0
 34 37  1  0
 35 37  2  0
 36 38  1  0
 38 39  1  0
M  END
>  <DRUGBANK_ID>  (1) 
DB04870

>  <COMMON_NAME>  (1) 
Oleoyl-estrone

>  <CAS_NUMBER>  (1) 
180003-17-2

>  <UNII>  (1) 
64R56KMG1Z

>  <SYNONYMS>  (1) 
Estrone 3-oleate; Estrone monooleate; Estrone oleic acid ester; OE; Oleoyl estrone; Oleoylestrone

$$$$
