MHR
     RDKit          3D

 20 22  0  0  0  0  0  0  0  0999 V2000
   -2.0235   -0.6227   -0.5048 C   0  0  0  0  0  0  0  0  0  0  0  0
   -1.9168    0.7385   -0.2628 C   0  0  0  0  0  0  0  0  0  0  0  0
   -0.9378   -1.4528   -0.2357 C   0  0  0  0  0  0  0  0  0  0  0  0
    2.2379   -2.5568   -0.0565 C   0  0  0  0  0  0  0  0  0  0  0  0
    4.2589   -4.6518    1.9335 N   0  0  0  0  0  0  0  0  0  0  0  0
    3.4842   -4.2051    0.9100 C   0  0  0  0  0  0  0  0  0  0  0  0
    3.2392   -5.0689   -0.0847 N   0  0  0  0  0  0  0  0  0  0  0  0
    2.4684   -4.6279   -1.0894 C   0  0  0  0  0  0  0  0  0  0  0  0
    1.9321   -3.3665   -1.1310 C   0  0  0  0  0  0  0  0  0  0  0  0
    3.0248   -2.9488    0.9637 N   0  0  0  0  0  0  0  0  0  0  0  0
    1.6759   -1.2166    0.0225 C   0  0  0  0  0  0  0  0  0  0  0  0
    2.4397   -0.0615    0.0735 C   0  0  0  0  0  0  0  0  0  0  0  0
    1.5881    1.0155    0.0662 N   0  0  0  0  0  0  0  0  0  0  0  0
    0.2962    0.5779   -0.0086 C   0  0  0  0  0  0  0  0  0  0  0  0
   -0.7705    1.3965   -0.0139 N   0  0  0  0  0  0  0  0  0  0  0  0
    0.3074   -0.8101   -0.0859 C   0  0  0  0  0  0  0  0  0  0  0  0
   -1.0137   -2.8075   -0.0573 O   0  0  0  0  0  0  0  0  0  0  0  0
   -2.2970   -3.4334    0.0688 C   0  0  0  0  0  0  0  0  0  0  0  0
   -3.0554   -3.2020    1.3942 C   0  0  0  0  0  0  0  0  0  0  0  0
   -3.4918   -1.7757    1.6914 C   0  0  0  0  0  0  0  0  0  0  0  0
  1  2  2  0
  1  3  1  0
  2 15  1  0
  3 16  2  0
  3 17  1  0
  4  9  1  0
  4 10  2  0
  4 11  1  0
  5  6  1  0
  6  7  2  0
  6 10  1  0
  7  8  1  0
  8  9  2  0
 11 12  2  0
 11 16  1  0
 12 13  1  0
 13 14  1  0
 14 15  2  0
 14 16  1  0
 17 18  1  0
 18 19  1  0
 19 20  1  0
M  END
>  <DRUGBANK_ID>  (1) 
DB08182

>  <COMMON_NAME>  (1) 
4-(4-propoxy-1H-pyrrolo[2,3-b]pyridin-3-yl)pyrimidin-2-amine

>  <UNII>  (1) 
7A6FRA2U0Z

$$$$
