
     RDKit          3D

 34 38  0  0  0  0  0  0  0  0999 V2000
    1.0516    0.1458    0.1816 O   0  0  0  0  0  0  0  0  0  0  0  0
    2.5856   -3.2759    5.9064 O   0  0  0  0  0  0  0  0  0  0  0  0
    7.0125    3.8029   -1.1275 O   0  0  0  0  0  0  0  0  0  0  0  0
   -2.1723    5.2796    0.6635 O   0  0  0  0  0  0  0  0  0  0  0  0
    3.0335   -1.1043    0.0473 N   0  0  0  0  0  0  0  0  0  0  0  0
    2.1665   -4.8276    4.2447 N   0  0  0  0  0  0  0  0  0  0  0  0
    2.8663    2.6986   -0.2297 N   0  0  0  0  0  0  0  0  0  0  0  0
    4.0439    3.3799   -0.5813 N   0  0  0  0  0  0  0  0  0  0  0  0
    7.3698    1.6031   -1.1017 N   0  0  0  0  0  0  0  0  0  0  0  0
    5.1266   -0.1253   -0.6846 C   0  0  0  0  0  0  0  0  0  0  0  0
    4.1499   -1.2405   -0.8645 C   0  0  0  0  0  0  0  0  0  0  0  0
    4.4541    1.1760   -0.5371 C   0  0  0  0  0  0  0  0  0  0  0  0
    3.1100    1.3100   -0.2178 C   0  0  0  0  0  0  0  0  0  0  0  0
    1.9493   -6.2197    3.8345 C   0  0  0  0  0  0  0  0  0  0  0  0
    1.3910   -7.0996    4.9399 C   0  0  0  0  0  0  0  0  0  0  0  0
    2.2485   -6.9436    6.1786 C   0  0  0  0  0  0  0  0  0  0  0  0
    2.2357   -5.5013    6.6469 C   0  0  0  0  0  0  0  0  0  0  0  0
    2.2757    0.1181    0.0169 C   0  0  0  0  0  0  0  0  0  0  0  0
    2.8694   -2.1012    1.0513 C   0  0  0  0  0  0  0  0  0  0  0  0
    2.4289   -3.9052    3.1871 C   0  0  0  0  0  0  0  0  0  0  0  0
    2.3797   -4.4434    5.5639 C   0  0  0  0  0  0  0  0  0  0  0  0
    5.0303    2.4473   -0.6861 C   0  0  0  0  0  0  0  0  0  0  0  0
    3.9023   -2.4084    1.9619 C   0  0  0  0  0  0  0  0  0  0  0  0
    1.6596   -2.7733    1.1704 C   0  0  0  0  0  0  0  0  0  0  0  0
    3.6693   -3.2756    3.0480 C   0  0  0  0  0  0  0  0  0  0  0  0
    1.4337   -3.6475    2.2413 C   0  0  0  0  0  0  0  0  0  0  0  0
    1.6237    3.4370    0.0228 C   0  0  0  0  0  0  0  0  0  0  0  0
    6.5025    2.6922   -0.9806 C   0  0  0  0  0  0  0  0  0  0  0  0
    1.1191    4.3731   -0.9057 C   0  0  0  0  0  0  0  0  0  0  0  0
    0.8460    3.2228    1.1723 C   0  0  0  0  0  0  0  0  0  0  0  0
   -0.1615    4.9858   -0.7394 C   0  0  0  0  0  0  0  0  0  0  0  0
   -0.4284    3.8417    1.3333 C   0  0  0  0  0  0  0  0  0  0  0  0
   -0.9434    4.7323    0.3845 C   0  0  0  0  0  0  0  0  0  0  0  0
   -2.6903    6.2677   -0.2315 C   0  0  0  0  0  0  0  0  0  0  0  0
  1 18  2  0
  2 21  2  0
  3 28  2  0
  4 33  1  0
  4 34  1  0
  5 11  1  0
  5 18  1  0
  5 19  1  0
  6 14  1  0
  6 20  1  0
  6 21  1  0
  7  8  1  0
  7 13  1  0
  7 27  1  0
  8 22  2  0
  9 28  1  0
 10 11  1  0
 10 12  1  0
 12 13  2  0
 12 22  1  0
 13 18  1  0
 14 15  1  0
 15 16  1  0
 16 17  1  0
 17 21  1  0
 19 23  2  0
 19 24  1  0
 20 25  2  0
 20 26  1  0
 22 28  1  0
 23 25  1  0
 24 26  2  0
 27 29  2  0
 27 30  1  0
 29 31  1  0
 30 32  2  0
 31 33  2  0
 32 33  1  0
M  END
>  <DRUGBANK_ID>  (1) 
DB06605

>  <SECONDARY_ACCESSION_NUMBERS>  (1) 
DB07828

>  <COMMON_NAME>  (1) 
Apixaban

>  <CAS_NUMBER>  (1) 
503612-47-3

>  <UNII>  (1) 
3Z9Y7UWC1J

>  <SYNONYMS>  (1) 
apixab√°n; Apixaban; apixabanum

$$$$
