124
     RDKit          3D

 19 21  0  0  0  0  0  0  0  0999 V2000
    2.2022   -0.7235   -0.0162 C   0  0  0  0  0  0  0  0  0  0  0  0
    2.1307    0.6855   -0.0261 C   0  0  0  0  0  0  0  0  0  0  0  0
    0.9111    1.3901    0.0006 C   0  0  0  0  0  0  0  0  0  0  0  0
   -0.2660    0.6398    0.0110 C   0  0  0  0  0  0  0  0  0  0  0  0
   -0.2476   -0.7494    0.0189 C   0  0  0  0  0  0  0  0  0  0  0  0
    0.9850   -1.4267    0.0207 C   0  0  0  0  0  0  0  0  0  0  0  0
    3.4978   -1.4572   -0.0537 C   0  0  0  0  0  0  0  0  0  0  0  0
    3.5351   -2.7789   -0.0439 N   0  0  0  0  0  0  0  0  0  0  0  0
    4.6415   -0.8091   -0.1021 N   0  0  0  0  0  0  0  0  0  0  0  0
   -1.5932    1.0239    0.0135 N   0  0  0  0  0  0  0  0  0  0  0  0
   -1.5882   -1.1941    0.0028 C   0  0  0  0  0  0  0  0  0  0  0  0
   -2.4087   -0.0870   -0.0525 C   0  0  0  0  0  0  0  0  0  0  0  0
   -3.8652   -0.0451   -0.1505 C   0  0  0  0  0  0  0  0  0  0  0  0
   -4.6270   -0.7037    0.8278 C   0  0  0  0  0  0  0  0  0  0  0  0
   -6.0211   -0.7370    0.7462 C   0  0  0  0  0  0  0  0  0  0  0  0
   -6.6697   -0.1184   -0.3198 C   0  0  0  0  0  0  0  0  0  0  0  0
   -5.9257    0.5263   -1.3074 C   0  0  0  0  0  0  0  0  0  0  0  0
   -4.5343    0.5589   -1.2246 C   0  0  0  0  0  0  0  0  0  0  0  0
   -3.8828    1.1790   -2.2568 O   0  0  0  0  0  0  0  0  0  0  0  0
  1  2  2  0
  1  6  1  0
  1  7  1  0
  2  3  1  0
  3  4  2  0
  4  5  1  0
  4 10  1  0
  5  6  2  0
  5 11  1  0
  7  8  1  0
  7  9  2  0
 10 12  1  0
 11 12  2  0
 12 13  1  0
 13 14  2  0
 13 18  1  0
 14 15  1  0
 15 16  2  0
 16 17  1  0
 17 18  2  0
 18 19  1  0
M  CHG  1   9   1
M  END
>  <DRUGBANK_ID>  (1) 
DB02463

>  <SECONDARY_ACCESSION_NUMBERS>  (1) 
EXPT00018

>  <COMMON_NAME>  (1) 
2-(2-Hydroxy-Phenyl)-1h-Indole-5-Carboxamidine

$$$$
