
     RDKit          3D

 22 23  0  0  0  0  0  0  0  0999 V2000
    0.9783    0.0118    0.0987 C   0  0  0  0  0  0  0  0  0  0  0  0
    0.9559   -1.4342   -1.9429 C   0  0  0  0  0  0  0  0  0  0  0  0
   -1.0802   -0.1073   -1.3489 C   0  0  0  0  0  0  0  0  0  0  0  0
    4.1784    5.6119   -7.0493 C   0  0  0  0  0  0  0  0  0  0  0  0
    1.8871    5.2843   -8.1229 C   0  0  0  0  0  0  0  0  0  0  0  0
    2.2584    6.9385   -6.4337 C   0  0  0  0  0  0  0  0  0  0  0  0
    2.4817    2.0104   -5.3892 C   0  0  0  0  0  0  0  0  0  0  0  0
    0.5720    2.3283   -1.7009 C   0  0  0  0  0  0  0  0  0  0  0  0
    0.8278    3.4482   -2.4453 C   0  0  0  0  0  0  0  0  0  0  0  0
    2.7020    3.1351   -6.1730 C   0  0  0  0  0  0  0  0  0  0  0  0
    1.6247    1.0060   -3.3785 C   0  0  0  0  0  0  0  0  0  0  0  0
    1.8742    2.1539   -4.1480 C   0  0  0  0  0  0  0  0  0  0  0  0
    0.9344    1.0801   -2.1624 C   0  0  0  0  0  0  0  0  0  0  0  0
    1.4773    3.4371   -3.6792 C   0  0  0  0  0  0  0  0  0  0  0  0
    2.3350    4.4572   -5.7548 C   0  0  0  0  0  0  0  0  0  0  0  0
    1.7167    4.6085   -4.4581 C   0  0  0  0  0  0  0  0  0  0  0  0
    0.4652   -0.1114   -1.3500 C   0  0  0  0  0  0  0  0  0  0  0  0
    2.6576    5.5387   -6.8129 C   0  0  0  0  0  0  0  0  0  0  0  0
    2.4896    7.1510   -3.6320 O   0  0  0  0  0  0  0  0  0  0  0  0
    0.1618    6.8277   -4.5625 O   0  0  0  0  0  0  0  0  0  0  0  0
    0.8435    6.1478   -2.2884 O   0  0  0  0  0  0  0  0  0  0  0  0
    1.1610    6.2379   -3.6878 S   0  0  0  0  0  0  0  0  0  0  0  0
  9  8  1  0
 10  7  2  0
 12  7  1  0
 12 11  2  0
 13  8  2  0
 13 11  1  0
 14  9  2  0
 14 12  1  0
 15 10  1  0
 16 14  1  0
 16 15  2  0
 17  1  1  0
 17  2  1  0
 17  3  1  0
 17 13  1  0
 18  4  1  0
 18  5  1  0
 18  6  1  0
 18 15  1  0
 22 16  1  0
 22 19  1  0
 22 20  2  0
 22 21  2  0
M  END
>  <DRUGBANK_ID>  (1) 
DB13796

>  <COMMON_NAME>  (1) 
Dibunate

>  <CAS_NUMBER>  (1) 
14992-58-6

>  <UNII>  (1) 
ZXY319VL5S

>  <SYNONYMS>  (1) 
Dibunate

$$$$
