
     RDKit          3D

  9  8  0  0  1  0  0  0  0  0999 V2000
    1.0499   -0.0865   -0.0061 C   0  0  0  0  0  0  0  0  0  0  0  0
    0.3965    0.4976    1.7470 Se  0  0  0  0  0  2  0  0  0  0  0  0
    1.0499   -0.7286    3.1295 C   0  0  0  0  0  0  0  0  0  0  0  0
    0.5432   -2.1326    2.8419 C   0  0  0  0  0  0  0  0  0  0  0  0
    1.0499   -2.5855    1.4823 C   0  0  1  0  0  0  0  0  0  0  0  0
    2.5699   -2.5855    1.4823 C   0  0  0  0  0  0  0  0  0  0  0  0
    3.2053   -3.6638    1.2615 O   0  0  0  0  0  0  0  0  0  0  0  0
    3.2799   -1.3808    1.7291 O   0  0  0  0  0  0  0  0  0  0  0  0
    0.5599   -3.9433    1.2043 N   0  0  0  0  0  0  0  0  0  0  0  0
  1  2  1  0
  2  3  1  0
  3  4  1  0
  4  5  1  0
  5  6  1  0
  5  9  1  1
  6  7  2  0
  6  8  1  0
M  ISO  1   2  75
M  END
>  <DRUGBANK_ID>  (1) 
DB09400

>  <COMMON_NAME>  (1) 
Selenomethionine Se-75

>  <CAS_NUMBER>  (1) 
1187-56-0

>  <UNII>  (1) 
P6708E7555

>  <SYNONYMS>  (1) 
Selenomethionine (75 Se); Selenomethionine (75Se); Selenomethionine Se 75; Selenometionina (75 Se)

$$$$
