
     RDKit          3D

 18 20  0  0  0  0  0  0  0  0999 V2000
    0.8339   -0.1543   -0.3955 C   0  0  0  0  0  0  0  0  0  0  0  0
   -1.0809    4.9662   -2.7498 C   0  0  0  0  0  0  0  0  0  0  0  0
   -0.1996    5.5775   -1.8572 C   0  0  0  0  0  0  0  0  0  0  0  0
   -1.2349    3.5793   -2.7527 C   0  0  0  0  0  0  0  0  0  0  0  0
    0.5457    4.8304   -0.9324 C   0  0  0  0  0  0  0  0  0  0  0  0
    1.2941    0.6977    2.5259 C   0  0  0  0  0  0  0  0  0  0  0  0
    1.0440    2.9733    3.2164 C   0  0  0  0  0  0  0  0  0  0  0  0
    0.7204    0.2382    3.7071 C   0  0  0  0  0  0  0  0  0  0  0  0
    0.5207    2.5199    4.4370 C   0  0  0  0  0  0  0  0  0  0  0  0
    1.9040    2.5280    0.8621 C   0  0  0  0  0  0  0  0  0  0  0  0
    0.4432    1.2185   -0.7842 C   0  0  0  0  0  0  0  0  0  0  0  0
    1.4021    2.0596    2.2154 C   0  0  0  0  0  0  0  0  0  0  0  0
    0.3559    1.1582    4.6758 C   0  0  0  0  0  0  0  0  0  0  0  0
   -0.4830    2.8176   -1.8509 C   0  0  0  0  0  0  0  0  0  0  0  0
    0.3795    3.4371   -0.9491 C   0  0  0  0  0  0  0  0  0  0  0  0
   -0.2037    0.5917    6.1979 Cl  0  0  0  0  0  0  0  0  0  0  0  0
   -0.4401    1.4620   -1.7208 N   0  0  0  0  0  0  0  0  0  0  0  0
    0.9208    2.3924   -0.2169 N   0  0  0  0  0  0  0  0  0  0  0  0
  3  2  2  0
  4  2  1  0
  5  3  1  0
  8  6  2  0
  9  7  1  0
 11  1  1  0
 12  6  1  0
 12  7  2  0
 12 10  1  0
 13  8  1  0
 13  9  2  0
 14  4  2  0
 15  5  2  0
 15 14  1  0
 16 13  1  0
 17 11  2  0
 17 14  1  0
 18 10  1  0
 18 11  1  0
 18 15  1  0
M  END
>  <DRUGBANK_ID>  (1) 
DB13611

>  <COMMON_NAME>  (1) 
Chlormidazole

>  <CAS_NUMBER>  (1) 
3689-76-7

>  <UNII>  (1) 
8IKK64FJVX

>  <SYNONYMS>  (1) 
Chlormidazole

$$$$
