
     RDKit          3D

 27 30  0  0  1  0  0  0  0  0999 V2000
    0.9805   -0.2501   -0.1931 C   0  0  0  0  0  0  0  0  0  0  0  0
    0.4777    0.5823    1.0132 C   0  0  0  0  0  0  0  0  0  0  0  0
   -0.2497    1.8423    0.4029 C   0  0  0  0  0  0  0  0  0  0  0  0
    0.2365    3.2509    0.8467 C   0  0  0  0  0  0  0  0  0  0  0  0
    1.4168    3.2878    1.8490 C   0  0  1  0  0  0  0  0  0  0  0  0
    1.0284    3.4181    3.3532 C   0  0  0  0  0  0  0  0  0  0  0  0
    0.8716    2.1045    4.1612 C   0  0  2  0  0  0  0  0  0  0  0  0
    1.4360    0.8450    3.4980 C   0  0  0  0  0  0  0  0  0  0  0  0
    1.6933    0.9198    1.9642 C   0  0  2  0  0  0  0  0  0  0  0  0
    2.3694    2.1898    1.6250 N   0  0  0  0  0  0  0  0  0  0  0  0
    2.8690    2.2205    0.2408 C   0  0  0  0  0  0  0  0  0  0  0  0
   -0.4991    1.8353    4.6428 O   0  0  0  0  0  0  0  0  0  0  0  0
   -1.4213    1.9028    3.6660 C   0  0  0  0  0  0  0  0  0  0  0  0
   -1.1206    2.3496    2.5702 O   0  0  0  0  0  0  0  0  0  0  0  0
   -2.8694    1.5232    3.8070 C   0  0  0  0  0  0  0  0  0  0  0  0
   -2.9624    0.1847    4.4927 C   0  0  0  0  0  0  0  0  0  0  0  0
   -2.8127   -1.0788    3.9289 C   0  0  0  0  0  0  0  0  0  0  0  0
   -2.8449   -2.1219    4.8898 C   0  0  0  0  0  0  0  0  0  0  0  0
   -3.1343   -1.6396    6.1402 C   0  0  0  0  0  0  0  0  0  0  0  0
   -3.1186    0.0521    6.1936 S   0  0  0  0  0  0  0  0  0  0  0  0
   -3.5001    2.7612    4.3784 C   0  0  0  0  0  0  0  0  0  0  0  0
   -4.4267    2.8592    5.3832 C   0  0  0  0  0  0  0  0  0  0  0  0
   -4.4752    4.1588    5.9342 C   0  0  0  0  0  0  0  0  0  0  0  0
   -3.7617    5.0728    5.1987 C   0  0  0  0  0  0  0  0  0  0  0  0
   -3.0382    4.3538    3.8430 S   0  0  0  0  0  0  0  0  0  0  0  0
   -3.4616    1.3320    2.4989 O   0  0  0  0  0  0  0  0  0  0  0  0
   -0.5250   -0.3402    1.7310 C   0  0  0  0  0  0  0  0  0  0  0  0
  1  2  1  0
  2  3  1  0
  2  9  1  0
  2 27  1  0
  3  4  1  0
  5  4  1  6
  5  6  1  0
  5 10  1  0
  6  7  1  0
  7  8  1  0
  7 12  1  6
  9  8  1  1
  9 10  1  0
 10 11  1  0
 12 13  1  0
 13 14  2  0
 13 15  1  0
 15 16  1  0
 15 21  1  0
 15 26  1  0
 16 17  2  0
 16 20  1  0
 17 18  1  0
 18 19  2  0
 19 20  1  0
 21 22  2  0
 21 25  1  0
 22 23  1  0
 23 24  2  0
 24 25  1  0
M  END
>  <DRUGBANK_ID>  (1) 
DB13448

>  <COMMON_NAME>  (1) 
Mazaticol

>  <CAS_NUMBER>  (1) 
42024-98-6

>  <UNII>  (1) 
I6X824OGWZ

>  <SYNONYMS>  (1) 
Mazaticol

$$$$
