
     RDKit          3D

 27 28  0  0  0  0  0  0  0  0999 V2000
    0.6275    4.9222    0.6470 C   0  0  1  0  0  0  0  0  0  0  0  0
   -0.8126    4.4989    0.2304 C   0  0  2  0  0  0  0  0  0  0  0  0
    0.6578    6.0057    1.5993 O   0  0  0  0  0  0  0  0  0  0  0  0
    1.4283    3.7281    1.2154 C   0  0  1  0  0  0  0  0  0  0  0  0
   -0.8162    3.1639   -0.4050 N   0  0  0  0  0  0  0  0  0  0  0  0
   -1.4426    5.5465   -0.7360 C   0  0  1  0  0  0  0  0  0  0  0  0
    2.0055    6.4908    1.8171 C   0  0  1  0  0  0  0  0  0  0  0  0
    2.8724    4.1431    1.4403 C   0  0  1  0  0  0  0  0  0  0  0  0
    0.8404    3.2308    2.4296 O   0  0  0  0  0  0  0  0  0  0  0  0
    0.1136    2.8624   -1.3763 C   0  0  0  0  0  0  0  0  0  0  0  0
   -2.8688    5.1525   -1.1059 C   0  0  0  0  0  0  0  0  0  0  0  0
   -1.4779    6.8624   -0.1867 O   0  0  0  0  0  0  0  0  0  0  0  0
    2.9058    5.3548    2.3795 C   0  0  1  0  0  0  0  0  0  0  0  0
    2.8459    7.1692    0.3059 S   0  0  0  0  0  0  0  0  0  0  0  0
    3.6215    3.0405    1.9602 O   0  0  0  0  0  0  0  0  0  0  0  0
    0.1021    1.4406   -1.9505 C   0  0  2  0  0  0  0  0  0  0  0  0
    0.9651    3.7005   -1.7016 O   0  0  0  0  0  0  0  0  0  0  0  0
    4.2508    5.7987    2.5748 O   0  0  0  0  0  0  0  0  0  0  0  0
    1.9569    8.7051    0.0389 C   0  0  0  0  0  0  0  0  0  0  0  0
    1.0449    0.5188   -1.1836 C   0  0  0  0  0  0  0  0  0  0  0  0
    0.6683    1.3885   -3.3178 N   0  0  0  0  0  0  0  0  0  0  0  0
    2.3818    0.6222   -1.9345 C   0  0  2  0  0  0  0  0  0  0  0  0
    2.1189    1.4945   -3.1562 C   0  0  0  0  0  0  0  0  0  0  0  0
    0.1434    2.4154   -4.2048 C   0  0  0  0  0  0  0  0  0  0  0  0
    2.9563   -0.7498   -2.3194 C   0  0  0  0  0  0  0  0  0  0  0  0
    4.4243   -0.8157   -1.9067 C   0  0  0  0  0  0  0  0  0  0  0  0
    4.5714   -0.7327   -0.3900 C   0  0  0  0  0  0  0  0  0  0  0  0
  1  3  1  1
  1  4  1  0
  2  6  1  0
  2  5  1  6
  2  1  1  0
  3  7  1  0
  4  8  1  0
  4  9  1  1
  5 10  1  0
  6 11  1  1
  6 12  1  0
  7 13  1  0
  7 14  1  6
  8 15  1  1
  8 13  1  0
 10 17  2  0
 13 18  1  6
 14 19  1  0
 16 20  1  0
 16 21  1  0
 16 10  1  1
 20 22  1  0
 21 23  1  0
 21 24  1  0
 22 23  1  0
 22 25  1  6
 25 26  1  0
 26 27  1  0
M  END
>  <DRUGBANK_ID>  (1) 
DB01627

>  <COMMON_NAME>  (1) 
Lincomycin

>  <CAS_NUMBER>  (1) 
154-21-2

>  <UNII>  (1) 
BOD072YW0F

>  <SYNONYMS>  (1) 
Cillimycin; LCM; Lincomicina; Lincomycin; Lincomycine; Lincomycinum

$$$$
