
     RDKit          3D

 30 33  0  0  1  0  0  0  0  0999 V2000
    0.9561    2.5823   -0.3411 C   0  0  0  0  0  0  0  0  0  0  0  0
    0.5067    1.3338    0.4577 C   0  0  2  0  0  0  0  0  0  0  0  0
    1.0950    0.2258   -0.2558 N   0  0  0  0  0  0  0  0  0  0  0  0
    2.4471    0.0588   -0.4472 C   0  0  0  0  0  0  0  0  0  0  0  0
    3.3086    0.6173    0.4145 N   0  0  0  0  0  0  0  0  0  0  0  0
    4.6003    0.5142    0.0860 C   0  0  0  0  0  0  0  0  0  0  0  0
    5.0900   -0.0760   -1.0186 N   0  0  0  0  0  0  0  0  0  0  0  0
    4.1969   -0.6237   -1.8603 C   0  0  0  0  0  0  0  0  0  0  0  0
    4.6865   -1.2231   -3.0017 N   0  0  0  0  0  0  0  0  0  0  0  0
    2.8483   -0.5927   -1.6015 C   0  0  0  0  0  0  0  0  0  0  0  0
    1.9028   -1.1395   -2.5220 C   0  0  0  0  0  0  0  0  0  0  0  0
    1.1561   -1.6007   -3.2838 N   0  0  0  0  0  0  0  0  0  0  0  0
   -1.0667    1.2638    0.5196 C   0  0  0  0  0  0  0  0  0  0  0  0
   -1.6280    2.4253    0.5471 N   0  0  0  0  0  0  0  0  0  0  0  0
   -2.9469    2.4674    0.5231 N   0  0  0  0  0  0  0  0  0  0  0  0
   -3.5723    3.6575    0.4920 C   0  0  0  0  0  0  0  0  0  0  0  0
   -4.8904    3.4050    0.4485 C   0  0  0  0  0  0  0  0  0  0  0  0
   -5.1177    2.0171    0.4770 C   0  0  0  0  0  0  0  0  0  0  0  0
   -6.5370    1.8484    0.5242 C   0  0  0  0  0  0  0  0  0  0  0  0
   -7.6041    2.3485    0.5830 N   0  0  0  0  0  0  0  0  0  0  0  0
   -3.8445    1.4171    0.4962 C   0  0  0  0  0  0  0  0  0  0  0  0
   -3.2470    0.0967    0.5159 C   0  0  0  0  0  0  0  0  0  0  0  0
   -3.9189   -0.9322    0.4937 O   0  0  0  0  0  0  0  0  0  0  0  0
   -1.8130    0.0885    0.5657 N   0  0  0  0  0  0  0  0  0  0  0  0
   -1.1861   -1.1882    0.6165 C   0  0  0  0  0  0  0  0  0  0  0  0
   -0.2618   -1.4984    1.6292 C   0  0  0  0  0  0  0  0  0  0  0  0
    0.4903   -2.6726    1.5509 C   0  0  0  0  0  0  0  0  0  0  0  0
    0.3213   -3.5408    0.4717 C   0  0  0  0  0  0  0  0  0  0  0  0
   -0.5767   -3.2290   -0.5478 C   0  0  0  0  0  0  0  0  0  0  0  0
   -1.3256   -2.0548   -0.4820 C   0  0  0  0  0  0  0  0  0  0  0  0
  2 13  1  0
  2  3  1  0
  2  1  1  6
  3  4  1  0
  4  5  2  0
  4 10  1  0
  5  6  1  0
  6  7  2  0
  7  8  1  0
  8  9  1  0
  8 10  2  0
 10 11  1  0
 11 12  3  0
 13 14  2  0
 13 24  1  0
 14 15  1  0
 15 16  1  0
 15 21  1  0
 16 17  2  0
 17 18  1  0
 18 19  1  0
 18 21  2  0
 19 20  3  0
 21 22  1  0
 22 23  2  0
 22 24  1  0
 24 25  1  0
 25 26  2  0
 25 30  1  0
 26 27  1  0
 27 28  2  0
 28 29  1  0
 29 30  2  0
M  END
>  <DRUGBANK_ID>  (1) 
DB17816

>  <COMMON_NAME>  (1) 
LAS-191954

>  <CAS_NUMBER>  (1) 
1403947-26-1

>  <UNII>  (1) 
1MK0TQ597B

>  <SYNONYMS>  (1) 
2-((1s)-1-((6-amino-5-cyano-4-pyrimidinyl)amino)ethyl)-3,4-dihydro-4-oxo-3-phenylpyrrolo(2,1-f)(1,2,4)triazine-5-carbonitrile; Pyrrolo(2,1-f)(1,2,4)triazine-5-carbonitrile, 2-((1s)-1-((6-amino-5-cyano-4-pyrimidinyl)amino)ethyl)-3,4-dihydro-4-oxo-3-phenyl-

$$$$
