
     RDKit          3D

  4  3  0  0  0  0  0  0  0  0999 V2000
    0.9963    0.0840    0.0541 Mo  0  0  0  0  0  6  0  0  0  0  0  0
    0.0118    1.6094   -0.7082 O   0  0  0  0  0  0  0  0  0  0  0  0
    0.0118   -1.4413    0.8164 O   0  0  0  0  0  0  0  0  0  0  0  0
    2.9653    0.0840    0.0541 O   0  0  0  0  0  0  0  0  0  0  0  0
  1  2  2  0
  1  3  2  0
  1  4  2  0
M  END
>  <DRUGBANK_ID>  (1) 
DB15924

>  <COMMON_NAME>  (1) 
Molybdenum trioxide

>  <CAS_NUMBER>  (1) 
1313-27-5

>  <UNII>  (1) 
22FQ3F03YS

$$$$
