
     RDKit          3D

 37 41  0  0  0  0  0  0  0  0999 V2000
   -9.9093    6.8681    9.2728 C   0  0  0  0  0  0  0  0  0  0  0  0
   -8.5392    6.8164    8.7334 C   0  0  0  0  0  0  0  0  0  0  0  0
   -7.5006    7.7281    8.9655 C   0  0  0  0  0  0  0  0  0  0  0  0
   -6.2076    7.4299    8.4562 C   0  0  0  0  0  0  0  0  0  0  0  0
   -5.9321    6.2664    7.7225 C   0  0  0  0  0  0  0  0  0  0  0  0
   -7.0062    5.4080    7.4864 C   0  0  0  0  0  0  0  0  0  0  0  0
   -8.2804    5.6596    7.9923 C   0  0  0  0  0  0  0  0  0  0  0  0
  -10.3257    6.0468   10.0840 O   0  0  0  0  0  0  0  0  0  0  0  0
  -10.6870    7.8065    8.7045 O   0  0  0  0  0  0  0  0  0  0  0  0
   -7.5032    8.9038    9.6629 O   0  0  0  0  0  0  0  0  0  0  0  0
   -8.7165    9.4862   10.1090 C   0  0  0  0  0  0  0  0  0  0  0  0
   -4.6416    6.0215    7.2017 N   0  0  0  0  0  0  0  0  0  0  0  0
   -4.6831    0.8030    3.5454 N   0  0  0  0  0  0  0  0  0  0  0  0
   -3.4598    1.5610    3.9390 C   0  0  0  0  0  0  0  0  0  0  0  0
   -3.6928    2.8359    4.7261 C   0  0  0  0  0  0  0  0  0  0  0  0
   -4.8133    3.6317    4.5490 C   0  0  0  0  0  0  0  0  0  0  0  0
   -5.8893    3.2638    3.6245 C   0  0  0  0  0  0  0  0  0  0  0  0
   -6.5797    2.0231    3.7788 C   0  0  0  0  0  0  0  0  0  0  0  0
   -5.6788    0.9699    4.3682 C   0  0  0  0  0  0  0  0  0  0  0  0
   -7.4564    1.5962    2.7728 C   0  0  0  0  0  0  0  0  0  0  0  0
   -7.5320    2.3270    1.5793 C   0  0  0  0  0  0  0  0  0  0  0  0
   -6.8098    3.5087    1.4009 C   0  0  0  0  0  0  0  0  0  0  0  0
   -6.0299    4.0027    2.4403 C   0  0  0  0  0  0  0  0  0  0  0  0
   -4.2627    5.0083    6.3090 C   0  0  0  0  0  0  0  0  0  0  0  0
   -5.0919    4.7081    5.3057 N   0  0  0  0  0  0  0  0  0  0  0  0
   -2.8642    3.2632    5.7388 C   0  0  0  0  0  0  0  0  0  0  0  0
   -3.1183    4.3388    6.5309 N   0  0  0  0  0  0  0  0  0  0  0  0
   -5.5106    0.6038    5.8274 C   0  0  0  0  0  0  0  0  0  0  0  0
   -5.9084    1.5430    6.7913 C   0  0  0  0  0  0  0  0  0  0  0  0
   -5.1459    1.7660    7.9455 C   0  0  0  0  0  0  0  0  0  0  0  0
   -4.0353    0.9738    8.2035 C   0  0  0  0  0  0  0  0  0  0  0  0
   -3.7820   -0.1134    7.3754 C   0  0  0  0  0  0  0  0  0  0  0  0
   -4.5211   -0.3349    6.1971 C   0  0  0  0  0  0  0  0  0  0  0  0
   -4.0202   -1.4241    5.5391 O   0  0  0  0  0  0  0  0  0  0  0  0
   -4.5349   -1.8950    4.3051 C   0  0  0  0  0  0  0  0  0  0  0  0
   -6.9532    2.3482    6.5631 F   0  0  0  0  0  0  0  0  0  0  0  0
   -8.3929    1.6768    0.2350 Cl  0  0  0  0  0  0  0  0  0  0  0  0
  1  2  1  0
  1  8  2  0
  1  9  1  0
  2  3  2  0
  2  7  1  0
  3  4  1  0
  3 10  1  0
  4  5  2  0
  5  6  1  0
  5 12  1  0
  6  7  2  0
 10 11  1  0
 12 24  1  0
 13 14  1  0
 13 19  2  0
 14 15  1  0
 15 16  2  0
 15 26  1  0
 16 17  1  0
 16 25  1  0
 17 18  2  0
 17 23  1  0
 18 19  1  0
 18 20  1  0
 19 28  1  0
 20 21  2  0
 21 22  1  0
 21 37  1  0
 22 23  2  0
 24 25  2  0
 24 27  1  0
 26 27  2  0
 28 29  2  0
 28 33  1  0
 29 30  1  0
 29 36  1  0
 30 31  2  0
 31 32  1  0
 32 33  2  0
 33 34  1  0
 34 35  1  0
M  END
>  <DRUGBANK_ID>  (1) 
DB05220

>  <COMMON_NAME>  (1) 
Alisertib

>  <CAS_NUMBER>  (1) 
1028486-01-2

>  <UNII>  (1) 
T66ES73M18

>  <SYNONYMS>  (1) 
Alisertib

$$$$
