I84
     RDKit          3D

 27 28  0  0  0  0  0  0  0  0999 V2000
    0.2787    1.1949   -0.0056 C   0  0  0  0  0  0  0  0  0  0  0  0
    0.9866   -0.0196   -0.0113 C   0  0  0  0  0  0  0  0  0  0  0  0
    0.2705   -1.2366   -0.0111 C   0  0  0  0  0  0  0  0  0  0  0  0
   -1.1356   -1.1996   -0.0211 C   0  0  0  0  0  0  0  0  0  0  0  0
   -1.8222    0.0132   -0.0196 C   0  0  0  0  0  0  0  0  0  0  0  0
   -1.1156    1.2102   -0.0074 C   0  0  0  0  0  0  0  0  0  0  0  0
    2.4900    0.0187   -0.0134 C   0  0  0  0  0  0  0  0  0  0  0  0
    0.9484   -2.5946    0.0314 C   0  0  0  0  0  0  0  0  0  0  0  0
    0.6211   -3.3405    1.3219 C   0  0  0  0  0  0  0  0  0  0  0  0
    0.0338   -4.5944    1.1747 N   0  0  0  0  0  0  0  0  0  0  0  0
   -0.4174   -5.3544    2.2853 C   0  0  0  0  0  0  0  0  0  0  0  0
    0.9041   -2.8415    2.4121 O   0  0  0  0  0  0  0  0  0  0  0  0
   -1.0336   -4.7310    3.3709 C   0  0  0  0  0  0  0  0  0  0  0  0
   -1.5614   -5.4605    4.4572 C   0  0  0  0  0  0  0  0  0  0  0  0
   -1.4233   -6.8660    4.4758 C   0  0  0  0  0  0  0  0  0  0  0  0
   -0.7684   -7.5231    3.3964 C   0  0  0  0  0  0  0  0  0  0  0  0
   -0.2970   -6.7449    2.3004 C   0  0  0  0  0  0  0  0  0  0  0  0
   -0.5023   -9.0061    3.2786 C   0  0  0  0  0  0  0  0  0  0  0  0
   -2.2752   -4.6611    5.5145 C   0  0  0  0  0  0  0  0  0  0  0  0
   -2.2123   -7.7774    5.8096 S   0  0  0  0  0  0  0  0  0  0  0  0
   -1.3710   -7.3273    7.2304 N   0  0  0  0  0  0  0  0  0  0  0  0
   -1.8627   -8.0676    8.4334 C   0  0  0  0  0  0  0  0  0  0  0  0
   -1.6807   -9.5905    8.4336 C   0  0  0  0  0  0  0  0  0  0  0  0
   -0.7758  -10.0694    9.3181 O   0  0  0  0  0  0  0  0  0  0  0  0
   -2.3046  -10.3766    7.7385 O   0  0  0  0  0  0  0  0  0  0  0  0
   -3.5828   -7.3495    5.9280 O   0  0  0  0  0  0  0  0  0  0  0  0
   -1.8946   -9.1701    5.6399 O   0  0  0  0  0  0  0  0  0  0  0  0
  1  2  2  0
  1  6  1  0
  2  3  1  0
  2  7  1  0
  3  4  2  0
  3  8  1  0
  4  5  1  0
  5  6  2  0
  8  9  1  0
  9 10  1  0
  9 12  2  0
 10 11  1  0
 11 13  2  0
 11 17  1  0
 13 14  1  0
 14 15  2  0
 14 19  1  0
 15 16  1  0
 15 20  1  0
 16 17  2  0
 16 18  1  0
 20 21  1  0
 20 26  2  0
 20 27  2  0
 21 22  1  0
 22 23  1  0
 23 24  1  0
 23 25  2  0
M  END
>  <DRUGBANK_ID>  (1) 
DB01689

>  <SECONDARY_ACCESSION_NUMBERS>  (1) 
EXPT01819

>  <COMMON_NAME>  (1) 
Inhibitor Idd 384

$$$$
