B5R
     RDKit          3D

 28 29  0  0  0  0  0  0  0  0999 V2000
   -1.5862   -0.9533    0.3765 C   0  0  0  0  0  0  0  0  0  0  0  0
   -0.2235   -0.8217    0.1684 C   0  0  0  0  0  0  0  0  0  0  0  0
    0.5183   -1.9358    0.0776 F   0  0  0  0  0  0  0  0  0  0  0  0
    0.3358    0.4353    0.0245 C   0  0  0  0  0  0  0  0  0  0  0  0
    2.0415    0.6113   -0.0574 Cl  0  0  0  0  0  0  0  0  0  0  0  0
   -0.4939    1.5578    0.0030 C   0  0  0  0  0  0  0  0  0  0  0  0
   -1.8838    1.4064    0.0544 C   0  0  0  0  0  0  0  0  0  0  0  0
   -2.4374    0.1394    0.2091 C   0  0  0  0  0  0  0  0  0  0  0  0
   -3.7963    0.0767    0.0936 O   0  0  0  0  0  0  0  0  0  0  0  0
   -4.3994   -1.2157    0.0307 C   0  0  0  0  0  0  0  0  0  0  0  0
   -4.1083   -2.0563   -1.2427 C   0  0  1  0  0  0  0  0  0  0  0  0
   -2.7142   -2.2921   -1.4874 O   0  0  0  0  0  0  0  0  0  0  0  0
   -4.7060   -3.4087   -0.9154 C   0  0  0  0  0  0  0  0  0  0  0  0
   -4.6055   -1.4149   -2.5704 C   0  0  0  0  0  0  0  0  0  0  0  0
   -5.1931   -0.3284   -2.5714 O   0  0  0  0  0  0  0  0  0  0  0  0
   -4.2447   -1.9726   -3.8022 N   0  0  0  0  0  0  0  0  0  0  0  0
   -3.5341   -3.1716   -4.0613 C   0  0  0  0  0  0  0  0  0  0  0  0
   -2.4272   -3.2269   -4.9004 C   0  0  0  0  0  0  0  0  0  0  0  0
   -3.9547   -4.3755   -3.5189 C   0  0  0  0  0  0  0  0  0  0  0  0
   -3.1445   -5.5088   -3.4678 C   0  0  0  0  0  0  0  0  0  0  0  0
   -2.0421   -5.5825   -4.2968 C   0  0  0  0  0  0  0  0  0  0  0  0
   -1.4314   -6.8682   -4.4550 C   0  0  0  0  0  0  0  0  0  0  0  0
   -1.0074   -7.9436   -4.6271 N   0  0  0  0  0  0  0  0  0  0  0  0
   -1.6990   -4.4486   -5.0552 C   0  0  0  0  0  0  0  0  0  0  0  0
   -0.5900   -4.5098   -6.0696 C   0  0  0  0  0  0  0  0  0  0  0  0
   -1.0490   -4.2242   -7.3177 F   0  0  0  0  0  0  0  0  0  0  0  0
    0.3924   -3.6106   -5.8048 F   0  0  0  0  0  0  0  0  0  0  0  0
    0.0285   -5.7123   -6.1745 F   0  0  0  0  0  0  0  0  0  0  0  0
  1  2  2  0
  1  8  1  0
  2  3  1  0
  2  4  1  0
  4  5  1  0
  4  6  2  0
  6  7  1  0
  7  8  2  0
  8  9  1  0
  9 10  1  0
 10 11  1  0
 11 12  1  0
 11 13  1  1
 11 14  1  0
 14 15  2  0
 14 16  1  0
 16 17  1  0
 17 18  2  0
 17 19  1  0
 18 24  1  0
 19 20  2  0
 20 21  1  0
 21 22  1  0
 21 24  2  0
 22 23  3  0
 24 25  1  0
 25 26  1  0
 25 27  1  0
 25 28  1  0
M  END
>  <DRUGBANK_ID>  (1) 
DB07419

>  <COMMON_NAME>  (1) 
S-23

>  <CAS_NUMBER>  (1) 
1010396-29-8

>  <UNII>  (1) 
XDK89456WM

>  <SYNONYMS>  (1) 
(+)-S-23; (2S)-3-(4-Chloro-3-fluorophenoxy)-N-(4-cyano-3-(trifluoromethyl)phenyl)-2-hydroxy-2-methylpropanamide; CCTH-methylpropionamide

$$$$
