
     RDKit          3D

 13 12  0  0  1  0  0  0  0  0999 V2000
    4.6335    2.6273   -4.3201 N   0  0  0  0  0  0  0  0  0  0  0  0
    5.6695    2.0684   -3.4782 C   0  0  0  0  0  0  0  0  0  0  0  0
    5.5064    2.2782   -1.9722 C   0  0  0  0  0  0  0  0  0  0  0  0
    4.3339    1.5756   -1.3107 C   0  0  0  0  0  0  0  0  0  0  0  0
    4.5088    0.6012   -0.5757 O   0  0  0  0  0  0  0  0  0  0  0  0
    3.0677    2.0448   -1.4853 N   0  0  0  0  0  0  0  0  0  0  0  0
    2.5212    3.1177   -2.3031 C   0  0  0  0  0  0  0  0  0  0  0  0
    1.6992    2.5673   -3.5006 C   0  0  0  0  0  0  0  0  0  0  0  0
    0.4042    1.9023   -3.0464 C   0  0  2  0  0  0  0  0  0  0  0  0
    0.7078    0.9168   -1.9892 N   0  0  0  0  0  0  0  0  0  0  0  0
   -0.2461    1.1740   -4.2336 C   0  0  0  0  0  0  0  0  0  0  0  0
   -1.4793    1.6128   -4.5465 O   0  0  0  0  0  0  0  0  0  0  0  0
    0.2827    0.2329   -4.8304 O   0  0  0  0  0  0  0  0  0  0  0  0
  1  2  1  0
  2  3  1  0
  3  4  1  0
  4  5  2  0
  4  6  1  0
  6  7  1  0
  7  8  1  0
  9 11  1  0
  9 10  1  1
  9  8  1  0
 11 12  1  0
 11 13  2  0
M  END
>  <DRUGBANK_ID>  (1) 
DB03236

>  <SECONDARY_ACCESSION_NUMBERS>  (1) 
EXPT00060

>  <COMMON_NAME>  (1) 
(2s)-4-(Beta-Alanylamino)-2-Aminobutanoic Acid

$$$$
