RIN
     RDKit          3D

 15 15  0  0  0  0  0  0  0  0999 V2000
    0.8722    2.0629    1.0440 N   0  0  0  0  0  0  0  0  0  0  0  0
    0.7003    1.2843   -0.1987 C   0  0  1  0  0  0  0  0  0  0  0  0
   -0.7679    0.9438   -0.5740 C   0  0  0  0  0  0  0  0  0  0  0  0
   -1.6081    0.3231    0.5564 C   0  0  0  0  0  0  0  0  0  0  0  0
   -2.8120    1.1682    1.0162 C   0  0  0  0  0  0  0  0  0  0  0  0
   -2.5933    2.6630    0.8367 C   0  0  0  0  0  0  0  0  0  0  0  0
   -3.2854    3.5523    1.8451 C   0  0  0  0  0  0  0  0  0  0  0  0
   -3.0048    5.0259    1.5090 C   0  0  0  0  0  0  0  0  0  0  0  0
   -1.5215    5.4151    1.7127 C   0  0  0  0  0  0  0  0  0  0  0  0
   -0.7986    5.7196    0.3855 C   0  0  0  0  0  0  0  0  0  0  0  0
    0.6499    5.1891    0.3136 C   0  0  0  0  0  0  0  0  0  0  0  0
    0.9241    4.5024   -1.0534 C   0  0  0  0  0  0  0  0  0  0  0  0
    1.8336    3.3578   -1.0280 N   0  0  0  0  0  0  0  0  0  0  0  0
    1.3047    2.1129   -1.3723 C   0  0  0  0  0  0  0  0  0  0  0  0
    1.2347    1.7303   -2.5496 O   0  0  0  0  0  0  0  0  0  0  0  0
  2  3  1  0
  2 14  1  0
  2  1  1  1
  3  4  1  0
  4  5  1  0
  5  6  1  0
  6  7  1  0
  7  8  1  0
  8  9  1  0
  9 10  1  0
 10 11  1  0
 11 12  1  0
 12 13  1  0
 13 14  1  0
 14 15  2  0
M  END
>  <DRUGBANK_ID>  (1) 
DB08476

>  <COMMON_NAME>  (1) 
3-AMINO-AZACYCLOTRIDECAN-2-ONE

$$$$
