
     RDKit          3D

 26 28  0  0  0  0  0  0  0  0999 V2000
   -1.6339   -0.0495   -0.1994 C   0  0  0  0  0  0  0  0  0  0  0  0
    1.3610   -0.0492    0.2791 N   0  0  0  0  0  0  0  0  0  0  0  0
   -0.8397    1.2090    0.2873 C   0  0  0  0  0  0  0  0  0  0  0  0
   -0.8203   -1.2942    0.2645 C   0  0  0  0  0  0  0  0  0  0  0  0
    0.6331    1.1689   -0.0889 C   0  0  0  0  0  0  0  0  0  0  0  0
    0.6735   -1.2875   -0.0940 C   0  0  0  0  0  0  0  0  0  0  0  0
    2.7634   -0.0222   -0.2224 C   0  0  0  0  0  0  0  0  0  0  0  0
    1.2589    3.7156   -3.2992 C   0  0  0  0  0  0  0  0  0  0  0  0
    2.5915    1.3555   -2.4181 C   0  0  0  0  0  0  0  0  0  0  0  0
    0.4931    4.8394   -3.5875 N   0  0  0  0  0  0  0  0  0  0  0  0
    3.0047    0.0493   -1.7627 C   0  0  0  0  0  0  0  0  0  0  0  0
    2.3252    3.7658   -2.3995 C   0  0  0  0  0  0  0  0  0  0  0  0
    0.8775    2.4711   -3.7579 C   0  0  0  0  0  0  0  0  0  0  0  0
    2.9725    2.6019   -1.9436 C   0  0  0  0  0  0  0  0  0  0  0  0
    1.6392    1.3374   -3.4294 C   0  0  0  0  0  0  0  0  0  0  0  0
   -4.0858   -0.2010    0.0709 O   0  0  0  0  0  0  0  0  0  0  0  0
   -2.9725   -0.0529    0.5824 C   0  0  0  0  0  0  0  0  0  0  0  0
   -0.8813   -0.1856   -2.6964 C   0  0  0  0  0  0  0  0  0  0  0  0
   -1.9003   -0.0577   -1.7640 C   0  0  0  0  0  0  0  0  0  0  0  0
   -1.0586   -0.0266   -4.0870 C   0  0  0  0  0  0  0  0  0  0  0  0
   -2.2676    0.3528   -4.6041 C   0  0  0  0  0  0  0  0  0  0  0  0
   -3.1536    0.0710   -2.3830 C   0  0  0  0  0  0  0  0  0  0  0  0
   -3.3355    0.3479   -3.7471 C   0  0  0  0  0  0  0  0  0  0  0  0
   -2.8833    0.0996    1.9304 O   0  0  0  0  0  0  0  0  0  0  0  0
   -4.1899    0.0980    2.5476 C   0  0  0  0  0  0  0  0  0  0  0  0
   -4.9899    1.3546    2.1949 C   0  0  0  0  0  0  0  0  0  0  0  0
  1 17  1  0
  3  1  1  0
  4  1  1  0
  5  2  1  0
  5  3  1  0
  6  2  1  0
  6  4  1  0
  7  2  1  0
 10  8  1  0
 11  7  1  0
 11  9  1  0
 12  8  2  0
 13  8  1  0
 14  9  2  0
 14 12  1  0
 15  9  1  0
 15 13  2  0
 17 16  2  0
 17 24  1  0
 19  1  1  0
 19 18  2  0
 20 18  1  0
 21 20  2  0
 22 19  1  0
 23 21  1  0
 23 22  2  0
 24 25  1  0
 25 26  1  0
M  END
>  <DRUGBANK_ID>  (1) 
DB00913

>  <SECONDARY_ACCESSION_NUMBERS>  (1) 
APRD00741

>  <COMMON_NAME>  (1) 
Anileridine

>  <CAS_NUMBER>  (1) 
144-14-9

>  <UNII>  (1) 
71Q1A3O279

>  <SYNONYMS>  (1) 
1-[2-(4-aminophenyl)ethyl]-4-phenyl-4-piperidinecarboxlic acid ethyl ester; Anileridina; Anileridine; Anileridinum; ethyl 1-(2-(4-aminophenyl)ethyl)-4-phenyl-4-piperidinecarboxylate; ethyl 1-(4-aminophenethyl)-4-phenylisonipecotate; ethyl 1-(p-aminophenethyl)-4-phenylisonipecotate; N-(β-(p-aminophenyl)ethyl)-4-phenyl-4-carbethoxypiperidine; N-β-(p-aminophenyl)ethylnormeperidine

$$$$
