
     RDKit          3D

 14 14  0  0  0  0  0  0  0  0999 V2000
    1.0593   -0.0201    0.0780 C   0  0  0  0  0  0  0  0  0  0  0  0
   -0.2445   -0.0201    0.0780 C   0  0  0  0  0  0  0  0  0  0  0  0
    3.0219    0.5764   -1.1883 N   0  0  0  0  0  0  0  0  0  0  0  0
    4.5076    0.4966   -1.3010 C   0  0  1  0  0  0  0  0  0  0  0  0
    5.1560   -0.9256   -1.2460 C   0  0  0  0  0  0  0  0  0  0  0  0
    2.5793   -0.0201    0.0780 C   0  0  0  0  0  0  0  0  0  0  0  0
    4.8448   -1.8987   -2.3681 C   0  0  0  0  0  0  0  0  0  0  0  0
    2.2407   -0.0575   -2.2549 C   0  0  0  0  0  0  0  0  0  0  0  0
    5.1336    1.3350   -2.4344 C   0  0  0  0  0  0  0  0  0  0  0  0
    5.1044   -3.2608   -2.1945 C   0  0  0  0  0  0  0  0  0  0  0  0
    4.2142   -1.5407   -3.5612 C   0  0  0  0  0  0  0  0  0  0  0  0
    3.5743   -2.4410   -4.3880 C   0  0  0  0  0  0  0  0  0  0  0  0
    4.6544   -4.1768   -3.1501 C   0  0  0  0  0  0  0  0  0  0  0  0
    3.8448   -3.7852   -4.2130 C   0  0  0  0  0  0  0  0  0  0  0  0
  2  1  3  0
  3  6  1  0
  4  3  1  0
  4  9  1  6
  5  4  1  0
  6  1  1  0
  7  5  1  0
  8  3  1  0
 10  7  2  0
 11  7  1  0
 12 11  2  0
 13 10  1  0
 14 13  2  0
 14 12  1  0
M  END
>  <DRUGBANK_ID>  (1) 
DB01037

>  <SECONDARY_ACCESSION_NUMBERS>  (1) 
APRD00525

>  <COMMON_NAME>  (1) 
Selegiline

>  <CAS_NUMBER>  (1) 
14611-51-9

>  <UNII>  (1) 
2K1V7GP655

>  <SYNONYMS>  (1) 
(âˆ’)-selegiline; L-Deprenalin; Selegilina; Selegiline; Selegilinum

$$$$
