
     RDKit          3D

 23 24  0  0  0  0  0  0  0  0999 V2000
    1.5737   -1.2624    0.0539 C   0  0  0  0  0  0  0  0  0  0  0  0
    0.1820   -1.2421   -0.0496 C   0  0  0  0  0  0  0  0  0  0  0  0
   -0.5504   -0.0486   -0.0500 C   0  0  0  0  0  0  0  0  0  0  0  0
    0.1093    1.1755    0.0057 C   0  0  0  0  0  0  0  0  0  0  0  0
    1.4991    1.1529    0.1689 C   0  0  0  0  0  0  0  0  0  0  0  0
    2.2559   -0.0459    0.1878 C   0  0  0  0  0  0  0  0  0  0  0  0
    2.3031   -2.4238    0.0539 O   0  0  0  0  0  0  0  0  0  0  0  0
    1.5553   -3.6405    0.0044 C   0  0  0  0  0  0  0  0  0  0  0  0
   -0.4168    2.4414   -0.0567 O   0  0  0  0  0  0  0  0  0  0  0  0
   -1.8325    2.5637   -0.1464 C   0  0  0  0  0  0  0  0  0  0  0  0
   -1.9777   -0.1953   -0.0251 C   0  0  0  0  0  0  0  0  0  0  0  0
   -3.1263   -0.2743    0.0332 N   0  0  0  0  0  0  0  0  0  0  0  0
    3.7734    0.0192    0.3238 C   0  0  0  0  0  0  0  0  0  0  0  0
    4.4086    0.7105   -0.8752 C   0  0  0  0  0  0  0  0  0  0  0  0
    4.0466    2.1130   -1.0952 N   0  0  0  0  0  0  0  0  0  0  0  0
    4.6549    2.7197   -2.2814 C   0  0  0  0  0  0  0  0  0  0  0  0
    4.2668    2.0688   -3.5930 C   0  0  0  0  0  0  0  0  0  0  0  0
    3.6643    2.7383   -4.6570 C   0  0  0  0  0  0  0  0  0  0  0  0
    3.3676    2.0532   -5.8411 C   0  0  0  0  0  0  0  0  0  0  0  0
    3.6078    0.6832   -5.9685 C   0  0  0  0  0  0  0  0  0  0  0  0
    4.1871   -0.0059   -4.9263 C   0  0  0  0  0  0  0  0  0  0  0  0
    4.5840    0.7073   -3.8074 C   0  0  0  0  0  0  0  0  0  0  0  0
    3.3691    4.0717   -4.6728 O   0  0  0  0  0  0  0  0  0  0  0  0
  1  2  2  0
  1  6  1  0
  1  7  1  0
  2  3  1  0
  3  4  2  0
  3 11  1  0
  4  5  1  0
  4  9  1  0
  5  6  2  0
  6 13  1  0
  7  8  1  0
  9 10  1  0
 11 12  3  0
 13 14  1  0
 14 15  1  0
 15 16  1  0
 16 17  1  0
 17 18  2  0
 17 22  1  0
 18 19  1  0
 18 23  1  0
 19 20  2  0
 20 21  1  0
 21 22  2  0
M  END
>  <DRUGBANK_ID>  (1) 
DB13948

>  <COMMON_NAME>  (1) 
N-(2-hydroxybenzyl)-2,5-dimethoxy-4-cyanophenylethylamine

>  <CAS_NUMBER>  (1) 
1391489-32-9

>  <UNII>  (1) 
32CN2DQE3Q

>  <SYNONYMS>  (1) 
25CN-NBOH; NBOH-2C-CN

$$$$
