
     RDKit          3D

 24 25  0  0  0  0  0  0  0  0999 V2000
    4.3311   -4.4850   -3.2672 Br  0  0  0  0  0  0  0  0  0  0  0  0
    0.3084   -6.6548    1.5066 O   0  0  0  0  0  0  0  0  0  0  0  0
    1.7706   -9.0200   -0.2121 O   0  0  0  0  0  0  0  0  0  0  0  0
    1.2118   -3.4174   -2.5383 N   0  0  0  0  0  0  0  0  0  0  0  0
    0.5304   -1.1637   -0.4711 N   0  0  0  0  0  0  0  0  0  0  0  0
    0.4613   -4.7030    0.7503 N   0  0  0  0  0  0  0  0  0  0  0  0
    3.9501   -7.3920   -4.1387 N   0  0  0  0  0  0  0  0  0  0  0  0
    0.7649   -3.5910   -0.0870 C   0  0  1  0  0  0  0  0  0  0  0  0
    0.2254   -3.8085   -1.5246 C   0  0  0  0  0  0  0  0  0  0  0  0
    0.3518   -2.2549    0.4906 C   0  0  0  0  0  0  0  0  0  0  0  0
    1.4281   -1.9772   -2.6382 C   0  0  0  0  0  0  0  0  0  0  0  0
    1.7476   -1.2670   -1.3017 C   0  0  0  0  0  0  0  0  0  0  0  0
    1.0224   -4.0819   -3.8300 C   0  0  0  0  0  0  0  0  0  0  0  0
    0.4504    0.1067    0.2152 C   0  0  0  0  0  0  0  0  0  0  0  0
   -0.3007   -3.7727   -4.4734 C   0  0  0  0  0  0  0  0  0  0  0  0
    0.8655   -5.9978    0.6172 C   0  0  0  0  0  0  0  0  0  0  0  0
    1.8316   -6.5182   -0.5016 C   0  0  0  0  0  0  0  0  0  0  0  0
    2.0827   -7.8492   -0.8618 C   0  0  0  0  0  0  0  0  0  0  0  0
    2.5981   -5.6083   -1.2585 C   0  0  0  0  0  0  0  0  0  0  0  0
    2.8306   -8.1387   -2.0557 C   0  0  0  0  0  0  0  0  0  0  0  0
    3.3339   -5.8890   -2.4147 C   0  0  0  0  0  0  0  0  0  0  0  0
    3.3807   -7.1679   -2.9029 C   0  0  0  0  0  0  0  0  0  0  0  0
    1.0832   -8.9130    1.0161 C   0  0  0  0  0  0  0  0  0  0  0  0
    4.5311   -8.6390   -4.5364 C   0  0  0  0  0  0  0  0  0  0  0  0
  1 21  1  0
  2 16  2  0
  3 18  1  0
  3 23  1  0
  4  9  1  0
  4 11  1  0
  4 13  1  0
  5 10  1  0
  5 12  1  0
  5 14  1  0
  6 16  1  0
  7 22  1  0
  7 24  1  0
  8  9  1  0
  8 10  1  0
  8  6  1  1
 11 12  1  0
 13 15  1  0
 16 17  1  0
 17 18  2  0
 17 19  1  0
 18 20  1  0
 19 21  2  0
 20 22  2  0
 21 22  1  0
M  END
>  <DRUGBANK_ID>  (1) 
DB09207

>  <COMMON_NAME>  (1) 
AS-8112

$$$$
