1081
     RDKit          3D

 34 37  0  0  0  0  0  0  0  0999 V2000
    0.8866   -0.1814    0.1229 O   0  0  0  0  0  0  0  0  0  0  0  0
    0.9062    1.8914   -0.8354 O   0  0  0  0  0  0  0  0  0  0  0  0
   -2.4648    0.5029    3.0066 N   0  0  0  0  0  0  0  0  0  0  0  0
   -0.1224    2.2797    1.4429 N   0  0  0  0  0  0  0  0  0  0  0  0
   -1.4853    0.9809    0.0316 C   0  0  0  0  0  0  0  0  0  0  0  0
   -2.4108    2.0872    0.8516 C   0  0  0  0  0  0  0  0  0  0  0  0
   -1.9073   -0.3496    0.6923 C   0  0  0  0  0  0  0  0  0  0  0  0
   -2.5978    1.8413    2.4001 C   0  0  0  0  0  0  0  0  0  0  0  0
   -1.6559   -0.4192    2.1923 C   0  0  0  0  0  0  0  0  0  0  0  0
   -1.8906    0.5740    4.3986 C   0  0  0  0  0  0  0  0  0  0  0  0
   -1.9421    1.2219   -1.3898 C   0  0  0  0  0  0  0  0  0  0  0  0
    0.2400    0.9467   -0.2973 C   0  0  0  0  0  0  0  0  0  0  0  0
   -0.3240    0.6622    4.6118 C   0  0  0  0  0  0  0  0  0  0  0  0
    0.4191    1.9866    4.1549 C   0  0  0  0  0  0  0  0  0  0  0  0
   -1.5472    2.4058   -2.0568 C   0  0  0  0  0  0  0  0  0  0  0  0
   -2.6552    0.2401   -2.0482 C   0  0  0  0  0  0  0  0  0  0  0  0
   -0.1841    3.1951    4.9530 C   0  0  0  0  0  0  0  0  0  0  0  0
    1.9554    1.9339    4.3828 C   0  0  0  0  0  0  0  0  0  0  0  0
   -1.8382    2.5671   -3.3950 C   0  0  0  0  0  0  0  0  0  0  0  0
   -2.9336    0.3994   -3.3846 C   0  0  0  0  0  0  0  0  0  0  0  0
    0.1231    2.1468    2.6726 C   0  0  0  0  0  0  0  0  0  0  0  0
   -2.5364    1.5590   -4.0522 C   0  0  0  0  0  0  0  0  0  0  0  0
    2.3399   -0.1144    0.0706 C   0  0  0  0  0  0  0  0  0  0  0  0
   -0.7416    3.0422    6.2375 C   0  0  0  0  0  0  0  0  0  0  0  0
    2.7176    3.1200    4.4962 C   0  0  0  0  0  0  0  0  0  0  0  0
   -0.0480    4.5104    4.4615 C   0  0  0  0  0  0  0  0  0  0  0  0
    2.6581    0.7275    4.5121 C   0  0  0  0  0  0  0  0  0  0  0  0
    2.9170   -1.5117   -0.0626 C   0  0  0  0  0  0  0  0  0  0  0  0
   -1.0941    4.1449    7.0114 C   0  0  0  0  0  0  0  0  0  0  0  0
    4.0677    3.1150    4.8309 C   0  0  0  0  0  0  0  0  0  0  0  0
   -0.2781    5.6090    5.2874 C   0  0  0  0  0  0  0  0  0  0  0  0
    4.0109    0.7183    4.8701 C   0  0  0  0  0  0  0  0  0  0  0  0
   -0.8183    5.4264    6.5547 C   0  0  0  0  0  0  0  0  0  0  0  0
    4.7123    1.9091    5.0346 C   0  0  0  0  0  0  0  0  0  0  0  0
  1 12  1  0
  1 23  1  0
  2 12  2  0
  3  8  1  0
  3  9  1  0
  3 10  1  0
  4 21  3  0
  5  6  1  0
  5  7  1  0
  5 11  1  0
  5 12  1  0
  6  8  1  0
  7  9  1  0
 10 13  1  0
 11 15  2  0
 11 16  1  0
 13 14  1  0
 14 17  1  0
 14 18  1  0
 14 21  1  0
 15 19  1  0
 16 20  2  0
 17 24  2  0
 17 26  1  0
 18 25  2  0
 18 27  1  0
 19 22  2  0
 20 22  1  0
 23 28  1  0
 24 29  1  0
 25 30  1  0
 26 31  2  0
 27 32  2  0
 29 33  2  0
 30 34  2  0
 31 33  1  0
 32 34  1  0
M  END
>  <DRUGBANK_ID>  (1) 
DB01081

>  <SECONDARY_ACCESSION_NUMBERS>  (1) 
APRD00366

>  <COMMON_NAME>  (1) 
Diphenoxylate

>  <CAS_NUMBER>  (1) 
915-30-0

>  <UNII>  (1) 
73312P173G

>  <SYNONYMS>  (1) 
1-(3-Cyano-3,3-diphenylpropyl)-4-phenyl-isonipecotic acid ethyl ester; 2,2-Diphenyl-4-(4-carbethoxy-4-phenylpiperidino)butyronitrile; Difenossilato; Difenoxilato; Diphenoxylate; Diphenoxylatum; Ethyl 1-(3-cyano-3,3-diphenylpropyl)-4-phenyl-4-piperidinecarboxylate; Ethyl 1-(3-cyano-3,3-diphenylpropyl)-4-phenylisonipecotate

$$$$
