BQM
     RDKit          3D

 32 34  0  0  0  0  0  0  0  0999 V2000
    0.7362   -0.1161    0.0059 F   0  0  0  0  0  0  0  0  0  0  0  0
    2.0724    0.1221    0.1004 C   0  0  0  0  0  0  0  0  0  0  0  0
    2.4791    0.5025   -1.1084 F   0  0  0  0  0  0  0  0  0  0  0  0
    2.1393    1.2771    0.8023 F   0  0  0  0  0  0  0  0  0  0  0  0
    2.7959   -1.0850    0.6867 C   0  0  0  0  0  0  0  0  0  0  0  0
    3.3485   -1.0081    2.0039 C   0  0  0  0  0  0  0  0  0  0  0  0
    3.7585    0.3170    2.6428 C   0  0  0  0  0  0  0  0  0  0  0  0
    2.9460    0.6419    3.6883 F   0  0  0  0  0  0  0  0  0  0  0  0
    5.0237    0.2352    3.1520 F   0  0  0  0  0  0  0  0  0  0  0  0
    3.8426    1.4160    1.8609 F   0  0  0  0  0  0  0  0  0  0  0  0
    2.6889   -2.3575    0.0660 C   0  0  0  0  0  0  0  0  0  0  0  0
    2.3580   -2.7630   -1.6624 S   0  0  0  0  0  0  0  0  0  0  0  0
    2.6024   -1.3297   -2.7023 C   0  0  0  0  0  0  0  0  0  0  0  0
    3.7948   -0.5737   -2.7444 C   0  0  0  0  0  0  0  0  0  0  0  0
    3.8271    0.6907   -3.3763 C   0  0  0  0  0  0  0  0  0  0  0  0
    4.8170    1.6262   -3.0390 N   0  0  0  0  0  0  0  0  0  0  0  0
    2.6828    1.1350   -4.0523 C   0  0  0  0  0  0  0  0  0  0  0  0
    1.5330    0.3448   -4.1068 C   0  0  0  0  0  0  0  0  0  0  0  0
    1.4788   -0.8575   -3.3987 C   0  0  0  0  0  0  0  0  0  0  0  0
    2.8492   -3.5126    0.8697 C   0  0  0  0  0  0  0  0  0  0  0  0
    3.2546   -3.4384    2.2008 C   0  0  0  0  0  0  0  0  0  0  0  0
    3.5243   -2.2009    2.7788 C   0  0  0  0  0  0  0  0  0  0  0  0
    3.9103   -2.1263    4.2031 C   0  0  0  0  0  0  0  0  0  0  0  0
    3.9872   -3.0767    5.1408 C   0  0  0  0  0  0  0  0  0  0  0  0
    4.4383   -2.8571    6.5544 C   0  0  0  0  0  0  0  0  0  0  0  0
    4.7449   -3.8453    7.2020 O   0  0  0  0  0  0  0  0  0  0  0  0
    4.6350   -1.5702    7.0172 N   0  0  0  0  0  0  0  0  0  0  0  0
    3.7791   -0.3928    6.8184 C   0  0  0  0  0  0  0  0  0  0  0  0
    4.6228    0.7760    6.2843 C   0  0  0  0  0  0  0  0  0  0  0  0
    5.7382    1.0448    7.1491 O   0  0  0  0  0  0  0  0  0  0  0  0
    6.5755   -0.1229    7.2685 C   0  0  0  0  0  0  0  0  0  0  0  0
    5.7885   -1.2968    7.8719 C   0  0  0  0  0  0  0  0  0  0  0  0
  1  2  1  0
  2  3  1  0
  2  4  1  0
  2  5  1  0
  5  6  2  0
  5 11  1  0
  6  7  1  0
  6 22  1  0
  7  8  1  0
  7  9  1  0
  7 10  1  0
 11 12  1  0
 11 20  2  0
 12 13  1  0
 13 14  2  0
 13 19  1  0
 14 15  1  0
 15 16  1  0
 15 17  2  0
 17 18  1  0
 18 19  2  0
 20 21  1  0
 21 22  2  0
 22 23  1  0
 23 24  2  0
 24 25  1  0
 25 26  2  0
 25 27  1  0
 27 28  1  0
 27 32  1  0
 28 29  1  0
 29 30  1  0
 30 31  1  0
 31 32  1  0
M  END
>  <DRUGBANK_ID>  (1) 
DB07486

>  <COMMON_NAME>  (1) 
3-({4-[(1E)-3-morpholin-4-yl-3-oxoprop-1-en-1-yl]-2,3-bis(trifluoromethyl)phenyl}sulfanyl)aniline

$$$$
