979
     RDKit          3D

 21 22  0  0  1  0  0  0  0  0999 V2000
   -1.4993    0.1336    0.9113 O   0  0  0  0  0  0  0  0  0  0  0  0
   -1.8504   -0.4799   -4.1366 O   0  0  0  0  0  0  0  0  0  0  0  0
   -0.6226    1.3660   -3.6654 O   0  0  0  0  0  0  0  0  0  0  0  0
   -1.4794   -2.2496   -1.5953 N   0  0  0  0  0  0  0  0  0  0  0  0
   -0.6967    0.2250   -0.2857 C   0  0  0  0  0  0  0  0  0  0  0  0
    0.5495   -0.8979   -0.0852 C   0  0  0  0  0  0  0  0  0  0  0  0
    0.2626    1.4030   -0.1972 C   0  0  0  0  0  0  0  0  0  0  0  0
    1.5568   -0.4625    0.8950 C   0  0  0  0  0  0  0  0  0  0  0  0
    1.4332    1.0240    0.7443 C   0  0  0  0  0  0  0  0  0  0  0  0
   -1.8494    0.4222   -1.6623 C   0  0  0  0  0  0  0  0  0  0  0  0
   -2.7348    1.6393   -1.4791 C   0  0  0  0  0  0  0  0  0  0  0  0
   -1.3915    0.5362   -3.2603 C   0  0  0  0  0  0  0  0  0  0  0  0
   -2.1295    2.8897   -1.5733 C   0  0  0  0  0  0  0  0  0  0  0  0
   -4.1325    1.5253   -1.4253 C   0  0  0  0  0  0  0  0  0  0  0  0
   -2.4946   -1.8425   -3.8674 C   0  0  0  0  0  0  0  0  0  0  0  0
   -2.8866    4.0353   -1.5521 C   0  0  0  0  0  0  0  0  0  0  0  0
   -4.9002    2.6781   -1.5035 C   0  0  0  0  0  0  0  0  0  0  0  0
   -4.2726    3.9276   -1.5229 C   0  0  0  0  0  0  0  0  0  0  0  0
   -1.9735   -2.9255   -2.7738 C   0  0  0  0  0  0  0  0  0  0  0  0
   -1.4583   -3.0192   -0.3450 C   0  0  0  0  0  0  0  0  0  0  0  0
   -0.2455   -1.7025   -2.1708 C   0  0  0  0  0  0  0  0  0  0  0  0
  1  5  1  0
  2 12  1  0
  2 15  1  0
  3 12  2  0
  4 19  1  0
  4 20  1  0
  4 21  1  0
  5  6  1  0
  5  7  1  0
  5 10  1  0
  6  8  1  0
  7  9  1  0
  8  9  1  0
 10 11  1  0
 10 12  1  0
 11 13  2  0
 11 14  1  0
 13 16  1  0
 14 17  2  0
 15 19  1  0
 16 18  2  0
 17 18  1  0
M  END
>  <DRUGBANK_ID>  (1) 
DB00979

>  <SECONDARY_ACCESSION_NUMBERS>  (1) 
APRD00893

>  <COMMON_NAME>  (1) 
Cyclopentolate

>  <CAS_NUMBER>  (1) 
512-15-2

>  <UNII>  (1) 
I76F4SHP7J

>  <SYNONYMS>  (1) 
(±)-cyclopentolate; 1-hydroxy-α-phenylcyclopentaneacetic acid 2-(dimethylamino)ethyl ester; 2-(dimethylamino)ethyl 1-hydroxy-α-phenylcyclopentaneacetate; 2-(dimethylamino)ethyl 2-(1-hydroxycyclopentyl)-2-phenylacetate; 2-phenyl-2-(1-hydroxycyclopentyl)ethanoic acid β-(dimethylamino)ethyl ester; Ciclopentolato; Cyclopentolate; Cyclopentolatum; α-(1-hydroxycyclopentyl)benzeneacetic acid 2-(dimethylamino)ethyl ester; β-(dimethylamino)ethyl (1-hydroxycyclopentyl)phenylacetate; β-dimethylaminoethyl (1-hydroxycyclopentyl)phenylacetate

$$$$
