Structure #1
     RDKit          3D

 13 13  0  0  0  0  0  0  0  0999 V2000
    1.7188    1.2070    0.0007 C   0  0  0  0  0  0  0  0  0  0  0  0
    0.3221    1.2011   -0.0129 C   0  0  0  0  0  0  0  0  0  0  0  0
    1.7102   -1.2221    0.0006 C   0  0  0  0  0  0  0  0  0  0  0  0
    2.4105   -0.0067    0.0154 C   0  0  0  0  0  0  0  0  0  0  0  0
   -0.4028   -0.0030   -0.0165 C   0  0  0  0  0  0  0  0  0  0  0  0
    0.2950   -1.2223   -0.0205 C   0  0  0  0  0  0  0  0  0  0  0  0
   -2.1202    0.1900   -0.0048 Cl  0  0  0  0  0  0  0  0  0  0  0  0
    3.8811   -0.0008    0.0489 N   0  0  0  0  0  0  0  0  0  0  0  0
   -0.3801   -2.5328   -0.0574 N   0  0  0  0  0  0  0  0  0  0  0  0
    4.4583   -1.0953    0.0655 O   0  0  0  0  0  0  0  0  0  0  0  0
    4.4497    1.0993    0.0614 O   0  0  0  0  0  0  0  0  0  0  0  0
    0.3444   -3.5381   -0.0701 O   0  0  0  0  0  0  0  0  0  0  0  0
   -1.6133   -2.5823   -0.0804 O   0  0  0  0  0  0  0  0  0  0  0  0
  1  2  2  0
  1  4  1  0
  2  5  1  0
  3  4  2  0
  3  6  1  0
  4  8  1  0
  5  6  2  0
  5  7  1  0
  6  9  1  0
  8 10  1  0
  8 11  2  0
  9 12  1  0
  9 13  2  0
M  CHG  4   8   1   9   1  10  -1  12  -1
M  END
>  <DRUGBANK_ID>  (1) 
DB11831

>  <COMMON_NAME>  (1) 
Dinitrochlorobenzene

>  <CAS_NUMBER>  (1) 
97-00-7

>  <UNII>  (1) 
GE3IBT7BMN

>  <SYNONYMS>  (1) 
1-chloro-2,4-dinitrobenzene

$$$$
