
     RDKit          3D

 34 36  0  0  0  0  0  0  0  0999 V2000
    0.7006    2.2861    9.0663 S   0  0  0  0  0  0  0  0  0  0  0  0
    1.4255    3.5536    8.0295 C   0  0  0  0  0  0  0  0  0  0  0  0
    2.4136    3.2122    7.0904 C   0  0  0  0  0  0  0  0  0  0  0  0
    0.9545    4.8632    8.1043 C   0  0  0  0  0  0  0  0  0  0  0  0
    2.8274    4.1501    6.1391 C   0  0  0  0  0  0  0  0  0  0  0  0
    1.3970    5.7986    7.1740 C   0  0  0  0  0  0  0  0  0  0  0  0
    2.3250    5.4556    6.1799 C   0  0  0  0  0  0  0  0  0  0  0  0
    2.8254    6.5009    5.2226 C   0  0  0  0  0  0  0  0  0  0  0  0
    1.7634    7.0710    4.2873 C   0  0  0  0  0  0  0  0  0  0  0  0
    0.7005    7.8349    4.9371 N   0  0  0  0  0  0  0  0  0  0  0  0
    0.4778    9.1807    4.9020 C   0  0  0  0  0  0  0  0  0  0  0  0
   -0.3326    9.6793    5.6823 O   0  0  0  0  0  0  0  0  0  0  0  0
    1.2010    9.9053    3.9944 N   0  0  0  0  0  0  0  0  0  0  0  0
    1.5728   11.2749    4.2203 C   0  0  0  0  0  0  0  0  0  0  0  0
    1.2817    9.5930    2.6407 C   0  0  0  0  0  0  0  0  0  0  0  0
    2.1458   11.6568    2.8922 C   0  0  0  0  0  0  0  0  0  0  0  0
    2.0415   10.6740    1.9886 C   0  0  0  0  0  0  0  0  0  0  0  0
    2.5133   10.5753    0.5828 C   0  0  0  0  0  0  0  0  0  0  0  0
    3.5330    9.4600    0.3942 C   0  0  0  0  0  0  0  0  0  0  0  0
    2.7404   12.9996    2.6716 C   0  0  0  0  0  0  0  0  0  0  0  0
    0.8867    8.6060    2.0419 O   0  0  0  0  0  0  0  0  0  0  0  0
   -0.3240    1.2792    8.1401 N   0  0  0  0  0  0  0  0  0  0  0  0
   -0.5382    1.4521    6.7831 C   0  0  0  0  0  0  0  0  0  0  0  0
    0.1243    2.3036    6.2172 O   0  0  0  0  0  0  0  0  0  0  0  0
   -1.4713    0.6996    6.0827 N   0  0  0  0  0  0  0  0  0  0  0  0
   -1.6502    0.8981    4.6019 C   0  0  1  0  0  0  0  0  0  0  0  0
   -3.0276    0.4532    4.0391 C   0  0  0  0  0  0  0  0  0  0  0  0
   -3.2051    0.8262    2.5419 C   0  0  0  0  0  0  0  0  0  0  0  0
   -1.6231    2.7253    2.7873 C   0  0  0  0  0  0  0  0  0  0  0  0
   -1.4767    2.3818    4.2375 C   0  0  0  0  0  0  0  0  0  0  0  0
   -2.9838    2.3220    2.2763 C   0  0  1  0  0  0  0  0  0  0  0  0
   -3.0521    2.6842    0.7984 C   0  0  0  0  0  0  0  0  0  0  0  0
    1.7903    1.4584    9.5416 O   0  0  0  0  0  0  0  0  0  0  0  0
   -0.1583    2.9568   10.0247 O   0  0  0  0  0  0  0  0  0  0  0  0
  1 22  1  0
  2  1  1  0
  3  2  2  0
  4  2  1  0
  5  3  1  0
  6  4  2  0
  7  5  2  0
  7  6  1  0
  8  7  1  0
  9  8  1  0
 10  9  1  0
 11 10  1  0
 12 11  2  0
 13 11  1  0
 14 13  1  0
 15 13  1  0
 16 14  1  0
 17 15  1  0
 17 16  2  0
 18 17  1  0
 19 18  1  0
 20 16  1  0
 21 15  2  0
 22 23  1  0
 23 25  1  0
 23 24  2  0
 26 27  1  0
 26 30  1  0
 26 25  1  1
 27 28  1  0
 28 31  1  0
 29 30  1  0
 31 29  1  0
 31 32  1  6
 33  1  2  0
 34  1  2  0
M  END
>  <DRUGBANK_ID>  (1) 
DB00222

>  <SECONDARY_ACCESSION_NUMBERS>  (1) 
APRD00381

>  <COMMON_NAME>  (1) 
Glimepiride

>  <CAS_NUMBER>  (1) 
93479-97-1

>  <UNII>  (1) 
6KY687524K

>  <SYNONYMS>  (1) 
Glimepirida; Glimepiride; GlimÃ©piride; Glimepiridum

$$$$
