
     RDKit          3D

 26 28  0  0  0  0  0  0  0  0999 V2000
    0.6189    1.2507   -0.0840 C   0  0  0  0  0  0  0  0  0  0  0  0
    1.2913    2.5577   -0.2710 C   0  0  0  0  0  0  0  0  0  0  0  0
    0.5775    3.7281   -0.0552 N   0  0  0  0  0  0  0  0  0  0  0  0
    1.1881    5.0706   -0.0129 C   0  0  0  0  0  0  0  0  0  0  0  0
    0.8057    5.8174    1.2783 C   0  0  0  0  0  0  0  0  0  0  0  0
    1.2318    5.1007    2.5629 C   0  0  0  0  0  0  0  0  0  0  0  0
   -0.7568    1.1128   -0.0213 C   0  0  0  0  0  0  0  0  0  0  0  0
   -1.3977   -0.0803    0.0347 N   0  0  0  0  0  0  0  0  0  0  0  0
   -0.6256   -1.1896    0.0282 C   0  0  0  0  0  0  0  0  0  0  0  0
    0.7578   -1.1643    0.0111 C   0  0  0  0  0  0  0  0  0  0  0  0
    1.3875    0.0770   -0.0303 C   0  0  0  0  0  0  0  0  0  0  0  0
    2.4825    2.5286   -0.5888 O   0  0  0  0  0  0  0  0  0  0  0  0
    0.7663    5.8900   -1.2235 C   0  0  0  0  0  0  0  0  0  0  0  0
    2.6984    4.9918    2.6673 N   0  0  0  0  0  0  0  0  0  0  0  0
    3.2151    3.6851    2.1804 C   0  0  0  0  0  0  0  0  0  0  0  0
    2.7822    2.4435    2.9831 C   0  0  0  0  0  0  0  0  0  0  0  0
    3.1511    2.6457    4.3776 N   0  0  0  0  0  0  0  0  0  0  0  0
    2.7185    3.9228    4.9640 C   0  0  0  0  0  0  0  0  0  0  0  0
    3.1580    5.1056    4.0646 C   0  0  0  0  0  0  0  0  0  0  0  0
    3.9532    1.7771    5.0739 C   0  0  0  0  0  0  0  0  0  0  0  0
    5.1991    1.3360    4.6007 C   0  0  0  0  0  0  0  0  0  0  0  0
    6.0048    0.4913    5.3773 C   0  0  0  0  0  0  0  0  0  0  0  0
    5.5529    0.0645    6.6192 C   0  0  0  0  0  0  0  0  0  0  0  0
    4.3132    0.4597    7.0954 C   0  0  0  0  0  0  0  0  0  0  0  0
    3.5257    1.3130    6.3244 C   0  0  0  0  0  0  0  0  0  0  0  0
    6.3212   -0.7368    7.3688 F   0  0  0  0  0  0  0  0  0  0  0  0
  1  7  2  0
  1  2  1  0
  2  3  1  0
  2 12  2  0
  3  4  1  0
  4 13  1  0
  4  5  1  0
  5  6  1  0
  6 14  1  0
  7  8  1  0
  8  9  2  0
  9 10  1  0
 10 11  2  0
 11  1  1  0
 14 15  1  0
 14 19  1  0
 15 16  1  0
 16 17  1  0
 17 18  1  0
 17 20  1  0
 18 19  1  0
 20 21  2  0
 21 22  1  0
 22 23  2  0
 23 24  1  0
 23 26  1  0
 24 25  2  0
 25 20  1  0
M  END
>  <DRUGBANK_ID>  (1) 
DB13687

>  <COMMON_NAME>  (1) 
Niaprazine

>  <CAS_NUMBER>  (1) 
27367-90-4

>  <UNII>  (1) 
R2H3YN6E3L

>  <SYNONYMS>  (1) 
Niaprazina; Niaprazine; Niaprazinum

$$$$
