1615
     RDKit          3D

 23 25  0  0  1  0  0  0  0  0999 V2000
    0.0384    1.6987    0.1827 S   0  0  0  0  0  0  0  0  0  0  0  0
    4.5211   -3.2371   -0.5467 O   0  0  0  0  0  0  0  0  0  0  0  0
    0.0531   -1.3253    0.6166 N   0  0  0  0  0  0  0  0  0  0  0  0
   -2.2507   -1.2354    3.1528 N   0  0  0  0  0  0  0  0  0  0  0  0
   -0.7940   -1.5817    3.2128 C   0  0  0  0  0  0  0  0  0  0  0  0
   -0.0927   -2.1875    1.8684 C   0  0  0  0  0  0  0  0  0  0  0  0
    1.3191   -0.7603    0.3666 C   0  0  0  0  0  0  0  0  0  0  0  0
   -1.0331   -0.8892   -0.1992 C   0  0  0  0  0  0  0  0  0  0  0  0
   -0.6567   -2.6331    4.3368 C   0  0  0  0  0  0  0  0  0  0  0  0
    1.4417    0.6152    0.0766 C   0  0  0  0  0  0  0  0  0  0  0  0
   -1.1924    0.5257   -0.4200 C   0  0  0  0  0  0  0  0  0  0  0  0
    2.4032   -1.6018    0.1218 C   0  0  0  0  0  0  0  0  0  0  0  0
   -2.9058   -0.7163    4.3337 C   0  0  0  0  0  0  0  0  0  0  0  0
   -2.4257   -0.1423    2.2419 C   0  0  0  0  0  0  0  0  0  0  0  0
   -2.1412   -1.7253   -0.4588 C   0  0  0  0  0  0  0  0  0  0  0  0
    3.5708   -1.0865   -0.4428 C   0  0  0  0  0  0  0  0  0  0  0  0
    2.6179    1.1379   -0.4446 C   0  0  0  0  0  0  0  0  0  0  0  0
   -2.4407    1.0683   -0.7638 C   0  0  0  0  0  0  0  0  0  0  0  0
    3.6744    0.2818   -0.7262 C   0  0  0  0  0  0  0  0  0  0  0  0
   -3.3869   -1.1596   -0.7950 C   0  0  0  0  0  0  0  0  0  0  0  0
   -3.5354    0.2251   -0.9434 C   0  0  0  0  0  0  0  0  0  0  0  0
    4.6566   -2.0501   -0.7741 C   0  0  0  0  0  0  0  0  0  0  0  0
    5.9154   -1.4949   -1.3843 C   0  0  0  0  0  0  0  0  0  0  0  0
  1 10  1  0
  1 11  1  0
  2 22  2  0
  3  6  1  0
  3  7  1  0
  3  8  1  0
  4  5  1  0
  4 13  1  0
  4 14  1  0
  5  6  1  0
  5  9  1  0
  7 10  2  0
  7 12  1  0
  8 11  2  0
  8 15  1  0
 10 17  1  0
 11 18  1  0
 12 16  2  0
 15 20  2  0
 16 19  1  0
 16 22  1  0
 17 19  2  0
 18 21  2  0
 20 21  1  0
 22 23  1  0
M  END
>  <DRUGBANK_ID>  (1) 
DB01615

>  <COMMON_NAME>  (1) 
Aceprometazine

>  <CAS_NUMBER>  (1) 
13461-01-3

>  <UNII>  (1) 
984N9YTM4Y

>  <SYNONYMS>  (1) 
10-(2-(Dimethylamino)propyl)phenothiazin-2-yl methyl ketone; Aceprometazina; Aceprometazine; Acéprométazine; Aceprometazinum; Acepromethazine

$$$$
