
     RDKit          3D

  8  8  0  0  0  0  0  0  0  0999 V2000
    0.9550   -0.1191   -0.0301 O   0  0  0  0  0  0  0  0  0  0  0  0
    0.4858    1.1085   -0.5693 C   0  0  0  0  0  0  0  0  0  0  0  0
    0.9141    2.3062    0.2299 C   0  0  0  0  0  0  0  0  0  0  0  0
    0.5467    3.5888   -0.1916 C   0  0  0  0  0  0  0  0  0  0  0  0
    0.8654    4.6967    0.5909 C   0  0  0  0  0  0  0  0  0  0  0  0
    1.5601    4.4868    1.7685 C   0  0  0  0  0  0  0  0  0  0  0  0
    1.9630    3.2732    2.1941 N   0  0  0  0  0  0  0  0  0  0  0  0
    1.6241    2.2129    1.4219 C   0  0  0  0  0  0  0  0  0  0  0  0
  1  2  1  0
  2  3  1  0
  3  4  2  0
  3  8  1  0
  4  5  1  0
  5  6  2  0
  6  7  1  0
  7  8  2  0
M  END
>  <DRUGBANK_ID>  (1) 
DB04145

>  <SECONDARY_ACCESSION_NUMBERS>  (1) 
EXPT02720

>  <COMMON_NAME>  (1) 
Nicotinyl alcohol

>  <CAS_NUMBER>  (1) 
100-55-0

>  <UNII>  (1) 
9TF312056Y

>  <SYNONYMS>  (1) 
3-pyridinemethanol; beta-pyridylcarbinol; Nicotinic alcohol; Nicotinyl alcohol; Pyridylcarbinol; Pyridylmethanol

$$$$
