
     RDKit          3D

 36 40  0  0  0  0  0  0  0  0999 V2000
    0.4467   -0.2249    0.4577 C   0  0  0  0  0  0  0  0  0  0  0  0
    2.4684    5.1216    4.9809 C   0  0  0  0  0  0  0  0  0  0  0  0
    5.1338    1.4856   -4.0143 C   0  0  0  0  0  0  0  0  0  0  0  0
    2.7453    5.6505    6.2498 C   0  0  0  0  0  0  0  0  0  0  0  0
    4.6476    0.8644   -2.8770 C   0  0  0  0  0  0  0  0  0  0  0  0
    0.1208    1.1271    7.9990 C   0  0  0  0  0  0  0  0  0  0  0  0
    1.1283    4.0769    9.7232 C   0  0  0  0  0  0  0  0  0  0  0  0
    2.0261    5.1256    9.7166 C   0  0  0  0  0  0  0  0  0  0  0  0
   -0.8274    0.1224    8.0223 C   0  0  0  0  0  0  0  0  0  0  0  0
    1.0121    3.5325    6.0089 C   0  0  0  0  0  0  0  0  0  0  0  0
    2.3546    2.7672    2.7609 C   0  0  0  0  0  0  0  0  0  0  0  0
    4.2699    3.6298   -3.2330 C   0  0  0  0  0  0  0  0  0  0  0  0
    0.0592    3.3297    3.0576 C   0  0  0  0  0  0  0  0  0  0  0  0
   -1.4995    2.5197    9.0170 C   0  0  0  0  0  0  0  0  0  0  0  0
    1.6220    4.0262    4.8436 C   0  0  0  0  0  0  0  0  0  0  0  0
   -0.2125    2.3838    8.5092 C   0  0  0  0  0  0  0  0  0  0  0  0
    1.3553    3.3900    3.5458 C   0  0  0  0  0  0  0  0  0  0  0  0
    4.9500    2.8611   -4.1721 C   0  0  0  0  0  0  0  0  0  0  0  0
    0.7421    3.5088    8.5025 C   0  0  0  0  0  0  0  0  0  0  0  0
    1.3012    4.0363    7.3034 C   0  0  0  0  0  0  0  0  0  0  0  0
    3.7908    3.0131   -2.1000 C   0  0  0  0  0  0  0  0  0  0  0  0
    2.2011    5.1174    7.4130 C   0  0  0  0  0  0  0  0  0  0  0  0
    2.0368    2.0768    1.5645 C   0  0  0  0  0  0  0  0  0  0  0  0
    4.0090    1.6558   -1.9185 C   0  0  0  0  0  0  0  0  0  0  0  0
    0.6637    1.9643    1.2873 C   0  0  0  0  0  0  0  0  0  0  0  0
    5.4261    3.4557   -5.2701 F   0  0  0  0  0  0  0  0  0  0  0  0
    3.0315    3.7143   -1.2464 F   0  0  0  0  0  0  0  0  0  0  0  0
    2.5549    5.6508    8.5936 N   0  0  0  0  0  0  0  0  0  0  0  0
   -0.2993    2.6261    1.9728 N   0  0  0  0  0  0  0  0  0  0  0  0
   -2.0622    0.3024    8.5275 N   0  0  0  0  0  0  0  0  0  0  0  0
   -2.4044    1.5158    9.0323 N   0  0  0  0  0  0  0  0  0  0  0  0
    3.1568    1.6953    0.6989 N   0  0  0  0  0  0  0  0  0  0  0  0
    3.4945   -0.4629   -0.5785 O   0  0  0  0  0  0  0  0  0  0  0  0
    1.7090    1.1080   -1.4328 O   0  0  0  0  0  0  0  0  0  0  0  0
    0.0914    1.1516    0.3660 O   0  0  0  0  0  0  0  0  0  0  0  0
    2.9687    0.8784   -0.7801 S   0  0  0  0  0  0  0  0  0  0  0  0
  4  2  2  0
  5  3  2  0
  8  7  1  0
  9  6  2  0
 15  2  1  0
 15 10  2  0
 16  6  1  0
 16 14  2  0
 17 11  2  0
 17 13  1  0
 17 15  1  0
 18  3  1  0
 18 12  2  0
 19  7  2  0
 19 16  1  0
 20 10  1  0
 20 19  1  0
 21 12  1  0
 22  4  1  0
 22 20  2  0
 23 11  1  0
 24  5  1  0
 24 21  2  0
 25 23  2  0
 26 18  1  0
 27 21  1  0
 28  8  2  0
 28 22  1  0
 29 13  2  0
 29 25  1  0
 30  9  1  0
 31 14  1  0
 31 30  2  0
 32 23  1  0
 35  1  1  0
 35 25  1  0
 36 24  1  0
 36 32  1  0
 36 33  2  0
 36 34  2  0
M  END
>  <DRUGBANK_ID>  (1) 
DB12703

>  <COMMON_NAME>  (1) 
Omipalisib

>  <CAS_NUMBER>  (1) 
1086062-66-9

>  <UNII>  (1) 
1X8F5A3NA0

>  <SYNONYMS>  (1) 
Omipalisib

$$$$
