
     RDKit          3D

 10 10  0  0  0  0  0  0  0  0999 V2000
    1.1727   -0.1276    0.1385 C   0  0  0  0  0  0  0  0  0  0  0  0
    0.5280    0.6486    1.2862 C   0  0  0  0  0  0  0  0  0  0  0  0
    0.9320    2.1270    1.3410 C   0  0  0  0  0  0  0  0  0  0  0  0
    0.4509    3.0188    0.2101 C   0  0  0  0  0  0  0  0  0  0  0  0
   -0.2559    2.4950   -0.8891 C   0  0  0  0  0  0  0  0  0  0  0  0
   -0.4773    3.2336   -2.0430 C   0  0  0  0  0  0  0  0  0  0  0  0
   -0.1119    4.5695   -2.0684 C   0  0  0  0  0  0  0  0  0  0  0  0
    0.4720    5.1463   -0.9388 C   0  0  0  0  0  0  0  0  0  0  0  0
    0.7487    4.3963    0.2144 C   0  0  0  0  0  0  0  0  0  0  0  0
    1.5200    4.9812    1.2322 N   0  0  0  0  0  0  0  0  0  0  0  0
  1  2  1  0
  2  3  1  0
  3  4  1  0
  4  5  2  0
  4  9  1  0
  5  6  1  0
  6  7  2  0
  7  8  1  0
  8  9  2  0
  9 10  1  0
M  END
>  <DRUGBANK_ID>  (1) 
DB02970

>  <SECONDARY_ACCESSION_NUMBERS>  (1) 
EXPT02667

>  <COMMON_NAME>  (1) 
2-Propyl-Aniline

>  <UNII>  (1) 
KDP5MSE5C0

$$$$
