C9P
     RDKit          3D

 30 32  0  0  0  0  0  0  0  0999 V2000
    1.3440   -0.2250    0.0360 C   0  0  0  0  0  0  0  0  0  0  0  0
   -1.0397    2.5525    0.3757 N   0  0  0  0  0  0  0  0  0  0  0  0
    0.3496    1.3849    5.5602 C   0  0  0  0  0  0  0  0  0  0  0  0
    0.1198    0.0891    5.3833 C   0  0  0  0  0  0  0  0  0  0  0  0
   -1.0252   -0.4915    5.8730 C   0  0  0  0  0  0  0  0  0  0  0  0
   -1.9955    0.2630    6.4718 C   0  0  0  0  0  0  0  0  0  0  0  0
   -1.6994    1.5304    6.6958 C   0  0  0  0  0  0  0  0  0  0  0  0
   -0.2642    4.6816    4.5053 C   0  0  0  0  0  0  0  0  0  0  0  0
   -0.2617    3.8878    3.3533 C   0  0  0  0  0  0  0  0  0  0  0  0
    3.8739    0.6472    0.2569 O   0  0  0  0  0  0  0  0  0  0  0  0
    0.8920    1.0800   -0.0700 C   0  0  0  0  0  0  0  0  0  0  0  0
   -0.5090    1.2150    0.0750 C   0  0  0  0  0  0  0  0  0  0  0  0
   -1.3730    0.2230   -0.0410 C   0  0  0  0  0  0  0  0  0  0  0  0
   -0.2881    4.9820   -0.5008 O   0  0  0  0  0  0  0  0  0  0  0  0
   -0.1052    4.6237    2.2017 C   0  0  0  0  0  0  0  0  0  0  0  0
   -0.8560   -1.0420    0.0030 C   0  0  0  0  0  0  0  0  0  0  0  0
    0.7909    4.3784    7.0073 O   0  0  0  0  0  0  0  0  0  0  0  0
    0.5020   -1.2510   -0.0040 C   0  0  0  0  0  0  0  0  0  0  0  0
   -0.1159    6.0057    4.2307 C   0  0  0  0  0  0  0  0  0  0  0  0
    1.4979    3.4437    0.3300 O   0  0  0  0  0  0  0  0  0  0  0  0
   -2.8621    0.4740   -0.2141 C   0  0  0  0  0  0  0  0  0  0  0  0
   -3.6634   -0.5065   -0.3225 O   0  0  0  0  0  0  0  0  0  0  0  0
    0.0584    3.9177    0.5431 S   0  0  0  0  0  0  0  0  0  0  0  0
   -3.3579    1.8040   -0.2547 O   0  0  0  0  0  0  0  0  0  0  0  0
    3.4151   -1.9091    0.3261 O   0  0  0  0  0  0  0  0  0  0  0  0
   -0.4453    4.0187    6.1798 S   0  0  0  0  0  0  0  0  0  0  0  0
    0.0479    6.3050    2.5445 S   0  0  0  0  0  0  0  0  0  0  0  0
   -1.6906    4.6207    6.8349 O   0  0  0  0  0  0  0  0  0  0  0  0
   -0.6156    2.2185    6.1008 C   0  0  0  0  0  0  0  0  0  0  0  0
    2.9103   -0.5014    0.2099 B   0  0  0  0  0  0  0  0  0  0  0  0
  1 18  2  0
  1 30  1  0
  2 12  1  0
  3  4  2  0
  5  4  1  0
  6  5  2  0
  7  6  1  0
  7 29  2  0
  8 26  1  0
  9  8  1  0
 11  1  1  0
 12 11  2  0
 12 13  1  0
 13 16  2  0
 14 23  2  0
 15  9  2  0
 16 18  1  0
 19  8  2  0
 21 13  1  0
 21 24  1  0
 22 21  2  0
 23  2  1  0
 23 15  1  0
 23 20  2  0
 26 17  2  0
 26 28  2  0
 26 29  1  0
 27 15  1  0
 27 19  1  0
 29  3  1  0
 30 10  1  0
 30 25  1  0
M  END
>  <DRUGBANK_ID>  (1) 
DB07541

>  <COMMON_NAME>  (1) 
4-(dihydroxyboranyl)-2-({[4-(phenylsulfonyl)thiophen-2-yl]sulfonyl}amino)benzoic acid

$$$$
