
     RDKit          3D

 16 16  0  0  0  0  0  0  0  0999 V2000
    1.0665   -0.0701    0.0229 C   0  0  0  0  0  0  0  0  0  0  0  0
    0.6455    0.8896   -1.0857 C   0  0  0  0  0  0  0  0  0  0  0  0
    1.1280    0.4747   -2.4136 N   0  0  0  0  0  0  0  0  0  0  0  0
    0.1132    0.2137   -3.4399 C   0  0  0  0  0  0  0  0  0  0  0  0
    0.1858    1.1557   -4.6324 C   0  0  0  0  0  0  0  0  0  0  0  0
    2.5095    0.4058   -2.6041 C   0  0  0  0  0  0  0  0  0  0  0  0
    3.2860    0.8444   -1.7409 O   0  0  0  0  0  0  0  0  0  0  0  0
    3.1200   -0.0915   -3.9072 C   0  0  0  0  0  0  0  0  0  0  0  0
    2.5860   -1.7141   -4.5126 S   0  0  0  0  0  0  0  0  0  0  0  0
    2.9909   -2.8115   -3.1756 C   0  0  0  0  0  0  0  0  0  0  0  0
    2.6852   -4.1579   -3.3313 C   0  0  0  0  0  0  0  0  0  0  0  0
    2.9814   -5.0503   -2.3053 C   0  0  0  0  0  0  0  0  0  0  0  0
    3.5715   -4.5473   -1.1666 C   0  0  0  0  0  0  0  0  0  0  0  0
    3.8671   -3.2416   -1.0246 N   0  0  0  0  0  0  0  0  0  0  0  0
    3.5738   -2.3635   -2.0481 N   0  0  0  0  0  0  0  0  0  0  0  0
    3.9656   -5.5582    0.1556 Cl  0  0  0  0  0  0  0  0  0  0  0  0
  1  2  1  0
  2  3  1  0
  3  4  1  0
  3  6  1  0
  4  5  1  0
  6  7  2  0
  6  8  1  0
  8  9  1  0
  9 10  1  0
 10 11  2  0
 10 15  1  0
 11 12  1  0
 12 13  2  0
 13 14  1  0
 13 16  1  0
 14 15  2  0
M  END
>  <DRUGBANK_ID>  (1) 
DB13992

>  <COMMON_NAME>  (1) 
Azintamide

>  <CAS_NUMBER>  (1) 
1830-32-6

>  <UNII>  (1) 
ACZ6L64B41

>  <SYNONYMS>  (1) 
Azintamid; Azintamida; Azintamide; Azintamidum; Oragallin

$$$$
