
     RDKit          3D

 20 22  0  0  0  0  0  0  0  0999 V2000
    1.0777    0.0045   -0.0867 O   0  0  0  0  0  0  0  0  0  0  0  0
    2.2968   -0.0031   -0.1424 C   0  0  0  0  0  0  0  0  0  0  0  0
    3.0492   -0.2694   -1.2306 N   0  0  0  0  0  0  0  0  0  0  0  0
    4.3773   -0.1724   -0.9416 C   0  0  0  0  0  0  0  0  0  0  0  0
    5.2832   -0.3880   -1.7328 O   0  0  0  0  0  0  0  0  0  0  0  0
    4.5293    0.1884    0.5492 C   0  0  1  0  0  0  0  0  0  0  0  0
    3.1271    0.2542    0.9106 N   0  0  0  0  0  0  0  0  0  0  0  0
    5.2456   -0.8926    1.3185 C   0  0  0  0  0  0  0  0  0  0  0  0
    6.2114   -0.5586    2.2764 C   0  0  0  0  0  0  0  0  0  0  0  0
    6.5339    0.7334    2.6045 O   0  0  0  0  0  0  0  0  0  0  0  0
    5.5887    1.7228    2.1830 C   0  0  1  0  0  0  0  0  0  0  0  0
    5.2322    1.5334    0.7064 C   0  0  0  0  0  0  0  0  0  0  0  0
    4.3185    1.7809    3.0654 C   0  0  0  0  0  0  0  0  0  0  0  0
    4.1873    0.8234    4.0300 N   0  0  0  0  0  0  0  0  0  0  0  0
    3.3925    2.5581    2.8510 O   0  0  0  0  0  0  0  0  0  0  0  0
    4.9502   -2.2478    1.1029 C   0  0  0  0  0  0  0  0  0  0  0  0
    5.6115   -3.2295    1.8249 C   0  0  0  0  0  0  0  0  0  0  0  0
    6.8651   -1.5528    3.0069 C   0  0  0  0  0  0  0  0  0  0  0  0
    6.5593   -2.8941    2.7817 C   0  0  0  0  0  0  0  0  0  0  0  0
    5.3245   -4.5157    1.5923 F   0  0  0  0  0  0  0  0  0  0  0  0
  1  2  2  0
  2  3  1  0
  2  7  1  0
  3  4  1  0
  4  5  2  0
  6  4  1  0
  6  7  1  0
  6  8  1  0
  6 12  1  6
  8  9  2  0
  8 16  1  0
  9 10  1  0
  9 18  1  0
 10 11  1  0
 11 12  1  0
 11 13  1  1
 13 14  1  0
 13 15  2  0
 16 17  2  0
 17 19  1  0
 17 20  1  0
 18 19  2  0
M  END
>  <DRUGBANK_ID>  (1) 
DB02021

>  <SECONDARY_ACCESSION_NUMBERS>  (1) 
EXPT01433

>  <COMMON_NAME>  (1) 
Fidarestat

>  <CAS_NUMBER>  (1) 
136087-85-9

>  <UNII>  (1) 
8SH8T1164U

>  <SYNONYMS>  (1) 
(S,S)-fidarestat; Aldos; Fidarestat

$$$$
