
     RDKit          3D

 38 43  0  0  1  0  0  0  0  0999 V2000
    1.6538   -0.3300   -0.3810 F   0  0  0  0  0  0  0  0  0  0  0  0
    0.7605   -0.2874    0.6402 C   0  0  2  0  0  0  0  0  0  0  0  0
   -0.2465   -1.3769    0.4988 C   0  0  0  0  0  0  0  0  0  0  0  0
   -1.3165   -0.8177   -0.4603 C   0  0  0  0  0  0  0  0  0  0  0  0
   -1.1566    0.6821   -0.4811 N   0  0  0  0  0  0  0  0  0  0  0  0
   -0.0799    0.9289    0.4873 C   0  0  0  0  0  0  0  0  0  0  0  0
   -0.8575    1.3507   -2.0282 S   0  0  0  0  0  0  0  0  0  0  0  0
    0.4246    0.8337   -2.4746 O   0  0  0  0  0  0  0  0  0  0  0  0
   -2.0232    1.1328   -2.8397 O   0  0  0  0  0  0  0  0  0  0  0  0
   -0.6244    3.0222   -1.8535 N   0  0  0  0  0  0  0  0  0  0  0  0
   -0.9311    3.8286   -0.7043 C   0  0  0  0  0  0  0  0  0  0  0  0
   -0.1595    3.7013    0.4434 C   0  0  0  0  0  0  0  0  0  0  0  0
   -0.5841    4.1517    1.6741 C   0  0  0  0  0  0  0  0  0  0  0  0
   -1.5886    5.0811    1.7057 C   0  0  0  0  0  0  0  0  0  0  0  0
   -1.8925    5.5489    2.9186 F   0  0  0  0  0  0  0  0  0  0  0  0
   -2.1665    5.5480    0.5220 C   0  0  0  0  0  0  0  0  0  0  0  0
   -3.0807    6.7211    0.5344 C   0  0  0  0  0  0  0  0  0  0  0  0
   -3.6204    7.0731   -0.5053 O   0  0  0  0  0  0  0  0  0  0  0  0
   -3.3611    7.4377    1.7818 C   0  0  0  0  0  0  0  0  0  0  0  0
   -4.6419    7.6327    2.2744 C   0  0  0  0  0  0  0  0  0  0  0  0
   -4.5623    8.3521    3.4371 N   0  0  0  0  0  0  0  0  0  0  0  0
   -3.2580    8.6439    3.7110 C   0  0  0  0  0  0  0  0  0  0  0  0
   -2.8509    9.3485    4.7817 N   0  0  0  0  0  0  0  0  0  0  0  0
   -1.5112    9.5202    4.8175 C   0  0  0  0  0  0  0  0  0  0  0  0
   -0.5965    9.0295    3.8840 C   0  0  0  0  0  0  0  0  0  0  0  0
   -1.0906    8.3002    2.7941 C   0  0  0  0  0  0  0  0  0  0  0  0
   -2.4769    8.1014    2.6960 C   0  0  0  0  0  0  0  0  0  0  0  0
    0.8218    9.2971    4.0081 C   0  0  0  0  0  0  0  0  0  0  0  0
    1.5725    8.9333    5.1070 C   0  0  0  0  0  0  0  0  0  0  0  0
    2.8847    9.2030    5.2464 N   0  0  0  0  0  0  0  0  0  0  0  0
    3.4821    9.8701    4.2391 C   0  0  0  0  0  0  0  0  0  0  0  0
    2.8305   10.2482    3.1185 N   0  0  0  0  0  0  0  0  0  0  0  0
    1.5268    9.9559    3.0262 C   0  0  0  0  0  0  0  0  0  0  0  0
    4.9589   10.1489    4.3348 C   0  0  0  0  0  0  0  0  0  0  0  0
    5.5138   11.5522    4.3876 C   0  0  0  0  0  0  0  0  0  0  0  0
    5.6520   10.7486    3.1270 C   0  0  0  0  0  0  0  0  0  0  0  0
   -1.8701    4.8631   -0.6857 C   0  0  0  0  0  0  0  0  0  0  0  0
   -2.4141    5.2404   -1.8531 F   0  0  0  0  0  0  0  0  0  0  0  0
  2  1  1  6
  2  3  1  0
  2  6  1  0
  3  4  1  0
  4  5  1  0
  5  6  1  0
  5  7  1  0
  7  8  2  0
  7  9  2  0
  7 10  1  0
 10 11  1  0
 11 12  2  0
 11 37  1  0
 12 13  1  0
 13 14  2  0
 14 15  1  0
 14 16  1  0
 16 17  1  0
 16 37  2  0
 17 18  2  0
 17 19  1  0
 19 20  2  0
 19 27  1  0
 20 21  1  0
 21 22  1  0
 22 23  1  0
 22 27  2  0
 23 24  2  0
 24 25  1  0
 25 26  2  0
 25 28  1  0
 26 27  1  0
 28 29  2  0
 28 33  1  0
 29 30  1  0
 30 31  2  0
 31 32  1  0
 31 34  1  0
 32 33  2  0
 34 35  1  0
 34 36  1  0
 35 36  1  0
 37 38  1  0
M  END
>  <DRUGBANK_ID>  (1) 
DB16038

>  <COMMON_NAME>  (1) 
PLX8394

>  <CAS_NUMBER>  (1) 
1393466-87-9

>  <UNII>  (1) 
J2L7Z273SG

$$$$
