1626
     RDKit          3D

 12 12  0  0  1  0  0  0  0  0999 V2000
    0.9061    0.0200   -0.1346 N   0  0  0  0  0  0  0  0  0  0  0  0
    0.3521    0.3270   -1.4974 C   0  0  0  0  0  0  0  0  0  0  0  0
    0.6252   -0.6162   -2.6841 C   0  0  0  0  0  0  0  0  0  0  0  0
    0.4269   -1.2479    0.4609 C   0  0  0  0  0  0  0  0  0  0  0  0
    2.3693    0.1014   -0.0658 C   0  0  0  0  0  0  0  0  0  0  0  0
    1.7868   -0.4986   -3.4522 C   0  0  0  0  0  0  0  0  0  0  0  0
   -0.1976   -1.7501   -2.9099 C   0  0  0  0  0  0  0  0  0  0  0  0
    2.2336   -1.5533   -4.2660 C   0  0  0  0  0  0  0  0  0  0  0  0
    0.2826   -2.8317   -3.6812 C   0  0  0  0  0  0  0  0  0  0  0  0
    1.5128   -2.7518   -4.3173 C   0  0  0  0  0  0  0  0  0  0  0  0
    0.9336   -2.3504   -0.4545 C   0  0  0  0  0  0  0  0  0  0  0  0
    1.3682   -3.2962   -1.2398 C   0  0  0  0  0  0  0  0  0  0  0  0
  1  2  1  0
  1  4  1  0
  1  5  1  0
  2  3  1  0
  3  6  2  0
  3  7  1  0
  4 11  1  0
  6  8  1  0
  7  9  2  0
  8 10  2  0
  9 10  1  0
 11 12  3  0
M  END
>  <DRUGBANK_ID>  (1) 
DB01626

>  <COMMON_NAME>  (1) 
Pargyline

>  <CAS_NUMBER>  (1) 
555-57-7

>  <UNII>  (1) 
9MV14S8G3E

>  <SYNONYMS>  (1) 
Pargilina; Pargyline; Pargylinum

$$$$
