
     RDKit          3D

 12 11  0  0  0  0  0  0  0  0999 V2000
   -0.7651   -1.8207   -0.7001 C   0  0  0  0  0  0  0  0  0  0  0  0
   -0.5541   -2.6627    0.1734 O   0  0  0  0  0  0  0  0  0  0  0  0
    0.2336   -0.6994   -1.1122 C   0  0  1  0  0  0  0  0  0  0  0  0
   -0.4592    0.3958   -1.8112 N   0  0  0  0  0  0  0  0  0  0  0  0
    1.0163   -0.0569    0.0519 C   0  0  0  0  0  0  0  0  0  0  0  0
    1.4293   -1.0180    1.1606 C   0  0  0  0  0  0  0  0  0  0  0  0
    2.2689   -2.1692    0.6270 C   0  0  0  0  0  0  0  0  0  0  0  0
    3.6072   -1.6919    0.2460 N   0  0  0  0  0  0  0  0  0  0  0  0
    4.7526   -2.0924    0.8084 C   0  0  0  0  0  0  0  0  0  0  0  0
    5.9110   -1.5611    0.4051 N   0  0  0  0  0  0  0  0  0  0  0  0
    4.7805   -3.0122    1.7737 N   0  0  0  0  0  0  0  0  0  0  0  0
   -1.9090   -1.9244   -1.4217 N   0  0  0  0  0  0  0  0  0  0  0  0
  2  1  2  0
  3  4  1  1
  3  5  1  0
  3  1  1  0
  6  5  1  0
  7  6  1  0
  8  7  1  0
  9  8  1  0
 10  9  1  0
 11  9  2  0
 12  1  1  0
M  CHG  1  11   1
M  END
>  <DRUGBANK_ID>  (1) 
DB02299

>  <SECONDARY_ACCESSION_NUMBERS>  (1) 
EXPT00385

>  <COMMON_NAME>  (1) 
Arginineamide

>  <SYNONYMS>  (1) 
L-arginine amide(1+)

$$$$
