LDM
     RDKit          3D

 21 20  0  0  0  0  0  0  0  0999 V2000
    0.9822   -0.0551   -0.0890 N   0  0  0  0  0  0  0  0  0  0  0  0
    0.5273   -0.2229   -1.3794 O   0  0  0  0  0  0  0  0  0  0  0  0
    0.4808   -1.2327    0.7374 C   0  0  0  0  0  0  0  0  0  0  0  0
    0.4170   -0.1791    3.0740 C   0  0  0  0  0  0  0  0  0  0  0  0
   -1.7067    0.1326    4.1552 C   0  0  0  0  0  0  0  0  0  0  0  0
   -3.2089    0.0191    4.0310 C   0  0  0  0  0  0  0  0  0  0  0  0
   -3.2494   -1.1861    6.2654 C   0  0  0  0  0  0  0  0  0  0  0  0
   -3.7678    0.0819    6.9547 C   0  0  0  0  0  0  0  0  0  0  0  0
   -5.8157   -1.1446    7.7174 C   0  0  0  0  0  0  0  0  0  0  0  0
   -5.3073   -1.1228    9.1627 C   0  0  0  0  0  0  0  0  0  0  0  0
   -5.8069    0.1364    9.8800 C   0  0  0  0  0  0  0  0  0  0  0  0
    0.4726    1.2761    0.3808 C   0  0  0  0  0  0  0  0  0  0  0  0
    2.4838   -0.0434   -0.0952 C   0  0  0  0  0  0  0  0  0  0  0  0
    0.9353   -1.2950    2.1937 C   0  0  0  0  0  0  0  0  0  0  0  0
   -5.2980    0.0820    6.9605 C   0  0  0  0  0  0  0  0  0  0  0  0
   -1.0194   -0.0883    2.9975 N   0  0  0  0  0  0  0  0  0  0  0  0
   -7.8960   -1.0637   10.6462 C   0  0  0  0  0  0  0  0  0  0  0  0
   -7.3898   -1.1100   12.0787 C   0  0  0  0  0  0  0  0  0  0  0  0
   -1.1298    0.3405    5.2073 O   0  0  0  0  0  0  0  0  0  0  0  0
   -3.6819   -1.2198    4.7931 C   0  0  0  0  0  0  0  0  0  0  0  0
   -7.3388    0.1640    9.9241 C   0  0  0  0  0  0  0  0  0  0  0  0
  1  2  1  0
  1  3  1  0
  1 12  1  0
  1 13  1  0
  3 14  1  0
  4 14  1  0
  4 16  1  0
  5  6  1  0
  5 16  1  0
  5 19  2  0
  6 20  1  0
  7  8  1  0
  7 20  1  0
  8 15  1  0
  9 10  1  0
  9 15  1  0
 10 11  1  0
 11 21  1  0
 17 18  1  0
 17 21  1  0
M  CHG  2   1   1   2  -1
M  END
>  <DRUGBANK_ID>  (1) 
DB01736

>  <SECONDARY_ACCESSION_NUMBERS>  (1) 
EXPT02014

>  <COMMON_NAME>  (1) 
[3-(Dodecanoylamino)Propyl](Hydroxy)Dimethylammonium

>  <UNII>  (1) 
I6KX160QTV

$$$$
