
     RDKit          3D

 20 22  0  0  0  0  0  0  0  0999 V2000
    0.8740   -0.3114   -0.2275 C   0  0  0  0  0  0  0  0  0  0  0  0
    0.5409    0.8932   -1.0221 C   0  0  0  0  0  0  0  0  0  0  0  0
   -0.1438    0.6183   -2.2144 C   0  0  0  0  0  0  0  0  0  0  0  0
   -0.6446    1.6459   -2.9810 C   0  0  0  0  0  0  0  0  0  0  0  0
   -0.2293    2.9474   -2.7245 C   0  0  0  0  0  0  0  0  0  0  0  0
    0.5773    3.2204   -1.5906 C   0  0  0  0  0  0  0  0  0  0  0  0
    0.9155    2.2068   -0.6525 C   0  0  0  0  0  0  0  0  0  0  0  0
    1.8174    2.6567    0.8727 S   0  0  0  0  0  0  0  0  0  0  0  0
    2.0635    1.2763    1.9630 C   0  0  0  0  0  0  0  0  0  0  0  0
    2.9268    0.2270    1.6448 C   0  0  0  0  0  0  0  0  0  0  0  0
    2.7924   -0.9611    2.3478 C   0  0  0  0  0  0  0  0  0  0  0  0
    2.1050   -1.0646    3.4989 N   0  0  0  0  0  0  0  0  0  0  0  0
    1.4794    0.0527    3.9241 C   0  0  0  0  0  0  0  0  0  0  0  0
    1.3590    1.2040    3.1622 C   0  0  0  0  0  0  0  0  0  0  0  0
    1.0847    4.6134   -1.5238 C   0  0  0  0  0  0  0  0  0  0  0  0
    1.8430    5.0566   -0.6588 O   0  0  0  0  0  0  0  0  0  0  0  0
    0.7122    5.4514   -2.5355 N   0  0  0  0  0  0  0  0  0  0  0  0
   -0.0853    5.0965   -3.5739 C   0  0  0  0  0  0  0  0  0  0  0  0
   -0.5795    3.9123   -3.6861 N   0  0  0  0  0  0  0  0  0  0  0  0
   -0.3309    6.0545   -4.4877 N   0  0  0  0  0  0  0  0  0  0  0  0
  1  2  1  0
  2  3  2  0
  2  7  1  0
  3  4  1  0
  4  5  2  0
  5  6  1  0
  5 19  1  0
  6  7  2  0
  6 15  1  0
  7  8  1  0
  8  9  1  0
  9 10  2  0
  9 14  1  0
 10 11  1  0
 11 12  2  0
 12 13  1  0
 13 14  2  0
 15 16  2  0
 15 17  1  0
 17 18  1  0
 18 19  2  0
 18 20  1  0
M  END
>  <DRUGBANK_ID>  (1) 
DB12912

>  <COMMON_NAME>  (1) 
Nolatrexed

>  <CAS_NUMBER>  (1) 
147149-76-6

>  <UNII>  (1) 
K75ZUN743Q

>  <SYNONYMS>  (1) 
Nolatrexed

$$$$
