
     RDKit          3D

 13 13  0  0  0  0  0  0  0  0999 V2000
    0.9832    0.0314   -0.0969 C   0  0  0  0  0  0  0  0  0  0  0  0
   -1.1616    0.9005    0.8253 C   0  0  0  0  0  0  0  0  0  0  0  0
   -1.7474    0.5107    2.1941 C   0  0  0  0  0  0  0  0  0  0  0  0
   -1.7503    2.8667    3.0982 C   0  0  0  0  0  0  0  0  0  0  0  0
   -0.7397    1.1137    4.4356 C   0  0  0  0  0  0  0  0  0  0  0  0
   -1.3671    3.8144    4.0422 C   0  0  0  0  0  0  0  0  0  0  0  0
   -0.3890    2.0631    5.3963 C   0  0  0  0  0  0  0  0  0  0  0  0
    1.1617    1.7910    1.5944 C   0  0  0  0  0  0  0  0  0  0  0  0
    0.3518    0.8610    0.7503 C   0  0  0  0  0  0  0  0  0  0  0  0
   -1.4321    1.5084    3.2810 C   0  0  0  0  0  0  0  0  0  0  0  0
   -0.7084    3.4013    5.1919 C   0  0  0  0  0  0  0  0  0  0  0  0
   -0.3708    4.3101    6.1153 F   0  0  0  0  0  0  0  0  0  0  0  0
    2.4479    1.8538    1.7203 N   0  0  0  0  0  0  0  0  0  0  0  0
  3  2  1  0
  6  4  2  0
  7  5  1  0
  9  1  2  0
  9  2  1  0
  9  8  1  0
 10  3  1  0
 10  4  1  0
 10  5  2  0
 11  6  1  0
 11  7  2  0
 12 11  1  0
 13  8  2  0
M  END
>  <DRUGBANK_ID>  (1) 
DB08176

>  <COMMON_NAME>  (1) 
(1Z)-4-(4-FLUOROPHENYL)-2-METHYLIDENEBUTAN-1-IMINE

$$$$
