
     RDKit          3D

 15 15  0  0  0  0  0  0  0  0999 V2000
    0.0391    0.6993   -0.0118 C   0  0  0  0  0  0  0  0  0  0  0  0
    0.1009    2.2210    0.0338 C   0  0  0  0  0  0  0  0  0  0  0  0
   -1.1758   -0.0186   -0.0040 C   0  0  0  0  0  0  0  0  0  0  0  0
    1.2295   -0.0555   -0.0199 C   0  0  0  0  0  0  0  0  0  0  0  0
    0.6840    2.7183    1.3556 C   0  0  0  0  0  0  0  0  0  0  0  0
   -1.1907   -1.4231   -0.0045 C   0  0  0  0  0  0  0  0  0  0  0  0
   -2.7217    0.7588   -0.0097 Cl  0  0  0  0  0  0  0  0  0  0  0  0
    1.2090   -1.4551   -0.0047 C   0  0  0  0  0  0  0  0  0  0  0  0
    2.7902    0.6925   -0.0779 Cl  0  0  0  0  0  0  0  0  0  0  0  0
    1.8101    3.5423    1.2677 N   0  0  0  0  0  0  0  0  0  0  0  0
    0.1298    2.3644    2.3989 O   0  0  0  0  0  0  0  0  0  0  0  0
    0.0005   -2.1412   -0.0005 C   0  0  0  0  0  0  0  0  0  0  0  0
    2.5197    4.0195    2.3453 C   0  0  0  0  0  0  0  0  0  0  0  0
    3.6218    4.7731    2.1514 N   0  0  0  0  0  0  0  0  0  0  0  0
    2.1331    3.7484    3.5388 N   0  0  0  0  0  0  0  0  0  0  0  0
  1  2  1  0
  1  3  2  0
  1  4  1  0
  2  5  1  0
  3  6  1  0
  3  7  1  0
  4  8  2  0
  4  9  1  0
  5 10  1  0
  5 11  2  0
  6 12  2  0
  8 12  1  0
 10 13  1  0
 13 14  1  0
 13 15  2  0
M  END
>  <DRUGBANK_ID>  (1) 
DB01018

>  <SECONDARY_ACCESSION_NUMBERS>  (1) 
APRD00075

>  <COMMON_NAME>  (1) 
Guanfacine

>  <CAS_NUMBER>  (1) 
29110-47-2

>  <UNII>  (1) 
30OMY4G3MK

>  <SYNONYMS>  (1) 
Guanfacina; Guanfacine; Guanfacinum

$$$$
