
     RDKit          3D

 32 34  0  0  0  0  0  0  0  0999 V2000
    1.0597   -0.0715   -0.0207 C   0  0  0  0  0  0  0  0  0  0  0  0
    0.5323    0.9928   -0.9533 C   0  0  0  0  0  0  0  0  0  0  0  0
    1.0347    0.7577   -2.2698 N   0  0  0  0  0  0  0  0  0  0  0  0
    0.3812    1.6382   -3.4863 S   0  0  0  0  0  0  0  0  0  0  0  0
    0.5499   -1.4636   -0.3693 C   0  0  0  0  0  0  0  0  0  0  0  0
    1.1153    3.1236   -3.1933 N   0  0  0  0  0  0  0  0  0  0  0  0
    0.9310    0.8826   -4.5971 O   0  0  0  0  0  0  0  0  0  0  0  0
   -1.0225    1.7549   -3.2463 O   0  0  0  0  0  0  0  0  0  0  0  0
    1.4432    4.0934   -4.2031 C   0  0  0  0  0  0  0  0  0  0  0  0
    2.3805    4.9626   -3.7346 N   0  0  0  0  0  0  0  0  0  0  0  0
    2.8984    5.8281   -4.6224 C   0  0  0  0  0  0  0  0  0  0  0  0
    2.5335    5.9379   -5.8977 N   0  0  0  0  0  0  0  0  0  0  0  0
    1.6007    5.0507   -6.3348 C   0  0  0  0  0  0  0  0  0  0  0  0
    0.9170    4.1308   -5.4885 C   0  0  0  0  0  0  0  0  0  0  0  0
    1.6400    5.0203   -7.7124 O   0  0  0  0  0  0  0  0  0  0  0  0
    0.9214    3.9773   -8.3315 C   0  0  0  0  0  0  0  0  0  0  0  0
    1.5297    2.5367   -8.2204 C   0  0  0  0  0  0  0  0  0  0  0  0
    2.0208    1.9685   -6.9839 O   0  0  0  0  0  0  0  0  0  0  0  0
    3.8309    3.3554   -6.7799 N   0  0  0  0  0  0  0  0  0  0  0  0
    3.1432    2.3358   -6.3081 C   0  0  0  0  0  0  0  0  0  0  0  0
    3.3070    1.8034   -5.0675 N   0  0  0  0  0  0  0  0  0  0  0  0
    4.2445    2.3444   -4.2579 C   0  0  0  0  0  0  0  0  0  0  0  0
    4.9880    3.4222   -4.6486 C   0  0  0  0  0  0  0  0  0  0  0  0
    4.7057    3.9013   -5.9116 C   0  0  0  0  0  0  0  0  0  0  0  0
    6.2331    4.2755   -3.5367 Br  0  0  0  0  0  0  0  0  0  0  0  0
   -2.7185    3.3173   -5.7052 C   0  0  0  0  0  0  0  0  0  0  0  0
   -1.5065    3.9263   -5.3725 C   0  0  0  0  0  0  0  0  0  0  0  0
   -0.3281    3.3705   -5.8133 C   0  0  0  0  0  0  0  0  0  0  0  0
   -0.4872    2.0952   -6.4322 C   0  0  0  0  0  0  0  0  0  0  0  0
   -1.6488    1.5871   -6.9593 C   0  0  0  0  0  0  0  0  0  0  0  0
   -2.7876    2.2106   -6.5628 C   0  0  0  0  0  0  0  0  0  0  0  0
   -4.4132    1.4576   -7.1127 Br  0  0  0  0  0  0  0  0  0  0  0  0
  1  2  1  0
  1  5  1  0
  2  3  1  0
  3  4  1  0
  4  6  1  0
  4  7  2  0
  4  8  2  0
  6  9  1  0
  9 10  2  0
  9 14  1  0
 10 11  1  0
 11 12  2  0
 12 13  1  0
 13 14  2  0
 13 15  1  0
 14 28  1  0
 15 16  1  0
 16 17  1  0
 17 18  1  0
 18 20  1  0
 19 20  2  0
 19 24  1  0
 20 21  1  0
 21 22  2  0
 22 23  1  0
 23 24  2  0
 23 25  1  0
 26 27  2  0
 26 31  1  0
 27 28  1  0
 28 29  2  0
 29 30  1  0
 30 31  2  0
 31 32  1  0
M  END
>  <DRUGBANK_ID>  (1) 
DB08932

>  <COMMON_NAME>  (1) 
Macitentan

>  <CAS_NUMBER>  (1) 
441798-33-0

>  <UNII>  (1) 
Z9K9Y9WMVL

>  <SYNONYMS>  (1) 
MacitentÃ¡n; Macitentan; Macitentanum

$$$$
