LAE
     RDKit          3D

 17 17  0  0  0  0  0  0  0  0999 V2000
    0.2221    1.3118   -0.0944 C   0  0  2  0  0  0  0  0  0  0  0  0
   -0.6929    0.1041    0.0116 C   0  0  0  0  0  0  0  0  0  0  0  0
    0.0391   -1.0486    0.0208 O   0  0  0  0  0  0  0  0  0  0  0  0
    1.4203   -0.7412   -0.1526 C   0  0  0  0  0  0  0  0  0  0  0  0
    1.5827    0.7167    0.2006 C   0  0  0  0  0  0  0  0  0  0  0  0
   -1.9085    0.1388    0.0885 O   0  0  0  0  0  0  0  0  0  0  0  0
   -0.1530    2.3829    0.8232 N   0  0  0  0  0  0  0  0  0  0  0  0
    0.3852    3.6412    0.7009 C   0  0  0  0  0  0  0  0  0  0  0  0
   -0.0791    4.6650    1.7071 C   0  0  0  0  0  0  0  0  0  0  0  0
    1.0932    5.1734    2.4925 C   0  0  0  0  0  0  0  0  0  0  0  0
    1.3902    6.6652    2.4797 C   0  0  0  0  0  0  0  0  0  0  0  0
    1.3445    7.2612    3.8883 C   0  0  0  0  0  0  0  0  0  0  0  0
    2.3818    6.6495    4.8415 C   0  0  0  0  0  0  0  0  0  0  0  0
    3.8154    6.7814    4.3213 C   0  0  0  0  0  0  0  0  0  0  0  0
    4.2216    8.2421    4.2165 C   0  0  0  0  0  0  0  0  0  0  0  0
    1.2034    3.9257   -0.1708 O   0  0  0  0  0  0  0  0  0  0  0  0
    1.7890    4.3724    3.1221 O   0  0  0  0  0  0  0  0  0  0  0  0
  1  2  1  0
  1  5  1  0
  1  7  1  1
  2  3  1  0
  2  6  2  0
  3  4  1  0
  4  5  1  0
  7  8  1  0
  8  9  1  0
  8 16  2  0
  9 10  1  0
 10 11  1  0
 10 17  2  0
 11 12  1  0
 12 13  1  0
 13 14  1  0
 14 15  1  0
M  END
>  <DRUGBANK_ID>  (1) 
DB08081

>  <COMMON_NAME>  (1) 
3-OXO-OCTANOIC ACID (2-OXO-TETRAHYDRO-FURAN-3-YL)-AMIDE

$$$$
