
     RDKit          3D

 20 21  0  0  0  0  0  0  0  0999 V2000
    3.7731    3.6657   -0.5141 C   0  0  0  0  0  0  0  0  0  0  0  0
    2.8636    2.5280   -0.0605 C   0  0  0  0  0  0  0  0  0  0  0  0
    2.8592    2.5491    1.4585 C   0  0  0  0  0  0  0  0  0  0  0  0
    1.4102    2.5220   -0.6083 C   0  0  2  0  0  0  0  0  0  0  0  0
    1.4777    2.0239   -2.0516 C   0  0  0  0  0  0  0  0  0  0  0  0
    1.6838    3.1743   -3.0895 C   0  0  0  0  0  0  0  0  0  0  0  0
    1.1041    4.6202   -2.8360 C   0  0  1  0  0  0  0  0  0  0  0  0
   -0.2049    5.0871   -3.5116 C   0  0  0  0  0  0  0  0  0  0  0  0
    1.0775    4.9844   -1.3551 C   0  0  0  0  0  0  0  0  0  0  0  0
    0.5889    3.8321   -0.4743 C   0  0  1  0  0  0  0  0  0  0  0  0
   -0.8614    3.6333   -0.6645 O   0  0  0  0  0  0  0  0  0  0  0  0
   -1.3700    3.0711   -1.7722 C   0  0  0  0  0  0  0  0  0  0  0  0
   -0.7759    2.5321   -2.7111 O   0  0  0  0  0  0  0  0  0  0  0  0
   -2.7721    3.1767   -2.0832 C   0  0  0  0  0  0  0  0  0  0  0  0
   -3.2335    2.1809   -2.9762 C   0  0  0  0  0  0  0  0  0  0  0  0
   -4.5192    2.2088   -3.4543 C   0  0  0  0  0  0  0  0  0  0  0  0
   -5.3351    3.2633   -3.0681 C   0  0  0  0  0  0  0  0  0  0  0  0
   -4.8430    4.3204   -2.2781 C   0  0  0  0  0  0  0  0  0  0  0  0
   -3.5397    4.2921   -1.7990 C   0  0  0  0  0  0  0  0  0  0  0  0
   -2.9956    5.3558   -1.1431 O   0  0  0  0  0  0  0  0  0  0  0  0
  1  2  1  0
  2  3  1  0
  4  5  1  0
  4 10  1  0
  4  2  1  6
  5  6  1  0
  6  7  1  0
  7  9  1  0
  7  8  1  1
  9 10  1  0
 10 11  1  6
 11 12  1  0
 12 13  2  0
 12 14  1  0
 14 15  2  0
 14 19  1  0
 15 16  1  0
 16 17  2  0
 17 18  1  0
 18 19  2  0
 19 20  1  0
M  END
>  <DRUGBANK_ID>  (1) 
DB11201

>  <COMMON_NAME>  (1) 
Menthyl salicylate

>  <CAS_NUMBER>  (1) 
89-46-3

>  <UNII>  (1) 
43XOA705ZD

>  <SYNONYMS>  (1) 
1-Menthyl salicylate; Menthyl salicylate, (+/-)-

$$$$
