
     RDKit          3D

  8  7  0  0  1  0  0  0  0  0999 V2000
    0.8922   -0.0585    0.0338 N   0  0  0  0  0  0  0  0  0  0  0  0
    0.3804    0.3667    1.3566 C   0  0  1  0  0  0  0  0  0  0  0  0
    0.9174    1.7508    1.7683 C   0  0  0  0  0  0  0  0  0  0  0  0
    0.4646    3.1906    0.7217 S   0  0  0  0  0  0  0  0  0  0  0  0
    0.9773    2.6773   -0.7759 O   0  0  0  0  0  0  0  0  0  0  0  0
   -1.1608    0.3508    1.3570 C   0  0  0  0  0  0  0  0  0  0  0  0
   -1.7237   -0.5225    2.2263 O   0  0  0  0  0  0  0  0  0  0  0  0
   -1.8619    1.0564    0.6394 O   0  0  0  0  0  0  0  0  0  0  0  0
  2  1  1  6
  2  3  1  0
  2  6  1  0
  3  4  1  0
  4  5  1  0
  6  7  1  0
  6  8  2  0
M  END
>  <DRUGBANK_ID>  (1) 
DB01915

>  <SECONDARY_ACCESSION_NUMBERS>  (1) 
EXPT01035; DB03398

>  <COMMON_NAME>  (1) 
S-Hydroxycysteine

>  <UNII>  (1) 
FB8KIA847T

$$$$
