6NH
     RDKit          3D

 24 27  0  0  0  0  0  0  0  0999 V2000
    2.1534    0.7607   -0.0170 C   0  0  0  0  0  0  0  0  0  0  0  0
    2.1867   -0.6451   -0.0007 C   0  0  0  0  0  0  0  0  0  0  0  0
    1.0146   -1.4139    0.0204 C   0  0  0  0  0  0  0  0  0  0  0  0
   -0.1866   -0.7075    0.0148 C   0  0  0  0  0  0  0  0  0  0  0  0
   -0.2587    0.6790   -0.0322 C   0  0  0  0  0  0  0  0  0  0  0  0
    0.9224    1.4329   -0.0220 C   0  0  0  0  0  0  0  0  0  0  0  0
    3.4462    1.5201   -0.0527 C   0  0  0  0  0  0  0  0  0  0  0  0
    3.4673    2.8822   -0.0666 N   0  0  0  0  0  0  0  0  0  0  0  0
    4.5608    0.8676   -0.0750 N   0  0  0  0  0  0  0  0  0  0  0  0
   -1.4968   -1.1044    0.0503 N   0  0  0  0  0  0  0  0  0  0  0  0
   -1.5609    1.1076   -0.1013 N   0  0  0  0  0  0  0  0  0  0  0  0
   -2.2902    0.0127   -0.0177 C   0  0  0  0  0  0  0  0  0  0  0  0
   -3.7766   -0.0517    0.0228 C   0  0  0  0  0  0  0  0  0  0  0  0
   -4.5279   -0.7431    0.9970 C   0  0  0  0  0  0  0  0  0  0  0  0
   -4.0759   -1.3909    2.0861 O   0  0  0  0  0  0  0  0  0  0  0  0
   -5.8517   -0.5739    0.6626 C   0  0  0  0  0  0  0  0  0  0  0  0
   -5.8139    0.1929   -0.4781 N   0  0  0  0  0  0  0  0  0  0  0  0
   -4.5758    0.5455   -0.8709 N   0  0  0  0  0  0  0  0  0  0  0  0
   -7.0900   -0.9560    1.3204 C   0  0  0  0  0  0  0  0  0  0  0  0
   -7.3451   -0.5103    2.6235 C   0  0  0  0  0  0  0  0  0  0  0  0
   -8.5462   -0.8284    3.2573 C   0  0  0  0  0  0  0  0  0  0  0  0
   -9.5086   -1.5788    2.5857 C   0  0  0  0  0  0  0  0  0  0  0  0
   -9.2663   -2.0203    1.2852 C   0  0  0  0  0  0  0  0  0  0  0  0
   -8.0477   -1.7364    0.6636 C   0  0  0  0  0  0  0  0  0  0  0  0
  1  2  2  0
  1  6  1  0
  1  7  1  0
  2  3  1  0
  3  4  2  0
  4  5  1  0
  4 10  1  0
  5  6  2  0
  5 11  1  0
  7  8  1  0
  7  9  2  0
 10 12  1  0
 11 12  2  0
 12 13  1  0
 13 14  1  0
 13 18  2  0
 14 15  1  0
 14 16  2  0
 16 17  1  0
 16 19  1  0
 17 18  1  0
 19 20  2  0
 19 24  1  0
 20 21  1  0
 21 22  2  0
 22 23  1  0
 23 24  2  0
M  END
>  <DRUGBANK_ID>  (1) 
DB07207

>  <COMMON_NAME>  (1) 
2-(4-HYDROXY-5-PHENYL-1H-PYRAZOL-3-YL)-1H-BENZOIMIDAZOLE-5-CARBOXAMIDINE

$$$$
