
     RDKit          3D

 12  8  0  0  0  0  0  0  0  0999 V2000
    0.9395   -0.0737   -0.0301 C   0  0  0  0  0  0  0  0  0  0  0  0
   -0.5440    1.0819   -1.7050 O   0  0  0  0  0  0  0  0  0  0  0  0
   -0.4267    1.6175    1.2408 O   0  0  0  0  0  0  0  0  0  0  0  0
   -0.1866    3.0676   -0.5563 O   0  0  0  0  0  0  0  0  0  0  0  0
    1.8618   -1.0586   -2.1564 O   0  0  0  0  0  0  0  0  0  0  0  0
    0.0475   -2.4226   -0.2003 O   0  0  0  0  0  0  0  0  0  0  0  0
   -0.1866   -2.1001   -2.4875 O   0  0  0  0  0  0  0  0  0  0  0  0
    0.3295    1.6279   -0.3151 P   0  0  0  0  0  0  0  0  0  0  0  0
    0.3295   -1.1714   -1.3612 P   0  0  0  0  0  0  0  0  0  0  0  0
    0.9189   -0.0191    0.0553 O   0  0  0  0  0  0  0  0  0  0  0  0
    0.9706   -0.0859   -0.0419 O   0  0  0  0  0  0  0  0  0  0  0  0
    1.0531   -0.0840   -0.0112 Tc  0  0  0  0  0 15  0  0  0  0  0  0
  8  1  1  0
  8  2  1  0
  8  3  1  0
  8  4  2  0
  9  1  1  0
  9  5  1  0
  9  6  1  0
  9  7  2  0
M  CHG  5   2  -1   3  -1   5  -1   6  -1  12   4
M  ISO  1  12  98
M  END
>  <DRUGBANK_ID>  (1) 
DB09138

>  <COMMON_NAME>  (1) 
Technetium Tc-99m medronate

>  <CAS_NUMBER>  (1) 
121524-79-6

>  <UNII>  (1) 
X89XV46R07

>  <SYNONYMS>  (1) 
99m Tc medronate; 99m Tc-medronate; 99mTc medronate; 99mTc-medronate; AN-MDP; Cis-Mdp; Tc 99m Mdp; Tc-99m Mdp; Technetium (99mTc) medronic acid; Technetium (99mTc) Methylenediphosphonate; Technetium 99mTc medronic acid; Technetium methylene diphosphonate; Technetium Tc 99m medronate; Technetium Tc 99m medronic acid; Technetium Tc 99M Mpi Mdp

$$$$
