
     RDKit          3D

 24 27  0  0  0  0  0  0  0  0999 V2000
    2.6729    1.7440   -6.0347 S   0  0  0  0  0  0  0  0  0  0  0  0
    2.7132    3.0013   -4.7806 C   0  0  0  0  0  0  0  0  0  0  0  0
   -1.2071    7.2157   -2.4062 N   0  0  0  0  0  0  0  0  0  0  0  0
   -1.9893    9.4623   -1.5136 C   0  0  1  0  0  0  0  0  0  0  0  0
   -1.7435    8.5628   -0.3947 C   0  0  2  0  0  0  0  0  0  0  0  0
    0.1566    5.5681   -3.5802 C   0  0  0  0  0  0  0  0  0  0  0  0
    1.5630    3.8191   -4.6728 C   0  0  0  0  0  0  0  0  0  0  0  0
    0.0013    6.4551   -2.5231 N   0  0  0  0  0  0  0  0  0  0  0  0
   -0.3914    9.3473   -0.3188 C   0  0  1  0  0  0  0  0  0  0  0  0
   -1.4482   10.8663   -0.7556 C   0  0  2  0  0  0  0  0  0  0  0  0
    1.4505    4.8052   -3.6716 C   0  0  0  0  0  0  0  0  0  0  0  0
   -0.9200    8.6227   -2.6040 C   0  0  0  0  0  0  0  0  0  0  0  0
   -1.7496    7.1538   -1.0313 C   0  0  0  0  0  0  0  0  0  0  0  0
   -0.3992   10.7688   -1.6794 C   0  0  0  0  0  0  0  0  0  0  0  0
    3.7819    3.2054   -3.9138 C   0  0  0  0  0  0  0  0  0  0  0  0
    3.8464    0.8693   -5.9325 O   0  0  0  0  0  0  0  0  0  0  0  0
    2.2814    2.3458   -7.2607 O   0  0  0  0  0  0  0  0  0  0  0  0
    1.4048    0.8040   -5.4921 N   0  0  0  0  0  0  0  0  0  0  0  0
   -0.7086    5.3536   -4.4257 O   0  0  0  0  0  0  0  0  0  0  0  0
   -0.0679    9.9497    1.0624 C   0  0  0  0  0  0  0  0  0  0  0  0
    0.1002   11.0574    0.1480 C   0  0  0  0  0  0  0  0  0  0  0  0
    2.5296    4.9910   -2.8032 C   0  0  0  0  0  0  0  0  0  0  0  0
    3.6818    4.2036   -2.9344 C   0  0  0  0  0  0  0  0  0  0  0  0
    5.2632    2.3264   -3.9188 Cl  0  0  0  0  0  0  0  0  0  0  0  0
  2  1  1  0
  3  8  1  0
  4 12  1  6
  5 13  1  6
  5  4  1  0
  6 11  1  0
  7  2  2  0
  8  6  1  0
  9  5  1  0
  9 14  1  0
 10  4  1  0
 10 14  1  0
 11  7  1  0
 12  3  1  0
 13  3  1  0
 15  2  1  0
 16  1  2  0
 17  1  2  0
 18  1  1  0
 19  6  2  0
  9 20  1  1
 10 21  1  1
 21 20  1  0
 22 23  1  0
 22 11  2  0
 23 15  2  0
 24 15  1  0
M  END
>  <DRUGBANK_ID>  (1) 
DB15959

>  <COMMON_NAME>  (1) 
Tripamide

>  <CAS_NUMBER>  (1) 
73803-48-2

>  <UNII>  (1) 
G36A0E9CVT

>  <SYNONYMS>  (1) 
Tripamide

$$$$
