
     RDKit          3D

  1  0  0  0  0  0  0  0  0  0999 V2000
    0.9423   -0.0488   -0.0655 Rb  0  0  0  0  0 15  0  0  0  0  0  0
M  CHG  1   1   1
M  ISO  1   1  82
M  END
>  <DRUGBANK_ID>  (1) 
DB09479

>  <COMMON_NAME>  (1) 
Rubidium Rb-82

>  <UNII>  (1) 
550Z839889

>  <SYNONYMS>  (1) 
Rubidium (82Rb) cation; Rubidium cation Rb-82; Rubidium Rb-82 cation

$$$$
