3QC
     RDKit          3D

 24 26  0  0  0  0  0  0  0  0999 V2000
    0.0447    0.7081    0.0004 C   0  0  0  0  0  0  0  0  0  0  0  0
   -1.2642    1.4441    0.1480 C   0  0  0  0  0  0  0  0  0  0  0  0
    1.2919   -1.3189   -0.3976 C   0  0  0  0  0  0  0  0  0  0  0  0
    2.4881   -0.6388   -0.2034 C   0  0  0  0  0  0  0  0  0  0  0  0
    2.4903    0.7409   -0.0049 C   0  0  0  0  0  0  0  0  0  0  0  0
    1.2664    1.4320    0.0629 C   0  0  0  0  0  0  0  0  0  0  0  0
   -2.1638   -3.6445    0.9958 C   0  0  0  0  0  0  0  0  0  0  0  0
   -2.0704   -4.6216    1.9940 C   0  0  0  0  0  0  0  0  0  0  0  0
   -0.9300   -4.7623    2.7774 C   0  0  0  0  0  0  0  0  0  0  0  0
    0.1726   -3.9858    2.5076 C   0  0  0  0  0  0  0  0  0  0  0  0
   -3.0860   -5.4969    2.2415 O   0  0  0  0  0  0  0  0  0  0  0  0
    1.2381    2.9383    0.1729 C   0  0  0  0  0  0  0  0  0  0  0  0
   -2.3987    0.7113   -0.3765 N   0  0  0  0  0  0  0  0  0  0  0  0
   -2.4690   -0.6110    0.2721 C   0  0  0  0  0  0  0  0  0  0  0  0
   -1.2460   -1.5094   -0.1077 C   0  0  1  0  0  0  0  0  0  0  0  0
    0.0543   -0.6826   -0.1919 C   0  0  0  0  0  0  0  0  0  0  0  0
   -1.1347   -2.7029    0.8667 C   0  0  0  0  0  0  0  0  0  0  0  0
    0.0124   -2.8994    1.6681 C   0  0  0  0  0  0  0  0  0  0  0  0
    3.8068    1.4559    0.0676 C   0  0  0  0  0  0  0  0  0  0  0  0
   -3.3214    1.0667   -1.3523 C   0  0  0  0  0  0  0  0  0  0  0  0
   -3.2662    2.2952   -2.0077 N   0  0  0  0  0  0  0  0  0  0  0  0
   -4.2568    2.6251   -3.0304 C   0  0  0  0  0  0  0  0  0  0  0  0
   -2.2843    3.3446   -1.8451 C   0  0  0  0  0  0  0  0  0  0  0  0
   -4.2268    0.2633   -1.6463 O   0  0  0  0  0  0  0  0  0  0  0  0
  1  2  1  0
  1  6  1  0
  1 16  2  0
  2 13  1  0
  3  4  2  0
  3 16  1  0
  4  5  1  0
  5  6  2  0
  5 19  1  0
  6 12  1  0
  7  8  2  0
  7 17  1  0
  8  9  1  0
  8 11  1  0
  9 10  2  0
 10 18  1  0
 13 14  1  0
 13 20  1  0
 14 15  1  0
 15 16  1  0
 15 17  1  1
 17 18  2  0
 20 21  1  0
 20 24  2  0
 21 22  1  0
 21 23  1  0
M  END
>  <DRUGBANK_ID>  (1) 
DB07064

>  <COMMON_NAME>  (1) 
(4R)-4-(3-HYDROXYPHENYL)-N,N,7,8-TETRAMETHYL-3,4-DIHYDROISOQUINOLINE-2(1H)-CARBOXAMIDE

$$$$
