
     RDKit          3D

 10 10  0  0  0  0  0  0  0  0999 V2000
    0.9496    0.0187   -0.0861 C   0  0  0  0  0  0  0  0  0  0  0  0
    0.2416    0.6889    0.8358 C   0  0  0  0  0  0  0  0  0  0  0  0
   -1.2534    0.7413    0.8979 C   0  0  0  0  0  0  0  0  0  0  0  0
   -1.5884    0.2844    2.2239 N   0  0  0  0  0  0  0  0  0  0  0  0
   -2.5570    0.8747    3.0147 C   0  0  0  0  0  0  0  0  0  0  0  0
   -3.6131    1.6480    2.5261 C   0  0  0  0  0  0  0  0  0  0  0  0
   -4.5444    2.2238    3.3981 C   0  0  0  0  0  0  0  0  0  0  0  0
   -4.4279    2.0336    4.7730 C   0  0  0  0  0  0  0  0  0  0  0  0
   -3.3777    1.2738    5.2761 C   0  0  0  0  0  0  0  0  0  0  0  0
   -2.4413    0.7208    4.4021 C   0  0  0  0  0  0  0  0  0  0  0  0
  1  2  2  0
  2  3  1  0
  3  4  1  0
  4  5  1  0
  5  6  2  0
  5 10  1  0
  6  7  1  0
  7  8  2  0
  8  9  1  0
  9 10  2  0
M  END
>  <DRUGBANK_ID>  (1) 
DB02870

>  <SECONDARY_ACCESSION_NUMBERS>  (1) 
EXPT02400

>  <COMMON_NAME>  (1) 
N-Allylaniline

>  <CAS_NUMBER>  (1) 
589-09-3

>  <UNII>  (1) 
Q7S639GWXG

$$$$
