BIC
     RDKit          3D

 20 22  0  0  0  0  0  0  0  0999 V2000
    1.5916   -1.2028    0.2833 C   0  0  2  0  0  0  0  0  0  0  0  0
    2.5100    0.0230    0.3079 C   0  0  0  0  0  0  0  0  0  0  0  0
    1.5875    1.2552    0.2880 C   0  0  0  0  0  0  0  0  0  0  0  0
   -0.9039    1.5373    0.1957 C   0  0  0  0  0  0  0  0  0  0  0  0
   -2.1669    0.7181    0.4280 C   0  0  0  0  0  0  0  0  0  0  0  0
   -2.1105   -0.5995   -0.3601 C   0  0  1  0  0  0  0  0  0  0  0  0
   -0.9051   -1.3998    0.1933 C   0  0  0  0  0  0  0  0  0  0  0  0
    0.2571    0.7375    0.5483 N   0  0  0  0  0  0  0  0  0  0  0  0
    0.2451   -0.6513    0.4167 N   0  0  0  0  0  0  0  0  0  0  0  0
   -0.9482   -2.6251    0.3595 O   0  0  0  0  0  0  0  0  0  0  0  0
    1.8589   -2.1663    1.4033 C   0  0  0  0  0  0  0  0  0  0  0  0
    2.3260   -3.2986    1.2125 O   0  0  0  0  0  0  0  0  0  0  0  0
   -3.3812   -1.3461   -0.0671 N   0  0  0  0  0  0  0  0  0  0  0  0
   -2.0220   -0.4443   -1.9325 C   0  0  0  0  0  0  0  0  0  0  0  0
   -0.7843    0.1721   -2.5727 C   0  0  0  0  0  0  0  0  0  0  0  0
    0.4196   -0.5284   -2.5338 C   0  0  0  0  0  0  0  0  0  0  0  0
    1.6375    0.1052   -2.7923 C   0  0  0  0  0  0  0  0  0  0  0  0
    1.6595    1.4266   -3.2127 C   0  0  0  0  0  0  0  0  0  0  0  0
    0.4538    2.0755   -3.4589 C   0  0  0  0  0  0  0  0  0  0  0  0
   -0.7634    1.4614   -3.1230 C   0  0  0  0  0  0  0  0  0  0  0  0
  1  2  1  0
  1  9  1  0
  1 11  1  1
  2  3  1  0
  3  8  1  0
  4  5  1  0
  4  8  1  0
  5  6  1  0
  6  7  1  0
  6 13  1  6
  6 14  1  0
  7  9  1  0
  7 10  2  0
  8  9  1  0
 11 12  2  0
 14 15  1  0
 15 16  2  0
 15 20  1  0
 16 17  1  0
 17 18  2  0
 18 19  1  0
 19 20  2  0
M  END
>  <DRUGBANK_ID>  (1) 
DB07461

>  <COMMON_NAME>  (1) 
3-AMINO-3-BENZYL-9-CARBOXAMIDE[4.3.0]BICYCLO-1,6-DIAZANONAN-2-ONE

$$$$
