
     RDKit          3D

 14 13  0  0  0  0  0  0  0  0999 V2000
    1.0791   -0.0766   -0.1600 C   0  0  0  0  0  0  0  0  0  0  0  0
    0.5616   -0.8696    1.0291 C   0  0  0  0  0  0  0  0  0  0  0  0
    1.0588   -0.3229    2.3674 C   0  0  0  0  0  0  0  0  0  0  0  0
    0.5170    1.0506    2.7117 C   0  0  0  0  0  0  0  0  0  0  0  0
   -0.2124    1.2695    3.6728 O   0  0  0  0  0  0  0  0  0  0  0  0
    0.9515    1.9914    1.8416 O   0  0  0  0  0  0  0  0  0  0  0  0
    0.3521    3.2896    1.9455 C   0  0  0  0  0  0  0  0  0  0  0  0
   -1.0849    3.3167    1.8968 O   0  0  0  0  0  0  0  0  0  0  0  0
   -1.6437    2.9303    0.7203 C   0  0  0  0  0  0  0  0  0  0  0  0
   -1.0005    2.6247   -0.2768 O   0  0  0  0  0  0  0  0  0  0  0  0
   -3.1786    2.9337    0.7727 C   0  0  0  0  0  0  0  0  0  0  0  0
   -3.6918    2.0131    1.8862 C   0  0  0  0  0  0  0  0  0  0  0  0
   -3.6977    4.3580    0.9980 C   0  0  0  0  0  0  0  0  0  0  0  0
   -3.7223    2.4204   -0.5733 C   0  0  0  0  0  0  0  0  0  0  0  0
  1  2  1  0
  2  3  1  0
  3  4  1  0
  4  5  2  0
  4  6  1  0
  6  7  1  0
  7  8  1  0
  8  9  1  0
  9 10  2  0
  9 11  1  0
 11 12  1  0
 11 13  1  0
 11 14  1  0
M  END
>  <DRUGBANK_ID>  (1) 
DB05103

>  <COMMON_NAME>  (1) 
AN-9

>  <CAS_NUMBER>  (1) 
122110-53-6

>  <UNII>  (1) 
55VNK5440P

>  <SYNONYMS>  (1) 
Pivaloyloxymethyl butyrate; Pivaloyloxymethylbutyrate; Pivanex

$$$$
