
     RDKit          3D

 34 38  0  0  0  0  0  0  0  0999 V2000
    0.9653    0.0583    0.1757 C   0  0  0  0  0  0  0  0  0  0  0  0
   -1.8179   -5.0397   -4.2110 C   0  0  0  0  0  0  0  0  0  0  0  0
   -1.5571   -5.6534   -6.4922 C   0  0  0  0  0  0  0  0  0  0  0  0
   -4.2164   -2.8424   -7.4437 C   0  0  0  0  0  0  0  0  0  0  0  0
   -4.6594   -3.6097   -5.1823 C   0  0  0  0  0  0  0  0  0  0  0  0
   -1.2477   -6.2488   -3.8028 C   0  0  0  0  0  0  0  0  0  0  0  0
   -0.9508   -6.8533   -6.0941 C   0  0  0  0  0  0  0  0  0  0  0  0
   -5.5799   -2.8391   -7.7013 C   0  0  0  0  0  0  0  0  0  0  0  0
   -6.0205   -3.6319   -5.4501 C   0  0  0  0  0  0  0  0  0  0  0  0
   -2.0867   -0.7445   -6.2916 C   0  0  0  0  0  0  0  0  0  0  0  0
   -0.0163   -1.9934   -5.9331 C   0  0  0  0  0  0  0  0  0  0  0  0
   -0.7081    0.6154   -2.3629 C   0  0  0  0  0  0  0  0  0  0  0  0
   -1.7141    0.2432   -5.1746 C   0  0  0  0  0  0  0  0  0  0  0  0
    0.4606   -0.9175   -4.9405 C   0  0  0  0  0  0  0  0  0  0  0  0
    0.0119    1.0854   -3.6667 C   0  0  0  0  0  0  0  0  0  0  0  0
    0.5574   -4.0286   -3.1684 C   0  0  0  0  0  0  0  0  0  0  0  0
    1.1518   -5.0666   -2.5615 C   0  0  0  0  0  0  0  0  0  0  0  0
    0.3661   -1.0004   -0.6768 C   0  0  0  0  0  0  0  0  0  0  0  0
   -1.8182   -4.6536   -5.5555 C   0  0  0  0  0  0  0  0  0  0  0  0
   -3.7538   -3.2009   -6.1743 C   0  0  0  0  0  0  0  0  0  0  0  0
   -1.5308   -2.1513   -6.0386 C   0  0  0  0  0  0  0  0  0  0  0  0
   -0.6888   -7.0771   -4.7537 C   0  0  0  0  0  0  0  0  0  0  0  0
   -6.4666   -3.2350   -6.7040 C   0  0  0  0  0  0  0  0  0  0  0  0
   -0.3614   -0.7539   -1.7822 C   0  0  0  0  0  0  0  0  0  0  0  0
   -2.2968   -3.2881   -5.9311 C   0  0  0  0  0  0  0  0  0  0  0  0
   -0.7958   -2.0148   -2.4712 C   0  0  0  0  0  0  0  0  0  0  0  0
    0.6115   -3.1916   -1.0611 C   0  0  0  0  0  0  0  0  0  0  0  0
    0.1455   -8.0552   -4.3770 F   0  0  0  0  0  0  0  0  0  0  0  0
   -7.7797   -3.2371   -6.9599 F   0  0  0  0  0  0  0  0  0  0  0  0
    0.6812   -2.2636   -0.2035 N   0  0  0  0  0  0  0  0  0  0  0  0
   -0.2650    0.3532   -4.9169 N   0  0  0  0  0  0  0  0  0  0  0  0
    0.1390   -3.0326   -2.3271 N   0  0  0  0  0  0  0  0  0  0  0  0
   -1.8344   -2.0482   -3.1174 O   0  0  0  0  0  0  0  0  0  0  0  0
    1.2027   -4.8272   -0.8505 S   0  0  0  0  0  0  0  0  0  0  0  0
  6  2  2  0
  7  3  1  0
  8  4  2  0
  9  5  1  0
 13 10  1  0
 14 11  1  0
 15 12  1  0
 17 16  2  0
 18  1  1  0
 19  2  1  0
 19  3  2  0
 20  4  1  0
 20  5  2  0
 21 10  1  0
 21 11  1  0
 22  6  1  0
 22  7  2  0
 23  8  1  0
 23  9  2  0
 24 12  1  0
 24 18  2  0
 25 19  1  0
 25 20  1  0
 25 21  2  3
 26 24  1  0
 28 22  1  0
 29 23  1  0
 30 18  1  0
 30 27  2  0
 31 13  1  0
 31 14  1  0
 31 15  1  0
 32 16  1  0
 32 26  1  0
 32 27  1  0
 33 26  2  0
 34 17  1  0
 34 27  1  0
M  END
>  <DRUGBANK_ID>  (1) 
DB12693

>  <COMMON_NAME>  (1) 
Ritanserin

>  <CAS_NUMBER>  (1) 
87051-43-2

>  <UNII>  (1) 
145TFV465S

>  <SYNONYMS>  (1) 
Ritanserin; ritanserina

$$$$
