
     RDKit          3D

 17 19  0  0  0  0  0  0  0  0999 V2000
    2.6191   -0.4506   -0.0501 C   0  0  0  0  0  0  0  0  0  0  0  0
    2.3676    0.9164   -0.0378 C   0  0  0  0  0  0  0  0  0  0  0  0
    1.0619    1.4010    0.1035 C   0  0  0  0  0  0  0  0  0  0  0  0
    0.0399    0.4522    0.2895 C   0  0  0  0  0  0  0  0  0  0  0  0
    0.2354   -0.9096    0.0880 C   0  0  0  0  0  0  0  0  0  0  0  0
    1.5640   -1.3733   -0.0438 C   0  0  0  0  0  0  0  0  0  0  0  0
   -0.9224   -1.6759    0.0410 N   0  0  0  0  0  0  0  0  0  0  0  0
   -1.9699   -0.9189    0.3342 C   0  0  0  0  0  0  0  0  0  0  0  0
   -1.5472    0.6360    0.9414 S   0  0  0  0  0  0  0  0  0  0  0  0
   -3.6204   -1.5615    0.1187 S   0  0  0  0  0  0  0  0  0  0  0  0
   -4.6224   -0.2353   -0.1315 N   0  0  0  0  0  0  0  0  0  0  0  0
   -4.6368    0.5937   -1.3647 C   0  0  0  0  0  0  0  0  0  0  0  0
   -3.2228    1.0206   -1.7340 C   0  0  0  0  0  0  0  0  0  0  0  0
   -3.0699    1.9935   -2.8700 C   0  0  0  0  0  0  0  0  0  0  0  0
   -3.8608    3.2463   -2.5448 C   0  0  0  0  0  0  0  0  0  0  0  0
   -5.3196    2.8946   -2.2541 C   0  0  0  0  0  0  0  0  0  0  0  0
   -5.4722    1.8718   -1.1148 C   0  0  0  0  0  0  0  0  0  0  0  0
  1  2  2  0
  1  6  1  0
  2  3  1  0
  3  4  2  0
  4  5  1  0
  4  9  1  0
  5  6  2  0
  5  7  1  0
  7  8  2  0
  8  9  1  0
  8 10  1  0
 10 11  1  0
 11 12  1  0
 12 13  1  0
 12 17  1  0
 13 14  1  0
 14 15  1  0
 15 16  1  0
 16 17  1  0
M  END
>  <DRUGBANK_ID>  (1) 
DB14200

>  <COMMON_NAME>  (1) 
Thiohexam

>  <CAS_NUMBER>  (1) 
95-33-0

>  <UNII>  (1) 
UCA53G94EV

>  <SYNONYMS>  (1) 
2-(Cyclohexylaminothio)benzothiazole; 2-Benzenethiazolesulfenamide, N-cyclohexyl-; Benzothiazyl-2-cyclohexylsulfenamide; Cyclohexyl benzothiazolesulfenamide; N-cyclohexyl-2-Benzothiazosulfenamide; N-Cyclohexylbenzothiazol-2-sulfenamid

$$$$
