823
     RDKit          3D

 28 31  0  0  1  0  0  0  0  0999 V2000
    2.0560   -1.1466    2.8255 O   0  0  0  0  0  0  0  0  0  0  0  0
   -6.2116   -7.1072   -1.5818 O   0  0  0  0  0  0  0  0  0  0  0  0
    1.2556    0.8444    2.1506 O   0  0  0  0  0  0  0  0  0  0  0  0
   -5.5367   -4.9602   -2.2013 O   0  0  0  0  0  0  0  0  0  0  0  0
    0.8443   -3.3112    1.9048 C   0  0  1  0  0  0  0  0  0  0  0  0
   -0.4645   -3.9269    2.4374 C   0  0  2  0  0  0  0  0  0  0  0  0
   -1.3756   -4.4915    1.3052 C   0  0  1  0  0  0  0  0  0  0  0  0
   -1.0599   -5.9924    0.8301 C   0  0  2  0  0  0  0  0  0  0  0  0
    1.7994   -2.3937    3.5157 C   0  0  2  0  0  0  0  0  0  0  0  0
    1.0656   -4.9790    0.8677 C   0  0  0  0  0  0  0  0  0  0  0  0
   -0.8144   -2.7699    3.3100 C   0  0  0  0  0  0  0  0  0  0  0  0
    0.1352   -5.6882   -0.0974 C   0  0  0  0  0  0  0  0  0  0  0  0
   -2.2352   -6.9014    0.2609 C   0  0  2  0  0  0  0  0  0  0  0  0
    0.4113   -2.6008    4.2795 C   0  0  0  0  0  0  0  0  0  0  0  0
   -2.8058   -4.5035    1.6553 C   0  0  0  0  0  0  0  0  0  0  0  0
    1.1522   -2.4884    0.6456 C   0  0  0  0  0  0  0  0  0  0  0  0
   -3.1477   -5.9798   -0.4332 C   0  0  0  0  0  0  0  0  0  0  0  0
   -3.5614   -4.7416    0.3524 C   0  0  0  0  0  0  0  0  0  0  0  0
   -3.3759   -7.9069    1.1145 C   0  0  0  0  0  0  0  0  0  0  0  0
   -4.9174   -8.1306    0.4185 C   0  0  0  0  0  0  0  0  0  0  0  0
    2.2169   -3.6770    2.8163 C   0  0  0  0  0  0  0  0  0  0  0  0
   -3.9501   -6.7607   -1.1654 C   0  0  0  0  0  0  0  0  0  0  0  0
   -5.2752   -6.9645   -0.5313 C   0  0  1  0  0  0  0  0  0  0  0  0
    1.4409    0.0377    3.0537 C   0  0  0  0  0  0  0  0  0  0  0  0
    2.5751   -4.7779    2.2163 C   0  0  0  0  0  0  0  0  0  0  0  0
    1.0837    0.3765    4.4653 C   0  0  0  0  0  0  0  0  0  0  0  0
   -6.1679   -5.9637   -2.3799 C   0  0  0  0  0  0  0  0  0  0  0  0
   -7.0440   -6.1293   -3.5729 C   0  0  0  0  0  0  0  0  0  0  0  0
  1 24  1  0
  2 27  1  0
  3 24  2  0
  4 27  2  0
  5  6  1  0
  5  9  1  0
  5 10  1  0
  5 16  1  6
  6  7  1  0
  6 11  1  6
  7  8  1  0
  7 15  1  1
  8 12  1  6
  8 13  1  0
  9  1  1  0
  9 14  1  0
  9 21  1  1
 10 12  1  0
 11 14  1  0
 13 17  1  0
 13 19  1  1
 15 18  1  0
 17 18  1  0
 17 22  2  0
 19 20  1  0
 20 23  1  0
 21 25  3  0
 22 23  1  0
 23  2  1  6
 24 26  1  0
 27 28  1  0
M  END
>  <DRUGBANK_ID>  (1) 
DB00823

>  <SECONDARY_ACCESSION_NUMBERS>  (1) 
APRD00760

>  <COMMON_NAME>  (1) 
Ethynodiol diacetate

>  <CAS_NUMBER>  (1) 
297-76-7

>  <UNII>  (1) 
62H10A1236

>  <SYNONYMS>  (1) 
17α-Ethynyl-19-norandrost-4-ene-3β,17-beta-diol diacetate; 17α-Ethynyl-3,17-dihydroxy-4-estrene diacetate; 17α-Ethynyl-4-estrene-3β,17β-diol diacetate; 17α-Ethynylestr-4-ene-3β,17β-diol acetate; 19-Nor-17α-pregn-4-en-20-yne-3β,17-diol diacetate; 3β, 17β-Diacetoxy-17α-ethynyl-4-oestrene; 3β,17β-Diacetoxy-19-nor-17α-pregn-4-en-20-yne; Ethynodiol diacetate; Etynodiol acetate; Etynodiol diacetate

$$$$
