
     RDKit          3D

 37 37  0  0  0  0  0  0  0  0999 V2000
    1.7019   -0.3622    0.0618 C   0  0  0  0  0  0  0  0  0  0  0  0
    0.8125   -1.4613    0.1232 C   0  0  0  0  0  0  0  0  0  0  0  0
    1.2532    0.9714    0.0884 C   0  0  0  0  0  0  0  0  0  0  0  0
   -0.5288   -1.2581    0.1415 C   0  0  0  0  0  0  0  0  0  0  0  0
   -0.8962    0.0560    0.0299 C   0  0  0  0  0  0  0  0  0  0  0  0
   -0.0907    1.2300    0.1764 C   0  0  0  0  0  0  0  0  0  0  0  0
    0.3870   -3.7202   -0.0945 O   0  0  0  0  0  0  0  0  0  0  0  0
    1.2555   -2.8358   -0.0186 N   0  0  0  0  0  0  0  0  0  0  0  0
    2.4729   -3.0293   -0.0759 O   0  0  0  0  0  0  0  0  0  0  0  0
   -0.0622    3.1765    1.6365 O   0  0  0  0  0  0  0  0  0  0  0  0
   -0.5342    2.7012    0.3730 C   0  0  1  0  0  0  0  0  0  0  0  0
   -1.3131    3.1114   -2.0354 C   0  0  0  0  0  0  0  0  0  0  0  0
   -0.4967    3.6651   -0.8325 C   0  0  1  0  0  0  0  0  0  0  0  0
   -1.0466    4.9984   -0.4956 N   0  0  0  0  0  0  0  0  0  0  0  0
   -0.8397    7.4114    0.0271 C   0  0  0  0  0  0  0  0  0  0  0  0
   -0.1908    6.0658   -0.2972 C   0  0  0  0  0  0  0  0  0  0  0  0
    1.0252    5.9198   -0.4237 O   0  0  0  0  0  0  0  0  0  0  0  0
   -0.4556    8.5421   -1.2890 Cl  0  0  0  0  0  0  0  0  0  0  0  0
   -0.2048    7.9932    1.5770 Cl  0  0  0  0  0  0  0  0  0  0  0  0
   -3.1747    1.6058   -0.1860 C   0  0  0  0  0  0  0  0  0  0  0  0
   -3.1477    1.8485    1.3391 C   0  0  0  0  0  0  0  0  0  0  0  0
   -4.4885    1.4485    1.8192 C   0  0  0  0  0  0  0  0  0  0  0  0
   -4.9265    2.6098   -1.3315 O   0  0  0  0  0  0  0  0  0  0  0  0
   -3.7341    2.5462   -1.1685 C   0  0  0  0  0  0  0  0  0  0  0  0
   -2.8082    3.2287   -1.9230 O   0  0  0  0  0  0  0  0  0  0  0  0
   -6.8602   -4.3024    6.6020 C   0  0  0  0  0  0  0  0  0  0  0  0
   -6.0143   -5.1674    7.5427 C   0  0  0  0  0  0  0  0  0  0  0  0
   -6.2497   -4.7851    9.0044 C   0  0  0  0  0  0  0  0  0  0  0  0
   -4.6289   -0.0632    1.6335 C   0  0  0  0  0  0  0  0  0  0  0  0
   -3.6309   -0.8222    2.5197 C   0  0  0  0  0  0  0  0  0  0  0  0
   -5.0473   -2.5759    6.4580 C   0  0  0  0  0  0  0  0  0  0  0  0
   -6.5230   -2.8190    6.7871 C   0  0  0  0  0  0  0  0  0  0  0  0
   -3.8685   -0.4134    3.9691 C   0  0  0  0  0  0  0  0  0  0  0  0
   -5.3446   -0.6593    4.2973 C   0  0  0  0  0  0  0  0  0  0  0  0
   -5.6614   -2.1435    4.0801 C   0  0  0  0  0  0  0  0  0  0  0  0
   -4.7749   -2.9784    5.0064 C   0  0  0  0  0  0  0  0  0  0  0  0
   -7.7116   -4.9816    9.3713 C   0  0  0  0  0  0  0  0  0  0  0  0
  1  2  2  0
  2  8  1  0
  2  4  1  0
  3  1  1  0
  4  5  2  0
  6  3  2  0
  6  5  1  0
  6 11  1  0
  8  7  1  0
  8  9  2  0
 11 10  1  1
 11 13  1  0
 12 25  1  0
 13 12  1  6
 13 14  1  0
 14 16  1  0
 15 19  1  0
 15 18  1  0
 16 15  1  0
 16 17  2  0
 21 20  1  0
 21 22  1  0
 23 24  2  0
 24 20  1  0
 24 25  1  0
 26 27  1  0
 27 28  1  0
 28 37  1  0
 29 22  1  0
 29 30  1  0
 31 32  1  0
 32 26  1  0
 33 30  1  0
 33 34  1  0
 34 35  1  0
 35 36  1  0
 36 31  1  0
M  CHG  2   7  -1   8   1
M  END
>  <DRUGBANK_ID>  (1) 
DB14658

>  <SECONDARY_ACCESSION_NUMBERS>  (1) 
DBSALT001468

>  <COMMON_NAME>  (1) 
Chloramphenicol palmitate

>  <CAS_NUMBER>  (1) 
530-43-8

>  <UNII>  (1) 
43VU4207NW

>  <SYNONYMS>  (1) 
CAP-palmitate; Chloramphenicol monopalmitate; Chloramphenicol palmitate; Detreopal

$$$$
