
     RDKit          3D

 25 26  0  0  0  0  0  0  0  0999 V2000
    1.3874   -0.1908   -0.0745 C   0  0  0  0  0  0  0  0  0  0  0  0
    2.8367   -0.3025    0.4959 C   0  0  0  0  0  0  0  0  0  0  0  0
    0.4910   -1.1651   -0.6019 C   0  0  0  0  0  0  0  0  0  0  0  0
    0.7188   -2.4160   -1.1509 O   0  0  0  0  0  0  0  0  0  0  0  0
    3.5444    0.6890    0.4365 O   0  0  0  0  0  0  0  0  0  0  0  0
    3.4542   -1.5651    1.1764 C   0  0  0  0  0  0  0  0  0  0  0  0
    2.0314   -2.9166   -1.0167 C   0  0  0  0  0  0  0  0  0  0  0  0
    3.0202   -2.3071   -2.0358 C   0  0  0  0  0  0  0  0  0  0  0  0
    2.7283   -2.4351    2.2289 C   0  0  0  0  0  0  0  0  0  0  0  0
    4.8807   -3.9151   -1.5426 N   0  0  0  0  0  0  0  0  0  0  0  0
    1.2188   -2.6363    2.1804 C   0  0  0  0  0  0  0  0  0  0  0  0
    2.9012   -0.8906   -2.1961 O   0  0  0  0  0  0  0  0  0  0  0  0
    0.8848    1.1286    0.0016 C   0  0  0  0  0  0  0  0  0  0  0  0
    4.5284   -2.5231   -1.7907 C   0  0  0  0  0  0  0  0  0  0  0  0
   -0.8862   -0.8749   -0.6798 C   0  0  0  0  0  0  0  0  0  0  0  0
    6.3268   -4.0715   -1.3841 C   0  0  0  0  0  0  0  0  0  0  0  0
    0.6004   -3.8547    1.8103 C   0  0  0  0  0  0  0  0  0  0  0  0
    0.3897   -1.5363    2.4033 C   0  0  0  0  0  0  0  0  0  0  0  0
    6.9012   -3.5120   -0.0747 C   0  0  0  0  0  0  0  0  0  0  0  0
   -0.4884    1.3983   -0.0685 C   0  0  0  0  0  0  0  0  0  0  0  0
    6.2985   -4.1594    1.1636 C   0  0  0  0  0  0  0  0  0  0  0  0
   -1.3826    0.3757   -0.3366 C   0  0  0  0  0  0  0  0  0  0  0  0
   -0.9935   -1.6201    2.2095 C   0  0  0  0  0  0  0  0  0  0  0  0
   -0.7914   -3.9367    1.6165 C   0  0  0  0  0  0  0  0  0  0  0  0
   -1.5849   -2.8094    1.7926 C   0  0  0  0  0  0  0  0  0  0  0  0
  2  1  1  0
  3  1  2  0
  4  3  1  0
  5  2  2  0
  6  2  1  0
  7  4  1  0
  8  7  1  0
  9  6  1  0
 11  9  1  0
 12  8  1  0
 13  1  1  0
 14  8  1  0
 14 10  1  0
 15  3  1  0
 16 10  1  0
 17 11  2  0
 18 11  1  0
 19 16  1  0
 20 13  2  0
 21 19  1  0
 22 15  2  0
 22 20  1  0
 23 18  2  0
 24 17  1  0
 25 23  1  0
 25 24  2  0
M  END
>  <DRUGBANK_ID>  (1) 
DB01182

>  <SECONDARY_ACCESSION_NUMBERS>  (1) 
APRD00261

>  <COMMON_NAME>  (1) 
Propafenone

>  <CAS_NUMBER>  (1) 
54063-53-5

>  <UNII>  (1) 
68IQX3T69U

>  <SYNONYMS>  (1) 
1-(2-(2-hydroxy-3-(propylamino)propoxy)phenyl)-3-phenyl-1-propanone; 2-(2'-hydroxy-3'-propylaminopropoxy)-Ï‰-phenylpropiophenone; Propafenona; Propafenone; Propafenonum

$$$$
