
     RDKit          3D

 12 12  0  0  1  0  0  0  0  0999 V2000
    3.5110    1.1796    1.7381 O   0  0  0  0  0  0  0  0  0  0  0  0
    3.0822    4.7378    1.4297 O   0  0  0  0  0  0  0  0  0  0  0  0
    5.0860    3.8276    3.6134 O   0  0  0  0  0  0  0  0  0  0  0  0
    4.3512    1.6136    2.7161 C   0  0  0  0  0  0  0  0  0  0  0  0
    5.0086    0.8887    3.4346 O   0  0  0  0  0  0  0  0  0  0  0  0
    4.3223    3.0951    2.7552 C   0  0  0  0  0  0  0  0  0  0  0  0
    3.4544    3.4820    1.8188 C   0  0  0  0  0  0  0  0  0  0  0  0
    1.0228    3.6884   -0.3776 O   0  0  0  0  0  0  0  0  0  0  0  0
    2.0512    3.1163   -1.1792 C   0  0  0  0  0  0  0  0  0  0  0  0
    3.1031    2.3051   -0.3952 C   0  0  2  0  0  0  0  0  0  0  0  0
    3.1365    0.9718   -0.9354 O   0  0  0  0  0  0  0  0  0  0  0  0
    2.8652    2.3023    1.1273 C   0  0  1  0  0  0  0  0  0  0  0  0
  1  4  1  0
  4  5  2  0
  4  6  1  0
  6  3  1  0
  6  7  2  0
  7  2  1  0
  8  9  1  0
 10 11  1  6
 10  9  1  0
 12  1  1  1
 12  7  1  0
 12 10  1  0
M  END
>  <DRUGBANK_ID>  (1) 
DB00126

>  <SECONDARY_ACCESSION_NUMBERS>  (1) 
NUTR00001; APRD00084; EXPT00568; DB11167; DB11316; DB11170; DB09541; DB11317

>  <COMMON_NAME>  (1) 
Ascorbic acid

>  <CAS_NUMBER>  (1) 
50-81-7

>  <UNII>  (1) 
PQ6CK8PD0R

>  <SYNONYMS>  (1) 
acide ascorbique; ácido ascórbico; Acidum ascorbicum; acidum ascorbinicum; Ascorbate; Ascorbic acid; Ascorbinsäure; L-(+)-ascorbic acid; L-Ascorbate; L-Ascorbic Acid; Vitamin C; Vitamina C

$$$$
