
     RDKit          3D

 33 36  0  0  1  0  0  0  0  0999 V2000
    3.2835   13.1662   -0.4285 C   0  0  0  0  0  0  0  0  0  0  0  0
    3.1806   11.7030   -0.7256 C   0  0  0  0  0  0  0  0  0  0  0  0
    3.5968   10.7585    0.1952 C   0  0  0  0  0  0  0  0  0  0  0  0
    3.4571    9.4123   -0.1278 C   0  0  0  0  0  0  0  0  0  0  0  0
    2.8964    9.0172   -1.3649 C   0  0  0  0  0  0  0  0  0  0  0  0
    2.5226   10.0682   -2.2348 C   0  0  0  0  0  0  0  0  0  0  0  0
    2.6571   11.3674   -1.9247 N   0  0  0  0  0  0  0  0  0  0  0  0
    1.9847    9.7683   -3.4747 C   0  0  0  0  0  0  0  0  0  0  0  0
    1.8017    8.4618   -3.8933 C   0  0  0  0  0  0  0  0  0  0  0  0
    2.1655    7.4287   -3.0522 C   0  0  0  0  0  0  0  0  0  0  0  0
    2.6816    7.6634   -1.7678 C   0  0  0  0  0  0  0  0  0  0  0  0
    3.0946    6.5970   -0.9564 N   0  0  0  0  0  0  0  0  0  0  0  0
    2.5950    5.2499   -1.1900 C   0  0  0  0  0  0  0  0  0  0  0  0
    3.6879    4.1873   -1.3165 C   0  0  2  0  0  0  0  0  0  0  0  0
    3.7207    3.2466   -0.0092 C   0  0  0  0  0  0  0  0  0  0  0  0
    4.7406    3.5259    1.1727 C   0  0  0  0  0  0  0  0  0  0  0  0
    4.4511    4.9754    1.6352 C   0  0  0  0  0  0  0  0  0  0  0  0
    4.4269    2.6300    2.3891 C   0  0  0  0  0  0  0  0  0  0  0  0
    6.2029    3.2611    0.7453 C   0  0  0  0  0  0  0  0  0  0  0  0
    6.4632    2.8928   -0.5860 C   0  0  0  0  0  0  0  0  0  0  0  0
    7.6729    3.2401   -1.2185 C   0  0  0  0  0  0  0  0  0  0  0  0
    8.7723    3.4949   -0.5114 C   0  0  0  0  0  0  0  0  0  0  0  0
    8.6120    3.3930    0.8532 C   0  0  0  0  0  0  0  0  0  0  0  0
    7.3591    3.3401    1.4791 C   0  0  0  0  0  0  0  0  0  0  0  0
    7.4927    3.2438    2.8406 O   0  0  0  0  0  0  0  0  0  0  0  0
    8.9234    3.1213    3.0787 C   0  0  0  0  0  0  0  0  0  0  0  0
    9.7109    3.2100    1.7838 C   0  0  0  0  0  0  0  0  0  0  0  0
    7.7321    3.3822   -2.5594 F   0  0  0  0  0  0  0  0  0  0  0  0
    4.9721    4.8536   -1.9049 C   0  0  0  0  0  0  0  0  0  0  0  0
    5.5904    3.8983   -2.6500 F   0  0  0  0  0  0  0  0  0  0  0  0
    4.7622    5.8118   -2.8306 F   0  0  0  0  0  0  0  0  0  0  0  0
    5.8140    5.3615   -0.9890 F   0  0  0  0  0  0  0  0  0  0  0  0
    3.1967    3.2572   -2.3659 O   0  0  0  0  0  0  0  0  0  0  0  0
  1  2  1  0
  2  3  2  0
  2  7  1  0
  3  4  1  0
  4  5  2  0
  5  6  1  0
  5 11  1  0
  6  7  2  0
  6  8  1  0
  8  9  2  0
  9 10  1  0
 10 11  2  0
 11 12  1  0
 12 13  1  0
 14 29  1  0
 14 33  1  6
 14 15  1  0
 14 13  1  0
 15 16  1  0
 16 17  1  0
 16 18  1  0
 16 19  1  0
 19 20  2  0
 19 24  1  0
 20 21  1  0
 21 22  2  0
 21 28  1  0
 22 23  1  0
 23 24  2  0
 23 27  1  0
 24 25  1  0
 25 26  1  0
 26 27  1  0
 29 30  1  0
 29 31  1  0
 29 32  1  0
M  END
>  <DRUGBANK_ID>  (1) 
DB12041

>  <COMMON_NAME>  (1) 
Mapracorat

>  <CAS_NUMBER>  (1) 
887375-26-0

>  <UNII>  (1) 
145V79YBVP

>  <SYNONYMS>  (1) 
Mapracorat

$$$$
