
     RDKit          3D

  1  0  0  0  0  0  0  0  0  0999 V2000
    0.9543    0.0627   -0.0631 In  0  0  0  0  0 15  0  0  0  0  0  0
M  CHG  1   1   3
M  ISO  1   1 111
M  END
>  <DRUGBANK_ID>  (1) 
DB14535

>  <COMMON_NAME>  (1) 
Indium cation In-111

>  <CAS_NUMBER>  (1) 
131391-70-3

>  <UNII>  (1) 
WJZ06C0H8L

>  <SYNONYMS>  (1) 
Indium (111In) cation; Indium cation In 111; Indium cation In-111 (3+); Indium In-111 cation; Indium-111 cation; Indium, ion (In3+) In-111

$$$$
