
     RDKit          3D

 10 10  0  0  0  0  0  0  0  0999 V2000
    0.9965   -0.1190    0.0226 C   0  0  0  0  0  0  0  0  0  0  0  0
    0.2798   -1.2289    0.5494 C   0  0  0  0  0  0  0  0  0  0  0  0
   -0.8442   -1.8325    0.0359 C   0  0  0  0  0  0  0  0  0  0  0  0
    0.4135    0.9649   -0.5155 C   0  0  0  0  0  0  0  0  0  0  0  0
    1.1239    2.1325   -1.0501 C   0  0  0  0  0  0  0  0  0  0  0  0
    2.4600    2.0358   -1.0086 O   0  0  0  0  0  0  0  0  0  0  0  0
    0.5657    3.1159   -1.5097 O   0  0  0  0  0  0  0  0  0  0  0  0
    0.6748   -1.8350    1.7116 N   0  0  0  0  0  0  0  0  0  0  0  0
   -1.1514   -2.8219    0.9307 N   0  0  0  0  0  0  0  0  0  0  0  0
   -0.2212   -2.7728    1.9317 C   0  0  0  0  0  0  0  0  0  0  0  0
  1  4  2  0
  2  1  1  0
  2  8  1  0
  3  2  2  0
  3  9  1  0
  4  5  1  0
  5  7  2  0
  6  5  1  0
 10  8  2  0
 10  9  1  0
M  END
>  <DRUGBANK_ID>  (1) 
DB01971

>  <SECONDARY_ACCESSION_NUMBERS>  (1) 
EXPT03207

>  <COMMON_NAME>  (1) 
trans-urocanic acid

>  <CAS_NUMBER>  (1) 
3465-72-3

>  <UNII>  (1) 
G8D26XJJ3B

>  <SYNONYMS>  (1) 
(2E)-3-(1H-imidazol-4-yl)acrylic acid; (E)-3-(1H-imidazol-4-yl)-2-propenoic acid; Urocanic acid

$$$$
