211
     RDKit          3D

 18 18  0  0  1  0  0  0  0  0999 V2000
    1.3971   -0.2129    0.1015 C   0  0  0  0  0  0  0  0  0  0  0  0
    0.5614   -1.3377    0.0066 C   0  0  0  0  0  0  0  0  0  0  0  0
    0.7794    1.0695    0.1193 C   0  0  0  0  0  0  0  0  0  0  0  0
    2.9065   -0.2429    0.2265 C   0  0  0  0  0  0  0  0  0  0  0  0
   -0.8334   -1.1393   -0.0393 C   0  0  0  0  0  0  0  0  0  0  0  0
    0.8767   -2.6704   -0.0501 O   0  0  0  0  0  0  0  0  0  0  0  0
   -0.6019    1.2500    0.0979 C   0  0  0  0  0  0  0  0  0  0  0  0
    3.6389    0.2271   -1.0411 C   0  0  0  0  0  0  0  0  0  0  0  0
    3.3092    0.3922    1.4382 O   0  0  0  0  0  0  0  0  0  0  0  0
   -1.4115    0.1343   -0.0113 C   0  0  0  0  0  0  0  0  0  0  0  0
    2.2297   -3.0874   -0.0632 C   0  0  0  0  0  0  0  0  0  0  0  0
   -1.0220    2.5456    0.2226 O   0  0  0  0  0  0  0  0  0  0  0  0
    3.5258    1.6514   -1.2561 N   0  0  0  0  0  0  0  0  0  0  0  0
   -2.4111    2.7188    0.4871 C   0  0  0  0  0  0  0  0  0  0  0  0
    4.6076    2.4798   -1.0567 C   0  0  0  0  0  0  0  0  0  0  0  0
    4.2587    3.9680   -1.1098 C   0  0  0  0  0  0  0  0  0  0  0  0
    5.7300    2.0561   -0.8246 O   0  0  0  0  0  0  0  0  0  0  0  0
    4.7025    4.6291    0.1177 N   0  0  0  0  0  0  0  0  0  0  0  0
  1  2  2  0
  1  3  1  0
  1  4  1  0
  2  5  1  0
  2  6  1  0
  3  7  2  0
  4  8  1  0
  4  9  1  0
  5 10  2  0
  6 11  1  0
  7 12  1  0
  7 10  1  0
  8 13  1  0
 12 14  1  0
 13 15  1  0
 15 16  1  0
 15 17  2  0
 16 18  1  0
M  END
>  <DRUGBANK_ID>  (1) 
DB00211

>  <SECONDARY_ACCESSION_NUMBERS>  (1) 
APRD01116

>  <COMMON_NAME>  (1) 
Midodrine

>  <CAS_NUMBER>  (1) 
42794-76-3

>  <UNII>  (1) 
6YE7PBM15H

>  <SYNONYMS>  (1) 
(±)-2-amino-N-(β-hydroxy-2,5-dimethoxyphenethyl)acetamide; 1-(2',5'-Dimethoxyphenyl)-2-glycinamidoethanol; 2-Amino-N-(2,5-dimethoxy-beta-hydroxyphenethyl)acetamide; DL-N1-(beta-Hydroxy-2,5-dimethoxyphenethyl)glycinamid; Midodrin; Midodrina; Midodrine; Midodrinum

$$$$
