
     RDKit          3D

 22 23  0  0  0  0  0  0  0  0999 V2000
    1.4346   -0.3801   -0.0279 S   0  0  0  0  0  0  0  0  0  0  0  0
    3.6348    5.9902    0.1180 O   0  0  0  0  0  0  0  0  0  0  0  0
    0.8189   -3.3547    0.0312 O   0  0  0  0  0  0  0  0  0  0  0  0
   -1.4003   -3.1475    0.0443 O   0  0  0  0  0  0  0  0  0  0  0  0
   -0.6367    1.1409    0.0048 N   0  0  0  0  0  0  0  0  0  0  0  0
    2.3051    5.4243    3.6624 N   0  0  0  0  0  0  0  0  0  0  0  0
    1.9215    7.5380    1.2123 C   0  0  0  0  0  0  0  0  0  0  0  0
    3.3890    6.9720    1.1349 C   0  0  0  0  0  0  0  0  0  0  0  0
    0.6709    6.6087    1.1821 C   0  0  0  0  0  0  0  0  0  0  0  0
    1.8265    8.5173    2.3875 C   0  0  0  0  0  0  0  0  0  0  0  0
    3.0498    4.7539    0.2407 C   0  0  0  0  0  0  0  0  0  0  0  0
    1.4857    2.4036    0.0080 C   0  0  0  0  0  0  0  0  0  0  0  0
    2.3398    4.2585    1.3443 C   0  0  0  0  0  0  0  0  0  0  0  0
    3.0874    3.9795   -0.9306 C   0  0  0  0  0  0  0  0  0  0  0  0
    1.4370    3.2019    1.1543 C   0  0  0  0  0  0  0  0  0  0  0  0
    2.3504    2.7863   -1.0238 C   0  0  0  0  0  0  0  0  0  0  0  0
    0.6758    1.1760   -0.0448 C   0  0  0  0  0  0  0  0  0  0  0  0
   -1.0920   -0.1754    0.0009 C   0  0  0  0  0  0  0  0  0  0  0  0
   -0.1016   -1.1530    0.0059 C   0  0  0  0  0  0  0  0  0  0  0  0
   -2.5679   -0.3834   -0.0084 C   0  0  0  0  0  0  0  0  0  0  0  0
    2.3708    4.8501    2.6660 C   0  0  0  0  0  0  0  0  0  0  0  0
   -0.3077   -2.5963    0.0282 C   0  0  0  0  0  0  0  0  0  0  0  0
  1 17  1  0
  1 19  1  0
  2  8  1  0
  2 11  1  0
  3 22  1  0
  4 22  2  0
  5 17  2  0
  5 18  1  0
  6 21  3  0
  7  8  1  0
  7  9  1  0
  7 10  1  0
 11 13  2  0
 11 14  1  0
 12 15  2  0
 12 16  1  0
 12 17  1  0
 13 15  1  0
 13 21  1  0
 14 16  2  0
 18 19  2  0
 18 20  1  0
 19 22  1  0
M  END
>  <DRUGBANK_ID>  (1) 
DB04854

>  <SECONDARY_ACCESSION_NUMBERS>  (1) 
DB03786

>  <COMMON_NAME>  (1) 
Febuxostat

>  <CAS_NUMBER>  (1) 
144060-53-7

>  <UNII>  (1) 
101V0R1N2E

>  <SYNONYMS>  (1) 
2-(3-cyano-4-isobutoxyphenyl)-4-methyl- 1,3-thiazole-5-carboxylic acid; FÃ©buxostat; Febuxostat; Febuxostatum

$$$$
