ZYS
     RDKit          3D

 19 20  0  0  0  0  0  0  0  0999 V2000
    0.9618   -0.1099   -0.0622 C   0  0  0  0  0  0  0  0  0  0  0  0
    0.5744    0.5185   -1.4056 C   0  0  0  0  0  0  0  0  0  0  0  0
    1.0460   -0.3974   -2.5451 C   0  0  0  0  0  0  0  0  0  0  0  0
   -0.9672    0.5772   -1.4492 C   0  0  0  0  0  0  0  0  0  0  0  0
    1.1736    1.8547   -1.6346 N   0  0  0  0  0  0  0  0  0  0  0  0
    1.8600    2.5531   -0.6816 C   0  0  0  0  0  0  0  0  0  0  0  0
    3.3430    1.9867    0.0181 S   0  0  0  0  0  0  0  0  0  0  0  0
    1.5400    3.7694   -0.2964 N   0  0  0  0  0  0  0  0  0  0  0  0
    2.3893    4.1969    0.7005 C   0  0  0  0  0  0  0  0  0  0  0  0
    2.1578    5.4102    1.2150 N   0  0  0  0  0  0  0  0  0  0  0  0
    3.3917    3.3291    1.0849 C   0  0  0  0  0  0  0  0  0  0  0  0
    4.4179    3.3857    2.1100 C   0  0  0  0  0  0  0  0  0  0  0  0
    5.2557    2.4968    2.3150 O   0  0  0  0  0  0  0  0  0  0  0  0
    4.5336    4.5731    2.9916 C   0  0  0  0  0  0  0  0  0  0  0  0
    3.4781    4.9555    3.8314 C   0  0  0  0  0  0  0  0  0  0  0  0
    3.5898    6.1086    4.6102 C   0  0  0  0  0  0  0  0  0  0  0  0
    4.7852    6.8260    4.6231 C   0  0  0  0  0  0  0  0  0  0  0  0
    5.8609    6.4088    3.8376 C   0  0  0  0  0  0  0  0  0  0  0  0
    5.7223    5.3120    2.9844 C   0  0  0  0  0  0  0  0  0  0  0  0
  1  2  1  0
  2  3  1  0
  2  4  1  0
  2  5  1  0
  5  6  1  0
  6  7  1  0
  6  8  2  0
  7 11  1  0
  8  9  1  0
  9 10  1  0
  9 11  2  0
 11 12  1  0
 12 13  2  0
 12 14  1  0
 14 15  2  0
 14 19  1  0
 15 16  1  0
 16 17  2  0
 17 18  1  0
 18 19  2  0
M  END
>  <DRUGBANK_ID>  (1) 
DB08778

>  <COMMON_NAME>  (1) 
[4-amino-2-(tert-butylamino)-1,3-thiazol-5-yl](phenyl)methanone

>  <UNII>  (1) 
VVD6G32BMR

$$$$
