
     RDKit          3D

 30 32  0  0  0  0  0  0  0  0999 V2000
    0.7580    0.9532   -0.4360 C   0  0  0  0  0  0  0  0  0  0  0  0
    2.0835    0.7896   -0.6957 C   0  0  0  0  0  0  0  0  0  0  0  0
    2.7339   -0.4389   -0.3300 C   0  0  0  0  0  0  0  0  0  0  0  0
    2.1769   -1.6204   -0.1828 C   0  0  0  0  0  0  0  0  0  0  0  0
    0.8028   -1.4900   -0.0888 C   0  0  0  0  0  0  0  0  0  0  0  0
    0.1132   -0.2163   -0.1353 C   0  0  0  0  0  0  0  0  0  0  0  0
   -1.7494   -0.0871    0.0809 Br  0  0  0  0  0  0  0  0  0  0  0  0
    3.1343   -2.7440   -0.0449 N   0  0  0  0  0  0  0  0  0  0  0  0
    4.7359   -2.8301    0.0135 C   0  0  0  0  0  0  0  0  0  0  0  0
    5.2875   -3.9309   -0.0355 O   0  0  0  0  0  0  0  0  0  0  0  0
    5.6887   -1.4329    0.1100 N   0  0  0  0  0  0  0  0  0  0  0  0
    5.1692    0.6192    0.1736 C   0  0  0  0  0  0  0  0  0  0  0  0
    3.9534    1.0428    1.3912 C   0  0  0  0  0  0  0  0  0  0  0  0
    3.1090    2.0703    1.5372 C   0  0  0  0  0  0  0  0  0  0  0  0
    3.5342    2.9711    0.6155 C   0  0  0  0  0  0  0  0  0  0  0  0
    4.5576    2.7139   -0.4663 C   0  0  0  0  0  0  0  0  0  0  0  0
    5.2384    1.5602   -0.8263 C   0  0  0  0  0  0  0  0  0  0  0  0
    5.1384    3.8645   -1.1527 C   0  0  0  0  0  0  0  0  0  0  0  0
    6.4275    3.9640   -0.7361 F   0  0  0  0  0  0  0  0  0  0  0  0
    5.1393    3.7337   -2.4956 F   0  0  0  0  0  0  0  0  0  0  0  0
    4.4888    4.9887   -0.8140 F   0  0  0  0  0  0  0  0  0  0  0  0
    1.8521    1.8910    2.3550 C   0  0  0  0  0  0  0  0  0  0  0  0
    1.9382    2.6393    3.4700 F   0  0  0  0  0  0  0  0  0  0  0  0
    0.6919    2.2619    1.7479 F   0  0  0  0  0  0  0  0  0  0  0  0
    1.6007    0.6016    2.7721 F   0  0  0  0  0  0  0  0  0  0  0  0
    4.0410   -0.7800    0.1100 C   0  0  0  0  0  0  0  0  0  0  0  0
    5.1177   -0.6566    1.6127 N   0  0  0  0  0  0  0  0  0  0  0  0
    6.7892   -0.1150    0.9350 N   0  0  0  0  0  0  0  0  0  0  0  0
    6.7869   -0.2510   -0.8804 N   0  0  0  0  0  0  0  0  0  0  0  0
    5.2005   -0.6373   -1.3989 N   0  0  0  0  0  0  0  0  0  0  0  0
  1  2  2  0
  1  6  1  0
  2  3  1  0
  3  4  2  0
  3 26  1  0
  4  5  1  0
  4  8  1  0
  5  6  2  0
  6  7  1  0
  8  9  1  0
  9 10  2  0
  9 11  1  0
 11 12  1  0
 12 13  2  0
 12 17  1  0
 13 14  1  0
 14 15  2  0
 14 22  1  0
 15 16  1  0
 16 17  2  0
 16 18  1  0
 18 19  1  0
 18 20  1  0
 18 21  1  0
 22 23  1  0
 22 24  1  0
 22 25  1  0
 26 27  2  0
 26 30  1  0
 27 28  1  0
 28 29  1  0
 29 30  2  0
M  END
>  <DRUGBANK_ID>  (1) 
DB05835

>  <COMMON_NAME>  (1) 
NS-3728

>  <CAS_NUMBER>  (1) 
265646-85-3

>  <UNII>  (1) 
9H4XH6M8MU

>  <SYNONYMS>  (1) 
Endovion; N-[4-bromo-2-(1H-1,2,3,4-tetrazol-5-yl)phenyl]-N'-[3,5-bis(trifluoromethyl)phenyl]urea

$$$$
