
     RDKit          3D

 38 41  0  0  1  0  0  0  0  0999 V2000
   -3.5701    0.6249    2.0975 O   0  0  0  0  0  0  0  0  0  0  0  0
   -2.4069    0.3108    2.7290 C   0  0  0  0  0  0  0  0  0  0  0  0
   -2.2037    0.8092    3.8269 O   0  0  0  0  0  0  0  0  0  0  0  0
   -1.3119   -0.4275    1.8907 C   0  0  0  0  0  0  0  0  0  0  0  0
   -1.6949   -1.2394    0.6198 C   0  0  2  0  0  0  0  0  0  0  0  0
   -1.1264   -0.8172   -0.7629 C   0  0  0  0  0  0  0  0  0  0  0  0
   -1.4370    0.5942   -1.2624 C   0  0  0  0  0  0  0  0  0  0  0  0
   -0.8503    1.6322   -0.3840 N   0  0  0  0  0  0  0  0  0  0  0  0
   -1.8760    2.1184    0.5300 C   0  0  0  0  0  0  0  0  0  0  0  0
   -3.0593    2.9053    0.0141 C   0  0  0  0  0  0  0  0  0  0  0  0
   -2.5130    4.0982   -0.7102 C   0  0  0  0  0  0  0  0  0  0  0  0
   -1.4790    3.6314   -1.7314 C   0  0  0  0  0  0  0  0  0  0  0  0
   -2.1141    2.8606   -2.6578 F   0  0  0  0  0  0  0  0  0  0  0  0
   -0.9677    4.6924   -2.3871 F   0  0  0  0  0  0  0  0  0  0  0  0
   -0.3486    2.8122   -1.0850 C   0  0  0  0  0  0  0  0  0  0  0  0
   -3.1295   -1.4461    0.5274 N   0  0  0  0  0  0  0  0  0  0  0  0
   -3.8921   -2.5412    0.8782 C   0  0  0  0  0  0  0  0  0  0  0  0
   -5.1025   -2.4437    0.8380 O   0  0  0  0  0  0  0  0  0  0  0  0
   -3.1800   -3.7633    1.2774 C   0  0  0  0  0  0  0  0  0  0  0  0
   -2.0931   -3.8941    2.1753 C   0  0  0  0  0  0  0  0  0  0  0  0
   -1.7176   -5.2148    2.1402 C   0  0  0  0  0  0  0  0  0  0  0  0
   -0.6219   -5.8784    2.8298 C   0  0  0  0  0  0  0  0  0  0  0  0
   -0.5911   -5.8092    4.2310 C   0  0  0  0  0  0  0  0  0  0  0  0
    0.3359   -6.5536    4.9559 C   0  0  0  0  0  0  0  0  0  0  0  0
    1.2126   -7.4028    4.2899 C   0  0  0  0  0  0  0  0  0  0  0  0
    1.2018   -7.4603    2.8986 C   0  0  0  0  0  0  0  0  0  0  0  0
    0.3563   -6.6231    2.1512 C   0  0  0  0  0  0  0  0  0  0  0  0
    0.5900   -6.5447    0.6622 C   0  0  0  0  0  0  0  0  0  0  0  0
    1.8574   -6.1461    0.3603 F   0  0  0  0  0  0  0  0  0  0  0  0
    0.4421   -7.7613    0.0677 F   0  0  0  0  0  0  0  0  0  0  0  0
   -0.2147   -5.6861   -0.0190 F   0  0  0  0  0  0  0  0  0  0  0  0
   -2.6448   -5.8255    1.3222 N   0  0  0  0  0  0  0  0  0  0  0  0
   -3.5250   -4.9615    0.7823 N   0  0  0  0  0  0  0  0  0  0  0  0
   -2.7232   -7.2293    0.9688 C   0  0  0  0  0  0  0  0  0  0  0  0
   -2.5141   -7.5116   -0.5203 C   0  0  0  0  0  0  0  0  0  0  0  0
   -3.0808   -8.9064   -0.7381 C   0  0  0  0  0  0  0  0  0  0  0  0
   -3.9979   -9.1837    0.4514 C   0  0  0  0  0  0  0  0  0  0  0  0
   -4.0736   -7.8813    1.2410 C   0  0  0  0  0  0  0  0  0  0  0  0
  1  2  1  0
  2  3  2  0
  2  4  1  0
  5 16  1  0
  5  6  1  6
  5  4  1  0
  6  7  1  0
  7  8  1  0
  8  9  1  0
  8 15  1  0
  9 10  1  0
 10 11  1  0
 11 12  1  0
 12 13  1  0
 12 14  1  0
 12 15  1  0
 16 17  1  0
 17 18  2  0
 17 19  1  0
 19 20  1  0
 19 33  2  0
 20 21  2  0
 21 22  1  0
 21 32  1  0
 22 23  2  0
 22 27  1  0
 23 24  1  0
 24 25  2  0
 25 26  1  0
 26 27  2  0
 27 28  1  0
 28 29  1  0
 28 30  1  0
 28 31  1  0
 32 33  1  0
 32 34  1  0
 34 35  1  0
 34 38  1  0
 35 36  1  0
 36 37  1  0
 37 38  1  0
M  END
>  <DRUGBANK_ID>  (1) 
DB18003

>  <COMMON_NAME>  (1) 
APT-101

>  <CAS_NUMBER>  (1) 
2100848-01-7

>  <UNII>  (1) 
23Q58CY54R

>  <SYNONYMS>  (1) 
(S)-3-(1-Cyclopentyl-5-(2-(trifluoromethyl)phenyl)-1H-pyrazole-3-carboxamido)-5-(3,3-difluoropiperidin-1-yl)pentanoic acid

$$$$
