
     RDKit          3D

  1  0  0  0  0  0  0  0  0  0999 V2000
    0.9331    0.0647   -0.0365 Ca  0  0  0  0  0 15  0  0  0  0  0  0
M  CHG  1   1   2
M  END
>  <DRUGBANK_ID>  (1) 
DB14577

>  <COMMON_NAME>  (1) 
Calcium cation

>  <CAS_NUMBER>  (1) 
14127-61-8

>  <UNII>  (1) 
2M83C4R6ZB

>  <SYNONYMS>  (1) 
Calcium (2+); Calcium ions; calcium(2+) ion; Calcium(2+)ions

$$$$
