
     RDKit          3D

 15 15  0  0  0  0  0  0  0  0999 V2000
    1.0551    0.0477   -0.0526 C   0  0  0  0  0  0  0  0  0  0  0  0
    0.5981   -0.5867    1.2443 C   0  0  0  0  0  0  0  0  0  0  0  0
    1.0742    0.2248    2.4542 C   0  0  0  0  0  0  0  0  0  0  0  0
    0.4719    1.6414    2.4933 C   0  0  0  0  0  0  0  0  0  0  0  0
   -1.0732    1.6658    2.4899 C   0  0  0  0  0  0  0  0  0  0  0  0
   -1.6130    0.9912    3.7319 C   0  0  0  0  0  0  0  0  0  0  0  0
   -1.6189   -0.4101    3.8328 C   0  0  0  0  0  0  0  0  0  0  0  0
   -1.7204   -1.0518    5.0682 C   0  0  0  0  0  0  0  0  0  0  0  0
   -1.4539   -2.5329    5.1733 C   0  0  0  0  0  0  0  0  0  0  0  0
   -0.2716   -2.8432    6.0721 C   0  0  0  0  0  0  0  0  0  0  0  0
   -0.5708   -3.6055    7.1484 O   0  0  0  0  0  0  0  0  0  0  0  0
    0.8742   -2.4506    5.8669 O   0  0  0  0  0  0  0  0  0  0  0  0
   -1.9616   -0.2763    6.2020 C   0  0  0  0  0  0  0  0  0  0  0  0
   -2.0363    1.1142    6.1021 C   0  0  0  0  0  0  0  0  0  0  0  0
   -1.8894    1.7475    4.8693 C   0  0  0  0  0  0  0  0  0  0  0  0
  1  2  1  0
  2  3  1  0
  3  4  1  0
  4  5  1  0
  5  6  1  0
  6  7  2  0
  6 15  1  0
  7  8  1  0
  8  9  1  0
  8 13  2  0
  9 10  1  0
 10 11  1  0
 10 12  2  0
 13 14  1  0
 14 15  2  0
M  END
>  <DRUGBANK_ID>  (1) 
DB15447

>  <COMMON_NAME>  (1) 
Setogepram

>  <CAS_NUMBER>  (1) 
1002101-19-0

>  <UNII>  (1) 
879OVM0Y1S

>  <SYNONYMS>  (1) 
2-(3-Pentylphenyl)acetic acid; 3-Pentylbenzenacetic acid; Fezagepras

$$$$
