
     RDKit          3D

 30 33  0  0  0  0  0  0  0  0999 V2000
    1.0310    0.0382    0.2103 C   0  0  0  0  0  0  0  0  0  0  0  0
    0.3826    1.3294    0.1814 N   0  0  0  0  0  0  0  0  0  0  0  0
   -0.8134    1.5227   -0.6307 C   0  0  0  0  0  0  0  0  0  0  0  0
    0.9040    2.3028    0.9878 C   0  0  0  0  0  0  0  0  0  0  0  0
    1.7069    2.0717    1.9089 O   0  0  0  0  0  0  0  0  0  0  0  0
    0.4719    3.6940    0.6739 C   0  0  0  0  0  0  0  0  0  0  0  0
    1.1106    4.2214   -0.6407 C   0  0  0  0  0  0  0  0  0  0  0  0
    0.8875    3.6094   -1.9705 N   0  0  0  0  0  0  0  0  0  0  0  0
    0.0686    4.1087   -2.9760 C   0  0  0  0  0  0  0  0  0  0  0  0
   -0.2431    3.1068   -3.7891 N   0  0  0  0  0  0  0  0  0  0  0  0
    0.5137    2.0216   -3.3725 C   0  0  0  0  0  0  0  0  0  0  0  0
    1.3259    2.3530   -2.3411 N   0  0  0  0  0  0  0  0  0  0  0  0
    0.2754    0.8142   -4.0072 N   0  0  0  0  0  0  0  0  0  0  0  0
    0.5485   -0.5426   -3.6441 C   0  0  0  0  0  0  0  0  0  0  0  0
   -0.2263   -1.2711   -2.7077 C   0  0  0  0  0  0  0  0  0  0  0  0
    0.1825   -2.5261   -2.1901 C   0  0  0  0  0  0  0  0  0  0  0  0
    1.2793   -3.1267   -2.7571 C   0  0  0  0  0  0  0  0  0  0  0  0
    1.8927   -2.5442   -3.8388 C   0  0  0  0  0  0  0  0  0  0  0  0
    1.5253   -1.2871   -4.3226 C   0  0  0  0  0  0  0  0  0  0  0  0
    2.9150   -3.3086   -4.3203 O   0  0  0  0  0  0  0  0  0  0  0  0
    2.9095   -4.3827   -3.3667 C   0  0  0  0  0  0  0  0  0  0  0  0
    1.8671   -4.2945   -2.3794 O   0  0  0  0  0  0  0  0  0  0  0  0
    2.7764   -5.5563   -4.0353 F   0  0  0  0  0  0  0  0  0  0  0  0
    4.1145   -4.4138   -2.7415 F   0  0  0  0  0  0  0  0  0  0  0  0
   -0.3878    5.5006   -3.0563 C   0  0  0  0  0  0  0  0  0  0  0  0
    0.5341    6.5421   -2.8931 C   0  0  0  0  0  0  0  0  0  0  0  0
    0.0811    7.8482   -2.8989 C   0  0  0  0  0  0  0  0  0  0  0  0
   -1.1942    8.1850   -3.1648 N   0  0  0  0  0  0  0  0  0  0  0  0
   -2.0551    7.1717   -3.4071 C   0  0  0  0  0  0  0  0  0  0  0  0
   -1.7190    5.8283   -3.3104 C   0  0  0  0  0  0  0  0  0  0  0  0
  1  2  1  0
  2  3  1  0
  2  4  1  0
  4  5  2  0
  4  6  1  0
  6  7  1  0
  7  8  1  0
  8  9  1  0
  8 12  1  0
  9 10  2  0
  9 25  1  0
 10 11  1  0
 11 12  2  0
 11 13  1  0
 13 14  1  0
 14 15  2  0
 14 19  1  0
 15 16  1  0
 16 17  2  0
 17 18  1  0
 17 22  1  0
 18 19  2  0
 18 20  1  0
 20 21  1  0
 21 22  1  0
 21 23  1  0
 21 24  1  0
 25 26  2  0
 25 30  1  0
 26 27  1  0
 27 28  2  0
 28 29  1  0
 29 30  2  0
M  END
>  <DRUGBANK_ID>  (1) 
DB11867

>  <COMMON_NAME>  (1) 
JNJ-39393406

>  <CAS_NUMBER>  (1) 
953428-73-4

>  <UNII>  (1) 
T930SOU82P

$$$$
