OBP
     RDKit          3D

 16 17  0  0  0  0  0  0  0  0999 V2000
   -4.2434   -1.2662   -3.0204 C   0  0  0  0  0  0  0  0  0  0  0  0
   -3.3583   -1.2540   -1.9200 C   0  0  0  0  0  0  0  0  0  0  0  0
   -2.9576   -2.4884   -1.3467 C   0  0  0  0  0  0  0  0  0  0  0  0
   -3.4349   -3.6821   -1.9257 C   0  0  0  0  0  0  0  0  0  0  0  0
   -4.3052   -3.6676   -3.0155 C   0  0  0  0  0  0  0  0  0  0  0  0
   -4.7051   -2.4608   -3.5681 C   0  0  0  0  0  0  0  0  0  0  0  0
   -2.9088    0.0487   -1.4138 C   0  0  0  0  0  0  0  0  0  0  0  0
   -3.8363    0.9296   -0.8300 C   0  0  0  0  0  0  0  0  0  0  0  0
   -3.4072    2.0934   -0.1912 C   0  0  0  0  0  0  0  0  0  0  0  0
   -2.0446    2.3633   -0.0875 C   0  0  0  0  0  0  0  0  0  0  0  0
   -1.1195    1.5264   -0.7045 C   0  0  0  0  0  0  0  0  0  0  0  0
   -1.5597    0.4338   -1.4408 C   0  0  0  0  0  0  0  0  0  0  0  0
   -0.6001   -0.2460   -2.1455 O   0  0  0  0  0  0  0  0  0  0  0  0
   -2.0406   -2.6409    0.2509 S   0  0  0  0  0  0  0  0  0  0  0  0
   -0.9937   -1.5743    0.3275 O   0  0  0  0  0  0  0  0  0  0  0  0
   -1.2557   -3.9705   -0.1814 O   0  0  0  0  0  0  0  0  0  0  0  0
  1  2  2  0
  1  6  1  0
  2  3  1  0
  2  7  1  0
  3  4  2  0
  4  5  1  0
  5  6  2  0
  7  8  2  0
  7 12  1  0
  8  9  1  0
  9 10  2  0
 10 11  1  0
 11 12  2  0
 12 13  1  0
 14 16  1  0
 14 15  2  0
 14  3  1  0
M  END
>  <DRUGBANK_ID>  (1) 
DB08319

>  <COMMON_NAME>  (1) 
2'-HYDROXY-1,1'-BIPHENYL-2-SULFINIC ACID

$$$$
