
     RDKit          3D

 26 27  0  0  1  0  0  0  0  0999 V2000
   10.4486    3.2467   -0.4253 C   0  0  0  0  0  0  0  0  0  0  0  0
    9.1927    2.9954    0.3798 C   0  0  1  0  0  0  0  0  0  0  0  0
    8.7226    4.1838    1.2976 C   0  0  0  0  0  0  0  0  0  0  0  0
    7.5742    4.6344    1.2309 O   0  0  0  0  0  0  0  0  0  0  0  0
    9.5308    4.7032    2.2826 N   0  0  0  0  0  0  0  0  0  0  0  0
   10.9052    4.3646    2.6987 C   0  0  1  0  0  0  0  0  0  0  0  0
   11.1083    2.8917    3.0299 C   0  0  0  0  0  0  0  0  0  0  0  0
   10.0281    2.0204    3.1414 C   0  0  0  0  0  0  0  0  0  0  0  0
   10.2222    0.6400    3.1173 C   0  0  0  0  0  0  0  0  0  0  0  0
   11.4714    0.0854    3.0921 C   0  0  0  0  0  0  0  0  0  0  0  0
   12.5307    0.9249    3.3311 C   0  0  0  0  0  0  0  0  0  0  0  0
   12.3560    2.3264    3.3147 C   0  0  0  0  0  0  0  0  0  0  0  0
   13.5110    3.2122    3.6724 C   0  0  0  0  0  0  0  0  0  0  0  0
   14.0194    3.9699    2.4569 C   0  0  0  0  0  0  0  0  0  0  0  0
   13.2105    5.1482    2.1475 N   0  0  0  0  0  0  0  0  0  0  0  0
   11.8982    5.0638    1.7190 C   0  0  0  0  0  0  0  0  0  0  0  0
   11.5264    5.7110    0.7344 O   0  0  0  0  0  0  0  0  0  0  0  0
   13.7881    6.4755    2.1385 C   0  0  0  0  0  0  0  0  0  0  0  0
    8.1410    2.3371   -0.4138 N   0  0  0  0  0  0  0  0  0  0  0  0
    7.6862    1.0212   -0.3152 C   0  0  0  0  0  0  0  0  0  0  0  0
    6.7674    0.6283   -1.0026 O   0  0  0  0  0  0  0  0  0  0  0  0
    8.3357    0.1242    0.7614 C   0  0  2  0  0  0  0  0  0  0  0  0
    8.3114   -1.4187    0.6119 C   0  0  0  0  0  0  0  0  0  0  0  0
    9.7038   -2.0828    0.7891 C   0  0  0  0  0  0  0  0  0  0  0  0
    7.3770   -2.0899    1.6173 C   0  0  0  0  0  0  0  0  0  0  0  0
    7.7011    0.5742    1.9743 O   0  0  0  0  0  0  0  0  0  0  0  0
  2  1  1  6
  2  3  1  0
  2 19  1  0
  3  4  2  0
  3  5  1  0
  6  7  1  0
  6 16  1  0
  6  5  1  6
  7  8  2  0
  7 12  1  0
  8  9  1  0
  9 10  2  0
 10 11  1  0
 11 12  2  0
 12 13  1  0
 13 14  1  0
 14 15  1  0
 15 16  1  0
 15 18  1  0
 16 17  2  0
 19 20  1  0
 20 21  2  0
 22 26  1  1
 22 23  1  0
 22 20  1  0
 23 24  1  0
 23 25  1  0
M  END
>  <DRUGBANK_ID>  (1) 
DB12463

>  <COMMON_NAME>  (1) 
Semagacestat

>  <CAS_NUMBER>  (1) 
425386-60-3

>  <UNII>  (1) 
3YN0602W4W

>  <SYNONYMS>  (1) 
Semagacestat

$$$$
