
     RDKit          3D

 27 30  0  0  0  0  0  0  0  0999 V2000
   -0.4886   -0.5995   -0.1986 C   0  0  0  0  0  0  0  0  0  0  0  0
   -1.7531   -1.0869   -0.4549 C   0  0  0  0  0  0  0  0  0  0  0  0
   -2.5103   -0.6560    0.9181 C   0  0  0  0  0  0  0  0  0  0  0  0
   -2.6296    0.7938    0.9387 C   0  0  0  0  0  0  0  0  0  0  0  0
   -1.3569    1.1861    0.7907 C   0  0  0  0  0  0  0  0  0  0  0  0
   -0.1652    0.2059    1.0760 C   0  0  2  0  0  0  0  0  0  0  0  0
    0.8049    1.1213    2.0080 C   0  0  2  0  0  0  0  0  0  0  0  0
   -1.0990    2.3508   -0.1278 C   0  0  0  0  0  0  0  0  0  0  0  0
   -0.4326    3.2497    0.7921 C   0  0  0  0  0  0  0  0  0  0  0  0
    0.9421    2.5886    1.6391 C   0  0  1  0  0  0  0  0  0  0  0  0
    2.7647    1.6474    3.9926 C   0  0  0  0  0  0  0  0  0  0  0  0
    2.1631    0.6755    2.7242 C   0  0  2  0  0  0  0  0  0  0  0  0
    1.6393    3.3468    3.0781 C   0  0  2  0  0  0  0  0  0  0  0  0
    3.0473    3.2287    3.6876 C   0  0  1  0  0  0  0  0  0  0  0  0
    2.7007    4.8247    4.6054 C   0  0  2  0  0  0  0  0  0  0  0  0
    0.8087    3.8052    4.5594 C   0  0  0  0  0  0  0  0  0  0  0  0
    1.6769    4.3620    5.5650 C   0  0  0  0  0  0  0  0  0  0  0  0
   -2.8257   -1.3986    1.8336 O   0  0  0  0  0  0  0  0  0  0  0  0
   -0.1094   -1.0858    1.9676 C   0  0  0  0  0  0  0  0  0  0  0  0
    4.0812    3.2338    2.5124 C   0  0  0  0  0  0  0  0  0  0  0  0
    3.1474    0.4051    1.7324 O   0  0  0  0  0  0  0  0  0  0  0  0
    2.5420    5.8601    3.4650 C   0  0  0  0  0  0  0  0  0  0  0  0
    3.0404    5.9650    5.4749 O   0  0  0  0  0  0  0  0  0  0  0  0
    1.2715    6.0048    2.9740 O   0  0  0  0  0  0  0  0  0  0  0  0
    3.4638    6.6310    3.1684 O   0  0  0  0  0  0  0  0  0  0  0  0
    0.1550    5.1260    2.3723 C   0  0  0  0  0  0  0  0  0  0  0  0
   -1.1868    3.6634    3.3048 Cl  0  0  0  0  0  0  0  0  0  0  0  0
  1  2  2  0
  1  6  1  0
  2  3  1  0
  3  4  1  0
  3 18  2  0
  4  5  2  0
  5  8  1  0
  6  5  1  0
  6 19  1  1
  7  6  1  0
  7 10  1  0
  8  9  1  0
 10  9  1  1
 10 13  1  0
 11 12  1  0
 11 14  1  0
  7 12  1  6
 12 21  1  6
 13 16  1  1
 14 13  1  0
 14 20  1  6
 15 14  1  0
 15 17  1  0
 15 23  1  1
 15 22  1  0
 16 17  1  0
 22 24  1  0
 22 25  2  0
 24 26  1  0
 26 27  1  0
M  END
>  <DRUGBANK_ID>  (1) 
DB00873

>  <SECONDARY_ACCESSION_NUMBERS>  (1) 
APRD01078

>  <COMMON_NAME>  (1) 
Loteprednol

>  <CAS_NUMBER>  (1) 
129260-79-3

>  <UNII>  (1) 
Z8CBU6KR16

>  <SYNONYMS>  (1) 
Loteprednol

$$$$
