
     RDKit          3D

 16 15  0  0  1  0  0  0  0  0999 V2000
    0.9227    0.0246   -0.0408 N   0  0  0  0  0  0  0  0  0  0  0  0
    0.3760   -1.3019   -0.3798 C   0  0  1  0  0  0  0  0  0  0  0  0
    0.8874   -2.3333    0.6620 C   0  0  0  0  0  0  0  0  0  0  0  0
    0.4964   -2.0687    2.1203 C   0  0  0  0  0  0  0  0  0  0  0  0
   -0.9996   -2.0638    2.2942 C   0  0  0  0  0  0  0  0  0  0  0  0
   -1.5902   -3.3365    1.9249 N   0  0  0  0  0  0  0  0  0  0  0  0
   -2.4071   -4.0958    2.7034 C   0  0  0  0  0  0  0  0  0  0  0  0
   -2.7998   -5.1954    2.3336 O   0  0  0  0  0  0  0  0  0  0  0  0
   -2.7779   -3.5061    4.0142 C   0  0  0  0  0  0  0  0  0  0  0  0
   -1.2529   -3.1703    4.9684 P   0  0  0  0  0  0  0  0  0  0  0  0
   -2.2777   -2.3669    5.9709 O   0  0  0  0  0  0  0  0  0  0  0  0
   -1.4163   -4.6914    5.5863 O   0  0  0  0  0  0  0  0  0  0  0  0
    0.0373   -2.8862    5.7758 O   0  0  0  0  0  0  0  0  0  0  0  0
   -1.1705   -1.1679   -0.6316 C   0  0  0  0  0  0  0  0  0  0  0  0
   -1.6491   -1.8528   -1.6866 O   0  0  0  0  0  0  0  0  0  0  0  0
   -1.9490   -0.4794    0.0326 O   0  0  0  0  0  0  0  0  0  0  0  0
  2  1  1  1
  2  3  1  0
  2 14  1  0
  3  4  1  0
  4  5  1  0
  5  6  1  0
  6  7  1  0
  7  8  2  0
  7  9  1  0
  9 10  1  0
 10 11  1  0
 10 12  1  0
 10 13  2  0
 14 15  1  0
 14 16  2  0
M  END
>  <DRUGBANK_ID>  (1) 
DB02011

>  <SECONDARY_ACCESSION_NUMBERS>  (1) 
EXPT02497

>  <COMMON_NAME>  (1) 
N-(Phosphonoacetyl)-L-Ornithine

>  <CAS_NUMBER>  (1) 
63446-55-9

$$$$
