
     RDKit          3D

 34 36  0  0  0  0  0  0  0  0999 V2000
    1.0119   -0.1496    0.1833 S   0  0  0  0  0  0  0  0  0  0  0  0
   -2.9023    4.6448   -1.1895 O   0  0  0  0  0  0  0  0  0  0  0  0
    1.2889    2.0311   -3.5554 O   0  0  0  0  0  0  0  0  0  0  0  0
    0.4773   -0.8389   -0.9616 O   0  0  0  0  0  0  0  0  0  0  0  0
    0.5776   -0.5333    1.5195 O   0  0  0  0  0  0  0  0  0  0  0  0
   -1.4962    2.9380   -1.6324 N   0  0  0  0  0  0  0  0  0  0  0  0
    0.5708    1.5016    0.0418 N   0  0  0  0  0  0  0  0  0  0  0  0
    3.4013   -1.2481   -0.0185 N   0  0  0  0  0  0  0  0  0  0  0  0
   -2.8846    3.8793   -3.4861 C   0  0  2  0  0  0  0  0  0  0  0  0
   -3.7761    2.6162   -3.8740 C   0  0  0  0  0  0  0  0  0  0  0  0
   -3.4628    1.2372   -3.2402 C   0  0  0  0  0  0  0  0  0  0  0  0
   -1.6824    4.2190   -4.3736 C   0  0  0  0  0  0  0  0  0  0  0  0
   -2.4442    3.8674   -2.0267 C   0  0  0  0  0  0  0  0  0  0  0  0
   -3.6671    1.1899   -1.7045 C   0  0  0  0  0  0  0  0  0  0  0  0
   -4.1571    0.0007   -3.7588 C   0  0  0  0  0  0  0  0  0  0  0  0
   -0.8986    1.8237   -2.4316 C   0  0  0  0  0  0  0  0  0  0  0  0
   -1.8187    4.4945   -5.7145 C   0  0  0  0  0  0  0  0  0  0  0  0
    0.5850    1.5951   -2.4114 C   0  0  2  0  0  0  0  0  0  0  0  0
   -0.3726    4.3312   -3.8628 C   0  0  0  0  0  0  0  0  0  0  0  0
   -0.6647    4.6625   -6.5001 C   0  0  0  0  0  0  0  0  0  0  0  0
    1.0512    2.2529   -1.1560 C   0  0  0  0  0  0  0  0  0  0  0  0
    0.7698    4.3719   -4.6453 C   0  0  0  0  0  0  0  0  0  0  0  0
    0.6224    4.4538   -5.9930 C   0  0  0  0  0  0  0  0  0  0  0  0
   -0.7640    5.2767   -7.7950 C   0  0  0  0  0  0  0  0  0  0  0  0
   -1.2437    6.5937   -7.8560 C   0  0  0  0  0  0  0  0  0  0  0  0
   -0.2465    4.6467   -8.9228 C   0  0  0  0  0  0  0  0  0  0  0  0
    2.7909   -0.0550    0.1220 C   0  0  0  0  0  0  0  0  0  0  0  0
   -1.2282    7.2740   -9.0569 C   0  0  0  0  0  0  0  0  0  0  0  0
   -0.1788    5.3520  -10.1110 C   0  0  0  0  0  0  0  0  0  0  0  0
   -0.6981    6.6478  -10.1831 C   0  0  0  0  0  0  0  0  0  0  0  0
    3.4648    1.1641    0.1829 C   0  0  0  0  0  0  0  0  0  0  0  0
    4.8335    1.1854    0.0050 C   0  0  0  0  0  0  0  0  0  0  0  0
    4.7471   -1.1993   -0.0684 C   0  0  0  0  0  0  0  0  0  0  0  0
    5.4941   -0.0259   -0.0805 C   0  0  0  0  0  0  0  0  0  0  0  0
  1  4  2  0
  1  5  2  0
  1  7  1  0
  1 27  1  0
  2 13  2  0
  6 13  1  0
  6 16  1  0
  7 21  1  0
  8 27  2  0
  8 33  1  0
  9 13  1  0
  9 12  1  0
  9 10  1  6
 10 11  1  0
 11 14  1  0
 11 15  1  0
 12 17  2  0
 12 19  1  0
 17 20  1  0
 18 21  1  0
 18 16  1  0
 18  3  1  6
 19 22  2  0
 20 23  2  0
 20 24  1  0
 22 23  1  0
 24 25  2  0
 24 26  1  0
 25 28  1  0
 26 29  2  0
 27 31  1  0
 28 30  2  0
 29 30  1  0
 31 32  2  0
 32 34  1  0
 33 34  2  0
M  END
>  <DRUGBANK_ID>  (1) 
DB04244

>  <SECONDARY_ACCESSION_NUMBERS>  (1) 
EXPT01807

>  <COMMON_NAME>  (1) 
(2R)-2-(3-Biphenylyl)-N-{(2R)-2-hydroxy-3-[(2-pyridinylsulfonyl)amino]propyl}-4-methylpentanamide

$$$$
