
     RDKit          3D

 15 15  0  0  0  0  0  0  0  0999 V2000
    1.0438    0.1263   -0.0232 N   0  0  0  0  0  0  0  0  0  0  0  0
    0.5948   -1.2014   -0.4878 C   0  0  0  0  0  0  0  0  0  0  0  0
    1.0330   -2.3185    0.4096 C   0  0  0  0  0  0  0  0  0  0  0  0
    1.4422   -2.0912    1.7345 C   0  0  0  0  0  0  0  0  0  0  0  0
    1.6455   -3.1539    2.6006 C   0  0  0  0  0  0  0  0  0  0  0  0
    1.4543   -4.4623    2.1543 C   0  0  0  0  0  0  0  0  0  0  0  0
    1.7555   -5.6127    3.0669 C   0  0  0  0  0  0  0  0  0  0  0  0
    0.5808   -6.4495    3.2867 N   0  0  0  0  0  0  0  0  0  0  0  0
    0.8736   -7.5185    4.2478 C   0  0  0  0  0  0  0  0  0  0  0  0
    1.3042   -7.0301    5.6353 C   0  0  0  0  0  0  0  0  0  0  0  0
    0.2556   -6.1246    6.2333 C   0  0  0  0  0  0  0  0  0  0  0  0
   -0.2077   -6.5066    7.4352 O   0  0  0  0  0  0  0  0  0  0  0  0
   -0.1514   -5.1031    5.6809 O   0  0  0  0  0  0  0  0  0  0  0  0
    1.0434   -4.6979    0.8409 C   0  0  0  0  0  0  0  0  0  0  0  0
    0.8840   -3.6378   -0.0425 C   0  0  0  0  0  0  0  0  0  0  0  0
  1  2  1  0
  2  3  1  0
  3  4  2  0
  3 15  1  0
  4  5  1  0
  5  6  2  0
  6  7  1  0
  6 14  1  0
  7  8  1  0
  8  9  1  0
  9 10  1  0
 10 11  1  0
 11 12  1  0
 11 13  2  0
 14 15  2  0
M  CHG  1   1   1
M  END
>  <DRUGBANK_ID>  (1) 
DB02960

>  <SECONDARY_ACCESSION_NUMBERS>  (1) 
EXPT02200

>  <COMMON_NAME>  (1) 
1-Carboxyethylaminomethyl-4-Aminomethylbenzene

$$$$
