
     RDKit          3D

 17 18  0  0  0  0  0  0  0  0999 V2000
    0.9551    0.0759    0.1212 C   0  0  0  0  0  0  0  0  0  0  0  0
    2.2603    2.2157   -8.2275 C   0  0  0  0  0  0  0  0  0  0  0  0
    3.3059    2.9438   -7.8189 C   0  0  0  0  0  0  0  0  0  0  0  0
    1.0877    2.8827   -2.4636 C   0  0  0  0  0  0  0  0  0  0  0  0
    1.5310    3.0720   -3.7858 C   0  0  0  0  0  0  0  0  0  0  0  0
    1.5169    1.6311   -7.0722 C   0  0  0  0  0  0  0  0  0  0  0  0
    3.4088    2.9675   -6.3261 C   0  0  0  0  0  0  0  0  0  0  0  0
    1.3385    0.5208   -2.7511 C   0  0  0  0  0  0  0  0  0  0  0  0
    0.4473    1.3734   -0.5196 C   0  0  0  0  0  0  0  0  0  0  0  0
    0.9778    1.5953   -1.9296 C   0  0  0  0  0  0  0  0  0  0  0  0
    1.7779    0.7104   -4.0660 C   0  0  0  0  0  0  0  0  0  0  0  0
    1.8646    1.9938   -4.6298 C   0  0  0  0  0  0  0  0  0  0  0  0
   -1.0705    1.4028   -0.4757 C   0  0  0  0  0  0  0  0  0  0  0  0
    2.2723   -0.7248   -4.9023 Cl  0  0  0  0  0  0  0  0  0  0  0  0
    2.2071    2.2398   -5.9399 N   0  0  0  0  0  0  0  0  0  0  0  0
   -1.7525    2.2019    0.1523 O   0  0  0  0  0  0  0  0  0  0  0  0
   -1.6567    0.4350   -1.2103 O   0  0  0  0  0  0  0  0  0  0  0  0
  3  2  2  0
  5  4  2  0
  6  2  1  0
  7  3  1  0
  9  1  1  0
 10  4  1  0
 10  8  2  0
 10  9  1  0
 11  8  1  0
 12  5  1  0
 12 11  2  0
 13  9  1  0
 14 11  1  0
 15  6  1  0
 15  7  1  0
 15 12  1  0
 16 13  2  0
 17 13  1  0
M  END
>  <DRUGBANK_ID>  (1) 
DB13722

>  <COMMON_NAME>  (1) 
Pirprofen

>  <CAS_NUMBER>  (1) 
31793-07-4

>  <UNII>  (1) 
T7KN291890

>  <SYNONYMS>  (1) 
Pirprofen

$$$$
