
     RDKit          3D

 19 20  0  0  0  0  0  0  0  0999 V2000
    2.2228   -0.0038    0.0149 C   0  0  0  0  0  0  0  0  0  0  0  0
    0.7808   -0.0437    0.1203 N   0  0  0  0  0  0  0  0  0  0  0  0
   -0.0116   -1.1682    0.0810 C   0  0  0  0  0  0  0  0  0  0  0  0
   -1.3095   -0.7256    0.0706 C   0  0  0  0  0  0  0  0  0  0  0  0
   -1.3375    0.6451    0.1313 N   0  0  0  0  0  0  0  0  0  0  0  0
   -0.0756    1.0542    0.1372 C   0  0  0  0  0  0  0  0  0  0  0  0
    0.3777    2.4881    0.0242 C   0  0  0  0  0  0  0  0  0  0  0  0
   -0.1165    3.1467   -1.1659 O   0  0  0  0  0  0  0  0  0  0  0  0
    0.3417    2.7075   -2.3782 C   0  0  0  0  0  0  0  0  0  0  0  0
    0.2458    1.3816   -2.7822 C   0  0  0  0  0  0  0  0  0  0  0  0
    0.6445    0.9540   -4.0443 C   0  0  0  0  0  0  0  0  0  0  0  0
    1.0787    1.8725   -4.9863 C   0  0  0  0  0  0  0  0  0  0  0  0
    1.0736    3.2308   -4.6279 C   0  0  0  0  0  0  0  0  0  0  0  0
    0.7484    3.6451   -3.3217 C   0  0  0  0  0  0  0  0  0  0  0  0
    1.6405    1.4096   -6.6172 S   0  0  0  0  0  0  0  0  0  0  0  0
    1.6195   -0.4131   -6.5834 C   0  0  0  0  0  0  0  0  0  0  0  0
    0.4504   -2.5149    0.0283 N   0  0  0  0  0  0  0  0  0  0  0  0
   -0.4104   -3.3955   -0.0090 O   0  0  0  0  0  0  0  0  0  0  0  0
    1.6752   -2.7044    0.0209 O   0  0  0  0  0  0  0  0  0  0  0  0
  1  2  1  0
  2  3  1  0
  2  6  1  0
  3  4  2  0
  3 17  1  0
  4  5  1  0
  5  6  2  0
  6  7  1  0
  7  8  1  0
  8  9  1  0
  9 10  2  0
  9 14  1  0
 10 11  1  0
 11 12  2  0
 12 13  1  0
 12 15  1  0
 13 14  2  0
 15 16  1  0
 17 18  2  0
 17 19  1  0
M  CHG  2  17   1  19  -1
M  END
>  <DRUGBANK_ID>  (1) 
DB12265

>  <COMMON_NAME>  (1) 
Fexinidazole

>  <CAS_NUMBER>  (1) 
59729-37-2

>  <UNII>  (1) 
306ERL82IR

>  <SYNONYMS>  (1) 
Fexinidazole

$$$$
