
     RDKit          3D

 15 15  0  0  0  0  0  0  0  0999 V2000
    0.9874   -0.0606   -0.1235 C   0  0  0  0  0  0  0  0  0  0  0  0
    0.4876   -1.2761    0.6497 C   0  0  0  0  0  0  0  0  0  0  0  0
    0.9521   -1.2954    2.1144 C   0  0  0  0  0  0  0  0  0  0  0  0
   -1.8189    3.7090    0.6226 C   0  0  0  0  0  0  0  0  0  0  0  0
   -1.9490    1.3324    0.5863 C   0  0  0  0  0  0  0  0  0  0  0  0
   -2.2548    3.7283   -0.7132 C   0  0  0  0  0  0  0  0  0  0  0  0
   -2.3352    1.3322   -0.7462 C   0  0  0  0  0  0  0  0  0  0  0  0
    0.5052   -0.0954    2.9579 C   0  0  0  0  0  0  0  0  0  0  0  0
   -1.4904    1.1923    3.5799 C   0  0  0  0  0  0  0  0  0  0  0  0
   -1.6641    2.4956    1.3108 C   0  0  0  0  0  0  0  0  0  0  0  0
   -2.4969    2.5391   -1.3903 C   0  0  0  0  0  0  0  0  0  0  0  0
   -1.1286    2.4615    2.7388 C   0  0  0  0  0  0  0  0  0  0  0  0
   -0.9264   -0.1181    3.2251 N   0  0  0  0  0  0  0  0  0  0  0  0
   -2.8955    2.4798   -2.6875 O   0  0  0  0  0  0  0  0  0  0  0  0
   -1.5975    3.6077    3.4666 O   0  0  0  0  0  0  0  0  0  0  0  0
  2  1  1  0
  3  2  1  0
  6  4  2  0
  7  5  1  0
  8  3  1  0
 10  4  1  0
 10  5  2  0
 11  6  1  0
 11  7  2  0
 12  9  1  0
 12 10  1  0
 13  8  1  0
 13  9  1  0
 14 11  1  0
 15 12  1  0
M  END
>  <DRUGBANK_ID>  (1) 
DB13206

>  <COMMON_NAME>  (1) 
Bamethan

>  <CAS_NUMBER>  (1) 
3703-79-5

>  <UNII>  (1) 
Y08ZFJ9TFK

>  <SYNONYMS>  (1) 
1-(4-Hydroxyphenyl)-1-hydroxy-2-butylaminoethane; 1-(p-Hydroxyphenyl)-2-butylaminoethanol; 2-Butylamino-1-p-hydroxyphenylethanol; Bametano; Bamethan; Bamethane; Bamethanum; N-Butylnorsynephrine

$$$$
