
     RDKit          3D

 32 34  0  0  1  0  0  0  0  0999 V2000
    1.0346    0.0691    0.1607 C   0  0  0  0  0  0  0  0  0  0  0  0
    0.6116    0.3627   -1.2662 C   0  0  0  0  0  0  0  0  0  0  0  0
    1.0456   -0.7586   -2.2071 C   0  0  0  0  0  0  0  0  0  0  0  0
    0.4047   -2.0741   -1.7897 C   0  0  0  0  0  0  0  0  0  0  0  0
   -1.1315   -1.9114   -1.7391 C   0  0  0  0  0  0  0  0  0  0  0  0
   -1.6467   -1.8418   -3.1320 C   0  0  0  0  0  0  0  0  0  0  0  0
   -1.8068   -2.9441   -3.8680 C   0  0  0  0  0  0  0  0  0  0  0  0
   -1.5557   -4.2646   -3.5183 N   0  0  0  0  0  0  0  0  0  0  0  0
   -1.0994   -4.8373   -2.2836 C   0  0  0  0  0  0  0  0  0  0  0  0
   -2.1840   -5.5413   -1.5316 C   0  0  0  0  0  0  0  0  0  0  0  0
   -2.0899   -6.9289   -1.5304 C   0  0  0  0  0  0  0  0  0  0  0  0
   -2.9139   -7.6857   -0.7193 C   0  0  0  0  0  0  0  0  0  0  0  0
   -3.8429   -7.0600    0.1076 C   0  0  0  0  0  0  0  0  0  0  0  0
   -3.9574   -5.6711    0.1161 C   0  0  0  0  0  0  0  0  0  0  0  0
   -3.1639   -4.9085   -0.7416 C   0  0  0  0  0  0  0  0  0  0  0  0
   -2.3521   -2.7532   -5.2434 C   0  0  0  0  0  0  0  0  0  0  0  0
   -2.9438   -3.6964   -5.7427 O   0  0  0  0  0  0  0  0  0  0  0  0
   -2.0810   -1.4490   -5.9293 C   0  0  0  0  0  0  0  0  0  0  0  0
   -2.1589   -1.3788   -7.4346 C   0  0  2  0  0  0  0  0  0  0  0  0
   -3.5192   -1.8462   -7.8811 C   0  0  0  0  0  0  0  0  0  0  0  0
   -3.7106   -3.0601   -8.4336 C   0  0  0  0  0  0  0  0  0  0  0  0
   -5.0438   -3.4865   -8.9505 C   0  0  0  0  0  0  0  0  0  0  0  0
   -2.5768   -4.0547   -8.6616 C   0  0  0  0  0  0  0  0  0  0  0  0
   -1.2063   -3.6514   -8.0960 C   0  0  0  0  0  0  0  0  0  0  0  0
   -0.9932   -2.1300   -8.1469 C   0  0  1  0  0  0  0  0  0  0  0  0
   -0.8159   -1.6618   -9.6041 C   0  0  0  0  0  0  0  0  0  0  0  0
    0.5121   -1.1063  -10.0082 C   0  0  0  0  0  0  0  0  0  0  0  0
   -1.7760   -1.7016  -10.5472 C   0  0  0  0  0  0  0  0  0  0  0  0
   -1.8560   -0.3690   -5.1782 C   0  0  0  0  0  0  0  0  0  0  0  0
   -1.6475    0.8893   -5.7280 O   0  0  0  0  0  0  0  0  0  0  0  0
   -1.8728   -0.4842   -3.7012 C   0  0  0  0  0  0  0  0  0  0  0  0
   -1.9658    0.5277   -3.0341 O   0  0  0  0  0  0  0  0  0  0  0  0
  1  2  1  0
  2  3  1  0
  3  4  1  0
  4  5  1  0
  5  6  1  0
  6  7  2  0
  6 31  1  0
  7  8  1  0
  7 16  1  0
  8  9  1  0
  9 10  1  0
 10 11  2  0
 10 15  1  0
 11 12  1  0
 12 13  2  0
 13 14  1  0
 14 15  2  0
 16 17  2  0
 16 18  1  0
 18 29  2  0
 19 18  1  1
 19 20  1  0
 19 25  1  0
 20 21  2  0
 21 22  1  0
 21 23  1  0
 23 24  1  0
 25 24  1  0
 25 26  1  6
 26 27  1  0
 26 28  2  0
 29 30  1  0
 29 31  1  0
 31 32  2  0
M  END
>  <DRUGBANK_ID>  (1) 
DB18008

>  <COMMON_NAME>  (1) 
Etrinabdione

>  <CAS_NUMBER>  (1) 
1818428-24-8

>  <UNII>  (1) 
KTJCIKNF3F

>  <SYNONYMS>  (1) 
(1'r,6'r)-3-(benzylamine)-6-hydroxy-3'-methyl-4-pentyl-6'-(prop-1-en-2-yl)-(1,1'-bi(cyclohexane))-2',3,6-triene-2,5-dione; (1'r,6'r)-3-(benzylamino)-6-hydroxy-3'-methyl-4-pentyl-6'-(prop-1-en-2-yl)-(1,1'-bi(cyclohexane))-2',3,6-triene-2,5-dione; 2,5-cyclohexadiene-1,4-dione, 2-hydroxy-3-((1r,6r)-3-methyl-6-(1-methylethenyl)-2-cyclohexen-1-yl)-6-pentyl-5-((phenylmethyl)amino)-

$$$$
