
     RDKit          3D

  5  4  0  0  0  0  0  0  0  0999 V2000
    0.9933   -0.0753   -0.0655 O   0  0  0  0  0  0  0  0  0  0  0  0
    2.9623   -0.0753   -0.0655 Mo  0  0  0  0  0  6  0  0  0  0  0  0
    3.6956    1.7464   -1.0574 O   0  0  0  0  0  0  0  0  0  0  0  0
    3.6186   -1.6593   -1.0335 O   0  0  0  0  0  0  0  0  0  0  0  0
    3.6956   -0.1271    2.0080 O   0  0  0  0  0  0  0  0  0  0  0  0
  1  2  2  0
  2  3  1  0
  2  5  1  0
  2  4  2  0
M  CHG  2   3  -1   5  -1
M  END
>  <DRUGBANK_ID>  (1) 
DB15878

>  <COMMON_NAME>  (1) 
Molybdate

>  <CAS_NUMBER>  (1) 
14259-85-9

>  <UNII>  (1) 
O0L10E6352

>  <SYNONYMS>  (1) 
Molybdate; Molybdate ion

$$$$
