
     RDKit          3D

 33 37  0  0  0  0  0  0  0  0999 V2000
    1.0724    0.0245    0.0686 C   0  0  0  0  0  0  0  0  0  0  0  0
    0.5995    0.1424    1.5166 C   0  0  0  0  0  0  0  0  0  0  0  0
    1.2319    1.3600    2.1804 C   0  0  0  0  0  0  0  0  0  0  0  0
   -0.9045    0.1365    1.5879 C   0  0  0  0  0  0  0  0  0  0  0  0
   -1.7140   -0.9889    1.5827 C   0  0  0  0  0  0  0  0  0  0  0  0
   -3.0246   -0.5722    1.6203 N   0  0  0  0  0  0  0  0  0  0  0  0
   -3.0811    0.8015    1.5359 C   0  0  0  0  0  0  0  0  0  0  0  0
   -4.1779    1.6525    1.4411 C   0  0  0  0  0  0  0  0  0  0  0  0
   -3.8842    3.0071    1.3195 C   0  0  0  0  0  0  0  0  0  0  0  0
   -2.5650    3.5316    1.3653 C   0  0  0  0  0  0  0  0  0  0  0  0
   -1.5182    2.6601    1.4822 C   0  0  0  0  0  0  0  0  0  0  0  0
   -1.7651    1.2722    1.5424 C   0  0  0  0  0  0  0  0  0  0  0  0
   -2.4467    5.0264    1.4254 C   0  0  0  0  0  0  0  0  0  0  0  0
   -3.0718    5.3305    2.7978 C   0  0  0  0  0  0  0  0  0  0  0  0
   -3.9587    6.5294    2.6657 C   0  0  0  0  0  0  0  0  0  0  0  0
   -3.1474    7.6921    2.3223 N   0  0  0  0  0  0  0  0  0  0  0  0
   -4.0216    8.8837    2.2563 C   0  0  0  0  0  0  0  0  0  0  0  0
   -5.1190    8.7710    1.1891 C   0  0  0  0  0  0  0  0  0  0  0  0
   -6.4046    8.7011    1.6284 N   0  0  0  0  0  0  0  0  0  0  0  0
   -4.8990    8.6913   -0.0289 O   0  0  0  0  0  0  0  0  0  0  0  0
   -2.3694    7.4665    1.0825 C   0  0  0  0  0  0  0  0  0  0  0  0
   -1.4551    6.1890    1.1541 C   0  0  0  0  0  0  0  0  0  0  0  0
   -1.3966   -2.3699    1.4459 C   0  0  0  0  0  0  0  0  0  0  0  0
   -0.5816   -2.8933    2.3849 C   0  0  0  0  0  0  0  0  0  0  0  0
   -0.0994   -4.1855    2.2638 N   0  0  0  0  0  0  0  0  0  0  0  0
    0.7284   -4.8584    3.1043 N   0  0  0  0  0  0  0  0  0  0  0  0
    0.8277   -6.0480    2.5114 C   0  0  0  0  0  0  0  0  0  0  0  0
    0.1487   -6.1845    1.3393 N   0  0  0  0  0  0  0  0  0  0  0  0
   -0.4236   -5.0079    1.1908 C   0  0  0  0  0  0  0  0  0  0  0  0
   -1.2720   -4.4890    0.1523 C   0  0  0  0  0  0  0  0  0  0  0  0
   -1.6330   -5.3558   -1.0321 C   0  0  0  0  0  0  0  0  0  0  0  0
   -1.7314   -3.2097    0.2714 C   0  0  0  0  0  0  0  0  0  0  0  0
   -2.5664   -2.5750   -0.8182 C   0  0  0  0  0  0  0  0  0  0  0  0
  1  2  1  0
  2  3  1  0
  2  4  1  0
  4  5  2  0
  4 12  1  0
  5  6  1  0
  5 23  1  0
  6  7  1  0
  7  8  1  0
  7 12  2  0
  8  9  2  0
  9 10  1  0
 10 11  2  0
 10 13  1  0
 11 12  1  0
 13 14  1  0
 13 22  1  0
 14 15  1  0
 15 16  1  0
 16 17  1  0
 16 21  1  0
 17 18  1  0
 18 19  1  0
 18 20  2  0
 21 22  1  0
 23 24  2  0
 23 32  1  0
 24 25  1  0
 25 26  1  0
 25 29  1  0
 26 27  2  0
 27 28  1  0
 28 29  2  0
 29 30  1  0
 30 31  1  0
 30 32  2  0
 32 33  1  0
M  END
>  <DRUGBANK_ID>  (1) 
DB16580

>  <COMMON_NAME>  (1) 
Afimetoran

>  <CAS_NUMBER>  (1) 
2171019-55-7

>  <UNII>  (1) 
LXP7MZL0VF

>  <SYNONYMS>  (1) 
Afimetoran; BMS-986256

$$$$
