
     RDKit          3D

 39 44  0  0  1  0  0  0  0  0999 V2000
   -6.1648    1.3094   -1.6982 C   0  0  0  0  0  0  0  0  0  0  0  0
   -4.5246    1.2753   -2.4184 C   0  0  2  0  0  0  0  0  0  0  0  0
   -3.2173   -0.2375   -3.0500 C   0  0  0  0  0  0  0  0  0  0  0  0
   -2.4631   -0.1373   -1.8917 C   0  0  2  0  0  0  0  0  0  0  0  0
   -2.8620   -1.2091   -0.9576 C   0  0  2  0  0  0  0  0  0  0  0  0
   -1.6942   -2.0683   -0.7960 C   0  0  0  0  0  0  0  0  0  0  0  0
   -1.8644   -3.3942   -0.6684 C   0  0  0  0  0  0  0  0  0  0  0  0
   -3.3293   -3.9782   -0.7736 C   0  0  0  0  0  0  0  0  0  0  0  0
   -3.9370   -5.1658   -0.6223 C   0  0  0  0  0  0  0  0  0  0  0  0
   -3.2133   -5.8864    0.2371 C   0  0  0  0  0  0  0  0  0  0  0  0
   -2.8239   -5.2629    1.3758 C   0  0  0  0  0  0  0  0  0  0  0  0
   -1.6759   -6.2702    1.5400 C   0  0  0  0  0  0  0  0  0  0  0  0
   -1.6325   -7.2969    0.5860 N   0  0  0  0  0  0  0  0  0  0  0  0
   -2.6345   -6.9810   -0.2578 N   0  0  0  0  0  0  0  0  0  0  0  0
   -2.9900   -7.5163   -1.5652 C   0  0  0  0  0  0  0  0  0  0  0  0
   -3.1485   -6.6467   -2.6917 C   0  0  0  0  0  0  0  0  0  0  0  0
   -3.8261   -7.0281   -3.8531 C   0  0  0  0  0  0  0  0  0  0  0  0
   -4.3206   -8.3168   -3.9421 C   0  0  0  0  0  0  0  0  0  0  0  0
   -4.1453   -9.1983   -2.8682 C   0  0  0  0  0  0  0  0  0  0  0  0
   -3.5386   -8.7882   -1.6628 C   0  0  0  0  0  0  0  0  0  0  0  0
   -3.5534   -3.5428    1.3989 C   0  0  0  0  0  0  0  0  0  0  0  0
   -4.3423   -3.0684   -0.1831 C   0  0  1  0  0  0  0  0  0  0  0  0
   -4.0782   -2.0672   -1.3630 C   0  0  1  0  0  0  0  0  0  0  0  0
   -5.3161   -1.2665   -1.7683 C   0  0  2  0  0  0  0  0  0  0  0  0
   -5.1537   -0.4486   -3.0891 C   0  0  0  0  0  0  0  0  0  0  0  0
   -3.5682    0.7097   -2.5682 C   0  0  1  0  0  0  0  0  0  0  0  0
   -3.5912    1.8669   -1.5139 C   0  0  1  0  0  0  0  0  0  0  0  0
   -2.5244    2.9862   -1.7218 C   0  0  0  0  0  0  0  0  0  0  0  0
   -1.7861    3.2467   -0.7564 O   0  0  0  0  0  0  0  0  0  0  0  0
   -2.4422    3.8855   -2.9962 C   0  0  0  0  0  0  0  0  0  0  0  0
   -1.8191    3.5320   -4.2706 O   0  0  0  0  0  0  0  0  0  0  0  0
   -0.7346    2.6653   -4.2368 C   0  0  0  0  0  0  0  0  0  0  0  0
   -0.1094    2.4453   -3.2070 O   0  0  0  0  0  0  0  0  0  0  0  0
   -0.6640    1.6881   -5.4501 C   0  0  0  0  0  0  0  0  0  0  0  0
   -3.6199    1.3516   -0.1975 O   0  0  0  0  0  0  0  0  0  0  0  0
   -3.3030    1.4314   -4.2744 C   0  0  0  0  0  0  0  0  0  0  0  0
   -5.5184   -0.6151   -0.5135 O   0  0  0  0  0  0  0  0  0  0  0  0
   -5.8742   -3.4757   -0.3561 C   0  0  0  0  0  0  0  0  0  0  0  0
   -0.6230   -3.9106    0.0010 C   0  0  0  0  0  0  0  0  0  0  0  0
  2  1  1  1
  2  3  1  0
  2 27  1  0
  4  3  1  6
  4  5  1  0
  4 26  1  0
  5  6  1  6
  5 23  1  0
  6  7  2  0
  7  8  1  0
  7 39  1  0
  8  9  2  0
  8 22  1  0
  9 10  1  0
 10 11  2  0
 10 14  1  0
 11 12  1  0
 11 21  1  0
 12 13  2  0
 13 14  1  0
 14 15  1  0
 15 16  2  0
 15 20  1  0
 16 17  1  0
 17 18  2  0
 18 19  1  0
 19 20  2  0
 21 22  1  0
 22 38  1  1
 23 22  1  0
 23 24  1  1
 24 25  1  0
 24 37  1  1
 25 26  1  0
 26 27  1  0
 26 36  1  6
 27 28  1  0
 27 35  1  1
 28 29  2  0
 28 30  1  0
 30 31  1  0
 31 32  1  0
 32 33  2  0
 32 34  1  0
M  END
>  <DRUGBANK_ID>  (1) 
DB13003

>  <COMMON_NAME>  (1) 
Cortivazol

>  <CAS_NUMBER>  (1) 
1110-40-3

>  <UNII>  (1) 
YM183K0H63

>  <SYNONYMS>  (1) 
Cortivazol

$$$$
