17M
     RDKit          3D

 21 24  0  0  0  0  0  0  0  0999 V2000
    1.0413    0.1693    0.5844 C   0  0  0  0  0  0  0  0  0  0  0  0
    0.3234   -1.2534   -0.6974 C   0  0  1  0  0  0  0  0  0  0  0  0
    1.2835   -0.3917   -0.3527 C   0  0  0  0  0  0  0  0  0  0  0  0
    2.6835   -1.2544    0.7884 C   0  0  0  0  0  0  0  0  0  0  0  0
    2.9045   -3.0115    1.1014 C   0  0  0  0  0  0  0  0  0  0  0  0
    4.1697   -4.1983    1.8392 C   0  0  0  0  0  0  0  0  0  0  0  0
    5.3408   -5.4935    2.4962 C   0  0  0  0  0  0  0  0  0  0  0  0
    6.6788   -5.7391    2.0307 C   0  0  0  0  0  0  0  0  0  0  0  0
    6.2184   -5.5439    0.7797 C   0  0  0  0  0  0  0  0  0  0  0  0
    5.0575   -6.7325    0.4477 O   0  0  0  0  0  0  0  0  0  0  0  0
    5.6368   -4.2550    0.6770 C   0  0  0  0  0  0  0  0  0  0  0  0
    4.2869   -4.3963    0.5260 C   0  0  0  0  0  0  0  0  0  0  0  0
    3.1321   -5.2241    0.1296 C   0  0  0  0  0  0  0  0  0  0  0  0
    1.9586   -4.6563   -0.2331 C   0  0  0  0  0  0  0  0  0  0  0  0
    1.8757   -3.3574    0.0728 C   0  0  0  0  0  0  0  0  0  0  0  0
    0.6094   -2.7123   -0.5533 C   0  0  2  0  0  0  0  0  0  0  0  0
    0.2197   -3.2732   -2.0181 C   0  0  0  0  0  0  0  0  0  0  0  0
   -0.5408   -2.1995   -2.8151 C   0  0  0  0  0  0  0  0  0  0  0  0
   -0.1118   -0.8840   -2.1715 C   0  0  2  0  0  0  0  0  0  0  0  0
    0.9459   -0.2232   -3.0729 C   0  0  0  0  0  0  0  0  0  0  0  0
   -1.2311   -0.0125   -2.0234 O   0  0  0  0  0  0  0  0  0  0  0  0
  2  1  1  1
  2  3  1  0
  2 16  1  0
  2 19  1  0
  3  4  1  0
  4  5  1  0
  5  6  2  0
  5 15  1  0
  6  7  1  0
  6 12  1  0
  7  8  2  0
  8  9  1  0
  9 10  1  0
  9 11  2  0
 11 12  1  0
 12 13  2  0
 13 14  1  0
 14 15  2  0
 15 16  1  0
 16 17  1  6
 17 18  1  0
 18 19  1  0
 19 20  1  6
 19 21  1  0
M  END
>  <DRUGBANK_ID>  (1) 
DB06871

>  <COMMON_NAME>  (1) 
17-METHYL-17-ALPHA-DIHYDROEQUILENIN

>  <UNII>  (1) 
ZP488KVU9Q

$$$$
