
     RDKit          3D

 16 16  0  0  0  0  0  0  0  0999 V2000
    1.4202   -0.1452    0.0391 C   0  0  0  0  0  0  0  0  0  0  0  0
    0.5515   -1.2442    0.0286 C   0  0  0  0  0  0  0  0  0  0  0  0
    0.8612    1.1388   -0.0104 C   0  0  0  0  0  0  0  0  0  0  0  0
    2.8251   -0.3397    0.1389 N   0  0  0  0  0  0  0  0  0  0  0  0
   -0.8377   -1.0331   -0.0091 C   0  0  0  0  0  0  0  0  0  0  0  0
   -0.5092    1.3586    0.0272 C   0  0  0  0  0  0  0  0  0  0  0  0
    3.7539    0.6863    0.2282 C   0  0  0  0  0  0  0  0  0  0  0  0
   -1.3561    0.2730   -0.0143 C   0  0  0  0  0  0  0  0  0  0  0  0
    5.1862    0.2838    0.4018 C   0  0  0  0  0  0  0  0  0  0  0  0
    3.5179    1.8981    0.1816 O   0  0  0  0  0  0  0  0  0  0  0  0
   -2.8048    0.4730   -0.1584 C   0  0  0  0  0  0  0  0  0  0  0  0
   -3.3999    1.6185   -0.2293 N   0  0  0  0  0  0  0  0  0  0  0  0
   -4.7702    1.6902   -0.4082 N   0  0  0  0  0  0  0  0  0  0  0  0
   -5.7332    0.7061   -0.5489 C   0  0  0  0  0  0  0  0  0  0  0  0
   -7.0001    1.1812   -0.6975 N   0  0  0  0  0  0  0  0  0  0  0  0
   -5.6654   -0.9605   -0.5691 S   0  0  0  0  0  0  0  0  0  0  0  0
  1  2  2  0
  1  3  1  0
  1  4  1  0
  2  5  1  0
  3  6  2  0
  4  7  1  0
  5  8  2  0
  6  8  1  0
  7  9  1  0
  7 10  2  0
  8 11  1  0
 11 12  2  0
 12 13  1  0
 13 14  1  0
 14 15  1  0
 14 16  2  0
M  END
>  <DRUGBANK_ID>  (1) 
DB12829

>  <COMMON_NAME>  (1) 
Amithiozone

>  <CAS_NUMBER>  (1) 
104-06-3

>  <UNII>  (1) 
MMG78X7SSR

>  <SYNONYMS>  (1) 
Amithiozone; Thioacetazone; Thioac√©tazone; Thioacetazonum; Tioacetazona

$$$$
