CCB
     RDKit          3D

 12 13  0  0  0  0  0  0  0  0999 V2000
    1.0672   -0.0347    0.1381 N   0  0  0  0  0  0  0  0  0  0  0  0
    0.3255   -0.0182   -1.0541 C   0  0  0  0  0  0  0  0  0  0  0  0
   -0.8885   -0.0061   -1.1661 O   0  0  0  0  0  0  0  0  0  0  0  0
    0.3023   -0.0128    1.3938 C   0  0  0  0  0  0  0  0  0  0  0  0
    2.5702   -0.0393    0.0605 C   0  0  0  0  0  0  0  0  0  0  0  0
    0.3964    1.2675    2.2260 C   0  0  0  0  0  0  0  0  0  0  0  0
    0.1884    0.8398    3.6806 C   0  0  0  0  0  0  0  0  0  0  0  0
    0.1480   -0.6845    3.7165 C   0  0  0  0  0  0  0  0  0  0  0  0
    0.6838   -1.1086    2.3735 C   0  0  0  0  0  0  0  0  0  0  0  0
    3.4035   -1.1645    0.7245 C   0  0  0  0  0  0  0  0  0  0  0  0
    4.4165   -0.0884    1.1649 C   0  0  0  0  0  0  0  0  0  0  0  0
    3.3567    0.9808    0.9111 C   0  0  0  0  0  0  0  0  0  0  0  0
  1  2  1  0
  1  4  1  0
  1  5  1  0
  2  3  2  0
  4  6  1  0
  4  9  1  0
  5 10  1  0
  5 12  1  0
  6  7  1  0
  7  8  1  0
  8  9  1  0
 10 11  1  0
 11 12  1  0
M  END
>  <DRUGBANK_ID>  (1) 
DB04065

>  <SECONDARY_ACCESSION_NUMBERS>  (1) 
EXPT00857

>  <COMMON_NAME>  (1) 
N-Cyclopentyl-N-Cyclobutylformamide

$$$$
