980
     RDKit          3D

 19 21  0  0  1  0  0  0  0  0999 V2000
   -2.7182   -0.6195    0.0166 O   0  0  0  0  0  0  0  0  0  0  0  0
    1.7642    6.5527    0.8778 O   0  0  0  0  0  0  0  0  0  0  0  0
    1.0970    4.5805    0.0730 N   0  0  0  0  0  0  0  0  0  0  0  0
    1.6633    1.6606    0.0075 C   0  0  1  0  0  0  0  0  0  0  0  0
    0.6656    0.5522    0.0233 C   0  0  0  0  0  0  0  0  0  0  0  0
    3.0323    0.9404   -0.0091 C   0  0  0  0  0  0  0  0  0  0  0  0
    2.7750   -0.5808    0.0054 C   0  0  0  0  0  0  0  0  0  0  0  0
    1.2735   -0.7138    0.0142 C   0  0  0  0  0  0  0  0  0  0  0  0
    1.4765    2.5448   -1.2202 C   0  0  0  0  0  0  0  0  0  0  0  0
   -0.7361    0.5435    0.0250 C   0  0  0  0  0  0  0  0  0  0  0  0
   -1.7543    1.5973    0.0191 C   0  0  0  0  0  0  0  0  0  0  0  0
   -1.3261   -0.7128    0.0161 C   0  0  0  0  0  0  0  0  0  0  0  0
    0.6619   -1.9566    0.0046 C   0  0  0  0  0  0  0  0  0  0  0  0
    0.5261    3.6854   -0.9016 C   0  0  0  0  0  0  0  0  0  0  0  0
   -3.0402    0.7937    0.0383 C   0  0  0  0  0  0  0  0  0  0  0  0
   -0.7146   -1.9521    0.0042 C   0  0  0  0  0  0  0  0  0  0  0  0
    1.3576    5.8978   -0.0857 C   0  0  0  0  0  0  0  0  0  0  0  0
    1.1005    6.5055   -1.4402 C   0  0  0  0  0  0  0  0  0  0  0  0
    1.9704    5.9016   -2.5345 C   0  0  0  0  0  0  0  0  0  0  0  0
  1 12  1  0
  1 15  1  0
  2 17  2  0
  3 14  1  0
  3 17  1  0
  4  5  1  0
  4  6  1  0
  4  9  1  6
  5  8  2  0
  5 10  1  0
  6  7  1  0
  7  8  1  0
  8 13  1  0
  9 14  1  0
 10 11  1  0
 10 12  2  0
 11 15  1  0
 12 16  1  0
 13 16  2  0
 17 18  1  0
 18 19  1  0
M  END
>  <DRUGBANK_ID>  (1) 
DB00980

>  <SECONDARY_ACCESSION_NUMBERS>  (1) 
APRD01213

>  <COMMON_NAME>  (1) 
Ramelteon

>  <CAS_NUMBER>  (1) 
196597-26-9

>  <UNII>  (1) 
901AS54I69

>  <SYNONYMS>  (1) 
Ramelteon

$$$$
