714
     RDKit          3D

 20 23  0  0  1  0  0  0  0  0999 V2000
    1.1581    0.1239   -0.0652 O   0  0  0  0  0  0  0  0  0  0  0  0
    1.9177    2.5296    0.6895 O   0  0  0  0  0  0  0  0  0  0  0  0
   -3.2307   -1.9479    3.7262 N   0  0  0  0  0  0  0  0  0  0  0  0
   -3.3543   -1.0178    2.5359 C   0  0  2  0  0  0  0  0  0  0  0  0
   -2.6142   -1.6658    1.3539 C   0  0  0  0  0  0  0  0  0  0  0  0
   -2.9402    0.4645    2.7842 C   0  0  0  0  0  0  0  0  0  0  0  0
   -2.9804   -3.0215    1.1017 C   0  0  0  0  0  0  0  0  0  0  0  0
   -3.7809   -3.3138    3.4003 C   0  0  0  0  0  0  0  0  0  0  0  0
   -4.1100   -3.5810    1.9148 C   0  0  0  0  0  0  0  0  0  0  0  0
   -1.3931   -1.1563    0.8719 C   0  0  0  0  0  0  0  0  0  0  0  0
   -1.6343    0.9595    2.1959 C   0  0  0  0  0  0  0  0  0  0  0  0
   -0.8897    0.1928    1.2675 C   0  0  0  0  0  0  0  0  0  0  0  0
   -1.7992   -2.0506    4.0696 C   0  0  0  0  0  0  0  0  0  0  0  0
   -2.1399   -3.8698    0.3766 C   0  0  0  0  0  0  0  0  0  0  0  0
   -0.5830   -2.0627    0.1466 C   0  0  0  0  0  0  0  0  0  0  0  0
   -1.2075    2.2611    2.5572 C   0  0  0  0  0  0  0  0  0  0  0  0
    0.3139    0.7779    0.8039 C   0  0  0  0  0  0  0  0  0  0  0  0
   -0.9488   -3.3912   -0.0949 C   0  0  0  0  0  0  0  0  0  0  0  0
    0.7347    2.0561    1.1911 C   0  0  0  0  0  0  0  0  0  0  0  0
   -0.0351    2.8161    2.0547 C   0  0  0  0  0  0  0  0  0  0  0  0
  1 17  1  0
  2 19  1  0
  3  4  1  0
  3  8  1  0
  3 13  1  0
  4  5  1  0
  4  6  1  1
  5  7  2  0
  5 10  1  0
  6 11  1  0
  7  9  1  0
  7 14  1  0
  8  9  1  0
 10 12  1  0
 10 15  2  0
 11 12  2  0
 11 16  1  0
 12 17  1  0
 14 18  2  0
 15 18  1  0
 16 20  2  0
 17 19  2  0
 19 20  1  0
M  END
>  <DRUGBANK_ID>  (1) 
DB00714

>  <SECONDARY_ACCESSION_NUMBERS>  (1) 
APRD00531; DB05816

>  <COMMON_NAME>  (1) 
Apomorphine

>  <CAS_NUMBER>  (1) 
58-00-4

>  <UNII>  (1) 
N21FAR7B4S

>  <SYNONYMS>  (1) 
(−)-10,11-dihydroxyaporphine; (6aR)-6-methyl-5,6,6a,7-tetrahydro-4H-dibenzo[de,g]quinoline-10,11-diol; (R)-5,6,6a,7-tetrahydro-6-methyl-4H-dibenzo[de,g]quinoline-10,11-diol; Apomorfina; Apomorphin; Apomorphine; R-(−)-apomorphine

$$$$
