4841
     RDKit          3D

 30 33  0  0  0  0  0  0  0  0999 V2000
    2.2245    0.0693   -0.1294 F   0  0  0  0  0  0  0  0  0  0  0  0
   -5.6260   -2.3334    4.7978 F   0  0  0  0  0  0  0  0  0  0  0  0
   -3.7874   -0.6413   -1.0678 N   0  0  0  0  0  0  0  0  0  0  0  0
   -1.5311   -1.5304   -2.8458 N   0  0  0  0  0  0  0  0  0  0  0  0
   -3.3840   -2.0604   -1.1383 C   0  0  0  0  0  0  0  0  0  0  0  0
   -3.3934    0.1076   -2.2817 C   0  0  0  0  0  0  0  0  0  0  0  0
   -3.3872    0.0199    0.2029 C   0  0  0  0  0  0  0  0  0  0  0  0
   -1.9656   -2.2555   -1.6690 C   0  0  0  0  0  0  0  0  0  0  0  0
   -1.9475   -0.1143   -2.7638 C   0  0  0  0  0  0  0  0  0  0  0  0
   -1.9055   -2.2672   -4.0311 C   0  0  0  0  0  0  0  0  0  0  0  0
   -1.8556    0.1169    0.4900 C   0  0  0  0  0  0  0  0  0  0  0  0
   -4.1227   -0.5781    1.4013 C   0  0  0  0  0  0  0  0  0  0  0  0
   -3.3719   -2.4675   -4.1650 C   0  0  0  0  0  0  0  0  0  0  0  0
   -1.1687    1.3138    0.2435 C   0  0  0  0  0  0  0  0  0  0  0  0
   -3.7249   -0.1307    2.6660 C   0  0  0  0  0  0  0  0  0  0  0  0
   -1.0890   -1.0153    0.8623 C   0  0  0  0  0  0  0  0  0  0  0  0
   -5.1052   -1.5876    1.3083 C   0  0  0  0  0  0  0  0  0  0  0  0
    0.2270    1.3083    0.1287 C   0  0  0  0  0  0  0  0  0  0  0  0
   -4.2276   -0.7267    3.8062 C   0  0  0  0  0  0  0  0  0  0  0  0
    0.2743   -1.0616    0.5356 C   0  0  0  0  0  0  0  0  0  0  0  0
   -5.5776   -2.2142    2.4518 C   0  0  0  0  0  0  0  0  0  0  0  0
   -4.1479   -1.7253   -4.9832 C   0  0  0  0  0  0  0  0  0  0  0  0
    0.9235    0.1063    0.1857 C   0  0  0  0  0  0  0  0  0  0  0  0
   -5.1421   -1.7651    3.6891 C   0  0  0  0  0  0  0  0  0  0  0  0
   -5.5982   -1.7114   -4.8328 C   0  0  0  0  0  0  0  0  0  0  0  0
   -6.2808   -1.3629   -3.6485 C   0  0  0  0  0  0  0  0  0  0  0  0
   -6.3322   -1.9603   -5.9825 C   0  0  0  0  0  0  0  0  0  0  0  0
   -7.6663   -1.2271   -3.6300 C   0  0  0  0  0  0  0  0  0  0  0  0
   -7.7131   -1.7988   -5.9725 C   0  0  0  0  0  0  0  0  0  0  0  0
   -8.3818   -1.4456   -4.7994 C   0  0  0  0  0  0  0  0  0  0  0  0
  1 23  1  0
  2 24  1  0
  3  5  1  0
  3  6  1  0
  3  7  1  0
  4  8  1  0
  4  9  1  0
  4 10  1  0
  5  8  1  0
  6  9  1  0
  7 11  1  0
  7 12  1  0
 10 13  1  0
 11 14  2  0
 11 16  1  0
 12 15  2  0
 12 17  1  0
 13 22  2  0
 14 18  1  0
 15 19  1  0
 16 20  2  0
 17 21  2  0
 18 23  2  0
 19 24  2  0
 20 23  1  0
 21 24  1  0
 22 25  1  0
 25 26  2  0
 25 27  1  0
 26 28  1  0
 27 29  2  0
 28 30  2  0
 29 30  1  0
M  END
>  <DRUGBANK_ID>  (1) 
DB04841

>  <COMMON_NAME>  (1) 
Flunarizine

>  <CAS_NUMBER>  (1) 
52468-60-7

>  <UNII>  (1) 
R7PLA2DM0J

>  <SYNONYMS>  (1) 
1-[bis(4-fluorophenyl)methyl]-4-[(2E)-3-phenylprop-2-en-1-yl]piperazine; Flunarizina; Flunarizine; Flunarizinum

$$$$
