
     RDKit          3D

 21 24  0  0  0  0  0  0  0  0999 V2000
   -1.7619    0.0311   -0.3812 C   0  0  2  0  0  0  0  0  0  0  0  0
   -1.0044    1.3336   -0.1087 C   0  0  0  0  0  0  0  0  0  0  0  0
    0.4095   -0.0268    1.3506 N   0  0  0  0  0  0  0  0  0  0  0  0
   -1.0542   -1.3016   -0.1033 C   0  0  0  0  0  0  0  0  0  0  0  0
    1.3441    0.7572   -0.6715 C   0  0  0  0  0  0  0  0  0  0  0  0
    1.3147   -0.7698   -0.7048 C   0  0  0  0  0  0  0  0  0  0  0  0
    0.5763   -0.0433    2.7249 C   0  0  0  0  0  0  0  0  0  0  0  0
   -0.3784    0.5876    3.5451 C   0  0  0  0  0  0  0  0  0  0  0  0
   -0.3049    0.5630    4.9510 C   0  0  0  0  0  0  0  0  0  0  0  0
    0.7523   -0.0765    5.5999 C   0  0  0  0  0  0  0  0  0  0  0  0
    0.7841   -0.0857    7.0456 C   0  0  0  0  0  0  0  0  0  0  0  0
    0.8355   -0.1142    8.2014 N   0  0  0  0  0  0  0  0  0  0  0  0
   -2.1854    0.0605   -1.7498 O   0  0  0  0  0  0  0  0  0  0  0  0
    1.6655   -0.6867    3.4034 C   0  0  0  0  0  0  0  0  0  0  0  0
    1.7601   -0.6986    4.8384 C   0  0  0  0  0  0  0  0  0  0  0  0
    2.8696   -1.3269    5.4630 C   0  0  0  0  0  0  0  0  0  0  0  0
    3.8750   -1.9356    4.7221 C   0  0  0  0  0  0  0  0  0  0  0  0
    3.7962   -1.9262    3.3422 C   0  0  0  0  0  0  0  0  0  0  0  0
    2.7197   -1.3048    2.7054 C   0  0  0  0  0  0  0  0  0  0  0  0
    0.3738   -1.1773    0.4459 C   0  0  1  0  0  0  0  0  0  0  0  0
    0.3954    1.1554    0.4834 C   0  0  1  0  0  0  0  0  0  0  0  0
  1  2  1  0
  1 13  1  6
 21  2  1  6
  3 20  1  0
  3  7  1  0
  4  1  1  0
  5  6  1  0
  7  8  2  0
  8  9  1  0
  9 10  2  0
 10 15  1  0
 10 11  1  0
 11 12  3  0
 14  7  1  0
 14 15  2  0
 15 16  1  0
 16 17  2  0
 17 18  1  0
 18 19  2  0
 19 14  1  0
 20  4  1  6
 20  6  1  0
 21  3  1  0
 21  5  1  0
M  END
>  <DRUGBANK_ID>  (1) 
DB13935

>  <COMMON_NAME>  (1) 
AC-262536

>  <CAS_NUMBER>  (1) 
870888-46-3

>  <UNII>  (1) 
U8VS41J5O6

$$$$
