
     RDKit          3D

 21 22  0  0  0  0  0  0  0  0999 V2000
    0.7363    0.0336    0.0350 N   0  0  0  0  0  0  0  0  0  0  0  0
    0.1307   -0.8862   -0.7672 C   0  0  0  0  0  0  0  0  0  0  0  0
   -1.2231   -0.8637   -0.8752 N   0  0  0  0  0  0  0  0  0  0  0  0
   -1.9819   -1.8114   -1.6735 C   0  0  0  0  0  0  0  0  0  0  0  0
   -2.8018   -2.7198   -0.7894 C   0  0  0  0  0  0  0  0  0  0  0  0
   -2.6422   -4.1053   -0.9007 C   0  0  0  0  0  0  0  0  0  0  0  0
   -3.2621   -4.9726   -0.0004 C   0  0  0  0  0  0  0  0  0  0  0  0
   -4.0635   -4.4718    1.0233 C   0  0  0  0  0  0  0  0  0  0  0  0
   -4.2477   -3.0907    1.1268 C   0  0  0  0  0  0  0  0  0  0  0  0
   -3.6709   -2.2225    0.1922 C   0  0  0  0  0  0  0  0  0  0  0  0
   -4.7145   -5.2324    1.9575 O   0  0  0  0  0  0  0  0  0  0  0  0
   -4.6401   -6.6443    1.7749 C   0  0  0  0  0  0  0  0  0  0  0  0
    0.8373   -1.6439   -1.4369 O   0  0  0  0  0  0  0  0  0  0  0  0
    0.1699    1.0413    0.7681 C   0  0  0  0  0  0  0  0  0  0  0  0
   -1.1288    0.7198    1.8410 S   0  0  0  0  0  0  0  0  0  0  0  0
   -1.0617    2.3401    2.3642 C   0  0  0  0  0  0  0  0  0  0  0  0
   -0.0897    3.0295    1.6813 C   0  0  0  0  0  0  0  0  0  0  0  0
    0.6700    2.2543    0.8208 N   0  0  0  0  0  0  0  0  0  0  0  0
   -1.9280    2.8645    3.3738 N   0  0  0  0  0  0  0  0  0  0  0  0
   -2.7204    2.0959    3.9247 O   0  0  0  0  0  0  0  0  0  0  0  0
   -1.8087    4.0749    3.6199 O   0  0  0  0  0  0  0  0  0  0  0  0
  1  2  1  0
  1 14  1  0
  2  3  1  0
  2 13  2  0
  3  4  1  0
  4  5  1  0
  5  6  2  0
  5 10  1  0
  6  7  1  0
  7  8  2  0
  8 11  1  0
  9  8  1  0
 10  9  2  0
 11 12  1  0
 14 15  1  0
 14 18  2  0
 15 16  1  0
 16 17  2  0
 16 19  1  0
 18 17  1  0
 19 20  2  0
 19 21  1  0
M  CHG  2  19   1  21  -1
M  END
>  <DRUGBANK_ID>  (1) 
DB01950

>  <SECONDARY_ACCESSION_NUMBERS>  (1) 
EXPT03075

>  <COMMON_NAME>  (1) 
AR-AO-14418

>  <CAS_NUMBER>  (1) 
487021-52-3

>  <UNII>  (1) 
87KSH90Q6D

$$$$
