
     RDKit          3D

 31 34  0  0  0  0  0  0  0  0999 V2000
    1.1615    0.0300    0.1181 C   0  0  0  0  0  0  0  0  0  0  0  0
    0.5781    1.3939   -0.1897 C   0  0  0  0  0  0  0  0  0  0  0  0
    1.1918    2.4314    0.2829 N   0  0  0  0  0  0  0  0  0  0  0  0
    0.7671    3.7016   -0.1235 C   0  0  0  0  0  0  0  0  0  0  0  0
    1.4134    4.8130    0.4097 C   0  0  0  0  0  0  0  0  0  0  0  0
    1.2357    6.0671   -0.1676 C   0  0  0  0  0  0  0  0  0  0  0  0
    0.2274    6.2615   -1.1094 C   0  0  0  0  0  0  0  0  0  0  0  0
   -0.5374    5.1799   -1.5680 C   0  0  0  0  0  0  0  0  0  0  0  0
   -0.1940    3.8912   -1.1206 C   0  0  0  0  0  0  0  0  0  0  0  0
   -0.8247    2.6749   -1.6382 C   0  0  0  0  0  0  0  0  0  0  0  0
   -1.5490    2.7744   -2.6550 O   0  0  0  0  0  0  0  0  0  0  0  0
   -0.5508    1.4794   -0.9850 N   0  0  0  0  0  0  0  0  0  0  0  0
   -1.1826    0.2945   -1.4488 C   0  0  0  0  0  0  0  0  0  0  0  0
   -1.7485   -0.7206   -0.6825 C   0  0  0  0  0  0  0  0  0  0  0  0
   -2.0511   -2.0444   -1.2065 C   0  0  0  0  0  0  0  0  0  0  0  0
   -1.8794   -2.3628   -2.5308 C   0  0  0  0  0  0  0  0  0  0  0  0
   -1.3622   -1.2957   -3.1715 C   0  0  0  0  0  0  0  0  0  0  0  0
   -1.0107   -0.0048   -2.7422 C   0  0  0  0  0  0  0  0  0  0  0  0
   -2.0985   -3.5736   -3.1408 O   0  0  0  0  0  0  0  0  0  0  0  0
   -1.9262   -3.9395   -4.5744 C   0  0  0  0  0  0  0  0  0  0  0  0
   -2.5208   -3.0692   -5.7136 C   0  0  0  0  0  0  0  0  0  0  0  0
   -1.9838   -1.6110   -5.9034 C   0  0  0  0  0  0  0  0  0  0  0  0
   -0.4610   -1.4086   -6.1921 N   0  0  0  0  0  0  0  0  0  0  0  0
    0.3477   -2.6292   -6.1965 C   0  0  0  0  0  0  0  0  0  0  0  0
    0.9001   -2.8965   -4.7823 C   0  0  0  0  0  0  0  0  0  0  0  0
    1.2155   -1.5089   -4.2744 C   0  0  0  0  0  0  0  0  0  0  0  0
    0.3665   -0.5614   -5.2659 C   0  0  0  0  0  0  0  0  0  0  0  0
   -1.7213    5.4235   -2.4724 C   0  0  0  0  0  0  0  0  0  0  0  0
   -1.5725    4.9443   -3.7342 F   0  0  0  0  0  0  0  0  0  0  0  0
   -2.8773    4.9167   -1.9597 F   0  0  0  0  0  0  0  0  0  0  0  0
   -1.9747    6.7568   -2.6408 F   0  0  0  0  0  0  0  0  0  0  0  0
  1  2  1  0
  2  3  2  0
  2 12  1  0
  3  4  1  0
  4  5  2  0
  4  9  1  0
  5  6  1  0
  6  7  2  0
  7  8  1  0
  8  9  2  0
  8 28  1  0
  9 10  1  0
 10 11  2  0
 10 12  1  0
 12 13  1  0
 13 14  2  0
 13 18  1  0
 14 15  1  0
 15 16  2  0
 16 17  1  0
 16 19  1  0
 17 18  2  0
 19 20  1  0
 20 21  1  0
 21 22  1  0
 22 23  1  0
 23 24  1  0
 23 27  1  0
 24 25  1  0
 25 26  1  0
 26 27  1  0
 28 29  1  0
 28 30  1  0
 28 31  1  0
M  END
>  <DRUGBANK_ID>  (1) 
DB11910

>  <COMMON_NAME>  (1) 
MK-0249

>  <CAS_NUMBER>  (1) 
1167574-41-5

>  <UNII>  (1) 
KF50235Q04

$$$$
