
     RDKit          3D

 23 25  0  0  1  0  0  0  0  0999 V2000
    1.2898    0.1867   -0.0776 C   0  0  0  0  0  0  0  0  0  0  0  0
    2.7996    7.5151   -0.9479 C   0  0  0  0  0  0  0  0  0  0  0  0
    0.5997    1.4171    0.6580 C   0  0  2  0  0  0  0  0  0  0  0  0
    2.8292    5.6454    0.2395 C   0  0  0  0  0  0  0  0  0  0  0  0
    2.4655    4.4600    0.8016 C   0  0  0  0  0  0  0  0  0  0  0  0
    4.1534    5.9245    0.6839 C   0  0  0  0  0  0  0  0  0  0  0  0
   -0.0983    2.2453   -0.3645 C   0  0  2  0  0  0  0  0  0  0  0  0
    0.8155    3.3877   -0.6972 C   0  0  2  0  0  0  0  0  0  0  0  0
    1.2396    3.6760    0.7236 C   0  0  1  0  0  0  0  0  0  0  0  0
    4.7804    7.1182    0.2659 C   0  0  0  0  0  0  0  0  0  0  0  0
    6.0330    7.4967    0.6790 N   0  0  0  0  0  0  0  0  0  0  0  0
    2.0868    6.4227   -0.5738 N   0  0  0  0  0  0  0  0  0  0  0  0
    4.0589    7.9068   -0.5783 N   0  0  0  0  0  0  0  0  0  0  0  0
    3.5516    4.0614    1.5193 N   0  0  0  0  0  0  0  0  0  0  0  0
    4.5816    4.9258    1.4917 N   0  0  0  0  0  0  0  0  0  0  0  0
   -1.4747    2.5147   -0.2371 O   0  0  0  0  0  0  0  0  0  0  0  0
    0.1636    4.3965   -1.4375 O   0  0  0  0  0  0  0  0  0  0  0  0
    0.7067   -0.4660   -3.8930 O   0  0  0  0  0  0  0  0  0  0  0  0
   -0.4323    1.4749   -3.0855 O   0  0  0  0  0  0  0  0  0  0  0  0
    2.1865    1.4826   -3.0249 O   0  0  0  0  0  0  0  0  0  0  0  0
    0.8619   -0.1680   -1.4345 O   0  0  0  0  0  0  0  0  0  0  0  0
    1.5061    2.3526    1.2989 O   0  0  0  0  0  0  0  0  0  0  0  0
    0.9369    0.6802   -2.8171 P   0  0  0  0  0  0  0  0  0  0  0  0
  3  1  1  6
  5  4  2  0
  6  4  1  0
  7  3  1  0
  7 16  1  1
  8  7  1  0
  8 17  1  1
  9  8  1  0
  9  5  1  6
 10  6  1  0
 11 10  1  0
 12  2  2  0
 12  4  1  0
 13  2  1  0
 13 10  2  0
 14  5  1  0
 15  6  2  0
 15 14  1  0
 21  1  1  0
 22  3  1  0
 22  9  1  0
 23 18  1  0
 23 19  1  0
 23 20  2  0
 23 21  1  0
M  END
>  <DRUGBANK_ID>  (1) 
DB03464

>  <SECONDARY_ACCESSION_NUMBERS>  (1) 
EXPT01459

>  <COMMON_NAME>  (1) 
Formycin-5'-Monophosphate

$$$$
