
     RDKit          3D

 34 38  0  0  1  0  0  0  0  0999 V2000
   -3.8864    3.6279   -1.7012 C   0  0  0  0  0  0  0  0  0  0  0  0
   -5.2249    2.8166   -2.1344 C   0  0  2  0  0  0  0  0  0  0  0  0
   -6.1583    2.2149   -1.0685 C   0  0  0  0  0  0  0  0  0  0  0  0
   -7.9061    2.0492   -0.9487 C   0  0  0  0  0  0  0  0  0  0  0  0
   -8.8819    1.8916    0.8924 C   0  0  0  0  0  0  0  0  0  0  0  0
   -7.8394    1.8190    2.3456 C   0  0  0  0  0  0  0  0  0  0  0  0
   -6.2134    1.8342    2.0270 C   0  0  0  0  0  0  0  0  0  0  0  0
   -5.5185    2.1837    0.2906 C   0  0  0  0  0  0  0  0  0  0  0  0
   -4.6343    1.6380   -3.0065 C   0  0  0  0  0  0  0  0  0  0  0  0
   -4.9968    1.4665   -4.1705 O   0  0  0  0  0  0  0  0  0  0  0  0
   -3.6873    0.7531   -2.4496 O   0  0  0  0  0  0  0  0  0  0  0  0
   -2.9373    0.4708   -1.0968 C   0  0  1  0  0  0  0  0  0  0  0  0
   -3.0190    1.5407   -0.0512 C   0  0  0  0  0  0  0  0  0  0  0  0
   -3.9146    1.3380    1.2352 N   0  0  2  0  0  0  0  0  0  0  0  0
   -3.2449    0.4971    2.1394 C   0  0  0  0  0  0  0  0  0  0  0  0
   -2.8991   -0.7185    1.1933 C   0  0  0  0  0  0  0  0  0  0  0  0
   -3.3806   -0.8047   -0.3789 C   0  0  1  0  0  0  0  0  0  0  0  0
   -4.8364   -1.0152   -0.4126 C   0  0  0  0  0  0  0  0  0  0  0  0
   -5.0481   -0.0528    0.6673 C   0  0  0  0  0  0  0  0  0  0  0  0
   -4.4482    3.1271    2.0263 C   0  0  0  0  0  0  0  0  0  0  0  0
   -5.9918    3.9390    1.2742 C   0  0  0  0  0  0  0  0  0  0  0  0
   -7.3852    3.0495    0.6638 C   0  0  0  0  0  0  0  0  0  0  0  0
   -7.3505    1.0100    0.4592 C   0  0  0  0  0  0  0  0  0  0  0  0
   -8.4581    0.0275   -0.2707 C   0  0  0  0  0  0  0  0  0  0  0  0
   -9.7732    0.9145   -0.8743 C   0  0  0  0  0  0  0  0  0  0  0  0
   -9.9504    2.7125   -0.7551 C   0  0  0  0  0  0  0  0  0  0  0  0
   -8.8011    3.8052    0.0273 C   0  0  0  0  0  0  0  0  0  0  0  0
  -10.8178    0.1974   -1.2415 F   0  0  0  0  0  0  0  0  0  0  0  0
   -6.1415    3.7864   -2.7951 N   0  0  0  0  0  0  0  0  0  0  0  0
   -5.5021    4.8567   -3.4807 C   0  0  0  0  0  0  0  0  0  0  0  0
   -4.8646    5.9325   -2.5384 C   0  0  0  0  0  0  0  0  0  0  0  0
   -5.7729    6.5505   -1.4879 C   0  0  0  0  0  0  0  0  0  0  0  0
   -6.5161    5.4865   -0.8570 C   0  0  0  0  0  0  0  0  0  0  0  0
   -7.0343    4.5482   -1.9233 C   0  0  0  0  0  0  0  0  0  0  0  0
  2  9  1  0
  2 29  1  0
  2  3  1  0
  2  1  1  1
  3  4  2  0
  3  8  1  0
  4  5  1  0
  5  6  2  0
  6  7  1  0
  7  8  2  0
  9 10  2  0
  9 11  1  0
 12 13  1  0
 12 17  1  0
 12 11  1  6
 13 14  1  0
 14 15  1  0
 14 19  1  0
 14 20  1  1
 15 16  1  0
 17 16  1  1
 17 18  1  0
 18 19  1  0
 20 21  1  0
 21 22  1  0
 22 23  2  0
 22 27  1  0
 23 24  1  0
 24 25  2  0
 25 26  1  0
 25 28  1  0
 26 27  2  0
 29 30  1  0
 29 34  1  0
 30 31  1  0
 31 32  1  0
 32 33  1  0
 33 34  1  0
M  CHG  1  14   1
M  END
>  <DRUGBANK_ID>  (1) 
DB12115

>  <COMMON_NAME>  (1) 
AZD-9164

>  <CAS_NUMBER>  (1) 
1034978-04-5

>  <UNII>  (1) 
977LWC4O5D

$$$$
