
     RDKit          3D

 22 22  0  0  0  0  0  0  0  0999 V2000
    1.4722   -0.2487    0.0618 C   0  0  0  0  0  0  0  0  0  0  0  0
    0.5690   -1.3413   -0.0057 C   0  0  0  0  0  0  0  0  0  0  0  0
    0.9055    1.0626    0.0482 C   0  0  0  0  0  0  0  0  0  0  0  0
    2.9970   -0.4132    0.1993 C   0  0  0  0  0  0  0  0  0  0  0  0
   -0.8251   -1.0895   -0.0313 C   0  0  0  0  0  0  0  0  0  0  0  0
    0.7779   -2.7019   -0.0548 O   0  0  0  0  0  0  0  0  0  0  0  0
   -0.4874    1.2731    0.0945 C   0  0  0  0  0  0  0  0  0  0  0  0
    3.7673    0.6649    0.5350 N   0  0  0  0  0  0  0  0  0  0  0  0
    3.6397   -1.4241    0.0801 O   0  0  0  0  0  0  0  0  0  0  0  0
   -1.3568    0.1976    0.0092 C   0  0  0  0  0  0  0  0  0  0  0  0
    2.1063   -3.1748   -0.0802 C   0  0  0  0  0  0  0  0  0  0  0  0
   -1.1643    2.9071    0.3814 S   0  0  0  0  0  0  0  0  0  0  0  0
    5.2309    0.5161    0.5345 C   0  0  0  0  0  0  0  0  0  0  0  0
   -0.4747    3.4185    1.9398 C   0  0  0  0  0  0  0  0  0  0  0  0
   -0.6403    3.7708   -0.6575 O   0  0  0  0  0  0  0  0  0  0  0  0
   -2.5936    2.7603    0.5847 O   0  0  0  0  0  0  0  0  0  0  0  0
    5.9314    1.0233   -0.7395 C   0  0  0  0  0  0  0  0  0  0  0  0
    5.7085    2.4548   -1.0201 N   0  0  0  0  0  0  0  0  0  0  0  0
    6.5515    2.9417   -2.1173 C   0  0  0  0  0  0  0  0  0  0  0  0
    4.3067    2.8449   -1.2138 C   0  0  0  0  0  0  0  0  0  0  0  0
    6.2826    2.3227   -3.4841 C   0  0  0  0  0  0  0  0  0  0  0  0
    3.5048    2.0339   -2.2377 C   0  0  0  0  0  0  0  0  0  0  0  0
  1  2  2  0
  1  3  1  0
  1  4  1  0
  2  5  1  0
  2  6  1  0
  3  7  2  0
  4  8  1  0
  4  9  2  0
  5 10  2  0
  6 11  1  0
  7 12  1  0
  7 10  1  0
  8 13  1  0
 12 14  1  0
 12 15  2  0
 12 16  2  0
 13 17  1  0
 17 18  1  0
 18 19  1  0
 18 20  1  0
 19 21  1  0
 20 22  1  0
M  END
>  <DRUGBANK_ID>  (1) 
DB13025

>  <COMMON_NAME>  (1) 
Tiapride

>  <CAS_NUMBER>  (1) 
51012-32-9

>  <UNII>  (1) 
LAH70H9JPH

>  <SYNONYMS>  (1) 
Thiapride; Tiaprida; Tiapride; Tiapridum

$$$$
