
     RDKit          3D

 29 31  0  0  0  0  0  0  0  0999 V2000
    0.9967    0.0502    0.2520 C   0  0  0  0  0  0  0  0  0  0  0  0
    0.4215   -1.7178    0.0426 Si  0  0  0  0  0  4  0  0  0  0  0  0
    1.0707   -2.7164    1.4912 C   0  0  0  0  0  0  0  0  0  0  0  0
   -1.4470   -1.7505    0.0001 C   0  0  0  0  0  0  0  0  0  0  0  0
    1.0510   -2.5145   -1.5810 C   0  0  0  0  0  0  0  0  0  0  0  0
    0.8588   -3.9318   -1.7311 C   0  0  0  0  0  0  0  0  0  0  0  0
    1.2116   -4.6282   -2.9137 C   0  0  0  0  0  0  0  0  0  0  0  0
    1.8725   -3.8966   -3.8724 C   0  0  0  0  0  0  0  0  0  0  0  0
    2.3538   -4.3426   -5.0618 O   0  0  0  0  0  0  0  0  0  0  0  0
    2.1958   -2.5807   -3.6422 C   0  0  0  0  0  0  0  0  0  0  0  0
    1.6833   -1.8140   -2.6194 C   0  0  0  0  0  0  0  0  0  0  0  0
    1.8590   -0.4110   -2.6705 N   0  0  0  0  0  0  0  0  0  0  0  0
    2.2272    0.4552   -3.6710 C   0  0  0  0  0  0  0  0  0  0  0  0
    2.4128    1.6463   -3.3885 O   0  0  0  0  0  0  0  0  0  0  0  0
    2.4682   -0.0212   -5.0440 C   0  0  0  0  0  0  0  0  0  0  0  0
    3.7131    0.1070   -5.5336 C   0  0  0  0  0  0  0  0  0  0  0  0
    4.1702   -0.5263   -6.6659 N   0  0  0  0  0  0  0  0  0  0  0  0
    3.3981   -1.5338   -7.2699 C   0  0  0  0  0  0  0  0  0  0  0  0
    2.0676   -1.7382   -6.8647 C   0  0  0  0  0  0  0  0  0  0  0  0
    1.3066   -2.7955   -7.3764 C   0  0  0  0  0  0  0  0  0  0  0  0
    1.8401   -3.6039   -8.3754 C   0  0  0  0  0  0  0  0  0  0  0  0
    3.1274   -3.3527   -8.8528 C   0  0  0  0  0  0  0  0  0  0  0  0
    3.9115   -2.3364   -8.2903 C   0  0  0  0  0  0  0  0  0  0  0  0
    1.4960   -0.8743   -5.7920 C   0  0  0  0  0  0  0  0  0  0  0  0
    0.3215   -0.9543   -5.4785 O   0  0  0  0  0  0  0  0  0  0  0  0
    0.9732   -6.4964   -3.0904 Si  0  0  0  0  0  4  0  0  0  0  0  0
    2.1036   -7.3197   -1.8549 C   0  0  0  0  0  0  0  0  0  0  0  0
   -0.8141   -6.9110   -2.7934 C   0  0  0  0  0  0  0  0  0  0  0  0
    1.4490   -7.1049   -4.8129 C   0  0  0  0  0  0  0  0  0  0  0  0
  1  2  1  0
  2  3  1  0
  2  4  1  0
  2  5  1  0
  5  6  2  0
  5 11  1  0
  6  7  1  0
  7  8  2  0
  7 26  1  0
  8  9  1  0
  8 10  1  0
 10 11  2  0
 11 12  1  0
 12 13  1  0
 13 14  2  0
 13 15  1  0
 15 16  2  0
 15 24  1  0
 16 17  1  0
 17 18  1  0
 18 19  2  0
 18 23  1  0
 19 20  1  0
 19 24  1  0
 20 21  2  0
 21 22  1  0
 22 23  2  0
 24 25  2  0
 26 27  1  0
 26 28  1  0
 26 29  1  0
M  END
>  <DRUGBANK_ID>  (1) 
DB16143

>  <COMMON_NAME>  (1) 
Dirocaftor

>  <CAS_NUMBER>  (1) 
2137932-23-9

>  <UNII>  (1) 
2G3T6M1AS9

>  <SYNONYMS>  (1) 
Dirocaftor

$$$$
