861
     RDKit          3D

 18 19  0  0  0  0  0  0  0  0999 V2000
    2.3383    0.9420    0.0182 F   0  0  0  0  0  0  0  0  0  0  0  0
   -2.3605    0.8908   -0.0075 F   0  0  0  0  0  0  0  0  0  0  0  0
    6.0946   -4.0220    0.0252 O   0  0  0  0  0  0  0  0  0  0  0  0
    5.3342   -1.3339    3.2242 O   0  0  0  0  0  0  0  0  0  0  0  0
    6.6905   -2.8239    2.2378 O   0  0  0  0  0  0  0  0  0  0  0  0
    2.5096   -1.8891    0.0349 C   0  0  0  0  0  0  0  0  0  0  0  0
    1.2327   -1.1638    0.0114 C   0  0  0  0  0  0  0  0  0  0  0  0
    3.4215   -1.7004    1.0933 C   0  0  0  0  0  0  0  0  0  0  0  0
    2.8472   -2.7767   -0.9949 C   0  0  0  0  0  0  0  0  0  0  0  0
    4.6468   -2.3841    1.1360 C   0  0  0  0  0  0  0  0  0  0  0  0
    1.1936    0.2409    0.0102 C   0  0  0  0  0  0  0  0  0  0  0  0
    0.0100   -1.8575   -0.0023 C   0  0  0  0  0  0  0  0  0  0  0  0
    4.9451   -3.2776    0.0912 C   0  0  0  0  0  0  0  0  0  0  0  0
    4.0582   -3.4649   -0.9682 C   0  0  0  0  0  0  0  0  0  0  0  0
   -0.0072    0.9408    0.0030 C   0  0  0  0  0  0  0  0  0  0  0  0
   -1.2014   -1.1616   -0.0153 C   0  0  0  0  0  0  0  0  0  0  0  0
   -1.1968    0.2291   -0.0083 C   0  0  0  0  0  0  0  0  0  0  0  0
    5.6360   -2.1988    2.2370 C   0  0  0  0  0  0  0  0  0  0  0  0
  1 11  1  0
  2 17  1  0
  3 13  1  0
  4 18  1  0
  5 18  2  0
  6  7  1  0
  6  8  2  0
  6  9  1  0
  7 11  2  0
  7 12  1  0
  8 10  1  0
  9 14  2  0
 10 13  2  0
 10 18  1  0
 11 15  1  0
 12 16  2  0
 13 14  1  0
 15 17  2  0
 16 17  1  0
M  END
>  <DRUGBANK_ID>  (1) 
DB00861

>  <SECONDARY_ACCESSION_NUMBERS>  (1) 
APRD00922; DB06895

>  <COMMON_NAME>  (1) 
Diflunisal

>  <CAS_NUMBER>  (1) 
22494-42-4

>  <UNII>  (1) 
7C546U4DEN

>  <SYNONYMS>  (1) 
2-(hydroxy)-5-(2,4-difluorophenyl)benzoic acid; 2',4'-difluoro-4-hydroxy-3-biphenylcarboxylic acid; 5-(2,4-difluorophenyl)salicylic acid; Diflunisal; Diflunisalum

$$$$
