
     RDKit          3D

 28 30  0  0  0  0  0  0  0  0999 V2000
   -1.1450   -0.3660   -0.0620 O   0  0  0  0  0  0  0  0  0  0  0  0
    1.1390   -0.3930    0.0300 O   0  0  0  0  0  0  0  0  0  0  0  0
    1.3999   -7.4953    0.2208 O   0  0  0  0  0  0  0  0  0  0  0  0
   -2.8539    1.8718   -0.6909 O   0  0  0  0  0  0  0  0  0  0  0  0
    1.8426   -6.5176   -1.8491 O   0  0  0  0  0  0  0  0  0  0  0  0
   -2.0053   -6.9080    1.5056 N   0  0  0  0  0  0  0  0  0  0  0  0
   -1.0788   -4.6820    1.3943 N   0  0  0  0  0  0  0  0  0  0  0  0
   -3.5913   -5.0891    1.4607 N   0  0  0  0  0  0  0  0  0  0  0  0
    6.0040   -7.3741   -1.2847 N   0  0  0  0  0  0  0  0  0  0  0  0
   -0.7540    1.0160    0.0990 C   0  0  1  0  0  0  0  0  0  0  0  0
    0.7790    1.0080   -0.0840 C   0  0  0  0  0  0  0  0  0  0  0  0
    0.0722   -6.9916    0.2258 C   0  0  2  0  0  0  0  0  0  0  0  0
    0.1060   -5.4734    0.1617 C   0  0  0  0  0  0  0  0  0  0  0  0
   -0.0420   -2.7228    0.1286 C   0  0  0  0  0  0  0  0  0  0  0  0
   -1.4498    1.9329   -0.8938 C   0  0  0  0  0  0  0  0  0  0  0  0
   -0.4775   -4.8513   -0.8560 C   0  0  0  0  0  0  0  0  0  0  0  0
    0.7449   -4.7649    1.1659 C   0  0  0  0  0  0  0  0  0  0  0  0
   -0.5980   -3.4826   -0.8629 C   0  0  0  0  0  0  0  0  0  0  0  0
    0.4630   -3.3783    1.1578 C   0  0  0  0  0  0  0  0  0  0  0  0
   -0.6309   -7.4294    1.5004 C   0  0  0  0  0  0  0  0  0  0  0  0
    2.2605   -7.2172   -0.8739 C   0  0  0  0  0  0  0  0  0  0  0  0
    3.6817   -7.7563   -0.8793 C   0  0  0  0  0  0  0  0  0  0  0  0
   -2.2169   -5.6104    1.4555 C   0  0  0  0  0  0  0  0  0  0  0  0
    3.9335   -9.0817   -0.5162 C   0  0  0  0  0  0  0  0  0  0  0  0
    4.7345   -6.9402   -1.2434 C   0  0  0  0  0  0  0  0  0  0  0  0
    5.2502   -9.5223   -0.5587 C   0  0  0  0  0  0  0  0  0  0  0  0
    6.2362   -8.6489   -0.9568 C   0  0  0  0  0  0  0  0  0  0  0  0
   -0.0170   -1.1260    0.0300 B   0  0  0  0  0  0  0  0  0  0  0  0
  1 10  1  0
  1 28  1  0
  2 11  1  0
  2 28  1  0
  3 21  1  0
  4 15  1  0
  5 21  2  0
  6 20  1  0
  6 23  2  3
  7 23  1  0
  8 23  1  0
  9 25  2  0
  9 27  1  0
 10 11  1  0
 10 15  1  6
 12  3  1  0
 12 13  1  0
 12 20  1  1
 13 16  2  0
 13 17  1  0
 14 18  2  0
 14 19  1  0
 14 28  1  0
 16 18  1  0
 17 19  2  0
 21 22  1  0
 22 24  2  0
 22 25  1  0
 24 26  1  0
 26 27  2  0
M  END
>  <DRUGBANK_ID>  (1) 
DB07023

>  <COMMON_NAME>  (1) 
(1R)-2-[(Diaminomethylene)amino]-1-{4-[(4R)-4-(hydroxymethyl)-1,3,2-dioxaborolan-2-yl]phenyl}ethyl nicotinate

$$$$
