E20
     RDKit          3D

 28 31  0  0  0  0  0  0  0  0999 V2000
    2.2861   -1.2683    0.0807 C   0  0  0  0  0  0  0  0  0  0  0  0
    2.8039    0.0647    0.0852 C   0  0  0  0  0  0  0  0  0  0  0  0
    1.9677    1.2343    0.0733 C   0  0  0  0  0  0  0  0  0  0  0  0
    0.6165    1.0926    0.0050 C   0  0  0  0  0  0  0  0  0  0  0  0
    0.2189   -0.2152   -0.0176 C   0  0  0  0  0  0  0  0  0  0  0  0
    0.9402   -1.4000    0.0657 C   0  0  0  0  0  0  0  0  0  0  0  0
   -1.0460   -0.1865   -0.5746 C   0  0  0  0  0  0  0  0  0  0  0  0
   -1.7750    1.1846   -0.3154 C   0  0  1  0  0  0  0  0  0  0  0  0
   -0.5216    2.0767   -0.1748 C   0  0  0  0  0  0  0  0  0  0  0  0
   -3.0051    1.5161   -1.2018 C   0  0  0  0  0  0  0  0  0  0  0  0
   -4.2442    0.4809   -1.1093 C   0  0  0  0  0  0  0  0  0  0  0  0
   -5.4060    0.4262   -0.1063 C   0  0  0  0  0  0  0  0  0  0  0  0
   -4.9651    0.2354    1.3370 C   0  0  0  0  0  0  0  0  0  0  0  0
   -4.1898   -0.9772    1.6384 N   0  0  0  0  0  0  0  0  0  0  0  0
   -3.1713   -1.1148    0.6171 C   0  0  0  0  0  0  0  0  0  0  0  0
   -3.6524   -0.8947   -0.8989 C   0  0  0  0  0  0  0  0  0  0  0  0
   -3.4982   -0.9581    2.9863 C   0  0  0  0  0  0  0  0  0  0  0  0
   -2.7404    0.3114    3.4053 C   0  0  0  0  0  0  0  0  0  0  0  0
   -3.4403    1.5228    3.5148 C   0  0  0  0  0  0  0  0  0  0  0  0
   -2.8205    2.7261    3.8112 C   0  0  0  0  0  0  0  0  0  0  0  0
   -1.5015    2.7145    4.2215 C   0  0  0  0  0  0  0  0  0  0  0  0
   -0.7922    1.5118    4.2299 C   0  0  0  0  0  0  0  0  0  0  0  0
   -1.3773    0.3295    3.7434 C   0  0  0  0  0  0  0  0  0  0  0  0
   -1.2772   -1.2764   -1.1237 O   0  0  0  0  0  0  0  0  0  0  0  0
    3.0938   -2.3688    0.0269 O   0  0  0  0  0  0  0  0  0  0  0  0
    2.5181   -3.6735   -0.0180 C   0  0  0  0  0  0  0  0  0  0  0  0
    4.1364    0.3931    0.0682 O   0  0  0  0  0  0  0  0  0  0  0  0
    5.0200   -0.7153    0.0724 C   0  0  0  0  0  0  0  0  0  0  0  0
  1  2  2  0
  1  6  1  0
  1 25  1  0
  2  3  1  0
  2 27  1  0
  3  4  2  0
  4  5  1  0
  4  9  1  0
  5  6  2  0
  5  7  1  0
  7  8  1  0
  7 24  2  0
  8  9  1  0
  8 10  1  6
 10 11  1  0
 11 12  1  0
 11 16  1  0
 12 13  1  0
 13 14  1  0
 14 15  1  0
 14 17  1  0
 15 16  1  0
 17 18  1  0
 18 19  2  0
 18 23  1  0
 19 20  1  0
 20 21  2  0
 21 22  1  0
 22 23  2  0
 25 26  1  0
 27 28  1  0
M  END
>  <DRUGBANK_ID>  (1) 
DB07701

>  <COMMON_NAME>  (1) 
1-BENZYL-4-[(5,6-DIMETHOXY-1-INDANON-2-YL)METHYL]PIPERIDINE

$$$$
