
     RDKit          3D

 18 20  0  0  1  0  0  0  0  0999 V2000
    0.9496   -0.0957    0.0139 C   0  0  0  0  0  0  0  0  0  0  0  0
   -2.0237    2.8668    5.2095 C   0  0  0  0  0  0  0  0  0  0  0  0
   -0.1742    0.9886    7.2351 C   0  0  0  0  0  0  0  0  0  0  0  0
   -0.3144   -0.8194    3.4058 C   0  0  0  0  0  0  0  0  0  0  0  0
    0.3430    3.4239    2.5734 C   0  0  0  0  0  0  0  0  0  0  0  0
    0.4621    0.1050    1.4098 C   0  0  0  0  0  0  0  0  0  0  0  0
   -2.0116    2.7661    6.7078 C   0  0  1  0  0  0  0  0  0  0  0  0
   -0.5651    2.4598    7.0703 C   0  0  2  0  0  0  0  0  0  0  0  0
   -0.6054    3.3081    4.8837 C   0  0  2  0  0  0  0  0  0  0  0  0
    0.3741    1.3627    2.0162 C   0  0  0  0  0  0  0  0  0  0  0  0
   -0.0764    1.3894    3.3287 C   0  0  0  0  0  0  0  0  0  0  0  0
    0.1190   -0.9961    2.1412 N   0  0  0  0  0  0  0  0  0  0  0  0
   -0.4591    0.3413    4.0719 N   0  0  0  0  0  0  0  0  0  0  0  0
    0.6307    2.6332    1.5593 N   0  0  0  0  0  0  0  0  0  0  0  0
   -0.0798    2.7172    3.6691 N   0  0  0  0  0  0  0  0  0  0  0  0
    0.8477    0.9144    8.2398 O   0  0  0  0  0  0  0  0  0  0  0  0
   -2.3804    4.0524    7.2269 O   0  0  0  0  0  0  0  0  0  0  0  0
    0.2496    3.0096    6.0051 O   0  0  0  0  0  0  0  0  0  0  0  0
  6  1  1  0
  7  2  1  0
  7 17  1  1
  8  7  1  0
  8  3  1  6
  9  2  1  0
  9 15  1  6
 10  6  2  0
 11 10  1  0
 12  4  2  0
 12  6  1  0
 13  4  1  0
 13 11  2  0
 14  5  2  0
 14 10  1  0
 15  5  1  0
 15 11  1  0
 16  3  1  0
 18  8  1  0
 18  9  1  0
M  END
>  <DRUGBANK_ID>  (1) 
DB03735

>  <SECONDARY_ACCESSION_NUMBERS>  (1) 
EXPT02147

>  <COMMON_NAME>  (1) 
9-(2-Deoxy-Beta-D-Ribofuranosyl)-6-Methylpurine

$$$$
