
     RDKit          3D

 35 37  0  0  0  0  0  0  0  0999 V2000
    1.1382   -0.0938   -0.0670 C   0  0  0  0  0  0  0  0  0  0  0  0
    0.5274   -0.4678    1.1880 N   0  0  0  0  0  0  0  0  0  0  0  0
   -0.2404    0.2942    2.0248 C   0  0  0  0  0  0  0  0  0  0  0  0
   -0.5768   -0.1475    3.1296 O   0  0  0  0  0  0  0  0  0  0  0  0
   -0.6444    1.6624    1.6359 C   0  0  0  0  0  0  0  0  0  0  0  0
   -1.1570    1.9640    0.3675 C   0  0  0  0  0  0  0  0  0  0  0  0
   -1.4852    3.2846    0.0282 C   0  0  0  0  0  0  0  0  0  0  0  0
   -1.3927    4.3044    0.9821 C   0  0  0  0  0  0  0  0  0  0  0  0
   -0.9801    3.9522    2.2782 C   0  0  0  0  0  0  0  0  0  0  0  0
   -0.5571    2.6647    2.5949 C   0  0  0  0  0  0  0  0  0  0  0  0
   -1.6250    5.6486    0.6396 N   0  0  0  0  0  0  0  0  0  0  0  0
   -1.5686    6.7331    1.5199 C   0  0  0  0  0  0  0  0  0  0  0  0
   -2.6850    7.4243    1.7647 N   0  0  0  0  0  0  0  0  0  0  0  0
   -2.6212    8.3156    2.7772 C   0  0  0  0  0  0  0  0  0  0  0  0
   -1.4791    8.5948    3.4936 C   0  0  0  0  0  0  0  0  0  0  0  0
   -0.3492    7.9180    3.1194 C   0  0  0  0  0  0  0  0  0  0  0  0
   -0.4113    6.9675    2.1672 N   0  0  0  0  0  0  0  0  0  0  0  0
    0.8223    8.0916    3.8470 N   0  0  0  0  0  0  0  0  0  0  0  0
    2.0290    7.4548    3.3695 C   0  0  0  0  0  0  0  0  0  0  0  0
    3.1401    8.3256    2.8539 C   0  0  0  0  0  0  0  0  0  0  0  0
    4.3267    7.7573    2.3187 C   0  0  0  0  0  0  0  0  0  0  0  0
    5.2748    8.5901    1.8262 N   0  0  0  0  0  0  0  0  0  0  0  0
    5.0385    9.9285    1.8828 C   0  0  0  0  0  0  0  0  0  0  0  0
    3.8934   10.4624    2.4366 C   0  0  0  0  0  0  0  0  0  0  0  0
    2.9236    9.6797    2.9419 N   0  0  0  0  0  0  0  0  0  0  0  0
    4.6529    6.3313    2.2498 N   0  0  0  0  0  0  0  0  0  0  0  0
    3.8206    5.2382    2.7521 C   0  0  0  0  0  0  0  0  0  0  0  0
    6.1309    5.8582    1.5408 S   0  0  0  0  0  0  0  0  0  0  0  0
    6.0959    6.1662    0.1247 O   0  0  0  0  0  0  0  0  0  0  0  0
    7.2210    6.2923    2.3903 O   0  0  0  0  0  0  0  0  0  0  0  0
    6.1184    4.0594    1.6468 C   0  0  0  0  0  0  0  0  0  0  0  0
   -1.4384    9.5798    4.5971 C   0  0  0  0  0  0  0  0  0  0  0  0
   -1.0544    9.0400    5.7887 F   0  0  0  0  0  0  0  0  0  0  0  0
   -0.5546   10.5906    4.3546 F   0  0  0  0  0  0  0  0  0  0  0  0
   -2.6333   10.1837    4.8352 F   0  0  0  0  0  0  0  0  0  0  0  0
  1  2  1  0
  2  3  1  0
  3  4  2  0
  3  5  1  0
  5  6  2  0
  5 10  1  0
  6  7  1  0
  7  8  2  0
  8  9  1  0
  8 11  1  0
  9 10  2  0
 11 12  1  0
 12 13  2  0
 12 17  1  0
 13 14  1  0
 14 15  2  0
 15 16  1  0
 15 32  1  0
 16 17  2  0
 16 18  1  0
 18 19  1  0
 19 20  1  0
 20 21  2  0
 20 25  1  0
 21 22  1  0
 21 26  1  0
 22 23  2  0
 23 24  1  0
 24 25  2  0
 26 27  1  0
 26 28  1  0
 28 29  2  0
 28 30  2  0
 28 31  1  0
 32 33  1  0
 32 34  1  0
 32 35  1  0
M  END
>  <DRUGBANK_ID>  (1) 
DB12282

>  <COMMON_NAME>  (1) 
Defactinib

>  <CAS_NUMBER>  (1) 
1073154-85-4

>  <UNII>  (1) 
53O87HA2QU

>  <SYNONYMS>  (1) 
Defactinib; N-methyl-4-[[4-[[3-[methyl(methylsulfonyl)amino]pyrazin-2-yl]methylamino]-5-(trifluoromethyl)pyrimidin-2-yl]amino]benzamide

$$$$
