ANM
     RDKit          3D

 19 20  0  0  0  0  0  0  0  0999 V2000
    1.2062   -0.2614   -0.8303 C   0  0  0  0  0  0  0  0  0  0  0  0
    1.1083    3.0578    1.7997 C   0  0  2  0  0  0  0  0  0  0  0  0
    1.4587    3.2866    3.2618 C   0  0  2  0  0  0  0  0  0  0  0  0
    0.3532    2.5075    3.9527 C   0  0  0  0  0  0  0  0  0  0  0  0
    1.7374    0.5154    1.8491 C   0  0  0  0  0  0  0  0  0  0  0  0
    0.4776   -0.0651    2.4433 C   0  0  0  0  0  0  0  0  0  0  0  0
    0.4340   -1.3641   -0.4807 C   0  0  0  0  0  0  0  0  0  0  0  0
   -0.9396   -1.1609   -0.2933 C   0  0  0  0  0  0  0  0  0  0  0  0
   -1.4725    0.1432   -0.2126 C   0  0  0  0  0  0  0  0  0  0  0  0
   -0.6284    1.2545   -0.2893 C   0  0  0  0  0  0  0  0  0  0  0  0
    0.6576    1.0394   -0.8060 C   0  0  0  0  0  0  0  0  0  0  0  0
    2.3299   -2.7993   -0.1084 C   0  0  0  0  0  0  0  0  0  0  0  0
   -1.0441    2.5865    0.3355 C   0  0  0  0  0  0  0  0  0  0  0  0
   -0.4194    3.0901    1.7142 C   0  0  1  0  0  0  0  0  0  0  0  0
   -0.8634    2.6365    3.0665 N   0  0  0  0  0  0  0  0  0  0  0  0
    0.9112   -2.6114   -0.1677 O   0  0  0  0  0  0  0  0  0  0  0  0
    1.7903    1.8143    1.4190 O   0  0  0  0  0  0  0  0  0  0  0  0
    2.7184   -0.1833    1.7097 O   0  0  0  0  0  0  0  0  0  0  0  0
    1.4209    4.6390    3.6740 O   0  0  0  0  0  0  0  0  0  0  0  0
  1  7  2  0
  1 11  1  0
  2  3  1  0
  2 14  1  0
  2 17  1  1
  3  4  1  0
  3 19  1  1
  4 15  1  0
  5  6  1  0
  5 17  1  0
  5 18  2  0
  7  8  1  0
  7 16  1  0
  8  9  2  0
  9 10  1  0
 10 11  2  0
 10 13  1  0
 12 16  1  0
 14 13  1  6
 14 15  1  0
M  END
>  <DRUGBANK_ID>  (1) 
DB07374

>  <COMMON_NAME>  (1) 
Anisomycin

>  <CAS_NUMBER>  (1) 
22862-76-6

>  <UNII>  (1) 
6C74YM2NGI

$$$$
