
     RDKit          3D

 26 28  0  0  0  0  0  0  0  0999 V2000
   -1.8882    0.7373   -0.2622 C   0  0  0  0  0  0  0  0  0  0  0  0
   -0.6808    1.4149   -0.1165 C   0  0  0  0  0  0  0  0  0  0  0  0
    0.4834    0.6831   -0.0113 C   0  0  0  0  0  0  0  0  0  0  0  0
    0.4492   -0.7075   -0.0020 C   0  0  0  0  0  0  0  0  0  0  0  0
   -0.7714   -1.3872   -0.0306 C   0  0  0  0  0  0  0  0  0  0  0  0
   -1.9627   -0.6632   -0.1307 C   0  0  0  0  0  0  0  0  0  0  0  0
   -3.3098   -1.3609   -0.0223 C   0  0  0  0  0  0  0  0  0  0  0  0
   -4.0965   -1.0267    1.1893 N   0  0  0  0  0  0  0  0  0  0  0  0
   -3.4180   -1.4288    2.4294 C   0  0  0  0  0  0  0  0  0  0  0  0
   -4.2932   -1.1334    3.6592 C   0  0  0  0  0  0  0  0  0  0  0  0
   -4.7192    0.3447    3.6991 C   0  0  0  0  0  0  0  0  0  0  0  0
   -5.3734    0.7409    2.3833 C   0  0  0  0  0  0  0  0  0  0  0  0
   -4.4648    0.3897    1.2350 C   0  0  0  0  0  0  0  0  0  0  0  0
   -5.7239    0.6247    4.7348 N   0  0  0  0  0  0  0  0  0  0  0  0
   -5.2457    1.3900    5.8011 C   0  0  0  0  0  0  0  0  0  0  0  0
   -4.9319    2.7285    5.6123 C   0  0  0  0  0  0  0  0  0  0  0  0
   -4.4564    3.4855    6.6783 C   0  0  0  0  0  0  0  0  0  0  0  0
   -4.2911    2.8749    7.9134 C   0  0  0  0  0  0  0  0  0  0  0  0
   -4.6136    1.5697    8.0771 N   0  0  0  0  0  0  0  0  0  0  0  0
   -5.1078    0.8321    7.0161 N   0  0  0  0  0  0  0  0  0  0  0  0
   -3.7473    3.6462    9.0926 C   0  0  0  0  0  0  0  0  0  0  0  0
   -4.6047    3.6959   10.1504 F   0  0  0  0  0  0  0  0  0  0  0  0
   -2.5775    3.1376    9.5737 F   0  0  0  0  0  0  0  0  0  0  0  0
   -3.4715    4.9527    8.7920 F   0  0  0  0  0  0  0  0  0  0  0  0
    1.5856   -1.4082    0.0509 F   0  0  0  0  0  0  0  0  0  0  0  0
    1.6557    1.3333    0.0604 F   0  0  0  0  0  0  0  0  0  0  0  0
  1  2  2  0
  1  6  1  0
  2  3  1  0
  3  4  2  0
  3 26  1  0
  4  5  1  0
  4 25  1  0
  5  6  2  0
  6  7  1  0
  7  8  1  0
  8  9  1  0
  8 13  1  0
  9 10  1  0
 10 11  1  0
 11 12  1  0
 11 14  1  0
 12 13  1  0
 14 15  1  0
 15 16  2  0
 15 20  1  0
 16 17  1  0
 17 18  2  0
 18 19  1  0
 18 21  1  0
 19 20  2  0
 21 22  1  0
 21 23  1  0
 21 24  1  0
M  END
>  <DRUGBANK_ID>  (1) 
DB12579

>  <COMMON_NAME>  (1) 
JNJ-37822681

>  <CAS_NUMBER>  (1) 
935776-74-2

>  <UNII>  (1) 
GJB2URS7NJ

$$$$
