
     RDKit          3D

 15 15  0  0  1  0  0  0  0  0999 V2000
   -0.8650   -0.0036   -2.3905 C   0  0  0  0  0  0  0  0  0  0  0  0
    3.5190    0.6944   -4.3199 C   0  0  0  0  0  0  0  0  0  0  0  0
    1.2283    4.0676   -1.7232 C   0  0  0  0  0  0  0  0  0  0  0  0
   -0.1727    1.3018   -2.7952 C   0  0  1  0  0  0  0  0  0  0  0  0
    3.2678    1.2004   -2.8936 C   0  0  1  0  0  0  0  0  0  0  0  0
    2.1886    4.7543   -0.7565 C   0  0  0  0  0  0  0  0  0  0  0  0
    1.1090    1.5276   -1.9058 C   0  0  1  0  0  0  0  0  0  0  0  0
    2.9185    2.6690   -2.8729 C   0  0  0  0  0  0  0  0  0  0  0  0
    4.3150   -0.5379   -4.3340 N   0  0  0  0  0  0  0  0  0  0  0  0
    0.0880    1.2318   -4.2463 N   0  0  0  0  0  0  0  0  0  0  0  0
    2.1395    0.5189   -2.2071 N   0  0  0  0  0  0  0  0  0  0  0  0
    1.7646    2.7806   -2.1342 N   0  0  0  0  0  0  0  0  0  0  0  0
    2.6168    5.8940   -0.8482 O   0  0  0  0  0  0  0  0  0  0  0  0
    2.4808    4.0054    0.3322 O   0  0  0  0  0  0  0  0  0  0  0  0
    3.5739    3.5834   -3.3348 O   0  0  0  0  0  0  0  0  0  0  0  0
  4  1  1  1
  4 10  1  0
  5  2  1  6
  6  3  1  0
  7  4  1  0
  8  5  1  0
  9  2  1  0
 11  5  1  0
  7 11  1  6
 12  3  1  0
 12  7  1  0
 12  8  1  0
 13  6  2  0
 14  6  1  0
 15  8  2  0
M  END
>  <DRUGBANK_ID>  (1) 
DB03094

>  <SECONDARY_ACCESSION_NUMBERS>  (1) 
EXPT00055

>  <COMMON_NAME>  (1) 
3,5-Dihydro-5-Methylidene-4h-Imidazol-4-On

$$$$
