
     RDKit          3D

 14 13  0  0  0  0  0  0  0  0999 V2000
   -0.2064    4.1477   -0.5686 C   0  0  0  0  0  0  0  0  0  0  0  0
   -0.3670    0.5304   -2.1579 C   0  0  0  0  0  0  0  0  0  0  0  0
   -1.4631    3.3740   -0.9152 C   0  0  0  0  0  0  0  0  0  0  0  0
   -1.7323    1.2338   -2.1282 C   0  0  1  0  0  0  0  0  0  0  0  0
   -1.5525    2.7401   -2.2919 C   0  0  1  0  0  0  0  0  0  0  0  0
    0.7898    4.1169   -1.5725 O   0  0  0  0  0  0  0  0  0  0  0  0
   -2.3975    3.2731   -0.1087 O   0  0  0  0  0  0  0  0  0  0  0  0
   -2.5926    0.7560   -3.1722 O   0  0  0  0  0  0  0  0  0  0  0  0
   -2.6541    3.3030   -3.0024 O   0  0  0  0  0  0  0  0  0  0  0  0
   -0.5587   -1.9551   -4.7899 O   0  0  0  0  0  0  0  0  0  0  0  0
   -0.7098   -2.3291   -2.4059 O   0  0  0  0  0  0  0  0  0  0  0  0
   -2.5985   -2.4542   -3.7087 O   0  0  0  0  0  0  0  0  0  0  0  0
   -0.2009   -0.2473   -3.3496 O   0  0  0  0  0  0  0  0  0  0  0  0
   -1.4661   -1.4119   -3.5391 P   0  0  0  0  0  0  0  0  0  0  0  0
  3  1  1  0
  4  8  1  6
  4  5  1  0
  4  2  1  0
  5  3  1  0
  5  9  1  1
  6  1  1  0
  7  3  2  0
 13  2  1  0
 14 10  1  0
 14 11  1  0
 14 12  2  0
 14 13  1  0
M  END
>  <DRUGBANK_ID>  (1) 
DB01923

>  <SECONDARY_ACCESSION_NUMBERS>  (1) 
EXPT02069

>  <COMMON_NAME>  (1) 
L-Xylulose 5-Phosphate

>  <CAS_NUMBER>  (1) 
60802-29-1

$$$$
