Cytidine monophosphate.mol
     RDKit          3D

 21 22  0  0  0  0  0  0  0  0999 V2000
    0.9337   -0.0395   -0.0266 C   0  0  0  0  0  0  0  0  0  0  0  0
    0.5196    0.4183    1.4159 C   0  0  2  0  0  0  0  0  0  0  0  0
   -0.8447    1.0850    1.4249 C   0  0  1  0  0  0  0  0  0  0  0  0
   -1.5972    0.4868    2.4916 O   0  0  0  0  0  0  0  0  0  0  0  0
   -0.6007    2.5695    1.7363 C   0  0  1  0  0  0  0  0  0  0  0  0
   -1.8058    3.1146    2.2384 O   0  0  0  0  0  0  0  0  0  0  0  0
    0.8314    2.6632    2.4527 C   0  0  1  0  0  0  0  0  0  0  0  0
    1.4877    1.3864    2.0549 O   0  0  0  0  0  0  0  0  0  0  0  0
    1.6800    3.9988    2.2238 N   0  0  0  0  0  0  0  0  0  0  0  0
    0.8471    5.1336    2.3137 C   0  0  0  0  0  0  0  0  0  0  0  0
   -0.1564    5.0435    3.0603 O   0  0  0  0  0  0  0  0  0  0  0  0
    1.0492    6.2674    1.5728 N   0  0  0  0  0  0  0  0  0  0  0  0
    2.1149    6.3853    0.8347 C   0  0  0  0  0  0  0  0  0  0  0  0
    2.1351    7.4109   -0.0820 N   0  0  0  0  0  0  0  0  0  0  0  0
    3.2441    5.4010    0.9500 C   0  0  0  0  0  0  0  0  0  0  0  0
    3.0061    4.2492    1.6700 C   0  0  0  0  0  0  0  0  0  0  0  0
    1.1880    2.5397   -0.5816 P   0  0  0  0  0  0  0  0  0  0  0  0
   -0.1671    3.0374   -0.9258 O   0  0  0  0  0  0  0  0  0  0  0  0
    0.6113    0.9630   -0.9991 O   0  0  0  0  0  0  0  0  0  0  0  0
    2.4784    1.9173    0.0723 O   0  0  0  0  0  0  0  0  0  0  0  0
    1.7647    4.1164   -0.1641 O   0  0  0  0  0  0  0  0  0  0  0  0
  1 19  1  0
  2  1  1  6
  2  3  1  0
  2  8  1  0
  3  4  1  1
  3  5  1  0
  5  6  1  1
  5  7  1  0
  7  8  1  0
  7  9  1  6
  9 10  1  0
  9 16  1  0
 10 11  2  0
 10 12  1  0
 12 13  2  0
 13 14  1  0
 13 15  1  0
 15 16  2  0
 17 18  2  0
 17 19  1  0
 17 20  1  0
 17 21  1  0
M  END
>  <DRUGBANK_ID>  (1) 
DB03403

>  <SECONDARY_ACCESSION_NUMBERS>  (1) 
EXPT00796

>  <COMMON_NAME>  (1) 
Cytidine-5'-Monophosphate

>  <CAS_NUMBER>  (1) 
63-37-6

>  <UNII>  (1) 
F469818O25

>  <SYNONYMS>  (1) 
5'-CMP; CMP; Cytidine monophosphate; cytidylate; Cytidylic acid; pC

$$$$
