
     RDKit          3D

 29 30  0  0  0  0  0  0  0  0999 V2000
    1.1874   -0.1201    0.1974 C   0  0  0  0  0  0  0  0  0  0  0  0
    0.9295   -1.3330    0.8490 O   0  0  0  0  0  0  0  0  0  0  0  0
    1.4011   -2.8371    0.3897 C   0  0  0  0  0  0  0  0  0  0  0  0
    0.3835    0.7926    0.0083 O   0  0  0  0  0  0  0  0  0  0  0  0
    2.6288    0.0342    0.0093 C   0  0  0  0  0  0  0  0  0  0  0  0
    3.2198    1.2709   -0.0114 C   0  0  0  0  0  0  0  0  0  0  0  0
    3.4648   -1.0665    0.0922 C   0  0  0  0  0  0  0  0  0  0  0  0
    4.8095   -1.0695    0.2503 C   0  0  0  0  0  0  0  0  0  0  0  0
    4.6143    1.3103    0.1092 C   0  0  0  0  0  0  0  0  0  0  0  0
    5.4009    0.1478    0.2231 C   0  0  0  0  0  0  0  0  0  0  0  0
   -3.2231   -5.8328   -0.6312 N   0  0  0  0  0  0  0  0  0  0  0  0
   -3.2731   -3.4628   -0.8693 C   0  0  0  0  0  0  0  0  0  0  0  0
   -2.9937   -4.7368   -1.3489 C   0  0  0  0  0  0  0  0  0  0  0  0
   -1.4376   -2.4671   -1.9200 N   0  0  0  0  0  0  0  0  0  0  0  0
   -0.5859   -2.4226   -3.0697 C   0  0  0  0  0  0  0  0  0  0  0  0
   -2.8336   -2.2498   -1.6535 C   0  0  0  0  0  0  0  0  0  0  0  0
   -3.9466   -4.4747    1.1959 N   0  0  0  0  0  0  0  0  0  0  0  0
    0.8070   -2.6358   -3.0853 C   0  0  0  0  0  0  0  0  0  0  0  0
   -3.7354   -5.6615    0.5989 C   0  0  0  0  0  0  0  0  0  0  0  0
   -0.8342   -2.2562   -0.7767 C   0  0  0  0  0  0  0  0  0  0  0  0
   -3.6937   -3.3900    0.4488 C   0  0  0  0  0  0  0  0  0  0  0  0
    2.0139   -3.2838   -1.6503 S   0  0  0  0  0  0  0  0  0  0  0  0
    0.2051   -1.6546   -1.0246 O   0  0  0  0  0  0  0  0  0  0  0  0
   -2.5457   -4.9396   -2.6487 N   0  0  0  0  0  0  0  0  0  0  0  0
    1.6061   -2.5064   -4.4339 C   0  0  0  0  0  0  0  0  0  0  0  0
   -1.3230   -2.1746   -4.3474 C   0  0  0  0  0  0  0  0  0  0  0  0
    3.6306   -1.3390   -3.6498 O   0  0  0  0  0  0  0  0  0  0  0  0
   -4.1381   -6.9007    1.3241 C   0  0  0  0  0  0  0  0  0  0  0  0
    2.5509   -1.2972   -4.5679 C   0  0  0  0  0  0  0  0  0  0  0  0
  1  2  1  0
  2  3  1  0
  4  1  2  0
  5  1  1  0
  6  5  2  0
  7  5  1  0
  8  7  2  0
  9  6  1  0
  9 10  2  0
 10  8  1  0
 12 13  1  0
 12 21  2  0
 13 11  2  0
 14 16  1  0
 15 14  1  0
 16 12  1  0
 17 19  2  0
 18 15  2  0
 19 11  1  0
 20 14  1  0
 21 17  1  0
 22 18  1  0
 22  3  1  0
 23 20  2  0
 24 13  1  0
 25 18  1  0
 26 15  1  0
 27 29  1  0
 28 19  1  0
 29 25  1  0
M  END
>  <DRUGBANK_ID>  (1) 
DB16535

>  <COMMON_NAME>  (1) 
Benzoyloxymethylthiamine

>  <CAS_NUMBER>  (1) 
18481-26-0

$$$$
