
     RDKit          3D

 10  9  0  0  0  0  0  0  0  0999 V2000
    1.0449    0.0497   -0.0465 C   0  0  0  0  0  0  0  0  0  0  0  0
   -1.0857   -5.4084    0.3370 C   0  0  0  0  0  0  0  0  0  0  0  0
   -3.1277   -3.9454    0.0285 C   0  0  0  0  0  0  0  0  0  0  0  0
    0.5288   -2.8376    0.9166 C   0  0  0  0  0  0  0  0  0  0  0  0
    1.0872   -2.4265   -0.4545 C   0  0  0  0  0  0  0  0  0  0  0  0
   -0.9960   -3.0079    1.0101 C   0  0  0  0  0  0  0  0  0  0  0  0
    0.6221   -1.0597   -1.0029 C   0  0  0  0  0  0  0  0  0  0  0  0
   -1.6049   -4.0111    0.0041 C   0  0  0  0  0  0  0  0  0  0  0  0
   -0.8056   -0.9363   -1.3004 N   0  0  0  0  0  0  0  0  0  0  0  0
   -1.2578   -3.6918   -1.3452 O   0  0  0  0  0  0  0  0  0  0  0  0
  5  4  1  0
  6  4  1  0
  7  1  1  0
  7  5  1  0
  8  2  1  0
  8  3  1  0
  8  6  1  0
  9  7  1  0
 10  8  1  0
M  END
>  <DRUGBANK_ID>  (1) 
DB13574

>  <COMMON_NAME>  (1) 
Heptaminol

>  <CAS_NUMBER>  (1) 
372-66-7

>  <UNII>  (1) 
3DQS188SY5

>  <SYNONYMS>  (1) 
Heptaminol

$$$$
