
     RDKit          3D

 26 29  0  0  0  0  0  0  0  0999 V2000
   -0.0924   -0.6750    0.0022 C   0  0  0  0  0  0  0  0  0  0  0  0
   -1.4533   -1.0604   -0.1553 C   0  0  0  0  0  0  0  0  0  0  0  0
   -0.0373    0.7216    0.0151 C   0  0  0  0  0  0  0  0  0  0  0  0
    1.1040   -1.3950    0.0671 C   0  0  0  0  0  0  0  0  0  0  0  0
   -2.0511    0.1386   -0.5639 C   0  0  0  0  0  0  0  0  0  0  0  0
   -2.0107   -2.4985   -0.0721 C   0  0  0  0  0  0  0  0  0  0  0  0
   -1.3175    1.1699   -0.0557 N   0  0  0  0  0  0  0  0  0  0  0  0
    1.1323    1.4592    0.0469 C   0  0  0  0  0  0  0  0  0  0  0  0
    2.2986   -0.6761    0.0212 C   0  0  0  0  0  0  0  0  0  0  0  0
   -2.9472   -2.8619    1.1540 C   0  0  0  0  0  0  0  0  0  0  0  0
    2.3085    0.7221    0.0019 C   0  0  0  0  0  0  0  0  0  0  0  0
   -4.2968   -2.2063    1.2672 N   0  0  0  0  0  0  0  0  0  0  0  0
   -4.0653   -0.7910    1.0499 C   0  0  0  0  0  0  0  0  0  0  0  0
   -5.1980   -2.6627    0.1866 C   0  0  0  0  0  0  0  0  0  0  0  0
   -5.1649    0.2219    0.9160 C   0  0  0  0  0  0  0  0  0  0  0  0
   -6.4520   -1.7676    0.1115 C   0  0  0  0  0  0  0  0  0  0  0  0
   -6.1329   -0.2829   -0.1445 C   0  0  0  0  0  0  0  0  0  0  0  0
   -7.3232    0.5523   -0.1136 N   0  0  0  0  0  0  0  0  0  0  0  0
   -7.7966    1.2271   -1.2095 C   0  0  0  0  0  0  0  0  0  0  0  0
   -9.0071    2.0580   -1.0079 C   0  0  0  0  0  0  0  0  0  0  0  0
   -7.2748    1.1801   -2.3306 O   0  0  0  0  0  0  0  0  0  0  0  0
   -9.1311    2.8937    0.1088 C   0  0  0  0  0  0  0  0  0  0  0  0
   -9.9840    2.0847   -2.0104 C   0  0  0  0  0  0  0  0  0  0  0  0
  -10.2262    3.7561    0.2122 C   0  0  0  0  0  0  0  0  0  0  0  0
  -11.0544    2.9762   -1.9206 C   0  0  0  0  0  0  0  0  0  0  0  0
  -11.1859    3.7966   -0.8005 C   0  0  0  0  0  0  0  0  0  0  0  0
  1  2  1  0
  1  3  1  0
  1  4  2  0
  2  5  2  0
  2  6  1  0
  3  7  1  0
  3  8  2  0
  4  9  1  0
  5  7  1  0
  6 10  1  0
  8 11  1  0
  9 11  2  0
 10 12  1  0
 12 13  1  0
 12 14  1  0
 13 15  1  0
 14 16  1  0
 15 17  1  0
 16 17  1  0
 17 18  1  0
 18 19  1  0
 19 20  1  0
 19 21  2  0
 20 22  2  0
 20 23  1  0
 22 24  1  0
 23 25  2  0
 24 26  2  0
 25 26  1  0
M  END
>  <DRUGBANK_ID>  (1) 
DB08950

>  <COMMON_NAME>  (1) 
Indoramin

>  <CAS_NUMBER>  (1) 
26844-12-2

>  <UNII>  (1) 
0Z802HMY7H

>  <SYNONYMS>  (1) 
Indoramin; Indoramina; Indoramine; Indoraminum

$$$$
