
     RDKit          3D

 18 17  0  0  0  0  0  0  0  0999 V2000
    1.0218    0.0445    0.0012 C   0  0  0  0  0  0  0  0  0  0  0  0
    0.5734    1.2037   -0.8728 C   0  0  0  0  0  0  0  0  0  0  0  0
    1.0838    1.0216   -2.3038 C   0  0  0  0  0  0  0  0  0  0  0  0
    0.5502   -0.2679   -2.9428 C   0  0  0  0  0  0  0  0  0  0  0  0
   -0.9768   -0.2772   -2.9806 C   0  0  0  0  0  0  0  0  0  0  0  0
   -1.5025    0.9310   -3.7380 C   0  0  0  0  0  0  0  0  0  0  0  0
   -1.0851    0.8277   -5.1699 C   0  0  0  0  0  0  0  0  0  0  0  0
   -1.9501    0.6626   -6.1669 C   0  0  0  0  0  0  0  0  0  0  0  0
   -3.4318    0.7153   -5.9756 C   0  0  0  0  0  0  0  0  0  0  0  0
   -3.9769    1.9285   -6.7120 C   0  0  0  0  0  0  0  0  0  0  0  0
   -3.7780    1.7696   -8.2171 C   0  0  0  0  0  0  0  0  0  0  0  0
   -4.4330    0.4737   -8.7082 C   0  0  0  0  0  0  0  0  0  0  0  0
   -5.9386    0.4828   -8.4180 C   0  0  0  0  0  0  0  0  0  0  0  0
   -6.6398    1.6102   -9.1828 C   0  0  0  0  0  0  0  0  0  0  0  0
   -6.4273    1.5014  -10.6933 C   0  0  0  0  0  0  0  0  0  0  0  0
   -6.9688    0.1954  -11.2345 C   0  0  0  0  0  0  0  0  0  0  0  0
   -7.9524    0.3354  -12.1413 O   0  0  0  0  0  0  0  0  0  0  0  0
   -6.5660   -0.9149  -10.9021 O   0  0  0  0  0  0  0  0  0  0  0  0
  1  2  1  0
  2  3  1  0
  3  4  1  0
  4  5  1  0
  5  6  1  0
  6  7  1  0
  7  8  2  0
  8  9  1  0
  9 10  1  0
 10 11  1  0
 11 12  1  0
 12 13  1  0
 13 14  1  0
 14 15  1  0
 15 16  1  0
 16 17  1  0
 16 18  2  0
M  END
>  <DRUGBANK_ID>  (1) 
DB04257

>  <SECONDARY_ACCESSION_NUMBERS>  (1) 
EXPT02495

>  <COMMON_NAME>  (1) 
Palmitoleic Acid

>  <CAS_NUMBER>  (1) 
373-49-9

>  <UNII>  (1) 
209B6YPZ4I

>  <SYNONYMS>  (1) 
(9Z)-hexadecenoic acid; (Z)-9-hexadecenoic acid; (Z)-hexadec-9-enoic acid; 9-cis-hexadecenoic acid; cis-9-Hexadecenoic acid; palmitolinoleic acid; zoomaric acid

$$$$
