5RM
     RDKit          3D

 19 20  0  0  0  0  0  0  0  0999 V2000
    1.2535    0.0785    0.3459 O   0  0  0  0  0  0  0  0  0  0  0  0
    2.4622    0.0970    0.1080 C   0  0  0  0  0  0  0  0  0  0  0  0
    3.2159   -0.9984   -0.1885 O   0  0  0  0  0  0  0  0  0  0  0  0
    3.2415    1.2105    0.0754 N   0  0  0  0  0  0  0  0  0  0  0  0
    4.3098    0.9526   -0.8241 C   0  0  0  0  0  0  0  0  0  0  0  0
    4.5284   -0.5397   -0.6055 C   0  0  2  0  0  0  0  0  0  0  0  0
    4.8465   -1.2533   -1.9345 C   0  0  0  0  0  0  0  0  0  0  0  0
    5.6119   -0.8823    0.4131 C   0  0  0  0  0  0  0  0  0  0  0  0
    5.8255   -2.2312    0.7082 C   0  0  0  0  0  0  0  0  0  0  0  0
    7.0121   -2.6513    1.2808 C   0  0  0  0  0  0  0  0  0  0  0  0
    8.0348   -1.7499    1.5502 C   0  0  0  0  0  0  0  0  0  0  0  0
    9.2558   -2.2570    1.9359 O   0  0  0  0  0  0  0  0  0  0  0  0
    9.2319   -3.4508    2.7592 C   0  0  0  0  0  0  0  0  0  0  0  0
    7.7806   -0.3645    1.4188 C   0  0  0  0  0  0  0  0  0  0  0  0
    6.5418    0.0524    0.9009 C   0  0  0  0  0  0  0  0  0  0  0  0
    8.5703    0.7008    1.7827 O   0  0  0  0  0  0  0  0  0  0  0  0
    9.7882    0.4442    2.4739 C   0  0  0  0  0  0  0  0  0  0  0  0
    9.5963    0.1880    3.9885 C   0  0  0  0  0  0  0  0  0  0  0  0
    8.7338   -0.9945    4.3421 C   0  0  0  0  0  0  0  0  0  0  0  0
  1  2  2  0
  2  3  1  0
  2  4  1  0
  3  6  1  0
  4  5  1  0
  5  6  1  0
  6  8  1  0
  6  7  1  6
  8  9  2  0
  8 15  1  0
  9 10  1  0
 10 11  2  0
 11 12  1  0
 11 14  1  0
 12 13  1  0
 14 15  2  0
 14 16  1  0
 16 17  1  0
 17 18  1  0
 18 19  1  0
M  END
>  <DRUGBANK_ID>  (1) 
DB01647

>  <SECONDARY_ACCESSION_NUMBERS>  (1) 
EXPT00259

>  <COMMON_NAME>  (1) 
Daxalipram

>  <CAS_NUMBER>  (1) 
189940-24-7

>  <UNII>  (1) 
0RB5T277IY

>  <SYNONYMS>  (1) 
(R)-Mesopram; Daxalipram

$$$$
