
     RDKit          3D

 19 20  0  0  0  0  0  0  0  0999 V2000
    1.0800    0.0483   -0.2540 F   0  0  0  0  0  0  0  0  0  0  0  0
    2.8822   -0.5663   -1.2988 F   0  0  0  0  0  0  0  0  0  0  0  0
    2.8946    1.2265   -0.0605 F   0  0  0  0  0  0  0  0  0  0  0  0
    3.4691    0.9648    2.5692 N   0  0  0  0  0  0  0  0  0  0  0  0
    3.7403    1.5871    3.7659 N   0  0  0  0  0  0  0  0  0  0  0  0
    4.0184   -0.3850    6.7283 N   0  0  0  0  0  0  0  0  0  0  0  0
    3.8735    0.8029    7.1776 N   0  0  0  0  0  0  0  0  0  0  0  0
    4.9963   -1.3035    4.8151 N   0  0  0  0  0  0  0  0  0  0  0  0
    4.7038    2.8637    6.4138 N   0  0  0  0  0  0  0  0  0  0  0  0
    2.7858   -0.8869    1.0875 C   0  0  0  0  0  0  0  0  0  0  0  0
    2.8508   -0.2979    2.3653 C   0  0  0  0  0  0  0  0  0  0  0  0
    2.7661   -2.2951    0.9607 C   0  0  0  0  0  0  0  0  0  0  0  0
    2.5132   -1.1207    3.4280 C   0  0  0  0  0  0  0  0  0  0  0  0
    2.4348   -0.0552   -0.1197 C   0  0  0  0  0  0  0  0  0  0  0  0
    2.7770   -3.1024    2.0911 C   0  0  0  0  0  0  0  0  0  0  0  0
    2.6117   -2.5074    3.3282 C   0  0  0  0  0  0  0  0  0  0  0  0
    4.1461    1.0280    4.8549 C   0  0  0  0  0  0  0  0  0  0  0  0
    4.4165   -0.3439    5.3869 C   0  0  0  0  0  0  0  0  0  0  0  0
    4.2132    1.7041    6.1793 C   0  0  0  0  0  0  0  0  0  0  0  0
  1 14  1  0
  2 14  1  0
  3 14  1  0
  4  5  1  0
  4 11  1  0
  5 17  2  3
  6  7  2  0
  6 18  1  0
  7 19  1  0
  8 18  2  0
  9 19  2  0
 10 11  2  0
 10 12  1  0
 10 14  1  0
 11 13  1  0
 12 15  2  0
 13 16  2  0
 15 16  1  0
 17 18  1  0
 17 19  1  0
M  END
>  <DRUGBANK_ID>  (1) 
DB08671

>  <COMMON_NAME>  (1) 
5-Imino-4-(2-trifluoromethyl-phenylazo)-5H-pyrazol-3-ylamine

$$$$
