
     RDKit          3D

 18 20  0  0  1  0  0  0  0  0999 V2000
    2.2125   -0.0218    0.1289 O   0  0  0  0  0  0  0  0  0  0  0  0
    0.8556    0.0687    0.0159 C   0  0  0  0  0  0  0  0  0  0  0  0
    0.0224   -1.0273   -0.1018 C   0  0  0  0  0  0  0  0  0  0  0  0
   -1.3315   -0.7910   -0.4449 C   0  0  0  0  0  0  0  0  0  0  0  0
   -1.8284    0.5353   -0.7273 C   0  0  0  0  0  0  0  0  0  0  0  0
   -1.0534    1.5762   -0.2603 C   0  0  0  0  0  0  0  0  0  0  0  0
    0.3003    1.3475    0.0304 C   0  0  0  0  0  0  0  0  0  0  0  0
   -3.0325    0.8094   -1.6856 C   0  0  2  0  0  0  0  0  0  0  0  0
   -3.1746    1.8653   -3.0271 C   0  0  0  0  0  0  0  0  0  0  0  0
   -4.6370    2.1037   -2.9862 C   0  0  0  0  0  0  0  0  0  0  0  0
   -5.1229    3.1001   -2.3944 O   0  0  0  0  0  0  0  0  0  0  0  0
   -5.3188    0.8116   -3.2450 C   0  0  0  0  0  0  0  0  0  0  0  0
   -5.3612    0.1996   -4.5214 C   0  0  0  0  0  0  0  0  0  0  0  0
   -5.3205   -1.2070   -4.6344 C   0  0  0  0  0  0  0  0  0  0  0  0
   -5.1152   -2.0019   -3.5020 C   0  0  0  0  0  0  0  0  0  0  0  0
   -4.9537   -1.4001   -2.2562 C   0  0  0  0  0  0  0  0  0  0  0  0
   -5.0741   -0.0109   -2.1328 C   0  0  0  0  0  0  0  0  0  0  0  0
   -4.3516    0.5746   -1.0708 O   0  0  0  0  0  0  0  0  0  0  0  0
  1  2  1  0
  2  3  2  0
  2  7  1  0
  3  4  1  0
  4  5  2  0
  5  6  1  0
  6  7  2  0
  8  5  1  1
  8  9  1  0
  8 18  1  0
  9 10  1  0
 10 11  2  0
 10 12  1  0
 12 13  2  0
 12 17  1  0
 13 14  1  0
 14 15  2  0
 15 16  1  0
 16 17  2  0
 17 18  1  0
M  END
>  <DRUGBANK_ID>  (1) 
DB04429

>  <SECONDARY_ACCESSION_NUMBERS>  (1) 
EXPT01169

>  <COMMON_NAME>  (1) 
4'-Hydroxyflavanone

>  <UNII>  (1) 
5K6L8O868Y

$$$$
