PZF
     RDKit          3D

 29 32  0  0  0  0  0  0  0  0999 V2000
   -1.3157   -0.0831    0.0212 N   0  0  0  0  0  0  0  0  0  0  0  0
   -0.5657   -1.2056    0.0143 C   0  0  0  0  0  0  0  0  0  0  0  0
    1.4598    0.0810   -0.0086 C   0  0  0  0  0  0  0  0  0  0  0  0
    4.5890    4.9455   -4.2582 C   0  0  2  0  0  0  0  0  0  0  0  0
    5.3362    3.7478   -4.8403 C   0  0  0  0  0  0  0  0  0  0  0  0
    1.7812    4.5862    0.9070 C   0  0  0  0  0  0  0  0  0  0  0  0
    5.0632    4.9136   -1.8874 C   0  0  0  0  0  0  0  0  0  0  0  0
   -0.5745   -3.5783    0.0481 C   0  0  0  0  0  0  0  0  0  0  0  0
    6.6349    3.3980   -4.4293 C   0  0  0  0  0  0  0  0  0  0  0  0
    7.2685    0.4159   -6.3896 F   0  0  0  0  0  0  0  0  0  0  0  0
    6.6513    1.4996   -5.9061 C   0  0  0  0  0  0  0  0  0  0  0  0
    5.3808    1.8337   -6.3645 C   0  0  0  0  0  0  0  0  0  0  0  0
    4.7414    2.9535   -5.8346 C   0  0  0  0  0  0  0  0  0  0  0  0
    3.5177    3.2657   -6.2907 F   0  0  0  0  0  0  0  0  0  0  0  0
    7.2730    2.2828   -4.9510 C   0  0  0  0  0  0  0  0  0  0  0  0
    8.4975    1.9733   -4.4992 F   0  0  0  0  0  0  0  0  0  0  0  0
    5.3716    5.7355   -3.1693 C   0  0  2  0  0  0  0  0  0  0  0  0
    4.8840    7.1169   -3.0196 N   0  0  0  0  0  0  0  0  0  0  0  0
    3.6800    4.5103   -2.0920 N   0  0  0  0  0  0  0  0  0  0  0  0
    3.2912    4.5427   -3.5006 C   0  0  0  0  0  0  0  0  0  0  0  0
    2.8491    4.1389   -1.0711 C   0  0  0  0  0  0  0  0  0  0  0  0
    2.6545    4.9768   -0.0408 N   0  0  0  0  0  0  0  0  0  0  0  0
    2.2159    2.9122   -1.1055 C   0  0  0  0  0  0  0  0  0  0  0  0
    1.3646    2.5778   -0.0648 C   0  0  0  0  0  0  0  0  0  0  0  0
    1.1136    3.4231    0.9490 N   0  0  0  0  0  0  0  0  0  0  0  0
    0.7165    1.2651   -0.0058 C   0  0  0  0  0  0  0  0  0  0  0  0
    0.8205   -1.1595   -0.0000 C   0  0  0  0  0  0  0  0  0  0  0  0
   -1.3044   -2.3577    0.0217 O   0  0  0  0  0  0  0  0  0  0  0  0
   -0.6661    1.1133    0.0222 C   0  0  0  0  0  0  0  0  0  0  0  0
  1  2  2  0
  1 29  1  0
  2 28  1  0
  2 27  1  0
  3 27  2  0
  3 26  1  0
  4 20  1  0
  4 17  1  0
  4  5  1  1
  5 13  1  0
  5  9  2  0
  6 25  2  0
  6 22  1  0
  7 19  1  0
  7 17  1  0
  8 28  1  0
  9 15  1  0
 10 11  1  0
 11 12  1  0
 11 15  2  0
 12 13  2  0
 13 14  1  0
 15 16  1  0
 17 18  1  1
 19 21  1  0
 19 20  1  0
 21 23  1  0
 21 22  2  0
 23 24  2  0
 24 26  1  0
 24 25  1  0
 26 29  2  0
M  END
>  <DRUGBANK_ID>  (1) 
DB08445

>  <COMMON_NAME>  (1) 
(3R,4S)-1-[6-(6-METHOXYPYRIDIN-3-YL)PYRIMIDIN-4-YL]-4-(2,4,5-TRIFLUOROPHENYL)PYRROLIDIN-3-AMINE

$$$$
