
     RDKit          3D

 15 15  0  0  0  0  0  0  0  0999 V2000
    0.7051    1.2169   -0.2432 O   0  0  0  0  0  0  0  0  0  0  0  0
   -0.7841   -1.2430    1.7027 O   0  0  0  0  0  0  0  0  0  0  0  0
    1.3752   -2.3985    0.2320 O   0  0  0  0  0  0  0  0  0  0  0  0
   -1.2346    2.4941   -0.1717 O   0  0  0  0  0  0  0  0  0  0  0  0
    3.5527    1.2084    0.1172 O   0  0  0  0  0  0  0  0  0  0  0  0
   -5.0483   -0.0133   -0.3010 O   0  0  0  0  0  0  0  0  0  0  0  0
   -2.8345    0.0483    0.1125 N   0  0  0  0  0  0  0  0  0  0  0  0
   -0.7378   -1.2354    0.2663 C   0  0  1  0  0  0  0  0  0  0  0  0
   -1.4228    0.0323   -0.2521 C   0  0  2  0  0  0  0  0  0  0  0  0
    0.7047   -1.2359   -0.2452 C   0  0  1  0  0  0  0  0  0  0  0  0
    1.4139    0.0474    0.2216 C   0  0  1  0  0  0  0  0  0  0  0  0
   -0.6427    1.2703    0.2544 C   0  0  1  0  0  0  0  0  0  0  0  0
    2.8468    0.0550   -0.3260 C   0  0  0  0  0  0  0  0  0  0  0  0
   -3.8985    0.0100   -0.7376 C   0  0  0  0  0  0  0  0  0  0  0  0
   -3.5982    0.0025   -2.2119 C   0  0  0  0  0  0  0  0  0  0  0  0
  1 11  1  0
  1 12  1  0
  5 13  1  0
  6 14  2  0
  7 14  1  0
  8  9  1  0
  8 10  1  0
  8  2  1  1
  9 12  1  0
  9  7  1  1
 10 11  1  0
 10  3  1  1
 11 13  1  6
 12  4  1  6
 14 15  1  0
M  END
>  <DRUGBANK_ID>  (1) 
DB03109

>  <SECONDARY_ACCESSION_NUMBERS>  (1) 
EXPT02281

>  <COMMON_NAME>  (1) 
2-acetylamino-2-deoxy-b-D-allopyranose

>  <SYNONYMS>  (1) 
N-acetyl-D-allosamine

$$$$
