AI3
     RDKit          3D

 24 28  0  0  0  0  0  0  0  0999 V2000
    0.5067    2.2432    2.3707 C   0  0  0  0  0  0  0  0  0  0  0  0
    0.6087    3.9455    3.0685 C   0  0  0  0  0  0  0  0  0  0  0  0
    1.2396    4.5162    2.0298 C   0  0  0  0  0  0  0  0  0  0  0  0
    0.5709    4.0236    0.9167 C   0  0  0  0  0  0  0  0  0  0  0  0
    0.9879    2.7558    0.3983 C   0  0  0  0  0  0  0  0  0  0  0  0
    0.2224    1.8201    1.0092 C   0  0  0  0  0  0  0  0  0  0  0  0
    2.5791    4.6824    2.4793 C   0  0  0  0  0  0  0  0  0  0  0  0
    3.1444    5.7338    3.0187 N   0  0  0  0  0  0  0  0  0  0  0  0
    2.2768    6.3012    3.8003 C   0  0  0  0  0  0  0  0  0  0  0  0
    0.9582    5.6053    3.8187 C   0  0  0  0  0  0  0  0  0  0  0  0
    0.2610    7.2206    4.2878 C   0  0  0  0  0  0  0  0  0  0  0  0
    1.6105    8.2403    4.8435 C   0  0  0  0  0  0  0  0  0  0  0  0
    2.6952    7.4918    4.4812 C   0  0  0  0  0  0  0  0  0  0  0  0
    4.0174    7.9109    4.8147 C   0  0  0  0  0  0  0  0  0  0  0  0
    4.3103    9.0920    5.4927 C   0  0  0  0  0  0  0  0  0  0  0  0
    3.3373   10.0117    5.7347 C   0  0  0  0  0  0  0  0  0  0  0  0
    1.9292    9.5806    5.4751 C   0  0  0  0  0  0  0  0  0  0  0  0
    4.0203   11.1924    6.1194 O   0  0  0  0  0  0  0  0  0  0  0  0
    5.3261   10.6657    6.5897 C   0  0  0  0  0  0  0  0  0  0  0  0
    5.5683    9.4154    5.9264 O   0  0  0  0  0  0  0  0  0  0  0  0
   -0.9965    1.3167    0.6170 O   0  0  0  0  0  0  0  0  0  0  0  0
   -2.0109    2.1608    1.1481 C   0  0  0  0  0  0  0  0  0  0  0  0
    2.4909    2.2280    0.5665 O   0  0  0  0  0  0  0  0  0  0  0  0
    3.4915    2.9369    1.3004 C   0  0  0  0  0  0  0  0  0  0  0  0
  1  2  2  0
  1  6  1  0
  2  3  1  0
  2 10  1  0
  3  4  2  0
  3  7  1  0
  4  5  1  0
  5  6  2  0
  5 23  1  0
  6 21  1  0
  7  8  2  0
  8  9  1  0
  9 10  2  0
  9 13  1  0
 10 11  1  0
 11 12  1  0
 12 13  2  0
 12 17  1  0
 13 14  1  0
 14 15  2  0
 15 16  1  0
 15 20  1  0
 16 17  2  0
 16 18  1  0
 18 19  1  0
 19 20  1  0
 21 22  1  0
 23 24  1  0
M  CHG  1   8   1
M  END
>  <DRUGBANK_ID>  (1) 
DB07354

>  <COMMON_NAME>  (1) 
2,3-DIMETHOXY-12H-[1,3]DIOXOLO[5,6]INDENO[1,2-C]ISOQUINOLIN-6-IUM

$$$$
