INC
     RDKit          3D

 14 13  0  0  0  0  0  0  0  0999 V2000
    0.8262   -5.2106    1.7350 C   0  0  0  0  0  0  0  0  0  0  0  0
    0.1927   -4.2939    0.7330 C   0  0  0  0  0  0  0  0  0  0  0  0
   -0.3222   -3.2550    1.1520 O   0  0  0  0  0  0  0  0  0  0  0  0
    0.3345   -4.6030   -0.6039 N   0  0  0  0  0  0  0  0  0  0  0  0
    0.8423   -5.8479   -1.0382 O   0  0  0  0  0  0  0  0  0  0  0  0
    0.2261   -3.6038   -1.7096 C   0  0  2  0  0  0  0  0  0  0  0  0
    1.0035   -2.2631   -1.4875 C   0  0  0  0  0  0  0  0  0  0  0  0
    2.1074   -2.3685   -0.4150 C   0  0  0  0  0  0  0  0  0  0  0  0
    3.0590   -3.5349   -0.6762 C   0  0  0  0  0  0  0  0  0  0  0  0
    2.9428   -1.1264   -0.1935 C   0  0  0  0  0  0  0  0  0  0  0  0
   -1.2751   -3.4507   -1.9366 C   0  0  0  0  0  0  0  0  0  0  0  0
   -1.8606   -3.7787   -2.9491 O   0  0  0  0  0  0  0  0  0  0  0  0
   -1.8681   -2.9750   -0.8105 O   0  0  0  0  0  0  0  0  0  0  0  0
   -3.2783   -3.0920   -0.7342 C   0  0  0  0  0  0  0  0  0  0  0  0
  1  2  1  0
  2  3  2  0
  2  4  1  0
  4  5  1  0
  6 11  1  0
  6  7  1  1
  6  4  1  0
  7  8  1  0
  8  9  1  0
  8 10  1  0
 11 12  2  0
 11 13  1  0
 13 14  1  0
M  END
>  <DRUGBANK_ID>  (1) 
DB07989

>  <COMMON_NAME>  (1) 
2-(ACETYL-HYDROXY-AMINO)-4-METHYL-PENTANOIC ACID METHYL ESTER

$$$$
