
     RDKit          3D

 23 23  0  0  0  0  0  0  0  0999 V2000
    0.9664   -0.0483   -0.0808 C   0  0  0  0  0  0  0  0  0  0  0  0
    0.4598   -1.2596    0.6850 C   0  0  0  0  0  0  0  0  0  0  0  0
    0.9498   -1.2038    2.0698 N   0  0  0  0  0  0  0  0  0  0  0  0
    0.4598    0.0233    2.7140 C   0  0  0  0  0  0  0  0  0  0  0  0
    0.4598   -2.3752    2.8105 C   0  0  0  0  0  0  0  0  0  0  0  0
    0.9664   -3.6441    2.1445 C   0  0  0  0  0  0  0  0  0  0  0  0
    2.4198   -1.2038    2.0698 C   0  0  0  0  0  0  0  0  0  0  0  0
    2.9264   -2.4727    1.4038 C   0  0  0  0  0  0  0  0  0  0  0  0
    2.4531   -2.5266    0.0661 O   0  0  0  0  0  0  0  0  0  0  0  0
    1.0331   -2.5266    0.0661 C   0  0  0  0  0  0  0  0  0  0  0  0
    0.5264   -3.7378    0.8320 C   0  0  0  0  0  0  0  0  0  0  0  0
    0.7359   -4.9296    0.2851 C   0  0  0  0  0  0  0  0  0  0  0  0
    0.5902   -6.0757    1.0287 C   0  0  0  0  0  0  0  0  0  0  0  0
    0.1393   -6.0246    2.3185 C   0  0  0  0  0  0  0  0  0  0  0  0
    0.0138   -4.8220    2.8495 C   0  0  0  0  0  0  0  0  0  0  0  0
    0.0090   -3.6151    2.1110 C   0  0  0  0  0  0  0  0  0  0  0  0
    0.5264   -1.2577    0.7321 C   0  0  0  0  0  0  0  0  0  0  0  0
    0.0212   -1.2822    1.9599 C   0  0  0  0  0  0  0  0  0  0  0  0
   -0.1634   -0.1167    2.6637 C   0  0  0  0  0  0  0  0  0  0  0  0
    0.0811    1.0989    2.0874 C   0  0  0  0  0  0  0  0  0  0  0  0
    0.6512    1.0803    0.8964 C   0  0  0  0  0  0  0  0  0  0  0  0
    0.7373   -0.0619    0.0657 C   0  0  0  0  0  0  0  0  0  0  0  0
    1.0961    0.0031    0.0274 I   0  0  0  0  0  0  0  0  0  0  0  0
  1  2  1  0
  2  3  1  0
  3  4  1  0
  3  5  1  0
  3  7  1  0
  5  6  1  0
  7  8  1  0
  8  9  1  0
  9 10  1  0
 10 11  1  0
 10 17  1  0
 11 12  2  0
 11 16  1  0
 12 13  1  0
 13 14  2  0
 14 15  1  0
 15 16  2  0
 17 18  2  0
 17 22  1  0
 18 19  1  0
 19 20  2  0
 20 21  1  0
 21 22  2  0
M  CHG  2   3   1  23  -1
M  END
>  <DRUGBANK_ID>  (1) 
DB13769

>  <COMMON_NAME>  (1) 
Emetonium iodide

>  <CAS_NUMBER>  (1) 
5982-52-5

>  <UNII>  (1) 
CW3OT0Y51W

>  <SYNONYMS>  (1) 
(2-benzhydryloxyethyl)diethyl-methylammonium iodide; Ethylbenzhydramine methyl iodide

$$$$
