
     RDKit          3D

 13 14  0  0  0  0  0  0  0  0999 V2000
   -3.3481    0.2702    0.1026 O   0  0  0  0  0  0  0  0  0  0  0  0
   -2.0060   -0.0645    0.0566 C   0  0  0  0  0  0  0  0  0  0  0  0
   -1.5848   -1.3333    0.0798 C   0  0  0  0  0  0  0  0  0  0  0  0
   -0.1533   -1.6881   -0.0029 C   0  0  0  0  0  0  0  0  0  0  0  0
    0.1850   -2.8613   -0.0817 O   0  0  0  0  0  0  0  0  0  0  0  0
    0.8340   -0.5937    0.0120 C   0  0  0  0  0  0  0  0  0  0  0  0
    2.2035   -0.8902    0.0250 C   0  0  0  0  0  0  0  0  0  0  0  0
    3.1417    0.1444    0.0332 C   0  0  0  0  0  0  0  0  0  0  0  0
    2.7172    1.4726    0.0275 C   0  0  0  0  0  0  0  0  0  0  0  0
    1.3536    1.7685    0.0142 C   0  0  0  0  0  0  0  0  0  0  0  0
    0.4098    0.7325    0.0041 C   0  0  0  0  0  0  0  0  0  0  0  0
   -1.0277    1.0634   -0.0320 C   0  0  0  0  0  0  0  0  0  0  0  0
   -1.3927    2.2285   -0.1303 O   0  0  0  0  0  0  0  0  0  0  0  0
  1  2  1  0
  2  3  2  0
  2 12  1  0
  3  4  1  0
  4  5  2  0
  4  6  1  0
  6  7  1  0
  6 11  2  0
  7  8  2  0
  8  9  1  0
  9 10  2  0
 10 11  1  0
 11 12  1  0
 12 13  2  0
M  END
>  <DRUGBANK_ID>  (1) 
DB04744

>  <COMMON_NAME>  (1) 
Lawsone

>  <CAS_NUMBER>  (1) 
83-72-7

>  <UNII>  (1) 
TLH4A6LV1W

>  <SYNONYMS>  (1) 
2-hydroxy-1,4-naphthalenedione; 2-hydroxy-1,4-naphthoquinone; 2-hydroxynaphthoquinone; Lawsone

$$$$
