2TY
     RDKit          3D

 23 24  0  0  0  0  0  0  0  0999 V2000
    0.9732    0.0617   -0.3746 N   0  0  0  0  0  0  0  0  0  0  0  0
    0.3929   -1.2668   -0.6811 C   0  0  1  0  0  0  0  0  0  0  0  0
    0.9173   -2.4442    0.1863 C   0  0  0  0  0  0  0  0  0  0  0  0
   -1.1485   -1.2364   -0.7264 C   0  0  0  0  0  0  0  0  0  0  0  0
   -1.8340   -1.3670   -1.7217 O   0  0  0  0  0  0  0  0  0  0  0  0
    0.4853   -2.4939    1.6419 C   0  0  0  0  0  0  0  0  0  0  0  0
    0.1434   -3.6659    2.3100 C   0  0  0  0  0  0  0  0  0  0  0  0
    0.2729   -4.9076    1.7574 O   0  0  0  0  0  0  0  0  0  0  0  0
   -0.3613   -3.6106    3.6128 C   0  0  0  0  0  0  0  0  0  0  0  0
    0.3885   -1.2950    2.3781 C   0  0  0  0  0  0  0  0  0  0  0  0
   -0.1880   -1.1732    3.6388 C   0  0  0  0  0  0  0  0  0  0  0  0
   -0.3902    0.0709    4.3088 N   0  0  0  0  0  0  0  0  0  0  0  0
   -0.5453   -2.3757    4.2487 C   0  0  0  0  0  0  0  0  0  0  0  0
   -1.0631   -2.3605    5.5167 O   0  0  0  0  0  0  0  0  0  0  0  0
    0.9741    3.3033    4.3864 C   0  0  0  0  0  0  0  0  0  0  0  0
    1.8478    3.1518    5.4706 C   0  0  0  0  0  0  0  0  0  0  0  0
    3.0890    3.7908    5.4776 C   0  0  0  0  0  0  0  0  0  0  0  0
    3.4843    4.5623    4.3869 C   0  0  0  0  0  0  0  0  0  0  0  0
    2.6384    4.6953    3.2878 C   0  0  0  0  0  0  0  0  0  0  0  0
    1.3726    4.1028    3.3028 C   0  0  0  0  0  0  0  0  0  0  0  0
   -0.3342    2.5451    4.3640 C   0  0  0  0  0  0  0  0  0  0  0  0
   -0.1631    1.1980    3.6990 C   0  0  0  0  0  0  0  0  0  0  0  0
   -1.7316   -1.0633    0.4802 O   0  0  0  0  0  0  0  0  0  0  0  0
  2  1  1  1
  2  3  1  0
  2  4  1  0
  3  6  1  0
  4  5  2  0
  4 23  1  0
  6  7  2  0
  6 10  1  0
  7  8  1  0
  7  9  1  0
  9 13  2  0
 10 11  2  0
 11 12  1  0
 11 13  1  0
 12 22  2  0
 13 14  1  0
 15 16  2  0
 15 20  1  0
 15 21  1  0
 16 17  1  0
 17 18  2  0
 18 19  1  0
 19 20  2  0
 21 22  1  0
M  END
>  <DRUGBANK_ID>  (1) 
DB06988

>  <COMMON_NAME>  (1) 
2-HYDROXY-5-{[(1E)-2-PHENYLETHYLIDENE]AMINO}-L-TYROSINE

$$$$
