2PU
     RDKit          3D

 27 31  0  0  0  0  0  0  0  0999 V2000
   -0.4270    0.4691    0.2979 C   0  0  0  0  0  0  0  0  0  0  0  0
    1.0329    0.4675    0.5263 C   0  0  1  0  0  0  0  0  0  0  0  0
   -0.8006   -0.8661    0.0285 C   0  0  0  0  0  0  0  0  0  0  0  0
   -1.3241    1.5410    0.3060 C   0  0  0  0  0  0  0  0  0  0  0  0
    1.4728   -0.8456    0.2163 N   0  0  0  0  0  0  0  0  0  0  0  0
    1.8490    1.3029   -0.4291 C   0  0  0  0  0  0  0  0  0  0  0  0
    0.4350   -1.7197    0.0144 C   0  0  0  0  0  0  0  0  0  0  0  0
   -2.1059   -1.2029   -0.2573 C   0  0  0  0  0  0  0  0  0  0  0  0
   -2.6551    1.1932   -0.0002 C   0  0  0  0  0  0  0  0  0  0  0  0
   -0.9444    2.9275    0.5381 N   0  0  0  0  0  0  0  0  0  0  0  0
    2.9052   -0.8362    0.0101 C   0  0  0  0  0  0  0  0  0  0  0  0
    3.1451    0.5365   -0.6367 C   0  0  0  0  0  0  0  0  0  0  0  0
    0.4735   -2.9099   -0.1888 O   0  0  0  0  0  0  0  0  0  0  0  0
   -3.0394   -0.1575   -0.2647 C   0  0  0  0  0  0  0  0  0  0  0  0
    0.2247    3.3415    1.1905 C   0  0  0  0  0  0  0  0  0  0  0  0
    0.6630    4.6420    0.9510 N   0  0  0  0  0  0  0  0  0  0  0  0
    0.8751    2.6010    1.9214 O   0  0  0  0  0  0  0  0  0  0  0  0
    2.0148    4.9230    1.2837 C   0  0  0  0  0  0  0  0  0  0  0  0
    3.1472    4.4059    0.6062 C   0  0  0  0  0  0  0  0  0  0  0  0
    2.4179    5.8063    2.2079 N   0  0  0  0  0  0  0  0  0  0  0  0
    4.2802    4.9185    1.1996 C   0  0  0  0  0  0  0  0  0  0  0  0
    3.7838    5.7097    2.2044 N   0  0  0  0  0  0  0  0  0  0  0  0
    5.7264    4.7660    0.8249 C   0  0  2  0  0  0  0  0  0  0  0  0
    5.9892    5.2463   -0.6090 C   0  0  0  0  0  0  0  0  0  0  0  0
    6.1383    3.3510    0.8126 N   0  0  0  0  0  0  0  0  0  0  0  0
    6.9669    4.2551   -1.2232 C   0  0  0  0  0  0  0  0  0  0  0  0
    7.2678    3.2609   -0.1210 C   0  0  0  0  0  0  0  0  0  0  0  0
  1  2  1  0
  1  3  2  0
  1  4  1  0
  2  5  1  0
  2  6  1  6
  3  7  1  0
  3  8  1  0
  4  9  2  0
  4 10  1  0
  5  7  1  0
  5 11  1  0
  6 12  1  0
  7 13  2  0
  8 14  2  0
  9 14  1  0
 10 15  1  0
 11 12  1  0
 15 16  1  0
 15 17  2  0
 16 18  1  0
 18 19  1  0
 18 20  2  0
 19 21  2  0
 20 22  1  0
 21 22  1  0
 23 21  1  6
 23 24  1  0
 23 25  1  0
 24 26  1  0
 25 27  1  0
 26 27  1  0
M  END
>  <DRUGBANK_ID>  (1) 
DB06976

>  <COMMON_NAME>  (1) 
1-(5-OXO-2,3,5,9B-TETRAHYDRO-1H-PYRROLO[2,1-A]ISOINDOL-9-YL)-3-(5-PYRROLIDIN-2-YL-1H-PYRAZOL-3-YL)-UREA

$$$$
