
     RDKit          3D

 29 33  0  0  0  0  0  0  0  0999 V2000
   -1.8493   -0.7759    1.2949 C   0  0  0  0  0  0  0  0  0  0  0  0
   -1.1490   -1.7810    0.3879 C   0  0  0  0  0  0  0  0  0  0  0  0
   -2.6756   -0.0121    0.2623 C   0  0  0  0  0  0  0  0  0  0  0  0
   -0.6562   -0.9078   -0.7875 C   0  0  1  0  0  0  0  0  0  0  0  0
   -1.6281    0.3540   -0.7795 C   0  0  2  0  0  0  0  0  0  0  0  0
    0.6263   -0.2484   -0.5186 C   0  0  0  0  0  0  0  0  0  0  0  0
    0.4723    1.0036   -0.0404 N   0  0  0  0  0  0  0  0  0  0  0  0
   -0.8324    1.5685   -0.2599 C   0  0  0  0  0  0  0  0  0  0  0  0
    1.8731   -0.3817   -0.9265 N   0  0  0  0  0  0  0  0  0  0  0  0
    2.4808    0.8564   -0.6840 N   0  0  0  0  0  0  0  0  0  0  0  0
    1.6543    1.6194    0.0263 C   0  0  0  0  0  0  0  0  0  0  0  0
    1.8591    2.8919    0.7904 C   0  0  0  0  0  0  0  0  0  0  0  0
    2.3597    2.7359    2.2664 C   0  0  0  0  0  0  0  0  0  0  0  0
    3.7592    2.3218    2.4959 N   0  0  0  0  0  0  0  0  0  0  0  0
    4.3130    1.4898    1.4060 C   0  0  0  0  0  0  0  0  0  0  0  0
    3.9872    1.5814    3.7774 C   0  0  0  0  0  0  0  0  0  0  0  0
    3.7748    0.0391    1.4209 C   0  0  0  0  0  0  0  0  0  0  0  0
    3.5050    0.0889    3.8291 C   0  0  0  0  0  0  0  0  0  0  0  0
    4.0873   -0.5916    2.6819 N   0  0  0  0  0  0  0  0  0  0  0  0
    4.6910   -1.8114    2.6274 C   0  0  0  0  0  0  0  0  0  0  0  0
    5.9188   -1.8981    1.9593 C   0  0  0  0  0  0  0  0  0  0  0  0
    4.1702   -2.9607    3.2095 C   0  0  0  0  0  0  0  0  0  0  0  0
    6.6956   -3.0527    1.9902 C   0  0  0  0  0  0  0  0  0  0  0  0
    4.9278   -4.1336    3.2468 C   0  0  0  0  0  0  0  0  0  0  0  0
    6.1907   -4.1756    2.6512 C   0  0  0  0  0  0  0  0  0  0  0  0
    8.0820   -3.0305    1.4148 C   0  0  0  0  0  0  0  0  0  0  0  0
    9.0283   -3.2551    2.3694 F   0  0  0  0  0  0  0  0  0  0  0  0
    8.2781   -3.9793    0.4599 F   0  0  0  0  0  0  0  0  0  0  0  0
    8.4219   -1.8428    0.8362 F   0  0  0  0  0  0  0  0  0  0  0  0
  1  2  1  0
  1  3  1  0
  4  2  1  1
  5  3  1  1
  4  6  1  0
  4  5  1  0
  5  8  1  0
  6  9  2  0
  6  7  1  0
  7  8  1  0
  7 11  1  0
  9 10  1  0
 10 11  2  0
 11 12  1  0
 12 13  1  0
 13 14  1  0
 14 15  1  0
 14 16  1  0
 15 17  1  0
 16 18  1  0
 17 19  1  0
 18 19  1  0
 19 20  1  0
 20 21  2  0
 20 22  1  0
 21 23  1  0
 22 24  2  0
 23 25  2  0
 23 26  1  0
 24 25  1  0
 26 27  1  0
 26 28  1  0
 26 29  1  0
M  END
>  <DRUGBANK_ID>  (1) 
DB09195

>  <COMMON_NAME>  (1) 
Lorpiprazole

>  <CAS_NUMBER>  (1) 
108785-69-9

>  <UNII>  (1) 
0M14O7T47Q

>  <SYNONYMS>  (1) 
Lorpiprazole

$$$$
