
     RDKit          3D

 30 33  0  0  1  0  0  0  0  0999 V2000
    0.9181    0.0137   -0.0827 C   0  0  0  0  0  0  0  0  0  0  0  0
    0.3805   -0.5139    1.2461 C   0  0  0  0  0  0  0  0  0  0  0  0
    0.8399    0.3377    2.4396 C   0  0  1  0  0  0  0  0  0  0  0  0
    0.4333    1.7772    2.3424 C   0  0  0  0  0  0  0  0  0  0  0  0
    1.0964    2.8479    2.7283 N   0  0  0  0  0  0  0  0  0  0  0  0
    0.2929    3.8586    2.2720 C   0  0  0  0  0  0  0  0  0  0  0  0
   -0.8121    3.4600    1.6305 N   0  0  0  0  0  0  0  0  0  0  0  0
   -0.7346    2.0682    1.6973 O   0  0  0  0  0  0  0  0  0  0  0  0
    0.6487    5.2774    2.4463 C   0  0  0  0  0  0  0  0  0  0  0  0
    0.4743   -0.3288    3.6967 N   0  0  0  0  0  0  0  0  0  0  0  0
    1.3842   -0.6932    4.6802 C   0  0  0  0  0  0  0  0  0  0  0  0
    2.4361    0.1029    4.9722 C   0  0  0  0  0  0  0  0  0  0  0  0
    3.4178   -0.3870    5.9661 C   0  0  0  0  0  0  0  0  0  0  0  0
    3.3414   -1.5201    6.5985 N   0  0  0  0  0  0  0  0  0  0  0  0
    2.2468   -2.3056    6.3244 C   0  0  0  0  0  0  0  0  0  0  0  0
    1.2623   -1.9186    5.3920 N   0  0  0  0  0  0  0  0  0  0  0  0
    0.2803   -2.8713    5.2676 N   0  0  0  0  0  0  0  0  0  0  0  0
    0.6407   -3.8419    6.1162 C   0  0  0  0  0  0  0  0  0  0  0  0
    1.8595   -3.5465    6.7823 C   0  0  0  0  0  0  0  0  0  0  0  0
    2.5955   -4.4162    7.6828 C   0  0  0  0  0  0  0  0  0  0  0  0
    2.6277   -4.1265    9.0523 C   0  0  0  0  0  0  0  0  0  0  0  0
    2.9972   -5.1198    9.9678 C   0  0  0  0  0  0  0  0  0  0  0  0
    3.5412   -6.3250    9.5222 C   0  0  0  0  0  0  0  0  0  0  0  0
    3.6105   -6.5692    8.1525 C   0  0  0  0  0  0  0  0  0  0  0  0
    3.0830   -5.6562    7.2271 C   0  0  0  0  0  0  0  0  0  0  0  0
    3.0098   -6.1084    5.7929 C   0  0  0  0  0  0  0  0  0  0  0  0
    3.9708   -7.1920   10.4916 O   0  0  0  0  0  0  0  0  0  0  0  0
    4.7114   -8.3200   10.0280 C   0  0  0  0  0  0  0  0  0  0  0  0
   -0.1606   -5.0920    6.2733 C   0  0  0  0  0  0  0  0  0  0  0  0
    4.5893    0.5272    6.2237 C   0  0  0  0  0  0  0  0  0  0  0  0
  1  2  1  0
  3  2  1  6
  3  4  1  0
  3 10  1  0
  4  5  2  0
  4  8  1  0
  5  6  1  0
  6  7  2  0
  6  9  1  0
  7  8  1  0
 10 11  1  0
 11 12  2  0
 11 16  1  0
 12 13  1  0
 13 14  2  0
 13 30  1  0
 14 15  1  0
 15 16  1  0
 15 19  2  0
 16 17  1  0
 17 18  2  0
 18 19  1  0
 18 29  1  0
 19 20  1  0
 20 21  2  0
 20 25  1  0
 21 22  1  0
 22 23  2  0
 23 24  1  0
 23 27  1  0
 24 25  2  0
 25 26  1  0
 27 28  1  0
M  END
>  <DRUGBANK_ID>  (1) 
DB12512

>  <COMMON_NAME>  (1) 
Verucerfont

>  <CAS_NUMBER>  (1) 
885220-61-1

>  <UNII>  (1) 
X60608B091

>  <SYNONYMS>  (1) 
Verucerfont

$$$$
