EPL
     RDKit          3D

 17 17  0  0  0  0  0  0  0  0999 V2000
    1.0640   -0.0752    0.0158 O   0  0  0  0  0  0  0  0  0  0  0  0
    2.6124   -0.0752    0.0158 P   0  0  0  0  0  0  0  0  0  0  0  0
    2.7336    0.0079   -1.6415 O   0  0  0  0  0  0  0  0  0  0  0  0
    2.5996   -1.2497   -2.3141 C   0  0  0  0  0  0  0  0  0  0  0  0
    3.8064   -2.1330   -2.0814 C   0  0  0  0  0  0  0  0  0  0  0  0
    2.6569    1.5410    0.4596 O   0  0  0  0  0  0  0  0  0  0  0  0
    1.4083    2.0801    0.9647 C   0  0  0  0  0  0  0  0  0  0  0  0
    0.4968    2.4593   -0.2089 C   0  0  0  0  0  0  0  0  0  0  0  0
    4.3424   -0.0752    0.0158 O   0  0  0  0  0  0  0  0  0  0  0  0
    5.0089   -0.9437    0.8707 C   0  0  0  0  0  0  0  0  0  0  0  0
    6.2587   -0.5493    1.3554 C   0  0  0  0  0  0  0  0  0  0  0  0
    7.1071   -1.4942    1.9613 C   0  0  0  0  0  0  0  0  0  0  0  0
    6.7352   -2.8342    2.0744 C   0  0  0  0  0  0  0  0  0  0  0  0
    7.6445   -3.6866    2.6383 O   0  0  0  0  0  0  0  0  0  0  0  0
    7.2078   -5.0295    2.8541 C   0  0  0  0  0  0  0  0  0  0  0  0
    5.4700   -3.2101    1.6253 C   0  0  0  0  0  0  0  0  0  0  0  0
    4.5890   -2.2495    1.1183 C   0  0  0  0  0  0  0  0  0  0  0  0
  1  2  2  0
  2  3  1  0
  2  6  1  0
  2  9  1  0
  3  4  1  0
  4  5  1  0
  6  7  1  0
  7  8  1  0
  9 10  1  0
 10 17  2  0
 10 11  1  0
 11 12  2  0
 12 13  1  0
 13 16  2  0
 13 14  1  0
 14 15  1  0
 16 17  1  0
M  END
>  <DRUGBANK_ID>  (1) 
DB07721

>  <COMMON_NAME>  (1) 
DIETHYL 4-METHOXYPHENYL PHOSPHATE

$$$$
