
     RDKit          3D

 21 22  0  0  0  0  0  0  0  0999 V2000
   -1.2044   -0.0152   -0.1087 S   0  0  0  0  0  0  0  0  0  0  0  0
   -0.6912   -4.9967   -0.7074 S   0  0  0  0  0  0  0  0  0  0  0  0
    2.2539    2.9750    0.0095 O   0  0  0  0  0  0  0  0  0  0  0  0
    3.6268    1.2340   -0.1620 N   0  0  0  0  0  0  0  0  0  0  0  0
    7.0521   -2.1821   -0.1728 N   0  0  0  0  0  0  0  0  0  0  0  0
    1.2689   -0.5570    0.1230 N   0  0  0  0  0  0  0  0  0  0  0  0
    0.5563   -3.4544    0.9418 N   0  0  0  0  0  0  0  0  0  0  0  0
    4.8967   -2.8593    0.5620 N   0  0  0  0  0  0  0  0  0  0  0  0
    6.2629   -4.3531   -0.1704 N   0  0  0  0  0  0  0  0  0  0  0  0
    4.7493   -0.5530   -1.4097 C   0  0  0  0  0  0  0  0  0  0  0  0
    6.2048   -0.1367   -1.3128 C   0  0  0  0  0  0  0  0  0  0  0  0
    3.9915   -0.1390   -0.1568 C   0  0  0  0  0  0  0  0  0  0  0  0
    6.9166   -0.7208   -0.0739 C   0  0  0  0  0  0  0  0  0  0  0  0
    2.3696    1.7370   -0.0323 C   0  0  0  0  0  0  0  0  0  0  0  0
    1.2026    0.8359    0.0180 C   0  0  0  0  0  0  0  0  0  0  0  0
    0.0939   -1.1278    0.0161 C   0  0  0  0  0  0  0  0  0  0  0  0
   -0.0969    1.2953   -0.0116 C   0  0  0  0  0  0  0  0  0  0  0  0
    6.1364   -3.0374    0.0726 C   0  0  0  0  0  0  0  0  0  0  0  0
   -0.0558   -2.6312   -0.0006 C   0  0  0  0  0  0  0  0  0  0  0  0
   -0.7372   -3.3042   -0.9966 C   0  0  0  0  0  0  0  0  0  0  0  0
    0.2260   -4.7079    0.7131 C   0  0  0  0  0  0  0  0  0  0  0  0
  1 16  1  0
  1 17  1  0
  2 20  1  0
  2 21  1  0
  3 14  2  0
  4 12  1  0
  4 14  1  0
  5 13  1  0
  5 18  2  3
  6 15  1  0
  6 16  2  0
  7 19  1  0
  7 21  2  0
  8 18  1  0
  9 18  1  0
 10 11  1  0
 10 12  1  0
 11 13  1  0
 14 15  1  0
 15 17  2  0
 16 19  1  0
 19 20  2  0
M  END
>  <DRUGBANK_ID>  (1) 
DB07499

>  <COMMON_NAME>  (1) 
N-(4-{[amino(imino)methyl]amino}butyl)-2,4'-bi-1,3-thiazole-4-carboxamide

$$$$
