
     RDKit          3D

 42 44  0  0  1  0  0  0  0  0999 V2000
  -11.2296  -13.9123    0.3053 C   0  0  0  0  0  0  0  0  0  0  0  0
  -10.6798  -12.5626    0.7371 C   0  0  0  0  0  0  0  0  0  0  0  0
  -10.1720  -12.6305    2.1784 C   0  0  0  0  0  0  0  0  0  0  0  0
   -9.0457  -13.6601    2.3235 C   0  0  0  0  0  0  0  0  0  0  0  0
   -7.8730  -13.3162    1.3963 C   0  0  0  0  0  0  0  0  0  0  0  0
   -7.3118  -11.9284    1.7277 C   0  0  0  0  0  0  0  0  0  0  0  0
   -6.8117  -11.8938    3.1625 C   0  0  0  0  0  0  0  0  0  0  0  0
   -5.7083  -12.9216    3.3503 C   0  0  0  0  0  0  0  0  0  0  0  0
   -4.5246  -12.7467    2.4072 C   0  0  0  0  0  0  0  0  0  0  0  0
   -3.8440  -11.4814    2.7460 C   0  0  0  0  0  0  0  0  0  0  0  0
   -2.5638  -11.4393    3.1133 C   0  0  0  0  0  0  0  0  0  0  0  0
   -1.9880  -10.1585    3.3397 C   0  0  0  0  0  0  0  0  0  0  0  0
   -0.7717   -9.7905    3.6561 C   0  0  0  0  0  0  0  0  0  0  0  0
   -0.2709   -8.3829    3.6700 C   0  0  0  0  0  0  0  0  0  0  0  0
    0.9244   -8.2153    3.8690 O   0  0  0  0  0  0  0  0  0  0  0  0
   -1.1087   -7.2822    3.5864 N   0  0  0  0  0  0  0  0  0  0  0  0
   -2.5819   -7.0850    3.6757 C   0  0  0  0  0  0  0  0  0  0  0  0
   -3.5012   -6.7515    4.9158 C   0  0  0  0  0  0  0  0  0  0  0  0
   -4.3110   -5.8199    4.8132 O   0  0  0  0  0  0  0  0  0  0  0  0
   -3.5668   -7.4416    6.1172 N   0  0  0  0  0  0  0  0  0  0  0  0
   -3.1186   -8.7959    6.5739 C   0  0  2  0  0  0  0  0  0  0  0  0
   -4.3214   -9.5023    7.2718 C   0  0  1  0  0  0  0  0  0  0  0  0
   -5.4486   -9.4783    6.3784 O   0  0  0  0  0  0  0  0  0  0  0  0
   -3.9554  -10.9549    7.5558 C   0  0  1  0  0  0  0  0  0  0  0  0
   -3.8115  -11.4474    6.2043 O   0  0  0  0  0  0  0  0  0  0  0  0
   -2.6718  -11.0570    8.4426 C   0  0  1  0  0  0  0  0  0  0  0  0
   -2.1470  -12.4171    8.6716 N   0  0  0  0  0  0  0  0  0  0  0  0
   -1.9180  -13.1156    7.4709 C   0  0  0  0  0  0  0  0  0  0  0  0
   -2.9282  -13.8547    6.8117 C   0  0  0  0  0  0  0  0  0  0  0  0
   -4.2535  -14.1059    7.1361 N   0  0  0  0  0  0  0  0  0  0  0  0
   -4.7961  -14.5157    6.0088 C   0  0  0  0  0  0  0  0  0  0  0  0
   -3.8590  -14.6614    5.0168 N   0  0  0  0  0  0  0  0  0  0  0  0
   -2.6733  -14.1905    5.4939 C   0  0  0  0  0  0  0  0  0  0  0  0
   -1.5504  -13.9875    4.7923 N   0  0  0  0  0  0  0  0  0  0  0  0
   -0.6299  -13.3461    5.5345 C   0  0  0  0  0  0  0  0  0  0  0  0
   -0.7632  -12.8833    6.7924 N   0  0  0  0  0  0  0  0  0  0  0  0
   -1.6272  -10.2726    7.9039 O   0  0  0  0  0  0  0  0  0  0  0  0
   -1.9413   -8.8956    7.6341 C   0  0  1  0  0  0  0  0  0  0  0  0
   -0.5638   -8.2806    7.3008 C   0  0  1  0  0  0  0  0  0  0  0  0
    0.3275   -9.2752    6.7727 O   0  0  0  0  0  0  0  0  0  0  0  0
   -0.6990   -7.2205    6.2742 C   0  0  0  0  0  0  0  0  0  0  0  0
   -1.4013   -6.0595    6.6508 O   0  0  0  0  0  0  0  0  0  0  0  0
  1  2  1  0
  2  3  1  0
  3  4  1  0
  4  5  1  0
  5  6  1  0
  6  7  1  0
  7  8  1  0
  8  9  1  0
  9 10  1  0
 10 11  2  0
 11 12  1  0
 12 13  2  0
 13 14  1  0
 14 15  2  0
 14 16  1  0
 16 17  1  0
 17 18  1  0
 18 19  2  0
 18 20  1  0
 21 22  1  0
 21 38  1  0
 21 20  1  1
 22 23  1  6
 22 24  1  0
 24 25  1  6
 24 26  1  0
 26 37  1  0
 26 27  1  6
 27 28  1  0
 28 29  2  0
 28 36  1  0
 29 30  1  0
 29 33  1  0
 30 31  2  0
 31 32  1  0
 32 33  1  0
 33 34  2  0
 34 35  1  0
 35 36  2  0
 38 37  1  6
 38 39  1  0
 39 40  1  6
 39 41  1  0
 41 42  1  0
M  END
>  <DRUGBANK_ID>  (1) 
DB15215

>  <COMMON_NAME>  (1) 
KRN-5500

>  <CAS_NUMBER>  (1) 
151276-95-8

>  <UNII>  (1) 
8VH13L5K20

>  <SYNONYMS>  (1) 
6-[4-Deoxy-4-[(2E,4E)-tetradecadienoylglycyl]amino-L-glycero-B-L-manno-heptopyranosyl]amino-9H-purine

$$$$
