
     RDKit          3D

 10 11  0  0  0  0  0  0  0  0999 V2000
    2.4509   -0.6813    0.0077 C   0  0  0  0  0  0  0  0  0  0  0  0
    2.4110    0.7084   -0.0026 C   0  0  0  0  0  0  0  0  0  0  0  0
    1.1790    1.3697   -0.0086 C   0  0  0  0  0  0  0  0  0  0  0  0
   -0.0236    0.6752   -0.0040 C   0  0  0  0  0  0  0  0  0  0  0  0
   -1.1837    1.3565   -0.0008 N   0  0  0  0  0  0  0  0  0  0  0  0
   -2.3344    0.6481    0.0026 C   0  0  0  0  0  0  0  0  0  0  0  0
   -2.3913   -0.7327   -0.0033 C   0  0  0  0  0  0  0  0  0  0  0  0
   -1.1921   -1.4339   -0.0073 C   0  0  0  0  0  0  0  0  0  0  0  0
    0.0229   -0.7360   -0.0027 C   0  0  0  0  0  0  0  0  0  0  0  0
    1.2599   -1.4044    0.0044 C   0  0  0  0  0  0  0  0  0  0  0  0
  1  2  2  0
  1 10  1  0
  2  3  1  0
  3  4  2  0
  4  5  1  0
  4  9  1  0
  5  6  2  0
  6  7  1  0
  7  8  2  0
  8  9  1  0
  9 10  2  0
M  END
>  <DRUGBANK_ID>  (1) 
DB18050

>  <COMMON_NAME>  (1) 
Quinoline

>  <CAS_NUMBER>  (1) 
91-22-5

>  <UNII>  (1) 
E66400VT9R

>  <SYNONYMS>  (1) 
1-azanaphthalene; 1-benzazine; 2,3-benzopyridine; Benzo(b)pyridine; Chinoleine; Leucol; Leukol

$$$$
