689
     RDKit          3D

 21 23  0  0  0  0  0  0  0  0999 V2000
   -1.1827   -0.8526   -0.1158 C   0  0  0  0  0  0  0  0  0  0  0  0
    0.2967   -0.3553   -0.3984 C   0  0  1  0  0  0  0  0  0  0  0  0
    1.7606    0.5658    0.5426 C   0  0  1  0  0  0  0  0  0  0  0  0
    3.2621   -0.1893    0.8402 C   0  0  0  0  0  0  0  0  0  0  0  0
    4.7307    0.1007    0.4101 C   0  0  0  0  0  0  0  0  0  0  0  0
    3.0795   -1.4463    0.9130 C   0  0  0  0  0  0  0  0  0  0  0  0
    1.6572   -1.7075    0.7834 C   0  0  2  0  0  0  0  0  0  0  0  0
    1.3364   -2.6754    1.8895 C   0  0  0  0  0  0  0  0  0  0  0  0
    1.3671   -1.2109   -0.7980 C   0  0  1  0  0  0  0  0  0  0  0  0
    1.5198   -2.3509   -1.7453 C   0  0  0  0  0  0  0  0  0  0  0  0
    2.8979   -2.4007   -2.1302 O   0  0  0  0  0  0  0  0  0  0  0  0
    1.7910    0.3825   -1.6833 C   0  0  0  0  0  0  0  0  0  0  0  0
    1.0812    1.8504   -0.9511 O   0  0  0  0  0  0  0  0  0  0  0  0
    1.0051    1.7751    0.6175 C   0  0  2  0  0  0  0  0  0  0  0  0
    1.4831    2.6016    1.8308 C   0  0  0  0  0  0  0  0  0  0  0  0
    2.2000    3.7952    1.8073 C   0  0  0  0  0  0  0  0  0  0  0  0
    2.3278    4.5829    2.9826 C   0  0  0  0  0  0  0  0  0  0  0  0
    1.7736    4.1640    4.1934 C   0  0  0  0  0  0  0  0  0  0  0  0
    1.7701    4.9347    5.3199 O   0  0  0  0  0  0  0  0  0  0  0  0
    1.1839    2.9193    4.2803 C   0  0  0  0  0  0  0  0  0  0  0  0
    1.0715    2.1377    3.1218 C   0  0  0  0  0  0  0  0  0  0  0  0
  2  3  1  0
  2  9  1  0
  2  1  1  1
  3  4  1  6
  3 14  1  0
  4  6  2  0
  4  5  1  0
  6  7  1  0
  7  9  1  0
  7  8  1  6
  9 12  1  0
  9 10  1  6
 10 11  1  0
 12 13  1  0
 13 14  1  0
 14 15  1  1
 15 16  2  0
 15 21  1  0
 16 17  1  0
 17 18  2  0
 18 19  1  0
 18 20  1  0
 20 21  2  0
M  END
>  <DRUGBANK_ID>  (1) 
DB07195

>  <COMMON_NAME>  (1) 
4-[(1S,2S,5S)-5-(HYDROXYMETHYL)-6,8,9-TRIMETHYL-3-OXABICYCLO[3.3.1]NON-7-EN-2-YL]PHENOL

$$$$
