1CD
     RDKit          3D

 30 35  0  0  0  0  0  0  0  0999 V2000
   -0.8578   -0.2098    0.3299 C   0  0  0  0  0  0  0  0  0  0  0  0
   -1.0064    1.6746    2.4310 N   0  0  0  0  0  0  0  0  0  0  0  0
    0.3769    2.0970    1.3656 C   0  0  0  0  0  0  0  0  0  0  0  0
   -0.1840    2.9831    0.3004 C   0  0  2  0  0  0  0  0  0  0  0  0
   -1.5165    2.4499    0.7041 C   0  0  0  0  0  0  0  0  0  0  0  0
   -1.4457    0.9088    1.2828 C   0  0  1  0  0  0  0  0  0  0  0  0
   -1.8399    2.1497   -2.3892 C   0  0  0  0  0  0  0  0  0  0  0  0
   -0.5317    2.0954   -1.8669 C   0  0  0  0  0  0  0  0  0  0  0  0
   -2.1520    1.2199   -3.3889 C   0  0  0  0  0  0  0  0  0  0  0  0
   -2.8176    3.0665   -1.9265 N   0  0  0  0  0  0  0  0  0  0  0  0
    0.3187    1.0330   -2.1690 C   0  0  0  0  0  0  0  0  0  0  0  0
    0.0422    3.0475   -1.0858 O   0  0  0  0  0  0  0  0  0  0  0  0
   -1.2508    0.2308   -3.7716 C   0  0  0  0  0  0  0  0  0  0  0  0
   -3.4031    1.2472   -3.9989 N   0  0  0  0  0  0  0  0  0  0  0  0
   -3.9995    3.0528   -2.4790 C   0  0  0  0  0  0  0  0  0  0  0  0
   -0.1073    0.0283   -3.0180 C   0  0  0  0  0  0  0  0  0  0  0  0
   -4.3865    2.1073   -3.6019 C   0  0  0  0  0  0  0  0  0  0  0  0
   -5.0538    3.9503   -2.0053 C   0  0  0  0  0  0  0  0  0  0  0  0
   -5.4994    2.1204   -4.0895 O   0  0  0  0  0  0  0  0  0  0  0  0
   -5.4875    3.8131   -0.7050 C   0  0  0  0  0  0  0  0  0  0  0  0
   -5.6225    4.9050   -2.8461 C   0  0  0  0  0  0  0  0  0  0  0  0
   -6.4788    4.6435   -0.2028 C   0  0  0  0  0  0  0  0  0  0  0  0
   -5.1401    2.7856    0.1683 N   0  0  0  0  0  0  0  0  0  0  0  0
   -6.6454    5.7317   -2.3617 C   0  0  0  0  0  0  0  0  0  0  0  0
   -6.5145    4.2069    1.2295 C   0  0  0  0  0  0  0  0  0  0  0  0
   -7.0875    5.6130   -1.0232 C   0  0  0  0  0  0  0  0  0  0  0  0
   -5.4244    3.2731    1.4231 N   0  0  0  0  0  0  0  0  0  0  0  0
   -4.6800    2.3722    2.5265 C   0  0  0  0  0  0  0  0  0  0  0  0
   -7.3825    4.6974    2.0162 O   0  0  0  0  0  0  0  0  0  0  0  0
   -2.7611    2.3592    2.7905 C   0  0  0  0  0  0  0  0  0  0  0  0
  2  3  1  0
  2  6  1  0
  2 30  1  0
  3  4  1  0
  4  5  1  6
  4 12  1  0
  5  6  1  0
  6  1  1  6
  7  8  2  0
  7  9  1  0
  7 10  1  0
  8 11  1  0
  8 12  1  0
  9 13  2  0
  9 14  1  0
 10 15  2  0
 11 16  2  0
 13 16  1  0
 14 17  1  0
 15 17  1  0
 15 18  1  0
 17 19  2  0
 18 20  2  0
 18 21  1  0
 20 22  1  0
 20 23  1  0
 21 24  2  0
 22 25  1  0
 22 26  2  0
 23 27  1  0
 24 26  1  0
 25 27  1  0
 25 29  2  0
 27 28  1  0
 28 30  1  0
M  END
>  <DRUGBANK_ID>  (1) 
DB06888

>  <COMMON_NAME>  (1) 
(13R,15S)-13-METHYL-16-OXA-8,9,12,22,24-PENTAAZAHEXACYCLO[15.6.2.16,9.1,12,15.0,2,7.0,21,25]HEPTACOSA-1(24),2,4,6,17(25),18,20-HEPTAENE-23,26-DIONE

$$$$
