MDX
     RDKit          3D

 14 13  0  0  0  0  0  0  0  0999 V2000
    0.8448   -0.0599    0.0464 O   0  0  0  0  0  0  0  0  0  0  0  0
    2.0701   -0.0732    0.1145 C   0  0  0  0  0  0  0  0  0  0  0  0
    2.7220    0.7810    0.9278 O   0  0  0  0  0  0  0  0  0  0  0  0
    2.9084   -1.0565   -0.6671 C   0  0  0  0  0  0  0  0  0  0  0  0
    3.7766   -0.3969   -1.7353 C   0  0  0  0  0  0  0  0  0  0  0  0
    4.8565    0.4926   -1.1234 C   0  0  0  0  0  0  0  0  0  0  0  0
    5.7226   -0.3133   -0.1418 C   0  0  0  0  0  0  0  0  0  0  0  0
    6.4895   -1.4015   -0.8970 C   0  0  0  0  0  0  0  0  0  0  0  0
    7.3922   -0.7575   -1.9515 C   0  0  0  0  0  0  0  0  0  0  0  0
    8.3821    0.2012   -1.2799 C   0  0  0  0  0  0  0  0  0  0  0  0
    9.2768   -0.5587   -0.2945 C   0  0  0  0  0  0  0  0  0  0  0  0
   10.1087   -1.6203   -1.0216 C   0  0  0  0  0  0  0  0  0  0  0  0
   10.9930   -1.0215   -2.1162 C   0  0  0  0  0  0  0  0  0  0  0  0
   12.2415    0.1192   -1.4386 S   0  0  0  0  0  0  0  0  0  0  0  0
  1  2  2  0
  2  4  1  0
  2  3  1  0
  4  5  1  0
  5  6  1  0
  6  7  1  0
  7  8  1  0
  8  9  1  0
  9 10  1  0
 10 11  1  0
 11 12  1  0
 12 13  1  0
 13 14  1  0
M  END
>  <DRUGBANK_ID>  (1) 
DB08171

>  <COMMON_NAME>  (1) 
11-MERCAPTOUNDECANOIC ACID

$$$$
