
     RDKit          3D

 11 10  0  0  1  0  0  0  0  0999 V2000
    0.9301    0.0650    0.0254 C   0  0  0  0  0  0  0  0  0  0  0  0
    3.0299    0.5817   -2.8389 C   0  0  0  0  0  0  0  0  0  0  0  0
    0.3873    0.1292   -1.4051 C   0  0  0  0  0  0  0  0  0  0  0  0
    2.4559   -0.7418   -2.2981 C   0  0  0  0  0  0  0  0  0  0  0  0
    0.5164   -1.2711    0.6318 C   0  0  1  0  0  0  0  0  0  0  0  0
    1.0452   -1.4305    2.0560 C   0  0  0  0  0  0  0  0  0  0  0  0
    2.7966    1.7920   -2.0346 N   0  0  0  0  0  0  0  0  0  0  0  0
   -0.9645   -1.3176    0.6261 N   0  0  0  0  0  0  0  0  0  0  0  0
    0.3698   -1.5660    3.0586 O   0  0  0  0  0  0  0  0  0  0  0  0
    2.3931   -1.4502    2.1262 O   0  0  0  0  0  0  0  0  0  0  0  0
    1.0281   -0.7881   -2.2904 O   0  0  0  0  0  0  0  0  0  0  0  0
  3  1  1  0
  4  2  1  0
  5  1  1  0
  5  8  1  1
  6  5  1  0
  7  2  1  0
  9  6  2  0
 10  6  1  0
 11  3  1  0
 11  4  1  0
M  END
>  <DRUGBANK_ID>  (1) 
DB02971

>  <SECONDARY_ACCESSION_NUMBERS>  (1) 
EXPT00593

>  <COMMON_NAME>  (1) 
2-Amino-4-(2-Amino-Ethoxy)-Butyric Acid

$$$$
