
     RDKit          3D

 15 15  0  0  0  0  0  0  0  0999 V2000
    1.3850   -0.1889   -0.0143 C   0  0  0  0  0  0  0  0  0  0  0  0
    2.8895   -0.3896    0.1525 C   0  0  0  0  0  0  0  0  0  0  0  0
    3.6510    0.1012   -1.1001 C   0  0  0  0  0  0  0  0  0  0  0  0
    4.6145    1.0858   -0.9393 N   0  0  0  0  0  0  0  0  0  0  0  0
    5.3076    1.6196   -1.9909 C   0  0  0  0  0  0  0  0  0  0  0  0
    6.2192    2.5721   -1.6635 N   0  0  0  0  0  0  0  0  0  0  0  0
   -0.5276    1.3046    0.0067 C   0  0  0  0  0  0  0  0  0  0  0  0
   -1.3900    0.2117   -0.0124 C   0  0  0  0  0  0  0  0  0  0  0  0
   -0.8745   -1.0830   -0.0302 C   0  0  0  0  0  0  0  0  0  0  0  0
    0.5074   -1.2859   -0.0204 C   0  0  0  0  0  0  0  0  0  0  0  0
    0.8499    1.1071   -0.0462 C   0  0  0  0  0  0  0  0  0  0  0  0
    3.3497    0.2005    1.4992 C   0  0  0  0  0  0  0  0  0  0  0  0
    2.6034   -0.3786    2.6999 C   0  0  0  0  0  0  0  0  0  0  0  0
    3.3732   -0.4060   -2.1890 O   0  0  0  0  0  0  0  0  0  0  0  0
    5.1920    1.3342   -3.1783 O   0  0  0  0  0  0  0  0  0  0  0  0
  1 11  2  0
  1  2  1  0
  2  3  1  0
  2 12  1  0
  3  4  1  0
  3 14  2  0
  4  5  1  0
  5  6  1  0
  5 15  2  0
  7  8  2  0
  8  9  1  0
  9 10  2  0
 10  1  1  0
 11  7  1  0
 12 13  1  0
M  END
>  <DRUGBANK_ID>  (1) 
DB13362

>  <COMMON_NAME>  (1) 
Pheneturide

>  <CAS_NUMBER>  (1) 
90-49-3

>  <UNII>  (1) 
878CEJ4HGX

>  <SYNONYMS>  (1) 
Ethylphenacemide; Feneturida; Pheneturide; Pheneturidum; Phenylethylacetyluree

$$$$
