1535
     RDKit          3D

 29 31  0  0  0  0  0  0  0  0999 V2000
    0.9992   -0.0120    0.0540 O   0  0  0  0  0  0  0  0  0  0  0  0
    1.0454   -2.0488    1.0740 O   0  0  0  0  0  0  0  0  0  0  0  0
   -3.9183   -1.0472    1.3700 O   0  0  0  0  0  0  0  0  0  0  0  0
   -1.9814   -1.0515   -2.2491 N   0  0  0  0  0  0  0  0  0  0  0  0
   -1.6969   -1.0204    2.0459 N   0  0  0  0  0  0  0  0  0  0  0  0
   -1.2016   -1.0232    0.6237 C   0  0  0  0  0  0  0  0  0  0  0  0
   -1.7793   -2.2997   -0.0488 C   0  0  0  0  0  0  0  0  0  0  0  0
   -1.7015    0.2304   -0.1383 C   0  0  0  0  0  0  0  0  0  0  0  0
   -1.5841   -2.2619   -1.5362 C   0  0  0  0  0  0  0  0  0  0  0  0
   -1.4229    0.1541   -1.6355 C   0  0  0  0  0  0  0  0  0  0  0  0
   -1.5830   -1.1370   -3.6809 C   0  0  0  0  0  0  0  0  0  0  0  0
    0.3929   -1.1166    0.5862 C   0  0  0  0  0  0  0  0  0  0  0  0
   -0.7222   -0.9768    3.0800 C   0  0  0  0  0  0  0  0  0  0  0  0
   -0.0524   -1.1811   -4.0284 C   0  0  0  0  0  0  0  0  0  0  0  0
   -3.0827   -1.0502    2.2832 C   0  0  0  0  0  0  0  0  0  0  0  0
   -3.6449   -0.9922    3.6902 C   0  0  0  0  0  0  0  0  0  0  0  0
    0.6638   -2.4222   -3.5101 C   0  0  0  0  0  0  0  0  0  0  0  0
    0.1131    0.1306    3.2315 C   0  0  0  0  0  0  0  0  0  0  0  0
   -0.5364   -2.0650    3.9259 C   0  0  0  0  0  0  0  0  0  0  0  0
   -3.4596   -2.2447    4.5123 C   0  0  0  0  0  0  0  0  0  0  0  0
    2.4393    0.0034    0.0470 C   0  0  0  0  0  0  0  0  0  0  0  0
    0.9830    0.2056    4.3205 C   0  0  0  0  0  0  0  0  0  0  0  0
    0.1656   -1.9068    5.1191 C   0  0  0  0  0  0  0  0  0  0  0  0
    1.4818   -2.3359   -2.3719 C   0  0  0  0  0  0  0  0  0  0  0  0
    0.2503   -3.6872   -3.9295 C   0  0  0  0  0  0  0  0  0  0  0  0
    0.9512   -0.7786    5.3053 C   0  0  0  0  0  0  0  0  0  0  0  0
    1.7215   -3.4607   -1.5655 C   0  0  0  0  0  0  0  0  0  0  0  0
    0.4927   -4.8090   -3.1283 C   0  0  0  0  0  0  0  0  0  0  0  0
    1.2133   -4.6975   -1.9402 C   0  0  0  0  0  0  0  0  0  0  0  0
  1 12  1  0
  1 21  1  0
  2 12  2  0
  3 15  2  0
  4  9  1  0
  4 10  1  0
  4 11  1  0
  5  6  1  0
  5 13  1  0
  5 15  1  0
  6  7  1  0
  6  8  1  0
  6 12  1  0
  7  9  1  0
  8 10  1  0
 11 14  1  0
 13 18  2  0
 13 19  1  0
 14 17  1  0
 15 16  1  0
 16 20  1  0
 17 24  2  0
 17 25  1  0
 18 22  1  0
 19 23  2  0
 22 26  2  0
 23 26  1  0
 24 27  1  0
 25 28  2  0
 27 29  2  0
 28 29  1  0
M  END
>  <DRUGBANK_ID>  (1) 
DB01535

>  <COMMON_NAME>  (1) 
Carfentanil

>  <CAS_NUMBER>  (1) 
59708-52-0

>  <UNII>  (1) 
LA9DTA2L8F

>  <SYNONYMS>  (1) 
Carfentanil; carfentanila; Carfentanyl

$$$$
