
     RDKit          3D

 34 37  0  0  1  0  0  0  0  0999 V2000
    0.6017    1.6416    3.6297 C   0  0  2  0  0  0  0  0  0  0  0  0
   -1.1866    0.9876    4.3245 C   0  0  0  0  0  0  0  0  0  0  0  0
   -1.8540    1.9403    5.3597 C   0  0  0  0  0  0  0  0  0  0  0  0
   -0.4508    2.1698    5.5009 C   0  0  2  0  0  0  0  0  0  0  0  0
    0.0792    2.9981    6.4688 O   0  0  0  0  0  0  0  0  0  0  0  0
    1.3773    3.3164    6.3573 C   0  0  0  0  0  0  0  0  0  0  0  0
    1.7894    4.3208    6.9320 O   0  0  0  0  0  0  0  0  0  0  0  0
    2.2802    2.6689    5.3641 C   0  0  0  0  0  0  0  0  0  0  0  0
    2.7515    1.0714    5.3741 C   0  0  0  0  0  0  0  0  0  0  0  0
    1.6940   -0.1292    5.1590 C   0  0  0  0  0  0  0  0  0  0  0  0
    1.0558   -0.5278    3.7169 C   0  0  0  0  0  0  0  0  0  0  0  0
    1.8879   -0.6064    2.4481 C   0  0  0  0  0  0  0  0  0  0  0  0
    1.8319   -2.0488    2.5464 C   0  0  0  0  0  0  0  0  0  0  0  0
    0.2846   -2.5067    2.5314 C   0  0  0  0  0  0  0  0  0  0  0  0
   -0.4924   -2.0508    1.2719 C   0  0  0  0  0  0  0  0  0  0  0  0
    0.3212   -2.4590    0.0715 C   0  0  0  0  0  0  0  0  0  0  0  0
    0.6404   -3.9290    0.2342 C   0  0  0  0  0  0  0  0  0  0  0  0
   -0.3271    2.5492    3.7575 C   0  0  2  0  0  0  0  0  0  0  0  0
   -0.7395    1.5314    2.3669 C   0  0  0  0  0  0  0  0  0  0  0  0
   -0.2149    3.8417    3.1022 C   0  0  0  0  0  0  0  0  0  0  0  0
    0.7034    3.8775    1.6469 C   0  0  2  0  0  0  0  0  0  0  0  0
    0.2667    2.7380    0.4908 C   0  0  0  0  0  0  0  0  0  0  0  0
    2.3682    4.0140    2.0829 C   0  0  2  0  0  0  0  0  0  0  0  0
    4.0036    4.8067    1.2758 C   0  0  1  0  0  0  0  0  0  0  0  0
    5.8131    5.6341    1.4766 C   0  0  0  0  0  0  0  0  0  0  0  0
    6.9114    5.4796    0.1274 C   0  0  0  0  0  0  0  0  0  0  0  0
    6.7037    4.0560    0.2136 C   0  0  0  0  0  0  0  0  0  0  0  0
    7.3541    3.4011    1.0223 O   0  0  0  0  0  0  0  0  0  0  0  0
    5.3676    3.7719   -0.3811 C   0  0  0  0  0  0  0  0  0  0  0  0
    4.5179    3.5442    0.6346 C   0  0  0  0  0  0  0  0  0  0  0  0
    4.6517    2.2951    1.4407 C   0  0  0  0  0  0  0  0  0  0  0  0
    3.9016    2.1476    2.7870 C   0  0  1  0  0  0  0  0  0  0  0  0
    4.5961    3.1472    3.7459 C   0  0  0  0  0  0  0  0  0  0  0  0
    2.1854    2.3614    2.5470 C   0  0  1  0  0  0  0  0  0  0  0  0
  1  2  1  6
  1 18  1  0
  2  3  1  0
  4  3  1  0
  4  5  1  1
  5  6  1  0
  6  7  2  0
  6  8  1  0
  8  9  1  0
  9 10  1  0
 10 11  1  0
 11 12  1  0
 12 13  1  0
 13 14  1  0
 14 15  1  0
 15 16  1  0
 16 17  1  0
 18  4  1  0
 18 19  1  6
 18 20  1  0
 21 20  1  0
 21 22  1  1
 23 21  1  6
 23 24  1  0
 23 34  1  0
 24 25  1  1
 24 30  1  0
 25 26  1  0
 26 27  1  0
 27 28  2  0
 27 29  1  0
 29 30  2  0
 30 31  1  0
 32 31  1  0
 32 33  1  1
 34 32  1  1
 34  1  1  0
M  END
>  <DRUGBANK_ID>  (1) 
DB16141

>  <COMMON_NAME>  (1) 
Dimethandrolone Undecanoate

>  <CAS_NUMBER>  (1) 
366472-45-9

>  <UNII>  (1) 
VMT7Z23GLM

$$$$
