
     RDKit          3D

 16 16  0  0  1  0  0  0  0  0999 V2000
    0.9029    0.0102   -0.0547 C   0  0  0  0  0  0  0  0  0  0  0  0
    0.4055   -1.4066    0.0655 C   0  0  0  0  0  0  0  0  0  0  0  0
    1.1819   -2.4696   -0.4160 C   0  0  0  0  0  0  0  0  0  0  0  0
    0.7384   -3.7912   -0.2849 C   0  0  0  0  0  0  0  0  0  0  0  0
    0.4926    0.8027    0.9740 F   0  0  0  0  0  0  0  0  0  0  0  0
    0.4805    0.6205   -1.1944 F   0  0  0  0  0  0  0  0  0  0  0  0
    1.6363   -4.9478   -0.6742 C   0  0  0  0  0  0  0  0  0  0  0  0
    0.9793   -6.4206    1.2605 N   0  0  0  0  0  0  0  0  0  0  0  0
   -0.8270   -1.6702    0.6841 C   0  0  0  0  0  0  0  0  0  0  0  0
    2.1115   -5.8029    0.5380 C   0  0  1  0  0  0  0  0  0  0  0  0
   -1.2698   -2.9822    0.8257 C   0  0  0  0  0  0  0  0  0  0  0  0
   -0.5284   -4.0145    0.2746 C   0  0  0  0  0  0  0  0  0  0  0  0
    3.0903   -6.8738    0.0568 C   0  0  0  0  0  0  0  0  0  0  0  0
    2.2634    0.0931   -0.0644 F   0  0  0  0  0  0  0  0  0  0  0  0
    1.3263   -7.1836    2.4549 C   0  0  0  0  0  0  0  0  0  0  0  0
    2.0069   -6.3099    3.4967 C   0  0  0  0  0  0  0  0  0  0  0  0
  1 14  1  0
  2  1  1  0
  3  2  2  0
  4  3  1  0
  5  1  1  0
  6  1  1  0
  7  4  1  0
  8 15  1  0
  9  2  1  0
 10  7  1  0
 10  8  1  0
 11  9  2  0
 12  4  2  0
 12 11  1  0
 10 13  1  6
 15 16  1  0
M  END
>  <DRUGBANK_ID>  (1) 
DB01191

>  <SECONDARY_ACCESSION_NUMBERS>  (1) 
APRD00648

>  <COMMON_NAME>  (1) 
Dexfenfluramine

>  <CAS_NUMBER>  (1) 
3239-44-9

>  <UNII>  (1) 
E35R3G56OV

>  <SYNONYMS>  (1) 
(+)-fenfluramine; (S)-fenfluramine; (S)-N-ethyl-1-[3-(trifluoromethyl)phenyl]propan-2-amine; d-N-ethyl-Î±-methyl-m-trifluoromethylphenethylamine; Dexfenfluramina; Dexfenfluramine; Dexfenfluraminum; Dextrofenfluramine

$$$$
