3BK
     RDKit          3D

 29 32  0  0  0  0  0  0  0  0999 V2000
   -1.3533    1.3703   -0.0859 C   0  0  0  0  0  0  0  0  0  0  0  0
   -0.1284    0.6940   -0.0357 C   0  0  0  0  0  0  0  0  0  0  0  0
    1.3145    1.6451   -0.0098 Cl  0  0  0  0  0  0  0  0  0  0  0  0
   -0.1063   -0.7033    0.0027 C   0  0  0  0  0  0  0  0  0  0  0  0
    1.3646   -1.6079    0.0174 Cl  0  0  0  0  0  0  0  0  0  0  0  0
   -1.3083   -1.4153    0.0265 C   0  0  0  0  0  0  0  0  0  0  0  0
   -2.5286   -0.7393   -0.0134 C   0  0  0  0  0  0  0  0  0  0  0  0
   -2.5639    0.6576   -0.0973 C   0  0  0  0  0  0  0  0  0  0  0  0
   -3.8844    1.3809   -0.0941 C   0  0  0  0  0  0  0  0  0  0  0  0
   -4.7290    1.0526   -1.2416 N   0  0  0  0  0  0  0  0  0  0  0  0
   -5.8906    0.3687   -1.1024 C   0  0  0  0  0  0  0  0  0  0  0  0
   -6.2563   -0.6883   -1.8061 N   0  0  0  0  0  0  0  0  0  0  0  0
   -7.5375   -0.9977   -1.3817 C   0  0  0  0  0  0  0  0  0  0  0  0
   -8.4501   -2.0128   -1.7301 C   0  0  0  0  0  0  0  0  0  0  0  0
   -8.1697   -3.0032   -2.6432 N   0  0  0  0  0  0  0  0  0  0  0  0
   -9.6676   -2.0239   -1.1376 N   0  0  0  0  0  0  0  0  0  0  0  0
   -9.9528   -1.0638   -0.2347 C   0  0  0  0  0  0  0  0  0  0  0  0
   -9.1593   -0.0590    0.1886 N   0  0  0  0  0  0  0  0  0  0  0  0
   -7.9652   -0.0898   -0.4272 C   0  0  0  0  0  0  0  0  0  0  0  0
   -6.9144    0.7763   -0.2730 N   0  0  0  0  0  0  0  0  0  0  0  0
   -6.9216    1.9582    0.5505 C   0  0  2  0  0  0  0  0  0  0  0  0
   -7.0169    1.5651    1.9280 O   0  0  0  0  0  0  0  0  0  0  0  0
   -7.9013    2.4870    2.6005 C   0  0  2  0  0  0  0  0  0  0  0  0
   -9.1865    1.7620    3.0127 C   0  0  0  0  0  0  0  0  0  0  0  0
   -8.9064    0.5436    3.6931 O   0  0  0  0  0  0  0  0  0  0  0  0
   -8.1869    3.6313    1.6186 C   0  0  1  0  0  0  0  0  0  0  0  0
   -7.2529    4.7113    1.7782 O   0  0  0  0  0  0  0  0  0  0  0  0
   -7.9994    2.9876    0.2491 C   0  0  1  0  0  0  0  0  0  0  0  0
   -7.5792    3.9192   -0.7504 O   0  0  0  0  0  0  0  0  0  0  0  0
  1  2  2  0
  1  8  1  0
  2  3  1  0
  2  4  1  0
  4  5  1  0
  4  6  2  0
  6  7  1  0
  7  8  2  0
  8  9  1  0
  9 10  1  0
 10 11  1  0
 11 12  2  0
 11 20  1  0
 12 13  1  0
 13 14  2  0
 13 19  1  0
 14 15  1  0
 14 16  1  0
 16 17  2  0
 17 18  1  0
 18 19  2  0
 19 20  1  0
 21 20  1  6
 21 22  1  0
 21 28  1  0
 22 23  1  0
 23 26  1  0
 23 24  1  6
 24 25  1  0
 26 27  1  1
 26 28  1  0
 28 29  1  6
M  END
>  <DRUGBANK_ID>  (1) 
DB07045

>  <COMMON_NAME>  (1) 
(2R,3R,4S,5R)-2-[6-amino-8-[(3,4-dichlorophenyl)methylamino]purin-9-yl]-5-(hydroxymethyl)oxolane-3,4-diol

$$$$
