
     RDKit          3D

 17 18  0  0  0  0  0  0  0  0999 V2000
    0.8719   -1.1049   -0.0200 S   0  0  0  0  0  0  0  0  0  0  0  0
   -6.4292   -6.6627   -2.7917 O   0  0  0  0  0  0  0  0  0  0  0  0
   -0.4201    1.1150   -0.0139 N   0  0  0  0  0  0  0  0  0  0  0  0
   -2.4388   -2.7233   -0.9518 N   0  0  0  0  0  0  0  0  0  0  0  0
   -3.0241   -4.7590    0.1390 N   0  0  0  0  0  0  0  0  0  0  0  0
   -4.0534   -4.1039   -1.8894 N   0  0  0  0  0  0  0  0  0  0  0  0
   -5.6879   -5.4863   -2.8424 N   0  0  0  0  0  0  0  0  0  0  0  0
   -0.8487   -1.1907   -0.0281 C   0  0  0  0  0  0  0  0  0  0  0  0
   -1.3651    0.0958   -0.0367 C   0  0  0  0  0  0  0  0  0  0  0  0
   -1.5485   -2.4770    0.0343 C   0  0  0  0  0  0  0  0  0  0  0  0
    0.7944    0.6121   -0.0115 C   0  0  0  0  0  0  0  0  0  0  0  0
   -2.7992    0.4807   -0.0096 C   0  0  0  0  0  0  0  0  0  0  0  0
   -1.3653   -3.3241    1.1054 C   0  0  0  0  0  0  0  0  0  0  0  0
    2.0329    1.4444    0.0119 C   0  0  0  0  0  0  0  0  0  0  0  0
   -2.1344   -4.4610    1.1025 C   0  0  0  0  0  0  0  0  0  0  0  0
   -3.1393   -3.8681   -0.8588 C   0  0  0  0  0  0  0  0  0  0  0  0
   -4.7729   -5.1792   -1.8725 C   0  0  0  0  0  0  0  0  0  0  0  0
  1  8  1  0
  1 11  1  0
  2  7  1  0
  3  9  1  0
  3 11  2  0
  4 10  2  0
  4 16  1  0
  5 15  1  0
  5 16  2  0
  6 16  1  0
  6 17  2  0
  7 17  1  0
  8  9  2  0
  8 10  1  0
  9 12  1  0
 10 13  1  0
 11 14  1  0
 13 15  2  0
M  END
>  <DRUGBANK_ID>  (1) 
DB04101

>  <SECONDARY_ACCESSION_NUMBERS>  (1) 
EXPT00926

>  <COMMON_NAME>  (1) 
N'-[4-(2,4-Dimethyl-1,3-thiazol-5-yl)-2-pyrimidinyl]-N-hydroxyimidoformamide

$$$$
