
     RDKit          3D

 32 32  0  0  1  0  0  0  0  0999 V2000
   -8.2235  -10.3149   -7.7024 N   0  0  0  0  0  0  0  0  0  0  0  0
   -7.9877   -9.6875   -6.5995 C   0  0  0  0  0  0  0  0  0  0  0  0
   -6.8048   -9.8257   -5.9331 N   0  0  0  0  0  0  0  0  0  0  0  0
   -9.0539   -8.8284   -6.0263 C   0  0  0  0  0  0  0  0  0  0  0  0
  -10.3850   -9.2429   -6.1045 C   0  0  0  0  0  0  0  0  0  0  0  0
  -11.3914   -8.5143   -5.4743 C   0  0  0  0  0  0  0  0  0  0  0  0
  -11.0825   -7.3934   -4.7074 C   0  0  0  0  0  0  0  0  0  0  0  0
  -12.2341   -6.6275   -4.1063 C   0  0  0  0  0  0  0  0  0  0  0  0
  -12.0057   -6.2839   -2.7279 N   0  0  0  0  0  0  0  0  0  0  0  0
  -11.6841   -5.0663   -2.2183 C   0  0  0  0  0  0  0  0  0  0  0  0
  -11.6162   -4.9144   -0.9972 O   0  0  0  0  0  0  0  0  0  0  0  0
  -11.6014   -3.8663   -3.1634 C   0  0  2  0  0  0  0  0  0  0  0  0
  -13.1967   -3.3708   -3.3957 C   0  0  0  0  0  0  0  0  0  0  0  0
  -13.6262   -2.0620   -4.1486 C   0  0  0  0  0  0  0  0  0  0  0  0
  -13.1611   -1.9754   -6.2343 S   0  0  0  0  0  0  0  0  0  0  0  0
  -11.2127   -2.3976   -6.6040 C   0  0  0  0  0  0  0  0  0  0  0  0
  -10.6933   -4.1259   -4.3510 N   0  0  0  0  0  0  0  0  0  0  0  0
   -9.4425   -3.7254   -4.8669 C   0  0  0  0  0  0  0  0  0  0  0  0
   -9.1052   -4.3410   -5.8986 O   0  0  0  0  0  0  0  0  0  0  0  0
   -8.4767   -2.4381   -4.3456 C   0  0  2  0  0  0  0  0  0  0  0  0
   -8.6224   -2.6013   -2.8254 N   0  0  0  0  0  0  0  0  0  0  0  0
   -9.1264   -1.4381   -1.6864 S   0  0  0  0  0  0  0  0  0  0  0  0
   -9.2518   -2.2268   -0.4352 O   0  0  0  0  0  0  0  0  0  0  0  0
   -8.0752   -0.4748   -1.6912 O   0  0  0  0  0  0  0  0  0  0  0  0
  -11.0138   -0.6238   -2.0443 C   0  0  0  0  0  0  0  0  0  0  0  0
  -11.4594   -0.0587   -3.4276 C   0  0  0  0  0  0  0  0  0  0  0  0
  -11.1788   -1.1665   -4.2944 C   0  0  0  0  0  0  0  0  0  0  0  0
   -8.3652   -0.7843   -4.9312 C   0  0  2  0  0  0  0  0  0  0  0  0
   -8.6274    0.3999   -3.9555 C   0  0  0  0  0  0  0  0  0  0  0  0
   -8.8531   -0.4673   -6.2451 O   0  0  0  0  0  0  0  0  0  0  0  0
   -9.7284   -7.0137   -4.6107 C   0  0  0  0  0  0  0  0  0  0  0  0
   -8.7281   -7.6706   -5.3330 C   0  0  0  0  0  0  0  0  0  0  0  0
  1  2  2  0
  2  3  1  0
  2  4  1  0
  4  5  2  0
  4 32  1  0
  5  6  1  0
  6  7  2  0
  7  8  1  0
  7 31  1  0
  8  9  1  0
  9 10  1  0
 10 11  2  0
 12 17  1  0
 12 13  1  6
 12 10  1  0
 13 14  1  0
 14 15  1  0
 15 16  1  0
 17 18  1  0
 18 19  2  0
 20 21  1  1
 20 18  1  0
 21 22  1  0
 22 23  2  0
 22 24  2  0
 22 25  1  0
 25 26  1  0
 26 27  1  0
 28 30  1  0
 28 29  1  1
 28 20  1  0
 31 32  2  0
M  END
>  <DRUGBANK_ID>  (1) 
DB04767

>  <COMMON_NAME>  (1) 
N-[1-(4-CARBAMIMIDOYL-BENZYLCARBAMOYL)-3-METHYLSULFANYL-PROPYL]-3-HYDROXY-2-PROPOXYAMINO-BUTYRAMID

$$$$
