
     RDKit          3D

 35 37  0  0  1  0  0  0  0  0999 V2000
    1.1220    0.1640   -0.2422 O   0  0  0  0  0  0  0  0  0  0  0  0
    2.3409    0.1004   -0.1593 C   0  0  0  0  0  0  0  0  0  0  0  0
    3.1002   -0.4554   -1.1335 O   0  0  0  0  0  0  0  0  0  0  0  0
    3.1324    0.5557    1.0697 C   0  0  1  0  0  0  0  0  0  0  0  0
    2.7742    1.9292    1.5176 N   0  0  0  0  0  0  0  0  0  0  0  0
    2.2427    2.4701    2.6714 C   0  0  0  0  0  0  0  0  0  0  0  0
    1.8661    3.6401    2.6652 O   0  0  0  0  0  0  0  0  0  0  0  0
    2.0902    1.7084    3.9304 C   0  0  0  0  0  0  0  0  0  0  0  0
    3.1470    0.9970    4.5178 C   0  0  0  0  0  0  0  0  0  0  0  0
    2.9018    0.0005    5.4652 C   0  0  0  0  0  0  0  0  0  0  0  0
    1.6632   -0.0386    6.0790 C   0  0  0  0  0  0  0  0  0  0  0  0
    0.6636    0.8436    5.6164 C   0  0  0  0  0  0  0  0  0  0  0  0
    0.8389    1.6606    4.5138 C   0  0  0  0  0  0  0  0  0  0  0  0
    1.4150   -0.9945    7.2408 C   0  0  1  0  0  0  0  0  0  0  0  0
    1.3741   -0.1666    8.5456 C   0  0  0  0  0  0  0  0  0  0  0  0
    0.2170    0.8138    8.4429 C   0  0  0  0  0  0  0  0  0  0  0  0
   -0.7756    1.6547    8.3549 C   0  0  0  0  0  0  0  0  0  0  0  0
    0.1254   -1.8355    7.0552 C   0  0  0  0  0  0  0  0  0  0  0  0
    0.1355   -2.6852    5.8094 C   0  0  0  0  0  0  0  0  0  0  0  0
    0.1063   -2.0635    4.6148 N   0  0  0  0  0  0  0  0  0  0  0  0
    0.1078   -2.8418    3.4931 C   0  0  0  0  0  0  0  0  0  0  0  0
    0.1714   -4.2310    3.5298 C   0  0  0  0  0  0  0  0  0  0  0  0
    0.1580   -4.8355    4.7322 N   0  0  0  0  0  0  0  0  0  0  0  0
    0.1227   -4.0616    5.8510 C   0  0  0  0  0  0  0  0  0  0  0  0
    0.2442   -4.9745    2.4203 N   0  0  0  0  0  0  0  0  0  0  0  0
    0.2831   -4.3491    1.2433 C   0  0  0  0  0  0  0  0  0  0  0  0
    0.2210   -3.0294    1.0931 N   0  0  0  0  0  0  0  0  0  0  0  0
    0.0838   -2.3042    2.2139 C   0  0  0  0  0  0  0  0  0  0  0  0
   -0.1820   -0.9329    2.0584 N   0  0  0  0  0  0  0  0  0  0  0  0
    0.4172   -5.1086    0.1101 N   0  0  0  0  0  0  0  0  0  0  0  0
    2.9428   -0.4928    2.1370 C   0  0  0  0  0  0  0  0  0  0  0  0
    3.2670   -1.9492    1.9718 C   0  0  0  0  0  0  0  0  0  0  0  0
    4.7579   -2.0556    1.8702 C   0  0  0  0  0  0  0  0  0  0  0  0
    5.5017   -2.5238    2.6917 O   0  0  0  0  0  0  0  0  0  0  0  0
    5.2247   -1.4074    0.7727 O   0  0  0  0  0  0  0  0  0  0  0  0
  1  2  2  0
  2  3  1  0
  2  4  1  0
  4  5  1  0
  4 31  1  1
  5  6  1  0
  6  7  2  0
  6  8  1  0
  8  9  2  0
  8 13  1  0
  9 10  1  0
 10 11  2  0
 11 12  1  0
 11 14  1  0
 12 13  2  0
 14 15  1  1
 14 18  1  0
 15 16  1  0
 16 17  3  0
 18 19  1  0
 19 20  2  0
 19 24  1  0
 20 21  1  0
 21 22  2  0
 21 28  1  0
 22 23  1  0
 22 25  1  0
 23 24  2  0
 25 26  2  0
 26 27  1  0
 26 30  1  0
 27 28  2  0
 28 29  1  0
 31 32  1  0
 32 33  1  0
 33 34  2  0
 33 35  1  0
M  END
>  <DRUGBANK_ID>  (1) 
DB06813

>  <SECONDARY_ACCESSION_NUMBERS>  (1) 
DB05527

>  <COMMON_NAME>  (1) 
Pralatrexate

>  <CAS_NUMBER>  (1) 
146464-95-1

>  <UNII>  (1) 
A8Q8I19Q20

>  <SYNONYMS>  (1) 
(2S)-2-((4-((1RS)-1-((2,4-Diaminopteridin-6-yl)methyl)but-3-ynyl)benzoyl)amino)pentanedioic acid; (2S)-2-({4-[1-(2,4-diaminopteridin-6-yl)pent-4-yn-2-yl]benzoyl}amino)pentanedioic acid; 10-Propargyl-10-deazaaminopterin; N-(4-(1-((2,4-Diamino-6-pteridinyl)methyl)-3-butynyl)benzoyl)-L-glutamic acid; PDX; Pralatrexate; Pralatrexato; Pralatrexatum

$$$$
