
     RDKit          3D

 10 10  0  0  0  0  0  0  0  0999 V2000
    0.9091    0.0289    0.0385 C   0  0  0  0  0  0  0  0  0  0  0  0
    0.1734   -0.3439    1.2635 C   0  0  0  0  0  0  0  0  0  0  0  0
    0.4795    0.1706    2.5236 C   0  0  0  0  0  0  0  0  0  0  0  0
   -0.2644   -0.2142    3.6331 C   0  0  0  0  0  0  0  0  0  0  0  0
   -1.3513   -1.0448    3.4327 C   0  0  0  0  0  0  0  0  0  0  0  0
   -1.7100   -1.5272    2.2222 N   0  0  0  0  0  0  0  0  0  0  0  0
   -0.9422   -1.1645    1.1610 C   0  0  0  0  0  0  0  0  0  0  0  0
    0.2752    0.2870   -0.9824 O   0  0  0  0  0  0  0  0  0  0  0  0
    2.2651    0.0792    0.0549 O   0  0  0  0  0  0  0  0  0  0  0  0
    3.0799   -0.3979    1.1381 C   0  0  0  0  0  0  0  0  0  0  0  0
  1  2  1  0
  1  8  2  0
  1  9  1  0
  2  3  2  0
  2  7  1  0
  3  4  1  0
  4  5  2  0
  5  6  1  0
  6  7  2  0
  9 10  1  0
M  END
>  <DRUGBANK_ID>  (1) 
DB13882

>  <COMMON_NAME>  (1) 
Methyl nicotinate

>  <CAS_NUMBER>  (1) 
93-60-7

>  <UNII>  (1) 
7B1AVU9DJN

>  <SYNONYMS>  (1) 
3-(Carbomethoxy)pyridine; 3-(Methoxycarbonyl)pyridine; 3-pyridinecarboxylic acid methyl ester; Heat spray; Methyl 3-pyridinecarboxylate; Methyl nicotinate; Methyl-nicotinate; Methylnicotinate; Nicotinic acid, methyl ester

$$$$
