
     RDKit          3D

 19 21  0  0  0  0  0  0  0  0999 V2000
    1.7397    0.5765    0.1963 O   0  0  0  0  0  0  0  0  0  0  0  0
   -1.8525    0.9490    0.0270 O   0  0  0  0  0  0  0  0  0  0  0  0
   -0.7426   -1.4168    0.6347 O   0  0  0  0  0  0  0  0  0  0  0  0
    1.4274   -1.7698   -2.6189 O   0  0  0  0  0  0  0  0  0  0  0  0
    3.0123    6.9145    0.0154 O   0  0  0  0  0  0  0  0  0  0  0  0
    0.8925    2.8294   -0.0029 N   0  0  0  0  0  0  0  0  0  0  0  0
    1.8226    4.5320   -1.2098 N   0  0  0  0  0  0  0  0  0  0  0  0
    1.3419    4.0371    2.2287 N   0  0  0  0  0  0  0  0  0  0  0  0
    2.4215    6.1668    2.1142 N   0  0  0  0  0  0  0  0  0  0  0  0
    0.5802    1.4269    0.3209 C   0  0  1  0  0  0  0  0  0  0  0  0
   -0.5423    0.7488   -0.5076 C   0  0  1  0  0  0  0  0  0  0  0  0
   -0.1606   -0.7319   -0.4900 C   0  0  1  0  0  0  0  0  0  0  0  0
    1.3632   -0.6964   -0.3947 C   0  0  1  0  0  0  0  0  0  0  0  0
    1.2308    3.2263   -1.4021 C   0  0  0  0  0  0  0  0  0  0  0  0
    1.3487    3.8548    0.8737 C   0  0  0  0  0  0  0  0  0  0  0  0
    2.0686   -0.8442   -1.7509 C   0  0  0  0  0  0  0  0  0  0  0  0
    1.8908    4.8377    0.1250 C   0  0  0  0  0  0  0  0  0  0  0  0
    2.4901    6.0616    0.7392 C   0  0  0  0  0  0  0  0  0  0  0  0
    1.8677    5.1901    2.7589 C   0  0  0  0  0  0  0  0  0  0  0  0
  1 10  1  0
  1 13  1  0
  4 16  1  0
  5 18  2  0
  6 14  1  0
  6 15  1  0
  7 14  1  0
  7 17  1  0
  8 15  1  0
  8 19  1  0
  9 18  1  0
  9 19  2  0
 10 11  1  0
 10  6  1  6
 11  2  1  1
 11 12  1  0
 12  3  1  1
 12 13  1  0
 13 16  1  6
 15 17  2  0
 17 18  1  0
M  END
>  <DRUGBANK_ID>  (1) 
DB02472

>  <SECONDARY_ACCESSION_NUMBERS>  (1) 
EXPT01774

>  <COMMON_NAME>  (1) 
7,8-dihydroinosine

>  <SYNONYMS>  (1) 
6-hydroxy-7,8-dihydro purine nucleoside

$$$$
