NBQ
     RDKit          3D

 31 33  0  0  0  0  0  0  0  0999 V2000
    1.0678    0.0701   -0.4530 N   0  0  0  0  0  0  0  0  0  0  0  0
    0.5452   -1.3044   -0.5498 C   0  0  1  0  0  0  0  0  0  0  0  0
    1.1172   -2.2592    0.5058 C   0  0  0  0  0  0  0  0  0  0  0  0
    0.7001   -2.0232    1.9368 C   0  0  0  0  0  0  0  0  0  0  0  0
    0.2036   -3.1024    2.6682 C   0  0  0  0  0  0  0  0  0  0  0  0
    0.0612   -4.3978    2.2845 O   0  0  0  0  0  0  0  0  0  0  0  0
   -0.1659   -2.8941    3.9523 C   0  0  0  0  0  0  0  0  0  0  0  0
   -0.0172   -1.6410    4.5152 C   0  0  0  0  0  0  0  0  0  0  0  0
   -0.3941   -1.7420    5.7971 O   0  0  0  0  0  0  0  0  0  0  0  0
    0.3617   -0.4619    3.8784 C   0  0  0  0  0  0  0  0  0  0  0  0
    0.7988   -0.7174    2.5673 C   0  0  0  0  0  0  0  0  0  0  0  0
    0.3980    0.8608    4.4471 N   0  0  0  0  0  0  0  0  0  0  0  0
    0.0009    1.4104    5.7131 C   0  0  0  0  0  0  0  0  0  0  0  0
    0.0993    2.7235    6.0488 C   0  0  0  0  0  0  0  0  0  0  0  0
   -0.3668    3.2802    7.3643 C   0  0  0  0  0  0  0  0  0  0  0  0
   -0.2939    4.4689    7.6425 O   0  0  0  0  0  0  0  0  0  0  0  0
   -0.6906    0.5463    6.7466 C   0  0  0  0  0  0  0  0  0  0  0  0
   -1.9113   -0.0757    6.2816 O   0  0  0  0  0  0  0  0  0  0  0  0
   -2.9513    0.6276    5.7657 C   0  0  0  0  0  0  0  0  0  0  0  0
   -2.8513    1.7908    5.0183 C   0  0  0  0  0  0  0  0  0  0  0  0
   -3.9764    2.5158    4.6708 C   0  0  0  0  0  0  0  0  0  0  0  0
   -5.2350    2.0173    4.9709 C   0  0  0  0  0  0  0  0  0  0  0  0
   -6.3627    2.7584    4.6278 C   0  0  0  0  0  0  0  0  0  0  0  0
   -5.3660    0.7608    5.6065 C   0  0  0  0  0  0  0  0  0  0  0  0
   -4.2084    0.0635    5.9798 C   0  0  0  0  0  0  0  0  0  0  0  0
   -6.6505    0.2697    5.8734 C   0  0  0  0  0  0  0  0  0  0  0  0
   -7.7746    1.0234    5.5296 C   0  0  0  0  0  0  0  0  0  0  0  0
   -7.6299    2.2643    4.9110 C   0  0  0  0  0  0  0  0  0  0  0  0
   -1.0042   -1.2919   -0.4837 C   0  0  0  0  0  0  0  0  0  0  0  0
   -1.6057   -1.6604   -1.6440 O   0  0  0  0  0  0  0  0  0  0  0  0
   -1.6463   -0.9623    0.4841 O   0  0  0  0  0  0  0  0  0  0  0  0
  2  1  1  1
  2  3  1  0
  2 29  1  0
  3  4  1  0
  4  5  2  0
  4 11  1  0
  5  6  1  0
  5  7  1  0
  7  8  2  0
  8  9  1  0
  8 10  1  0
 10 11  2  0
 10 12  1  0
 12 13  1  0
 13 14  2  0
 13 17  1  0
 14 15  1  0
 15 16  2  0
 17 18  1  0
 18 19  1  0
 19 20  2  0
 19 25  1  0
 20 21  1  0
 21 22  2  0
 22 23  1  0
 22 24  1  0
 23 28  2  0
 24 25  2  0
 24 26  1  0
 26 27  2  0
 27 28  1  0
 29 30  1  0
 29 31  2  0
M  END
>  <DRUGBANK_ID>  (1) 
DB02511

>  <SECONDARY_ACCESSION_NUMBERS>  (1) 
EXPT02304

>  <COMMON_NAME>  (1) 
2-Hydroxy-5-({1-[(2-Naphthyloxy)Methyl]-3-Oxoprop-1-Enyl}Amino)Tyrosine

>  <SYNONYMS>  (1) 
2-Hydroxy-5-{[(2E)-1-(2-naphthyloxy)-4-oxo-2-buten-2-yl]amino}-L-tyrosine

$$$$
