
     RDKit          3D

 27 28  0  0  0  0  0  0  0  0999 V2000
    4.1978    3.2278    0.1362 C   0  0  0  0  0  0  0  0  0  0  0  0
    5.4940    3.1547   -0.6767 C   0  0  0  0  0  0  0  0  0  0  0  0
    5.5088    2.3198   -2.3260 S   0  0  0  0  0  0  0  0  0  0  0  0
    4.4223    2.8034   -3.1659 O   0  0  0  0  0  0  0  0  0  0  0  0
    6.8426    2.2961   -2.8586 O   0  0  0  0  0  0  0  0  0  0  0  0
    5.1496    0.6983   -2.0362 N   0  0  0  0  0  0  0  0  0  0  0  0
    3.8585    0.3938   -1.4182 C   0  0  1  0  0  0  0  0  0  0  0  0
    3.2294   -0.6913   -2.3050 C   0  0  0  0  0  0  0  0  0  0  0  0
    3.5560   -2.0987   -1.9917 C   0  0  0  0  0  0  0  0  0  0  0  0
    3.2785   -2.2363   -0.4947 C   0  0  1  0  0  0  0  0  0  0  0  0
    4.2271   -1.3540    0.3097 C   0  0  0  0  0  0  0  0  0  0  0  0
    3.8854    0.0695    0.0783 C   0  0  0  0  0  0  0  0  0  0  0  0
    1.7343   -2.0716   -0.0521 C   0  0  0  0  0  0  0  0  0  0  0  0
    1.2781   -3.0611    0.5547 O   0  0  0  0  0  0  0  0  0  0  0  0
    0.8504   -0.9753   -0.1522 N   0  0  0  0  0  0  0  0  0  0  0  0
    0.7785    0.3509   -0.7632 C   0  0  0  0  0  0  0  0  0  0  0  0
    0.7920    1.4329    0.0429 N   0  0  0  0  0  0  0  0  0  0  0  0
    1.0948    2.6756   -0.5103 C   0  0  0  0  0  0  0  0  0  0  0  0
    1.5047    2.9130   -1.8221 C   0  0  0  0  0  0  0  0  0  0  0  0
    1.3990    1.7953   -2.6376 C   0  0  0  0  0  0  0  0  0  0  0  0
    0.8307    0.5899   -2.1448 C   0  0  0  0  0  0  0  0  0  0  0  0
    1.9685    4.2635   -2.3648 C   0  0  0  0  0  0  0  0  0  0  0  0
    0.9147    5.1159   -2.4473 F   0  0  0  0  0  0  0  0  0  0  0  0
    2.8849    4.9611   -1.6338 F   0  0  0  0  0  0  0  0  0  0  0  0
    2.4930    4.2248   -3.6212 F   0  0  0  0  0  0  0  0  0  0  0  0
    5.9129    4.6090   -0.9247 C   0  0  0  0  0  0  0  0  0  0  0  0
    6.5208    2.4217    0.1728 C   0  0  0  0  0  0  0  0  0  0  0  0
  1  2  1  0
  2  3  1  0
  2 26  1  0
  2 27  1  0
  3  4  2  0
  3  5  2  0
  3  6  1  0
  7  8  1  0
  7 12  1  0
  7  6  1  6
  8  9  1  0
  9 10  1  0
 10 11  1  0
 10 13  1  6
 11 12  1  0
 13 14  2  0
 13 15  1  0
 15 16  1  0
 16 17  2  0
 16 21  1  0
 17 18  1  0
 18 19  2  0
 19 20  1  0
 19 22  1  0
 20 21  2  0
 22 23  1  0
 22 24  1  0
 22 25  1  0
M  END
>  <DRUGBANK_ID>  (1) 
DB12889

>  <COMMON_NAME>  (1) 
Velneperit

>  <CAS_NUMBER>  (1) 
342577-38-2

>  <UNII>  (1) 
09BQ2KJ22J

>  <SYNONYMS>  (1) 
Velneperit

$$$$
