H7J
     RDKit          3D

 27 28  0  0  0  0  0  0  0  0999 V2000
    1.0934    0.0729   -0.4575 O   0  0  0  0  0  0  0  0  0  0  0  0
    2.2619    0.0017   -0.0827 C   0  0  0  0  0  0  0  0  0  0  0  0
    3.0837   -0.9569   -0.8356 C   0  0  0  0  0  0  0  0  0  0  0  0
    2.7279   -1.1622   -2.1783 C   0  0  0  0  0  0  0  0  0  0  0  0
    3.4356   -2.0573   -2.9662 C   0  0  0  0  0  0  0  0  0  0  0  0
    4.5091   -2.7465   -2.4107 C   0  0  0  0  0  0  0  0  0  0  0  0
    4.8541   -2.5608   -1.0665 C   0  0  0  0  0  0  0  0  0  0  0  0
    4.1125   -1.6975   -0.2580 C   0  0  0  0  0  0  0  0  0  0  0  0
    2.8436    0.7302    0.9405 N   0  0  0  0  0  0  0  0  0  0  0  0
    2.1394    1.7189    1.8373 C   0  0  1  0  0  0  0  0  0  0  0  0
    2.6087    1.4148    3.2820 C   0  0  0  0  0  0  0  0  0  0  0  0
    2.5454    3.1955    1.4764 C   0  0  0  0  0  0  0  0  0  0  0  0
    2.2457    3.5391    0.0115 C   0  0  0  0  0  0  0  0  0  0  0  0
    1.9084    4.2518    2.4094 C   0  0  0  0  0  0  0  0  0  0  0  0
    0.6459    1.4957    1.7949 C   0  0  0  0  0  0  0  0  0  0  0  0
   -0.2586    2.4965    1.5314 N   0  0  0  0  0  0  0  0  0  0  0  0
   -1.4597    1.9648    1.4103 N   0  0  0  0  0  0  0  0  0  0  0  0
   -0.0419    0.3065    1.9024 C   0  0  0  0  0  0  0  0  0  0  0  0
   -1.3054    0.6399    1.5469 N   0  0  0  0  0  0  0  0  0  0  0  0
   -2.3984   -0.2615    1.2820 C   0  0  1  0  0  0  0  0  0  0  0  0
   -3.3859   -0.1097    2.4250 C   0  0  0  0  0  0  0  0  0  0  0  0
   -4.8101    0.2899    2.1478 C   0  0  0  0  0  0  0  0  0  0  0  0
   -3.0331   -0.3029    3.5950 O   0  0  0  0  0  0  0  0  0  0  0  0
   -3.0030   -0.0702   -0.1137 C   0  0  0  0  0  0  0  0  0  0  0  0
   -2.0503   -0.3037   -1.2430 C   0  0  0  0  0  0  0  0  0  0  0  0
   -2.2255   -1.2488   -2.1752 C   0  0  0  0  0  0  0  0  0  0  0  0
   -1.2605   -1.4586   -3.2898 C   0  0  0  0  0  0  0  0  0  0  0  0
  1  2  2  0
  2  3  1  0
  2  9  1  0
  3  4  2  0
  3  8  1  0
  4  5  1  0
  5  6  2  0
  6  7  1  0
  7  8  2  0
 10  9  1  0
 10 11  1  1
 10 12  1  0
 10 15  1  0
 12 13  1  0
 12 14  1  0
 15 16  1  0
 15 18  2  0
 16 17  2  0
 17 19  1  0
 18 19  1  0
 20 19  1  0
 20 21  1  0
 20 24  1  6
 21 22  1  0
 21 23  2  0
 24 25  1  0
 25 26  2  0
 26 27  1  0
M  END
>  <DRUGBANK_ID>  (1) 
DB07878

>  <COMMON_NAME>  (1) 
N-[(1S)-1-{1-[(1R,3E)-1-ACETYLPENT-3-EN-1-YL]-1H-1,2,3-TRIAZOL-4-YL}-1,2-DIMETHYLPROPYL]BENZAMIDE

$$$$
