
     RDKit          3D

 26 29  0  0  1  0  0  0  0  0999 V2000
   -1.1129    5.1472    0.6647 C   0  0  0  0  0  0  0  0  0  0  0  0
   -2.0690    5.2718    1.6389 O   0  0  0  0  0  0  0  0  0  0  0  0
   -1.8931    4.1082    2.4639 C   0  0  0  0  0  0  0  0  0  0  0  0
   -2.0906    2.7091    1.8634 C   0  0  0  0  0  0  0  0  0  0  0  0
   -3.1170    2.0039    2.5043 C   0  0  0  0  0  0  0  0  0  0  0  0
   -3.4635    0.7250    2.1182 C   0  0  0  0  0  0  0  0  0  0  0  0
   -2.7610    0.1591    1.0806 C   0  0  0  0  0  0  0  0  0  0  0  0
   -1.7575    0.7902    0.4290 N   0  0  0  0  0  0  0  0  0  0  0  0
   -1.3995    2.0493    0.8073 C   0  0  0  0  0  0  0  0  0  0  0  0
   -0.4104    2.6552    0.0247 N   0  0  0  0  0  0  0  0  0  0  0  0
    0.9129    3.0783    0.7132 C   0  0  0  0  0  0  0  0  0  0  0  0
    1.5587    4.5447    0.1865 C   0  0  0  0  0  0  0  0  0  0  0  0
    1.4275    4.9037   -1.2842 N   0  0  0  0  0  0  0  0  0  0  0  0
    2.6799    4.2093   -1.9530 C   0  0  0  0  0  0  0  0  0  0  0  0
    2.7380    2.6488   -1.5976 C   0  0  1  0  0  0  0  0  0  0  0  0
    1.4517    2.2785   -2.2231 C   0  0  0  0  0  0  0  0  0  0  0  0
    0.6859    1.1368   -2.0035 O   0  0  0  0  0  0  0  0  0  0  0  0
    1.4054    0.2335   -1.3930 C   0  0  0  0  0  0  0  0  0  0  0  0
    0.6684   -0.9319   -1.0903 C   0  0  0  0  0  0  0  0  0  0  0  0
    1.3578   -2.0856   -1.0228 C   0  0  0  0  0  0  0  0  0  0  0  0
    2.7656   -2.0335   -1.1570 C   0  0  0  0  0  0  0  0  0  0  0  0
    3.4671   -0.8055   -1.3126 C   0  0  0  0  0  0  0  0  0  0  0  0
    2.8205    0.3479   -1.4319 C   0  0  0  0  0  0  0  0  0  0  0  0
    3.5281    1.5150   -1.8572 O   0  0  0  0  0  0  0  0  0  0  0  0
   -0.0295    4.5447   -1.9038 C   0  0  0  0  0  0  0  0  0  0  0  0
   -0.8956    3.1468   -1.4213 C   0  0  0  0  0  0  0  0  0  0  0  0
  1  2  1  0
  2  3  1  0
  3  4  1  0
  4  5  2  0
  4  9  1  0
  5  6  1  0
  6  7  2  0
  7  8  1  0
  8  9  2  0
  9 10  1  0
 10 11  1  0
 10 26  1  0
 11 12  1  0
 12 13  1  0
 13 14  1  0
 13 25  1  0
 15 16  1  0
 15 24  1  0
 15 14  1  6
 16 17  1  0
 17 18  1  0
 18 19  2  0
 18 23  1  0
 19 20  1  0
 20 21  2  0
 21 22  1  0
 22 23  2  0
 23 24  1  0
 25 26  1  0
M  ISO  1   1  11
M  END
>  <DRUGBANK_ID>  (1) 
DB15324

>  <COMMON_NAME>  (1) 
ORM-13070 C-11

>  <CAS_NUMBER>  (1) 
1227170-74-2

>  <UNII>  (1) 
Y61S1UFN4Y

>  <SYNONYMS>  (1) 
11C-ORM-13070

$$$$
