
     RDKit          3D

  4  3  0  0  0  0  0  0  0  0999 V2000
    0.9101    0.0168   -0.0332 C   0  0  0  0  0  0  0  0  0  0  0  0
    0.4010    0.6610    1.2465 C   0  0  0  0  0  0  0  0  0  0  0  0
    0.8785    2.0399    1.3354 N   0  0  0  0  0  0  0  0  0  0  0  0
    0.4029    2.6728    2.5584 C   0  0  0  0  0  0  0  0  0  0  0  0
  1  2  1  0
  2  3  1  0
  3  4  1  0
M  END
>  <DRUGBANK_ID>  (1) 
DB02396

>  <SECONDARY_ACCESSION_NUMBERS>  (1) 
EXPT01370

>  <COMMON_NAME>  (1) 
Methylethylamine

>  <CAS_NUMBER>  (1) 
624-78-2

>  <UNII>  (1) 
AE3IIW7JBO

$$$$
