
     RDKit          3D

 30 33  0  0  0  0  0  0  0  0999 V2000
    0.3645   -1.0707   -0.0371 N   0  0  0  0  0  0  0  0  0  0  0  0
   -3.1501    9.1733    0.5143 N   0  0  0  0  0  0  0  0  0  0  0  0
   -3.0362   10.3351    1.1240 C   0  0  0  0  0  0  0  0  0  0  0  0
   -0.9253   -0.6556    0.0042 C   0  0  0  0  0  0  0  0  0  0  0  0
    1.3590   -0.1428   -0.0029 C   0  0  0  0  0  0  0  0  0  0  0  0
   -2.7672   11.3928    0.2848 O   0  0  0  0  0  0  0  0  0  0  0  0
   -2.9164    9.4692   -0.8055 C   0  0  0  0  0  0  0  0  0  0  0  0
   -0.9993    1.0807    0.0554 S   0  0  0  0  0  0  0  0  0  0  0  0
   -2.6748   10.8165   -0.9541 C   0  0  0  0  0  0  0  0  0  0  0  0
    0.8194    1.2651    0.0573 C   0  0  0  0  0  0  0  0  0  0  0  0
   -0.6149    7.5330   -1.1613 C   0  0  0  0  0  0  0  0  0  0  0  0
   -1.9012   -1.3752    0.0082 O   0  0  0  0  0  0  0  0  0  0  0  0
   -3.1019   10.6349    2.5455 C   0  0  0  0  0  0  0  0  0  0  0  0
    2.5486   -0.4329   -0.0131 O   0  0  0  0  0  0  0  0  0  0  0  0
   -2.8845    8.4029   -1.8299 C   0  0  0  0  0  0  0  0  0  0  0  0
   -0.1104    6.1361   -1.2033 C   0  0  0  0  0  0  0  0  0  0  0  0
    1.3204    2.0776   -1.1300 C   0  0  0  0  0  0  0  0  0  0  0  0
   -1.4728    8.0721   -2.2927 C   0  0  0  0  0  0  0  0  0  0  0  0
   -0.3059    8.2341   -0.1980 O   0  0  0  0  0  0  0  0  0  0  0  0
    0.5992    5.6669   -0.0906 C   0  0  0  0  0  0  0  0  0  0  0  0
   -0.3436    5.2786   -2.2803 C   0  0  0  0  0  0  0  0  0  0  0  0
    0.8028    3.4918   -1.1268 C   0  0  0  0  0  0  0  0  0  0  0  0
    0.0577    3.9497   -2.2147 C   0  0  0  0  0  0  0  0  0  0  0  0
    1.0641    4.3559   -0.0570 C   0  0  0  0  0  0  0  0  0  0  0  0
   -2.3409   11.6692   -2.1101 C   0  0  0  0  0  0  0  0  0  0  0  0
   -2.2176   10.0097    3.4361 C   0  0  0  0  0  0  0  0  0  0  0  0
   -4.0317   11.5536    3.0473 C   0  0  0  0  0  0  0  0  0  0  0  0
   -2.2300   10.3345    4.7958 C   0  0  0  0  0  0  0  0  0  0  0  0
   -4.0147   11.9099    4.3988 C   0  0  0  0  0  0  0  0  0  0  0  0
   -3.1265   11.2879    5.2754 C   0  0  0  0  0  0  0  0  0  0  0  0
  2  7  1  0
  3  2  2  0
  3  6  1  0
  4  1  1  0
  5  1  1  0
  6  9  1  0
  7 15  1  0
  8  4  1  0
  9  7  2  0
 10  5  1  0
 10  8  1  0
 11 16  1  0
 12  4  2  0
 13  3  1  0
 14  5  2  0
 15 18  1  0
 16 20  2  0
 16 21  1  0
 17 10  1  0
 18 11  1  0
 19 11  2  0
 20 24  1  0
 21 23  2  0
 22 17  1  0
 23 22  1  0
 24 22  2  0
 25  9  1  0
 26 13  2  0
 27 13  1  0
 28 26  1  0
 29 27  2  0
 29 30  1  0
 30 28  2  0
M  END
>  <DRUGBANK_ID>  (1) 
DB14034

>  <COMMON_NAME>  (1) 
Darglitazone

>  <CAS_NUMBER>  (1) 
141200-24-0

>  <UNII>  (1) 
AVP9C03Z3K

>  <SYNONYMS>  (1) 
Darglitazone

$$$$
