
     RDKit          3D

 33 35  0  0  1  0  0  0  0  0999 V2000
    1.0204   -0.0395    0.4153 C   0  0  0  0  0  0  0  0  0  0  0  0
    0.4653   -1.3443    0.3200 O   0  0  0  0  0  0  0  0  0  0  0  0
    0.9307   -2.1046   -0.8005 C   0  0  0  0  0  0  0  0  0  0  0  0
    0.4849   -1.5593   -2.1923 C   0  0  1  0  0  0  0  0  0  0  0  0
    1.1461   -0.2339   -2.6153 C   0  0  0  0  0  0  0  0  0  0  0  0
    2.6109   -0.1759   -2.4477 N   0  0  0  0  0  0  0  0  0  0  0  0
    3.4024   -1.2971   -2.5041 C   0  0  0  0  0  0  0  0  0  0  0  0
    3.0588   -2.4808   -2.6591 O   0  0  0  0  0  0  0  0  0  0  0  0
    4.8526   -1.1408   -2.3705 C   0  0  0  0  0  0  0  0  0  0  0  0
    5.4115    0.0145   -2.3287 N   0  0  0  0  0  0  0  0  0  0  0  0
    4.5801    1.1016   -2.3083 N   0  0  0  0  0  0  0  0  0  0  0  0
    3.1867    1.0888   -2.3486 C   0  0  0  0  0  0  0  0  0  0  0  0
    2.5048    2.1143   -2.3361 O   0  0  0  0  0  0  0  0  0  0  0  0
    5.3144    2.2929   -2.3280 C   0  0  0  0  0  0  0  0  0  0  0  0
    6.1476    2.4851   -3.4192 C   0  0  0  0  0  0  0  0  0  0  0  0
    7.0303    3.5272   -3.4037 C   0  0  0  0  0  0  0  0  0  0  0  0
    7.2391    4.2617   -2.2301 C   0  0  0  0  0  0  0  0  0  0  0  0
    6.2804    4.2198   -1.1571 C   0  0  0  0  0  0  0  0  0  0  0  0
    5.2941    3.1998   -1.2586 C   0  0  0  0  0  0  0  0  0  0  0  0
    6.0264    5.1786    0.0343 C   0  0  0  0  0  0  0  0  0  0  0  0
    5.1378    4.8931    0.8498 O   0  0  0  0  0  0  0  0  0  0  0  0
    6.5851    6.4591    0.1769 N   0  0  0  0  0  0  0  0  0  0  0  0
    7.1955    7.2392   -0.8965 C   0  0  0  0  0  0  0  0  0  0  0  0
    6.4351    8.3021   -1.7769 C   0  0  0  0  0  0  0  0  0  0  0  0
    6.1276    7.9250   -3.2829 C   0  0  0  0  0  0  0  0  0  0  0  0
    5.5105    6.5631   -3.5169 C   0  0  0  0  0  0  0  0  0  0  0  0
    4.0525    6.3105   -3.2231 C   0  0  0  0  0  0  0  0  0  0  0  0
    3.3820    7.2632   -2.2325 C   0  0  0  0  0  0  0  0  0  0  0  0
    4.1448    7.5800   -0.9622 C   0  0  0  0  0  0  0  0  0  0  0  0
    5.1778    8.7003   -1.0351 C   0  0  0  0  0  0  0  0  0  0  0  0
    7.2776    9.4674   -1.8655 O   0  0  0  0  0  0  0  0  0  0  0  0
    8.7130    5.1904   -2.4684 Cl  0  0  0  0  0  0  0  0  0  0  0  0
    0.6917   -2.4962   -3.2637 O   0  0  0  0  0  0  0  0  0  0  0  0
  1  2  1  0
  2  3  1  0
  3  4  1  0
  4  5  1  0
  4 33  1  6
  5  6  1  0
  6  7  1  0
  6 12  1  0
  7  8  2  0
  7  9  1  0
  9 10  2  0
 10 11  1  0
 11 12  1  0
 11 14  1  0
 12 13  2  0
 14 15  2  0
 14 19  1  0
 15 16  1  0
 16 17  2  0
 17 18  1  0
 17 32  1  0
 18 19  2  0
 18 20  1  0
 20 21  2  0
 20 22  1  0
 22 23  1  0
 23 24  1  0
 24 25  1  0
 24 30  1  0
 24 31  1  0
 25 26  1  0
 26 27  1  0
 27 28  1  0
 28 29  1  0
 29 30  1  0
M  END
>  <DRUGBANK_ID>  (1) 
DB12113

>  <COMMON_NAME>  (1) 
CE-224535

>  <CAS_NUMBER>  (1) 
724424-43-5

>  <UNII>  (1) 
T8B02RAU3C

$$$$
