
     RDKit          3D

 19 18  0  0  0  0  0  0  0  0999 V2000
    1.0488   -0.0781   -0.0232 C   0  0  0  0  0  0  0  0  0  0  0  0
    0.5875   -1.1669    0.9401 C   0  0  0  0  0  0  0  0  0  0  0  0
    0.4968    1.3031    0.3353 C   0  0  0  0  0  0  0  0  0  0  0  0
    0.1390    1.3268    5.0446 C   0  0  0  0  0  0  0  0  0  0  0  0
   -4.1216    0.5842    7.3447 C   0  0  0  0  0  0  0  0  0  0  0  0
    0.9270   -0.8218    2.3582 C   0  0  0  0  0  0  0  0  0  0  0  0
    0.5388   -0.1205    4.7095 C   0  0  0  0  0  0  0  0  0  0  0  0
   -1.3452    1.4865    5.2417 C   0  0  0  0  0  0  0  0  0  0  0  0
   -3.5441    1.6497    6.4052 C   0  0  0  0  0  0  0  0  0  0  0  0
    0.9566    2.3125   -0.6769 C   0  0  0  0  0  0  0  0  0  0  0  0
   -3.7763    0.8179    8.7908 C   0  0  0  0  0  0  0  0  0  0  0  0
   -1.4254   -0.7285    3.1772 C   0  0  0  0  0  0  0  0  0  0  0  0
   -1.3159    2.1156    7.6252 C   0  0  0  0  0  0  0  0  0  0  0  0
    0.0567   -0.5791    3.3538 C   0  0  0  0  0  0  0  0  0  0  0  0
   -2.0278    1.7192    6.3749 C   0  0  0  0  0  0  0  0  0  0  0  0
    0.1902    3.0112   -1.3312 O   0  0  0  0  0  0  0  0  0  0  0  0
   -4.5670    1.2549    9.6186 O   0  0  0  0  0  0  0  0  0  0  0  0
   -2.0285   -0.7601    2.1127 O   0  0  0  0  0  0  0  0  0  0  0  0
   -0.1267    1.9229    7.8615 O   0  0  0  0  0  0  0  0  0  0  0  0
  2  1  1  0
  3  1  1  0
  6  2  1  0
  7  4  1  0
  8  4  1  0
  9  5  1  0
 10  3  1  0
 11  5  1  0
 14  6  2  3
 14  7  1  0
 14 12  1  0
 15  8  2  3
 15  9  1  0
 15 13  1  0
 16 10  2  0
 17 11  2  0
 18 12  2  0
 19 13  2  0
M  END
>  <DRUGBANK_ID>  (1) 
DB06912

>  <COMMON_NAME>  (1) 
UNDECA-3,7-DIENE-1,3,7,11-TETRACARBALDEHYDE

$$$$
