
     RDKit          3D

 10  9  0  0  0  0  0  0  0  0999 V2000
   -1.3087    1.5300    0.7946 C   0  0  0  0  0  0  0  0  0  0  0  0
    0.4816    1.7194    0.8285 S   0  0  0  0  0  0  0  0  0  0  0  0
    0.9469    0.1996   -0.0674 C   0  0  0  0  0  0  0  0  0  0  0  0
    2.3624    0.3666   -0.6401 C   0  0  0  0  0  0  0  0  0  0  0  0
    3.4659    0.4175    0.4261 C   0  0  0  0  0  0  0  0  0  0  0  0
    3.4678   -0.7879    1.3768 C   0  0  0  0  0  0  0  0  0  0  0  0
    3.8534   -2.0483    0.7130 N   0  0  0  0  0  0  0  0  0  0  0  0
    3.1153   -2.5480   -0.0639 C   0  0  0  0  0  0  0  0  0  0  0  0
    2.1993   -3.2333   -1.1735 S   0  0  0  0  0  0  0  0  0  0  0  0
    0.9362    1.5504    2.2481 O   0  0  0  0  0  0  0  0  0  0  0  0
  2 10  2  0
  2  3  1  0
  2  1  1  0
  3  4  1  0
  4  5  1  0
  5  6  1  0
  6  7  1  0
  7  8  2  0
  8  9  2  0
M  END
>  <DRUGBANK_ID>  (1) 
DB12422

>  <COMMON_NAME>  (1) 
Sulforaphane

>  <CAS_NUMBER>  (1) 
142825-10-3

>  <UNII>  (1) 
GA49J4310U

>  <SYNONYMS>  (1) 
(-)-sulforaphane; (R)-sulforaphane; 4-methylsulfinylbutyl isothiocyanate

$$$$
