
     RDKit          3D

 21 22  0  0  1  0  0  0  0  0999 V2000
    0.4165   -0.1796   -0.0334 C   0  0  0  0  0  0  0  0  0  0  0  0
    0.5981    2.3489   -0.7985 C   0  0  0  0  0  0  0  0  0  0  0  0
   -1.3006    1.3764    0.4949 C   0  0  0  0  0  0  0  0  0  0  0  0
    5.1508    1.0381    2.2895 C   0  0  0  0  0  0  0  0  0  0  0  0
    3.0634   -0.2646    1.8931 C   0  0  0  0  0  0  0  0  0  0  0  0
    5.2838    1.2456    0.7290 C   0  0  0  0  0  0  0  0  0  0  0  0
    3.3965    0.0520    0.2299 C   0  0  0  0  0  0  0  0  0  0  0  0
    2.0747    2.3803    1.4915 C   0  0  0  0  0  0  0  0  0  0  0  0
    2.4274    4.6105    1.9952 C   0  0  0  0  0  0  0  0  0  0  0  0
    2.9318    3.5742    1.0778 C   0  0  1  0  0  0  0  0  0  0  0  0
    3.1613    1.6111    3.9293 C   0  0  0  0  0  0  0  0  0  0  0  0
    2.8737    3.2734    4.0923 C   0  0  0  0  0  0  0  0  0  0  0  0
    0.2027    1.3268    0.2669 C   0  0  0  0  0  0  0  0  0  0  0  0
    0.7574    1.8242    1.4896 N   0  0  0  0  0  0  0  0  0  0  0  0
    2.4221    1.0280    4.9099 N   0  0  0  0  0  0  0  0  0  0  0  0
    2.1155    3.6279    5.0818 N   0  0  0  0  0  0  0  0  0  0  0  0
    3.7998    0.7906    2.8561 N   0  0  0  0  0  0  0  0  0  0  0  0
    4.3553    3.5762    1.4054 O   0  0  0  0  0  0  0  0  0  0  0  0
    4.7939    0.1236   -0.0007 O   0  0  0  0  0  0  0  0  0  0  0  0
    3.1550    4.3935    3.2730 O   0  0  0  0  0  0  0  0  0  0  0  0
    1.6610    2.2067    5.8266 S   0  0  0  0  0  0  0  0  0  0  0  0
  6  4  1  0
  7  5  1  0
 10  8  1  0
 10  9  1  0
 10 18  1  1
 12 11  1  0
 13  1  1  0
 13  2  1  0
 13  3  1  0
 14  8  1  0
 14 13  1  0
 15 11  2  0
 16 12  2  0
 17  4  1  0
 17  5  1  0
 17 11  1  0
 19  6  1  0
 19  7  1  0
 20  9  1  0
 20 12  1  0
 21 15  1  0
 21 16  1  0
M  END
>  <DRUGBANK_ID>  (1) 
DB00373

>  <SECONDARY_ACCESSION_NUMBERS>  (1) 
APRD00229; DB08625

>  <COMMON_NAME>  (1) 
Timolol

>  <CAS_NUMBER>  (1) 
26839-75-8

>  <UNII>  (1) 
5JKY92S7BR

>  <SYNONYMS>  (1) 
(S)-1-(tert-butylamino)-3-[(4-morpholin-4-yl-1,2,5-thiadiazol-3-yl)oxy]propan-2-ol; Timolol; Timolol anhydrous; Timololo; Timololum

$$$$
