
     RDKit          3D

 11 11  0  0  1  0  0  0  0  0999 V2000
    0.9678   -0.1030   -0.0152 O   0  0  0  0  0  0  0  0  0  0  0  0
    0.4440   -1.1559    0.7947 C   0  0  0  0  0  0  0  0  0  0  0  0
    1.0076   -2.5046    0.3253 C   0  0  2  0  0  0  0  0  0  0  0  0
    0.1235   -3.6621    0.5564 N   0  0  0  0  0  0  0  0  0  0  0  0
    0.9880   -4.8409    0.8002 C   0  0  1  0  0  0  0  0  0  0  0  0
    0.7882   -5.9865   -0.2105 C   0  0  0  0  0  0  0  0  0  0  0  0
    1.7271   -7.0418   -0.0422 O   0  0  0  0  0  0  0  0  0  0  0  0
    2.4392   -4.3285    0.8133 C   0  0  2  0  0  0  0  0  0  0  0  0
    3.2383   -4.9809    1.7918 O   0  0  0  0  0  0  0  0  0  0  0  0
    2.2878   -2.8372    1.0913 C   0  0  1  0  0  0  0  0  0  0  0  0
    3.3900   -2.0599    0.6390 O   0  0  0  0  0  0  0  0  0  0  0  0
  1  2  1  0
  3  2  1  1
  3  4  1  0
  3 10  1  0
  4  5  1  0
  5  8  1  0
  5  6  1  6
  6  7  1  0
  8  9  1  1
  8 10  1  0
 10 11  1  6
M  END
>  <DRUGBANK_ID>  (1) 
DB02172

>  <SECONDARY_ACCESSION_NUMBERS>  (1) 
EXPT01205

>  <COMMON_NAME>  (1) 
2,5-Dideoxy-2,5-Imino-D-Glucitol

$$$$
