
     RDKit          3D

 19 21  0  0  1  0  0  0  0  0999 V2000
   -0.0236   -1.2074    0.5155 C   0  0  0  0  0  0  0  0  0  0  0  0
    0.6300    1.6772    1.8180 C   0  0  0  0  0  0  0  0  0  0  0  0
    2.2128   -3.0471   -0.1922 C   0  0  0  0  0  0  0  0  0  0  0  0
   -0.8351    0.0582    0.5196 C   0  0  1  0  0  0  0  0  0  0  0  0
    0.2331    1.1519    0.4338 C   0  0  2  0  0  0  0  0  0  0  0  0
    1.1808   -0.8394   -0.3455 C   0  0  2  0  0  0  0  0  0  0  0  0
    4.1382   -2.7082    0.6150 C   0  0  0  0  0  0  0  0  0  0  0  0
    5.4347   -2.8070    1.1424 C   0  0  0  0  0  0  0  0  0  0  0  0
    3.5940   -1.4359    0.4484 C   0  0  0  0  0  0  0  0  0  0  0  0
    5.4763   -0.4973    1.2101 C   0  0  0  0  0  0  0  0  0  0  0  0
    6.1989    0.5957    1.5048 F   0  0  0  0  0  0  0  0  0  0  0  0
    6.0259   -4.0312    1.3655 N   0  0  0  0  0  0  0  0  0  0  0  0
    3.2729   -3.6958    0.2219 N   0  0  0  0  0  0  0  0  0  0  0  0
    6.1008   -1.6776    1.4319 N   0  0  0  0  0  0  0  0  0  0  0  0
    4.2183   -0.2806    0.7357 N   0  0  0  0  0  0  0  0  0  0  0  0
    2.3331   -1.6797   -0.0430 N   0  0  0  0  0  0  0  0  0  0  0  0
    0.0158    2.9400    2.0564 O   0  0  0  0  0  0  0  0  0  0  0  0
   -1.7038    0.0477   -0.6146 O   0  0  0  0  0  0  0  0  0  0  0  0
    1.4106    0.5594   -0.1713 O   0  0  0  0  0  0  0  0  0  0  0  0
  4  1  1  0
  4 18  1  6
  5  4  1  0
  5  2  1  1
  6  1  1  0
  6 16  1  1
  8  7  2  0
  9  7  1  0
 11 10  1  0
 12  8  1  0
 13  3  2  0
 13  7  1  0
 14  8  1  0
 14 10  2  0
 15  9  2  0
 15 10  1  0
 16  3  1  0
 16  9  1  0
 17  2  1  0
 19  5  1  0
 19  6  1  0
M  END
>  <DRUGBANK_ID>  (1) 
DB02947

>  <SECONDARY_ACCESSION_NUMBERS>  (1) 
EXPT00115

>  <COMMON_NAME>  (1) 
2-Fluoro-2'-Deoxyadenosine

>  <UNII>  (1) 
2T63DT4KWU

$$$$
