1171
     RDKit          3D

 18 19  0  0  0  0  0  0  0  0999 V2000
   -2.3596   -0.2650    0.0037 Cl  0  0  0  0  0  0  0  0  0  0  0  0
    6.6785    1.2902   -0.0675 O   0  0  0  0  0  0  0  0  0  0  0  0
    4.2536   -0.9222   -0.0178 O   0  0  0  0  0  0  0  0  0  0  0  0
    5.7994    3.6250    1.3579 N   0  0  0  0  0  0  0  0  0  0  0  0
    4.0522    1.2881   -0.2367 N   0  0  0  0  0  0  0  0  0  0  0  0
    6.3929    3.7711    0.0125 C   0  0  0  0  0  0  0  0  0  0  0  0
    6.4635    2.5215    2.0736 C   0  0  0  0  0  0  0  0  0  0  0  0
    4.3522    3.3933    1.3187 C   0  0  0  0  0  0  0  0  0  0  0  0
    6.4259    2.5002   -0.8384 C   0  0  0  0  0  0  0  0  0  0  0  0
    6.2747    1.2169    1.3367 C   0  0  0  0  0  0  0  0  0  0  0  0
    3.7308    2.7177    0.0849 C   0  0  0  0  0  0  0  0  0  0  0  0
    3.5271    0.0489   -0.0571 C   0  0  0  0  0  0  0  0  0  0  0  0
    2.0855   -0.0660    0.0114 C   0  0  0  0  0  0  0  0  0  0  0  0
    1.2812    1.0567   -0.1026 C   0  0  0  0  0  0  0  0  0  0  0  0
    1.5157   -1.3211    0.0499 C   0  0  0  0  0  0  0  0  0  0  0  0
   -0.0725    1.0213    0.0004 C   0  0  0  0  0  0  0  0  0  0  0  0
    0.1259   -1.3863    0.0251 C   0  0  0  0  0  0  0  0  0  0  0  0
   -0.6539   -0.2175    0.0339 C   0  0  0  0  0  0  0  0  0  0  0  0
  1 18  1  0
  2  9  1  0
  2 10  1  0
  3 12  2  0
  4  6  1  0
  4  7  1  0
  4  8  1  0
  5 11  1  0
  5 12  1  0
  6  9  1  0
  7 10  1  0
  8 11  1  0
 12 13  1  0
 13 14  2  0
 13 15  1  0
 14 16  1  0
 15 17  2  0
 16 18  2  0
 17 18  1  0
M  END
>  <DRUGBANK_ID>  (1) 
DB01171

>  <SECONDARY_ACCESSION_NUMBERS>  (1) 
APRD00603

>  <COMMON_NAME>  (1) 
Moclobemide

>  <CAS_NUMBER>  (1) 
71320-77-9

>  <UNII>  (1) 
PJ0Y7AZB63

>  <SYNONYMS>  (1) 
4-Chlor-N-(2-morpholinoethyl)benzamid; Moclobemid; Moclobemida; Moclobemide; Moclobemidum; p-Chloro-N-(2-morpholinoethyl)benzamide

$$$$
