
     RDKit          3D

  8  7  0  0  0  0  0  0  0  0999 V2000
    1.1408   -0.1564   -0.0907 C   0  0  0  0  0  0  0  0  0  0  0  0
    0.5286   -1.0695    0.8198 N   0  0  0  0  0  0  0  0  0  0  0  0
   -0.2729   -0.9438    1.9485 C   0  0  0  0  0  0  0  0  0  0  0  0
   -0.6983   -2.0548    2.6041 C   0  0  0  0  0  0  0  0  0  0  0  0
   -0.4201   -3.4970    2.2791 C   0  0  0  0  0  0  0  0  0  0  0  0
   -0.7697    0.3556    2.5898 C   0  0  0  0  0  0  0  0  0  0  0  0
   -0.4432    1.5506    2.0704 O   0  0  0  0  0  0  0  0  0  0  0  0
   -1.4805    0.3522    3.5963 O   0  0  0  0  0  0  0  0  0  0  0  0
  1  2  1  0
  2  3  1  0
  3  4  2  0
  3  6  1  0
  4  5  1  0
  6  7  1  0
  6  8  2  0
M  END
>  <DRUGBANK_ID>  (1) 
DB04225

>  <SECONDARY_ACCESSION_NUMBERS>  (1) 
EXPT02144

>  <COMMON_NAME>  (1) 
N-Methyldehydrobutyrine

$$$$
