
     RDKit          3D

 14 13  0  0  0  0  0  0  0  0999 V2000
    0.9518   -0.0824   -0.0297 P   0  0  0  0  0  0  0  0  0  0  0  0
    0.8142   -0.2665    1.5963 O   0  0  0  0  0  0  0  0  0  0  0  0
   -0.1162   -2.4554   -0.0669 O   0  0  0  0  0  0  0  0  0  0  0  0
   -0.3642   -3.9160    3.2539 O   0  0  0  0  0  0  0  0  0  0  0  0
   -1.4851   -5.4381    0.3824 O   0  0  0  0  0  0  0  0  0  0  0  0
    0.8608    1.5340   -0.1750 O   0  0  0  0  0  0  0  0  0  0  0  0
   -0.7782   -0.0824   -0.0297 O   0  0  0  0  0  0  0  0  0  0  0  0
    2.5002   -0.0824   -0.0297 O   0  0  0  0  0  0  0  0  0  0  0  0
   -3.0191   -2.9833    2.4549 O   0  0  0  0  0  0  0  0  0  0  0  0
   -2.7963   -4.0292    1.5456 N   0  0  0  0  0  0  0  0  0  0  0  0
   -0.2257   -2.4371    1.3660 C   0  0  1  0  0  0  0  0  0  0  0  0
   -0.3146   -3.8772    1.8316 C   0  0  2  0  0  0  0  0  0  0  0  0
    0.9465   -1.6434    1.9715 C   0  0  0  0  0  0  0  0  0  0  0  0
   -1.5704   -4.5135    1.2095 C   0  0  0  0  0  0  0  0  0  0  0  0
  1  2  1  0
  1  6  1  0
  1  7  1  0
  1  8  2  0
  2 13  1  0
  5 14  2  0
  9 10  1  0
 10 14  1  0
 11  3  1  6
 11 12  1  0
 11 13  1  0
 12  4  1  1
 12 14  1  0
M  END
>  <DRUGBANK_ID>  (1) 
DB04496

>  <SECONDARY_ACCESSION_NUMBERS>  (1) 
EXPT02772

>  <COMMON_NAME>  (1) 
4-Phospho-D-erythronohydroxamic acid

>  <CAS_NUMBER>  (1) 
718599-64-5

$$$$
