M8E
     RDKit          3D

 28 30  0  0  0  0  0  0  0  0999 V2000
    0.9911    0.1214    0.3708 N   0  0  0  0  0  0  0  0  0  0  0  0
    0.2756   -1.1463    0.4170 O   0  0  0  0  0  0  0  0  0  0  0  0
    0.9732   -0.1354   -2.5354 C   0  0  0  0  0  0  0  0  0  0  0  0
    2.5235   -0.1692   -2.5219 C   0  0  0  0  0  0  0  0  0  0  0  0
    3.1627   -1.0106   -3.5546 N   0  0  0  0  0  0  0  0  0  0  0  0
    4.6196   -0.8533   -3.5453 C   0  0  0  0  0  0  0  0  0  0  0  0
    2.8478   -2.4498   -3.4598 C   0  0  0  0  0  0  0  0  0  0  0  0
    3.2989   -3.1389   -2.1407 C   0  0  1  0  0  0  0  0  0  0  0  0
    2.2521   -3.8739   -1.4821 O   0  0  0  0  0  0  0  0  0  0  0  0
    2.5429   -5.2738   -1.4173 C   0  0  1  0  0  0  0  0  0  0  0  0
    1.3558   -5.9627   -1.8812 N   0  0  0  0  0  0  0  0  0  0  0  0
    0.8854   -5.7298   -3.1520 C   0  0  0  0  0  0  0  0  0  0  0  0
    1.4618   -4.9412   -4.0819 N   0  0  0  0  0  0  0  0  0  0  0  0
    0.7605   -4.9190   -5.2159 C   0  0  0  0  0  0  0  0  0  0  0  0
   -0.3679   -5.5867   -5.4907 N   0  0  0  0  0  0  0  0  0  0  0  0
   -0.9004   -6.3791   -4.5267 C   0  0  0  0  0  0  0  0  0  0  0  0
   -2.0430   -7.0704   -4.8192 N   0  0  0  0  0  0  0  0  0  0  0  0
   -0.2538   -6.4570   -3.2826 C   0  0  0  0  0  0  0  0  0  0  0  0
   -0.5192   -7.1402   -2.1197 N   0  0  0  0  0  0  0  0  0  0  0  0
    0.4526   -6.8254   -1.2694 C   0  0  0  0  0  0  0  0  0  0  0  0
    3.7901   -5.4654   -2.2941 C   0  0  2  0  0  0  0  0  0  0  0  0
    4.6429   -6.4799   -1.7787 O   0  0  0  0  0  0  0  0  0  0  0  0
    4.4577   -4.0958   -2.2963 C   0  0  2  0  0  0  0  0  0  0  0  0
    5.3335   -3.9907   -1.1591 O   0  0  0  0  0  0  0  0  0  0  0  0
    0.2073   -1.3863   -2.0539 C   0  0  0  0  0  0  0  0  0  0  0  0
    0.6663   -1.9330   -0.7032 C   0  0  0  0  0  0  0  0  0  0  0  0
   -0.3543   -8.1516    0.5464 C   0  0  0  0  0  0  0  0  0  0  0  0
    0.5699   -7.2975    0.0734 C   0  0  0  0  0  0  0  0  0  0  0  0
  1  2  1  0
  2 26  1  0
  3  4  1  0
  3 25  1  0
  4  5  1  0
  5  6  1  0
  5  7  1  0
  8  7  1  6
  8  9  1  0
  8 23  1  0
  9 10  1  0
 10 21  1  0
 10 11  1  6
 11 12  1  0
 11 20  1  0
 12 13  2  0
 12 18  1  0
 13 14  1  0
 14 15  2  0
 15 16  1  0
 16 17  1  0
 16 18  2  0
 18 19  1  0
 19 20  2  0
 20 28  1  0
 21 22  1  1
 21 23  1  0
 23 24  1  1
 25 26  1  0
 27 28  2  0
M  END
>  <DRUGBANK_ID>  (1) 
DB08163

>  <COMMON_NAME>  (1) 
5'-{[4-(aminooxy)butyl](methyl)amino}-5'-deoxy-8-ethenyladenosine

$$$$
