
     RDKit          3D

 22 21  0  0  1  0  0  0  0  0999 V2000
    1.2693    0.1302    0.5930 N   0  0  0  0  0  0  0  0  0  0  0  0
    0.7839    1.4055    1.3108 C   0  0  1  0  0  0  0  0  0  0  0  0
    1.1899    2.5840    0.4851 C   0  0  0  0  0  0  0  0  0  0  0  0
    0.5718    2.6357   -0.9322 C   0  0  0  0  0  0  0  0  0  0  0  0
   -0.9657    2.5743   -1.1115 C   0  0  0  0  0  0  0  0  0  0  0  0
   -1.5620    3.6294   -1.3628 O   0  0  0  0  0  0  0  0  0  0  0  0
   -1.7282    1.4187   -0.9527 N   0  0  0  0  0  0  0  0  0  0  0  0
   -1.3869    0.0689   -0.4209 C   0  0  1  0  0  0  0  0  0  0  0  0
   -1.6124   -0.5327    1.1118 C   0  0  0  0  0  0  0  0  0  0  0  0
   -3.1705   -0.5919    2.2116 S   0  0  0  0  0  0  0  0  0  0  0  0
   -3.8372    0.8866    1.7459 N   0  0  0  0  0  0  0  0  0  0  0  0
   -5.0392    0.7773    1.4634 O   0  0  0  0  0  0  0  0  0  0  0  0
   -1.5716   -1.1171   -1.3458 C   0  0  0  0  0  0  0  0  0  0  0  0
   -0.6241   -1.6768   -1.8936 O   0  0  0  0  0  0  0  0  0  0  0  0
   -2.8440   -1.5972   -1.4266 N   0  0  0  0  0  0  0  0  0  0  0  0
   -3.9567   -0.9462   -0.7926 C   0  0  0  0  0  0  0  0  0  0  0  0
   -4.9726   -0.1634   -1.5680 C   0  0  0  0  0  0  0  0  0  0  0  0
   -6.2403   -0.4910   -1.2442 O   0  0  0  0  0  0  0  0  0  0  0  0
   -4.6751    0.7417   -2.3316 O   0  0  0  0  0  0  0  0  0  0  0  0
   -0.6975    1.8644    1.8407 C   0  0  0  0  0  0  0  0  0  0  0  0
   -0.8455    1.7005    3.1861 O   0  0  0  0  0  0  0  0  0  0  0  0
   -1.5949    2.3752    1.2616 O   0  0  0  0  0  0  0  0  0  0  0  0
  2  1  1  6
  2  3  1  0
  2 20  1  0
  3  4  1  0
  4  5  1  0
  5  6  2  0
  5  7  1  0
  8  7  1  0
  8  9  1  1
  8 13  1  0
  9 10  1  0
 10 11  1  0
 11 12  2  0
 13 14  2  0
 13 15  1  0
 15 16  1  0
 16 17  1  0
 17 18  1  0
 17 19  2  0
 20 21  1  0
 20 22  2  0
M  END
>  <DRUGBANK_ID>  (1) 
DB17877

>  <COMMON_NAME>  (1) 
S-Nitrosoglutathione

>  <CAS_NUMBER>  (1) 
57564-91-7

>  <UNII>  (1) 
78RRI89ZTO

>  <SYNONYMS>  (1) 
Glycine, n-(n-l-.gamma.-glutamyl-s-nitroso-l-cysteinyl)-; RVC 588 (peptide)

$$$$
