PM1
     RDKit          3D

 28 31  0  0  0  0  0  0  0  0999 V2000
   -2.1159   -0.6955   -0.0069 C   0  0  0  0  0  0  0  0  0  0  0  0
   -0.9399   -1.3447    0.0410 C   0  0  0  0  0  0  0  0  0  0  0  0
    0.2785   -0.6720    0.0120 N   0  0  0  0  0  0  0  0  0  0  0  0
    0.3404    0.7213   -0.0053 C   0  0  0  0  0  0  0  0  0  0  0  0
   -0.9005    1.4312   -0.0096 C   0  0  0  0  0  0  0  0  0  0  0  0
   -2.0691    0.7599   -0.0225 C   0  0  0  0  0  0  0  0  0  0  0  0
    1.5877   -1.1478   -0.0171 C   0  0  0  0  0  0  0  0  0  0  0  0
    2.3347    0.0141   -0.0080 C   0  0  0  0  0  0  0  0  0  0  0  0
    1.5851    1.1451   -0.0048 N   0  0  0  0  0  0  0  0  0  0  0  0
    2.1128   -2.5019   -0.0319 C   0  0  0  0  0  0  0  0  0  0  0  0
    1.2345   -3.6810   -0.1010 C   0  0  0  0  0  0  0  0  0  0  0  0
    0.3588   -3.8532   -1.1794 C   0  0  0  0  0  0  0  0  0  0  0  0
   -0.5912   -4.8650   -1.1192 C   0  0  0  0  0  0  0  0  0  0  0  0
   -0.5435   -5.8003   -0.0842 C   0  0  0  0  0  0  0  0  0  0  0  0
    0.3806   -5.6775    0.9501 C   0  0  0  0  0  0  0  0  0  0  0  0
    1.2534   -4.5956    0.9608 C   0  0  0  0  0  0  0  0  0  0  0  0
   -3.4310   -1.4190   -0.0307 C   0  0  0  0  0  0  0  0  0  0  0  0
   -3.4725   -2.8820    0.0395 C   0  0  0  0  0  0  0  0  0  0  0  0
   -2.9887   -3.5250    1.1732 C   0  0  0  0  0  0  0  0  0  0  0  0
   -3.0787   -4.9046    1.2937 C   0  0  0  0  0  0  0  0  0  0  0  0
   -3.7232   -5.6515    0.3048 C   0  0  0  0  0  0  0  0  0  0  0  0
   -4.1355   -5.0250   -0.8722 C   0  0  0  0  0  0  0  0  0  0  0  0
   -4.0029   -3.6409   -1.0020 C   0  0  0  0  0  0  0  0  0  0  0  0
   -4.5036   -0.8155   -0.0799 O   0  0  0  0  0  0  0  0  0  0  0  0
    3.3229   -2.7644    0.0365 O   0  0  0  0  0  0  0  0  0  0  0  0
    3.6652    0.0796   -0.0109 N   0  0  0  0  0  0  0  0  0  0  0  0
   -2.3443   -2.8389    2.1277 F   0  0  0  0  0  0  0  0  0  0  0  0
   -4.3139   -3.0759   -2.1771 F   0  0  0  0  0  0  0  0  0  0  0  0
  1  2  2  0
  1  6  1  0
  1 17  1  0
  2  3  1  0
  3  4  1  0
  3  7  1  0
  4  5  1  0
  4  9  2  0
  5  6  2  0
  7  8  2  0
  7 10  1  0
  8  9  1  0
  8 26  1  0
 10 11  1  0
 10 25  2  0
 11 12  2  0
 11 16  1  0
 12 13  1  0
 13 14  2  0
 14 15  1  0
 15 16  2  0
 17 18  1  0
 17 24  2  0
 18 19  2  0
 18 23  1  0
 19 20  1  0
 19 27  1  0
 20 21  2  0
 21 22  1  0
 22 23  2  0
 23 28  1  0
M  END
>  <DRUGBANK_ID>  (1) 
DB04006

>  <SECONDARY_ACCESSION_NUMBERS>  (1) 
EXPT02612

>  <COMMON_NAME>  (1) 
[2-Amino-6-(2,6-Difluoro-Benzoyl)-Imidazo[1,2-a]Pyridin-3-Yl]-Phenyl-Methanone

$$$$
