
     RDKit          3D

 30 33  0  0  1  0  0  0  0  0999 V2000
   -3.7274   -1.6681   -0.5896 C   0  0  0  0  0  0  0  0  0  0  0  0
   -2.4512   -2.1685    0.4419 C   0  0  1  0  0  0  0  0  0  0  0  0
   -1.9102   -4.0783    0.4941 C   0  0  0  0  0  0  0  0  0  0  0  0
   -2.1496   -3.5379   -0.6690 C   0  0  2  0  0  0  0  0  0  0  0  0
   -2.7099   -3.7985   -2.0064 C   0  0  2  0  0  0  0  0  0  0  0  0
   -3.8903   -4.7759   -1.9868 C   0  0  0  0  0  0  0  0  0  0  0  0
   -4.7149   -4.4418   -3.2073 C   0  0  0  0  0  0  0  0  0  0  0  0
   -3.7692   -4.4897   -4.3791 C   0  0  0  0  0  0  0  0  0  0  0  0
   -4.0297   -5.3462   -5.3747 C   0  0  0  0  0  0  0  0  0  0  0  0
   -3.1735   -5.4522   -6.5641 C   0  0  0  0  0  0  0  0  0  0  0  0
   -3.3724   -6.2972   -7.4231 O   0  0  0  0  0  0  0  0  0  0  0  0
   -2.0923   -4.4702   -6.7198 C   0  0  0  0  0  0  0  0  0  0  0  0
   -1.6606   -3.8900   -5.5965 C   0  0  0  0  0  0  0  0  0  0  0  0
   -2.5332   -3.5389   -4.3917 C   0  0  2  0  0  0  0  0  0  0  0  0
   -1.6284   -3.7546   -2.9648 C   0  0  1  0  0  0  0  0  0  0  0  0
   -0.2564   -2.8123   -2.1850 C   0  0  0  0  0  0  0  0  0  0  0  0
    0.3696   -1.7727   -2.4246 O   0  0  0  0  0  0  0  0  0  0  0  0
    0.4315   -3.1076   -0.9804 C   0  0  0  0  0  0  0  0  0  0  0  0
   -0.6901   -2.6543   -0.1758 C   0  0  1  0  0  0  0  0  0  0  0  0
   -1.2399   -1.2796   -0.1834 C   0  0  1  0  0  0  0  0  0  0  0  0
   -0.9563   -0.2739   -1.6000 C   0  0  0  0  0  0  0  0  0  0  0  0
   -0.3343    0.7948   -1.4248 O   0  0  0  0  0  0  0  0  0  0  0  0
   -1.1911   -0.7218   -3.2776 C   0  0  0  0  0  0  0  0  0  0  0  0
   -0.4639   -1.9857   -4.2919 O   0  0  0  0  0  0  0  0  0  0  0  0
    0.8741   -2.7796   -4.2562 C   0  0  0  0  0  0  0  0  0  0  0  0
    1.9681   -2.2101   -4.1733 O   0  0  0  0  0  0  0  0  0  0  0  0
    0.9107   -4.4116   -3.7758 C   0  0  0  0  0  0  0  0  0  0  0  0
   -0.6539   -0.5000    0.8689 O   0  0  0  0  0  0  0  0  0  0  0  0
   -0.0198   -2.9264    1.2979 C   0  0  0  0  0  0  0  0  0  0  0  0
   -3.2273   -2.1603   -4.6728 C   0  0  0  0  0  0  0  0  0  0  0  0
  2  3  1  0
  2 20  1  0
  2  1  1  6
  4  3  1  6
  4  5  1  0
  4 19  1  0
  5  6  1  1
  5 15  1  0
  6  7  1  0
  7  8  1  0
  8  9  2  0
  8 14  1  0
  9 10  1  0
 10 11  2  0
 10 12  1  0
 12 13  2  0
 13 14  1  0
 14 15  1  0
 14 30  1  6
 15 16  1  1
 16 17  2  0
 16 18  1  0
 18 19  1  0
 19 20  1  0
 19 29  1  1
 20 21  1  0
 20 28  1  1
 21 22  2  0
 21 23  1  0
 23 24  1  0
 24 25  1  0
 25 26  2  0
 25 27  1  0
M  END
>  <DRUGBANK_ID>  (1) 
DB14625

>  <SECONDARY_ACCESSION_NUMBERS>  (1) 
DBSALT002263

>  <COMMON_NAME>  (1) 
Meprednisone acetate

>  <CAS_NUMBER>  (1) 
1106-03-2

>  <UNII>  (1) 
14GPV9B997

>  <SYNONYMS>  (1) 
Meprednisone 21-acetate

$$$$
