659
     RDKit          3D

 11 10  0  0  0  0  0  0  0  0999 V2000
    0.9528   -0.0754    0.0292 S   0  0  0  0  0  0  0  0  0  0  0  0
    0.5344    1.0597    1.1001 O   0  0  0  0  0  0  0  0  0  0  0  0
    0.5064    0.3518   -1.2713 O   0  0  0  0  0  0  0  0  0  0  0  0
    0.5635   -1.3391    0.6197 O   0  0  0  0  0  0  0  0  0  0  0  0
    4.5275    2.8622    3.7823 O   0  0  0  0  0  0  0  0  0  0  0  0
    3.3778    2.3289    1.9330 N   0  0  0  0  0  0  0  0  0  0  0  0
    3.2923    1.4027   -0.3364 C   0  0  0  0  0  0  0  0  0  0  0  0
    2.7427    0.0502    0.0991 C   0  0  0  0  0  0  0  0  0  0  0  0
    2.8908    2.5451    0.5821 C   0  0  0  0  0  0  0  0  0  0  0  0
    4.1643    3.1785    2.6535 C   0  0  0  0  0  0  0  0  0  0  0  0
    4.5452    4.4745    2.0005 C   0  0  0  0  0  0  0  0  0  0  0  0
  1  2  1  0
  1  3  2  0
  1  4  2  0
  1  8  1  0
  5 10  2  0
  6  9  1  0
  6 10  1  0
  7  8  1  0
  7  9  1  0
 10 11  1  0
M  END
>  <DRUGBANK_ID>  (1) 
DB00659

>  <SECONDARY_ACCESSION_NUMBERS>  (1) 
APRD00661

>  <COMMON_NAME>  (1) 
Acamprosate

>  <CAS_NUMBER>  (1) 
77337-76-9

>  <UNII>  (1) 
N4K14YGM3J

>  <SYNONYMS>  (1) 
3-Acetamido-1-propanesulfonic acid; Acamprosate; Acamprosato; Acamprosatum; N-acetyl homotaurine; N-Acetylhomotaurine

$$$$
