
     RDKit          3D

 23 26  0  0  0  0  0  0  0  0999 V2000
    1.4499    0.0727   -0.0094 C   0  0  0  0  0  0  0  0  0  0  0  0
    0.6814    1.2265    0.0022 C   0  0  0  0  0  0  0  0  0  0  0  0
   -0.6966    1.0914    0.0101 C   0  0  0  0  0  0  0  0  0  0  0  0
   -1.3373   -0.1004    0.0354 N   0  0  0  0  0  0  0  0  0  0  0  0
   -0.5709   -1.2273    0.0511 C   0  0  0  0  0  0  0  0  0  0  0  0
    0.8193   -1.1674   -0.0032 C   0  0  0  0  0  0  0  0  0  0  0  0
   -1.3117   -2.5442    0.0632 C   0  0  0  0  0  0  0  0  0  0  0  0
   -2.5394   -2.5820   -0.0196 O   0  0  0  0  0  0  0  0  0  0  0  0
   -0.5472   -3.7809    0.0605 C   0  0  0  0  0  0  0  0  0  0  0  0
   -0.6143   -4.8143   -0.8904 C   0  0  0  0  0  0  0  0  0  0  0  0
    0.2417   -5.8064   -0.6510 N   0  0  0  0  0  0  0  0  0  0  0  0
    0.8517   -5.4662    0.5155 N   0  0  0  0  0  0  0  0  0  0  0  0
    0.3829   -4.2247    0.9845 C   0  0  0  0  0  0  0  0  0  0  0  0
    0.8451   -3.6685    2.1470 N   0  0  0  0  0  0  0  0  0  0  0  0
    1.7458   -4.3503    2.7862 C   0  0  0  0  0  0  0  0  0  0  0  0
    2.3317   -5.6494    2.3630 C   0  0  0  0  0  0  0  0  0  0  0  0
    1.8385   -6.1807    1.2272 C   0  0  0  0  0  0  0  0  0  0  0  0
    2.3132   -7.5091    0.7791 C   0  0  0  0  0  0  0  0  0  0  0  0
    2.1605   -8.6197    1.6162 C   0  0  0  0  0  0  0  0  0  0  0  0
    2.5452   -9.8671    1.1509 C   0  0  0  0  0  0  0  0  0  0  0  0
    3.0842  -10.0790   -0.0660 N   0  0  0  0  0  0  0  0  0  0  0  0
    3.2301   -8.9969   -0.8597 C   0  0  0  0  0  0  0  0  0  0  0  0
    2.8667   -7.7095   -0.4887 C   0  0  0  0  0  0  0  0  0  0  0  0
  1  2  2  0
  1  6  1  0
  2  3  1  0
  3  4  2  0
  4  5  1  0
  5  6  2  0
  5  7  1  0
  7  8  2  0
  7  9  1  0
  9 10  1  0
  9 13  2  0
 10 11  2  0
 11 12  1  0
 12 13  1  0
 12 17  1  0
 13 14  1  0
 14 15  2  0
 15 16  1  0
 16 17  2  0
 17 18  1  0
 18 19  2  0
 18 23  1  0
 19 20  1  0
 20 21  2  0
 21 22  1  0
 22 23  2  0
M  END
>  <DRUGBANK_ID>  (1) 
DB06529

>  <COMMON_NAME>  (1) 
Ocinaplon

>  <CAS_NUMBER>  (1) 
96604-21-6

>  <UNII>  (1) 
2H6KVC5E76

>  <SYNONYMS>  (1) 
Ocinaplon

$$$$
