
     RDKit          3D

 31 34  0  0  0  0  0  0  0  0999 V2000
    1.0267   -0.1359   -0.4929 S   0  0  0  0  0  0  0  0  0  0  0  0
    2.6501    0.0713   -0.1046 C   0  0  0  0  0  0  0  0  0  0  0  0
    3.2020    0.9598    0.7904 N   0  0  0  0  0  0  0  0  0  0  0  0
    2.4830    1.7656    1.7035 C   0  0  0  0  0  0  0  0  0  0  0  0
    1.3998    1.2177    2.3651 C   0  0  0  0  0  0  0  0  0  0  0  0
    0.7486    1.8311    3.4382 C   0  0  0  0  0  0  0  0  0  0  0  0
   -0.2506    0.8402    3.9800 C   0  0  0  0  0  0  0  0  0  0  0  0
   -1.1428    1.4156    4.7429 O   0  0  0  0  0  0  0  0  0  0  0  0
   -0.2801   -0.3803    3.7967 O   0  0  0  0  0  0  0  0  0  0  0  0
    2.9524    3.0037    2.1234 C   0  0  0  0  0  0  0  0  0  0  0  0
    2.3351    3.6686    3.2149 C   0  0  0  0  0  0  0  0  0  0  0  0
    1.2904    3.0560    3.9795 C   0  0  0  0  0  0  0  0  0  0  0  0
    1.3515    3.3815    5.5405 C   0  0  0  0  0  0  0  0  0  0  0  0
    2.4879    2.7687    6.0616 C   0  0  0  0  0  0  0  0  0  0  0  0
    2.1906    1.3259    6.2095 C   0  0  0  0  0  0  0  0  0  0  0  0
    1.0923    1.0078    6.9956 O   0  0  0  0  0  0  0  0  0  0  0  0
    2.7062    0.4813    5.2827 C   0  0  0  0  0  0  0  0  0  0  0  0
    3.8596    3.0490    5.5607 C   0  0  0  0  0  0  0  0  0  0  0  0
    4.4533    2.2209    4.6827 C   0  0  0  0  0  0  0  0  0  0  0  0
    3.8480    0.8960    4.4056 C   0  0  0  0  0  0  0  0  0  0  0  0
    4.2778    0.1947    3.4959 O   0  0  0  0  0  0  0  0  0  0  0  0
    0.1406    3.2188    6.5067 C   0  0  0  0  0  0  0  0  0  0  0  0
    0.1279    1.9973    7.2498 C   0  0  0  0  0  0  0  0  0  0  0  0
   -1.0524    1.4753    7.8313 C   0  0  0  0  0  0  0  0  0  0  0  0
   -1.1142    3.8956    6.4147 C   0  0  0  0  0  0  0  0  0  0  0  0
   -2.2715    3.4140    7.1012 C   0  0  0  0  0  0  0  0  0  0  0  0
   -2.2416    2.1894    7.7646 C   0  0  0  0  0  0  0  0  0  0  0  0
   -3.4194    1.6741    8.2318 O   0  0  0  0  0  0  0  0  0  0  0  0
    3.4905   -0.6622   -0.8751 N   0  0  0  0  0  0  0  0  0  0  0  0
    4.9345   -0.7144   -0.9538 C   0  0  0  0  0  0  0  0  0  0  0  0
    5.4197   -2.1435   -0.8099 C   0  0  0  0  0  0  0  0  0  0  0  0
  2  1  2  0
  2 29  1  0
  2  3  1  0
  4  3  1  0
  4  5  2  0
  5  6  1  0
  6  7  1  0
  7  8  1  0
  7  9  2  0
 10  4  1  0
 11 10  2  0
 12  6  2  0
 12 11  1  0
 13 12  1  0
 13 14  2  0
 13 22  1  0
 15 14  1  0
 15 16  1  0
 15 17  2  0
 17 20  1  0
 18 14  1  0
 19 18  2  0
 20 19  1  0
 20 21  2  0
 22 23  2  0
 22 25  1  0
 23 16  1  0
 24 23  1  0
 25 26  2  0
 27 24  2  0
 27 26  1  0
 27 28  1  0
 30 29  1  0
 30 31  1  0
M  END
>  <DRUGBANK_ID>  (1) 
DB02455

>  <SECONDARY_ACCESSION_NUMBERS>  (1) 
EXPT01443

>  <COMMON_NAME>  (1) 
Fluoresceinylthioureido

$$$$
