
     RDKit          3D

 18 19  0  0  1  0  0  0  0  0999 V2000
    2.2015    4.6216    8.8760 N   0  0  0  0  0  0  0  0  0  0  0  0
    2.4871    3.8024    7.8485 C   0  0  0  0  0  0  0  0  0  0  0  0
    2.9021    4.3055    6.7365 N   0  0  0  0  0  0  0  0  0  0  0  0
    3.1892    3.4208    5.7004 C   0  0  0  0  0  0  0  0  0  0  0  0
    3.0667    2.0386    5.7780 C   0  0  0  0  0  0  0  0  0  0  0  0
    3.3745    1.1892    4.7583 N   0  0  0  0  0  0  0  0  0  0  0  0
    3.8418    1.7952    3.6337 C   0  0  0  0  0  0  0  0  0  0  0  0
    3.9257    3.1914    3.5687 C   0  0  0  0  0  0  0  0  0  0  0  0
    3.6095    4.0234    4.5786 N   0  0  0  0  0  0  0  0  0  0  0  0
    4.2846    0.9198    2.4754 C   0  0  2  0  0  0  0  0  0  0  0  0
    5.4990    0.2344    2.8255 O   0  0  0  0  0  0  0  0  0  0  0  0
    4.5195    1.7038    1.1657 C   0  0  2  0  0  0  0  0  0  0  0  0
    4.4108    0.7960    0.0573 O   0  0  0  0  0  0  0  0  0  0  0  0
    5.9248    2.3347    1.1176 C   0  0  0  0  0  0  0  0  0  0  0  0
    6.0169    3.1939   -0.0158 O   0  0  0  0  0  0  0  0  0  0  0  0
    2.5747    1.5070    7.0657 C   0  0  0  0  0  0  0  0  0  0  0  0
    2.3922    0.3209    7.2867 O   0  0  0  0  0  0  0  0  0  0  0  0
    2.3207    2.4623    8.0328 N   0  0  0  0  0  0  0  0  0  0  0  0
  1  2  1  0
  2  3  2  0
  2 18  1  0
  3  4  1  0
  4  5  2  0
  4  9  1  0
  5  6  1  0
  5 16  1  0
  6  7  2  0
  7  8  1  0
  8  9  2  0
 10 11  1  1
 10  7  1  0
 12 14  1  0
 12 13  1  6
 12 10  1  0
 14 15  1  0
 16 17  2  0
 16 18  1  0
M  END
>  <DRUGBANK_ID>  (1) 
DB15050

>  <COMMON_NAME>  (1) 
Neopterin

>  <CAS_NUMBER>  (1) 
2009-64-5

>  <UNII>  (1) 
9PLD60N7SO

$$$$
