
     RDKit          3D

 10 10  0  0  0  0  0  0  0  0999 V2000
    1.8215    0.0035    0.0737 C   0  0  0  0  0  0  0  0  0  0  0  0
    1.0990    1.1817    0.0023 C   0  0  0  0  0  0  0  0  0  0  0  0
   -0.2880    1.1299   -0.0610 C   0  0  0  0  0  0  0  0  0  0  0  0
    1.1436   -1.2043    0.0110 C   0  0  0  0  0  0  0  0  0  0  0  0
   -0.9530   -0.0542   -0.0468 N   0  0  0  0  0  0  0  0  0  0  0  0
   -2.4212   -0.0223    0.0913 C   0  0  0  0  0  0  0  0  0  0  0  0
   -0.2546   -1.2248   -0.0679 C   0  0  0  0  0  0  0  0  0  0  0  0
   -0.9429   -2.5285   -0.1993 C   0  0  0  0  0  0  0  0  0  0  0  0
   -0.2631   -3.6338   -0.2329 N   0  0  0  0  0  0  0  0  0  0  0  0
   -1.1356   -4.7139   -0.3845 O   0  0  0  0  0  0  0  0  0  0  0  0
  1  2  2  0
  1  4  1  0
  2  3  1  0
  3  5  2  0
  5  7  1  0
  5  6  1  0
  7  4  2  0
  7  8  1  0
  8  9  2  0
  9 10  1  0
M  CHG  1   5   1
M  END
>  <DRUGBANK_ID>  (1) 
DB00733

>  <SECONDARY_ACCESSION_NUMBERS>  (1) 
APRD01193

>  <COMMON_NAME>  (1) 
Pralidoxime

>  <CAS_NUMBER>  (1) 
6735-59-7

>  <UNII>  (1) 
P7MU9UTP52

>  <SYNONYMS>  (1) 
2-PAM; Pralidoxim; Pralidoxima; Pralidoxime; Pralidoximum

$$$$
