
     RDKit          3D

 39 42  0  0  1  0  0  0  0  0999 V2000
    1.6855    3.8527   -0.2783 C   0  0  0  0  0  0  0  0  0  0  0  0
    1.6482    3.4314   -1.6589 N   0  0  0  0  0  0  0  0  0  0  0  0
    2.3865    2.2230   -2.0375 C   0  0  1  0  0  0  0  0  0  0  0  0
    1.9212    1.0082   -1.2408 C   0  0  0  0  0  0  0  0  0  0  0  0
    2.2344    1.9690   -3.5731 C   0  0  0  0  0  0  0  0  0  0  0  0
    3.2079    1.9659   -4.3245 O   0  0  0  0  0  0  0  0  0  0  0  0
    1.0047    1.7121   -4.1194 N   0  0  0  0  0  0  0  0  0  0  0  0
   -0.3228    1.9500   -3.5621 C   0  0  2  0  0  0  0  0  0  0  0  0
   -1.2162    0.6727   -3.8483 C   0  0  0  0  0  0  0  0  0  0  0  0
   -0.7957   -0.2899   -4.4408 O   0  0  0  0  0  0  0  0  0  0  0  0
   -2.4332    0.6453   -3.1900 N   0  0  0  0  0  0  0  0  0  0  0  0
   -3.3201    1.7327   -2.9680 C   0  0  0  0  0  0  0  0  0  0  0  0
   -4.1361    1.4861   -1.8038 C   0  0  2  0  0  0  0  0  0  0  0  0
   -4.3010    0.0903   -2.1600 C   0  0  0  0  0  0  0  0  0  0  0  0
   -3.1212   -0.5698   -2.8086 C   0  0  1  0  0  0  0  0  0  0  0  0
   -3.8066   -1.5313   -3.7789 C   0  0  0  0  0  0  0  0  0  0  0  0
   -3.3469   -1.7401   -4.9265 O   0  0  0  0  0  0  0  0  0  0  0  0
   -5.0021   -2.1460   -3.4515 N   0  0  0  0  0  0  0  0  0  0  0  0
   -5.7733   -2.5459   -2.1623 C   0  0  2  0  0  0  0  0  0  0  0  0
   -7.2989   -2.6071   -2.4696 C   0  0  0  0  0  0  0  0  0  0  0  0
   -7.9728   -1.2544   -2.4282 C   0  0  0  0  0  0  0  0  0  0  0  0
   -7.7699   -0.5315   -1.0911 C   0  0  0  0  0  0  0  0  0  0  0  0
   -6.4276   -0.7361   -0.3930 C   0  0  0  0  0  0  0  0  0  0  0  0
   -5.9429    0.3026    0.4841 C   0  0  0  0  0  0  0  0  0  0  0  0
   -4.6065    0.3097    0.9679 C   0  0  0  0  0  0  0  0  0  0  0  0
   -3.7419   -0.7701    0.6475 C   0  0  0  0  0  0  0  0  0  0  0  0
   -4.2286   -1.8762   -0.1568 C   0  0  0  0  0  0  0  0  0  0  0  0
   -5.5408   -1.8124   -0.7793 C   0  0  0  0  0  0  0  0  0  0  0  0
   -5.2648    2.3389   -1.6756 O   0  0  0  0  0  0  0  0  0  0  0  0
   -6.2319    2.2109   -2.6333 C   0  0  0  0  0  0  0  0  0  0  0  0
   -6.0713    1.4819   -3.8211 C   0  0  0  0  0  0  0  0  0  0  0  0
   -7.1045    1.0539   -4.6036 C   0  0  0  0  0  0  0  0  0  0  0  0
   -8.3728    1.3913   -4.2094 C   0  0  0  0  0  0  0  0  0  0  0  0
   -8.5686    2.1879   -3.0695 C   0  0  0  0  0  0  0  0  0  0  0  0
   -7.4955    2.6532   -2.2982 C   0  0  0  0  0  0  0  0  0  0  0  0
   -0.8202    3.3829   -3.9776 C   0  0  0  0  0  0  0  0  0  0  0  0
   -1.9670    3.8403   -3.1518 C   0  0  0  0  0  0  0  0  0  0  0  0
    0.0023    4.6140   -3.6433 C   0  0  0  0  0  0  0  0  0  0  0  0
   -1.2814    3.3042   -5.4343 C   0  0  0  0  0  0  0  0  0  0  0  0
  1  2  1  0
  2  3  1  0
  3  4  1  1
  3  5  1  0
  5  6  2  0
  5  7  1  0
  8 36  1  0
  8  9  1  0
  8  7  1  6
  9 10  2  0
  9 11  1  0
 11 12  1  0
 11 15  1  0
 12 13  1  0
 13 14  1  0
 13 29  1  6
 14 15  1  0
 15 16  1  6
 16 17  2  0
 16 18  1  0
 19 18  1  6
 19 20  1  0
 19 28  1  0
 20 21  1  0
 21 22  1  0
 22 23  1  0
 23 24  2  0
 23 28  1  0
 24 25  1  0
 25 26  2  0
 26 27  1  0
 27 28  2  0
 29 30  1  0
 30 31  2  0
 30 35  1  0
 31 32  1  0
 32 33  2  0
 33 34  1  0
 34 35  2  0
 36 37  1  0
 36 38  1  0
 36 39  1  0
M  END
>  <DRUGBANK_ID>  (1) 
DB04612

>  <COMMON_NAME>  (1) 
N-METHYLALANYL-3-METHYLVALYL-4-PHENOXY-N-(1,2,3,4-TETRAHYDRONAPHTHALEN-1-YL)PROLINAMIDE

$$$$
