
     RDKit          3D

 34 37  0  0  1  0  0  0  0  0999 V2000
    2.3867    0.1495    0.0048 C   0  0  0  0  0  0  0  0  0  0  0  0
    0.8473    0.2004    0.0782 C   0  0  0  0  0  0  0  0  0  0  0  0
    0.0091    1.5211    0.0646 C   0  0  0  0  0  0  0  0  0  0  0  0
   -1.4665    1.6040    0.0432 C   0  0  0  0  0  0  0  0  0  0  0  0
   -1.9187    0.2402    0.0468 C   0  0  0  0  0  0  0  0  0  0  0  0
   -1.1615   -1.0068    0.0704 C   0  0  0  0  0  0  0  0  0  0  0  0
    0.2263   -1.0651    0.1120 C   0  0  0  0  0  0  0  0  0  0  0  0
    0.9391   -2.4223    0.0117 C   0  0  0  0  0  0  0  0  0  0  0  0
    0.6205   -3.4007    1.0412 N   0  0  0  0  0  0  0  0  0  0  0  0
   -0.0182   -4.5973    0.9377 C   0  0  0  0  0  0  0  0  0  0  0  0
   -0.4630   -5.0911    1.9908 O   0  0  0  0  0  0  0  0  0  0  0  0
   -0.2451   -5.1428   -0.2909 N   0  0  0  0  0  0  0  0  0  0  0  0
    0.6601   -5.1908   -1.4296 C   0  0  0  0  0  0  0  0  0  0  0  0
   -0.2970   -5.1119   -2.5968 C   0  0  0  0  0  0  0  0  0  0  0  0
   -1.4155   -6.0367   -2.1477 C   0  0  0  0  0  0  0  0  0  0  0  0
   -1.4515   -5.9455   -0.5980 C   0  0  1  0  0  0  0  0  0  0  0  0
   -1.4764   -7.3765    0.0276 C   0  0  0  0  0  0  0  0  0  0  0  0
   -0.5974   -7.7574    0.8070 O   0  0  0  0  0  0  0  0  0  0  0  0
   -2.5220   -8.2417   -0.3205 N   0  0  0  0  0  0  0  0  0  0  0  0
   -3.5967   -7.9701   -1.2616 C   0  0  0  0  0  0  0  0  0  0  0  0
   -2.5182   -9.5663    0.2842 C   0  0  0  0  0  0  0  0  0  0  0  0
   -2.9207    2.6744   -0.0568 C   0  0  0  0  0  0  0  0  0  0  0  0
   -3.9358    2.0128   -0.4061 O   0  0  0  0  0  0  0  0  0  0  0  0
   -3.3520    4.2247    0.2223 N   0  0  0  0  0  0  0  0  0  0  0  0
   -4.6590    4.8350    1.4549 C   0  0  0  0  0  0  0  0  0  0  0  0
   -4.1352    5.3900    3.2053 C   0  0  0  0  0  0  0  0  0  0  0  0
   -3.0793    4.4533    3.7105 C   0  0  0  0  0  0  0  0  0  0  0  0
   -2.7268    3.9918    2.3935 C   0  0  0  0  0  0  0  0  0  0  0  0
   -2.3593    5.5230    1.4568 C   0  0  0  0  0  0  0  0  0  0  0  0
   -2.0832    5.0055    0.2554 C   0  0  0  0  0  0  0  0  0  0  0  0
   -1.6500    5.9401   -0.7460 C   0  0  0  0  0  0  0  0  0  0  0  0
   -2.0808    7.2787   -0.8565 C   0  0  0  0  0  0  0  0  0  0  0  0
   -3.0169    7.6684    0.0472 C   0  0  0  0  0  0  0  0  0  0  0  0
   -3.1234    6.8333    1.1709 C   0  0  0  0  0  0  0  0  0  0  0  0
  1  2  1  0
  2  3  2  0
  2  7  1  0
  3  4  1  0
  4  5  2  0
  4 22  1  0
  5  6  1  0
  6  7  2  0
  7  8  1  0
  8  9  1  0
  9 10  1  0
 10 11  2  0
 10 12  1  0
 12 13  1  0
 12 16  1  0
 13 14  1  0
 14 15  1  0
 15 16  1  0
 16 17  1  1
 17 18  2  0
 17 19  1  0
 19 20  1  0
 19 21  1  0
 22 23  2  0
 22 24  1  0
 24 25  1  0
 24 30  1  0
 25 26  1  0
 26 27  1  0
 27 28  1  0
 28 29  1  0
 29 30  2  0
 29 34  1  0
 30 31  1  0
 31 32  2  0
 32 33  1  0
 33 34  2  0
M  END
>  <DRUGBANK_ID>  (1) 
DB11734

>  <COMMON_NAME>  (1) 
Fedovapagon

>  <CAS_NUMBER>  (1) 
347887-36-9

>  <UNII>  (1) 
VX2GBO4I0V

>  <SYNONYMS>  (1) 
Fedovapagon

$$$$
