
     RDKit          3D

 11 10  0  0  0  0  0  0  0  0999 V2000
    0.8361   -0.1564   -0.1924 S   0  0  0  0  0  0  0  0  0  0  0  0
    1.0816    2.6678    0.5115 C   0  0  0  0  0  0  0  0  0  0  0  0
    0.5963    1.6437   -0.5177 C   0  0  0  0  0  0  0  0  0  0  0  0
    2.8281    3.1007    0.5228 S   0  0  0  0  0  0  0  0  0  0  0  0
    3.3750    2.9183   -0.8100 O   0  0  0  0  0  0  0  0  0  0  0  0
    3.0303    4.3073    1.2740 O   0  0  0  0  0  0  0  0  0  0  0  0
    2.6236   -0.2918   -0.3129 C   0  0  0  0  0  0  0  0  0  0  0  0
    3.2479   -1.5688    0.1768 C   0  0  0  0  0  0  0  0  0  0  0  0
    4.1226   -2.1371   -0.4796 O   0  0  0  0  0  0  0  0  0  0  0  0
    2.9651   -1.9672    1.6108 C   0  0  0  0  0  0  0  0  0  0  0  0
    3.4814    1.9374    1.4287 O   0  0  0  0  0  0  0  0  0  0  0  0
  1  3  1  0
  3  2  1  0
  4  2  1  0
  4 11  1  0
  5  4  2  0
  6  4  2  0
  7  1  1  0
  8  7  1  0
  8  9  2  0
  8 10  1  0
M  END
>  <DRUGBANK_ID>  (1) 
DB03163

>  <SECONDARY_ACCESSION_NUMBERS>  (1) 
EXPT01980

>  <COMMON_NAME>  (1) 
2-oxopropyl-CoM

>  <SYNONYMS>  (1) 
2-(2-Oxopropylthio)ethanesulfonate; 2-[(2-Oxopropyl)sulfanyl]ethanesulfonic acid; 2-ketopropyl-CoM

$$$$
