
     RDKit          3D

 19 21  0  0  0  0  0  0  0  0999 V2000
    1.1912   -0.1412    0.1628 O   0  0  0  0  0  0  0  0  0  0  0  0
   -3.0100   -1.2025   -1.7028 O   0  0  0  0  0  0  0  0  0  0  0  0
   -2.7215   -1.1327    4.1952 O   0  0  0  0  0  0  0  0  0  0  0  0
   -0.6846   -2.9822    0.8835 N   0  0  1  0  0  0  0  0  0  0  0  0
   -4.1304   -3.1324    2.0567 N   0  0  0  0  0  0  0  0  0  0  0  0
   -5.0616   -3.6432    5.4133 N   0  0  0  0  0  0  0  0  0  0  0  0
   -4.4888   -1.4415    5.5317 N   0  0  0  0  0  0  0  0  0  0  0  0
   -0.8901   -0.9599   -0.5658 C   0  0  1  0  0  0  0  0  0  0  0  0
   -1.3536   -1.6163    0.7168 C   0  0  0  0  0  0  0  0  0  0  0  0
    0.7855   -2.6006    0.1985 C   0  0  0  0  0  0  0  0  0  0  0  0
    0.5965   -1.2204   -0.5671 C   0  0  2  0  0  0  0  0  0  0  0  0
   -0.9548   -3.7994    2.5530 C   0  0  0  0  0  0  0  0  0  0  0  0
   -2.5325   -3.9902    3.5035 C   0  0  0  0  0  0  0  0  0  0  0  0
   -4.3136   -3.7999    4.0849 C   0  0  2  0  0  0  0  0  0  0  0  0
   -1.6226   -1.4977   -1.7875 C   0  0  0  0  0  0  0  0  0  0  0  0
   -4.6682   -2.5543    3.2982 C   0  0  1  0  0  0  0  0  0  0  0  0
   -2.8582   -3.3137    2.3963 C   0  0  0  0  0  0  0  0  0  0  0  0
   -3.8591   -1.5768    4.3176 C   0  0  0  0  0  0  0  0  0  0  0  0
   -5.2615   -2.4545    5.9386 C   0  0  0  0  0  0  0  0  0  0  0  0
  2 15  1  0
  3 18  2  0
  4  9  1  0
  4 10  1  0
  4 12  1  1
 16  5  1  6
  5 17  1  0
 14  6  1  1
  6 19  2  0
  7 18  1  0
  7 19  1  0
  8  9  1  0
  8 11  1  0
  8 15  1  6
 10 11  1  0
 11  1  1  1
 12 13  1  0
 13 14  1  0
 13 17  2  0
 14 16  1  0
 16 18  1  0
M  CHG  1   4   1
M  END
>  <DRUGBANK_ID>  (1) 
DB03551

>  <SECONDARY_ACCESSION_NUMBERS>  (1) 
EXPT01206

>  <COMMON_NAME>  (1) 
(3R,4R)-3-Hydroxy-4-(hydroxymethyl)-1-[(4-oxo-4,4a,5,7a-tetrahydro-3H-pyrrolo[3,2-d]pyrimidin-7-yl)methyl]pyrrolidinium

$$$$
