
     RDKit          3D

 12 11  0  0  0  0  0  0  0  0999 V2000
    1.1455   -0.0721    0.0659 C   0  0  0  0  0  0  0  0  0  0  0  0
    0.6000   -1.3963   -0.4730 C   0  0  0  0  0  0  0  0  0  0  0  0
    1.0811   -2.5581    0.3834 C   0  0  0  0  0  0  0  0  0  0  0  0
   -0.9359   -1.3716   -0.5746 C   0  0  0  0  0  0  0  0  0  0  0  0
   -1.4655   -0.2365   -1.4652 C   0  0  0  0  0  0  0  0  0  0  0  0
   -1.0266   -0.3861   -2.9319 C   0  0  0  0  0  0  0  0  0  0  0  0
   -1.7472   -0.6063   -3.8963 O   0  0  0  0  0  0  0  0  0  0  0  0
    0.3068   -0.2553   -3.1017 O   0  0  0  0  0  0  0  0  0  0  0  0
   -2.9220   -0.1580   -1.3469 N   0  0  0  0  0  0  0  0  0  0  0  0
   -3.6596    0.9086   -0.9183 C   0  0  0  0  0  0  0  0  0  0  0  0
   -4.8868    0.8579   -0.9446 O   0  0  0  0  0  0  0  0  0  0  0  0
   -2.9245    2.1178   -0.3997 C   0  0  0  0  0  0  0  0  0  0  0  0
  1  2  1  0
  2  3  1  0
  2  4  1  0
  4  5  1  0
  5  6  1  0
  5  9  1  0
  6  7  2  0
  6  8  1  0
  9 10  1  0
 10 11  2  0
 10 12  1  0
M  END
>  <DRUGBANK_ID>  (1) 
DB13226

>  <COMMON_NAME>  (1) 
Acetylleucine

>  <CAS_NUMBER>  (1) 
99-15-0

>  <UNII>  (1) 
K76S41V71X

>  <SYNONYMS>  (1) 
(R,S)-N-Acetylleucin; Acetileucina; Acetylleucine; Acetylleucinum; N-Acetyl-DL-Leucine

$$$$
