
     RDKit          3D

 18 19  0  0  1  0  0  0  0  0999 V2000
    0.9992   -0.0679    0.1056 O   0  0  0  0  0  0  0  0  0  0  0  0
    0.5436   -1.2124   -0.6103 C   0  0  0  0  0  0  0  0  0  0  0  0
    1.0299   -1.1681   -2.0620 C   0  0  1  0  0  0  0  0  0  0  0  0
    0.6904   -2.3796   -2.7618 O   0  0  0  0  0  0  0  0  0  0  0  0
    0.0097   -2.0641   -3.9806 C   0  0  2  0  0  0  0  0  0  0  0  0
    0.2936   -0.5884   -4.2249 C   0  0  0  0  0  0  0  0  0  0  0  0
    0.4341    0.0098   -2.8359 C   0  0  2  0  0  0  0  0  0  0  0  0
    1.3614    1.1453   -2.9556 N   0  0  0  0  0  0  0  0  0  0  0  0
    1.4101    2.0095   -2.0558 N   0  0  0  0  0  0  0  0  0  0  0  0
    1.5262    2.8343   -1.2835 N   0  0  0  0  0  0  0  0  0  0  0  0
   -1.4340   -2.3878   -3.9397 N   0  0  0  0  0  0  0  0  0  0  0  0
   -2.1994   -2.0864   -5.0635 C   0  0  0  0  0  0  0  0  0  0  0  0
   -3.5338   -2.1389   -5.0522 C   0  0  0  0  0  0  0  0  0  0  0  0
   -4.2047   -2.6723   -3.8611 C   0  0  0  0  0  0  0  0  0  0  0  0
   -5.4222   -2.6326   -3.7433 O   0  0  0  0  0  0  0  0  0  0  0  0
   -3.3759   -3.2195   -2.9311 N   0  0  0  0  0  0  0  0  0  0  0  0
   -2.0291   -2.9790   -2.8260 C   0  0  0  0  0  0  0  0  0  0  0  0
   -1.4808   -3.2718   -1.7679 O   0  0  0  0  0  0  0  0  0  0  0  0
  1  2  1  0
  3  2  1  1
  3  4  1  0
  3  7  1  0
  5  4  1  0
  5  6  1  0
  5 11  1  1
  7  6  1  0
  7  8  1  6
  8  9  2  0
  9 10  2  0
 11 12  1  0
 11 17  1  0
 12 13  2  0
 13 14  1  0
 14 15  2  0
 14 16  1  0
 16 17  1  0
 17 18  2  0
M  CHG  2   9   1  10  -1
M  END
>  <DRUGBANK_ID>  (1) 
DB17759

>  <COMMON_NAME>  (1) 
Navuridine

>  <CAS_NUMBER>  (1) 
84472-85-5

>  <UNII>  (1) 
PS28W65479

>  <SYNONYMS>  (1) 
3'-azido-2',3'-dideoxyuridine; 3'-azido-2',3'dideoxyuridine; Navuridine; Uridine, 3'-azido-2',3'-dideoxy-

$$$$
