
     RDKit          3D

 17 16  0  0  0  0  0  0  0  0999 V2000
    0.9424   -0.1233    0.0581 C   0  0  0  0  0  0  0  0  0  0  0  0
   -0.7000    0.6411   -1.6569 N   0  0  0  0  0  0  0  0  0  0  0  0
    0.2154    1.0560   -0.5898 C   0  0  0  0  0  0  0  0  0  0  0  0
    0.3718   -1.1072    0.5209 O   0  0  0  0  0  0  0  0  0  0  0  0
    2.2941   -0.0399    0.0508 O   0  0  0  0  0  0  0  0  0  0  0  0
   -2.0728    0.7753   -1.5247 C   0  0  0  0  0  0  0  0  0  0  0  0
   -3.9485   -0.7231   -2.2443 N   0  0  0  0  0  0  0  0  0  0  0  0
   -2.9264    0.2252   -2.6886 C   0  0  0  0  0  0  0  0  0  0  0  0
   -2.5823    1.3028   -0.5385 O   0  0  0  0  0  0  0  0  0  0  0  0
   -5.2980   -0.4287   -2.3240 C   0  0  0  0  0  0  0  0  0  0  0  0
   -7.2231   -0.9366   -0.8313 N   0  0  0  0  0  0  0  0  0  0  0  0
   -6.2470   -1.5028   -1.7530 C   0  0  0  0  0  0  0  0  0  0  0  0
   -5.7171    0.6070   -2.8356 O   0  0  0  0  0  0  0  0  0  0  0  0
   -8.5697   -0.7813   -1.0073 C   0  0  0  0  0  0  0  0  0  0  0  0
   -9.2219   -0.2430   -0.1085 O   0  0  0  0  0  0  0  0  0  0  0  0
   -9.2622   -1.3756   -2.2227 C   0  0  0  0  0  0  0  0  0  0  0  0
   -8.8013   -0.5958   -3.7958 S   0  0  0  0  0  0  0  0  0  0  0  0
  1  3  1  0
  1  4  2  0
  1  5  1  0
  2  3  1  0
  2  6  1  0
  6  8  1  0
  6  9  2  0
  7  8  1  0
  7 10  1  0
 10 12  1  0
 10 13  2  0
 11 12  1  0
 11 14  1  0
 14 15  2  0
 14 16  1  0
 16 17  1  0
M  END
>  <DRUGBANK_ID>  (1) 
DB15780

>  <COMMON_NAME>  (1) 
Mertiatide

>  <CAS_NUMBER>  (1) 
66516-09-4

>  <UNII>  (1) 
8NVY8268MY

>  <SYNONYMS>  (1) 
Mertiatide

$$$$
