NPC
     RDKit          3D

 22 22  0  0  0  0  0  0  0  0999 V2000
   -1.8680    0.0451   -0.1182 C   0  0  0  0  0  0  0  0  0  0  0  0
   -1.1906   -1.1894   -0.1371 C   0  0  0  0  0  0  0  0  0  0  0  0
    0.2087   -1.2352   -0.0496 C   0  0  0  0  0  0  0  0  0  0  0  0
    0.8694   -2.5417    0.0244 N   0  0  0  0  0  0  0  0  0  0  0  0
    0.1560   -3.5573    0.0393 O   0  0  0  0  0  0  0  0  0  0  0  0
    2.1101   -2.5567    0.0330 O   0  0  0  0  0  0  0  0  0  0  0  0
    0.9426   -0.0447   -0.0211 C   0  0  0  0  0  0  0  0  0  0  0  0
    2.3078    0.0395   -0.0082 O   0  0  0  0  0  0  0  0  0  0  0  0
    0.2717    1.1795   -0.0218 C   0  0  0  0  0  0  0  0  0  0  0  0
   -1.1223    1.2270   -0.0628 C   0  0  0  0  0  0  0  0  0  0  0  0
   -3.3807    0.0997   -0.0535 C   0  0  0  0  0  0  0  0  0  0  0  0
   -3.9092    0.8029    1.1851 C   0  0  0  0  0  0  0  0  0  0  0  0
   -4.5856    1.8354    1.1092 O   0  0  0  0  0  0  0  0  0  0  0  0
   -3.6616    0.2486    2.4029 N   0  0  0  0  0  0  0  0  0  0  0  0
   -2.8409   -0.9121    2.6947 C   0  0  0  0  0  0  0  0  0  0  0  0
   -1.5768   -0.5207    3.4483 C   0  0  0  0  0  0  0  0  0  0  0  0
   -1.9355   -0.0154    4.8466 C   0  0  0  0  0  0  0  0  0  0  0  0
   -2.6425   -1.0935    5.6782 C   0  0  0  0  0  0  0  0  0  0  0  0
   -1.8257   -2.3749    5.8356 C   0  0  0  0  0  0  0  0  0  0  0  0
   -0.5225   -2.1390    6.6057 C   0  0  0  0  0  0  0  0  0  0  0  0
   -0.4536   -2.7322    7.7169 O   0  0  0  0  0  0  0  0  0  0  0  0
    0.3350   -1.4116    6.0322 O   0  0  0  0  0  0  0  0  0  0  0  0
  1  2  2  0
  1 10  1  0
  1 11  1  0
  2  3  1  0
  3  4  1  0
  3  7  2  0
  4  5  1  0
  4  6  2  0
  7  8  1  0
  7  9  1  0
  9 10  2  0
 11 12  1  0
 12 13  2  0
 12 14  1  0
 14 15  1  0
 15 16  1  0
 16 17  1  0
 17 18  1  0
 18 19  1  0
 19 20  1  0
 20 21  2  0
 20 22  1  0
M  CHG  3   4   1   5  -1  22  -1
M  END
>  <DRUGBANK_ID>  (1) 
DB08295

>  <COMMON_NAME>  (1) 
4-HYDROXY-3-NITROPHENYLACETYL-EPSILON-AMINOCAPROIC ACID ANION

$$$$
