
     RDKit          3D

 35 38  0  0  0  0  0  0  0  0999 V2000
    7.0710   -4.6299    3.7881 C   0  0  1  0  0  0  0  0  0  0  0  0
    7.5320   -4.3283    1.9013 C   0  0  1  0  0  0  0  0  0  0  0  0
    6.6738   -9.4256    5.7078 C   0  0  1  0  0  0  0  0  0  0  0  0
    6.0254   -7.1158    4.3118 C   0  0  2  0  0  0  0  0  0  0  0  0
    6.5148   -5.9575    3.3982 C   0  0  2  0  0  0  0  0  0  0  0  0
    7.1198   -7.7692    5.1979 C   0  0  1  0  0  0  0  0  0  0  0  0
    5.2289   -9.7769    5.5520 C   0  0  0  0  0  0  0  0  0  0  0  0
    8.1371   -5.2193    5.1608 C   0  0  0  0  0  0  0  0  0  0  0  0
    7.4939   -6.4142    6.1505 C   0  0  2  0  0  0  0  0  0  0  0  0
    7.1595  -11.1267    4.9205 C   0  0  0  0  0  0  0  0  0  0  0  0
    6.6977   -3.6788    0.4610 C   0  0  0  0  0  0  0  0  0  0  0  0
    5.1353  -10.9306    6.3098 C   0  0  0  0  0  0  0  0  0  0  0  0
    7.4036   -5.5254    0.5536 O   0  0  0  0  0  0  0  0  0  0  0  0
    8.1527   -5.5807   -0.6821 C   0  0  0  0  0  0  0  0  0  0  0  0
    8.7233   -5.2238    2.0581 C   0  0  0  0  0  0  0  0  0  0  0  0
    7.8616   -6.3863    2.7142 C   0  0  0  0  0  0  0  0  0  0  0  0
    5.5219   -8.2483    3.4318 C   0  0  0  0  0  0  0  0  0  0  0  0
    6.5921  -12.3909    5.2073 C   0  0  0  0  0  0  0  0  0  0  0  0
    5.1090  -12.1009    5.3940 C   0  0  0  0  0  0  0  0  0  0  0  0
    4.6895   -9.3182    4.2019 C   0  0  0  0  0  0  0  0  0  0  0  0
    9.2804   -2.5795   -1.3331 C   0  0  0  0  0  0  0  0  0  0  0  0
    7.1913   -2.3539   -0.1971 C   0  0  0  0  0  0  0  0  0  0  0  0
    7.6747   -5.5216   -1.8129 O   0  0  0  0  0  0  0  0  0  0  0  0
    5.8126   -4.2318   -0.2361 O   0  0  0  0  0  0  0  0  0  0  0  0
    7.9787   -2.2116   -1.4017 O   0  0  0  0  0  0  0  0  0  0  0  0
    9.7630   -3.0825   -0.3259 O   0  0  0  0  0  0  0  0  0  0  0  0
    4.2273  -12.3789    4.6957 O   0  0  0  0  0  0  0  0  0  0  0  0
    6.3482   -3.5455    4.8450 C   0  0  0  0  0  0  0  0  0  0  0  0
    8.4248   -6.7217    7.2059 O   0  0  0  0  0  0  0  0  0  0  0  0
    9.4698   -5.8626   -0.4735 O   0  0  0  0  0  0  0  0  0  0  0  0
    6.2732   -8.8064    7.2453 C   0  0  0  0  0  0  0  0  0  0  0  0
   10.1183   -2.2306   -2.5604 C   0  0  0  0  0  0  0  0  0  0  0  0
   10.2611   -6.3281   -1.6003 C   0  0  0  0  0  0  0  0  0  0  0  0
    9.6289   -2.8510   -3.8539 C   0  0  0  0  0  0  0  0  0  0  0  0
    9.7113   -7.6104   -2.2140 C   0  0  0  0  0  0  0  0  0  0  0  0
  1 28  1  1
  2  1  1  0
  2 11  1  0
  2 13  1  6
  3  6  1  0
  3 31  1  1
  4  5  1  0
  5  1  1  0
  6  9  1  1
  6  4  1  0
  7  3  1  0
  8  1  1  0
  9  8  1  0
  9 29  1  1
 10  3  1  0
 12  7  2  0
 14 13  1  0
 15  2  1  0
 15 16  1  0
  5 16  1  1
  4 17  1  6
 18 10  2  0
 19 18  1  0
 19 12  1  0
 20 17  1  0
 20  7  1  0
 21 25  1  0
 22 11  1  0
 23 14  2  0
 24 11  2  0
 25 22  1  0
 26 21  2  0
 27 19  2  0
 30 14  1  0
 32 21  1  0
 33 30  1  0
 34 32  1  0
 35 33  1  0
M  END
>  <DRUGBANK_ID>  (1) 
DB01130

>  <SECONDARY_ACCESSION_NUMBERS>  (1) 
APRD01197

>  <COMMON_NAME>  (1) 
Prednicarbate

>  <CAS_NUMBER>  (1) 
73771-04-7

>  <UNII>  (1) 
V901LV1K7D

>  <SYNONYMS>  (1) 
Prednicarbate; Prednicarbato

$$$$
