D1T
     RDKit          3D

 11 10  0  0  0  0  0  0  0  0999 V2000
    1.1023   -0.0961   -0.1061 C   0  0  0  0  0  0  0  0  0  0  0  0
    0.6850   -1.2178    0.8328 C   0  0  0  0  0  0  0  0  0  0  0  0
    1.1729   -0.9496    2.2593 C   0  0  0  0  0  0  0  0  0  0  0  0
    0.5899    0.3432    2.8391 C   0  0  0  0  0  0  0  0  0  0  0  0
   -0.9413    0.3218    2.8785 C   0  0  0  0  0  0  0  0  0  0  0  0
   -1.4644   -0.8036    3.7797 C   0  0  0  0  0  0  0  0  0  0  0  0
   -0.9799   -0.6287    5.2234 C   0  0  0  0  0  0  0  0  0  0  0  0
   -1.4739    0.6862    5.8345 C   0  0  0  0  0  0  0  0  0  0  0  0
   -3.0037    0.7431    5.9291 C   0  0  0  0  0  0  0  0  0  0  0  0
   -3.6098   -0.3906    6.7583 C   0  0  0  0  0  0  0  0  0  0  0  0
   -3.1082   -0.3087    8.5047 S   0  0  0  0  0  0  0  0  0  0  0  0
  1  2  1  0
  2  3  1  0
  3  4  1  0
  4  5  1  0
  5  6  1  0
  6  7  1  0
  7  8  1  0
  8  9  1  0
  9 10  1  0
 10 11  1  0
M  END
>  <DRUGBANK_ID>  (1) 
DB07611

>  <COMMON_NAME>  (1) 
DECANE-1-THIOL

>  <UNII>  (1) 
A2H8YRB236

$$$$
