UCM
     RDKit          3D

 30 37  0  0  0  0  0  0  0  0999 V2000
    0.0431    4.3674    0.0032 N   0  0  0  0  0  0  0  0  0  0  0  0
   -1.1403    3.6636    0.0071 C   0  0  0  0  0  0  0  0  0  0  0  0
   -2.2394    4.1980   -0.0036 O   0  0  0  0  0  0  0  0  0  0  0  0
   -0.6964    2.3131    0.0338 C   0  0  0  0  0  0  0  0  0  0  0  0
   -1.2932    1.0349    0.0707 C   0  0  0  0  0  0  0  0  0  0  0  0
   -2.6823    0.6908    0.0128 C   0  0  0  0  0  0  0  0  0  0  0  0
   -2.7757   -0.7548    0.0667 C   0  0  0  0  0  0  0  0  0  0  0  0
   -4.0260   -1.4102   -0.0265 C   0  0  0  0  0  0  0  0  0  0  0  0
   -5.1962   -0.6594   -0.1450 C   0  0  0  0  0  0  0  0  0  0  0  0
   -5.1406    0.7251   -0.1713 C   0  0  0  0  0  0  0  0  0  0  0  0
   -3.9085    1.3986   -0.0967 C   0  0  0  0  0  0  0  0  0  0  0  0
   -1.4983   -1.3239    0.2144 N   0  0  0  0  0  0  0  0  0  0  0  0
   -0.6998   -0.2297    0.1561 C   0  0  0  0  0  0  0  0  0  0  0  0
    0.6938   -0.2394    0.1540 C   0  0  0  0  0  0  0  0  0  0  0  0
    1.4836   -1.3400    0.2104 N   0  0  0  0  0  0  0  0  0  0  0  0
    2.7662   -0.7815    0.0641 C   0  0  0  0  0  0  0  0  0  0  0  0
    2.6844    0.6631    0.0098 C   0  0  0  0  0  0  0  0  0  0  0  0
    3.9138    1.3640   -0.1014 C   0  0  0  0  0  0  0  0  0  0  0  0
    5.1416    0.6860   -0.1687 C   0  0  0  0  0  0  0  0  0  0  0  0
    5.1883   -0.6982   -0.1384 C   0  0  0  0  0  0  0  0  0  0  0  0
    4.0130   -1.4432   -0.0253 C   0  0  0  0  0  0  0  0  0  0  0  0
    1.3004    1.0157    0.0702 C   0  0  0  0  0  0  0  0  0  0  0  0
    0.7251    2.2998    0.0382 C   0  0  0  0  0  0  0  0  0  0  0  0
    1.2033    3.6346    0.0240 C   0  0  0  0  0  0  0  0  0  0  0  0
    2.3185    4.1411    0.0383 O   0  0  0  0  0  0  0  0  0  0  0  0
    1.1268   -2.7305    0.3387 C   0  0  1  0  0  0  0  0  0  0  0  0
   -0.0128   -2.8344    1.1927 O   0  0  0  0  0  0  0  0  0  0  0  0
   -1.1523   -2.7181    0.3397 C   0  0  2  0  0  0  0  0  0  0  0  0
   -0.7730   -3.3205   -0.9994 C   0  0  0  0  0  0  0  0  0  0  0  0
    0.7415   -3.3302   -0.9994 C   0  0  0  0  0  0  0  0  0  0  0  0
  1  2  1  0
  1 24  1  0
  2  3  2  0
  2  4  1  0
  4  5  2  0
  4 23  1  0
  5  6  1  0
  5 13  1  0
  6  7  2  0
  6 11  1  0
  7  8  1  0
  7 12  1  0
  8  9  2  0
  9 10  1  0
 10 11  2  0
 12 13  1  0
 12 28  1  0
 13 14  2  0
 14 15  1  0
 14 22  1  0
 15 16  1  0
 15 26  1  0
 16 17  2  0
 16 21  1  0
 17 18  1  0
 17 22  1  0
 18 19  2  0
 19 20  1  0
 20 21  2  0
 22 23  2  0
 23 24  1  0
 24 25  2  0
 26 27  1  0
 26 30  1  6
 27 28  1  0
 28 29  1  6
 29 30  1  0
M  END
>  <DRUGBANK_ID>  (1) 
DB08683

>  <COMMON_NAME>  (1) 
REL-(9R,12S)-9,10,11,12-TETRAHYDRO-9,12-EPOXY-1H-DIINDOLO[1,2,3-FG:3',2',1'-KL]PYRROLO[3,4-I][1,6]BENZODIAZOCINE-1,3(2H)-DIONE

$$$$
