
     RDKit          3D

 16 15  0  0  1  0  0  0  0  0999 V2000
    5.4973   -2.9272    3.0998 O   0  0  0  0  0  0  0  0  0  0  0  0
    4.3498   -2.2350    3.4583 C   0  0  0  0  0  0  0  0  0  0  0  0
    3.6466   -1.5232    2.2846 C   0  0  1  0  0  0  0  0  0  0  0  0
    2.7262   -2.3615    1.3310 C   0  0  2  0  0  0  0  0  0  0  0  0
    1.0983   -2.4321    1.5406 C   0  0  1  0  0  0  0  0  0  0  0  0
    0.3743   -2.2019    2.9420 C   0  0  1  0  0  0  0  0  0  0  0  0
    0.4964   -0.9105    3.8060 C   0  0  0  0  0  0  0  0  0  0  0  0
    0.6073    0.2736    3.0466 O   0  0  0  0  0  0  0  0  0  0  0  0
    2.7884   -0.7728    3.0336 O   0  0  0  0  0  0  0  0  0  0  0  0
    3.2144   -3.7082    1.3944 O   0  0  0  0  0  0  0  0  0  0  0  0
    0.3473   -1.6707    0.5541 O   0  0  0  0  0  0  0  0  0  0  0  0
   -1.0456   -2.2619    2.6251 O   0  0  0  0  0  0  0  0  0  0  0  0
    1.1840    0.3679    1.4183 P   0  0  0  0  0  0  0  0  0  0  0  0
   -0.0988    1.2871    0.9786 O   0  0  0  0  0  0  0  0  0  0  0  0
    2.2127    1.4355    1.8047 O   0  0  0  0  0  0  0  0  0  0  0  0
    1.7607    0.4623   -0.2101 O   0  0  0  0  0  0  0  0  0  0  0  0
  1  2  1  0
  2  3  1  0
  3  9  1  1
  4 10  1  1
  4  5  1  0
  4  3  1  0
  5  6  1  0
  5 11  1  6
  6  7  1  0
  6 12  1  6
  7  8  1  0
  8 13  1  0
 13 14  1  0
 13 15  2  0
 13 16  1  0
M  END
>  <DRUGBANK_ID>  (1) 
DB02548

>  <SECONDARY_ACCESSION_NUMBERS>  (1) 
EXPT02834

>  <COMMON_NAME>  (1) 
D-glucitol 6-phosphate

>  <CAS_NUMBER>  (1) 
20479-58-7

>  <SYNONYMS>  (1) 
D-Glucitol, 6-(dihydrogen phosphate); D-Sorbitol 6-phosphate; D-sorbitol-6-phosphate; Sorbitol 6-phosphate; Sorbitol-6-phosphate

$$$$
