
     RDKit          3D

 24 25  0  0  0  0  0  0  0  0999 V2000
    1.1958   -0.0157   -0.0213 C   0  0  0  0  0  0  0  0  0  0  0  0
    0.5535    1.2941    0.4917 C   0  0  0  0  0  0  0  0  0  0  0  0
    0.9646    2.4089   -0.4839 C   0  0  0  0  0  0  0  0  0  0  0  0
   -0.9994    1.1395    0.4311 C   0  0  0  0  0  0  0  0  0  0  0  0
   -1.4338    0.0784    1.2900 O   0  0  0  0  0  0  0  0  0  0  0  0
   -1.3332   -1.2147    0.8789 C   0  0  0  0  0  0  0  0  0  0  0  0
   -1.0722   -1.5332   -0.2854 O   0  0  0  0  0  0  0  0  0  0  0  0
   -1.7115   -2.2251    1.9984 C   0  0  0  0  0  0  0  0  0  0  0  0
   -1.1615   -1.9799    3.4272 C   0  0  0  0  0  0  0  0  0  0  0  0
   -1.1134   -0.6935    3.9925 C   0  0  0  0  0  0  0  0  0  0  0  0
   -0.8006   -0.4795    5.3336 C   0  0  0  0  0  0  0  0  0  0  0  0
   -0.5607   -1.5579    6.1694 C   0  0  0  0  0  0  0  0  0  0  0  0
   -0.6134   -2.8478    5.6562 C   0  0  0  0  0  0  0  0  0  0  0  0
   -0.8649   -3.0555    4.2953 C   0  0  0  0  0  0  0  0  0  0  0  0
   -3.2503   -2.2786    2.0475 C   0  0  0  0  0  0  0  0  0  0  0  0
   -3.9477   -3.4900    2.0886 C   0  0  0  0  0  0  0  0  0  0  0  0
   -5.3344   -3.5015    2.2115 C   0  0  0  0  0  0  0  0  0  0  0  0
   -6.0470   -2.3082    2.3019 C   0  0  0  0  0  0  0  0  0  0  0  0
   -5.3794   -1.0945    2.2676 C   0  0  0  0  0  0  0  0  0  0  0  0
   -4.0010   -1.0816    2.1120 C   0  0  0  0  0  0  0  0  0  0  0  0
   -1.1624   -3.4793    1.5274 O   0  0  0  0  0  0  0  0  0  0  0  0
    1.0186    1.5524    1.8937 N   0  0  0  0  0  0  0  0  0  0  0  0
    2.4793    1.5235    2.0190 C   0  0  0  0  0  0  0  0  0  0  0  0
    0.5090    2.7995    2.4721 C   0  0  0  0  0  0  0  0  0  0  0  0
  1  2  1  0
  2  3  1  0
  2  4  1  0
  2 22  1  0
  4  5  1  0
  5  6  1  0
  6  7  2  0
  6  8  1  0
  8  9  1  0
  8 15  1  0
  8 21  1  0
  9 10  2  0
  9 14  1  0
 10 11  1  0
 11 12  2  0
 12 13  1  0
 13 14  2  0
 15 16  2  0
 15 20  1  0
 16 17  1  0
 17 18  2  0
 18 19  1  0
 19 20  2  0
 22 23  1  0
 22 24  1  0
M  END
>  <DRUGBANK_ID>  (1) 
DB13380

>  <COMMON_NAME>  (1) 
Difemerine

>  <CAS_NUMBER>  (1) 
80387-96-8

>  <UNII>  (1) 
843C4UPZ2F

>  <SYNONYMS>  (1) 
Difemerine

$$$$
