
     RDKit          3D

 30 32  0  0  0  0  0  0  0  0999 V2000
    1.0441   -0.4977    0.3297 C   0  0  0  0  0  0  0  0  0  0  0  0
    0.1051   -1.4905    0.0480 C   0  0  0  0  0  0  0  0  0  0  0  0
    0.7936    0.9424    0.1350 C   0  0  0  0  0  0  0  0  0  0  0  0
   -1.2012   -1.1448   -0.0984 C   0  0  0  0  0  0  0  0  0  0  0  0
   -0.5821    1.2116    0.0664 C   0  0  0  0  0  0  0  0  0  0  0  0
   -1.5491    0.1934   -0.0407 C   0  0  0  0  0  0  0  0  0  0  0  0
    2.0600   -1.0440    1.1420 O   0  0  0  0  0  0  0  0  0  0  0  0
    2.8080   -2.1714    0.7694 C   0  0  0  0  0  0  0  0  0  0  0  0
    2.7486   -2.8236   -0.4519 C   0  0  0  0  0  0  0  0  0  0  0  0
    3.7244   -2.4963    1.6839 N   0  0  0  0  0  0  0  0  0  0  0  0
    3.4206   -4.0197   -0.5510 C   0  0  0  0  0  0  0  0  0  0  0  0
    4.3950   -3.6299    1.4681 C   0  0  0  0  0  0  0  0  0  0  0  0
    4.2367   -4.4569    0.4229 N   0  0  0  0  0  0  0  0  0  0  0  0
    3.2235   -4.9090   -1.6010 O   0  0  0  0  0  0  0  0  0  0  0  0
    1.8044    2.1919   -0.1479 C   0  0  0  0  0  0  0  0  0  0  0  0
    1.2721    3.6575   -0.3410 C   0  0  0  0  0  0  0  0  0  0  0  0
    3.1185    2.1337   -0.5002 C   0  0  0  0  0  0  0  0  0  0  0  0
    4.0858    1.2377   -0.8486 O   0  0  0  0  0  0  0  0  0  0  0  0
    3.5256    0.0356   -0.6024 C   0  0  0  0  0  0  0  0  0  0  0  0
    2.0645    4.7419   -0.6305 O   0  0  0  0  0  0  0  0  0  0  0  0
    0.0693    3.9126   -0.3004 O   0  0  0  0  0  0  0  0  0  0  0  0
    3.4850    4.8203   -0.8124 C   0  0  0  0  0  0  0  0  0  0  0  0
    2.5292   -4.4954   -2.7247 C   0  0  0  0  0  0  0  0  0  0  0  0
    3.0295   -3.5184   -3.6003 C   0  0  0  0  0  0  0  0  0  0  0  0
    1.3283   -5.1527   -3.0327 C   0  0  0  0  0  0  0  0  0  0  0  0
    2.2975   -3.1675   -4.7414 C   0  0  0  0  0  0  0  0  0  0  0  0
    0.6557   -4.8601   -4.2248 C   0  0  0  0  0  0  0  0  0  0  0  0
    1.1143   -3.8380   -5.0538 C   0  0  0  0  0  0  0  0  0  0  0  0
    4.2384   -2.7908   -3.2970 C   0  0  0  0  0  0  0  0  0  0  0  0
    5.1406   -2.1593   -2.9806 N   0  0  0  0  0  0  0  0  0  0  0  0
  1  7  1  0
  2  1  2  0
  3  1  1  0
  3 15  1  0
  4  2  1  0
  5  3  2  0
  6  4  2  0
  6  5  1  0
  7  8  1  0
  9  8  2  0
 10  8  1  0
 11  9  1  0
 11 14  1  0
 12 10  2  0
 13 11  2  0
 13 12  1  0
 14 23  1  0
 15 16  1  0
 15 17  2  0
 16 20  1  0
 16 21  2  0
 17 18  1  0
 18 19  1  0
 20 22  1  0
 24 23  2  0
 24 29  1  0
 25 23  1  0
 26 24  1  0
 27 25  2  0
 28 26  2  0
 28 27  1  0
 30 29  3  0
M  END
>  <DRUGBANK_ID>  (1) 
DB07401

>  <COMMON_NAME>  (1) 
Azoxystrobin

>  <CAS_NUMBER>  (1) 
131860-33-8

>  <UNII>  (1) 
NYH7Y08IPM

$$$$
