
     RDKit          3D

 33 35  0  0  1  0  0  0  0  0999 V2000
    1.7982    0.8006   -1.0784 S   0  0  0  0  0  0  0  0  0  0  0  0
    1.6290   -4.0653    1.8369 S   0  0  0  0  0  0  0  0  0  0  0  0
    0.9659    1.5869    1.7455 S   0  0  0  0  0  0  0  0  0  0  0  0
   -2.1009    1.9588   -1.7206 O   0  0  0  0  0  0  0  0  0  0  0  0
   -2.5405   -0.3347    0.6938 O   0  0  0  0  0  0  0  0  0  0  0  0
   -2.1638   -2.9510   -0.1922 O   0  0  0  0  0  0  0  0  0  0  0  0
   -0.3117   -4.1679   -0.1824 O   0  0  0  0  0  0  0  0  0  0  0  0
   -0.7401    4.5996    1.5682 O   0  0  0  0  0  0  0  0  0  0  0  0
    1.9855    1.4617    6.6070 O   0  0  0  0  0  0  0  0  0  0  0  0
    0.0369    2.4099    6.0106 O   0  0  0  0  0  0  0  0  0  0  0  0
   -0.5544   -0.5350   -0.5549 N   0  0  0  0  0  0  0  0  0  0  0  0
   -1.2832    2.7034    0.4211 N   0  0  0  0  0  0  0  0  0  0  0  0
    1.6154   -1.8235    3.4135 N   0  0  0  0  0  0  0  0  0  0  0  0
    1.9398   -3.5667    4.5390 N   0  0  0  0  0  0  0  0  0  0  0  0
    1.7812   -1.3452    4.6383 N   0  0  0  0  0  0  0  0  0  0  0  0
    1.9421   -2.4366    5.3571 N   0  0  0  0  0  0  0  0  0  0  0  0
    1.8925    3.4287    3.8751 N   0  0  0  0  0  0  0  0  0  0  0  0
    0.0219    0.6391   -1.1787 C   0  0  1  0  0  0  0  0  0  0  0  0
   -1.2173    1.5623   -0.6180 C   0  0  2  0  0  0  0  0  0  0  0  0
   -1.6601    0.0781   -0.0112 C   0  0  0  0  0  0  0  0  0  0  0  0
   -0.0008   -1.8052   -0.4614 C   0  0  0  0  0  0  0  0  0  0  0  0
    1.3599   -1.9605   -0.3814 C   0  0  0  0  0  0  0  0  0  0  0  0
    2.3552   -0.8158   -0.5603 C   0  0  0  0  0  0  0  0  0  0  0  0
   -0.9364   -2.9834   -0.2433 C   0  0  0  0  0  0  0  0  0  0  0  0
   -0.3872    3.5943    0.9617 C   0  0  0  0  0  0  0  0  0  0  0  0
    2.1235   -3.2087    0.2337 C   0  0  0  0  0  0  0  0  0  0  0  0
   -3.4229    2.3627   -1.3735 C   0  0  0  0  0  0  0  0  0  0  0  0
    1.0055    3.1612    0.9106 C   0  0  0  0  0  0  0  0  0  0  0  0
    1.8145   -3.1392    3.2991 C   0  0  0  0  0  0  0  0  0  0  0  0
    0.4064    1.5999    3.4806 C   0  0  0  0  0  0  0  0  0  0  0  0
    1.2267   -0.9802    2.3938 C   0  0  0  0  0  0  0  0  0  0  0  0
    1.6040    2.0513    4.2828 C   0  0  2  0  0  0  0  0  0  0  0  0
    1.2627    1.9203    5.7378 C   0  0  0  0  0  0  0  0  0  0  0  0
 18  1  1  1
  1 23  1  0
  2 26  1  0
  2 29  1  0
  3 28  1  0
  3 30  1  0
  4 27  1  0
  5 20  2  0
  6 24  2  0
  7 24  1  0
  8 25  2  0
  9 33  2  0
 10 33  1  0
 11 18  1  0
 11 20  1  0
 11 21  1  0
 12 25  1  0
 13 15  1  0
 13 29  1  0
 13 31  1  0
 14 16  1  0
 14 29  2  0
 15 16  2  0
 18 19  1  0
 19 20  1  0
 19 12  1  1
 19  4  1  0
 21 22  2  0
 21 24  1  0
 22 23  1  0
 22 26  1  0
 25 28  1  0
 30 32  1  0
 32 17  1  1
 32 33  1  0
M  END
>  <DRUGBANK_ID>  (1) 
DB09062

>  <COMMON_NAME>  (1) 
Cefminox

>  <CAS_NUMBER>  (1) 
84305-41-9

>  <UNII>  (1) 
PW08Y13465

>  <SYNONYMS>  (1) 
Cefminox; cefminoxum; CMNX

$$$$
