
     RDKit          3D

 13 14  0  0  1  0  0  0  0  0999 V2000
   -0.8239   -0.8759   -0.2411 C   0  0  0  0  0  0  0  0  0  0  0  0
    0.5899   -1.1315    0.2388 C   0  0  0  0  0  0  0  0  0  0  0  0
    1.3011    0.1603   -0.1453 C   0  0  1  0  0  0  0  0  0  0  0  0
    0.2069    1.2284   -0.0113 C   0  0  0  0  0  0  0  0  0  0  0  0
   -1.0799    0.5216    0.1223 N   0  0  0  0  0  0  0  0  0  0  0  0
    2.5189    0.4291    0.6928 C   0  0  0  0  0  0  0  0  0  0  0  0
    3.7532    0.5686    0.1796 C   0  0  0  0  0  0  0  0  0  0  0  0
    4.9208    0.8354    1.0161 C   0  0  0  0  0  0  0  0  0  0  0  0
    5.1822    0.1597    2.1944 C   0  0  0  0  0  0  0  0  0  0  0  0
    6.2471    0.3978    2.9882 N   0  0  0  0  0  0  0  0  0  0  0  0
    7.0853    1.3520    2.5574 C   0  0  0  0  0  0  0  0  0  0  0  0
    6.9640    2.0560    1.4209 N   0  0  0  0  0  0  0  0  0  0  0  0
    5.8779    1.7709    0.6697 C   0  0  0  0  0  0  0  0  0  0  0  0
  1  2  1  0
  1  5  1  0
  3  2  1  0
  3  4  1  0
  3  6  1  1
  4  5  1  0
  6  7  2  0
  7  8  1  0
  8  9  2  0
  8 13  1  0
  9 10  1  0
 10 11  2  0
 11 12  1  0
 12 13  2  0
M  END
>  <DRUGBANK_ID>  (1) 
DB17065

>  <COMMON_NAME>  (1) 
Simpinicline

>  <CAS_NUMBER>  (1) 
753015-44-0

>  <UNII>  (1) 
09936A4QSN

>  <SYNONYMS>  (1) 
Pyrimidine, 5-((1e)-2-(3r)-3-pyrrolidinylethenyl)-; Simpinicline

$$$$
