M5P
     RDKit          3D

 15 15  0  0  0  0  0  0  0  0999 V2000
    1.4166   -0.3009    0.0081 C   0  0  0  0  0  0  0  0  0  0  0  0
    0.5269   -1.3797    0.0155 C   0  0  0  0  0  0  0  0  0  0  0  0
   -0.8540   -1.1723   -0.0042 C   0  0  0  0  0  0  0  0  0  0  0  0
   -1.3481    0.1139    0.0836 C   0  0  0  0  0  0  0  0  0  0  0  0
   -0.4465    1.1622    0.2076 C   0  0  0  0  0  0  0  0  0  0  0  0
    0.9270    0.9971    0.0127 C   0  0  0  0  0  0  0  0  0  0  0  0
    1.8245    2.1760   -0.2931 C   0  0  0  0  0  0  0  0  0  0  0  0
    1.4380    2.8669   -1.6248 C   0  0  0  0  0  0  0  0  0  0  0  0
    0.0609    3.5535   -1.6078 C   0  0  0  0  0  0  0  0  0  0  0  0
   -0.1429    4.5166   -0.4182 C   0  0  1  0  0  0  0  0  0  0  0  0
    0.7569    5.7309   -0.5900 C   0  0  0  0  0  0  0  0  0  0  0  0
    0.3953    6.8907   -0.7483 O   0  0  0  0  0  0  0  0  0  0  0  0
    2.0714    5.4365   -0.5621 O   0  0  0  0  0  0  0  0  0  0  0  0
   -1.6059    4.9822   -0.2922 C   0  0  0  0  0  0  0  0  0  0  0  0
   -2.9016    3.7288    0.0459 S   0  0  0  0  0  0  0  0  0  0  0  0
  1  2  2  0
  1  6  1  0
  2  3  1  0
  3  4  2  0
  4  5  1  0
  5  6  2  0
  6  7  1  0
  7  8  1  0
  8  9  1  0
 10  9  1  6
 10 11  1  0
 10 14  1  0
 11 12  2  0
 11 13  1  0
 14 15  1  0
M  END
>  <DRUGBANK_ID>  (1) 
DB08161

>  <COMMON_NAME>  (1) 
(S)-2-(MERCAPTOMETHYL)-5-PHENYLPENTANOIC ACID

$$$$
