
     RDKit          3D

 27 24  0  0  0  0  0  0  0  0999 V2000
    1.3098   -0.1153    0.6683 C   0  0  0  0  0  0  0  0  0  0  0  0
    0.4788    1.1958   -0.9609 C   0  0  0  0  0  0  0  0  0  0  0  0
    1.3889   -1.8392   -0.7230 C   0  0  0  0  0  0  0  0  0  0  0  0
    1.0769    0.8481   -2.7420 C   0  0  0  0  0  0  0  0  0  0  0  0
    1.3139   -3.2857    0.4654 C   0  0  0  0  0  0  0  0  0  0  0  0
    0.4791   -0.5526   -3.2526 C   0  0  0  0  0  0  0  0  0  0  0  0
    0.2624   -2.9241    2.0976 C   0  0  0  0  0  0  0  0  0  0  0  0
   -1.0066   -0.6891   -2.9487 C   0  0  0  0  0  0  0  0  0  0  0  0
   -1.5915   -2.8369    1.4944 C   0  0  0  0  0  0  0  0  0  0  0  0
   -1.5840    0.3271   -3.7946 C   0  0  0  0  0  0  0  0  0  0  0  0
   -2.1548   -1.8022    0.9160 O   0  0  0  0  0  0  0  0  0  0  0  0
   -2.2546   -3.8235    1.8788 O   0  0  0  0  0  0  0  0  0  0  0  0
   -2.3166   -0.0886   -4.8087 C   0  0  0  0  0  0  0  0  0  0  0  0
    1.4842   -0.0452   -0.7678 C   0  0  0  0  0  0  0  0  0  0  0  0
    0.3250   -1.4657    0.4533 C   0  0  0  0  0  0  0  0  0  0  0  0
    0.7825    1.5000    0.7161 C   0  0  0  0  0  0  0  0  0  0  0  0
    1.6868   -1.6147    1.8408 C   0  0  0  0  0  0  0  0  0  0  0  0
    1.0888    2.9208    0.6631 C   0  0  0  0  0  0  0  0  0  0  0  0
    0.5652   -0.6517    3.1250 C   0  0  0  0  0  0  0  0  0  0  0  0
    0.3574    3.4201   -0.6129 C   0  0  0  0  0  0  0  0  0  0  0  0
   -1.0182   -0.7152    3.1071 C   0  0  0  0  0  0  0  0  0  0  0  0
   -1.2456    3.1655   -0.5903 C   0  0  0  0  0  0  0  0  0  0  0  0
   -1.3838   -2.1465    3.6746 C   0  0  0  0  0  0  0  0  0  0  0  0
   -1.8866    4.1564   -0.9604 O   0  0  0  0  0  0  0  0  0  0  0  0
   -1.7883    2.0347   -0.2828 O   0  0  0  0  0  0  0  0  0  0  0  0
   -2.4164   -2.4458    4.4255 C   0  0  0  0  0  0  0  0  0  0  0  0
   -1.8961    0.0466    0.0315 Ca  0  0  0  0  0 15  0  0  0  0  0  0
  1  2  1  0
  1  3  1  0
  2  4  1  0
  3  5  1  0
  4  6  1  0
  5  7  1  0
  6  8  1  0
  7  9  1  0
  8 10  1  0
  9 12  1  0
  9 11  2  0
 10 13  2  0
 14 15  1  0
 14 16  1  0
 15 17  1  0
 16 18  1  0
 17 19  1  0
 18 20  1  0
 19 21  1  0
 20 22  1  0
 21 23  1  0
 22 24  2  0
 22 25  1  0
 23 26  2  0
M  CHG  3  12  -1  25  -1  27   2
M  END
>  <DRUGBANK_ID>  (1) 
DB15678

>  <COMMON_NAME>  (1) 
Calcium undecylenate

>  <CAS_NUMBER>  (1) 
1322-14-1

>  <UNII>  (1) 
77YW1RTU8V

>  <SYNONYMS>  (1) 
Calcium 10-undecenoate; Calcium diundec-10-enoate; Calcium undecylenate

$$$$
