
     RDKit          3D

 26 29  0  0  0  0  0  0  0  0999 V2000
    1.0146   -0.1084    0.1256 O   0  0  0  0  0  0  0  0  0  0  0  0
    2.8114   -1.7813    1.6107 O   0  0  0  0  0  0  0  0  0  0  0  0
    2.7446    1.1010   -0.3402 O   0  0  0  0  0  0  0  0  0  0  0  0
   -2.4277   -2.5297    0.0224 N   0  0  0  0  0  0  0  0  0  0  0  0
   -1.0150   -0.7343    1.0614 C   0  0  1  0  0  0  0  0  0  0  0  0
   -0.3250   -1.7626   -1.0690 C   0  0  2  0  0  0  0  0  0  0  0  0
    0.1830   -1.2635    0.2861 C   0  0  1  0  0  0  0  0  0  0  0  0
   -1.6012    0.4941    0.3427 C   0  0  0  0  0  0  0  0  0  0  0  0
   -0.8343   -0.5973   -1.9094 C   0  0  0  0  0  0  0  0  0  0  0  0
   -2.0181   -1.8649    1.2658 C   0  0  0  0  0  0  0  0  0  0  0  0
   -1.3073   -2.8979   -0.8375 C   0  0  0  0  0  0  0  0  0  0  0  0
   -1.7601    0.3677   -1.1770 C   0  0  0  0  0  0  0  0  0  0  0  0
    2.9883   -2.3489   -0.7681 C   0  0  0  0  0  0  0  0  0  0  0  0
    3.2302   -1.2680    0.3295 C   0  0  1  0  0  0  0  0  0  0  0  0
    2.7070   -3.7700   -0.2657 C   0  0  0  0  0  0  0  0  0  0  0  0
    4.0115   -2.5129   -1.8918 C   0  0  0  0  0  0  0  0  0  0  0  0
    2.3396   -0.0121    0.0033 C   0  0  0  0  0  0  0  0  0  0  0  0
    2.9862   -4.6896   -1.4449 C   0  0  0  0  0  0  0  0  0  0  0  0
    3.7038   -3.8644   -2.5085 C   0  0  0  0  0  0  0  0  0  0  0  0
   -3.1825   -3.7400    0.3441 C   0  0  0  0  0  0  0  0  0  0  0  0
    4.7267   -0.9827    0.4810 C   0  0  0  0  0  0  0  0  0  0  0  0
    5.2545    0.3099    0.4215 C   0  0  0  0  0  0  0  0  0  0  0  0
    5.6452   -2.0451    0.6181 C   0  0  0  0  0  0  0  0  0  0  0  0
    6.6197    0.5429    0.4171 C   0  0  0  0  0  0  0  0  0  0  0  0
    7.0188   -1.8182    0.5958 C   0  0  0  0  0  0  0  0  0  0  0  0
    7.5026   -0.5210    0.4857 C   0  0  0  0  0  0  0  0  0  0  0  0
  7  1  1  6
  1 17  1  0
  3 17  2  0
  4 10  1  0
  4 11  1  0
  4 20  1  0
  5  7  1  0
  5  8  1  6
  5 10  1  0
  6  7  1  0
  6  9  1  1
  6 11  1  0
  8 12  1  0
  9 12  1  0
 13 14  1  0
 13 15  1  0
 13 16  1  0
 14  2  1  1
 14 17  1  0
 14 21  1  0
 15 18  1  0
 16 19  1  0
 18 19  1  0
 21 22  2  0
 21 23  1  0
 22 24  1  0
 23 25  2  0
 24 26  2  0
 25 26  1  0
M  END
>  <DRUGBANK_ID>  (1) 
DB16011

>  <COMMON_NAME>  (1) 
Levophencynonate

>  <CAS_NUMBER>  (1) 
230313-75-4

>  <UNII>  (1) 
4TNV157KEQ

>  <SYNONYMS>  (1) 
Levo-phencynonate

$$$$
