
     RDKit          3D

 24 26  0  0  1  0  0  0  0  0999 V2000
    1.8271   -0.5036    5.2226 C   0  0  0  0  0  0  0  0  0  0  0  0
    3.2323   -1.0414    5.2072 C   0  0  0  0  0  0  0  0  0  0  0  0
    4.1502   -0.5023    5.8180 O   0  0  0  0  0  0  0  0  0  0  0  0
    3.4721   -2.1652    4.4669 N   0  0  0  0  0  0  0  0  0  0  0  0
    2.5587   -2.8102    3.5401 C   0  0  0  0  0  0  0  0  0  0  0  0
    2.9785   -2.6979    2.0708 C   0  0  1  0  0  0  0  0  0  0  0  0
    3.9950   -1.6172    1.7270 C   0  0  0  0  0  0  0  0  0  0  0  0
    4.8747   -2.2980    0.8348 N   0  0  0  0  0  0  0  0  0  0  0  0
    4.6428   -3.6546    0.8389 C   0  0  0  0  0  0  0  0  0  0  0  0
    5.2697   -4.5240    0.2510 O   0  0  0  0  0  0  0  0  0  0  0  0
    3.5920   -3.9358    1.6644 O   0  0  0  0  0  0  0  0  0  0  0  0
    5.8511   -1.6627    0.0557 C   0  0  0  0  0  0  0  0  0  0  0  0
    5.7950   -1.7931   -1.3317 C   0  0  0  0  0  0  0  0  0  0  0  0
    6.7674   -1.1947   -2.1439 C   0  0  0  0  0  0  0  0  0  0  0  0
    7.8598   -0.5099   -1.5938 C   0  0  0  0  0  0  0  0  0  0  0  0
    7.8933   -0.4010   -0.1914 C   0  0  0  0  0  0  0  0  0  0  0  0
    6.8887   -0.9324    0.6301 C   0  0  0  0  0  0  0  0  0  0  0  0
    8.9105    0.2490    0.3984 F   0  0  0  0  0  0  0  0  0  0  0  0
    8.8488   -0.0030   -2.4156 N   0  0  0  0  0  0  0  0  0  0  0  0
   10.2590   -0.3683   -2.2402 C   0  0  0  0  0  0  0  0  0  0  0  0
   10.8051   -1.0039   -3.5316 C   0  0  0  0  0  0  0  0  0  0  0  0
   10.6955    0.1235   -4.9704 S   0  0  0  0  0  0  0  0  0  0  0  0
    8.9159    0.5139   -4.8214 C   0  0  0  0  0  0  0  0  0  0  0  0
    8.5560    1.0196   -3.4217 C   0  0  0  0  0  0  0  0  0  0  0  0
  1  2  1  0
  2  3  2  0
  2  4  1  0
  4  5  1  0
  6  7  1  0
  6 11  1  0
  6  5  1  1
  7  8  1  0
  8  9  1  0
  8 12  1  0
  9 10  2  0
  9 11  1  0
 12 13  2  0
 12 17  1  0
 13 14  1  0
 14 15  2  0
 15 16  1  0
 15 19  1  0
 16 17  2  0
 16 18  1  0
 19 20  1  0
 19 24  1  0
 20 21  1  0
 21 22  1  0
 22 23  1  0
 23 24  1  0
M  END
>  <DRUGBANK_ID>  (1) 
DB11905

>  <COMMON_NAME>  (1) 
Sutezolid

>  <CAS_NUMBER>  (1) 
168828-58-8

>  <UNII>  (1) 
3A71182L8P

>  <SYNONYMS>  (1) 
ACETAMIDE, N-((3-(3-FLUORO-4-(4-THIOMORPHOLINYL)PHENYL)-2-OXO-5-OXAZOLIDINYL)METHYL)-, (S)-; N-{[(5S)-3-(3-fluoro-4-thiomorpholin-4-ylphenyl)-2-oxo-1,3-oxazolidin-5-yl]methyl}acetamide; Sutezolid

$$$$
