
     RDKit          3D

 27 28  0  0  1  0  0  0  0  0999 V2000
    1.2319   -0.3001    0.3921 C   0  0  0  0  0  0  0  0  0  0  0  0
   -0.2498    5.7687   -8.5769 C   0  0  0  0  0  0  0  0  0  0  0  0
   -2.6760    6.1882   -8.6698 C   0  0  0  0  0  0  0  0  0  0  0  0
   -6.0319    4.3664   -7.6655 C   0  0  0  0  0  0  0  0  0  0  0  0
    0.7784    0.7729   -0.5160 C   0  0  0  0  0  0  0  0  0  0  0  0
    1.2360    0.4600   -1.9624 C   0  0  0  0  0  0  0  0  0  0  0  0
    0.4963   -0.6101   -2.7232 C   0  0  0  0  0  0  0  0  0  0  0  0
   -1.0149   -0.3086   -2.7998 C   0  0  0  0  0  0  0  0  0  0  0  0
   -3.8916    3.2917   -8.5719 C   0  0  0  0  0  0  0  0  0  0  0  0
   -2.3853    3.0160   -8.3947 C   0  0  0  0  0  0  0  0  0  0  0  0
   -3.9575    4.4746   -6.3507 C   0  0  0  0  0  0  0  0  0  0  0  0
   -2.2246    0.6992   -4.7168 C   0  0  0  0  0  0  0  0  0  0  0  0
   -0.4484    2.8189   -2.0716 C   0  0  0  0  0  0  0  0  0  0  0  0
   -1.4868    5.3570   -8.2627 C   0  0  0  0  0  0  0  0  0  0  0  0
   -4.5911    4.0615   -7.4584 C   0  0  0  0  0  0  0  0  0  0  0  0
   -1.4224    0.9418   -3.6080 C   0  0  0  0  0  0  0  0  0  0  0  0
   -1.7028    4.0497   -7.4958 C   0  0  1  0  0  0  0  0  0  0  0  0
   -1.1211    2.3275   -3.3026 C   0  0  0  0  0  0  0  0  0  0  0  0
   -2.4944    4.2543   -6.1782 C   0  0  2  0  0  0  0  0  0  0  0  0
   -2.6918    1.7759   -5.4535 C   0  0  0  0  0  0  0  0  0  0  0  0
    0.9819    3.4308   -2.2195 C   0  0  0  0  0  0  0  0  0  0  0  0
   -2.2527    3.1002   -5.2394 C   0  0  0  0  0  0  0  0  0  0  0  0
   -1.4879    3.3680   -4.1312 C   0  0  0  0  0  0  0  0  0  0  0  0
   -3.6659    1.4970   -6.3681 O   0  0  0  0  0  0  0  0  0  0  0  0
    1.4396    4.2439   -1.4668 O   0  0  0  0  0  0  0  0  0  0  0  0
    1.7482    2.9598   -3.2439 O   0  0  0  0  0  0  0  0  0  0  0  0
   -1.1254    4.6654   -3.8701 O   0  0  0  0  0  0  0  0  0  0  0  0
  1  5  1  0
  2 14  2  0
  3 14  1  0
  4 15  1  0
  5  6  1  0
  6  7  1  0
  7  8  1  0
  8 16  1  0
  9 10  1  0
  9 15  1  0
 11 15  2  0
 12 16  2  0
 12 20  1  0
 13 18  1  0
 13 21  1  0
 16 18  1  0
 17 10  1  0
 17 14  1  6
 17 19  1  0
 18 23  2  0
 19 11  1  0
 19 22  1  1
 20 22  2  0
 20 24  1  0
 21 25  2  0
 21 26  1  0
 22 23  1  0
 23 27  1  0
M  END
>  <DRUGBANK_ID>  (1) 
DB17825

>  <COMMON_NAME>  (1) 
Cannabidiolic acid methyl ester

>  <SYNONYMS>  (1) 
2-{2,4-dihydroxy-3-[(1R,6R)-3-methyl-6-(prop-1-en-2-yl)cyclohex-2-en-1-yl]-6-pentylphenyl}acetic acid; CBDA-ME

$$$$
