
     RDKit          3D

 25 27  0  0  0  0  0  0  0  0999 V2000
    1.0047    0.0994   -0.1316 S   0  0  0  0  0  0  0  0  0  0  0  0
    0.3938    1.6684   -0.2800 N   0  0  0  0  0  0  0  0  0  0  0  0
   -0.6340    2.0997   -1.1068 C   0  0  0  0  0  0  0  0  0  0  0  0
   -0.7309    3.4431   -1.3391 N   0  0  0  0  0  0  0  0  0  0  0  0
    0.5911   -0.9098   -1.5437 C   0  0  0  0  0  0  0  0  0  0  0  0
    0.3754   -0.4696    1.0430 O   0  0  0  0  0  0  0  0  0  0  0  0
    2.4486    0.2339   -0.1705 O   0  0  0  0  0  0  0  0  0  0  0  0
   -1.4129    1.3294   -1.6602 O   0  0  0  0  0  0  0  0  0  0  0  0
    0.2326   -0.3452   -2.7646 C   0  0  0  0  0  0  0  0  0  0  0  0
    0.6832   -2.3031   -1.4536 C   0  0  0  0  0  0  0  0  0  0  0  0
    0.3922   -3.0895   -2.5818 C   0  0  0  0  0  0  0  0  0  0  0  0
   -0.2226   -1.1228   -3.8200 C   0  0  0  0  0  0  0  0  0  0  0  0
   -0.0880   -2.5029   -3.7615 C   0  0  0  0  0  0  0  0  0  0  0  0
   -0.3699   -3.2922   -5.0018 C   0  0  0  0  0  0  0  0  0  0  0  0
   -1.5995    3.9242   -2.4246 C   0  0  1  0  0  0  0  0  0  0  0  0
   -2.9572    4.5236   -1.9511 C   0  0  1  0  0  0  0  0  0  0  0  0
   -1.0071    5.0761   -3.2946 C   0  0  1  0  0  0  0  0  0  0  0  0
   -2.6429    5.5704   -0.8621 C   0  0  0  0  0  0  0  0  0  0  0  0
   -2.0752    6.2011   -3.1354 C   0  0  2  0  0  0  0  0  0  0  0  0
   -2.0118    6.7213   -1.6704 C   0  0  0  0  0  0  0  0  0  0  0  0
   -3.4095    5.4040   -3.1507 C   0  0  0  0  0  0  0  0  0  0  0  0
   -1.9715    7.2979   -4.1807 C   0  0  0  0  0  0  0  0  0  0  0  0
    0.2988    5.4759   -2.9170 O   0  0  0  0  0  0  0  0  0  0  0  0
   -4.6668    6.2556   -2.8831 C   0  0  0  0  0  0  0  0  0  0  0  0
   -3.6885    4.6324   -4.4531 C   0  0  0  0  0  0  0  0  0  0  0  0
  1  2  1  0
  1  5  1  0
  1  6  2  0
  1  7  2  0
  2  3  1  0
  3  4  1  0
  3  8  2  0
  5  9  2  0
  5 10  1  0
  9 12  1  0
 10 11  2  0
 11 13  1  0
 12 13  2  0
 13 14  1  0
 15  4  1  1
 15 16  1  0
 15 17  1  0
 16 18  1  1
 16 21  1  0
 17 19  1  0
 17 23  1  1
 18 20  1  0
 19 20  1  0
 19 21  1  0
 19 22  1  6
 21 24  1  0
 21 25  1  0
M  END
>  <DRUGBANK_ID>  (1) 
DB08962

>  <COMMON_NAME>  (1) 
Glibornuride

>  <CAS_NUMBER>  (1) 
26944-48-9

>  <UNII>  (1) 
VP83E7434R

>  <SYNONYMS>  (1) 
Glibornurid; Glibornurida; Glibornuride; Glibornuridum

$$$$
