
     RDKit          3D

 20 22  0  0  0  0  0  0  0  0999 V2000
    1.0183    0.0212    0.0946 O   0  0  0  0  0  0  0  0  0  0  0  0
    0.4222    3.5864   -0.9519 N   0  0  0  0  0  0  0  0  0  0  0  0
    1.0559    2.4476   -0.2542 C   0  0  0  0  0  0  0  0  0  0  0  0
    0.5391    1.0403   -0.8070 C   0  0  0  0  0  0  0  0  0  0  0  0
    0.9103    2.6705    1.2659 C   0  0  0  0  0  0  0  0  0  0  0  0
    1.3159    4.0616    1.7308 C   0  0  0  0  0  0  0  0  0  0  0  0
    0.7504    5.1371    0.7996 C   0  0  0  0  0  0  0  0  0  0  0  0
    1.0890    4.8346   -0.6483 C   0  0  0  0  0  0  0  0  0  0  0  0
    1.2137    0.7444   -2.1960 C   0  0  0  0  0  0  0  0  0  0  0  0
   -1.0152    0.9298   -0.8151 C   0  0  0  0  0  0  0  0  0  0  0  0
    1.7921    1.7469   -3.0041 C   0  0  0  0  0  0  0  0  0  0  0  0
   -1.7187    0.3954   -1.9079 C   0  0  0  0  0  0  0  0  0  0  0  0
    1.2352   -0.5637   -2.7187 C   0  0  0  0  0  0  0  0  0  0  0  0
   -1.8276    1.3216    0.2661 C   0  0  0  0  0  0  0  0  0  0  0  0
    2.2448    1.5020   -4.2980 C   0  0  0  0  0  0  0  0  0  0  0  0
   -3.1127    0.2658   -1.8945 C   0  0  0  0  0  0  0  0  0  0  0  0
    1.7593   -0.8272   -3.9917 C   0  0  0  0  0  0  0  0  0  0  0  0
   -3.2156    1.2243    0.2849 C   0  0  0  0  0  0  0  0  0  0  0  0
    2.2305    0.2106   -4.7927 C   0  0  0  0  0  0  0  0  0  0  0  0
   -3.8658    0.6864   -0.8104 C   0  0  0  0  0  0  0  0  0  0  0  0
  1  4  1  0
  2  3  1  0
  2  8  1  0
  3  4  1  0
  3  5  1  0
  4  9  1  0
  4 10  1  0
  5  6  1  0
  6  7  1  0
  7  8  1  0
  9 11  2  0
  9 13  1  0
 10 12  2  0
 10 14  1  0
 11 15  1  0
 12 16  1  0
 13 17  2  0
 14 18  2  0
 15 19  2  0
 16 20  2  0
 17 19  1  0
 18 20  1  0
M  END
>  <DRUGBANK_ID>  (1) 
DB11584

>  <COMMON_NAME>  (1) 
Pipradrol

>  <CAS_NUMBER>  (1) 
467-60-7

>  <UNII>  (1) 
S6I030E0DA

>  <SYNONYMS>  (1) 
Pipradrol

$$$$
