
     RDKit          3D

  6  4  0  0  0  0  0  0  0  0999 V2000
    1.3821   -0.0202   -0.4338 Cl  0  0  0  0  0  0  0  0  0  0  0  0
    0.8847    1.1055    0.3389 O   0  0  0  0  0  0  0  0  0  0  0  0
    0.8359    0.0453   -1.7673 O   0  0  0  0  0  0  0  0  0  0  0  0
    0.8727   -1.2082    0.2302 O   0  0  0  0  0  0  0  0  0  0  0  0
    2.8251   -0.0281   -0.4236 O   0  0  0  0  0  0  0  0  0  0  0  0
   -0.8190   -0.1137    1.8058 K   0  0  0  0  0 15  0  0  0  0  0  0
  2  1  1  0
  3  1  1  0
  4  1  1  0
  5  1  1  0
M  CHG  6   1   3   2  -1   3  -1   4  -1   5  -1   6   1
M  END
>  <DRUGBANK_ID>  (1) 
DB09418

>  <COMMON_NAME>  (1) 
Potassium perchlorate

>  <CAS_NUMBER>  (1) 
7778-74-7

>  <UNII>  (1) 
42255P5X4D

>  <SYNONYMS>  (1) 
Perchloric acid, potassium salt; Potassium perchlorate

$$$$
