
     RDKit          3D

  9  8  0  0  0  0  0  0  0  0999 V2000
    0.9672   -0.0760   -0.0464 C   0  0  0  0  0  0  0  0  0  0  0  0
    0.4766   -0.8710    1.1697 C   0  0  0  0  0  0  0  0  0  0  0  0
    0.4978    1.3774   -0.0867 C   0  0  0  0  0  0  0  0  0  0  0  0
    0.9214   -0.3339    2.5377 C   0  0  0  0  0  0  0  0  0  0  0  0
    0.9343    2.1770   -1.2992 C   0  0  0  0  0  0  0  0  0  0  0  0
    0.3562    1.0179    2.9893 C   0  0  0  0  0  0  0  0  0  0  0  0
    0.3860    1.6247   -2.5954 C   0  0  0  0  0  0  0  0  0  0  0  0
   -1.1491    1.1455    2.8061 C   0  0  0  0  0  0  0  0  0  0  0  0
   -1.0322    1.6282   -2.5857 O   0  0  0  0  0  0  0  0  0  0  0  0
  1  2  1  0
  1  3  1  0
  2  4  1  0
  3  5  1  0
  4  6  1  0
  5  7  1  0
  6  8  1  0
  7  9  1  0
M  END
>  <DRUGBANK_ID>  (1) 
DB12452

>  <COMMON_NAME>  (1) 
Caprylic alcohol

>  <CAS_NUMBER>  (1) 
111-87-5

>  <UNII>  (1) 
NV1779205D

>  <SYNONYMS>  (1) 
1-Octanol

$$$$
