121
     RDKit          3D

 16 17  0  0  1  0  0  0  0  0999 V2000
    1.8531    0.0071   -0.8383 S   0  0  0  0  0  0  0  0  0  0  0  0
   -2.7876    0.0341   -0.8312 O   0  0  0  0  0  0  0  0  0  0  0  0
    3.9263    6.4188    1.5559 O   0  0  0  0  0  0  0  0  0  0  0  0
    2.4308    5.7426    0.0326 O   0  0  0  0  0  0  0  0  0  0  0  0
   -1.1067    1.0349    0.3814 N   0  0  0  0  0  0  0  0  0  0  0  0
   -1.1270   -1.1785    0.2336 N   0  0  0  0  0  0  0  0  0  0  0  0
    0.1042    0.6326    1.0716 C   0  0  1  0  0  0  0  0  0  0  0  0
    0.0981   -0.9032    0.9562 C   0  0  2  0  0  0  0  0  0  0  0  0
    1.3889    1.1889    0.4401 C   0  0  2  0  0  0  0  0  0  0  0  0
    1.3537   -1.3713    0.2152 C   0  0  0  0  0  0  0  0  0  0  0  0
    1.2302    2.6131   -0.0707 C   0  0  0  0  0  0  0  0  0  0  0  0
    0.8454    3.5397    1.0929 C   0  0  0  0  0  0  0  0  0  0  0  0
   -1.7786   -0.0314   -0.1500 C   0  0  0  0  0  0  0  0  0  0  0  0
    1.9452    3.6215    2.1608 C   0  0  0  0  0  0  0  0  0  0  0  0
    3.2836    4.0989    1.5954 C   0  0  0  0  0  0  0  0  0  0  0  0
    3.1593    5.4763    0.9768 C   0  0  0  0  0  0  0  0  0  0  0  0
  1  9  1  0
  1 10  1  0
  2 13  2  0
  3 16  1  0
  4 16  2  0
  7  5  1  6
  5 13  1  0
  6  8  1  0
  6 13  1  0
  7  8  1  0
  7  9  1  0
  8 10  1  6
  9 11  1  6
 11 12  1  0
 12 14  1  0
 14 15  1  0
 15 16  1  0
M  END
>  <DRUGBANK_ID>  (1) 
DB00121

>  <SECONDARY_ACCESSION_NUMBERS>  (1) 
NUTR00019

>  <COMMON_NAME>  (1) 
Biotin

>  <CAS_NUMBER>  (1) 
58-85-5

>  <UNII>  (1) 
6SO6U10H04

>  <SYNONYMS>  (1) 
(+)-cis-Hexahydro-2-oxo-1H-thieno[3,4]imidazole-4-valeric acid; (3aS,4S,6aR)-Hexahydro-2-oxo-1H-thieno[3,4-d]imidazole-4-valeric acid; 5-(2-oxohexahydro-1H-thieno[3,4-d]imidazol-4-yl)pentanoic acid; Biotin; Biotina; Biotine; Biotinum; cis-(+)-Tetrahydro-2-oxothieno[3,4]imidazoline-4-valeric acid; cis-Hexahydro-2-oxo-1H-thieno(3,4)imidazole-4-valeric acid; cis-Tetrahydro-2-oxothieno(3,4-d)imidazoline-4-valeric acid; Coenzyme R; D-(+)-biotin; D-Biotin; Vitamin B7; Vitamin H

$$$$
