
     RDKit          3D

 14 13  0  0  1  0  0  0  0  0999 V2000
    1.1259   -1.1961    2.4724 C   0  0  0  0  0  0  0  0  0  0  0  0
    0.3314   -2.3180    1.7538 C   0  0  1  0  0  0  0  0  0  0  0  0
    0.5319   -2.5292    0.2183 C   0  0  2  0  0  0  0  0  0  0  0  0
    0.1180   -1.2833   -0.6585 C   0  0  1  0  0  0  0  0  0  0  0  0
    0.8927   -0.0529   -0.4478 N   0  0  0  0  0  0  0  0  0  0  0  0
    0.6227   -3.5375    2.4549 O   0  0  0  0  0  0  0  0  0  0  0  0
   -0.0937   -3.7498   -0.2195 O   0  0  0  0  0  0  0  0  0  0  0  0
    0.2529   -1.5986   -2.0348 O   0  0  0  0  0  0  0  0  0  0  0  0
    0.3644    0.9525   -1.3723 O   0  0  0  0  0  0  0  0  0  0  0  0
    3.2598    0.0839    0.7740 O   0  0  0  0  0  0  0  0  0  0  0  0
    4.5475   -1.8981    1.4567 O   0  0  0  0  0  0  0  0  0  0  0  0
    3.6106   -1.7042   -0.6799 O   0  0  0  0  0  0  0  0  0  0  0  0
    2.5456   -1.3646    2.4020 O   0  0  0  0  0  0  0  0  0  0  0  0
    3.1076   -1.5438    0.7757 P   0  0  0  0  0  0  0  0  0  0  0  0
  2  1  1  0
  2  6  1  1
  3  7  1  6
  3  4  1  0
  3  2  1  0
  4  8  1  6
  5  4  1  0
  9  5  1  0
 13  1  1  0
 14 10  1  0
 14 11  1  0
 14 12  2  0
 14 13  1  0
M  END
>  <DRUGBANK_ID>  (1) 
DB03855

>  <SECONDARY_ACCESSION_NUMBERS>  (1) 
EXPT03133

>  <COMMON_NAME>  (1) 
L-Threonohydroxamate 4-Phosphate

$$$$
