136
     RDKit          3D

 22 23  0  0  0  0  0  0  0  0999 V2000
    0.3354    1.3517    0.0102 C   0  0  0  0  0  0  0  0  0  0  0  0
   -0.3622    0.1727    0.2252 C   0  0  0  0  0  0  0  0  0  0  0  0
   -2.0685    0.0105    0.4577 Cl  0  0  0  0  0  0  0  0  0  0  0  0
    0.3406   -1.0186    0.3562 C   0  0  0  0  0  0  0  0  0  0  0  0
    1.6936   -1.1617    0.1052 C   0  0  0  0  0  0  0  0  0  0  0  0
    2.4230    0.0175   -0.0064 C   0  0  0  0  0  0  0  0  0  0  0  0
    1.7480    1.2659   -0.0339 C   0  0  0  0  0  0  0  0  0  0  0  0
   -0.3956    2.6612   -0.0608 C   0  0  0  0  0  0  0  0  0  0  0  0
    0.2627    3.8431   -0.0634 N   0  0  0  0  0  0  0  0  0  0  0  0
   -1.6856    2.6857   -0.1118 N   0  0  0  0  0  0  0  0  0  0  0  0
    2.3010   -2.4365    0.0057 N   0  0  0  0  0  0  0  0  0  0  0  0
    1.7367   -3.7172   -0.0515 C   0  0  0  0  0  0  0  0  0  0  0  0
    2.4498   -4.7040    0.0780 O   0  0  0  0  0  0  0  0  0  0  0  0
    0.2663   -3.9532   -0.1942 C   0  0  0  0  0  0  0  0  0  0  0  0
   -0.4856   -3.2627   -1.1692 C   0  0  0  0  0  0  0  0  0  0  0  0
   -1.8856   -3.1786   -1.0588 C   0  0  0  0  0  0  0  0  0  0  0  0
   -2.6825   -2.2165   -1.9003 C   0  0  0  0  0  0  0  0  0  0  0  0
   -2.5339   -3.9399   -0.0795 C   0  0  0  0  0  0  0  0  0  0  0  0
   -1.7974   -4.7515    0.7935 C   0  0  0  0  0  0  0  0  0  0  0  0
   -2.8724   -5.9473    2.1375 I   0  0  0  0  0  0  0  0  0  0  0  0
   -0.3954   -4.7402    0.7652 C   0  0  0  0  0  0  0  0  0  0  0  0
    0.2911   -5.4454    1.7221 O   0  0  0  0  0  0  0  0  0  0  0  0
  1  2  2  0
  1  7  1  0
  1  8  1  0
  2  3  1  0
  2  4  1  0
  4  5  2  0
  5  6  1  0
  5 11  1  0
  6  7  2  0
  8  9  1  0
  8 10  2  0
 11 12  1  0
 12 13  2  0
 12 14  1  0
 14 15  2  0
 14 21  1  0
 15 16  1  0
 16 17  1  0
 16 18  2  0
 18 19  1  0
 19 20  1  0
 19 21  2  0
 21 22  1  0
M  END
>  <DRUGBANK_ID>  (1) 
DB06857

>  <COMMON_NAME>  (1) 
N-(4-CARBAMIMIDOYL-3-CHORO-PHENYL)-2-HYDROXY-3-IODO-5-METHYL-BENZAMIDE

$$$$
