HM5
     RDKit          3D

 21 22  0  0  0  0  0  0  0  0999 V2000
   -0.8944    0.1340   -0.9431 S   0  0  0  0  0  0  0  0  0  0  0  0
    1.7513   -0.3829   -0.4481 N   0  0  0  0  0  0  0  0  0  0  0  0
    0.5881   -2.9484    0.0068 N   0  0  0  0  0  0  0  0  0  0  0  0
   -2.4744   -5.4240   -0.9033 N   0  0  0  0  0  0  0  0  0  0  0  0
    0.0475   -4.8419    1.7974 N   0  0  0  0  0  0  0  0  0  0  0  0
    0.0657    1.3803   -0.2106 C   0  0  0  0  0  0  0  0  0  0  0  0
    1.3768    0.9413   -0.1790 C   0  0  0  0  0  0  0  0  0  0  0  0
    0.7185   -1.1616   -0.4295 C   0  0  0  0  0  0  0  0  0  0  0  0
   -1.1771   -3.7418   -0.1760 C   0  0  0  0  0  0  0  0  0  0  0  0
   -1.5217   -5.0206   -0.0238 C   0  0  0  0  0  0  0  0  0  0  0  0
   -2.6162   -6.7066   -0.9144 C   0  0  0  0  0  0  0  0  0  0  0  0
   -1.8278   -7.4854   -0.0845 C   0  0  0  0  0  0  0  0  0  0  0  0
   -0.8901   -6.9228    0.8274 C   0  0  0  0  0  0  0  0  0  0  0  0
   -0.7516   -5.5831    0.9055 C   0  0  0  0  0  0  0  0  0  0  0  0
    0.0877   -3.4253    1.9770 C   0  0  0  0  0  0  0  0  0  0  0  0
   -0.8899   -2.1811    0.8493 C   0  0  0  0  0  0  0  0  0  0  0  0
   -2.3297   -2.5093    1.5580 C   0  0  0  0  0  0  0  0  0  0  0  0
   -0.5102   -2.4637   -1.3410 C   0  0  0  0  0  0  0  0  0  0  0  0
   -0.3142   -1.0355    1.6883 C   0  0  0  0  0  0  0  0  0  0  0  0
   -2.2507   -3.1070   -0.6287 O   0  0  0  0  0  0  0  0  0  0  0  0
    1.0351   -3.0497    2.6991 O   0  0  0  0  0  0  0  0  0  0  0  0
  1  8  1  0
  1  6  1  0
  2  8  2  0
  2  7  1  0
  3  9  1  0
  3  8  1  0
  4 11  2  0
  4 10  1  0
  5 14  1  0
  5 15  1  0
  6  7  2  0
  9 10  1  0
  9 20  2  0
 10 14  2  0
 11 12  1  0
 12 13  2  0
 13 14  1  0
 15 21  2  0
 15 16  1  0
 16 18  1  0
 16 17  1  0
 16 19  1  0
M  END
>  <DRUGBANK_ID>  (1) 
DB07903

>  <COMMON_NAME>  (1) 
3-[(2,2-DIMETHYLPROPANOYL)AMINO]-N-1,3-THIAZOL-2-YLPYRIDINE-2-CARBOXAMIDE

$$$$
