LG7
     RDKit          3D

 23 26  0  0  0  0  0  0  0  0999 V2000
    0.5214   -2.6033    0.0492 C   0  0  0  0  0  0  0  0  0  0  0  0
   -1.8293    1.9246    0.0062 C   0  0  0  0  0  0  0  0  0  0  0  0
   -0.5025    1.5211    0.0090 C   0  0  0  0  0  0  0  0  0  0  0  0
   -0.1457    0.1449   -0.0049 C   0  0  0  0  0  0  0  0  0  0  0  0
    1.2069   -0.2384    0.0107 C   0  0  0  0  0  0  0  0  0  0  0  0
   -2.8229    0.9613   -0.0119 C   0  0  0  0  0  0  0  0  0  0  0  0
   -2.5005   -0.4030   -0.0218 C   0  0  0  0  0  0  0  0  0  0  0  0
   -1.1750   -0.8754   -0.0260 C   0  0  0  0  0  0  0  0  0  0  0  0
    2.2784    0.7452   -0.0021 C   0  0  0  0  0  0  0  0  0  0  0  0
   -0.8484   -2.2835   -0.0015 C   0  0  0  0  0  0  0  0  0  0  0  0
   -5.6067   -3.5615   -1.7868 O   0  0  0  0  0  0  0  0  0  0  0  0
   -5.0818   -4.7610   -1.2430 C   0  0  2  0  0  0  0  0  0  0  0  0
   -5.7904   -5.0407    0.0853 C   0  0  0  0  0  0  0  0  0  0  0  0
   -4.6934   -5.1316    1.1620 C   0  0  0  0  0  0  0  0  0  0  0  0
   -3.4320   -4.8651    0.4623 N   0  0  0  0  0  0  0  0  0  0  0  0
   -3.5911   -4.7263   -0.9430 C   0  0  2  0  0  0  0  0  0  0  0  0
   -2.7520   -3.4658   -1.1568 C   0  0  0  0  0  0  0  0  0  0  0  0
   -2.8381   -2.7621   -2.1532 O   0  0  0  0  0  0  0  0  0  0  0  0
   -1.8560   -3.3456   -0.1060 N   0  0  0  0  0  0  0  0  0  0  0  0
   -2.2062   -4.2951    0.8677 C   0  0  0  0  0  0  0  0  0  0  0  0
   -1.6012   -4.6232    1.8748 O   0  0  0  0  0  0  0  0  0  0  0  0
    1.5267   -1.6004    0.0390 C   0  0  0  0  0  0  0  0  0  0  0  0
    3.1024    1.5519   -0.0151 N   0  0  0  0  0  0  0  0  0  0  0  0
  1 22  2  0
  1 10  1  0
  2  3  2  0
  2  6  1  0
  3  4  1  0
  4  5  2  0
  4  8  1  0
  5 22  1  0
  5  9  1  0
  6  7  2  0
  7  8  1  0
  8 10  2  0
  9 23  3  0
 10 19  1  0
 12 13  1  0
 12 16  1  0
 12 11  1  1
 13 14  1  0
 14 15  1  0
 15 20  1  0
 15 16  1  0
 16 17  1  1
 17 19  1  0
 17 18  2  0
 19 20  1  0
 20 21  2  0
M  END
>  <DRUGBANK_ID>  (1) 
DB08087

>  <COMMON_NAME>  (1) 
4-[(7R,7AS)-7-HYDROXY-1,3-DIOXOTETRAHYDRO-1H-PYRROLO[1,2-C]IMIDAZOL-2(3H)-YL]-1-NAPHTHONITRILE

$$$$
