
     RDKit          3D

 27 30  0  0  0  0  0  0  0  0999 V2000
   -0.9581   -0.3011    0.7706 S   0  0  0  0  0  0  0  0  0  0  0  0
    0.0204    1.0790    0.4313 C   0  0  0  0  0  0  0  0  0  0  0  0
    0.4584   -1.3669    0.7451 C   0  0  0  0  0  0  0  0  0  0  0  0
    1.3488    0.6941    0.4250 C   0  0  0  0  0  0  0  0  0  0  0  0
    1.5875   -0.6629    0.6770 N   0  0  0  0  0  0  0  0  0  0  0  0
    1.8984   -5.6385   -0.9370 C   0  0  0  0  0  0  0  0  0  0  0  0
    1.0235   -4.8826   -0.0244 N   0  0  0  0  0  0  0  0  0  0  0  0
    3.3680   -5.3445   -0.7276 C   0  0  0  0  0  0  0  0  0  0  0  0
    1.2408   -3.5687    0.3661 C   0  0  0  0  0  0  0  0  0  0  0  0
    3.4875   -3.8811   -0.5610 C   0  0  0  0  0  0  0  0  0  0  0  0
    2.5636   -3.2915    0.3882 N   0  0  0  0  0  0  0  0  0  0  0  0
    0.2559   -2.7311    0.6810 N   0  0  0  0  0  0  0  0  0  0  0  0
    2.4289    1.6362    0.1240 C   0  0  0  0  0  0  0  0  0  0  0  0
    4.3339    2.4808   -1.1450 C   0  0  0  0  0  0  0  0  0  0  0  0
    4.5817    3.4546   -0.1860 C   0  0  0  0  0  0  0  0  0  0  0  0
    3.2141    1.6286   -1.0453 C   0  0  0  0  0  0  0  0  0  0  0  0
    3.7196    3.5702    0.8965 C   0  0  0  0  0  0  0  0  0  0  0  0
    2.6870    2.6421    1.0728 C   0  0  0  0  0  0  0  0  0  0  0  0
    3.0118    0.9612   -2.2355 O   0  0  0  0  0  0  0  0  0  0  0  0
    2.0547   -0.0066   -2.3456 C   0  0  0  0  0  0  0  0  0  0  0  0
    0.0381   -1.9990   -2.4149 C   0  0  0  0  0  0  0  0  0  0  0  0
   -0.2873   -0.6563   -2.5007 C   0  0  0  0  0  0  0  0  0  0  0  0
    1.4209   -2.3129   -2.4380 C   0  0  0  0  0  0  0  0  0  0  0  0
    0.7131    0.3305   -2.5210 C   0  0  0  0  0  0  0  0  0  0  0  0
    2.4586   -1.3194   -2.3131 C   0  0  0  0  0  0  0  0  0  0  0  0
    3.9221   -1.5119   -1.8984 C   0  0  0  0  0  0  0  0  0  0  0  0
   -1.0385   -3.0462   -2.1359 C   0  0  0  0  0  0  0  0  0  0  0  0
  2  1  1  0
  3  1  1  0
  4  2  2  0
  4 13  1  0
  5  3  2  0
  5  4  1  0
  7  6  1  0
  8  6  1  0
  9  7  1  0
  9 12  2  3
 10  8  1  0
 11  9  1  0
 11 10  1  0
 12  3  1  0
 13 16  2  0
 15 14  2  0
 16 14  1  0
 16 19  1  0
 17 15  1  0
 18 17  2  0
 18 13  1  0
 19 20  1  0
 20 24  2  0
 20 25  1  0
 21 27  1  0
 22 21  2  0
 23 21  1  0
 24 22  1  0
 25 23  2  0
 25 26  1  0
M  END
>  <DRUGBANK_ID>  (1) 
DB06395

>  <COMMON_NAME>  (1) 
Abafungin

>  <CAS_NUMBER>  (1) 
129639-79-8

>  <UNII>  (1) 
11DI31LWXF

>  <SYNONYMS>  (1) 
Abafungin; Abafungina; Abafungine; Abafunginum

$$$$
