BDS
     RDKit          3D

 28 31  0  0  0  0  0  0  0  0999 V2000
    1.1595    0.3225   -0.1908 C   0  0  1  0  0  0  0  0  0  0  0  0
    0.7189    1.6855   -0.7706 C   0  0  0  0  0  0  0  0  0  0  0  0
    0.1126    2.5812   -0.2007 O   0  0  0  0  0  0  0  0  0  0  0  0
    1.0259    1.9454   -2.0354 O   0  0  0  0  0  0  0  0  0  0  0  0
    0.7431    0.4733    1.2911 C   0  0  0  0  0  0  0  0  0  0  0  0
   -0.7846    0.7968    1.4858 C   0  0  0  0  0  0  0  0  0  0  0  0
   -1.2883    1.2173    2.7298 C   0  0  0  0  0  0  0  0  0  0  0  0
   -2.6533    1.5120    2.9109 C   0  0  0  0  0  0  0  0  0  0  0  0
   -3.4843    1.4824    1.8128 C   0  0  0  0  0  0  0  0  0  0  0  0
   -4.7717    1.9118    1.7380 O   0  0  0  0  0  0  0  0  0  0  0  0
   -5.0024    1.8147    0.3122 C   0  0  0  0  0  0  0  0  0  0  0  0
   -3.9592    1.1107   -0.3833 O   0  0  0  0  0  0  0  0  0  0  0  0
   -3.0344    1.0401    0.6073 C   0  0  0  0  0  0  0  0  0  0  0  0
   -1.7358    0.6464    0.4356 C   0  0  0  0  0  0  0  0  0  0  0  0
    0.6527   -1.0544   -0.8740 C   0  0  1  0  0  0  0  0  0  0  0  0
    1.1362   -1.0890   -2.3310 C   0  0  0  0  0  0  0  0  0  0  0  0
    1.9506   -1.8280   -2.8145 O   0  0  0  0  0  0  0  0  0  0  0  0
    0.5173   -0.1558   -3.0910 O   0  0  0  0  0  0  0  0  0  0  0  0
    1.0217   -2.4670   -0.1857 C   0  0  0  0  0  0  0  0  0  0  0  0
    0.4496   -2.8950    1.1800 C   0  0  0  0  0  0  0  0  0  0  0  0
    0.5353   -4.1327    1.8036 C   0  0  0  0  0  0  0  0  0  0  0  0
    0.1142   -4.3058    3.1706 C   0  0  0  0  0  0  0  0  0  0  0  0
   -0.2127   -3.2058    3.9438 C   0  0  0  0  0  0  0  0  0  0  0  0
   -0.5745   -3.0908    5.2531 O   0  0  0  0  0  0  0  0  0  0  0  0
   -0.7386   -1.6522    5.3871 C   0  0  0  0  0  0  0  0  0  0  0  0
   -0.6029   -0.9931    4.1304 O   0  0  0  0  0  0  0  0  0  0  0  0
   -0.3303   -2.0321    3.3126 C   0  0  0  0  0  0  0  0  0  0  0  0
   -0.2700   -2.0138    1.9390 C   0  0  0  0  0  0  0  0  0  0  0  0
  1 15  1  0
  1  5  1  1
  1  2  1  0
  2  3  2  0
  2  4  1  0
  5  6  1  0
  6  7  2  0
  6 14  1  0
  7  8  1  0
  8  9  2  0
  9 10  1  0
  9 13  1  0
 10 11  1  0
 11 12  1  0
 12 13  1  0
 13 14  2  0
 15 16  1  0
 15 19  1  1
 16 17  2  0
 16 18  1  0
 19 20  1  0
 20 21  2  0
 20 28  1  0
 21 22  1  0
 22 23  2  0
 23 24  1  0
 23 27  1  0
 24 25  1  0
 25 26  1  0
 26 27  1  0
 27 28  2  0
M  END
>  <DRUGBANK_ID>  (1) 
DB02154

>  <SECONDARY_ACCESSION_NUMBERS>  (1) 
EXPT00654

>  <COMMON_NAME>  (1) 
2,3-Bis-Benzo[1,3]Dioxol-5-Ylmethyl-Succinic Acid

$$$$
