LJ2
     RDKit          3D

 17 18  0  0  0  0  0  0  0  0999 V2000
   -1.1781   -1.9522    0.0164 C   0  0  0  0  0  0  0  0  0  0  0  0
   -1.2059   -0.5504    0.0077 C   0  0  0  0  0  0  0  0  0  0  0  0
   -2.8837    0.3358   -0.0097 Br  0  0  0  0  0  0  0  0  0  0  0  0
   -0.0186    0.1856    0.0197 C   0  0  0  0  0  0  0  0  0  0  0  0
   -0.0257    1.5545    0.0494 O   0  0  0  0  0  0  0  0  0  0  0  0
    1.1985   -0.4890    0.0079 C   0  0  0  0  0  0  0  0  0  0  0  0
    2.8551    0.4358   -0.0075 Br  0  0  0  0  0  0  0  0  0  0  0  0
    1.2278   -1.8857    0.0170 C   0  0  0  0  0  0  0  0  0  0  0  0
    0.0457   -2.6403    0.0467 C   0  0  0  0  0  0  0  0  0  0  0  0
    0.0529   -4.1157    0.1206 C   0  0  0  0  0  0  0  0  0  0  0  0
    1.1618   -4.8765    0.2019 C   0  0  0  0  0  0  0  0  0  0  0  0
    1.1667   -6.3430    0.2426 C   0  0  0  0  0  0  0  0  0  0  0  0
    0.3505   -7.0936   -0.6098 C   0  0  0  0  0  0  0  0  0  0  0  0
    0.4482   -8.4849   -0.6390 C   0  0  0  0  0  0  0  0  0  0  0  0
    1.3835   -9.1363    0.1626 C   0  0  0  0  0  0  0  0  0  0  0  0
    2.2198   -8.3974    0.9971 C   0  0  0  0  0  0  0  0  0  0  0  0
    2.0961   -7.0073    1.0555 C   0  0  0  0  0  0  0  0  0  0  0  0
  1  2  2  0
  1  9  1  0
  2  3  1  0
  2  4  1  0
  4  5  1  0
  4  6  2  0
  6  7  1  0
  6  8  1  0
  8  9  2  0
  9 10  1  0
 10 11  2  0
 11 12  1  0
 12 13  2  0
 12 17  1  0
 13 14  1  0
 14 15  2  0
 15 16  1  0
 16 17  2  0
M  END
>  <DRUGBANK_ID>  (1) 
DB08101

>  <COMMON_NAME>  (1) 
2,6-dibromo-4-[(E)-2-phenylethenyl]phenol

$$$$
