HBN
     RDKit          3D

 21 23  0  0  0  0  0  0  0  0999 V2000
   -8.7985    3.7416    4.6827 C   0  0  0  0  0  0  0  0  0  0  0  0
   -9.5582    4.0976    5.8072 C   0  0  0  0  0  0  0  0  0  0  0  0
  -10.2045    3.1209    6.5586 C   0  0  0  0  0  0  0  0  0  0  0  0
  -10.0970    1.7872    6.1855 C   0  0  0  0  0  0  0  0  0  0  0  0
   -9.3663    1.4267    5.0466 C   0  0  0  0  0  0  0  0  0  0  0  0
   -8.6936    2.3981    4.2693 C   0  0  0  0  0  0  0  0  0  0  0  0
   -7.9634    1.9807    3.1181 C   0  0  0  0  0  0  0  0  0  0  0  0
   -7.9202    0.6274    2.7395 C   0  0  0  0  0  0  0  0  0  0  0  0
   -8.5995   -0.2916    3.5402 C   0  0  0  0  0  0  0  0  0  0  0  0
   -9.3101    0.0930    4.6708 C   0  0  0  0  0  0  0  0  0  0  0  0
   -7.2071    0.2119    1.5784 N   0  0  0  0  0  0  0  0  0  0  0  0
   -4.9754   -0.5947   -0.0224 N   0  0  0  0  0  0  0  0  0  0  0  0
   -6.2449   -1.3506   -0.1043 C   0  0  1  0  0  0  0  0  0  0  0  0
   -7.1147   -1.1042    1.1296 C   0  0  0  0  0  0  0  0  0  0  0  0
   -7.6757   -2.0871    1.6235 O   0  0  0  0  0  0  0  0  0  0  0  0
   -7.0409   -1.0644   -1.3837 C   0  0  0  0  0  0  0  0  0  0  0  0
   -6.2665   -1.4013   -2.6138 C   0  0  0  0  0  0  0  0  0  0  0  0
   -6.0875   -2.6687   -3.1125 N   0  0  0  0  0  0  0  0  0  0  0  0
   -5.5475   -0.5880   -3.4614 C   0  0  0  0  0  0  0  0  0  0  0  0
   -5.2885   -2.5624   -4.2176 C   0  0  0  0  0  0  0  0  0  0  0  0
   -4.9508   -1.3162   -4.4533 N   0  0  0  0  0  0  0  0  0  0  0  0
  1  2  2  0
  1  6  1  0
  2  3  1  0
  3  4  2  0
  4  5  1  0
  5  6  2  0
  5 10  1  0
  6  7  1  0
  7  8  2  0
  8  9  1  0
  8 11  1  0
  9 10  2  0
 11 14  1  0
 13 16  1  0
 13 14  1  0
 13 12  1  1
 14 15  2  0
 16 17  1  0
 17 18  1  0
 17 19  2  0
 18 20  1  0
 19 21  1  0
 20 21  2  0
M  END
>  <DRUGBANK_ID>  (1) 
DB01938

>  <SECONDARY_ACCESSION_NUMBERS>  (1) 
EXPT01699

>  <COMMON_NAME>  (1) 
L-Histidine Beta Naphthylamide

$$$$
