
     RDKit          3D

 30 32  0  0  1  0  0  0  0  0999 V2000
    0.8135    5.4851   -0.8079 C   0  0  0  0  0  0  0  0  0  0  0  0
    0.7681    4.0103   -1.1649 C   0  0  0  0  0  0  0  0  0  0  0  0
   -0.6251    3.5392   -1.5037 C   0  0  0  0  0  0  0  0  0  0  0  0
   -1.1309    3.0159   -2.6540 C   0  0  0  0  0  0  0  0  0  0  0  0
   -2.5209    2.5726   -2.6282 C   0  0  0  0  0  0  0  0  0  0  0  0
   -2.9474    1.2642   -2.8079 C   0  0  0  0  0  0  0  0  0  0  0  0
   -4.6397    1.2584   -3.1251 S   0  0  0  0  0  0  0  0  0  0  0  0
   -4.7217    2.8655   -2.5268 C   0  0  0  0  0  0  0  0  0  0  0  0
   -3.5601    3.4520   -2.3254 N   0  0  0  0  0  0  0  0  0  0  0  0
   -5.9230    3.4255   -2.3316 N   0  0  0  0  0  0  0  0  0  0  0  0
   -0.1940    2.9025   -3.9024 C   0  0  0  0  0  0  0  0  0  0  0  0
    0.9939    3.2374   -3.8560 O   0  0  0  0  0  0  0  0  0  0  0  0
   -0.5514    2.4535   -5.1511 N   0  0  0  0  0  0  0  0  0  0  0  0
   -1.7401    1.7209   -5.5422 C   0  0  1  0  0  0  0  0  0  0  0  0
   -2.7598    2.1588   -6.5636 C   0  0  2  0  0  0  0  0  0  0  0  0
   -2.8317    0.7473   -6.9550 N   0  0  0  0  0  0  0  0  0  0  0  0
   -1.7347    0.3712   -6.2497 C   0  0  0  0  0  0  0  0  0  0  0  0
   -1.0431   -0.6278   -6.2129 O   0  0  0  0  0  0  0  0  0  0  0  0
   -3.3403    0.2867   -8.1435 C   0  0  0  0  0  0  0  0  0  0  0  0
   -3.7006    1.1868   -9.0940 C   0  0  0  0  0  0  0  0  0  0  0  0
   -3.5545    2.6936   -8.9451 C   0  0  0  0  0  0  0  0  0  0  0  0
   -2.1735    3.1866   -7.8938 S   0  0  0  0  0  0  0  0  0  0  0  0
   -4.2220    0.7997  -10.4612 C   0  0  0  0  0  0  0  0  0  0  0  0
   -3.3021   -0.0280  -11.2091 O   0  0  0  0  0  0  0  0  0  0  0  0
   -2.0799    0.4766  -11.4700 C   0  0  0  0  0  0  0  0  0  0  0  0
   -1.7065    1.6112  -11.2249 O   0  0  0  0  0  0  0  0  0  0  0  0
   -1.2744   -0.4475  -12.0466 N   0  0  0  0  0  0  0  0  0  0  0  0
   -3.4709   -1.2223   -8.3071 C   0  0  0  0  0  0  0  0  0  0  0  0
   -3.1616   -2.0724   -7.4914 O   0  0  0  0  0  0  0  0  0  0  0  0
   -4.0660   -1.6047   -9.4519 O   0  0  0  0  0  0  0  0  0  0  0  0
  1  2  1  0
  2  3  1  0
  3  4  2  0
  4  5  1  0
  4 11  1  0
  5  6  2  0
  5  9  1  0
  6  7  1  0
  7  8  1  0
  8  9  2  0
  8 10  1  0
 11 12  2  0
 11 13  1  0
 14 15  1  0
 14 17  1  0
 14 13  1  6
 15 16  1  0
 15 22  1  6
 16 17  1  0
 16 19  1  0
 17 18  2  0
 19 20  2  0
 19 28  1  0
 20 21  1  0
 20 23  1  0
 21 22  1  0
 23 24  1  0
 24 25  1  0
 25 26  2  0
 25 27  1  0
 28 29  2  0
 28 30  1  0
M  END
>  <DRUGBANK_ID>  (1) 
DB13461

>  <COMMON_NAME>  (1) 
Cefcapene

>  <CAS_NUMBER>  (1) 
135889-00-8

>  <UNII>  (1) 
4D5D3422MW

>  <SYNONYMS>  (1) 
Cefcapene; cefcapeno

$$$$
