
     RDKit          3D

 29 30  0  0  1  0  0  0  0  0999 V2000
   -5.5504   -2.8197   -4.1085 C   0  0  0  0  0  0  0  0  0  0  0  0
   -4.0867   -2.3274   -4.2477 C   0  0  0  0  0  0  0  0  0  0  0  0
   -3.6709   -1.4320   -5.4225 C   0  0  0  0  0  0  0  0  0  0  0  0
   -3.1401   -1.7834   -3.1917 C   0  0  0  0  0  0  0  0  0  0  0  0
   -2.3706   -2.4746   -2.4845 O   0  0  0  0  0  0  0  0  0  0  0  0
   -3.1722   -0.4610   -3.0980 O   0  0  0  0  0  0  0  0  0  0  0  0
   -2.7684    0.0590   -1.8738 C   0  0  0  0  0  0  0  0  0  0  0  0
   -3.5478   -0.3739   -0.6596 C   0  0  1  0  0  0  0  0  0  0  0  0
   -3.0422    0.6819    0.2458 C   0  0  0  0  0  0  0  0  0  0  0  0
   -2.0160    2.1375   -0.1718 Cl  0  0  0  0  0  0  0  0  0  0  0  0
   -4.9442   -0.1458   -0.8374 O   0  0  0  0  0  0  0  0  0  0  0  0
   -5.7018   -1.3531   -0.9918 C   0  0  2  0  0  0  0  0  0  0  0  0
   -4.6079   -2.5097   -0.8052 C   0  0  2  0  0  0  0  0  0  0  0  0
   -4.9690   -3.6318   -0.1374 F   0  0  0  0  0  0  0  0  0  0  0  0
   -3.4696   -1.7803   -0.0177 C   0  0  2  0  0  0  0  0  0  0  0  0
   -3.7174   -1.9089    1.5196 O   0  0  0  0  0  0  0  0  0  0  0  0
   -4.0127   -1.2178    2.6692 C   0  0  0  0  0  0  0  0  0  0  0  0
   -4.0930   -1.8114    3.7452 O   0  0  0  0  0  0  0  0  0  0  0  0
   -4.3718    0.2735    2.6339 C   0  0  0  0  0  0  0  0  0  0  0  0
   -3.0686    1.2503    2.6815 C   0  0  0  0  0  0  0  0  0  0  0  0
   -5.6241    0.2945    1.6852 C   0  0  0  0  0  0  0  0  0  0  0  0
   -6.5663   -0.9411   -2.1567 N   0  0  0  0  0  0  0  0  0  0  0  0
   -6.1093   -0.0521   -3.1719 C   0  0  0  0  0  0  0  0  0  0  0  0
   -6.6294   -0.1293   -4.4127 C   0  0  0  0  0  0  0  0  0  0  0  0
   -7.8970   -0.8854   -4.5698 C   0  0  0  0  0  0  0  0  0  0  0  0
   -8.3806   -1.1027   -5.8464 N   0  0  0  0  0  0  0  0  0  0  0  0
   -8.4847   -1.4337   -3.5459 N   0  0  0  0  0  0  0  0  0  0  0  0
   -7.8289   -1.5437   -2.3179 C   0  0  0  0  0  0  0  0  0  0  0  0
   -8.2676   -2.2766   -1.4339 O   0  0  0  0  0  0  0  0  0  0  0  0
  1  2  1  0
  2  3  1  0
  2  4  1  0
  4  5  2  0
  4  6  1  0
  6  7  1  0
  8 11  1  0
  8  9  1  1
  8  7  1  0
  9 10  1  0
 12 11  1  0
 12 22  1  6
 13 12  1  0
 13 14  1  1
 13 15  1  0
 15  8  1  0
 15 16  1  1
 16 17  1  0
 17 18  2  0
 17 19  1  0
 19 20  1  0
 19 21  1  0
 22 23  1  0
 22 28  1  0
 23 24  2  0
 24 25  1  0
 25 26  1  0
 25 27  2  0
 27 28  1  0
 28 29  2  0
M  END
>  <DRUGBANK_ID>  (1) 
DB14808

>  <COMMON_NAME>  (1) 
Lumicitabine

>  <CAS_NUMBER>  (1) 
1445385-02-3

>  <UNII>  (1) 
BNW5PQ52G1

>  <SYNONYMS>  (1) 
ALS-008176; Lumicitabine

$$$$
