HFP
     RDKit          3D

 20 19  0  0  0  0  0  0  0  0999 V2000
   -3.4747  -10.7557   -3.1962 P   0  0  0  0  0  0  0  0  0  0  0  0
   -4.5628  -10.0408   -3.9380 O   0  0  0  0  0  0  0  0  0  0  0  0
   -3.2009  -12.2504   -3.7116 O   0  0  0  0  0  0  0  0  0  0  0  0
   -3.7588  -11.0047   -1.6368 O   0  0  0  0  0  0  0  0  0  0  0  0
   -1.8537   -9.9645   -3.3137 C   0  0  2  0  0  0  0  0  0  0  0  0
   -1.2135  -10.0877   -2.0380 O   0  0  0  0  0  0  0  0  0  0  0  0
   -1.8516   -8.5167   -3.8055 C   0  0  0  0  0  0  0  0  0  0  0  0
   -0.4382   -7.9029   -3.9305 C   0  0  2  0  0  0  0  0  0  0  0  0
    0.5877   -8.8803   -4.5166 C   0  0  0  0  0  0  0  0  0  0  0  0
    0.0576   -7.3666   -2.5776 C   0  0  0  0  0  0  0  0  0  0  0  0
    1.4222   -6.6997   -2.6408 C   0  0  0  0  0  0  0  0  0  0  0  0
    1.5067   -5.5206   -3.6020 C   0  0  0  0  0  0  0  0  0  0  0  0
    0.8958   -4.2309   -3.0488 C   0  0  2  0  0  0  0  0  0  0  0  0
    1.4245   -3.9517   -1.6391 C   0  0  0  0  0  0  0  0  0  0  0  0
   -0.6457   -4.1866   -3.0549 C   0  0  0  0  0  0  0  0  0  0  0  0
   -1.1765   -2.8437   -2.5521 C   0  0  0  0  0  0  0  0  0  0  0  0
   -0.7315   -1.6897   -3.4441 C   0  0  0  0  0  0  0  0  0  0  0  0
   -1.2111   -1.8692   -4.8928 C   0  0  0  0  0  0  0  0  0  0  0  0
   -2.7374   -1.9170   -4.9481 C   0  0  0  0  0  0  0  0  0  0  0  0
   -0.6644   -0.7523   -5.7673 C   0  0  0  0  0  0  0  0  0  0  0  0
  1  2  2  0
  1  3  1  0
  1  4  1  0
  5  7  1  0
  5  6  1  1
  5  1  1  0
  8 10  1  0
  8  9  1  1
  8  7  1  0
 10 11  1  0
 11 12  1  0
 13 15  1  0
 13 14  1  1
 13 12  1  0
 15 16  1  0
 16 17  1  0
 17 18  1  0
 18 19  1  0
 18 20  1  0
M  END
>  <DRUGBANK_ID>  (1) 
DB07895

>  <COMMON_NAME>  (1) 
ALPHA-HYDROXYFARNESYLPHOSPHONIC ACID

$$$$
