
     RDKit          3D

 39 41  0  0  0  0  0  0  0  0999 V2000
    1.1112   -0.4842    0.6315 O   0  0  0  0  0  0  0  0  0  0  0  0
    1.6843   -4.5131   -1.1157 O   0  0  0  0  0  0  0  0  0  0  0  0
    5.7222    4.2744   -5.1292 O   0  0  0  0  0  0  0  0  0  0  0  0
    5.0759    7.6753   -4.2992 O   0  0  0  0  0  0  0  0  0  0  0  0
    3.1926    5.2133    0.4782 O   0  0  0  0  0  0  0  0  0  0  0  0
    6.4316    6.7128   -5.7232 O   0  0  0  0  0  0  0  0  0  0  0  0
    4.5976    4.3796   -1.1016 O   0  0  0  0  0  0  0  0  0  0  0  0
    2.5444   -2.5021   -0.7236 N   0  0  0  0  0  0  0  0  0  0  0  0
    2.9921    0.7014    0.8437 N   0  0  0  0  0  0  0  0  0  0  0  0
    3.8941    4.8618   -3.7467 N   0  0  0  0  0  0  0  0  0  0  0  0
    2.6587   -0.5695   -2.2879 C   0  0  0  0  0  0  0  0  0  0  0  0
    2.9309   -1.0979   -0.8902 C   0  0  1  0  0  0  0  0  0  0  0  0
    2.8973    0.8367   -2.6909 C   0  0  0  0  0  0  0  0  0  0  0  0
    2.0197    1.8529   -2.2703 C   0  0  0  0  0  0  0  0  0  0  0  0
    2.2692    3.1765   -2.6400 C   0  0  0  0  0  0  0  0  0  0  0  0
    3.4354    3.4781   -3.4722 C   0  0  0  0  0  0  0  0  0  0  0  0
    3.9284    1.0824   -3.5858 C   0  0  0  0  0  0  0  0  0  0  0  0
    2.2726   -0.2981    0.2604 C   0  0  0  0  0  0  0  0  0  0  0  0
    4.1857    2.3828   -3.9673 C   0  0  0  0  0  0  0  0  0  0  0  0
    4.4353    0.7777    0.9021 C   0  0  0  0  0  0  0  0  0  0  0  0
    4.9221    2.1391    0.5130 C   0  0  0  0  0  0  0  0  0  0  0  0
    0.8759    1.5572   -1.4818 C   0  0  0  0  0  0  0  0  0  0  0  0
    4.4904    3.1873    1.5278 C   0  0  0  0  0  0  0  0  0  0  0  0
    1.3085    4.0821   -2.1003 C   0  0  0  0  0  0  0  0  0  0  0  0
    4.9608    2.9539    2.9424 C   0  0  0  0  0  0  0  0  0  0  0  0
    0.1677    2.5091   -0.7745 C   0  0  0  0  0  0  0  0  0  0  0  0
    0.4090    3.8099   -1.0759 C   0  0  0  0  0  0  0  0  0  0  0  0
    3.2208    5.9309   -3.0811 C   0  0  0  0  0  0  0  0  0  0  0  0
    1.9347   -3.3907   -1.5550 C   0  0  0  0  0  0  0  0  0  0  0  0
    5.0351    5.1328   -4.5688 C   0  0  0  0  0  0  0  0  0  0  0  0
    3.2360    6.1787   -1.6733 C   0  0  0  0  0  0  0  0  0  0  0  0
    6.4759    2.9710    2.9535 C   0  0  0  0  0  0  0  0  0  0  0  0
    2.5163    6.8286   -3.8933 C   0  0  0  0  0  0  0  0  0  0  0  0
    1.5960   -3.0488   -2.9880 C   0  0  0  0  0  0  0  0  0  0  0  0
    2.6042    7.3039   -1.1342 C   0  0  0  0  0  0  0  0  0  0  0  0
    2.0315    8.0186   -3.3477 C   0  0  0  0  0  0  0  0  0  0  0  0
    2.0381    8.2372   -1.9749 C   0  0  0  0  0  0  0  0  0  0  0  0
    5.5504    6.5791   -4.8827 C   0  0  0  0  0  0  0  0  0  0  0  0
    3.7728    5.2080   -0.7341 C   0  0  0  0  0  0  0  0  0  0  0  0
  1 18  2  0
  2 29  2  0
  3 30  2  0
  4 38  1  0
  5 39  1  0
  6 38  2  0
  7 39  2  0
  8 29  1  0
  9 18  1  0
  9 20  1  0
 10 16  1  0
 10 28  1  0
 10 30  1  0
 12 11  1  6
 11 13  1  0
 12  8  1  0
 12 18  1  0
 13 14  2  0
 13 17  1  0
 14 15  1  0
 14 22  1  0
 15 16  2  0
 15 24  1  0
 16 19  1  0
 17 19  2  0
 20 21  1  0
 21 23  1  0
 22 26  2  0
 23 25  1  0
 24 27  2  0
 25 32  1  0
 26 27  1  0
 28 31  2  0
 28 33  1  0
 29 34  1  0
 30 38  1  0
 31 35  1  0
 31 39  1  0
 33 36  2  0
 35 37  2  0
 36 37  1  0
M  END
>  <DRUGBANK_ID>  (1) 
DB01820

>  <SECONDARY_ACCESSION_NUMBERS>  (1) 
EXPT00349

>  <COMMON_NAME>  (1) 
2-{[4-(2-Acetylamino-2-pentylcarbamoyl-ethyl)-naphthalen-1-YL]-oxalyl-amino}-benzoic acid

$$$$
