2T1
     RDKit          3D

 28 30  0  0  0  0  0  0  0  0999 V2000
    1.4561    0.0115    0.2348 N   0  0  0  0  0  0  0  0  0  0  0  0
    3.0937    1.1188    1.5518 N   0  0  0  0  0  0  0  0  0  0  0  0
   -3.7823    1.1125    0.2655 C   0  0  0  0  0  0  0  0  0  0  0  0
   -4.9211    1.2095    1.0959 C   0  0  0  0  0  0  0  0  0  0  0  0
   -5.2083    0.2487    2.0627 C   0  0  0  0  0  0  0  0  0  0  0  0
   -1.4727    0.0105   -0.1626 C   0  0  0  0  0  0  0  0  0  0  0  0
   -0.6370    1.2372    0.2871 C   0  0  0  0  0  0  0  0  0  0  0  0
    0.7926   -1.2080   -0.2390 C   0  0  0  0  0  0  0  0  0  0  0  0
    4.2263    1.1794    2.4324 C   0  0  0  0  0  0  0  0  0  0  0  0
    4.3333    2.1126    3.5016 C   0  0  0  0  0  0  0  0  0  0  0  0
    5.3154    0.3319    2.1732 C   0  0  0  0  0  0  0  0  0  0  0  0
    3.1283    2.8744    3.9659 C   0  0  0  0  0  0  0  0  0  0  0  0
    3.2535    3.6457    5.0674 O   0  0  0  0  0  0  0  0  0  0  0  0
    2.0448    2.7895    3.3903 O   0  0  0  0  0  0  0  0  0  0  0  0
    5.5559    2.2119    4.2047 C   0  0  0  0  0  0  0  0  0  0  0  0
    6.6114    1.3374    3.9387 C   0  0  0  0  0  0  0  0  0  0  0  0
    6.4893    0.3986    2.9252 C   0  0  0  0  0  0  0  0  0  0  0  0
    2.5390   -0.0764    1.1074 C   0  0  0  0  0  0  0  0  0  0  0  0
    2.9689   -1.1765    1.4576 O   0  0  0  0  0  0  0  0  0  0  0  0
   -0.6648   -1.2574    0.2153 C   0  0  0  0  0  0  0  0  0  0  0  0
    0.7960    1.2139   -0.2251 C   0  0  0  0  0  0  0  0  0  0  0  0
   -2.8742    0.0433    0.4773 C   0  0  0  0  0  0  0  0  0  0  0  0
   -3.2658   -0.9790    1.3737 C   0  0  0  0  0  0  0  0  0  0  0  0
   -4.3889   -0.8583    2.1876 C   0  0  0  0  0  0  0  0  0  0  0  0
   -3.6722    2.1079   -0.8781 C   0  0  0  0  0  0  0  0  0  0  0  0
   -4.7584    2.9298   -0.9792 F   0  0  0  0  0  0  0  0  0  0  0  0
   -3.5740    1.4867   -2.0874 F   0  0  0  0  0  0  0  0  0  0  0  0
   -2.6219    2.9644   -0.8149 F   0  0  0  0  0  0  0  0  0  0  0  0
  1  8  1  0
  2 18  1  0
  3 25  1  0
  4  3  2  0
  5  4  1  0
  6 20  1  0
  7  6  1  0
  7 21  1  0
  9  2  1  0
  9 11  1  0
 10  9  2  0
 12 10  1  0
 12 13  1  0
 14 12  2  0
 15 10  1  0
 15 16  2  0
 16 17  1  0
 17 11  2  0
 18  1  1  0
 18 19  2  0
 20  8  1  0
 21  1  1  0
 22  3  1  0
 22  6  1  0
 23 22  2  0
 24  5  2  0
 24 23  1  0
 25 28  1  0
 25 27  1  0
 26 25  1  0
M  END
>  <DRUGBANK_ID>  (1) 
DB06985

>  <COMMON_NAME>  (1) 
2-[({4-[2-(trifluoromethyl)phenyl]piperidin-1-yl}carbonyl)amino]benzoic acid

$$$$
