
     RDKit          3D

 24 25  0  0  0  0  0  0  0  0999 V2000
    1.5024   -0.3590   -0.5101 C   0  0  0  0  0  0  0  0  0  0  0  0
    1.0364    0.9750   -0.3893 C   0  0  0  0  0  0  0  0  0  0  0  0
   -0.3281    1.2133   -0.1802 C   0  0  0  0  0  0  0  0  0  0  0  0
   -1.3144    0.2328   -0.2953 C   0  0  0  0  0  0  0  0  0  0  0  0
   -0.8462   -1.0580   -0.5689 C   0  0  0  0  0  0  0  0  0  0  0  0
    0.5405   -1.3838   -0.6863 C   0  0  0  0  0  0  0  0  0  0  0  0
   -2.8144    0.5283   -0.2055 C   0  0  0  0  0  0  0  0  0  0  0  0
   -3.3070    1.2954    0.9991 C   0  0  0  0  0  0  0  0  0  0  0  0
   -2.9484    2.5965    1.2811 C   0  0  0  0  0  0  0  0  0  0  0  0
   -3.2181    3.1865    2.4632 N   0  0  0  0  0  0  0  0  0  0  0  0
   -3.9787    2.5084    3.3097 C   0  0  0  0  0  0  0  0  0  0  0  0
   -4.5174    1.3195    3.0856 N   0  0  0  0  0  0  0  0  0  0  0  0
   -4.1552    0.7232    1.9241 C   0  0  0  0  0  0  0  0  0  0  0  0
   -4.2301    3.1035    4.5317 N   0  0  0  0  0  0  0  0  0  0  0  0
   -2.4426    3.4563    0.3172 N   0  0  0  0  0  0  0  0  0  0  0  0
    0.6560   -2.7470   -0.7782 O   0  0  0  0  0  0  0  0  0  0  0  0
    1.9104   -3.3610   -0.9152 C   0  0  0  0  0  0  0  0  0  0  0  0
    2.7882   -0.4427   -0.0458 O   0  0  0  0  0  0  0  0  0  0  0  0
    3.4234   -1.4992    0.6502 C   0  0  0  0  0  0  0  0  0  0  0  0
    2.8389   -2.1720    1.9519 C   0  0  0  0  0  0  0  0  0  0  0  0
    1.4391   -2.4225    2.0963 O   0  0  0  0  0  0  0  0  0  0  0  0
    0.6849   -1.2425    2.2910 C   0  0  0  0  0  0  0  0  0  0  0  0
    1.7688    2.1337   -0.2272 O   0  0  0  0  0  0  0  0  0  0  0  0
    3.1689    2.0775   -0.4539 C   0  0  0  0  0  0  0  0  0  0  0  0
  1  2  2  0
  1 18  1  0
  2  3  1  0
  2 23  1  0
  3  4  2  0
  4  7  1  0
  4  5  1  0
  5  6  2  0
  6  1  1  0
  6 16  1  0
  7  8  1  0
  8  9  2  0
  9 15  1  0
  9 10  1  0
 10 11  2  0
 11 12  1  0
 11 14  1  0
 12 13  2  0
 13  8  1  0
 16 17  1  0
 18 19  1  0
 19 20  1  0
 20 21  1  0
 21 22  1  0
 23 24  1  0
M  END
>  <DRUGBANK_ID>  (1) 
DB15976

>  <COMMON_NAME>  (1) 
Tetroxoprim

>  <CAS_NUMBER>  (1) 
53808-87-0

>  <UNII>  (1) 
5R6712AY0K

>  <SYNONYMS>  (1) 
Tetroxoprim; Tetroxoprima; Tetroxoprime; Tetroxoprimum

$$$$
