RT3
     RDKit          3D

 29 31  0  0  0  0  0  0  0  0999 V2000
    1.1043    0.2402    0.0705 O   0  0  0  0  0  0  0  0  0  0  0  0
    2.5190    0.0300   -0.1332 S   0  0  0  0  0  0  0  0  0  0  0  0
    3.0768   -1.2298   -0.5573 O   0  0  0  0  0  0  0  0  0  0  0  0
    3.0886    1.2455   -1.1233 N   0  0  0  0  0  0  0  0  0  0  0  0
    3.3429    0.4947    1.4079 C   0  0  0  0  0  0  0  0  0  0  0  0
    3.5411   -0.8949    2.5105 C   0  0  0  0  0  0  0  0  0  0  0  0
    3.2710   -0.7002    4.2965 C   0  0  0  0  0  0  0  0  0  0  0  0
    3.7227   -2.2492    5.0959 Cl  0  0  0  0  0  0  0  0  0  0  0  0
    2.9217    2.1264    2.0151 C   0  0  0  0  0  0  0  0  0  0  0  0
    2.7022    2.4125    3.8267 C   0  0  0  0  0  0  0  0  0  0  0  0
    3.0257    1.0251    5.0125 C   0  0  0  0  0  0  0  0  0  0  0  0
    3.7187    1.4675    6.2272 N   0  0  0  0  0  0  0  0  0  0  0  0
    4.0499    2.8297    6.4558 C   0  0  0  0  0  0  0  0  0  0  0  0
    3.6321    3.8090    5.8378 O   0  0  0  0  0  0  0  0  0  0  0  0
    4.9511    3.0775    7.6447 C   0  0  0  0  0  0  0  0  0  0  0  0
    6.3296    4.2474    7.4184 S   0  0  0  0  0  0  0  0  0  0  0  0
    7.6893    3.4537    6.5854 C   0  0  0  0  0  0  0  0  0  0  0  0
    8.7363    4.0671    6.4076 O   0  0  0  0  0  0  0  0  0  0  0  0
    7.5197    2.1418    6.2011 N   0  0  0  0  0  0  0  0  0  0  0  0
    8.6203    1.1643    6.2194 C   0  0  0  0  0  0  0  0  0  0  0  0
    6.6866    1.8473    5.1187 C   0  0  0  0  0  0  0  0  0  0  0  0
    6.0344    2.8062    4.3784 C   0  0  0  0  0  0  0  0  0  0  0  0
    6.4564    0.5276    4.8676 C   0  0  0  0  0  0  0  0  0  0  0  0
    7.0109   -0.6451    5.6672 C   0  0  0  0  0  0  0  0  0  0  0  0
    8.0394   -0.1729    6.6611 C   0  0  0  0  0  0  0  0  0  0  0  0
    5.3428    0.2403    4.0931 C   0  0  0  0  0  0  0  0  0  0  0  0
    4.3048    1.0559    3.3536 C   0  0  0  0  0  0  0  0  0  0  0  0
    2.2374    0.6036    3.1915 C   0  0  0  0  0  0  0  0  0  0  0  0
    4.9890    2.4492    3.4812 C   0  0  0  0  0  0  0  0  0  0  0  0
  2  5  1  0
  2  1  2  0
  2  3  2  0
  4  2  1  0
  5  6  2  0
  6  7  1  0
  7  8  1  0
  9 10  2  0
  9  5  1  0
 10 11  1  0
 11 12  1  0
 11  7  2  0
 13 15  1  0
 13 12  1  0
 14 13  2  0
 15 16  1  0
 16 17  1  0
 17 19  1  0
 17 18  2  0
 19 21  1  0
 20 25  1  0
 20 19  1  0
 21 23  2  0
 21 22  1  0
 22 29  2  0
 23 26  1  0
 24 23  1  0
 25 24  1  0
 26 27  2  0
 27 28  1  0
 29 27  1  0
M  END
>  <DRUGBANK_ID>  (1) 
DB08494

>  <COMMON_NAME>  (1) 
S-{2-[(2-chloro-4-sulfamoylphenyl)amino]-2-oxoethyl} 6-methyl-3,4-dihydroquinoline-1(2H)-carbothioate

$$$$
