
     RDKit          3D

 21 23  0  0  0  0  0  0  0  0999 V2000
   -0.7435   -1.3112   -0.2567 C   0  0  0  0  0  0  0  0  0  0  0  0
   -1.3674   -2.2002   -1.1004 C   0  0  0  0  0  0  0  0  0  0  0  0
    1.6257   -0.1020   -0.1181 N   0  0  0  0  0  0  0  0  0  0  0  0
   -0.6014   -3.3421   -1.5480 C   0  0  0  0  0  0  0  0  0  0  0  0
   -2.6750   -1.8787   -1.6967 C   0  0  0  0  0  0  0  0  0  0  0  0
    0.7284   -1.3588    0.2211 C   0  0  0  0  0  0  0  0  0  0  0  0
   -0.1302   -3.4864   -3.2058 S   0  0  0  0  0  0  0  0  0  0  0  0
   -4.0298   -2.9480   -1.5670 S   0  0  0  0  0  0  0  0  0  0  0  0
   -1.4423   -0.0604    0.2535 C   0  0  0  0  0  0  0  0  0  0  0  0
   -3.0659   -0.7920   -2.4895 C   0  0  0  0  0  0  0  0  0  0  0  0
   -0.1116   -4.4169   -0.8222 C   0  0  0  0  0  0  0  0  0  0  0  0
    0.7611    1.2134    0.1580 C   0  0  0  0  0  0  0  0  0  0  0  0
    0.7298   -4.9348   -2.9249 C   0  0  0  0  0  0  0  0  0  0  0  0
   -5.0677   -1.8962   -2.4494 C   0  0  0  0  0  0  0  0  0  0  0  0
   -4.4327   -0.7841   -2.8730 C   0  0  0  0  0  0  0  0  0  0  0  0
    0.6619   -5.3232   -1.6072 C   0  0  0  0  0  0  0  0  0  0  0  0
   -0.7383    1.1781   -0.3026 C   0  0  0  0  0  0  0  0  0  0  0  0
    2.4446   -0.2100   -1.4736 C   0  0  0  0  0  0  0  0  0  0  0  0
    2.8445   -0.0419    0.8424 C   0  0  0  0  0  0  0  0  0  0  0  0
   -0.9987    1.3583   -1.7071 O   0  0  0  0  0  0  0  0  0  0  0  0
   -0.1867    0.5758   -2.5457 C   0  0  0  0  0  0  0  0  0  0  0  0
  2  1  2  3
  3  6  1  0
  3 12  1  0
  4  2  1  0
  5  2  1  0
  6  1  1  0
  7  4  1  0
  8  5  1  0
  9  1  1  0
 10  5  2  0
 11  4  2  0
 12 17  1  0
 13  7  1  0
 14  8  1  0
 15 10  1  0
 15 14  2  0
 16 11  1  0
 16 13  2  0
 17  9  1  0
 18  3  1  0
 19  3  1  0
 20 17  1  0
 21 20  1  0
M  CHG  1   3   1
M  END
>  <DRUGBANK_ID>  (1) 
DB13850

>  <COMMON_NAME>  (1) 
Timepidium

>  <CAS_NUMBER>  (1) 
97094-64-9

>  <UNII>  (1) 
C1WS2XH3K4

>  <SYNONYMS>  (1) 
3-(di-2-thienylmethylene)-5-methoxy-1,1-dimethyl-piperidinium; Timepidium cation; Timepidium ion

$$$$
