
     RDKit          3D

 13 12  0  0  1  0  0  0  0  0999 V2000
    1.4800    0.1796   -0.5557 C   0  0  0  0  0  0  0  0  0  0  0  0
   -0.4176   -1.0338    1.3525 C   0  0  0  0  0  0  0  0  0  0  0  0
    3.3591    3.0391    2.1404 C   0  0  0  0  0  0  0  0  0  0  0  0
   -0.5531    0.2541    2.1793 C   0  0  2  0  0  0  0  0  0  0  0  0
    2.7589    2.1845    1.0492 C   0  0  0  0  0  0  0  0  0  0  0  0
    0.6514    1.2571    2.2799 C   0  0  2  0  0  0  0  0  0  0  0  0
    1.2111    1.9964    1.0014 C   0  0  2  0  0  0  0  0  0  0  0  0
    0.6780   -1.8658    1.7474 O   0  0  0  0  0  0  0  0  0  0  0  0
    4.1628    2.2368    2.9939 O   0  0  0  0  0  0  0  0  0  0  0  0
   -0.8363   -0.2015    3.5198 O   0  0  0  0  0  0  0  0  0  0  0  0
    3.5229    1.5952    0.3058 O   0  0  0  0  0  0  0  0  0  0  0  0
    1.7221    0.6398    3.0330 O   0  0  0  0  0  0  0  0  0  0  0  0
    0.8256    1.4082   -0.2532 O   0  0  0  0  0  0  0  0  0  0  0  0
  4  2  1  0
  4 10  1  1
  5  3  1  0
  6  4  1  0
  6 12  1  6
  7 13  1  6
  7  6  1  0
  7  5  1  0
  8  2  1  0
  9  3  1  0
 11  5  2  0
 13  1  1  0
M  END
>  <DRUGBANK_ID>  (1) 
DB02438

>  <SECONDARY_ACCESSION_NUMBERS>  (1) 
EXPT00180

>  <COMMON_NAME>  (1) 
3-O-Methylfructose in Linear Form

$$$$
