
     RDKit          3D

 36 39  0  0  1  0  0  0  0  0999 V2000
    0.1156    0.7480   -0.8628 C   0  0  2  0  0  0  0  0  0  0  0  0
   -0.5517   -0.4960   -0.5060 N   0  0  0  0  0  0  0  0  0  0  0  0
    0.0193   -1.7448   -0.4682 C   0  0  0  0  0  0  0  0  0  0  0  0
    1.3856   -1.8156   -0.3344 C   0  0  0  0  0  0  0  0  0  0  0  0
    2.3335   -0.5753   -0.3998 C   0  0  0  0  0  0  0  0  0  0  0  0
    1.6189    1.0811   -0.0249 S   0  0  0  0  0  0  0  0  0  0  0  0
   -1.1524    1.4688   -0.4589 C   0  0  1  0  0  0  0  0  0  0  0  0
   -1.6601    0.0820    0.0049 C   0  0  0  0  0  0  0  0  0  0  0  0
   -1.3742    2.6950    0.3009 N   0  0  0  0  0  0  0  0  0  0  0  0
   -2.1435    3.7872   -0.1511 C   0  0  0  0  0  0  0  0  0  0  0  0
   -2.1607    4.7638    0.5956 O   0  0  0  0  0  0  0  0  0  0  0  0
   -2.6089   -0.4341    0.5812 O   0  0  0  0  0  0  0  0  0  0  0  0
   -2.8821    3.8017   -1.5817 C   0  0  0  0  0  0  0  0  0  0  0  0
    2.1190   -3.0732    0.2542 C   0  0  0  0  0  0  0  0  0  0  0  0
   -2.9764    2.6316   -2.5007 C   0  0  0  0  0  0  0  0  0  0  0  0
   -2.5308    2.6444   -3.8157 C   0  0  0  0  0  0  0  0  0  0  0  0
   -2.4651    1.0474   -4.4536 S   0  0  0  0  0  0  0  0  0  0  0  0
   -3.0068    0.4271   -2.9527 C   0  0  0  0  0  0  0  0  0  0  0  0
   -3.3433    1.3404   -2.0676 N   0  0  0  0  0  0  0  0  0  0  0  0
   -3.4231    4.8773   -2.0998 N   0  0  0  0  0  0  0  0  0  0  0  0
   -0.8486   -2.9987   -0.2839 C   0  0  0  0  0  0  0  0  0  0  0  0
   -2.1856   -2.8479   -0.3489 O   0  0  0  0  0  0  0  0  0  0  0  0
   -0.3895   -4.1264   -0.1889 O   0  0  0  0  0  0  0  0  0  0  0  0
    1.6472   -3.8291    1.8986 S   0  0  0  0  0  0  0  0  0  0  0  0
    1.6902   -2.7769    3.3575 C   0  0  0  0  0  0  0  0  0  0  0  0
   -2.9388   -0.8845   -2.6607 N   0  0  0  0  0  0  0  0  0  0  0  0
    2.0217   -3.3761    4.4613 N   0  0  0  0  0  0  0  0  0  0  0  0
    1.9741   -2.5949    5.6173 C   0  0  0  0  0  0  0  0  0  0  0  0
    1.7762   -1.0526    5.5852 C   0  0  0  0  0  0  0  0  0  0  0  0
    1.6078   -0.5865    4.3304 N   0  0  0  0  0  0  0  0  0  0  0  0
    1.2437   -1.4709    3.3536 N   0  0  0  0  0  0  0  0  0  0  0  0
    2.1427   -3.0751    6.7327 O   0  0  0  0  0  0  0  0  0  0  0  0
    1.8065   -0.2936    6.5363 O   0  0  0  0  0  0  0  0  0  0  0  0
    0.9366   -0.7524    2.2136 C   0  0  0  0  0  0  0  0  0  0  0  0
   -3.3839    5.9863   -1.2483 O   0  0  0  0  0  0  0  0  0  0  0  0
   -4.1105    7.0681   -1.8240 C   0  0  0  0  0  0  0  0  0  0  0  0
  1  2  1  0
  1  6  1  1
  1  7  1  0
  2  3  1  0
  2  8  1  0
  3  4  2  0
  3 21  1  0
  4  5  1  0
  4 14  1  0
  5  6  1  0
  7  8  1  0
  7  9  1  1
  8 12  2  0
  9 10  1  0
 10 11  2  0
 10 13  1  0
 13 15  1  0
 13 20  2  0
 14 24  1  0
 15 16  2  0
 15 19  1  0
 16 17  1  0
 17 18  1  0
 18 19  2  0
 18 26  1  0
 20 35  1  0
 21 22  1  0
 21 23  2  0
 24 25  1  0
 25 27  2  0
 25 31  1  0
 27 28  1  0
 28 29  1  0
 28 32  2  0
 29 30  1  0
 29 33  2  0
 30 31  1  0
 31 34  1  0
 35 36  1  0
M  END
>  <DRUGBANK_ID>  (1) 
DB01212

>  <SECONDARY_ACCESSION_NUMBERS>  (1) 
APRD00395

>  <COMMON_NAME>  (1) 
Ceftriaxone

>  <CAS_NUMBER>  (1) 
73384-59-5

>  <UNII>  (1) 
75J73V1629

>  <SYNONYMS>  (1) 
Ceftriaxona; Ceftriaxone; Ceftriaxonum; Rocephin

$$$$
