
     RDKit          3D

 32 33  0  0  0  0  0  0  0  0999 V2000
    1.2218    1.1457    0.0427 C   0  0  0  0  0  0  0  0  0  0  0  0
    2.4226    2.0776   -0.0027 C   0  0  0  0  0  0  0  0  0  0  0  0
    1.2760   -0.2591    0.0398 C   0  0  0  0  0  0  0  0  0  0  0  0
   -0.0815    1.7272    0.1148 C   0  0  0  0  0  0  0  0  0  0  0  0
    2.6348    2.7574   -1.3274 C   0  0  0  0  0  0  0  0  0  0  0  0
    0.0858   -0.9891    0.0101 C   0  0  0  0  0  0  0  0  0  0  0  0
    2.3252   -1.1356    0.1343 O   0  0  0  0  0  0  0  0  0  0  0  0
   -1.3012    0.9880    0.0387 C   0  0  0  0  0  0  0  0  0  0  0  0
   -0.2163    3.0570    0.4272 O   0  0  0  0  0  0  0  0  0  0  0  0
    1.8056    3.9669   -1.5553 C   0  0  0  0  0  0  0  0  0  0  0  0
    3.5983    2.5361   -2.2370 C   0  0  0  0  0  0  0  0  0  0  0  0
   -1.1757   -0.3988    0.0060 C   0  0  0  0  0  0  0  0  0  0  0  0
    3.6250   -0.6200    0.0780 C   0  0  0  0  0  0  0  0  0  0  0  0
   -2.5950    1.7807   -0.0014 C   0  0  0  0  0  0  0  0  0  0  0  0
    1.4869    4.3521   -2.9553 C   0  0  0  0  0  0  0  0  0  0  0  0
    1.4808    4.6256   -0.5848 O   0  0  0  0  0  0  0  0  0  0  0  0
    3.7142    3.3330   -3.5231 C   0  0  0  0  0  0  0  0  0  0  0  0
    4.6222    1.6207   -2.0876 O   0  0  0  0  0  0  0  0  0  0  0  0
   -2.1336   -1.3658    0.0456 O   0  0  0  0  0  0  0  0  0  0  0  0
   -3.9662    1.1528    0.0848 C   0  0  0  0  0  0  0  0  0  0  0  0
   -2.5811    3.0043   -0.1596 O   0  0  0  0  0  0  0  0  0  0  0  0
    2.4382    4.0843   -3.8625 C   0  0  0  0  0  0  0  0  0  0  0  0
    0.2261    5.1012   -3.2015 C   0  0  0  0  0  0  0  0  0  0  0  0
    4.8376    4.3573   -3.3205 C   0  0  0  0  0  0  0  0  0  0  0  0
    4.0238    2.3461   -4.6631 C   0  0  0  0  0  0  0  0  0  0  0  0
   -4.6688    1.4833    1.3867 C   0  0  0  0  0  0  0  0  0  0  0  0
    2.3309    4.5210   -5.1681 O   0  0  0  0  0  0  0  0  0  0  0  0
   -0.1226    5.6678   -4.5632 C   0  0  0  0  0  0  0  0  0  0  0  0
   -0.5580    5.2665   -2.2673 O   0  0  0  0  0  0  0  0  0  0  0  0
   -5.0319    2.9501    1.4640 C   0  0  0  0  0  0  0  0  0  0  0  0
   -1.3317    4.9743   -5.1635 C   0  0  0  0  0  0  0  0  0  0  0  0
   -2.5846    5.2794   -4.3683 C   0  0  0  0  0  0  0  0  0  0  0  0
  1  2  1  0
  1  3  2  0
  1  4  1  0
  2  5  1  0
  3  6  1  0
  3  7  1  0
  4  8  2  0
  4  9  1  0
  5 10  1  0
  5 11  2  0
  6 12  2  0
  7 13  1  0
  8 14  1  0
  8 12  1  0
 10 15  1  0
 10 16  2  0
 11 17  1  0
 11 18  1  0
 12 19  1  0
 14 20  1  0
 14 21  2  0
 15 22  2  0
 15 23  1  0
 17 24  1  0
 17 25  1  0
 17 22  1  0
 20 26  1  0
 22 27  1  0
 23 28  1  0
 23 29  2  0
 26 30  1  0
 28 31  1  0
 31 32  1  0
M  END
>  <DRUGBANK_ID>  (1) 
DB13567

>  <COMMON_NAME>  (1) 
Desaspidin

>  <CAS_NUMBER>  (1) 
114-43-2

>  <UNII>  (1) 
KV3495SGKS

>  <SYNONYMS>  (1) 
Desaspidin; Desaspidina; Desaspidine; Desaspidinum; Rosapin

$$$$
