SXH
     RDKit          3D

 29 28  0  0  0  0  0  0  0  0999 V2000
    5.5674   -3.9623    0.2238 O   0  0  0  0  0  0  0  0  0  0  0  0
    4.4979   -2.9562   -0.6910 P   0  0  0  0  0  0  0  0  0  0  0  0
    3.5407   -2.0557   -1.5098 O   0  0  0  0  0  0  0  0  0  0  0  0
    4.3841   -2.6615    1.0110 O   0  0  0  0  0  0  0  0  0  0  0  0
    3.5024   -4.2748   -0.7570 O   0  0  0  0  0  0  0  0  0  0  0  0
    3.4720   -5.0615   -1.9653 C   0  0  0  0  0  0  0  0  0  0  0  0
    3.2326   -4.3039   -3.4288 C   0  0  0  0  0  0  0  0  0  0  0  0
    4.2213   -3.3918   -4.1645 C   0  0  0  0  0  0  0  0  0  0  0  0
    3.4454   -5.3704   -4.4996 C   0  0  0  0  0  0  0  0  0  0  0  0
    1.8877   -3.4834   -3.3344 C   0  0  2  0  0  0  0  0  0  0  0  0
    1.0578   -4.0216   -4.3706 O   0  0  0  0  0  0  0  0  0  0  0  0
    1.7953   -1.7474   -3.4221 C   0  0  0  0  0  0  0  0  0  0  0  0
    0.7052   -1.2237   -3.6377 O   0  0  0  0  0  0  0  0  0  0  0  0
    2.9098   -0.9323   -3.2351 N   0  0  0  0  0  0  0  0  0  0  0  0
    3.2834    0.4683   -2.9496 C   0  0  0  0  0  0  0  0  0  0  0  0
    3.7344    1.0430   -1.4961 C   0  0  0  0  0  0  0  0  0  0  0  0
    5.3212    0.7749   -0.7260 C   0  0  0  0  0  0  0  0  0  0  0  0
    6.1799    1.6129   -0.5928 O   0  0  0  0  0  0  0  0  0  0  0  0
    5.5397   -0.3777   -0.0045 N   0  0  0  0  0  0  0  0  0  0  0  0
    4.5932   -0.8503   -0.6407 C   0  0  0  0  0  0  0  0  0  0  0  0
    5.5522   -1.8515   -2.1704 C   0  0  0  0  0  0  0  0  0  0  0  0
    6.6569   -3.7444   -2.2642 S   0  0  0  0  0  0  0  0  0  0  0  0
    7.6695   -3.0701   -1.1184 C   0  0  0  0  0  0  0  0  0  0  0  0
    7.5330   -1.8771   -0.9528 O   0  0  0  0  0  0  0  0  0  0  0  0
    8.6650   -3.8827   -0.4401 C   0  0  0  0  0  0  0  0  0  0  0  0
    8.1980   -4.6555    0.7867 C   0  0  0  0  0  0  0  0  0  0  0  0
    7.3336   -5.8970    0.4899 C   0  0  0  0  0  0  0  0  0  0  0  0
    7.8927   -6.7924   -0.5836 C   0  0  0  0  0  0  0  0  0  0  0  0
    9.1709   -7.3737   -0.0722 C   0  0  0  0  0  0  0  0  0  0  0  0
  2  1  1  0
  2  5  1  0
  2  4  1  0
  3  2  2  0
  5  6  1  0
  6  7  1  0
  7  8  1  0
  9  7  1  0
 10 11  1  6
 10 12  1  0
 10  7  1  0
 12 14  1  0
 13 12  2  0
 14 15  1  0
 15 16  1  0
 16 17  1  0
 17 18  2  0
 19 17  1  0
 19 20  1  0
 21 20  1  0
 22 21  1  0
 23 22  1  0
 23 24  2  0
 25 23  1  0
 26 25  1  0
 26 27  1  0
 28 27  1  0
 29 28  1  0
M  END
>  <DRUGBANK_ID>  (1) 
DB08585

>  <COMMON_NAME>  (1) 
S-[2-({N-[(2S)-2-hydroxy-3,3-dimethyl-4-(phosphonooxy)butanoyl]-beta-alanyl}amino)ethyl] hexanethioate

$$$$
