LRG
     RDKit          3D

 24 26  0  0  0  0  0  0  0  0999 V2000
   -2.3403   -4.5130    2.9577 C   0  0  0  0  0  0  0  0  0  0  0  0
   -2.7927   -5.6187    3.6747 C   0  0  0  0  0  0  0  0  0  0  0  0
   -2.3996   -6.9015    3.2970 C   0  0  0  0  0  0  0  0  0  0  0  0
   -1.6061   -7.0868    2.1664 C   0  0  0  0  0  0  0  0  0  0  0  0
   -1.1765   -5.9854    1.4299 C   0  0  0  0  0  0  0  0  0  0  0  0
   -1.5263   -4.6876    1.8298 C   0  0  0  0  0  0  0  0  0  0  0  0
   -0.9692   -3.4896    1.0981 C   0  0  0  0  0  0  0  0  0  0  0  0
    0.5647   -3.4052    1.1722 C   0  0  1  0  0  0  0  0  0  0  0  0
    1.0088   -2.5997   -0.0442 C   0  0  0  0  0  0  0  0  0  0  0  0
    1.5205   -3.3687   -1.0323 O   0  0  0  0  0  0  0  0  0  0  0  0
    0.8925   -1.3902   -0.2180 O   0  0  0  0  0  0  0  0  0  0  0  0
    0.9652   -2.6960    2.3545 O   0  0  0  0  0  0  0  0  0  0  0  0
    0.8059   -3.3299    3.5582 C   0  0  0  0  0  0  0  0  0  0  0  0
    0.9551   -4.7001    3.7773 C   0  0  0  0  0  0  0  0  0  0  0  0
    0.7850   -5.2436    5.0570 C   0  0  0  0  0  0  0  0  0  0  0  0
    0.5135   -2.5016    4.6386 C   0  0  0  0  0  0  0  0  0  0  0  0
    0.4187   -3.0346    5.9258 C   0  0  0  0  0  0  0  0  0  0  0  0
    0.5126   -4.4182    6.1512 C   0  0  0  0  0  0  0  0  0  0  0  0
    0.3493   -4.9489    7.5100 C   0  0  0  0  0  0  0  0  0  0  0  0
   -0.7735   -4.5986    8.2792 C   0  0  0  0  0  0  0  0  0  0  0  0
   -0.8391   -4.9160    9.6354 C   0  0  0  0  0  0  0  0  0  0  0  0
    0.1741   -5.6706   10.2200 C   0  0  0  0  0  0  0  0  0  0  0  0
    1.2599   -6.0910    9.4541 C   0  0  0  0  0  0  0  0  0  0  0  0
    1.3480   -5.7307    8.1079 C   0  0  0  0  0  0  0  0  0  0  0  0
  1  6  2  0
  2  1  1  0
  3  4  1  0
  3  2  2  0
  4  5  2  0
  5  6  1  0
  6  7  1  0
  8 12  1  0
  8  9  1  0
  8  7  1  1
  9 11  2  0
  9 10  1  0
 12 13  1  0
 13 14  2  0
 15 14  1  0
 16 13  1  0
 17 16  2  0
 17 18  1  0
 18 15  2  0
 19 24  1  0
 19 18  1  0
 20 19  2  0
 21 22  2  0
 21 20  1  0
 22 23  1  0
 23 24  2  0
M  END
>  <DRUGBANK_ID>  (1) 
DB08121

>  <COMMON_NAME>  (1) 
(2S)-2-(biphenyl-4-yloxy)-3-phenylpropanoic acid

$$$$
