BFU
     RDKit          3D

 26 28  0  0  0  0  0  0  0  0999 V2000
    2.6880   -5.7381   -4.2579 Br  0  0  0  0  0  0  0  0  0  0  0  0
    3.0332   -5.7156   -2.4063 C   0  0  0  0  0  0  0  0  0  0  0  0
    3.6794   -4.6525   -1.8368 C   0  0  0  0  0  0  0  0  0  0  0  0
    3.8467   -4.5082   -0.4900 N   0  0  0  0  0  0  0  0  0  0  0  0
    3.1059   -5.2555    0.3476 C   0  0  0  0  0  0  0  0  0  0  0  0
    2.5430   -6.4296   -0.1372 C   0  0  0  0  0  0  0  0  0  0  0  0
    2.5441   -6.6737   -1.5324 C   0  0  0  0  0  0  0  0  0  0  0  0
    2.7750   -4.7882    1.6498 N   0  0  0  0  0  0  0  0  0  0  0  0
    2.7668   -3.5347    2.2170 C   0  0  0  0  0  0  0  0  0  0  0  0
    2.7251   -3.4319    3.4494 O   0  0  0  0  0  0  0  0  0  0  0  0
    2.6792   -2.3851    1.4743 N   0  0  0  0  0  0  0  0  0  0  0  0
    2.7840   -2.3259    0.0665 C   0  0  1  0  0  0  0  0  0  0  0  0
    1.6149   -3.0458   -0.6466 C   0  0  0  0  0  0  0  0  0  0  0  0
    2.1065   -1.7384   -1.1106 C   0  0  1  0  0  0  0  0  0  0  0  0
    1.0726   -0.7271   -1.2576 C   0  0  0  0  0  0  0  0  0  0  0  0
   -0.1415   -1.0377   -1.8759 C   0  0  0  0  0  0  0  0  0  0  0  0
   -0.3481   -2.2711   -2.3666 F   0  0  0  0  0  0  0  0  0  0  0  0
   -1.1150   -0.0850   -2.0323 C   0  0  0  0  0  0  0  0  0  0  0  0
   -0.8649    1.1982   -1.5464 C   0  0  0  0  0  0  0  0  0  0  0  0
    0.3811    1.5490   -0.9661 C   0  0  0  0  0  0  0  0  0  0  0  0
    1.3724    0.5787   -0.9032 C   0  0  0  0  0  0  0  0  0  0  0  0
    2.6961    0.6996   -0.5727 O   0  0  0  0  0  0  0  0  0  0  0  0
    0.5383    2.9257   -0.4318 C   0  0  0  0  0  0  0  0  0  0  0  0
   -0.3802    3.7453   -0.6120 O   0  0  0  0  0  0  0  0  0  0  0  0
    1.7923    3.3389    0.3037 C   0  0  0  0  0  0  0  0  0  0  0  0
    2.0350    2.5427    1.5866 C   0  0  0  0  0  0  0  0  0  0  0  0
  1  2  1  0
  2  3  2  0
  2  7  1  0
  3  4  1  0
  4  5  2  0
  5  6  1  0
  5  8  1  0
  6  7  2  0
  8  9  1  0
  9 10  2  0
  9 11  1  0
 12 13  1  0
 12 14  1  0
 12 11  1  1
 13 14  1  0
 14 15  1  1
 15 16  2  0
 15 21  1  0
 16 17  1  0
 16 18  1  0
 18 19  2  0
 19 20  1  0
 20 21  2  0
 20 23  1  0
 21 22  1  0
 23 24  2  0
 23 25  1  0
 25 26  1  0
M  END
>  <DRUGBANK_ID>  (1) 
DB07451

>  <COMMON_NAME>  (1) 
1-(5-BROMO-PYRIDIN-2-YL)-3-[2-(6-FLUORO-2-HYDROXY-3-PROPIONYL-PHENYL)-CYCLOPROPYL]-UREA

$$$$
