32A
     RDKit          3D

 19 19  0  0  0  0  0  0  0  0999 V2000
   -0.3230   -1.1581    0.0051 C   0  0  0  0  0  0  0  0  0  0  0  0
   -0.7415   -2.5776    0.0124 C   0  0  0  0  0  0  0  0  0  0  0  0
    0.9093   -5.9475    0.0301 C   0  0  0  0  0  0  0  0  0  0  0  0
    0.9838    0.6562   -0.0055 C   0  0  0  0  0  0  0  0  0  0  0  0
   -1.1419   -0.0334    0.0006 C   0  0  0  0  0  0  0  0  0  0  0  0
    2.2040    1.4105   -0.0271 C   0  0  0  0  0  0  0  0  0  0  0  0
    3.1710    2.1435   -0.0482 C   0  0  0  0  0  0  0  0  0  0  0  0
    0.2356   -3.5687    0.0164 N   0  0  0  0  0  0  0  0  0  0  0  0
   -0.1081   -4.9908    0.0260 N   0  0  0  0  0  0  0  0  0  0  0  0
    0.4864   -7.2732    0.0390 N   0  0  0  0  0  0  0  0  0  0  0  0
    4.3500    3.0546   -0.0490 C   0  0  0  0  0  0  0  0  0  0  0  0
   -0.3139    1.1152    0.0009 C   0  0  0  0  0  0  0  0  0  0  0  0
   -1.9340   -2.9004    0.0157 O   0  0  0  0  0  0  0  0  0  0  0  0
    1.3759   -8.4476    0.0444 C   0  0  0  0  0  0  0  0  0  0  0  0
    2.5286   -5.4900    0.0243 S   0  0  0  0  0  0  0  0  0  0  0  0
    1.0014   -0.7264    0.0008 O   0  0  0  0  0  0  0  0  0  0  0  0
    4.0263    4.4862    0.4142 C   0  0  0  0  0  0  0  0  0  0  0  0
    3.4677    4.5352    1.8378 C   0  0  0  0  0  0  0  0  0  0  0  0
    4.4641    3.9955    2.8534 C   0  0  0  0  0  0  0  0  0  0  0  0
  1  2  1  0
  1  5  2  0
  1 16  1  0
  2  8  1  0
  2 13  2  0
  3  9  1  0
  3 10  1  0
  3 15  2  0
  4  6  1  0
  4 12  2  0
  4 16  1  0
  5 12  1  0
  6  7  3  0
  7 11  1  0
  8  9  1  0
 10 14  1  0
 11 17  1  0
 17 18  1  0
 18 19  1  0
M  END
>  <DRUGBANK_ID>  (1) 
DB07004

>  <COMMON_NAME>  (1) 
2-[(5-hex-1-yn-1-ylfuran-2-yl)carbonyl]-N-methylhydrazinecarbothioamide

$$$$
