
     RDKit          3D

 26 29  0  0  0  0  0  0  0  0999 V2000
    1.2081    0.3218    0.0031 C   0  0  0  0  0  0  0  0  0  0  0  0
    1.1176   -1.0539    0.0790 C   0  0  0  0  0  0  0  0  0  0  0  0
   -0.2014   -1.4831    0.0471 C   0  0  0  0  0  0  0  0  0  0  0  0
   -1.3005   -0.7295   -0.0364 N   0  0  0  0  0  0  0  0  0  0  0  0
   -1.0912    0.5644   -0.0551 C   0  0  0  0  0  0  0  0  0  0  0  0
    0.1202    1.1314   -0.0409 N   0  0  0  0  0  0  0  0  0  0  0  0
    2.4172    0.9810    0.1032 N   0  0  0  0  0  0  0  0  0  0  0  0
   -2.2377    1.3017   -0.0977 N   0  0  0  0  0  0  0  0  0  0  0  0
    2.3177   -1.9934    0.1484 C   0  0  0  0  0  0  0  0  0  0  0  0
    2.3668   -2.9194    1.3571 C   0  0  0  0  0  0  0  0  0  0  0  0
    1.4346   -3.9533    1.5056 C   0  0  0  0  0  0  0  0  0  0  0  0
    1.2887   -4.5990    2.7399 C   0  0  0  0  0  0  0  0  0  0  0  0
    2.2271   -4.4209    3.7666 C   0  0  0  0  0  0  0  0  0  0  0  0
    3.2865   -3.5131    3.5589 C   0  0  0  0  0  0  0  0  0  0  0  0
    3.3224   -2.7425    2.3763 C   0  0  0  0  0  0  0  0  0  0  0  0
    0.5464   -4.3528    0.4159 C   0  0  0  0  0  0  0  0  0  0  0  0
   -0.4423   -5.1876    0.6494 C   0  0  0  0  0  0  0  0  0  0  0  0
   -0.4722   -5.9937    1.9034 C   0  0  1  0  0  0  0  0  0  0  0  0
    0.1517   -5.3209    2.9971 O   0  0  0  0  0  0  0  0  0  0  0  0
    4.3372   -3.2526    4.4135 O   0  0  0  0  0  0  0  0  0  0  0  0
    4.3890   -3.9887    5.6338 C   0  0  0  0  0  0  0  0  0  0  0  0
    2.2003   -5.1009    4.9551 O   0  0  0  0  0  0  0  0  0  0  0  0
    1.1913   -6.0620    5.2084 C   0  0  0  0  0  0  0  0  0  0  0  0
   -1.8256   -6.4425    2.3798 C   0  0  0  0  0  0  0  0  0  0  0  0
   -2.7555   -7.2396    1.4966 C   0  0  0  0  0  0  0  0  0  0  0  0
   -3.0913   -5.8125    1.8454 C   0  0  0  0  0  0  0  0  0  0  0  0
  1  2  2  0
  1  7  1  0
  2  3  1  0
  2  9  1  0
  3  4  2  0
  4  5  1  0
  5  6  2  0
  5  8  1  0
  6  1  1  0
  9 10  1  0
 10 11  2  0
 11 16  1  0
 11 12  1  0
 12 13  2  0
 12 19  1  0
 13 14  1  0
 13 22  1  0
 14 15  2  0
 14 20  1  0
 15 10  1  0
 16 17  2  0
 17 18  1  0
 18 19  1  0
 18 24  1  1
 20 21  1  0
 22 23  1  0
 24 25  1  0
 24 26  1  0
 25 26  1  0
M  END
>  <DRUGBANK_ID>  (1) 
DB07938

>  <COMMON_NAME>  (1) 
(S)-iclaprim

>  <UNII>  (1) 
7P9VLC9Y9D

$$$$
