RE9
     RDKit          3D

 22 23  0  0  0  0  0  0  0  0999 V2000
   -0.9973   -1.4688    0.0467 C   0  0  0  0  0  0  0  0  0  0  0  0
   -2.3162   -0.6753    0.0132 C   0  0  0  0  0  0  0  0  0  0  0  0
   -2.2699    0.8445   -0.0390 C   0  0  0  0  0  0  0  0  0  0  0  0
   -0.9330    1.5705   -0.0311 C   0  0  0  0  0  0  0  0  0  0  0  0
    0.2608    0.7074    0.0055 C   0  0  0  0  0  0  0  0  0  0  0  0
    1.6138    1.1941   -0.0044 C   0  0  0  0  0  0  0  0  0  0  0  0
    2.5504   -0.0189   -0.0154 C   0  0  1  0  0  0  0  0  0  0  0  0
    1.5829   -1.2284    0.0801 C   0  0  0  0  0  0  0  0  0  0  0  0
    0.2263   -0.6201    0.0430 C   0  0  0  0  0  0  0  0  0  0  0  0
    3.3885    0.0008   -1.3391 C   0  0  0  0  0  0  0  0  0  0  0  0
    3.1697   -1.1803   -2.2453 C   0  0  0  0  0  0  0  0  0  0  0  0
    2.5887   -1.1661   -3.4587 C   0  0  0  0  0  0  0  0  0  0  0  0
    2.2661   -2.3869   -4.2205 C   0  0  0  0  0  0  0  0  0  0  0  0
    1.7854   -2.3003   -5.4805 C   0  0  0  0  0  0  0  0  0  0  0  0
    1.4388   -3.3941   -6.4159 C   0  0  0  0  0  0  0  0  0  0  0  0
   -0.9749   -2.2416    1.3748 C   0  0  0  0  0  0  0  0  0  0  0  0
   -0.9724   -2.3711   -1.2036 C   0  0  0  0  0  0  0  0  0  0  0  0
    1.9861    2.4821   -0.0039 C   0  0  0  0  0  0  0  0  0  0  0  0
    3.4221    0.0196    1.2628 C   0  0  0  0  0  0  0  0  0  0  0  0
    2.4997   -3.6850   -3.4835 C   0  0  0  0  0  0  0  0  0  0  0  0
    1.0339   -3.2117   -7.5588 O   0  0  0  0  0  0  0  0  0  0  0  0
    1.6111   -4.6286   -5.9386 O   0  0  0  0  0  0  0  0  0  0  0  0
  1  2  1  0
  1  9  1  0
  1 16  1  0
  1 17  1  0
  2  3  1  0
  3  4  1  0
  4  5  1  0
  5  6  1  0
  5  9  2  0
  6  7  1  0
  6 18  2  0
  7  8  1  0
  7 19  1  1
  7 10  1  0
  8  9  1  0
 10 11  1  0
 11 12  2  0
 12 13  1  0
 13 14  2  0
 13 20  1  0
 14 15  1  0
 15 21  2  0
 15 22  1  0
M  END
>  <DRUGBANK_ID>  (1) 
DB08467

>  <COMMON_NAME>  (1) 
6-(2,3,4,5,6,7-HEXAHYDRO-2,4,4-TRIMETHYL-1-METYLENEINDEN-2-YL)-3-METHYLHEXA-2,4-DIENOIC ACID

$$$$
