MYE
     RDKit          3D

 27 27  0  0  0  0  0  0  0  0999 V2000
    3.5674    3.6456    1.3063 C   0  0  0  0  0  0  0  0  0  0  0  0
    4.9922    3.3845    0.6932 C   0  0  0  0  0  0  0  0  0  0  0  0
    6.0690    2.5877    1.4962 C   0  0  0  0  0  0  0  0  0  0  0  0
    5.9525    1.0175    1.5429 C   0  0  2  0  0  0  0  0  0  0  0  0
    4.5866    0.6025    1.6784 N   0  0  0  0  0  0  0  0  0  0  0  0
    3.6200   -0.3203    1.7619 C   0  0  0  0  0  0  0  0  0  0  0  0
    2.4607    0.0640    1.9906 O   0  0  0  0  0  0  0  0  0  0  0  0
    3.8131   -1.7791    1.8385 C   0  0  2  0  0  0  0  0  0  0  0  0
    2.5561   -2.4033    1.1634 C   0  0  0  0  0  0  0  0  0  0  0  0
    2.2523   -3.8307    1.6030 C   0  0  0  0  0  0  0  0  0  0  0  0
    1.7308   -3.9246    3.0413 C   0  0  0  0  0  0  0  0  0  0  0  0
    1.1654   -4.4248    0.7118 C   0  0  0  0  0  0  0  0  0  0  0  0
    3.8308   -1.9429    3.2850 N   0  0  0  0  0  0  0  0  0  0  0  0
    4.7175   -2.7182    3.9423 C   0  0  0  0  0  0  0  0  0  0  0  0
    4.5074   -3.0982    5.1019 O   0  0  0  0  0  0  0  0  0  0  0  0
    5.7759   -3.0235    3.1788 O   0  0  0  0  0  0  0  0  0  0  0  0
    6.8321   -3.7720    3.7828 C   0  0  0  0  0  0  0  0  0  0  0  0
    7.4568   -3.0662    4.9593 C   0  0  0  0  0  0  0  0  0  0  0  0
    7.2494   -3.5212    6.2582 C   0  0  0  0  0  0  0  0  0  0  0  0
    7.7550   -2.8033    7.3436 C   0  0  0  0  0  0  0  0  0  0  0  0
    8.4266   -1.5985    7.1383 C   0  0  0  0  0  0  0  0  0  0  0  0
    9.1245   -0.6374    8.6046 Br  0  0  0  0  0  0  0  0  0  0  0  0
    8.6339   -1.1257    5.8540 C   0  0  0  0  0  0  0  0  0  0  0  0
    8.2117   -1.9069    4.7834 C   0  0  0  0  0  0  0  0  0  0  0  0
    6.4771    0.5791    2.8554 C   0  0  0  0  0  0  0  0  0  0  0  0
    7.2670   -0.3473    2.8673 O   0  0  0  0  0  0  0  0  0  0  0  0
    2.6221    2.4940    1.5253 C   0  0  0  0  0  0  0  0  0  0  0  0
  1  2  1  0
  1 27  1  0
  2  3  1  0
  4 25  1  1
  4  5  1  0
  4  3  1  0
  5  6  1  0
  6  7  2  0
  8 13  1  0
  8  9  1  6
  8  6  1  0
  9 10  1  0
 10 11  1  0
 10 12  1  0
 13 14  1  0
 14 15  2  0
 14 16  1  0
 16 17  1  0
 17 18  1  0
 18 19  2  0
 18 24  1  0
 19 20  1  0
 20 21  2  0
 21 22  1  0
 21 23  1  0
 23 24  2  0
 25 26  2  0
M  END
>  <DRUGBANK_ID>  (1) 
DB04234

>  <SECONDARY_ACCESSION_NUMBERS>  (1) 
EXPT02267

>  <COMMON_NAME>  (1) 
N2-({[(4-Bromophenyl)Methyl]Oxy}Carbonyl)-N1-[(1s)-1-Formylpentyl]-L-Leucinamide

$$$$
