
     RDKit          3D

 36 40  0  0  0  0  0  0  0  0999 V2000
   -1.3817   -0.0461    0.0841 C   0  0  0  0  0  0  0  0  0  0  0  0
   -0.2509    0.7132    0.3299 C   0  0  0  0  0  0  0  0  0  0  0  0
    1.0999   -1.2876    0.3889 C   0  0  0  0  0  0  0  0  0  0  0  0
   -0.0720   -2.0471    0.1451 C   0  0  0  0  0  0  0  0  0  0  0  0
   -1.3116   -1.4309    0.0433 C   0  0  0  0  0  0  0  0  0  0  0  0
    0.9565    0.0938    0.6280 C   0  0  0  0  0  0  0  0  0  0  0  0
    3.8450   -7.1312    0.2833 C   0  0  0  0  0  0  0  0  0  0  0  0
    4.1782   -6.3910   -0.8203 C   0  0  0  0  0  0  0  0  0  0  0  0
    3.7411   -8.4877    0.0503 C   0  0  0  0  0  0  0  0  0  0  0  0
    3.7358   -8.9676   -1.2928 C   0  0  0  0  0  0  0  0  0  0  0  0
    3.9123   -6.7826   -2.1340 C   0  0  0  0  0  0  0  0  0  0  0  0
    3.6975   -8.1124   -2.4118 C   0  0  0  0  0  0  0  0  0  0  0  0
    4.3292   -8.2088   -4.8640 C   0  0  0  0  0  0  0  0  0  0  0  0
    2.3682   -9.4518   -3.9882 C   0  0  0  0  0  0  0  0  0  0  0  0
    1.5165   -8.8809   -5.1439 C   0  0  0  0  0  0  0  0  0  0  0  0
    3.4678   -7.7112   -6.0553 C   0  0  0  0  0  0  0  0  0  0  0  0
    3.4832   -8.5487   -3.6973 N   0  0  0  0  0  0  0  0  0  0  0  0
    2.3380   -8.6231   -6.3346 N   0  0  0  0  0  0  0  0  0  0  0  0
    1.0003  -10.0922   -7.8722 C   0  0  0  0  0  0  0  0  0  0  0  0
    2.1559   -9.1574   -7.5923 C   0  0  0  0  0  0  0  0  0  0  0  0
    2.9363   -8.8942   -8.5323 O   0  0  0  0  0  0  0  0  0  0  0  0
    3.8666   -6.5419    1.5150 O   0  0  0  0  0  0  0  0  0  0  0  0
    2.7581   -4.1011   -0.5937 C   0  0  0  0  0  0  0  0  0  0  0  0
    3.0702   -5.3200    1.7175 C   0  0  0  0  0  0  0  0  0  0  0  0
    3.3019   -4.0359    0.8343 C   0  0  0  0  0  0  0  0  0  0  0  0
    2.2111   -2.8566   -0.9443 O   0  0  0  0  0  0  0  0  0  0  0  0
    2.6676   -2.8396    1.3347 O   0  0  0  0  0  0  0  0  0  0  0  0
    2.4195   -1.9990    0.1788 C   0  0  0  0  0  0  0  0  0  0  0  0
   -2.8817    0.7587   -0.1090 Cl  0  0  0  0  0  0  0  0  0  0  0  0
    2.1967    1.2118    1.1029 Cl  0  0  0  0  0  0  0  0  0  0  0  0
    3.6243   -1.1243   -0.2397 C   0  0  0  0  0  0  0  0  0  0  0  0
    2.3887    0.2626   -2.0336 C   0  0  0  0  0  0  0  0  0  0  0  0
    2.7362    0.6871   -3.2843 C   0  0  0  0  0  0  0  0  0  0  0  0
    4.3778   -0.4391   -2.5364 C   0  0  0  0  0  0  0  0  0  0  0  0
    3.4565   -0.4214   -1.5205 N   0  0  0  0  0  0  0  0  0  0  0  0
    3.9760    0.2320   -3.5961 N   0  0  0  0  0  0  0  0  0  0  0  0
  1 29  1  0
  2  1  2  0
  2  6  1  0
  3  4  1  0
  4  5  2  0
  5  1  1  0
  6  3  2  0
  6 30  1  0
  7 22  1  0
  7  9  1  0
  8  7  2  0
  8 11  1  0
  9 10  2  0
 10 12  1  0
 12 11  2  0
 12 17  1  0
 13 17  1  0
 13 16  1  0
 14 15  1  0
 15 18  1  0
 17 14  1  0
 18 16  1  0
 18 20  1  0
 20 19  1  0
 20 21  2  0
 22 24  1  0
 25 23  1  0
 25 24  1  0
 26 23  1  0
 26 28  1  0
 27 25  1  0
 28  3  1  0
 28 27  1  0
 28 31  1  0
 31 35  1  0
 32 35  1  0
 32 33  2  0
 33 36  1  0
 34 35  1  0
 36 34  2  0
M  END
>  <DRUGBANK_ID>  (1) 
DB01026

>  <SECONDARY_ACCESSION_NUMBERS>  (1) 
APRD00401

>  <COMMON_NAME>  (1) 
Ketoconazole

>  <CAS_NUMBER>  (1) 
65277-42-1

>  <UNII>  (1) 
R9400W927I

>  <SYNONYMS>  (1) 
Ketoconazol; Ketoconazole; Ketoconazolum; Ketozole

$$$$
