
     RDKit          3D

 32 33  0  0  0  0  0  0  0  0999 V2000
   -3.9712    2.9264    2.4856 C   0  0  0  0  0  0  0  0  0  0  0  0
   -4.5537    2.2108    3.5337 C   0  0  0  0  0  0  0  0  0  0  0  0
   -4.7925    0.8403    3.4219 C   0  0  0  0  0  0  0  0  0  0  0  0
   -4.4733    0.1591    2.2499 C   0  0  0  0  0  0  0  0  0  0  0  0
   -3.9146    0.8535    1.1737 C   0  0  0  0  0  0  0  0  0  0  0  0
   -3.6633    2.2287    1.3080 C   0  0  0  0  0  0  0  0  0  0  0  0
   -3.4658    0.1179   -0.0665 C   0  0  2  0  0  0  0  0  0  0  0  0
   -1.9349    0.0936   -0.0713 C   0  0  0  0  0  0  0  0  0  0  0  0
   -1.4131   -0.8141   -1.0983 N   0  0  0  0  0  0  0  0  0  0  0  0
    0.0515   -0.8197   -1.0485 C   0  0  0  0  0  0  0  0  0  0  0  0
    0.5253   -1.2688    0.3073 C   0  0  0  0  0  0  0  0  0  0  0  0
   -0.1161   -2.6288    0.4649 C   0  0  0  0  0  0  0  0  0  0  0  0
    0.4251   -3.7086   -0.4832 C   0  0  0  0  0  0  0  0  0  0  0  0
    1.9413   -3.9965   -0.4486 C   0  0  0  0  0  0  0  0  0  0  0  0
    2.4121   -4.6427    0.8240 C   0  0  0  0  0  0  0  0  0  0  0  0
    1.9603   -5.7811    1.5294 O   0  0  0  0  0  0  0  0  0  0  0  0
   -3.9543    0.7735   -1.2317 O   0  0  0  0  0  0  0  0  0  0  0  0
    0.6295   -5.6263    2.0281 C   0  0  0  0  0  0  0  0  0  0  0  0
    0.2933   -4.4838    3.0330 C   0  0  0  0  0  0  0  0  0  0  0  0
    0.8657   -3.1780    2.9504 O   0  0  0  0  0  0  0  0  0  0  0  0
    2.1987   -2.7234    2.8687 C   0  0  0  0  0  0  0  0  0  0  0  0
    2.6917   -3.1033    4.1743 C   0  0  0  0  0  0  0  0  0  0  0  0
    3.6398   -4.1302    4.3207 C   0  0  0  0  0  0  0  0  0  0  0  0
    4.1092   -4.3626    5.5898 C   0  0  0  0  0  0  0  0  0  0  0  0
    3.5798   -3.6215    6.6251 C   0  0  0  0  0  0  0  0  0  0  0  0
    2.5447   -2.7042    6.4739 C   0  0  0  0  0  0  0  0  0  0  0  0
    2.0718   -2.4348    5.2132 C   0  0  0  0  0  0  0  0  0  0  0  0
    0.7943   -1.2609    5.0493 Cl  0  0  0  0  0  0  0  0  0  0  0  0
    4.4456   -5.1012    3.1397 Cl  0  0  0  0  0  0  0  0  0  0  0  0
   -3.6527    4.3926    2.5295 C   0  0  0  0  0  0  0  0  0  0  0  0
   -2.2559    4.6060    2.3678 O   0  0  0  0  0  0  0  0  0  0  0  0
   -4.9209    2.7633    4.7264 O   0  0  0  0  0  0  0  0  0  0  0  0
  1  2  2  0
  1  6  1  0
  1 30  1  0
  2  3  1  0
  2 32  1  0
  3  4  2  0
  4  5  1  0
  5  6  2  0
  7 17  1  6
  7  8  1  0
  7  5  1  0
  8  9  1  0
  9 10  1  0
 10 11  1  0
 11 12  1  0
 12 13  1  0
 13 14  1  0
 14 15  1  0
 15 16  1  0
 16 18  1  0
 18 19  1  0
 19 20  1  0
 20 21  1  0
 21 22  1  0
 22 23  2  0
 22 27  1  0
 23 24  1  0
 23 29  1  0
 24 25  2  0
 25 26  1  0
 26 27  2  0
 27 28  1  0
 30 31  1  0
M  END
>  <DRUGBANK_ID>  (1) 
DB09082

>  <SECONDARY_ACCESSION_NUMBERS>  (1) 
DB06577

>  <COMMON_NAME>  (1) 
Vilanterol

>  <CAS_NUMBER>  (1) 
503068-34-6

>  <UNII>  (1) 
028LZY775B

>  <SYNONYMS>  (1) 
Vilanterol; Vilant√©rol; Vilanterolum

$$$$
