
     RDKit          3D

 15 16  0  0  0  0  0  0  0  0999 V2000
   -0.7103   -0.9511   -0.1521 O   0  0  0  0  0  0  0  0  0  0  0  0
    0.0784    2.5083    0.5161 O   0  0  0  0  0  0  0  0  0  0  0  0
    0.7799   -0.3988   -2.7258 O   0  0  0  0  0  0  0  0  0  0  0  0
    2.6521   -4.3054   -3.8911 O   0  0  0  0  0  0  0  0  0  0  0  0
    1.3517   -1.8533   -1.0074 N   0  0  0  0  0  0  0  0  0  0  0  0
    1.9683   -2.2336   -3.2317 N   0  0  0  0  0  0  0  0  0  0  0  0
    0.0329    1.2749   -0.1855 C   0  0  1  0  0  0  0  0  0  0  0  0
    0.7269   -1.0171    0.0252 C   0  0  1  0  0  0  0  0  0  0  0  0
    1.2524    0.4185    0.0844 C   0  0  0  0  0  0  0  0  0  0  0  0
   -1.1151    0.3740    0.2459 C   0  0  1  0  0  0  0  0  0  0  0  0
   -2.4512    0.8063   -0.3477 C   0  0  0  0  0  0  0  0  0  0  0  0
    1.3190   -1.4282   -2.3315 C   0  0  0  0  0  0  0  0  0  0  0  0
    1.9727   -3.0456   -0.6601 C   0  0  0  0  0  0  0  0  0  0  0  0
    2.4225   -3.9038   -1.5826 C   0  0  0  0  0  0  0  0  0  0  0  0
    2.3553   -3.5161   -2.9978 C   0  0  0  0  0  0  0  0  0  0  0  0
  1  8  1  0
  1 10  1  0
  3 12  2  0
  4 15  2  0
  5 12  1  0
  5 13  1  0
  6 12  1  0
  6 15  1  0
  7  2  1  1
  7  9  1  0
  7 10  1  0
  8  9  1  0
  8  5  1  6
 10 11  1  6
 13 14  2  0
 14 15  1  0
M  END
>  <DRUGBANK_ID>  (1) 
DB03274

>  <SECONDARY_ACCESSION_NUMBERS>  (1) 
EXPT01151

>  <COMMON_NAME>  (1) 
2',5'-Dideoxyuridine

>  <CAS_NUMBER>  (1) 
35959-50-3

$$$$
