
     RDKit          3D

  1  0  0  0  0  0  0  0  0  0999 V2000
    0.9641   -0.0933    0.0005 Se  0  0  0  0  0 15  0  0  0  0  0  0
M  END
>  <DRUGBANK_ID>  (1) 
DB11135

>  <COMMON_NAME>  (1) 
Selenium

>  <CAS_NUMBER>  (1) 
7782-49-2

>  <UNII>  (1) 
H6241UJ22B

>  <SYNONYMS>  (1) 
Selen; Selenio; Sélénium; Selenium elemental; Selenium metallicum; Selenium, elemental

$$$$
