
     RDKit          3D

 24 27  0  0  0  0  0  0  0  0999 V2000
    0.9809   -0.2184   -0.0824 S   0  0  0  0  0  0  0  0  0  0  0  0
    7.9161    2.5915   -0.0704 O   0  0  0  0  0  0  0  0  0  0  0  0
    2.4273    3.6801    0.0023 O   0  0  0  0  0  0  0  0  0  0  0  0
    0.5850    0.6477    1.2286 O   0  0  0  0  0  0  0  0  0  0  0  0
    0.5931    0.5555   -1.2500 O   0  0  0  0  0  0  0  0  0  0  0  0
    0.5121   -1.5578    0.1449 O   0  0  0  0  0  0  0  0  0  0  0  0
    5.7710    4.7847   -0.0570 N   0  0  0  0  0  0  0  0  0  0  0  0
    6.8639    0.4804   -0.0643 N   0  0  0  0  0  0  0  0  0  0  0  0
    5.4674    2.3641   -0.0569 C   0  0  0  0  0  0  0  0  0  0  0  0
    4.6958    1.1354   -0.0480 C   0  0  0  0  0  0  0  0  0  0  0  0
    5.0018    3.6359   -0.0533 C   0  0  0  0  0  0  0  0  0  0  0  0
    5.5345    0.0291   -0.0529 C   0  0  0  0  0  0  0  0  0  0  0  0
    6.9188    1.8921   -0.0666 C   0  0  0  0  0  0  0  0  0  0  0  0
    3.6229    5.6408   -0.0498 C   0  0  0  0  0  0  0  0  0  0  0  0
    4.9818    5.9252   -0.0573 C   0  0  0  0  0  0  0  0  0  0  0  0
    3.5275    4.1880   -0.0386 C   0  0  0  0  0  0  0  0  0  0  0  0
    3.3429    0.9819   -0.0476 C   0  0  0  0  0  0  0  0  0  0  0  0
    2.7594   -0.2575   -0.0484 C   0  0  0  0  0  0  0  0  0  0  0  0
    4.9870   -1.2561   -0.0505 C   0  0  0  0  0  0  0  0  0  0  0  0
    3.5683   -1.3937   -0.0444 C   0  0  0  0  0  0  0  0  0  0  0  0
    2.6200    6.6039   -0.0405 C   0  0  0  0  0  0  0  0  0  0  0  0
    5.3828    7.2360   -0.0561 C   0  0  0  0  0  0  0  0  0  0  0  0
    3.0331    7.9332   -0.0383 C   0  0  0  0  0  0  0  0  0  0  0  0
    4.4056    8.2424   -0.0476 C   0  0  0  0  0  0  0  0  0  0  0  0
  1  4  1  0
  1  5  2  0
  1  6  2  0
  1 18  1  0
  2 13  2  0
  3 16  2  0
  7 11  1  0
  7 15  1  0
  8 12  1  0
  8 13  1  0
  9 10  1  0
  9 11  2  0
  9 13  1  0
 10 12  2  0
 10 17  1  0
 11 16  1  0
 12 19  1  0
 14 15  2  0
 14 16  1  0
 14 21  1  0
 15 22  1  0
 17 18  2  0
 18 20  1  0
 19 20  2  0
 21 23  2  0
 22 24  2  0
 23 24  1  0
M  END
>  <DRUGBANK_ID>  (1) 
DB02519

>  <SECONDARY_ACCESSION_NUMBERS>  (1) 
EXPT01891

>  <COMMON_NAME>  (1) 
Indirubin-5-sulphonate

>  <CAS_NUMBER>  (1) 
244021-67-8

$$$$
