
     RDKit          3D

 24 25  0  0  0  0  0  0  0  0999 V2000
    1.3065   -0.7154   -0.3709 C   0  0  1  0  0  0  0  0  0  0  0  0
    1.6318    0.5211    0.2481 O   0  0  0  0  0  0  0  0  0  0  0  0
   -0.2431   -0.7954   -0.4382 C   0  0  2  0  0  0  0  0  0  0  0  0
    0.4351    1.2993    0.3923 C   0  0  2  0  0  0  0  0  0  0  0  0
   -0.7607    0.6298   -0.2842 C   0  0  2  0  0  0  0  0  0  0  0  0
   -2.0179    0.7559    0.3738 O   0  0  0  0  0  0  0  0  0  0  0  0
   -0.7215   -1.5997    0.6500 O   0  0  0  0  0  0  0  0  0  0  0  0
    2.0592   -0.8470   -1.7102 C   0  0  0  0  0  0  0  0  0  0  0  0
    1.3373   -1.7441   -2.5724 O   0  0  0  0  0  0  0  0  0  0  0  0
    1.2796   -3.3125   -1.8445 P   0  0  0  0  0  0  0  0  0  0  0  0
    1.3297   -4.0198   -3.3092 O   0  0  0  0  0  0  0  0  0  0  0  0
    2.7325   -3.2571   -1.3797 O   0  0  0  0  0  0  0  0  0  0  0  0
    1.2219   -4.8808   -1.1165 O   0  0  0  0  0  0  0  0  0  0  0  0
    0.7780    2.6322   -0.0477 N   0  0  0  0  0  0  0  0  0  0  0  0
    1.1557    2.9623   -1.3646 C   0  0  0  0  0  0  0  0  0  0  0  0
    0.9865    3.5167    1.0133 C   0  0  0  0  0  0  0  0  0  0  0  0
    1.7667    4.1303   -1.6067 C   0  0  0  0  0  0  0  0  0  0  0  0
    1.5886    4.6978    0.7093 N   0  0  0  0  0  0  0  0  0  0  0  0
    2.0434    5.0633   -0.5139 C   0  0  0  0  0  0  0  0  0  0  0  0
    0.6798    3.2951    2.1848 O   0  0  0  0  0  0  0  0  0  0  0  0
    2.6433    6.1103   -0.7131 O   0  0  0  0  0  0  0  0  0  0  0  0
    0.9660    2.1751   -2.6497 C   0  0  0  0  0  0  0  0  0  0  0  0
    1.2925    2.5325   -3.7606 O   0  0  0  0  0  0  0  0  0  0  0  0
    0.3651    0.9865   -2.5252 O   0  0  0  0  0  0  0  0  0  0  0  0
  1  8  1  6
  2  1  1  0
  3  1  1  0
  3  7  1  1
  4  2  1  0
  4 14  1  6
  5  3  1  0
  5  4  1  0
  5  6  1  1
  8  9  1  0
  9 10  1  0
 10 11  1  0
 10 12  2  0
 13 10  1  0
 15 14  1  0
 15 22  1  0
 16 14  1  0
 16 20  2  0
 17 15  2  0
 18 16  1  0
 19 17  1  0
 19 18  1  0
 19 21  2  0
 23 22  2  0
 24 22  1  0
M  END
>  <DRUGBANK_ID>  (1) 
DB02957

>  <SECONDARY_ACCESSION_NUMBERS>  (1) 
EXPT02436

>  <COMMON_NAME>  (1) 
Orotidylic acid

>  <CAS_NUMBER>  (1) 
2149-82-8

>  <UNII>  (1) 
H0ARN8U4Y9

>  <SYNONYMS>  (1) 
5-(Dihydrogen phosphate)orotidine; 6-carboxy-5'-uridylic acid; orotidine 5'-(dihydrogen phosphate); Orotidine 5'-monophosphate; Orotidine 5'-phosphate

$$$$
