
     RDKit          3D

 11 10  0  0  0  0  0  0  0  0999 V2000
   -1.2669    2.4964    0.7148 O   0  0  0  0  0  0  0  0  0  0  0  0
   -2.0296    1.3660    0.7268 C   0  0  0  0  0  0  0  0  0  0  0  0
    0.6819    0.2341   -0.4324 C   0  0  0  0  0  0  0  0  0  0  0  0
    0.2623    0.3643    1.0468 C   0  0  0  0  0  0  0  0  0  0  0  0
   -1.2337    0.2429    1.3640 C   0  0  2  0  0  0  0  0  0  0  0  0
    0.5501    2.9227   -1.0521 N   0  0  0  0  0  0  0  0  0  0  0  0
    0.2648    1.5324   -1.6782 S   0  0  1  0  0  0  0  0  0  0  0  0
   -1.7569   -1.0835    0.9903 N   0  0  0  0  0  0  0  0  0  0  0  0
   -3.1225    1.2485    0.2368 O   0  0  0  0  0  0  0  0  0  0  0  0
    0.9103    1.0786   -2.8968 O   0  0  0  0  0  0  0  0  0  0  0  0
   -1.5248    1.5862   -2.0992 C   0  0  0  0  0  0  0  0  0  0  0  0
  2  1  1  0
  2  9  2  0
  3  4  1  0
  5  8  1  6
  5  4  1  0
  5  2  1  0
  7  6  2  0
  7  3  1  0
  7 10  2  0
  7 11  1  6
M  END
>  <DRUGBANK_ID>  (1) 
DB14103

>  <COMMON_NAME>  (1) 
Methionine sulfoximine

>  <CAS_NUMBER>  (1) 
15985-39-4

>  <UNII>  (1) 
M9P6YZ6JX9

>  <SYNONYMS>  (1) 
(2S)-2-Amino-4-(S-methylsufonimidoyl)butanoic acid; BUTANOIC ACID, 2-AMINO-4-(S-METHYLSULFONIMIDOYL)-, (2S)-; L-methionine sulfoximine; L-Methionine-S,R-sulfoximine; METHIONINE-DL-SULFOXIMINE; METHIONINE-DL-SULFOXIMINE, L-

$$$$
