
     RDKit          3D

  1  0  0  0  0  0  0  0  0  0999 V2000
    0.9734   -0.0221   -0.0938 Cu  0  0  0  0  0 15  0  0  0  0  0  0
M  CHG  1   1   2
M  END
>  <DRUGBANK_ID>  (1) 
DB14552

>  <COMMON_NAME>  (1) 
Cupric cation

>  <CAS_NUMBER>  (1) 
15158-11-9

>  <UNII>  (1) 
8CBV67279L

>  <SYNONYMS>  (1) 
Copper ion (Cu++); Copper ions; copper(2+); Copper(2+)ions; Cupric ion

$$$$
