
     RDKit          3D

  8  7  0  0  1  0  0  0  0  0999 V2000
    0.9231    0.0538   -0.0819 N   0  0  0  0  0  0  0  0  0  0  0  0
    0.4097   -1.1157   -0.8227 C   0  0  1  0  0  0  0  0  0  0  0  0
    0.9450   -2.4489   -0.2679 C   0  0  0  0  0  0  0  0  0  0  0  0
    0.5339   -2.9287    1.4715 S   0  0  0  0  0  0  0  0  0  0  0  0
    1.2602   -1.4202    2.6696 S   0  0  0  0  0  0  0  0  0  0  0  0
   -1.1294   -1.1062   -0.8256 C   0  0  0  0  0  0  0  0  0  0  0  0
   -1.7004   -0.9403   -2.0411 O   0  0  0  0  0  0  0  0  0  0  0  0
   -1.8202   -1.2316    0.1811 O   0  0  0  0  0  0  0  0  0  0  0  0
  2  1  1  1
  2  3  1  0
  2  6  1  0
  3  4  1  0
  4  5  1  0
  6  7  1  0
  6  8  2  0
M  END
>  <DRUGBANK_ID>  (1) 
DB02761

>  <SECONDARY_ACCESSION_NUMBERS>  (1) 
EXPT01038

>  <COMMON_NAME>  (1) 
S-Mercaptocysteine

>  <CAS_NUMBER>  (1) 
5652-32-4

>  <UNII>  (1) 
3RZ74WA9J2

$$$$
