3AC
     RDKit          3D

 22 23  0  0  0  0  0  0  0  0999 V2000
    0.9854    0.0077    0.1385 O   0  0  0  0  0  0  0  0  0  0  0  0
    0.2868    1.2084   -0.0696 C   0  0  0  0  0  0  0  0  0  0  0  0
    0.3685    1.9689   -1.1942 C   0  0  0  0  0  0  0  0  0  0  0  0
    1.4574    1.5187   -2.9166 I   0  0  0  0  0  0  0  0  0  0  0  0
   -0.3500    3.2860   -1.2117 C   0  0  0  0  0  0  0  0  0  0  0  0
   -0.2367    4.1157   -2.1183 O   0  0  0  0  0  0  0  0  0  0  0  0
   -1.1569    3.5591   -0.1446 N   0  0  0  0  0  0  0  0  0  0  0  0
   -1.3351    2.7410    0.9404 C   0  0  0  0  0  0  0  0  0  0  0  0
   -2.3401    3.2256    1.9537 C   0  0  0  0  0  0  0  0  0  0  0  0
   -0.6344    1.5866    1.0284 C   0  0  0  0  0  0  0  0  0  0  0  0
   -0.7934    0.6678    2.2280 C   0  0  0  0  0  0  0  0  0  0  0  0
   -0.3275    1.3017    3.5377 C   0  0  0  0  0  0  0  0  0  0  0  0
    2.3736    0.0180    0.1570 C   0  0  0  0  0  0  0  0  0  0  0  0
    3.1123    1.2036    0.1734 C   0  0  0  0  0  0  0  0  0  0  0  0
    4.4880    1.1801    0.0324 C   0  0  0  0  0  0  0  0  0  0  0  0
    5.1368   -0.0286   -0.1589 C   0  0  0  0  0  0  0  0  0  0  0  0
    4.4442   -1.2476   -0.1255 C   0  0  0  0  0  0  0  0  0  0  0  0
    3.0513   -1.2156    0.1004 C   0  0  0  0  0  0  0  0  0  0  0  0
    5.1704   -2.5134   -0.3682 C   0  0  0  0  0  0  0  0  0  0  0  0
    6.4773   -2.5718   -0.6865 C   0  0  0  0  0  0  0  0  0  0  0  0
    7.7706   -4.9917   -1.1399 N   0  0  0  0  0  0  0  0  0  0  0  0
    7.1842   -3.8945   -0.9343 C   0  0  0  0  0  0  0  0  0  0  0  0
  1  2  1  0
  1 13  1  0
  2  3  2  0
  2 10  1  0
  3  4  1  0
  3  5  1  0
  5  6  2  0
  5  7  1  0
  7  8  1  0
  8  9  1  0
  8 10  2  0
 10 11  1  0
 11 12  1  0
 13 14  2  0
 13 18  1  0
 14 15  1  0
 15 16  2  0
 16 17  1  0
 17 18  2  0
 17 19  1  0
 19 20  2  0
 20 22  1  0
 21 22  3  0
M  END
>  <DRUGBANK_ID>  (1) 
DB07035

>  <COMMON_NAME>  (1) 
(2E)-3-{3-[(5-ETHYL-3-IODO-6-METHYL-2-OXO-1,2-DIHYDROPYRIDIN-4-YL)OXY]PHENYL}ACRYLONITRILE

$$$$
