12U
     RDKit          3D

 29 31  0  0  0  0  0  0  0  0999 V2000
    1.0095    0.0165   -0.0479 O   0  0  0  0  0  0  0  0  0  0  0  0
    2.2126   -0.0993   -0.1512 C   0  0  0  0  0  0  0  0  0  0  0  0
    2.9923    0.9162   -0.6522 N   0  0  0  0  0  0  0  0  0  0  0  0
    4.4453    1.0339   -0.5845 C   0  0  0  0  0  0  0  0  0  0  0  0
    4.9208    1.7311   -1.7786 C   0  0  0  0  0  0  0  0  0  0  0  0
    4.7374    3.1134   -1.9533 C   0  0  0  0  0  0  0  0  0  0  0  0
    5.2206    3.7098   -3.0812 C   0  0  0  0  0  0  0  0  0  0  0  0
    5.8972    2.9197   -4.0070 C   0  0  0  0  0  0  0  0  0  0  0  0
    6.2510    3.5192   -5.3082 C   0  0  0  0  0  0  0  0  0  0  0  0
    6.8055    2.8370   -6.2573 N   0  0  0  0  0  0  0  0  0  0  0  0
    5.9721    4.8199   -5.5734 N   0  0  0  0  0  0  0  0  0  0  0  0
    6.1668    1.5627   -3.7499 C   0  0  0  0  0  0  0  0  0  0  0  0
    5.6316    0.9499   -2.6539 C   0  0  0  0  0  0  0  0  0  0  0  0
    2.9951   -1.3152    0.2958 C   0  0  2  0  0  0  0  0  0  0  0  0
    2.2304   -2.6054    0.0296 C   0  0  0  0  0  0  0  0  0  0  0  0
    3.1421   -3.6245    0.7035 C   0  0  0  0  0  0  0  0  0  0  0  0
    3.7348   -2.8808    1.9001 C   0  0  0  0  0  0  0  0  0  0  0  0
    3.4158   -1.4842    1.6893 N   0  0  0  0  0  0  0  0  0  0  0  0
    3.6164   -0.6068    2.7372 C   0  0  0  0  0  0  0  0  0  0  0  0
    4.1075   -0.9958    3.8037 O   0  0  0  0  0  0  0  0  0  0  0  0
    3.0949    0.8148    2.6849 C   0  0  0  0  0  0  0  0  0  0  0  0
    3.9280    1.7149    1.9161 N   0  0  0  0  0  0  0  0  0  0  0  0
    3.3663    2.9530    1.3656 C   0  0  0  0  0  0  0  0  0  0  0  0
    4.1574    4.1863    1.7857 C   0  0  0  0  0  0  0  0  0  0  0  0
    3.3350    5.4572    1.5891 C   0  0  0  0  0  0  0  0  0  0  0  0
    2.3940    5.6751    2.7802 C   0  0  0  0  0  0  0  0  0  0  0  0
    1.1707    4.7587    2.9354 C   0  0  0  0  0  0  0  0  0  0  0  0
    1.4859    3.2978    2.8405 C   0  0  0  0  0  0  0  0  0  0  0  0
    1.8555    2.9995    1.4196 C   0  0  0  0  0  0  0  0  0  0  0  0
  1  2  2  0
  2  3  1  0
  3  4  1  0
  4  5  1  0
  5  6  2  0
  5 13  1  0
  6  7  1  0
  7  8  2  0
  8  9  1  0
  8 12  1  0
  9 10  2  0
  9 11  1  0
 12 13  2  0
 14  2  1  1
 14 15  1  0
 14 18  1  0
 15 16  1  0
 16 17  1  0
 17 18  1  0
 18 19  1  0
 19 20  2  0
 19 21  1  0
 21 22  1  0
 22 23  1  0
 23 24  1  0
 23 29  1  0
 24 25  1  0
 25 26  1  0
 26 27  1  0
 27 28  1  0
 28 29  1  0
M  END
>  <DRUGBANK_ID>  (1) 
DB06853

>  <COMMON_NAME>  (1) 
N-cycloheptylglycyl-N-(4-carbamimidoylbenzyl)-L-prolinamide

$$$$
