
     RDKit          3D

 29 30  0  0  1  0  0  0  0  0999 V2000
    0.2493   -5.4634    0.3289 C   0  0  0  0  0  0  0  0  0  0  0  0
   -0.4824   -5.3360    1.5313 O   0  0  0  0  0  0  0  0  0  0  0  0
   -1.6267   -4.5860    1.5372 C   0  0  0  0  0  0  0  0  0  0  0  0
   -2.3289   -4.0764    0.4397 C   0  0  0  0  0  0  0  0  0  0  0  0
   -3.4609   -3.2252    0.6157 C   0  0  0  0  0  0  0  0  0  0  0  0
   -3.9615   -2.9265    1.9075 C   0  0  0  0  0  0  0  0  0  0  0  0
   -3.2940   -3.5708    2.9847 C   0  0  0  0  0  0  0  0  0  0  0  0
   -2.0576   -4.2467    2.8242 C   0  0  0  0  0  0  0  0  0  0  0  0
   -1.0396   -4.3296    3.8085 N   0  0  0  0  0  0  0  0  0  0  0  0
   -0.6786   -3.5356    4.8634 C   0  0  0  0  0  0  0  0  0  0  0  0
    0.1821   -3.8587    5.6006 O   0  0  0  0  0  0  0  0  0  0  0  0
   -1.3332   -2.1668    4.9384 C   0  0  2  0  0  0  0  0  0  0  0  0
   -1.6704   -1.0947    3.3297 C   0  0  0  0  0  0  0  0  0  0  0  0
   -1.3870   -1.6696    2.1104 O   0  0  0  0  0  0  0  0  0  0  0  0
   -0.3976   -1.5843    6.1225 N   0  0  0  0  0  0  0  0  0  0  0  0
   -5.0153   -1.8272    2.1424 C   0  0  0  0  0  0  0  0  0  0  0  0
   -5.5038   -1.2154    3.2867 C   0  0  0  0  0  0  0  0  0  0  0  0
   -4.9432   -1.1715    4.7204 C   0  0  0  0  0  0  0  0  0  0  0  0
   -3.6370   -0.7015    4.7131 C   0  0  0  0  0  0  0  0  0  0  0  0
   -2.5029   -0.3125    5.6790 C   0  0  0  0  0  0  0  0  0  0  0  0
   -2.8173   -0.8477    6.9684 C   0  0  0  0  0  0  0  0  0  0  0  0
   -4.2979   -1.1327    7.1012 C   0  0  0  0  0  0  0  0  0  0  0  0
   -5.3262   -1.2752    6.0156 C   0  0  0  0  0  0  0  0  0  0  0  0
   -4.9183   -1.2009    8.3468 O   0  0  0  0  0  0  0  0  0  0  0  0
   -4.0406   -0.9406    9.4321 C   0  0  0  0  0  0  0  0  0  0  0  0
   -2.0957   -1.4531    8.0280 O   0  0  0  0  0  0  0  0  0  0  0  0
   -0.7643   -1.9553    8.4235 C   0  0  0  0  0  0  0  0  0  0  0  0
   -0.9738    0.1691    5.0693 O   0  0  0  0  0  0  0  0  0  0  0  0
    0.3957   -0.6780    4.1463 C   0  0  0  0  0  0  0  0  0  0  0  0
  1  2  1  0
  2  3  1  0
  3  4  2  0
  3  8  1  0
  4  5  1  0
  5  6  2  0
  6  7  1  0
  6 16  1  0
  7  8  2  0
  8  9  1  0
  9 10  1  0
 10 11  2  0
 12 15  1  1
 12 13  1  0
 12 10  1  0
 13 14  1  0
 16 17  2  0
 17 18  1  0
 18 19  2  0
 18 23  1  0
 19 20  1  0
 20 21  2  0
 20 28  1  0
 21 22  1  0
 21 26  1  0
 22 23  2  0
 22 24  1  0
 24 25  1  0
 26 27  1  0
 28 29  1  0
M  END
>  <DRUGBANK_ID>  (1) 
DB12882

>  <COMMON_NAME>  (1) 
Ombrabulin

>  <CAS_NUMBER>  (1) 
181816-48-8

>  <UNII>  (1) 
82JB1524Q6

>  <SYNONYMS>  (1) 
Ombrabulin

$$$$
