1603
     RDKit          3D

 26 28  0  0  1  0  0  0  0  0999 V2000
    1.1934   -1.0805   -0.4747 S   0  0  0  0  0  0  0  0  0  0  0  0
   -2.5203    0.9726   -0.4639 O   0  0  0  0  0  0  0  0  0  0  0  0
   -0.4641    3.6229    0.9198 O   0  0  0  0  0  0  0  0  0  0  0  0
    1.1432    2.6827    2.1360 O   0  0  0  0  0  0  0  0  0  0  0  0
   -2.5910   -3.7116   -2.4356 O   0  0  0  0  0  0  0  0  0  0  0  0
   -4.2176   -2.5720    0.7287 O   0  0  0  0  0  0  0  0  0  0  0  0
   -0.7381   -5.9195   -0.6580 O   0  0  0  0  0  0  0  0  0  0  0  0
   -0.6058    0.4168    0.7499 N   0  0  0  0  0  0  0  0  0  0  0  0
   -1.5555   -2.1252   -1.1865 N   0  0  0  0  0  0  0  0  0  0  0  0
   -0.1762   -1.0058    0.6878 C   0  0  1  0  0  0  0  0  0  0  0  0
    1.6513    0.6271    0.0273 C   0  0  0  0  0  0  0  0  0  0  0  0
    0.3202    1.4036    0.2134 C   0  0  2  0  0  0  0  0  0  0  0  0
   -1.5030   -1.3546    0.1104 C   0  0  1  0  0  0  0  0  0  0  0  0
   -1.7505    0.1787    0.0664 C   0  0  0  0  0  0  0  0  0  0  0  0
    2.4959    1.1490   -1.1133 C   0  0  0  0  0  0  0  0  0  0  0  0
    2.4372    0.4127    1.3235 C   0  0  0  0  0  0  0  0  0  0  0  0
    0.4047    2.6146    1.1635 C   0  0  0  0  0  0  0  0  0  0  0  0
   -2.1987   -3.3388   -1.3356 C   0  0  0  0  0  0  0  0  0  0  0  0
   -2.4598   -4.1512   -0.1411 C   0  0  0  0  0  0  0  0  0  0  0  0
   -3.4380   -3.7096    0.7779 C   0  0  0  0  0  0  0  0  0  0  0  0
   -1.7635   -5.3646    0.0726 C   0  0  0  0  0  0  0  0  0  0  0  0
   -3.6246   -4.4432    1.9608 C   0  0  0  0  0  0  0  0  0  0  0  0
   -2.1028   -6.1463    1.1914 C   0  0  0  0  0  0  0  0  0  0  0  0
   -2.9819   -5.6647    2.1599 C   0  0  0  0  0  0  0  0  0  0  0  0
   -4.3591   -1.7821   -0.4515 C   0  0  0  0  0  0  0  0  0  0  0  0
   -0.1572   -5.1684   -1.7185 C   0  0  0  0  0  0  0  0  0  0  0  0
 10  1  1  6
  1 11  1  0
  2 14  2  0
  3 17  1  0
  4 17  2  0
  5 18  2  0
  6 20  1  0
  6 25  1  0
  7 21  1  0
  7 26  1  0
  8 10  1  0
  8 12  1  0
  8 14  1  0
  9 18  1  0
 10 13  1  0
 11 12  1  0
 11 15  1  0
 11 16  1  0
 12 17  1  1
 13 14  1  0
 13  9  1  6
 18 19  1  0
 19 20  2  0
 19 21  1  0
 20 22  1  0
 21 23  2  0
 22 24  2  0
 23 24  1  0
M  END
>  <DRUGBANK_ID>  (1) 
DB01603

>  <COMMON_NAME>  (1) 
Meticillin

>  <CAS_NUMBER>  (1) 
61-32-5

>  <UNII>  (1) 
Q91FH1328A

>  <SYNONYMS>  (1) 
(2,6-Dimethoxyphenyl)penicillin; (2S,5R,6R)-6-[(2,6-dimethoxybenzoyl)amino]-3,3-dimethyl-7-oxo-4-thia-1-azabicyclo[3.2.0]heptane-2-carboxylic acid; 6-(2,6-Dimethoxybenzamido)penicillanic acid; 6Î²-(2,6-dimethoxybenzamido)penicillanic acid; Methicillin; Methicillinum; Methycillin; Meticilina; Meticillin; Meticillina; Meticilline; Meticillinum

$$$$
