
     RDKit          3D

 17 18  0  0  0  0  0  0  0  0999 V2000
   -2.0814   -0.0684   -0.0536 C   0  0  0  0  0  0  0  0  0  0  0  0
   -0.6385   -0.1213    0.0343 N   0  0  0  0  0  0  0  0  0  0  0  0
    0.0364    1.0502    0.0765 N   0  0  0  0  0  0  0  0  0  0  0  0
    1.3284    0.7022    0.0042 C   0  0  0  0  0  0  0  0  0  0  0  0
    1.4613   -0.7008   -0.0236 C   0  0  0  0  0  0  0  0  0  0  0  0
    0.1917   -1.2236    0.0352 C   0  0  0  0  0  0  0  0  0  0  0  0
   -0.1480   -2.5696    0.0646 N   0  0  0  0  0  0  0  0  0  0  0  0
    0.8948   -3.8195   -0.0336 S   0  0  0  0  0  0  0  0  0  0  0  0
    0.5423   -4.6142    1.3208 O   0  0  0  0  0  0  0  0  0  0  0  0
    0.4943   -4.6740   -1.1317 O   0  0  0  0  0  0  0  0  0  0  0  0
    2.2745   -3.4379    0.1260 O   0  0  0  0  0  0  0  0  0  0  0  0
    2.4296    1.6547   -0.0754 C   0  0  0  0  0  0  0  0  0  0  0  0
    3.3177    1.6006   -1.1618 C   0  0  0  0  0  0  0  0  0  0  0  0
    4.3560    2.5279   -1.2768 C   0  0  0  0  0  0  0  0  0  0  0  0
    4.5140    3.5159   -0.3083 C   0  0  0  0  0  0  0  0  0  0  0  0
    3.6442    3.5671    0.7811 C   0  0  0  0  0  0  0  0  0  0  0  0
    2.6304    2.6137    0.9212 C   0  0  0  0  0  0  0  0  0  0  0  0
  1  2  1  0
  2  3  1  0
  2  6  1  0
  3  4  2  0
  4  5  1  0
  4 12  1  0
  5  6  2  0
  6  7  1  0
  7  8  1  0
  8  9  1  0
  8 10  2  0
  8 11  2  0
 12 13  2  0
 12 17  1  0
 13 14  1  0
 14 15  2  0
 15 16  1  0
 16 17  2  0
M  END
>  <DRUGBANK_ID>  (1) 
DB04800

>  <COMMON_NAME>  (1) 
1-METHYL-3-PHENYL-1H-PYRAZOL-5-YLSULFAMIC ACID

$$$$
