
     RDKit          3D

 35 39  0  0  1  0  0  0  0  0999 V2000
    1.0067    0.0481   -0.0147 C   0  0  0  0  0  0  0  0  0  0  0  0
    0.5111   -1.2807   -0.0745 O   0  0  0  0  0  0  0  0  0  0  0  0
    0.9349   -2.0424   -1.0861 C   0  0  0  0  0  0  0  0  0  0  0  0
    0.1711   -2.9580   -1.6496 N   0  0  0  0  0  0  0  0  0  0  0  0
    0.9284   -3.6370   -2.5801 N   0  0  0  0  0  0  0  0  0  0  0  0
    2.1437   -3.1364   -2.5440 C   0  0  0  0  0  0  0  0  0  0  0  0
    3.3222   -3.4591   -3.2423 C   0  0  0  0  0  0  0  0  0  0  0  0
    4.4332   -2.7566   -2.9967 C   0  0  0  0  0  0  0  0  0  0  0  0
    4.4021   -1.6859   -1.9506 C   0  0  0  0  0  0  0  0  0  0  0  0
    3.3267   -1.3908   -1.2697 N   0  0  0  0  0  0  0  0  0  0  0  0
    2.2133   -2.1180   -1.6125 N   0  0  0  0  0  0  0  0  0  0  0  0
    5.5786   -1.0287   -1.6615 N   0  0  0  0  0  0  0  0  0  0  0  0
    6.1601   -1.0738   -0.3295 C   0  0  0  0  0  0  0  0  0  0  0  0
    6.2563    0.3306    0.2448 C   0  0  0  0  0  0  0  0  0  0  0  0
    6.9709    1.2877   -0.7323 C   0  0  0  0  0  0  0  0  0  0  0  0
    6.4269    1.1805   -2.1507 C   0  0  0  0  0  0  0  0  0  0  0  0
    6.3308   -0.2517   -2.6334 C   0  0  0  0  0  0  0  0  0  0  0  0
    6.9364    2.7280   -0.2688 C   0  0  0  0  0  0  0  0  0  0  0  0
    7.5808    2.9946    0.9052 C   0  0  0  0  0  0  0  0  0  0  0  0
    7.8460    4.3184    1.2297 C   0  0  0  0  0  0  0  0  0  0  0  0
    7.1895    5.3952    0.6961 C   0  0  0  0  0  0  0  0  0  0  0  0
    7.1237    6.6319    1.2710 O   0  0  0  0  0  0  0  0  0  0  0  0
    7.5014    6.7930    2.6640 C   0  0  0  0  0  0  0  0  0  0  0  0
    6.6771    5.9807    3.7238 C   0  0  0  0  0  0  0  0  0  0  0  0
    7.0313    4.5466    3.6917 N   0  0  0  0  0  0  0  0  0  0  0  0
    6.0683    3.5835    4.2220 C   0  0  0  0  0  0  0  0  0  0  0  0
    6.0948    3.5822    5.7508 C   0  0  0  0  0  0  0  0  0  0  0  0
    7.4426    3.6612    6.3303 N   0  0  0  0  0  0  0  0  0  0  0  0
    8.0035    2.6030    7.1263 C   0  0  0  0  0  0  0  0  0  0  0  0
    8.3550    4.5009    5.7243 C   0  0  0  0  0  0  0  0  0  0  0  0
    9.1075    5.2794    6.3262 O   0  0  0  0  0  0  0  0  0  0  0  0
    8.4001    4.3256    4.2310 C   0  0  1  0  0  0  0  0  0  0  0  0
    9.0569    2.9776    3.8560 C   0  0  0  0  0  0  0  0  0  0  0  0
    6.5825    5.1573   -0.5109 C   0  0  0  0  0  0  0  0  0  0  0  0
    6.4627    3.8373   -0.9926 C   0  0  0  0  0  0  0  0  0  0  0  0
  1  2  1  0
  2  3  1  0
  3  4  2  0
  3 11  1  0
  4  5  1  0
  5  6  2  0
  6  7  1  0
  6 11  1  0
  7  8  2  0
  8  9  1  0
  9 10  2  0
  9 12  1  0
 10 11  1  0
 12 13  1  0
 12 17  1  0
 13 14  1  0
 14 15  1  0
 15 16  1  0
 15 18  1  0
 16 17  1  0
 18 19  2  0
 18 35  1  0
 19 20  1  0
 20 21  2  0
 21 22  1  0
 21 34  1  0
 22 23  1  0
 23 24  1  0
 24 25  1  0
 25 26  1  0
 26 27  1  0
 27 28  1  0
 28 29  1  0
 28 30  1  0
 30 31  2  0
 32 30  1  0
 32 25  1  0
 32 33  1  1
 34 35  2  0
M  END
>  <DRUGBANK_ID>  (1) 
DB17018

>  <COMMON_NAME>  (1) 
AZD-5153

>  <CAS_NUMBER>  (1) 
1869912-39-9

>  <UNII>  (1) 
C7C7U6YEAO

>  <SYNONYMS>  (1) 
2-piperazinone, 4-(2-(4-(1-(3-methoxy-1,2,4-triazolo(4,3-b)pyridazin-6-yl)-4-piperidinyl)phenoxy)ethyl)-1,3-dimethyl-, (3r)-

$$$$
