
     RDKit          3D

 16 17  0  0  0  0  0  0  0  0999 V2000
    1.1771    0.0326   -0.0721 C   0  0  0  0  0  0  0  0  0  0  0  0
   -2.9528    3.3159    2.0368 C   0  0  0  0  0  0  0  0  0  0  0  0
   -3.8856    6.3790    2.9307 C   0  0  0  0  0  0  0  0  0  0  0  0
   -3.3722    5.5075    4.0768 C   0  0  0  0  0  0  0  0  0  0  0  0
    0.7217    1.4187    0.2760 C   0  0  0  0  0  0  0  0  0  0  0  0
   -0.3594    3.8875    1.1429 C   0  0  0  0  0  0  0  0  0  0  0  0
    0.8046    3.7086    0.3695 C   0  0  0  0  0  0  0  0  0  0  0  0
   -0.9591    2.6173    1.3008 C   0  0  0  0  0  0  0  0  0  0  0  0
   -1.7953    5.7062    2.4047 C   0  0  0  0  0  0  0  0  0  0  0  0
    1.7133    5.0674   -0.2112 Cl  0  0  0  0  0  0  0  0  0  0  0  0
   -2.8150    6.3324    1.8568 N   0  0  0  0  0  0  0  0  0  0  0  0
   -1.9411    5.4935    3.7601 N   0  0  0  0  0  0  0  0  0  0  0  0
    1.3551    2.5352   -0.0944 N   0  0  0  0  0  0  0  0  0  0  0  0
   -0.4021    1.4441    0.9352 N   0  0  0  0  0  0  0  0  0  0  0  0
   -0.6755    5.2163    1.7276 N   0  0  0  0  0  0  0  0  0  0  0  0
   -2.1942    2.2358    1.6773 O   0  0  0  0  0  0  0  0  0  0  0  0
  4  3  1  0
  5  1  1  0
  7  6  2  0
  8  6  1  0
 10  7  1  0
 11  3  1  0
 11  9  2  0
 12  4  1  0
 12  9  1  0
 13  5  2  0
 13  7  1  0
 14  5  1  0
 14  8  2  0
 15  6  1  0
 15  9  1  0
 16  2  1  0
 16  8  1  0
M  END
>  <DRUGBANK_ID>  (1) 
DB09242

>  <COMMON_NAME>  (1) 
Moxonidine

>  <CAS_NUMBER>  (1) 
75438-57-2

>  <UNII>  (1) 
CC6X0L40GW

>  <SYNONYMS>  (1) 
(2R,4R)-1-[(2S)-5-[(aminoiminomethyl)amino]-1-oxo-2-[[(1,2,3,4-tetrahydro-3-methyl-8- quinolinyl)sulfonyl]amino]pentyl]-4-methyl-2-piperidinecarboxylic acid; Moxonidina; Moxonidine; Moxonidinum

$$$$
