AE2
     RDKit          3D

 21 24  0  0  0  0  0  0  0  0999 V2000
    0.5270    0.6232   -0.8716 C   0  0  0  0  0  0  0  0  0  0  0  0
    1.9828    0.9393   -2.0712 C   0  0  0  0  0  0  0  0  0  0  0  0
    2.6057   -0.5728   -2.8705 C   0  0  1  0  0  0  0  0  0  0  0  0
    3.2387   -1.7998   -2.2995 O   0  0  0  0  0  0  0  0  0  0  0  0
    1.3210   -1.2172   -3.0333 C   0  0  0  0  0  0  0  0  0  0  0  0
    1.0666   -1.2240   -1.4925 C   0  0  2  0  0  0  0  0  0  0  0  0
    1.5129   -2.1222   -0.2904 C   0  0  0  0  0  0  0  0  0  0  0  0
    0.9893   -3.4716   -0.6166 C   0  0  0  0  0  0  0  0  0  0  0  0
   -0.5281   -3.3780   -0.5216 C   0  0  1  0  0  0  0  0  0  0  0  0
   -1.0275   -2.0315   -1.5365 C   0  0  2  0  0  0  0  0  0  0  0  0
   -0.3016   -0.5463   -1.4754 C   0  0  1  0  0  0  0  0  0  0  0  0
   -2.5483   -1.9038   -1.5186 C   0  0  0  0  0  0  0  0  0  0  0  0
   -3.0620   -3.2494   -2.0082 C   0  0  0  0  0  0  0  0  0  0  0  0
   -2.6827   -4.3324   -1.0284 C   0  0  2  0  0  0  0  0  0  0  0  0
   -1.3232   -4.9460   -0.7601 C   0  0  2  0  0  0  0  0  0  0  0  0
   -2.1844   -6.4172    0.0215 C   0  0  0  0  0  0  0  0  0  0  0  0
   -3.7440   -6.3267   -0.3047 C   0  0  0  0  0  0  0  0  0  0  0  0
   -3.2979   -5.6333   -1.5418 C   0  0  0  0  0  0  0  0  0  0  0  0
   -2.9838   -6.1907   -2.5504 O   0  0  0  0  0  0  0  0  0  0  0  0
   -3.0354   -3.8266    0.4892 C   0  0  0  0  0  0  0  0  0  0  0  0
   -0.9888    0.4416   -2.6163 C   0  0  0  0  0  0  0  0  0  0  0  0
  1  2  1  0
  1 11  1  0
  2  3  1  0
  3  5  1  0
  3  4  1  1
  6  5  1  6
  6  7  1  0
  6 11  1  0
  7  8  1  0
  9  8  1  6
  9 10  1  0
  9 15  1  0
 10 11  1  0
 10 12  1  1
 11 21  1  6
 12 13  1  0
 13 14  1  0
 14 15  1  0
 14 18  1  0
 14 20  1  1
 15 16  1  1
 16 17  1  0
 17 18  1  0
 18 19  2  0
M  END
>  <DRUGBANK_ID>  (1) 
DB02854

>  <SECONDARY_ACCESSION_NUMBERS>  (1) 
EXPT00443

>  <COMMON_NAME>  (1) 
Aetiocholanolone

>  <CAS_NUMBER>  (1) 
53-42-9

>  <UNII>  (1) 
97CGB1M48I

$$$$
