
     RDKit          3D

 10 10  0  0  0  0  0  0  0  0999 V2000
    0.7917   -0.0051    0.1231 O   0  0  0  0  0  0  0  0  0  0  0  0
    0.2524    1.0810   -0.4574 C   0  0  0  0  0  0  0  0  0  0  0  0
    0.9334    1.9506   -0.9702 O   0  0  0  0  0  0  0  0  0  0  0  0
   -1.2247    1.0345   -0.4504 C   0  0  0  0  0  0  0  0  0  0  0  0
   -1.9280    0.6258    0.6889 C   0  0  0  0  0  0  0  0  0  0  0  0
   -3.3272    0.6221    0.6795 C   0  0  0  0  0  0  0  0  0  0  0  0
   -4.0172    1.0171   -0.4672 C   0  0  0  0  0  0  0  0  0  0  0  0
   -5.7379    0.9850   -0.4830 Cl  0  0  0  0  0  0  0  0  0  0  0  0
   -3.3211    1.4378   -1.6001 C   0  0  0  0  0  0  0  0  0  0  0  0
   -1.9223    1.4534   -1.5906 C   0  0  0  0  0  0  0  0  0  0  0  0
  1  2  1  0
  2  3  2  0
  2  4  1  0
  4  5  2  0
  4 10  1  0
  5  6  1  0
  6  7  2  0
  7  8  1  0
  7  9  1  0
  9 10  2  0
M  END
>  <DRUGBANK_ID>  (1) 
DB03728

>  <SECONDARY_ACCESSION_NUMBERS>  (1) 
EXPT00054

>  <COMMON_NAME>  (1) 
p-Chlorobenzoic acid

>  <CAS_NUMBER>  (1) 
74-11-3

>  <UNII>  (1) 
IC7888DF4L

>  <SYNONYMS>  (1) 
4-chlorobenzoic acid; Chlorodracylic acid

$$$$
