B35
     RDKit          3D

 28 30  0  0  0  0  0  0  0  0999 V2000
    0.5595    1.3252   -0.0250 C   0  0  0  0  0  0  0  0  0  0  0  0
   -0.7828    1.4060   -0.0350 C   0  0  0  0  0  0  0  0  0  0  0  0
   -1.4252    0.1886   -0.0351 C   0  0  0  0  0  0  0  0  0  0  0  0
   -0.8627   -1.1860   -0.0094 C   0  0  0  0  0  0  0  0  0  0  0  0
   -0.2044   -3.8683   -1.6060 N   0  0  0  0  0  0  0  0  0  0  0  0
    0.5077   -1.1801    0.0156 C   0  0  0  0  0  0  0  0  0  0  0  0
    2.5086    2.5051   -0.0427 C   0  0  0  0  0  0  0  0  0  0  0  0
   -1.5841   -2.6640    0.0748 C   0  0  1  0  0  0  0  0  0  0  0  0
   -1.4056   -3.3560   -1.2348 C   0  0  0  0  0  0  0  0  0  0  0  0
    1.1881    0.0473   -0.0067 C   0  0  0  0  0  0  0  0  0  0  0  0
    1.1091    2.5695   -0.0354 O   0  0  0  0  0  0  0  0  0  0  0  0
    2.5216   -0.0478   -0.0215 F   0  0  0  0  0  0  0  0  0  0  0  0
   -1.4704   -3.4620    1.3527 C   0  0  0  0  0  0  0  0  0  0  0  0
   -2.1332   -2.6566    2.4593 C   0  0  0  0  0  0  0  0  0  0  0  0
   -2.1079   -3.2652    3.7304 C   0  0  0  0  0  0  0  0  0  0  0  0
   -2.1852   -2.4903    4.8899 C   0  0  0  0  0  0  0  0  0  0  0  0
   -2.1787   -1.1058    4.7767 C   0  0  0  0  0  0  0  0  0  0  0  0
   -2.3154   -0.5250    3.4929 C   0  0  0  0  0  0  0  0  0  0  0  0
   -2.5632   -1.3255    2.3422 C   0  0  0  0  0  0  0  0  0  0  0  0
   -3.3267   -0.7426    1.3152 O   0  0  0  0  0  0  0  0  0  0  0  0
   -3.7426   -1.0633   -0.1176 C   0  0  0  0  0  0  0  0  0  0  0  0
   -0.3694   -4.2654   -2.8364 C   0  0  0  0  0  0  0  0  0  0  0  0
   -1.6566   -4.1180   -3.2656 N   0  0  0  0  0  0  0  0  0  0  0  0
   -2.3559   -3.5668   -2.2302 C   0  0  0  0  0  0  0  0  0  0  0  0
    0.5941   -4.7403   -3.6118 N   0  0  0  0  0  0  0  0  0  0  0  0
   -2.1888   -3.1837    6.1843 N   0  0  0  0  0  0  0  0  0  0  0  0
   -2.2094   -2.4626    7.2196 O   0  0  0  0  0  0  0  0  0  0  0  0
   -2.1826   -4.4046    6.1945 O   0  0  0  0  0  0  0  0  0  0  0  0
  1  2  2  0
  1 10  1  0
  1 11  1  0
  2  3  1  0
  3  4  2  0
  4  6  1  0
  4  8  1  0
  5  9  1  0
  5 22  2  0
  6 10  2  0
  7 11  1  0
  8  9  1  0
  8 13  1  1
  9 24  2  0
 10 12  1  0
 13 14  1  0
 14 15  2  0
 14 19  1  0
 15 16  1  0
 16 17  2  0
 16 26  1  0
 17 18  1  0
 18 19  2  0
 19 20  1  0
 20 21  1  0
 22 23  1  0
 22 25  1  0
 23 24  1  0
 26 27  1  0
 26 28  2  0
M  CHG  2  26   1  27  -1
M  END
>  <DRUGBANK_ID>  (1) 
DB07415

>  <COMMON_NAME>  (1) 
4-[(1S)-1-(3-fluoro-4-methoxyphenyl)-2-(2-methoxy-5-nitrophenyl)ethyl]-1H-imidazol-2-amine

$$$$
