ISA
     RDKit          3D

 13 13  0  0  0  0  0  0  0  0999 V2000
    5.9861   -7.2617   -2.5115 I   0  0  0  0  0  0  0  0  0  0  0  0
    5.7910   -5.5730   -1.3176 C   0  0  0  0  0  0  0  0  0  0  0  0
    5.5231   -5.7046    0.0411 C   0  0  0  0  0  0  0  0  0  0  0  0
    5.3526   -4.5599    0.8300 C   0  0  0  0  0  0  0  0  0  0  0  0
    5.9138   -4.3078   -1.8817 C   0  0  0  0  0  0  0  0  0  0  0  0
    5.7486   -3.1671   -1.0876 C   0  0  0  0  0  0  0  0  0  0  0  0
    5.4514   -3.2681    0.2768 C   0  0  0  0  0  0  0  0  0  0  0  0
    5.0675   -2.0732    1.1320 C   0  0  0  0  0  0  0  0  0  0  0  0
    5.7493   -0.6956    1.0273 C   0  0  2  0  0  0  0  0  0  0  0  0
    5.1263    0.3416   -0.3540 S   0  0  0  0  0  0  0  0  0  0  0  0
    7.2643   -0.6844    1.0573 C   0  0  0  0  0  0  0  0  0  0  0  0
    7.9504   -0.1867    1.9416 O   0  0  0  0  0  0  0  0  0  0  0  0
    7.8569   -1.2353   -0.0176 O   0  0  0  0  0  0  0  0  0  0  0  0
  1  2  1  0
  2  3  2  0
  2  5  1  0
  3  4  1  0
  4  7  2  0
  5  6  2  0
  6  7  1  0
  7  8  1  0
  9 11  1  0
  9 10  1  6
  9  8  1  0
 11 12  2  0
 11 13  1  0
M  END
>  <DRUGBANK_ID>  (1) 
DB02570

>  <SECONDARY_ACCESSION_NUMBERS>  (1) 
EXPT01931

>  <COMMON_NAME>  (1) 
PD150606

$$$$
