
     RDKit          3D

  3  0  0  0  0  0  0  0  0  0999 V2000
    0.9495    0.0486    0.0522 Ca  0  0  0  0  0 15  0  0  0  0  0  0
   -0.6934   -0.5564   -1.7702 Cl  0  0  0  0  0  0  0  0  0  0  0  0
    2.7349    0.6406    1.7473 Cl  0  0  0  0  0  0  0  0  0  0  0  0
M  CHG  3   1   2   2  -1   3  -1
M  END
>  <DRUGBANK_ID>  (1) 
DB01164

>  <SECONDARY_ACCESSION_NUMBERS>  (1) 
APRD00840

>  <COMMON_NAME>  (1) 
Calcium chloride

>  <CAS_NUMBER>  (1) 
10043-52-4

>  <UNII>  (1) 
OFM21057LP

>  <SYNONYMS>  (1) 
Calcio cloruro; Calcium chloride anhydrous; Calcium chloride, anhydrous; calcium(2+) chloride

$$$$
