
     RDKit          3D

  6  5  0  0  0  0  0  0  0  0999 V2000
    1.0471   -0.0369   -0.0694 C   0  0  0  0  0  0  0  0  0  0  0  0
    0.5767   -1.3102    0.5419 C   0  0  0  0  0  0  0  0  0  0  0  0
   -0.1616   -1.2474    1.5897 N   0  0  0  0  0  0  0  0  0  0  0  0
    0.9207   -2.6542   -0.0025 C   0  0  0  0  0  0  0  0  0  0  0  0
    1.6444   -2.6643   -1.0273 O   0  0  0  0  0  0  0  0  0  0  0  0
    0.4096   -3.5852    0.6811 O   0  0  0  0  0  0  0  0  0  0  0  0
  1  2  1  0
  2  3  2  0
  2  4  1  0
  4  5  1  0
  4  6  2  0
M  CHG  2   3   1   5  -1
M  END
>  <DRUGBANK_ID>  (1) 
DB04212

>  <SECONDARY_ACCESSION_NUMBERS>  (1) 
EXPT02290

>  <COMMON_NAME>  (1) 
2-Iminiopropanoate

$$$$
