
     RDKit          3D

 33 36  0  0  1  0  0  0  0  0999 V2000
    2.1784    0.4632    2.4305 C   0  0  1  0  0  0  0  0  0  0  0  0
    1.3982    1.5704    1.8444 O   0  0  0  0  0  0  0  0  0  0  0  0
    0.0603    1.5325    2.3680 C   0  0  1  0  0  0  0  0  0  0  0  0
   -1.0452    1.7426    1.4568 O   0  0  0  0  0  0  0  0  0  0  0  0
   -1.1679    0.9964    0.2906 C   0  0  0  0  0  0  0  0  0  0  0  0
   -1.6642   -0.2680    0.2010 C   0  0  0  0  0  0  0  0  0  0  0  0
   -1.7551   -0.9776   -0.9849 O   0  0  0  0  0  0  0  0  0  0  0  0
   -1.6039   -0.3107   -2.1737 C   0  0  0  0  0  0  0  0  0  0  0  0
   -1.2519    1.0334   -2.2683 C   0  0  0  0  0  0  0  0  0  0  0  0
   -0.9857    1.7705   -1.0005 C   0  0  0  0  0  0  0  0  0  0  0  0
   -0.6985    2.9470   -0.9862 O   0  0  0  0  0  0  0  0  0  0  0  0
   -1.1888    1.6301   -3.5438 C   0  0  0  0  0  0  0  0  0  0  0  0
   -0.8590    2.9488   -3.6905 O   0  0  0  0  0  0  0  0  0  0  0  0
   -1.4739    0.8872   -4.6976 C   0  0  0  0  0  0  0  0  0  0  0  0
   -1.8073   -0.4564   -4.5729 C   0  0  0  0  0  0  0  0  0  0  0  0
   -2.0991   -1.2228   -5.6620 O   0  0  0  0  0  0  0  0  0  0  0  0
   -1.8647   -1.0615   -3.3237 C   0  0  0  0  0  0  0  0  0  0  0  0
   -2.1273   -1.0926    1.3718 C   0  0  0  0  0  0  0  0  0  0  0  0
   -1.4446   -2.2867    1.7287 C   0  0  0  0  0  0  0  0  0  0  0  0
   -1.4914   -2.7839    3.0530 C   0  0  0  0  0  0  0  0  0  0  0  0
   -2.3299   -2.1738    3.9826 C   0  0  0  0  0  0  0  0  0  0  0  0
   -2.2416   -2.4467    5.3268 O   0  0  0  0  0  0  0  0  0  0  0  0
   -3.1259   -1.0887    3.5881 C   0  0  0  0  0  0  0  0  0  0  0  0
   -3.7753   -0.3380    4.5401 O   0  0  0  0  0  0  0  0  0  0  0  0
   -3.0234   -0.5427    2.3017 C   0  0  0  0  0  0  0  0  0  0  0  0
   -0.0043    0.2084    3.0782 C   0  0  2  0  0  0  0  0  0  0  0  0
   -0.8743    0.0778    4.1677 O   0  0  0  0  0  0  0  0  0  0  0  0
    1.3564   -0.1066    3.5808 C   0  0  1  0  0  0  0  0  0  0  0  0
    1.5093   -1.4843    3.9200 O   0  0  0  0  0  0  0  0  0  0  0  0
    2.6879   -0.4987    1.3101 C   0  0  2  0  0  0  0  0  0  0  0  0
    2.1809   -0.0965    0.0250 O   0  0  0  0  0  0  0  0  0  0  0  0
    2.3363   -1.9800    1.4471 C   0  0  0  0  0  0  0  0  0  0  0  0
    2.8080   -2.7570    0.3500 O   0  0  0  0  0  0  0  0  0  0  0  0
  1  2  1  6
  1 28  1  0
  3  2  1  0
  3  4  1  6
  4  5  1  0
  5  6  2  0
  5 10  1  0
  6  7  1  0
  6 18  1  0
  7  8  1  0
  8  9  2  0
  8 17  1  0
  9 10  1  0
  9 12  1  0
 10 11  2  0
 12 13  1  0
 12 14  2  0
 14 15  1  0
 15 16  1  0
 15 17  2  0
 18 19  2  0
 18 25  1  0
 19 20  1  0
 20 21  2  0
 21 22  1  0
 21 23  1  0
 23 24  1  0
 23 25  2  0
 26  3  1  0
 26 27  1  1
 28 26  1  0
 28 29  1  6
 30 32  1  0
 30 31  1  6
 30  1  1  0
 32 33  1  0
M  END
>  <DRUGBANK_ID>  (1) 
DB16403

>  <COMMON_NAME>  (1) 
Isoquercitrin

>  <CAS_NUMBER>  (1) 
21637-25-2

>  <UNII>  (1) 
0YX10VRV6J

>  <SYNONYMS>  (1) 
Isoquercetin enzymatically modified; Isoquercitroside; Isotrifoliin; Isotrifolin; Quercetin 3-(beta-D-glucofuranoside)

$$$$
