
     RDKit          3D

 10 10  0  0  0  0  0  0  0  0999 V2000
    1.2400    0.0705   -0.4051 C   0  0  0  0  0  0  0  0  0  0  0  0
    0.5581   -1.3141   -0.4891 C   0  0  0  0  0  0  0  0  0  0  0  0
    0.9710   -2.4130    0.5171 C   0  0  0  0  0  0  0  0  0  0  0  0
    0.4647   -2.3319    1.9441 C   0  0  0  0  0  0  0  0  0  0  0  0
    0.3395   -3.4445    2.7744 C   0  0  0  0  0  0  0  0  0  0  0  0
    0.0351   -3.2616    4.1361 C   0  0  0  0  0  0  0  0  0  0  0  0
    0.0226   -1.9961    4.7220 C   0  0  0  0  0  0  0  0  0  0  0  0
    0.1740   -0.8912    3.9118 C   0  0  0  0  0  0  0  0  0  0  0  0
    0.1601   -1.1300    2.5535 C   0  0  0  0  0  0  0  0  0  0  0  0
    0.9868    0.9375    0.7306 N   0  0  0  0  0  0  0  0  0  0  0  0
  1  2  1  0
  1 10  1  0
  2  3  1  0
  4  3  1  0
  4  5  2  0
  4  9  1  0
  5  6  1  0
  6  7  2  0
  7  8  1  0
  8  9  2  0
M  END
>  <DRUGBANK_ID>  (1) 
DB04410

>  <SECONDARY_ACCESSION_NUMBERS>  (1) 
EXPT02655

>  <COMMON_NAME>  (1) 
3-Phenylpropylamine

>  <CAS_NUMBER>  (1) 
2038-57-5

>  <UNII>  (1) 
P8326EZ31P

>  <SYNONYMS>  (1) 
3-phenyl-1-aminopropane; 3-phenyl-1-propylamine; 3-phenyl-N-propylamine; 3-phenylpropanamine; benzenepropanamine; gamma-phenyl-n-propylamine; gamma-phenylpropylamine; hydrocinnamylamine

$$$$
