
     RDKit          3D

 41 43  0  0  1  0  0  0  0  0999 V2000
    1.0429    0.0501   -0.0092 C   0  0  0  0  0  0  0  0  0  0  0  0
    0.4059    0.4653    1.2896 C   0  0  0  0  0  0  0  0  0  0  0  0
    1.0374    1.6571    1.9129 C   0  0  0  0  0  0  0  0  0  0  0  0
   -1.0586    0.2543    1.4103 C   0  0  0  0  0  0  0  0  0  0  0  0
   -1.4533   -1.1610    0.9601 C   0  0  0  0  0  0  0  0  0  0  0  0
   -0.7481   -2.3840    1.5609 N   0  0  0  0  0  0  0  0  0  0  0  0
   -1.2191   -3.8898    0.4772 C   0  0  0  0  0  0  0  0  0  0  0  0
   -0.2576   -4.1341   -1.4012 C   0  0  1  0  0  0  0  0  0  0  0  0
    0.8070   -4.1110   -0.4515 O   0  0  0  0  0  0  0  0  0  0  0  0
    0.2225   -5.0714   -3.2800 C   0  0  1  0  0  0  0  0  0  0  0  0
    1.1929   -6.1090   -5.1690 C   0  0  0  0  0  0  0  0  0  0  0  0
    2.1848   -7.5176   -6.3306 C   0  0  0  0  0  0  0  0  0  0  0  0
    2.4236   -9.0938   -7.1891 C   0  0  0  0  0  0  0  0  0  0  0  0
    3.4716  -10.2106   -6.8362 C   0  0  0  0  0  0  0  0  0  0  0  0
    4.2898   -9.8104   -5.8634 C   0  0  0  0  0  0  0  0  0  0  0  0
    4.6596  -10.6629   -4.8426 O   0  0  0  0  0  0  0  0  0  0  0  0
    4.1268  -10.4447   -3.4792 C   0  0  0  0  0  0  0  0  0  0  0  0
    4.6001   -9.1330   -2.8291 C   0  0  0  0  0  0  0  0  0  0  0  0
    3.9491   -7.9387   -3.4008 C   0  0  0  0  0  0  0  0  0  0  0  0
    2.5270   -8.0879   -3.6312 C   0  0  0  0  0  0  0  0  0  0  0  0
    2.0336   -9.0520   -4.2030 O   0  0  0  0  0  0  0  0  0  0  0  0
    1.8032   -7.0362   -3.2847 N   0  0  0  0  0  0  0  0  0  0  0  0
    0.3299   -7.2975   -3.4678 C   0  0  1  0  0  0  0  0  0  0  0  0
   -0.2697   -8.4856   -4.0129 C   0  0  0  0  0  0  0  0  0  0  0  0
   -1.7640   -8.3004   -3.9746 C   0  0  0  0  0  0  0  0  0  0  0  0
   -2.3816   -8.4009   -5.1746 N   0  0  0  0  0  0  0  0  0  0  0  0
   -2.4009   -8.0501   -2.9561 O   0  0  0  0  0  0  0  0  0  0  0  0
   -0.3143   -7.0681   -2.1692 C   0  0  0  0  0  0  0  0  0  0  0  0
    0.1230   -7.4035   -1.0799 O   0  0  0  0  0  0  0  0  0  0  0  0
   -1.0308   -5.8020   -2.8716 N   0  0  0  0  0  0  0  0  0  0  0  0
    4.6152   -8.4370   -6.0609 C   0  0  0  0  0  0  0  0  0  0  0  0
    3.5367   -7.3357   -6.3049 C   0  0  0  0  0  0  0  0  0  0  0  0
    1.0524   -2.2922    2.0141 S   0  0  0  0  0  0  0  0  0  0  0  0
    1.6661   -2.4362    0.7234 O   0  0  0  0  0  0  0  0  0  0  0  0
    1.6118   -1.2363    2.8418 O   0  0  0  0  0  0  0  0  0  0  0  0
    1.3986   -3.5755    3.0716 C   0  0  0  0  0  0  0  0  0  0  0  0
    2.2323   -3.2954    4.1595 C   0  0  0  0  0  0  0  0  0  0  0  0
    2.7546   -4.3425    4.8657 C   0  0  0  0  0  0  0  0  0  0  0  0
    2.2196   -5.5983    4.6671 C   0  0  0  0  0  0  0  0  0  0  0  0
    1.1858   -5.7921    3.7670 C   0  0  0  0  0  0  0  0  0  0  0  0
    0.8975   -4.8143    2.8608 C   0  0  0  0  0  0  0  0  0  0  0  0
  1  2  1  0
  2  3  1  0
  2  4  1  0
  4  5  1  0
  5  6  1  0
  6  7  1  0
  6 33  1  0
  7  8  1  0
  8  9  1  1
 10  8  1  0
 10 11  1  1
 10 30  1  0
 11 12  1  0
 12 13  2  0
 12 32  1  0
 13 14  1  0
 14 15  2  0
 15 16  1  0
 15 31  1  0
 16 17  1  0
 17 18  1  0
 18 19  1  0
 19 20  1  0
 20 21  2  0
 20 22  1  0
 22 23  1  0
 23 24  1  1
 23 28  1  0
 24 25  1  0
 25 26  1  0
 25 27  2  0
 28 29  2  0
 28 30  1  0
 31 32  2  0
 33 34  2  0
 33 35  2  0
 33 36  1  0
 36 37  2  0
 36 41  1  0
 37 38  1  0
 38 39  2  0
 39 40  1  0
 40 41  2  0
M  END
>  <DRUGBANK_ID>  (1) 
DB02411

>  <SECONDARY_ACCESSION_NUMBERS>  (1) 
EXPT01696

>  <COMMON_NAME>  (1) 
2-(11-{2-[Benzenesulfonyl-(3-Methyl-Butyl)-Amino]-1-Hydroxy-Ethyl}-6,9-Dioxo-2-Oxa-7,10-Diaza-Bicyclo[11.2.2]Heptadeca-1(16),13(17),14-Trien-8-Yl)-Acetamide, Inhibitor 2

$$$$
