
     RDKit          3D

 34 38  0  0  1  0  0  0  0  0999 V2000
   -5.8024    1.6227    5.6585 C   0  0  0  0  0  0  0  0  0  0  0  0
   -5.9656    0.3028    5.1629 C   0  0  0  0  0  0  0  0  0  0  0  0
   -4.7498    2.3856    5.2457 C   0  0  0  0  0  0  0  0  0  0  0  0
   -2.6953    5.6092   -0.7405 C   0  0  0  0  0  0  0  0  0  0  0  0
   -5.1628   -0.2991    4.1783 C   0  0  0  0  0  0  0  0  0  0  0  0
   -3.8472    1.7347    4.4065 C   0  0  0  0  0  0  0  0  0  0  0  0
   -3.0197    4.2360   -0.8468 C   0  0  0  0  0  0  0  0  0  0  0  0
   -3.3899    6.2029    2.3703 C   0  0  0  0  0  0  0  0  0  0  0  0
   -2.6164    5.0662    2.3791 C   0  0  0  0  0  0  0  0  0  0  0  0
   -3.8034    6.4082   -0.7802 C   0  0  0  0  0  0  0  0  0  0  0  0
   -5.4149    4.8685    2.3318 C   0  0  0  0  0  0  0  0  0  0  0  0
   -3.4463   -0.2400    2.2559 C   0  0  0  0  0  0  0  0  0  0  0  0
   -5.5570    7.3044    2.0841 C   0  0  0  0  0  0  0  0  0  0  0  0
   -0.0134    4.5743    0.3041 C   0  0  0  0  0  0  0  0  0  0  0  0
   -5.5030    2.4353    1.7460 C   0  0  0  0  0  0  0  0  0  0  0  0
   -0.8002    2.7147    1.7770 C   0  0  0  0  0  0  0  0  0  0  0  0
   -2.7907    1.6751    1.9412 C   0  0  0  0  0  0  0  0  0  0  0  0
    0.1832    3.5491   -1.5455 C   0  0  0  0  0  0  0  0  0  0  0  0
   -4.0602    0.3744    3.7519 C   0  0  0  0  0  0  0  0  0  0  0  0
   -4.7806    6.1091    2.3290 C   0  0  0  0  0  0  0  0  0  0  0  0
   -4.6560    3.7334    2.0390 C   0  0  0  0  0  0  0  0  0  0  0  0
   -0.1545    3.2502    0.5968 C   0  0  0  0  0  0  0  0  0  0  0  0
   -3.5347    0.8100    1.0335 C   0  0  2  0  0  0  0  0  0  0  0  0
   -3.1757    3.8638    2.0282 C   0  0  0  0  0  0  0  0  0  0  0  0
   -4.3627    3.9787   -0.9107 C   0  0  0  0  0  0  0  0  0  0  0  0
   -6.1449    8.2397    1.8153 N   0  0  0  0  0  0  0  0  0  0  0  0
    0.1825    4.7547   -1.0273 N   0  0  0  0  0  0  0  0  0  0  0  0
    0.0591    2.5830   -0.5844 N   0  0  0  0  0  0  0  0  0  0  0  0
   -2.2637    2.8737    1.5804 N   0  0  0  0  0  0  0  0  0  0  0  0
   -4.9403    1.5223    0.6779 N   0  0  0  0  0  0  0  0  0  0  0  0
   -4.5355    1.6074   -1.8886 O   0  0  0  0  0  0  0  0  0  0  0  0
   -6.5992    2.6959   -0.9178 O   0  0  0  0  0  0  0  0  0  0  0  0
   -5.2192    5.4654   -1.0532 S   0  0  0  0  0  0  0  0  0  0  0  0
   -5.1852    2.3769   -0.8497 S   0  0  0  0  0  0  0  0  0  0  0  0
  2  1  2  0
  3  1  1  0
  5  2  1  0
  6  3  2  0
  7  4  1  0
  9  8  2  0
 10  4  2  0
 19  5  2  0
 19  6  1  0
 19 12  1  0
 20  8  1  0
 20 11  2  0
 20 13  1  0
 21 11  1  0
 21 15  1  0
 22 14  2  0
 22 16  1  0
 23 17  1  0
 23 12  1  1
 24  9  1  0
 24 21  2  0
 25  7  2  0
 26 13  3  0
 27 14  1  0
 27 18  2  0
 28 18  1  0
 28 22  1  0
 29 16  1  0
 29 17  1  0
 29 24  1  0
 30 15  1  0
 30 23  1  0
 33 10  1  0
 33 25  1  0
 34 25  1  0
 34 30  1  0
 34 31  2  0
 34 32  2  0
M  END
>  <DRUGBANK_ID>  (1) 
DB12234

>  <SECONDARY_ACCESSION_NUMBERS>  (1) 
DB06509

>  <COMMON_NAME>  (1) 
BMS-214662

>  <CAS_NUMBER>  (1) 
195987-41-8

>  <UNII>  (1) 
L2U9GFD244

$$$$
