
     RDKit          3D

 34 40  0  0  0  0  0  0  0  0999 V2000
   -0.6473    1.0702   -1.9265 C   0  0  0  0  0  0  0  0  0  0  0  0
   -0.3389    1.7980   -0.7684 C   0  0  0  0  0  0  0  0  0  0  0  0
    0.4421    1.1711    0.1330 C   0  0  0  0  0  0  0  0  0  0  0  0
    0.2741   -0.1792    0.0780 C   0  0  0  0  0  0  0  0  0  0  0  0
    0.2826   -1.0025   -1.0706 C   0  0  0  0  0  0  0  0  0  0  0  0
   -0.2184   -0.2795   -2.1386 C   0  0  0  0  0  0  0  0  0  0  0  0
    0.8866   -2.2900   -1.3153 O   0  0  0  0  0  0  0  0  0  0  0  0
    2.1440   -3.1836   -0.6928 C   0  0  0  0  0  0  0  0  0  0  0  0
    3.7443   -2.4969   -0.0674 C   0  0  0  0  0  0  0  0  0  0  0  0
    3.8679   -1.0683    0.4023 N   0  0  0  0  0  0  0  0  0  0  0  0
    3.7029   -0.3470    1.7183 C   0  0  0  0  0  0  0  0  0  0  0  0
    2.8575   -0.9222    2.8737 C   0  0  0  0  0  0  0  0  0  0  0  0
    1.5304   -1.2006    2.5119 O   0  0  0  0  0  0  0  0  0  0  0  0
    1.6357   -1.8930    1.2787 C   0  0  0  0  0  0  0  0  0  0  0  0
    2.5455   -0.8856   -0.0054 C   0  0  0  0  0  0  0  0  0  0  0  0
   -1.1389    2.8694   -0.1212 C   0  0  1  0  0  0  0  0  0  0  0  0
   -2.4794    2.1460    0.1373 C   0  0  0  0  0  0  0  0  0  0  0  0
   -3.1248    3.0301    1.1488 C   0  0  0  0  0  0  0  0  0  0  0  0
   -2.6526    2.5973    2.5456 C   0  0  2  0  0  0  0  0  0  0  0  0
   -3.0726    1.2592    2.8498 O   0  0  0  0  0  0  0  0  0  0  0  0
   -4.1855    1.3846    3.8022 O   0  0  0  0  0  0  0  0  0  0  0  0
   -4.4395    2.7787    3.8853 C   0  0  2  0  0  0  0  0  0  0  0  0
   -3.2185    3.4448    3.5241 O   0  0  0  0  0  0  0  0  0  0  0  0
   -4.8518    3.1898    5.3260 C   0  0  1  0  0  0  0  0  0  0  0  0
   -4.9650    4.7250    5.3487 C   0  0  0  0  0  0  0  0  0  0  0  0
   -6.0394    5.1843    4.3421 C   0  0  1  0  0  0  0  0  0  0  0  0
   -5.6748    4.7173    2.9231 C   0  0  0  0  0  0  0  0  0  0  0  0
   -5.6058    3.1779    2.9261 C   0  0  2  0  0  0  0  0  0  0  0  0
   -6.9169    2.5068    3.3344 C   0  0  0  0  0  0  0  0  0  0  0  0
   -7.3030    3.0023    4.7181 C   0  0  1  0  0  0  0  0  0  0  0  0
   -6.2097    2.5509    5.6990 C   0  0  0  0  0  0  0  0  0  0  0  0
   -7.4061    4.5455    4.6677 C   0  0  0  0  0  0  0  0  0  0  0  0
   -1.1028    2.6475    2.5414 C   0  0  0  0  0  0  0  0  0  0  0  0
   -0.5586    3.4431    1.2927 C   0  0  0  0  0  0  0  0  0  0  0  0
  1  2  2  0
  1  6  1  0
  2  3  1  0
  3  4  2  0
  4  5  1  0
  5  6  2  0
  5  7  1  0
  7  8  1  0
  8  9  1  0
  9 10  1  0
 10 11  1  0
 10 15  1  0
 11 12  1  0
 12 13  1  0
 13 14  1  0
 14 15  1  0
 16 17  1  0
 16 34  1  0
 16  2  1  1
 17 18  1  0
 19 18  1  6
 19 20  1  0
 19 23  1  0
 19 33  1  0
 20 21  1  0
 22 21  1  1
 22 23  1  0
 22 24  1  0
 22 28  1  0
 24 31  1  6
 24 25  1  0
 26 25  1  1
 26 32  1  0
 26 27  1  0
 28 27  1  1
 28 29  1  0
 30 29  1  6
 30 31  1  0
 30 32  1  0
 33 34  1  0
M  END
>  <DRUGBANK_ID>  (1) 
DB11809

>  <COMMON_NAME>  (1) 
Artefenomel

>  <CAS_NUMBER>  (1) 
1029939-86-3

>  <UNII>  (1) 
RIK029813G

>  <SYNONYMS>  (1) 
Artefenomel

$$$$
