
     RDKit          3D

 17 17  0  0  0  0  0  0  0  0999 V2000
    0.3829    1.2496   -0.1671 C   0  0  0  0  0  0  0  0  0  0  0  0
    1.0756   -0.0137    0.3258 C   0  0  1  0  0  0  0  0  0  0  0  0
    0.3451   -1.2525   -0.1898 C   0  0  0  0  0  0  0  0  0  0  0  0
   -1.1286   -1.2408    0.1989 C   0  0  0  0  0  0  0  0  0  0  0  0
   -1.8540    0.0247   -0.3150 C   0  0  2  0  0  0  0  0  0  0  0  0
   -1.0865    1.2615    0.2297 C   0  0  2  0  0  0  0  0  0  0  0  0
    2.5277   -0.0152   -0.1274 C   0  0  0  0  0  0  0  0  0  0  0  0
   -3.3570    0.0022    0.0946 C   0  0  0  0  0  0  0  0  0  0  0  0
   -4.1565    1.1586   -0.5105 C   0  0  0  0  0  0  0  0  0  0  0  0
   -4.0816   -1.2686   -0.3593 C   0  0  0  0  0  0  0  0  0  0  0  0
   -1.6034    2.5051   -0.2809 O   0  0  0  0  0  0  0  0  0  0  0  0
   -1.9913    3.5277    0.5236 C   0  0  0  0  0  0  0  0  0  0  0  0
   -2.5764    4.5081    0.0544 O   0  0  0  0  0  0  0  0  0  0  0  0
   -1.7409    3.3924    2.0216 C   0  0  0  0  0  0  0  0  0  0  0  0
   -2.4250    2.3534    2.7126 O   0  0  0  0  0  0  0  0  0  0  0  0
   -3.8440    2.4115    2.6080 C   0  0  0  0  0  0  0  0  0  0  0  0
   -4.4235    3.6293    3.2758 C   0  0  0  0  0  0  0  0  0  0  0  0
  1  2  1  0
  1  6  1  0
  2  7  1  6
  2  3  1  0
  3  4  1  0
  4  5  1  0
  5  6  1  0
  5  8  1  1
  6 11  1  6
  8  9  1  0
  8 10  1  0
 11 12  1  0
 12 13  2  0
 12 14  1  0
 14 15  1  0
 15 16  1  0
 16 17  1  0
M  END
>  <DRUGBANK_ID>  (1) 
DB15983

>  <COMMON_NAME>  (1) 
Menglytate

>  <CAS_NUMBER>  (1) 
579-94-2

>  <UNII>  (1) 
C3B9R0E116

>  <SYNONYMS>  (1) 
Menglitato; Menglytate; Menglytatum; Menthol ethylglycolate

$$$$
