
     RDKit          3D

 37 41  0  0  1  0  0  0  0  0999 V2000
   -7.4352    2.1075   -5.1498 C   0  0  0  0  0  0  0  0  0  0  0  0
   -8.5755    2.8033   -5.4687 C   0  0  0  0  0  0  0  0  0  0  0  0
   -9.1664    3.6240   -4.5011 C   0  0  0  0  0  0  0  0  0  0  0  0
   -8.5971    3.8340   -3.2465 C   0  0  0  0  0  0  0  0  0  0  0  0
   -7.4194    3.2162   -2.9411 C   0  0  0  0  0  0  0  0  0  0  0  0
   -6.9081    2.3222   -3.9024 C   0  0  0  0  0  0  0  0  0  0  0  0
   -6.7586    3.4452   -1.6957 C   0  0  0  0  0  0  0  0  0  0  0  0
   -5.6895    2.6831   -1.3540 C   0  0  0  0  0  0  0  0  0  0  0  0
   -5.4205    1.8709   -2.3892 C   0  0  0  0  0  0  0  0  0  0  0  0
   -5.8692    1.6485   -3.6192 N   0  0  0  0  0  0  0  0  0  0  0  0
   -5.0231    2.4027    0.0549 C   0  0  2  0  0  0  0  0  0  0  0  0
   -3.5061    1.3167    0.3930 C   0  0  1  0  0  0  0  0  0  0  0  0
   -6.0890    2.3426    1.1100 C   0  0  0  0  0  0  0  0  0  0  0  0
   -4.9098    0.7970   -1.9052 O   0  0  0  0  0  0  0  0  0  0  0  0
   -3.5430    1.1933   -1.7432 C   0  0  0  0  0  0  0  0  0  0  0  0
   -2.8870    1.5403    1.6740 C   0  0  0  0  0  0  0  0  0  0  0  0
   -3.1839   -0.6005   -0.3083 C   0  0  0  0  0  0  0  0  0  0  0  0
   -3.6653    0.7907    2.7320 C   0  0  0  0  0  0  0  0  0  0  0  0
   -4.1611   -0.5851    2.6254 N   0  0  0  0  0  0  0  0  0  0  0  0
   -4.7384   -1.0682    3.8354 C   0  0  0  0  0  0  0  0  0  0  0  0
   -5.2139   -0.8266    1.6000 C   0  0  0  0  0  0  0  0  0  0  0  0
   -2.6563   -1.4209    0.6032 C   0  0  0  0  0  0  0  0  0  0  0  0
   -3.1721   -2.6664    0.2796 C   0  0  0  0  0  0  0  0  0  0  0  0
   -3.6607   -3.1041   -1.1757 C   0  0  0  0  0  0  0  0  0  0  0  0
   -3.6714   -2.3961   -2.6731 C   0  0  0  0  0  0  0  0  0  0  0  0
   -3.6056   -1.2069   -1.9218 C   0  0  0  0  0  0  0  0  0  0  0  0
   -3.8318   -2.0685   -4.4636 C   0  0  0  0  0  0  0  0  0  0  0  0
   -4.3283   -0.8327   -5.0187 C   0  0  0  0  0  0  0  0  0  0  0  0
   -5.0254   -0.8180   -3.9330 C   0  0  0  0  0  0  0  0  0  0  0  0
   -3.9536   -0.5355   -3.1002 C   0  0  0  0  0  0  0  0  0  0  0  0
   -5.7621    2.7321    2.4072 C   0  0  0  0  0  0  0  0  0  0  0  0
   -6.5183    2.2544    3.4608 C   0  0  0  0  0  0  0  0  0  0  0  0
   -7.8157    1.8816    3.1983 C   0  0  0  0  0  0  0  0  0  0  0  0
   -8.2755    1.8588    1.8867 C   0  0  0  0  0  0  0  0  0  0  0  0
   -7.3740    1.8878    0.8466 C   0  0  0  0  0  0  0  0  0  0  0  0
   -2.5792    2.5944   -0.3252 O   0  0  0  0  0  0  0  0  0  0  0  0
  -10.7920    4.4842   -4.8843 Br  0  0  0  0  0  0  0  0  0  0  0  0
  1  2  2  0
  1  6  1  0
  2  3  1  0
  3  4  2  0
  3 37  1  0
  4  5  1  0
  5  6  2  0
  5  7  1  0
  6 10  1  0
  7  8  2  0
  8  9  1  0
  9 10  2  0
  9 14  1  0
 11 13  1  1
 11 12  1  0
 11  8  1  0
 12 16  1  0
 12 17  1  0
 12 36  1  6
 13 31  2  0
 13 35  1  0
 14 15  1  0
 16 18  1  0
 17 22  2  0
 17 26  1  0
 18 19  1  0
 19 20  1  0
 19 21  1  0
 22 23  1  0
 23 24  2  0
 24 25  1  0
 25 26  2  0
 25 27  1  0
 26 30  1  0
 27 28  2  0
 28 29  1  0
 29 30  2  0
 31 32  1  0
 32 33  2  0
 33 34  1  0
 34 35  2  0
M  END
>  <DRUGBANK_ID>  (1) 
DB08903

>  <COMMON_NAME>  (1) 
Bedaquiline

>  <CAS_NUMBER>  (1) 
843663-66-1

>  <UNII>  (1) 
78846I289Y

>  <SYNONYMS>  (1) 
1-(6-Bromo-2-methoxy-quinolin-3-yl)-4-dimethylamino-2-naphthalen-1-yl-1-phenyl-butan-2-ol; Bedaquilina; Bedaquiline; BÃ©daquiline; Bedaquilinum

$$$$
