
     RDKit          3D

 25 27  0  0  0  0  0  0  0  0999 V2000
    0.9914    0.1380    0.0573 C   0  0  0  0  0  0  0  0  0  0  0  0
    0.5680    0.4707   -1.3909 C   0  0  0  0  0  0  0  0  0  0  0  0
    1.5551   -0.5036   -2.0651 C   0  0  0  0  0  0  0  0  0  0  0  0
   -0.9625    0.6399   -1.7110 N   0  0  0  0  0  0  0  0  0  0  0  0
   -1.5943    0.6927   -3.0361 C   0  0  0  0  0  0  0  0  0  0  0  0
   -1.4492   -0.5718   -4.0977 C   0  0  0  0  0  0  0  0  0  0  0  0
   -1.7610   -2.4926   -3.6192 C   0  0  0  0  0  0  0  0  0  0  0  0
   -2.6017   -2.8932   -4.4413 O   0  0  0  0  0  0  0  0  0  0  0  0
   -0.9000   -3.1294   -1.6709 C   0  0  0  0  0  0  0  0  0  0  0  0
    0.0594   -4.0067   -1.4112 C   0  0  0  0  0  0  0  0  0  0  0  0
    0.0743   -4.3453   -0.1254 C   0  0  0  0  0  0  0  0  0  0  0  0
   -0.1687   -3.4746    1.0101 C   0  0  0  0  0  0  0  0  0  0  0  0
    0.1350   -3.8232    2.2423 C   0  0  0  0  0  0  0  0  0  0  0  0
    0.5956   -5.1024    2.3351 C   0  0  0  0  0  0  0  0  0  0  0  0
    0.6862   -5.9985    1.2445 C   0  0  0  0  0  0  0  0  0  0  0  0
    0.3839   -5.6344   -0.0214 C   0  0  0  0  0  0  0  0  0  0  0  0
   -0.7578   -2.3159    1.0226 C   0  0  0  0  0  0  0  0  0  0  0  0
   -1.4157   -2.3918   -0.1190 C   0  0  0  0  0  0  0  0  0  0  0  0
   -1.7711   -0.3650   -1.1785 C   0  0  0  0  0  0  0  0  0  0  0  0
   -1.8086   -1.5331   -2.0688 C   0  0  0  0  0  0  0  0  0  0  0  0
   -0.1454   -1.8460   -2.9617 C   0  0  0  0  0  0  0  0  0  0  0  0
    0.3419   -3.0924   -3.9263 C   0  0  0  0  0  0  0  0  0  0  0  0
   -0.5700   -4.3848   -3.9111 C   0  0  0  0  0  0  0  0  0  0  0  0
   -2.0149   -4.5346   -2.9095 C   0  0  0  0  0  0  0  0  0  0  0  0
   -2.8264   -3.1254   -2.0368 C   0  0  0  0  0  0  0  0  0  0  0  0
  1  2  1  0
  2  3  1  0
  2  4  1  0
  4  5  1  0
  4 19  1  0
  5  6  1  0
  6  7  1  0
  7  8  2  0
  7  9  1  0
  9 10  2  0
  9 18  1  0
 10 11  1  0
 11 12  2  0
 11 16  1  0
 12 13  1  0
 12 17  1  0
 13 14  2  0
 14 15  1  0
 15 16  2  0
 17 18  2  0
 19 20  1  0
 20 21  2  0
 20 25  1  0
 21 22  1  0
 22 23  2  0
 23 24  1  0
 24 25  2  0
M  END
>  <DRUGBANK_ID>  (1) 
DB17064

>  <COMMON_NAME>  (1) 
ZM-39923

>  <CAS_NUMBER>  (1) 
273727-89-2

>  <UNII>  (1) 
M0ZX82000S

>  <SYNONYMS>  (1) 
1-propanone, 3-((1-methylethyl)(phenylmethyl)amino)-1-(2-naphthalenyl)-; 3-((1-methylethyl)(phenylmethyl)amino)-1-(2-naphthalenyl)-1-propanone; 3-(benzyl(propan-2-yl)amino)-1-(naphthalen-2-yl)propan-1-one; Jak3 inhibitor iv

$$$$
