
     RDKit          3D

 35 38  0  0  1  0  0  0  0  0999 V2000
   -1.2814   -2.2176   -0.2655 C   0  0  0  0  0  0  0  0  0  0  0  0
    0.0963   -1.9412   -0.5038 O   0  0  0  0  0  0  0  0  0  0  0  0
    0.9786   -2.6276    0.4101 C   0  0  0  0  0  0  0  0  0  0  0  0
    0.5961   -2.3319    1.8363 C   0  0  2  0  0  0  0  0  0  0  0  0
    0.7686   -0.8805    1.9156 C   0  0  0  0  0  0  0  0  0  0  0  0
    1.1884   -3.0984    2.8631 O   0  0  0  0  0  0  0  0  0  0  0  0
    2.5215   -3.1002    3.0891 C   0  0  0  0  0  0  0  0  0  0  0  0
    3.3625   -1.9988    3.1223 C   0  0  0  0  0  0  0  0  0  0  0  0
    4.6481   -1.9674    3.5895 C   0  0  0  0  0  0  0  0  0  0  0  0
    5.1994   -3.2033    3.8478 C   0  0  0  0  0  0  0  0  0  0  0  0
    4.3874   -4.3620    3.8510 C   0  0  0  0  0  0  0  0  0  0  0  0
    4.8102   -5.5978    4.2801 O   0  0  0  0  0  0  0  0  0  0  0  0
    6.0854   -5.6670    4.8027 C   0  0  0  0  0  0  0  0  0  0  0  0
    6.4581   -4.8676    5.8341 N   0  0  0  0  0  0  0  0  0  0  0  0
    7.7793   -4.9390    6.1712 C   0  0  0  0  0  0  0  0  0  0  0  0
    8.6711   -5.7927    5.5226 C   0  0  0  0  0  0  0  0  0  0  0  0
    8.2645   -6.6119    4.5095 N   0  0  0  0  0  0  0  0  0  0  0  0
    6.9604   -6.5269    4.1724 C   0  0  0  0  0  0  0  0  0  0  0  0
   10.0860   -5.9614    6.0211 C   0  0  0  0  0  0  0  0  0  0  0  0
   10.4756   -5.3572    6.9911 O   0  0  0  0  0  0  0  0  0  0  0  0
   10.7797   -6.9865    5.3805 N   0  0  0  0  0  0  0  0  0  0  0  0
   11.4102   -6.9546    4.0586 C   0  0  0  0  0  0  0  0  0  0  0  0
   12.6579   -7.5497    4.7253 C   0  0  0  0  0  0  0  0  0  0  0  0
   11.7671   -7.9140    5.9101 C   0  0  0  0  0  0  0  0  0  0  0  0
    3.0521   -4.3122    3.4487 C   0  0  0  0  0  0  0  0  0  0  0  0
    5.3900   -0.6600    3.7285 C   0  0  0  0  0  0  0  0  0  0  0  0
    6.5911   -0.7182    3.9689 O   0  0  0  0  0  0  0  0  0  0  0  0
    4.8270    0.6044    3.4864 N   0  0  0  0  0  0  0  0  0  0  0  0
    3.4927    1.0740    3.4032 C   0  0  0  0  0  0  0  0  0  0  0  0
    2.5449    0.6461    4.2616 N   0  0  0  0  0  0  0  0  0  0  0  0
    1.2353    0.9642    3.9528 C   0  0  0  0  0  0  0  0  0  0  0  0
    0.8347    1.6870    2.8023 C   0  0  0  0  0  0  0  0  0  0  0  0
   -0.5884    1.6134    2.2079 C   0  0  0  0  0  0  0  0  0  0  0  0
    1.8072    2.1663    1.9837 N   0  0  0  0  0  0  0  0  0  0  0  0
    3.1102    1.8606    2.3090 C   0  0  0  0  0  0  0  0  0  0  0  0
  1  2  1  0
  2  3  1  0
  4  6  1  0
  4  5  1  1
  4  3  1  0
  6  7  1  0
  7  8  2  0
  7 25  1  0
  8  9  1  0
  9 10  2  0
  9 26  1  0
 10 11  1  0
 11 12  1  0
 11 25  2  0
 12 13  1  0
 13 14  2  0
 13 18  1  0
 14 15  1  0
 15 16  2  0
 16 17  1  0
 16 19  1  0
 17 18  2  0
 19 20  2  0
 19 21  1  0
 21 22  1  0
 21 24  1  0
 22 23  1  0
 23 24  1  0
 26 27  2  0
 26 28  1  0
 28 29  1  0
 29 30  2  0
 29 35  1  0
 30 31  1  0
 31 32  2  0
 32 33  1  0
 32 34  1  0
 34 35  2  0
M  END
>  <DRUGBANK_ID>  (1) 
DB14810

>  <COMMON_NAME>  (1) 
AZD-1656

>  <CAS_NUMBER>  (1) 
919783-22-5

>  <UNII>  (1) 
660M185X4D

$$$$
