
     RDKit          3D

 10 11  0  0  0  0  0  0  0  0999 V2000
   -0.7570   -0.9285    1.2478 C   0  0  0  0  0  0  0  0  0  0  0  0
   -1.4436    0.4116   -1.2315 C   0  0  0  0  0  0  0  0  0  0  0  0
   -0.7403   -0.9573   -1.2333 C   0  0  0  0  0  0  0  0  0  0  0  0
   -1.4276    0.4570    1.2374 C   0  0  0  0  0  0  0  0  0  0  0  0
    0.6528    0.6131   -0.0061 C   0  0  0  0  0  0  0  0  0  0  0  0
    1.4729    1.0234   -1.2457 C   0  0  0  0  0  0  0  0  0  0  0  0
    1.4736    1.0490    1.2249 C   0  0  0  0  0  0  0  0  0  0  0  0
    0.1822   -0.8704    0.0115 C   0  0  1  0  0  0  0  0  0  0  0  0
    1.2696   -1.9277    0.0316 C   0  0  0  0  0  0  0  0  0  0  0  0
   -0.8113    1.1241   -0.0125 C   0  0  1  0  0  0  0  0  0  0  0  0
  1  4  1  0
  2  3  1  0
 10  4  1  1
  5 10  1  0
  5  6  1  0
  5  7  1  0
  8  1  1  0
  8  3  1  0
  8  5  1  0
  8  9  1  1
 10  2  1  0
M  END
>  <DRUGBANK_ID>  (1) 
DB04501

>  <SECONDARY_ACCESSION_NUMBERS>  (1) 
EXPT00824

>  <COMMON_NAME>  (1) 
Camphane

>  <CAS_NUMBER>  (1) 
464-15-3

>  <SYNONYMS>  (1) 
(1s,4s)-1,7,7-trimethylbicyclo[2.2.1]heptane; 1β,4β-bornane; Bornane; Bornylane

$$$$
