3BA
     RDKit          3D

 26 28  0  0  0  0  0  0  0  0999 V2000
   -1.1824    1.4517    0.0016 N   0  0  0  0  0  0  0  0  0  0  0  0
   -1.4108   -1.1920   -0.0162 C   0  0  0  0  0  0  0  0  0  0  0  0
    2.2969   -0.7170   -0.0027 N   0  0  0  0  0  0  0  0  0  0  0  0
   -0.0331    0.7244    0.0032 C   0  0  0  0  0  0  0  0  0  0  0  0
    3.7438    2.3010   -1.2596 C   0  0  0  0  0  0  0  0  0  0  0  0
    3.6329    1.3998   -0.0114 C   0  0  0  0  0  0  0  0  0  0  0  0
    2.2870    0.6319   -0.0059 C   0  0  0  0  0  0  0  0  0  0  0  0
    1.1145   -1.3738    0.0065 C   0  0  0  0  0  0  0  0  0  0  0  0
   -0.1021   -0.6559    0.0036 C   0  0  0  0  0  0  0  0  0  0  0  0
    3.7572    2.3037    1.2341 C   0  0  0  0  0  0  0  0  0  0  0  0
   -3.8216   -1.3723   -0.0000 C   0  0  0  0  0  0  0  0  0  0  0  0
    0.2332   -3.8045    0.0716 C   0  0  0  0  0  0  0  0  0  0  0  0
    0.0913   -4.5374   -1.2532 C   0  0  0  0  0  0  0  0  0  0  0  0
    1.1574   -5.5439   -1.3437 C   0  0  0  0  0  0  0  0  0  0  0  0
    3.1506   -6.2804   -1.2774 C   0  0  0  0  0  0  0  0  0  0  0  0
    1.0384   -6.9119   -1.2919 C   0  0  0  0  0  0  0  0  0  0  0  0
   -2.4277    0.8721    0.0045 C   0  0  0  0  0  0  0  0  0  0  0  0
   -2.5978   -0.4859    0.0006 C   0  0  0  0  0  0  0  0  0  0  0  0
    1.1486    1.3559   -0.0014 N   0  0  0  0  0  0  0  0  0  0  0  0
   -3.4854    1.7449   -0.0043 N   0  0  0  0  0  0  0  0  0  0  0  0
    4.8488    0.4474   -0.0164 C   0  0  0  0  0  0  0  0  0  0  0  0
   -3.7241   -2.5905   -0.0008 O   0  0  0  0  0  0  0  0  0  0  0  0
   -5.0919   -0.8693    0.0020 N   0  0  0  0  0  0  0  0  0  0  0  0
    1.2303   -2.7442    0.0554 N   0  0  0  0  0  0  0  0  0  0  0  0
    2.4733   -5.1613   -1.3264 N   0  0  0  0  0  0  0  0  0  0  0  0
    2.3234   -7.3665   -1.2732 N   0  0  0  0  0  0  0  0  0  0  0  0
  1  4  2  0
  1 17  1  0
  2  9  2  0
  2 18  1  0
  3  7  1  0
  3  8  2  0
  4  9  1  0
  4 19  1  0
  5  6  1  0
  6  7  1  0
  6 10  1  0
  6 21  1  0
  7 19  2  0
  8  9  1  0
  8 24  1  0
 11 18  1  0
 11 22  2  0
 11 23  1  0
 12 13  1  0
 12 24  1  0
 13 14  1  0
 14 16  2  0
 14 25  1  0
 15 25  2  0
 15 26  1  0
 16 26  1  0
 17 18  2  0
 17 20  1  0
M  END
>  <DRUGBANK_ID>  (1) 
DB07042

>  <COMMON_NAME>  (1) 
7-amino-2-tert-butyl-4-{[2-(1H-imidazol-4-yl)ethyl]amino}pyrido[2,3-d]pyrimidine-6-carboxamide

$$$$
