
     RDKit          3D

 21 20  0  0  0  0  0  0  0  0999 V2000
    1.0971    0.1836    0.1960 C   0  0  0  0  0  0  0  0  0  0  0  0
    3.4170   -5.3762   -3.1563 C   0  0  0  0  0  0  0  0  0  0  0  0
    0.4730   -8.5526   -2.9892 C   0  0  0  0  0  0  0  0  0  0  0  0
    0.6215    0.6911   -1.1523 C   0  0  0  0  0  0  0  0  0  0  0  0
    2.5019   -4.5686   -2.3164 C   0  0  0  0  0  0  0  0  0  0  0  0
    0.6743   -7.0935   -2.8687 C   0  0  0  0  0  0  0  0  0  0  0  0
    1.2140   -0.1402   -2.2467 C   0  0  0  0  0  0  0  0  0  0  0  0
    1.5891   -3.7483   -3.2473 C   0  0  0  0  0  0  0  0  0  0  0  0
   -0.5893   -6.2981   -2.7190 C   0  0  0  0  0  0  0  0  0  0  0  0
    0.1151   -3.5318   -0.6120 C   0  0  0  0  0  0  0  0  0  0  0  0
   -1.7148   -3.3804   -2.3763 C   0  0  0  0  0  0  0  0  0  0  0  0
   -1.3074   -3.8772   -0.9802 C   0  0  0  0  0  0  0  0  0  0  0  0
    0.4850   -1.4102   -2.1865 C   0  0  0  0  0  0  0  0  0  0  0  0
    0.3631   -4.0900   -4.1204 C   0  0  0  0  0  0  0  0  0  0  0  0
   -1.4764   -6.4262   -1.5220 C   0  0  0  0  0  0  0  0  0  0  0  0
   -0.1149   -1.6624   -3.2243 O   0  0  0  0  0  0  0  0  0  0  0  0
    0.5297   -4.6583   -5.1978 O   0  0  0  0  0  0  0  0  0  0  0  0
   -2.0101   -7.4672   -1.2505 O   0  0  0  0  0  0  0  0  0  0  0  0
    0.6198   -2.1682   -1.0289 O   0  0  0  0  0  0  0  0  0  0  0  0
   -0.9460   -3.8448   -3.6470 O   0  0  0  0  0  0  0  0  0  0  0  0
   -1.6523   -5.3005   -0.7507 O   0  0  0  0  0  0  0  0  0  0  0  0
  4  1  1  0
  5  2  1  0
  6  3  1  0
  7  4  1  0
  8  5  1  0
  9  6  1  0
 12 10  1  0
 12 11  1  0
 13  7  1  0
 14  8  1  0
 15  9  1  0
 16 13  2  0
 17 14  2  0
 18 15  2  0
 19 10  1  0
 19 13  1  0
 20 11  1  0
 20 14  1  0
 21 12  1  0
 21 15  1  0
M  END
>  <DRUGBANK_ID>  (1) 
DB12709

>  <COMMON_NAME>  (1) 
Tributyrin

>  <CAS_NUMBER>  (1) 
60-01-5

>  <UNII>  (1) 
S05LZ624MF

$$$$
