
     RDKit          3D

 23 26  0  0  0  0  0  0  0  0999 V2000
    0.2859    0.0754    0.0009 C   0  0  0  0  0  0  0  0  0  0  0  0
    1.7305    0.4079    0.0009 C   0  0  0  0  0  0  0  0  0  0  0  0
   -0.1049   -1.3631    0.0004 C   0  0  0  0  0  0  0  0  0  0  0  0
   -0.5941    1.0247    0.0010 N   0  0  0  0  0  0  0  0  0  0  0  0
    2.6906   -0.5929    0.0000 C   0  0  0  0  0  0  0  0  0  0  0  0
    4.0380   -0.3568   -0.0008 N   0  0  0  0  0  0  0  0  0  0  0  0
    0.8256   -2.3200    0.0008 C   0  0  0  0  0  0  0  0  0  0  0  0
    2.2724   -2.0218    0.0002 C   0  0  0  0  0  0  0  0  0  0  0  0
    2.1920    1.7313    0.0010 C   0  0  0  0  0  0  0  0  0  0  0  0
   -1.4574   -1.6989   -0.0009 O   0  0  0  0  0  0  0  0  0  0  0  0
    4.4411    0.9400   -0.0011 C   0  0  0  0  0  0  0  0  0  0  0  0
    3.5530    2.0074   -0.0005 C   0  0  0  0  0  0  0  0  0  0  0  0
   -1.9413    0.6754    0.0002 C   0  0  0  0  0  0  0  0  0  0  0  0
    5.9038    1.2579   -0.0013 C   0  0  0  0  0  0  0  0  0  0  0  0
   -2.3592   -0.6571   -0.0014 C   0  0  0  0  0  0  0  0  0  0  0  0
    3.0698   -2.9523   -0.0005 O   0  0  0  0  0  0  0  0  0  0  0  0
    6.3648    2.3907   -0.0012 O   0  0  0  0  0  0  0  0  0  0  0  0
    1.3115    2.7763    0.0028 O   0  0  0  0  0  0  0  0  0  0  0  0
    6.7087    0.1817   -0.0012 O   0  0  0  0  0  0  0  0  0  0  0  0
   -2.8886    1.7013    0.0004 C   0  0  0  0  0  0  0  0  0  0  0  0
   -3.7187   -0.9628   -0.0034 C   0  0  0  0  0  0  0  0  0  0  0  0
   -4.2488    1.4016    0.0003 C   0  0  0  0  0  0  0  0  0  0  0  0
   -4.6626    0.0692   -0.0012 C   0  0  0  0  0  0  0  0  0  0  0  0
  2  1  1  0
  3  1  1  0
  4  1  2  0
  5  2  2  0
  5  8  1  0
  6  5  1  0
  7  3  2  0
  8  7  1  0
  9  2  1  0
 10  3  1  0
 11 12  1  0
 11  6  2  0
 12  9  2  0
 13  4  1  0
 14 11  1  0
 15 13  2  0
 15 10  1  0
 16  8  2  0
 17 14  2  0
 18  9  1  0
 19 14  1  0
 20 13  1  0
 21 15  1  0
 21 23  2  0
 22 20  2  0
 23 22  1  0
M  END
>  <DRUGBANK_ID>  (1) 
DB15945

>  <COMMON_NAME>  (1) 
Pirenoxine

>  <CAS_NUMBER>  (1) 
1043-21-6

>  <UNII>  (1) 
27L0EP6IZK

>  <SYNONYMS>  (1) 
Pirenoxina; Pirenoxine; Pirenoxinum

$$$$
