
     RDKit          3D

 40 43  0  0  0  0  0  0  0  0999 V2000
    1.0186   -0.0841    0.0802 C   0  0  0  0  0  0  0  0  0  0  0  0
    0.4772   -1.4940    0.1268 C   0  0  0  0  0  0  0  0  0  0  0  0
   -0.3820   -1.8128    0.9717 O   0  0  0  0  0  0  0  0  0  0  0  0
    0.8566   -2.3294   -0.8979 N   0  0  0  0  0  0  0  0  0  0  0  0
    2.2343   -2.4445   -1.3950 C   0  0  0  0  0  0  0  0  0  0  0  0
    2.2720   -2.3643   -2.9306 C   0  0  0  0  0  0  0  0  0  0  0  0
    1.3625   -3.3818   -3.4757 N   0  0  0  0  0  0  0  0  0  0  0  0
   -0.0413   -3.2434   -3.0224 C   0  0  0  0  0  0  0  0  0  0  0  0
   -0.0625   -3.3338   -1.4652 C   0  0  0  0  0  0  0  0  0  0  0  0
    1.7405   -4.1893   -4.5249 C   0  0  0  0  0  0  0  0  0  0  0  0
    2.6925   -5.2015   -4.3819 C   0  0  0  0  0  0  0  0  0  0  0  0
    3.0540   -6.0668   -5.4573 C   0  0  0  0  0  0  0  0  0  0  0  0
    2.4582   -5.9875   -6.7403 C   0  0  0  0  0  0  0  0  0  0  0  0
    1.3930   -5.0489   -6.8074 C   0  0  0  0  0  0  0  0  0  0  0  0
    1.1391   -4.1154   -5.7676 C   0  0  0  0  0  0  0  0  0  0  0  0
    0.3186   -4.9549   -7.6704 O   0  0  0  0  0  0  0  0  0  0  0  0
    0.1738   -6.0246   -8.5478 C   0  0  0  0  0  0  0  0  0  0  0  0
    3.0030   -6.8143   -7.7814 N   0  0  0  0  0  0  0  0  0  0  0  0
    2.8699   -6.8198   -9.1924 C   0  0  0  0  0  0  0  0  0  0  0  0
    2.2286   -7.8596   -9.7644 N   0  0  0  0  0  0  0  0  0  0  0  0
    1.5459   -7.6181  -10.9247 C   0  0  0  0  0  0  0  0  0  0  0  0
    1.5047   -6.3966  -11.5744 C   0  0  0  0  0  0  0  0  0  0  0  0
    2.2664   -5.4107  -10.9690 C   0  0  0  0  0  0  0  0  0  0  0  0
    3.0065   -5.6666   -9.8498 N   0  0  0  0  0  0  0  0  0  0  0  0
    2.0052   -4.0375  -11.1878 N   0  0  0  0  0  0  0  0  0  0  0  0
    2.7854   -3.0078  -10.5877 C   0  0  0  0  0  0  0  0  0  0  0  0
    4.1689   -3.0658  -10.5610 C   0  0  0  0  0  0  0  0  0  0  0  0
    4.9003   -1.9494  -10.1668 C   0  0  0  0  0  0  0  0  0  0  0  0
    4.2693   -0.7030  -10.0565 C   0  0  0  0  0  0  0  0  0  0  0  0
    2.8890   -0.6221  -10.2199 C   0  0  0  0  0  0  0  0  0  0  0  0
    2.1918   -1.8181  -10.1698 C   0  0  0  0  0  0  0  0  0  0  0  0
    2.2668    0.6164  -10.5259 N   0  0  0  0  0  0  0  0  0  0  0  0
    1.0346    0.9370  -11.0633 C   0  0  0  0  0  0  0  0  0  0  0  0
    0.7385    2.1264  -11.2137 O   0  0  0  0  0  0  0  0  0  0  0  0
   -0.0135   -0.0708  -11.4065 C   0  0  0  0  0  0  0  0  0  0  0  0
    0.1824   -1.2799  -11.9441 C   0  0  0  0  0  0  0  0  0  0  0  0
    0.6710   -6.1897  -12.7912 C   0  0  0  0  0  0  0  0  0  0  0  0
   -0.3065   -5.2476  -12.6638 F   0  0  0  0  0  0  0  0  0  0  0  0
    1.4270   -5.7818  -13.8494 F   0  0  0  0  0  0  0  0  0  0  0  0
    0.0299   -7.3168  -13.2173 F   0  0  0  0  0  0  0  0  0  0  0  0
  1  2  1  0
  2  3  2  0
  2  4  1  0
  4  5  1  0
  4  9  1  0
  5  6  1  0
  6  7  1  0
  7  8  1  0
  7 10  1  0
  8  9  1  0
 10 11  2  0
 10 15  1  0
 11 12  1  0
 12 13  2  0
 13 14  1  0
 13 18  1  0
 14 15  2  0
 14 16  1  0
 16 17  1  0
 18 19  1  0
 19 20  2  0
 19 24  1  0
 20 21  1  0
 21 22  2  0
 22 23  1  0
 22 37  1  0
 23 24  2  0
 23 25  1  0
 25 26  1  0
 26 27  2  0
 26 31  1  0
 27 28  1  0
 28 29  2  0
 29 30  1  0
 30 31  2  0
 30 32  1  0
 32 33  1  0
 33 34  2  0
 33 35  1  0
 35 36  2  0
 37 38  1  0
 37 39  1  0
 37 40  1  0
M  END
>  <DRUGBANK_ID>  (1) 
DB11907

>  <COMMON_NAME>  (1) 
Rociletinib

>  <CAS_NUMBER>  (1) 
1374640-70-6

>  <UNII>  (1) 
72AH61702G

>  <SYNONYMS>  (1) 
Rociletinib

$$$$
