[NO NAME]
     RDKit          3D

 29 32  0  0  1  0  0  0  0  0999 V2000
    0.8901    0.1623    0.0384 O   0  0  0  0  0  0  0  0  0  0  0  0
    1.9051    1.8840    6.0268 O   0  0  0  0  0  0  0  0  0  0  0  0
    2.8893   -2.7991    6.8015 O   0  0  0  0  0  0  0  0  0  0  0  0
    2.2280   -2.4564    0.1112 N   0  0  0  0  0  0  0  0  0  0  0  0
    2.1344   -0.8404    5.8905 N   0  0  0  0  0  0  0  0  0  0  0  0
    3.2691   -2.5757    1.1231 C   0  0  0  0  0  0  0  0  0  0  0  0
    3.7832   -1.1896    1.5999 C   0  0  0  0  0  0  0  0  0  0  0  0
    4.5731   -3.3833    0.9581 C   0  0  0  0  0  0  0  0  0  0  0  0
    4.7774   -1.6479    2.5910 C   0  0  0  0  0  0  0  0  0  0  0  0
    5.1658   -2.9548    2.2853 C   0  0  0  0  0  0  0  0  0  0  0  0
    5.1521   -0.9827    3.7349 C   0  0  0  0  0  0  0  0  0  0  0  0
    5.7854   -3.6954    3.2566 C   0  0  0  0  0  0  0  0  0  0  0  0
    0.8495   -2.1631    0.6353 C   0  0  0  0  0  0  0  0  0  0  0  0
    5.9426   -1.6631    4.6576 C   0  0  0  0  0  0  0  0  0  0  0  0
    6.2579   -3.0350    4.4122 C   0  0  0  0  0  0  0  0  0  0  0  0
    0.4558   -0.7112    1.1029 C   0  0  1  0  0  0  0  0  0  0  0  0
    6.4176   -0.8647    5.8509 C   0  0  0  0  0  0  0  0  0  0  0  0
    7.1660   -3.8485    5.2983 C   0  0  0  0  0  0  0  0  0  0  0  0
    0.8246   -0.1013    2.4709 C   0  0  0  0  0  0  0  0  0  0  0  0
    1.2282   -0.8221    3.6300 C   0  0  0  0  0  0  0  0  0  0  0  0
    6.0265   -1.4544    7.1928 C   0  0  0  0  0  0  0  0  0  0  0  0
    8.5663   -3.2578    5.3250 C   0  0  0  0  0  0  0  0  0  0  0  0
    0.7969    1.3190    2.5715 C   0  0  0  0  0  0  0  0  0  0  0  0
    1.6203   -0.1251    4.7931 C   0  0  0  0  0  0  0  0  0  0  0  0
    1.1447    1.9946    3.7504 C   0  0  0  0  0  0  0  0  0  0  0  0
    1.4405   -2.2712    3.6898 C   0  0  0  0  0  0  0  0  0  0  0  0
    1.5452    1.2653    4.8610 C   0  0  0  0  0  0  0  0  0  0  0  0
    2.2671   -2.8404    4.5669 C   0  0  0  0  0  0  0  0  0  0  0  0
    2.4935   -2.1631    5.8470 C   0  0  0  0  0  0  0  0  0  0  0  0
  2 27  1  0
  3 29  2  0
  4  6  1  0
  4 13  1  0
  5 24  1  0
  5 29  1  0
  6  7  1  0
  6  8  1  0
  7  9  1  0
  8 10  1  0
  9 10  2  0
  9 11  1  0
 10 12  1  0
 11 14  2  0
 12 15  2  0
 13 16  1  0
 14 15  1  0
 14 17  1  0
 15 18  1  0
 16  1  1  6
 16 19  1  0
 17 21  1  0
 18 22  1  0
 19 20  1  0
 19 23  2  0
 20 24  2  0
 20 26  1  0
 23 25  1  0
 24 27  1  0
 25 27  2  0
 26 28  2  0
 28 29  1  0
M  END
>  <DRUGBANK_ID>  (1) 
DB05039

>  <COMMON_NAME>  (1) 
Indacaterol

>  <CAS_NUMBER>  (1) 
312753-06-3

>  <UNII>  (1) 
8OR09251MQ

>  <SYNONYMS>  (1) 
Indacaterol

$$$$
