
     RDKit          3D

 34 38  0  0  1  0  0  0  0  0999 V2000
    7.4281    1.5507    5.3343 C   0  0  0  0  0  0  0  0  0  0  0  0
    6.8614    2.0946    4.1823 C   0  0  0  0  0  0  0  0  0  0  0  0
    6.1949    1.2702    3.2536 C   0  0  0  0  0  0  0  0  0  0  0  0
    5.6179    1.7881    2.0821 C   0  0  0  0  0  0  0  0  0  0  0  0
    4.9533    0.9465    1.1713 C   0  0  0  0  0  0  0  0  0  0  0  0
    4.9344   -0.4245    1.4750 C   0  0  0  0  0  0  0  0  0  0  0  0
    5.4618   -0.9269    2.6112 N   0  0  0  0  0  0  0  0  0  0  0  0
    6.0882   -0.1159    3.4854 C   0  0  0  0  0  0  0  0  0  0  0  0
    6.6622   -0.6305    4.6512 C   0  0  0  0  0  0  0  0  0  0  0  0
    7.3286    0.1847    5.5690 C   0  0  0  0  0  0  0  0  0  0  0  0
    6.5729   -2.3273    5.0023 Cl  0  0  0  0  0  0  0  0  0  0  0  0
    4.3428   -1.4612    0.6237 C   0  0  0  0  0  0  0  0  0  0  0  0
    3.1799   -2.1430    1.0084 C   0  0  0  0  0  0  0  0  0  0  0  0
    2.4860   -2.9240    0.0868 C   0  0  0  0  0  0  0  0  0  0  0  0
    2.9526   -3.0042   -1.2226 C   0  0  0  0  0  0  0  0  0  0  0  0
    4.1394   -2.4075   -1.5999 N   0  0  0  0  0  0  0  0  0  0  0  0
    4.8623   -1.7156   -0.6492 C   0  0  0  0  0  0  0  0  0  0  0  0
    4.5318   -2.4578   -2.8055 O   0  0  0  0  0  0  0  0  0  0  0  0
    4.2762    1.5674   -0.0550 C   0  0  2  0  0  0  0  0  0  0  0  0
    2.7445    1.2495   -0.1054 C   0  0  0  0  0  0  0  0  0  0  0  0
    2.0843    2.1150   -0.9096 F   0  0  0  0  0  0  0  0  0  0  0  0
    2.4760    0.0188   -0.5909 F   0  0  0  0  0  0  0  0  0  0  0  0
    2.1758    1.3343    1.1215 F   0  0  0  0  0  0  0  0  0  0  0  0
    5.0147    1.1283   -1.2521 N   0  0  0  0  0  0  0  0  0  0  0  0
    5.4775    2.0656   -2.1953 C   0  0  0  0  0  0  0  0  0  0  0  0
    5.4143    1.6780   -3.5402 C   0  0  0  0  0  0  0  0  0  0  0  0
    6.0734    2.5188   -4.4304 C   0  0  0  0  0  0  0  0  0  0  0  0
    6.1168    2.0991   -5.7548 C   0  0  0  0  0  0  0  0  0  0  0  0
    5.6074    0.8539   -6.1293 C   0  0  0  0  0  0  0  0  0  0  0  0
    4.9176    0.1258   -5.1836 C   0  0  0  0  0  0  0  0  0  0  0  0
    4.7791    0.5329   -3.9074 N   0  0  0  0  0  0  0  0  0  0  0  0
    6.7070    3.6410   -4.0464 N   0  0  0  0  0  0  0  0  0  0  0  0
    6.7152    3.8923   -2.7278 C   0  0  0  0  0  0  0  0  0  0  0  0
    6.1145    3.1723   -1.7690 N   0  0  0  0  0  0  0  0  0  0  0  0
  1  2  2  0
  1 10  1  0
  2  3  1  0
  3  4  2  0
  3  8  1  0
  4  5  1  0
  5  6  2  0
  6  7  1  0
  6 12  1  0
  7  8  2  0
  8  9  1  0
  9 10  2  0
  9 11  1  0
 12 13  2  0
 12 17  1  0
 13 14  1  0
 14 15  2  0
 15 16  1  0
 16 17  2  0
 16 18  1  0
 19 24  1  6
 19 20  1  0
 19  5  1  0
 20 21  1  0
 20 22  1  0
 20 23  1  0
 24 25  1  0
 25 26  1  0
 25 34  2  0
 26 27  1  0
 26 31  2  0
 27 28  2  0
 27 32  1  0
 28 29  1  0
 29 30  2  0
 30 31  1  0
 32 33  2  0
 33 34  1  0
M  CHG  2  16   1  18  -1
M  END
>  <DRUGBANK_ID>  (1) 
DB12706

>  <COMMON_NAME>  (1) 
Seletalisib

>  <CAS_NUMBER>  (1) 
1362850-20-1

>  <UNII>  (1) 
64CW205BDD

>  <SYNONYMS>  (1) 
Seletalisib

$$$$
