INK
     RDKit          3D

 16 16  0  0  0  0  0  0  0  0999 V2000
    1.5611    1.1531    0.7168 P   0  0  2  0  0  0  0  0  0  0  0  0
    0.7963    2.5897    2.0316 Cl  0  0  0  0  0  0  0  0  0  0  0  0
    0.6544    1.8165   -0.8250 C   0  0  0  0  0  0  0  0  0  0  0  0
    0.4334    0.1342    1.0127 O   0  0  0  0  0  0  0  0  0  0  0  0
    2.8211    2.2916    0.3863 O   0  0  0  0  0  0  0  0  0  0  0  0
    3.7677    1.1147    0.7507 C   0  0  2  0  0  0  0  0  0  0  0  0
    3.6994    0.1792   -0.5512 C   0  0  0  0  0  0  0  0  0  0  0  0
    4.6399   -0.9977   -0.4376 C   0  0  0  0  0  0  0  0  0  0  0  0
    3.3271    0.4390    2.3431 C   0  0  0  0  0  0  0  0  0  0  0  0
    3.6197   -0.9128    2.7669 O   0  0  0  0  0  0  0  0  0  0  0  0
    1.8919   -4.1757    2.4702 C   0  0  0  0  0  0  0  0  0  0  0  0
    1.7162   -4.2547    1.0841 C   0  0  0  0  0  0  0  0  0  0  0  0
    1.9609   -3.1235    0.3471 C   0  0  0  0  0  0  0  0  0  0  0  0
    2.3442   -2.0137    1.0636 C   0  0  0  0  0  0  0  0  0  0  0  0
    2.7732   -1.9270    2.3562 C   0  0  0  0  0  0  0  0  0  0  0  0
    2.4837   -3.0527    3.1105 C   0  0  0  0  0  0  0  0  0  0  0  0
  1  2  1  0
  1  3  1  6
  1  4  2  0
  1  5  1  0
  6  9  1  1
  6  7  1  0
  6  5  1  0
  7  8  1  0
  9 10  1  0
 10 15  1  0
 11 12  2  0
 11 16  1  0
 12 13  1  0
 13 14  2  0
 14 15  1  0
 15 16  2  0
M  END
>  <DRUGBANK_ID>  (1) 
DB07990

>  <COMMON_NAME>  (1) 
(RP,SP)-O-(2R)-(1-PHENOXYBUT-2-YL)-METHYLPHOSPHONIC ACID CHLORIDE

$$$$
