
     RDKit          3D

  6  5  0  0  0  0  0  0  0  0999 V2000
    1.0599   -0.0904    0.1109 C   0  0  0  0  0  0  0  0  0  0  0  0
    0.5480    1.3049    0.4426 C   0  0  0  0  0  0  0  0  0  0  0  0
    1.0297    2.3663   -0.5469 C   0  0  0  0  0  0  0  0  0  0  0  0
    0.5591    2.0958   -1.9628 C   0  0  0  0  0  0  0  0  0  0  0  0
   -0.2745    3.0154   -2.5137 N   0  0  0  0  0  0  0  0  0  0  0  0
    0.8867    1.1099   -2.6175 O   0  0  0  0  0  0  0  0  0  0  0  0
  1  2  1  0
  2  3  1  0
  3  4  1  0
  4  5  1  0
  4  6  2  0
M  END
>  <DRUGBANK_ID>  (1) 
DB02121

>  <SECONDARY_ACCESSION_NUMBERS>  (1) 
EXPT00722

>  <COMMON_NAME>  (1) 
Butyramide

>  <CAS_NUMBER>  (1) 
541-35-5

>  <UNII>  (1) 
9J6OR937VR

$$$$
