
     RDKit          3D

 24 25  0  0  0  0  0  0  0  0999 V2000
   -1.4451    1.2565    0.1610 O   0  0  0  0  0  0  0  0  0  0  0  0
    0.1545    2.1334   -1.3986 O   0  0  0  0  0  0  0  0  0  0  0  0
    1.4334   -1.7132   -0.1771 O   0  0  0  0  0  0  0  0  0  0  0  0
   -1.1488   -1.4520    0.9171 O   0  0  0  0  0  0  0  0  0  0  0  0
    2.2469    1.0633    0.1436 O   0  0  0  0  0  0  0  0  0  0  0  0
   -4.0016    1.0599   -1.0421 O   0  0  0  0  0  0  0  0  0  0  0  0
   -3.6721    6.7836   -1.2354 O   0  0  0  0  0  0  0  0  0  0  0  0
    0.6062    4.8013   -5.4612 O   0  0  0  0  0  0  0  0  0  0  0  0
   -0.7600    6.4991   -5.2133 O   0  0  0  0  0  0  0  0  0  0  0  0
   -0.3107    5.3957   -4.8767 N   0  0  0  0  0  0  0  0  0  0  0  0
   -3.4260    5.3053    0.4485 N   0  0  0  0  0  0  0  0  0  0  0  0
    0.5958   -0.6161   -0.5436 C   0  0  1  0  0  0  0  0  0  0  0  0
   -0.8864   -1.0128   -0.4273 C   0  0  2  0  0  0  0  0  0  0  0  0
    0.9012    0.6154    0.3264 C   0  0  2  0  0  0  0  0  0  0  0  0
   -1.7588    0.1959   -0.7712 C   0  0  1  0  0  0  0  0  0  0  0  0
   -0.0965    1.7289   -0.0347 C   0  0  2  0  0  0  0  0  0  0  0  0
   -3.2534   -0.1070   -0.6957 C   0  0  0  0  0  0  0  0  0  0  0  0
   -0.5776    3.1811   -1.8843 C   0  0  0  0  0  0  0  0  0  0  0  0
   -1.5449    3.8608   -1.1488 C   0  0  0  0  0  0  0  0  0  0  0  0
   -0.2762    3.5980   -3.1766 C   0  0  0  0  0  0  0  0  0  0  0  0
   -2.1864    4.9905   -1.6533 C   0  0  0  0  0  0  0  0  0  0  0  0
   -0.8580    4.7772   -3.6620 C   0  0  0  0  0  0  0  0  0  0  0  0
   -1.8429    5.4540   -2.9264 C   0  0  0  0  0  0  0  0  0  0  0  0
   -3.1505    5.7542   -0.8154 C   0  0  0  0  0  0  0  0  0  0  0  0
  1 15  1  0
  1 16  1  0
  2 18  1  0
  6 17  1  0
  7 24  2  0
  8 10  1  0
  9 10  2  0
 10 22  1  0
 11 24  1  0
 12  3  1  1
 12 13  1  0
 12 14  1  0
 13  4  1  1
 13 15  1  0
 14  5  1  6
 14 16  1  0
 15 17  1  1
 16  2  1  6
 18 19  2  0
 18 20  1  0
 19 21  1  0
 20 22  2  0
 21 23  2  0
 21 24  1  0
 22 23  1  0
M  CHG  2   8  -1  10   1
M  END
>  <DRUGBANK_ID>  (1) 
DB02802

>  <SECONDARY_ACCESSION_NUMBERS>  (1) 
EXPT01462

>  <COMMON_NAME>  (1) 
3-(alpha-D-Galactopyranosyloxy)-5-nitrobenzamide

>  <SYNONYMS>  (1) 
3-(Î±-D-Galactopyranosyloxy)-5-nitrobenzamide; 5-aminocarbonyl-3-nitrophenyl-alpha-D-galactopyranose

$$$$
