
     RDKit          3D

 41 44  0  0  1  0  0  0  0  0999 V2000
    6.0319   -2.0981   -4.4205 C   0  0  0  0  0  0  0  0  0  0  0  0
    5.8578   -0.7914   -3.4037 C   0  0  0  0  0  0  0  0  0  0  0  0
    4.9924    0.1356   -4.2089 C   0  0  0  0  0  0  0  0  0  0  0  0
    5.4966   -0.6677   -1.8067 C   0  0  2  0  0  0  0  0  0  0  0  0
    6.1597   -0.1230   -0.6501 N   0  0  0  0  0  0  0  0  0  0  0  0
    4.6953   -1.7531   -1.3365 C   0  0  0  0  0  0  0  0  0  0  0  0
    3.6076   -1.2927   -1.8988 O   0  0  0  0  0  0  0  0  0  0  0  0
    5.0413   -3.5183   -0.9418 O   0  0  0  0  0  0  0  0  0  0  0  0
    5.4650   -5.3073   -1.0136 C   0  0  0  0  0  0  0  0  0  0  0  0
    4.9705   -5.8384    0.3468 C   0  0  0  0  0  0  0  0  0  0  0  0
    3.6070   -5.1577    0.6920 C   0  0  2  0  0  0  0  0  0  0  0  0
    2.8140   -5.2412   -1.0705 N   0  0  0  0  0  0  0  0  0  0  0  0
    1.6452   -4.5068   -1.9628 C   0  0  0  0  0  0  0  0  0  0  0  0
    1.7898   -3.9672   -3.0844 O   0  0  0  0  0  0  0  0  0  0  0  0
    0.3968   -4.3263   -1.2338 C   0  0  2  0  0  0  0  0  0  0  0  0
   -0.6209   -2.9180   -0.9879 S   0  0  0  0  0  0  0  0  0  0  0  0
   -1.4048   -3.8566    0.4182 C   0  0  0  0  0  0  0  0  0  0  0  0
   -0.4691   -4.9604    0.8669 C   0  0  0  0  0  0  0  0  0  0  0  0
    0.7091   -4.7310    0.0626 N   0  0  0  0  0  0  0  0  0  0  0  0
    1.6282   -3.7377    0.9761 S   0  0  0  0  0  0  0  0  0  0  0  0
    1.0334   -2.4929    1.3783 O   0  0  0  0  0  0  0  0  0  0  0  0
    1.7457   -4.8531    1.9399 O   0  0  0  0  0  0  0  0  0  0  0  0
    3.5470   -3.1916    0.0613 C   0  0  0  0  0  0  0  0  0  0  0  0
    3.3211   -3.2145   -1.5184 C   0  0  0  0  0  0  0  0  0  0  0  0
    4.7882   -3.3696   -2.6285 C   0  0  0  0  0  0  0  0  0  0  0  0
    6.4749   -3.2301   -1.8495 C   0  0  0  0  0  0  0  0  0  0  0  0
    6.7390   -3.2376   -0.0871 C   0  0  0  0  0  0  0  0  0  0  0  0
    5.3590   -3.3334    0.8208 C   0  0  0  0  0  0  0  0  0  0  0  0
    7.7797   -3.0941   -2.3592 C   0  0  0  0  0  0  0  0  0  0  0  0
    8.2781   -1.8117   -2.4027 C   0  0  0  0  0  0  0  0  0  0  0  0
    9.2758   -1.5420   -3.2542 C   0  0  0  0  0  0  0  0  0  0  0  0
   10.0166   -2.6447   -3.6065 C   0  0  0  0  0  0  0  0  0  0  0  0
    9.6737   -3.9587   -3.2115 C   0  0  0  0  0  0  0  0  0  0  0  0
    8.4498   -4.2176   -2.6911 C   0  0  0  0  0  0  0  0  0  0  0  0
    3.6754   -3.6660    2.1102 C   0  0  0  0  0  0  0  0  0  0  0  0
    3.1030   -3.5613    3.3507 C   0  0  0  0  0  0  0  0  0  0  0  0
    3.2113   -2.3377    4.0843 C   0  0  0  0  0  0  0  0  0  0  0  0
    3.9763   -1.1725    3.7741 C   0  0  0  0  0  0  0  0  0  0  0  0
    4.0630   -0.1665    4.6344 F   0  0  0  0  0  0  0  0  0  0  0  0
    4.5407   -0.9933    2.5884 C   0  0  0  0  0  0  0  0  0  0  0  0
    4.0521   -1.9739    1.8052 C   0  0  0  0  0  0  0  0  0  0  0  0
  1  2  1  0
  2  3  1  0
  4  6  1  0
  4  5  1  1
  4  2  1  0
  6  7  2  0
  6  8  1  0
  8  9  1  0
  9 10  1  0
 11 35  1  0
 11 12  1  0
 11 10  1  6
 12 13  1  0
 13 14  2  0
 15 16  1  0
 15 19  1  0
 15 13  1  6
 16 17  1  0
 17 18  1  0
 18 19  1  0
 19 20  1  0
 20 21  2  0
 20 22  2  0
 20 23  1  0
 23 24  2  0
 23 28  1  0
 24 25  1  0
 25 26  2  0
 26 27  1  0
 26 29  1  0
 27 28  2  0
 29 30  2  0
 29 34  1  0
 30 31  1  0
 31 32  2  0
 32 33  1  0
 33 34  2  0
 35 36  2  0
 35 41  1  0
 36 37  1  0
 37 38  2  0
 38 39  1  0
 38 40  1  0
 40 41  2  0
M  END
>  <DRUGBANK_ID>  (1) 
DB16147

>  <COMMON_NAME>  (1) 
Ebopiprant

>  <CAS_NUMBER>  (1) 
2005486-31-5

>  <UNII>  (1) 
Z1AVZ44TEJ

>  <SYNONYMS>  (1) 
Ebopiprant

$$$$
