HHH
     RDKit          3D

 12 12  0  0  0  0  0  0  0  0999 V2000
    1.0457    0.0050   -0.0735 O   0  0  0  0  0  0  0  0  0  0  0  0
    0.2805   -0.8767   -0.7672 C   0  0  0  0  0  0  0  0  0  0  0  0
   -0.9420   -0.8464   -0.6841 O   0  0  0  0  0  0  0  0  0  0  0  0
    1.0812   -1.8923   -1.6167 C   0  0  1  0  0  0  0  0  0  0  0  0
    0.8449   -3.2306   -1.1767 O   0  0  0  0  0  0  0  0  0  0  0  0
    0.7487   -1.7596   -3.0976 C   0  0  0  0  0  0  0  0  0  0  0  0
    0.4919   -2.8890   -3.8928 C   0  0  0  0  0  0  0  0  0  0  0  0
    0.1879   -2.7581   -5.2486 C   0  0  0  0  0  0  0  0  0  0  0  0
    0.7054   -0.4934   -3.7121 C   0  0  0  0  0  0  0  0  0  0  0  0
    0.3968   -0.3614   -5.0711 C   0  0  0  0  0  0  0  0  0  0  0  0
    0.1478   -1.4991   -5.8297 C   0  0  0  0  0  0  0  0  0  0  0  0
   -0.1399   -1.4321   -7.1605 O   0  0  0  0  0  0  0  0  0  0  0  0
  2  1  1  0
  2  4  1  0
  3  2  2  0
  4  5  1  1
  4  6  1  0
  6  7  2  0
  7  8  1  0
  9  6  1  0
  9 10  2  0
 10 11  1  0
 11  8  2  0
 11 12  1  0
M  END
>  <DRUGBANK_ID>  (1) 
DB07896

>  <COMMON_NAME>  (1) 
(2S)-hydroxy(4-hydroxyphenyl)ethanoic acid

>  <UNII>  (1) 
G3FLY66R5P

$$$$
