ZHZ
     RDKit          3D

 12 12  0  0  0  0  0  0  0  0999 V2000
    0.9839   -0.1993    0.1735 O   0  0  0  0  0  0  0  0  0  0  0  0
    2.2116   -0.1284    0.1160 C   0  0  0  0  0  0  0  0  0  0  0  0
    2.9506   -1.2716    0.0610 N   0  0  0  0  0  0  0  0  0  0  0  0
    2.9829    1.1813    0.0384 C   0  0  0  0  0  0  0  0  0  0  0  0
    2.6594    2.0182   -1.1816 C   0  0  0  0  0  0  0  0  0  0  0  0
    1.9415    1.4911   -2.2622 C   0  0  0  0  0  0  0  0  0  0  0  0
    1.6277    2.2709   -3.3727 C   0  0  0  0  0  0  0  0  0  0  0  0
    2.0346    3.5990   -3.4366 C   0  0  0  0  0  0  0  0  0  0  0  0
    1.8283    4.4290   -4.5057 O   0  0  0  0  0  0  0  0  0  0  0  0
    1.2615    3.8181   -5.6634 C   0  0  0  0  0  0  0  0  0  0  0  0
    2.7231    4.1496   -2.3528 C   0  0  0  0  0  0  0  0  0  0  0  0
    3.0714    3.3566   -1.2507 C   0  0  0  0  0  0  0  0  0  0  0  0
  1  2  2  0
  2  3  1  0
  2  4  1  0
  4  5  1  0
  5  6  2  0
  5 12  1  0
  6  7  1  0
  7  8  2  0
  8  9  1  0
  8 11  1  0
  9 10  1  0
 11 12  2  0
M  END
>  <DRUGBANK_ID>  (1) 
DB08767

>  <COMMON_NAME>  (1) 
2-(4-METHOXYPHENYL)ACETAMIDE

>  <UNII>  (1) 
RDT39HU3CZ

$$$$
