
     RDKit          3D

 20 22  0  0  0  0  0  0  0  0999 V2000
    1.3884   -0.2007   -0.0097 C   0  0  0  0  0  0  0  0  0  0  0  0
    0.5409   -1.2929   -0.0734 C   0  0  0  0  0  0  0  0  0  0  0  0
    0.8448    1.0823   -0.0306 C   0  0  0  0  0  0  0  0  0  0  0  0
   -7.7852   -0.0844   -0.9166 C   0  0  0  0  0  0  0  0  0  0  0  0
   -7.0399    0.7168   -1.7492 C   0  0  0  0  0  0  0  0  0  0  0  0
   -0.8315   -1.0896   -0.2448 C   0  0  0  0  0  0  0  0  0  0  0  0
   -0.5502    1.2751   -0.0749 C   0  0  0  0  0  0  0  0  0  0  0  0
   -7.0696   -0.7994    0.0581 C   0  0  0  0  0  0  0  0  0  0  0  0
   -5.6608    0.5073   -1.8045 C   0  0  0  0  0  0  0  0  0  0  0  0
   -1.4271    0.1930   -0.2548 C   0  0  0  0  0  0  0  0  0  0  0  0
   -5.5978   -0.6439    0.1703 C   0  0  0  0  0  0  0  0  0  0  0  0
   -4.9688   -0.3904   -1.0177 C   0  0  0  0  0  0  0  0  0  0  0  0
   -4.6975   -0.1151    1.2081 C   0  0  0  0  0  0  0  0  0  0  0  0
   -2.9131    0.3163   -0.2985 C   0  0  0  0  0  0  0  0  0  0  0  0
   -3.6388    0.7897    0.7730 C   0  0  0  0  0  0  0  0  0  0  0  0
   -3.9091   -1.2570    1.8409 C   0  0  0  0  0  0  0  0  0  0  0  0
   -3.6228   -0.4238   -1.1674 N   0  0  0  0  0  0  0  0  0  0  0  0
   -3.7265    2.1742    0.8903 O   0  0  0  0  0  0  0  0  0  0  0  0
   -2.7576   -1.6032    1.5472 O   0  0  0  0  0  0  0  0  0  0  0  0
   -4.3705   -1.9244    2.8867 O   0  0  0  0  0  0  0  0  0  0  0  0
  2  1  2  0
  3  1  1  0
  5  4  2  0
  6  2  1  0
  7  3  2  0
  8  4  1  0
  9  5  1  0
 10  6  2  0
 10  7  1  0
 11  8  2  0
 12  9  2  0
 12 11  1  0
 13 11  1  0
 14 10  1  0
 15 13  2  0
 15 14  1  0
 16 13  1  0
 17 12  1  0
 17 14  2  0
 18 15  1  0
 19 16  2  0
 20 16  1  0
M  END
>  <DRUGBANK_ID>  (1) 
DB13596

>  <COMMON_NAME>  (1) 
Oxycinchophen

>  <CAS_NUMBER>  (1) 
485-89-2

>  <UNII>  (1) 
UK6392GD5W

>  <SYNONYMS>  (1) 
Oxycinchophen

$$$$
