CQU
     RDKit          3D

 22 25  0  0  0  0  0  0  0  0999 V2000
    0.9548    0.0987   -0.0949 N   0  0  0  0  0  0  0  0  0  0  0  0
    0.2934   -0.4695    1.0181 C   0  0  0  0  0  0  0  0  0  0  0  0
   -1.6846    1.8940   -0.1180 C   0  0  0  0  0  0  0  0  0  0  0  0
    0.7316   -0.0969    2.2949 C   0  0  0  0  0  0  0  0  0  0  0  0
   -2.0747   -2.4946   -2.2952 C   0  0  0  0  0  0  0  0  0  0  0  0
    0.0818    0.6746   -3.5452 C   0  0  0  0  0  0  0  0  0  0  0  0
   -0.0490   -0.3764    3.4163 C   0  0  0  0  0  0  0  0  0  0  0  0
   -1.2717   -1.0317    3.2723 C   0  0  0  0  0  0  0  0  0  0  0  0
   -3.0027   -2.5258   -3.4435 C   0  0  0  0  0  0  0  0  0  0  0  0
   -2.2453   -1.6913   -1.1939 N   0  0  0  0  0  0  0  0  0  0  0  0
   -0.9882   -3.2114   -2.1391 N   0  0  0  0  0  0  0  0  0  0  0  0
   -0.4283   -2.8698   -0.9321 N   0  0  0  0  0  0  0  0  0  0  0  0
   -1.1783   -1.9456   -0.3663 C   0  0  0  0  0  0  0  0  0  0  0  0
   -0.8821   -1.2546    0.8900 C   0  0  0  0  0  0  0  0  0  0  0  0
   -1.6933   -1.4647    2.0130 C   0  0  0  0  0  0  0  0  0  0  0  0
    0.3087    0.5825   -1.2386 C   0  0  0  0  0  0  0  0  0  0  0  0
   -0.8622    1.3661   -1.1587 C   0  0  0  0  0  0  0  0  0  0  0  0
   -1.4365    1.7627   -2.3526 C   0  0  0  0  0  0  0  0  0  0  0  0
   -2.5103    2.5615   -2.0642 N   0  0  0  0  0  0  0  0  0  0  0  0
   -2.6932    2.6241   -0.7065 C   0  0  0  0  0  0  0  0  0  0  0  0
   -1.0332    1.4315   -3.5859 N   0  0  0  0  0  0  0  0  0  0  0  0
    0.7941    0.2881   -2.4661 N   0  0  0  0  0  0  0  0  0  0  0  0
  1  2  1  0
  1 16  1  0
  2  4  2  0
  2 14  1  0
  3 17  1  0
  3 20  2  0
  4  7  1  0
  5  9  1  0
  5 10  1  0
  5 11  2  0
  6 21  1  0
  6 22  2  0
  7  8  2  0
  8 15  1  0
 10 13  1  0
 11 12  1  0
 12 13  2  0
 13 14  1  0
 14 15  2  0
 16 17  2  0
 16 22  1  0
 17 18  1  0
 18 19  1  0
 18 21  2  0
 19 20  1  0
M  END
>  <DRUGBANK_ID>  (1) 
DB07584

>  <COMMON_NAME>  (1) 
N-[2-(5-methyl-4H-1,2,4-triazol-3-yl)phenyl]-7H-pyrrolo[2,3-d]pyrimidin-4-amine

$$$$
