
     RDKit          3D

 34 37  0  0  1  0  0  0  0  0999 V2000
    1.0361    0.0327    0.0213 C   0  0  0  0  0  0  0  0  0  0  0  0
    0.4384   -0.3049    1.2667 O   0  0  0  0  0  0  0  0  0  0  0  0
    0.8951   -1.4440    1.8719 C   0  0  0  0  0  0  0  0  0  0  0  0
    2.2160   -1.8926    1.8081 C   0  0  0  0  0  0  0  0  0  0  0  0
    2.6144   -2.9947    2.5650 C   0  0  0  0  0  0  0  0  0  0  0  0
    4.0690   -3.4059    2.6336 C   0  0  0  0  0  0  0  0  0  0  0  0
    4.7027   -3.1970    4.0276 C   0  0  0  0  0  0  0  0  0  0  0  0
    4.0795   -4.0217    5.0977 C   0  0  0  0  0  0  0  0  0  0  0  0
    3.2483   -3.7121    6.1600 C   0  0  0  0  0  0  0  0  0  0  0  0
    2.8702   -4.9609    6.7162 C   0  0  0  0  0  0  0  0  0  0  0  0
    2.0650   -5.1607    7.8188 N   0  0  0  0  0  0  0  0  0  0  0  0
    1.6988   -6.3600    8.4130 C   0  0  0  0  0  0  0  0  0  0  0  0
    0.8741   -6.3581    9.3160 O   0  0  0  0  0  0  0  0  0  0  0  0
    2.2953   -7.6626    7.9916 C   0  0  0  0  0  0  0  0  0  0  0  0
    3.6685   -7.8159    7.7896 C   0  0  0  0  0  0  0  0  0  0  0  0
    4.1894   -9.0088    7.2719 C   0  0  0  0  0  0  0  0  0  0  0  0
    3.3752  -10.1260    7.0658 C   0  0  0  0  0  0  0  0  0  0  0  0
    2.0207   -9.9932    7.4067 C   0  0  0  0  0  0  0  0  0  0  0  0
    1.4691   -8.7717    7.8245 C   0  0  0  0  0  0  0  0  0  0  0  0
    3.8502  -11.3061    6.5335 N   0  0  0  0  0  0  0  0  0  0  0  0
    5.0861  -11.9509    6.9880 C   0  0  0  0  0  0  0  0  0  0  0  0
    6.0803  -12.2107    5.8225 C   0  0  2  0  0  0  0  0  0  0  0  0
    6.9139  -10.9689    5.4713 C   0  0  0  0  0  0  0  0  0  0  0  0
    5.4340  -12.8484    4.6418 N   0  0  0  0  0  0  0  0  0  0  0  0
    4.2106  -12.1133    4.2169 C   0  0  2  0  0  0  0  0  0  0  0  0
    4.5484  -10.7466    3.6210 C   0  0  0  0  0  0  0  0  0  0  0  0
    3.1879  -11.9284    5.3744 C   0  0  0  0  0  0  0  0  0  0  0  0
    3.3084   -5.9440    5.9340 N   0  0  0  0  0  0  0  0  0  0  0  0
    4.1557   -5.3814    5.0854 N   0  0  0  0  0  0  0  0  0  0  0  0
    1.6507   -3.6673    3.3309 C   0  0  0  0  0  0  0  0  0  0  0  0
    0.3586   -3.1788    3.4815 C   0  0  0  0  0  0  0  0  0  0  0  0
   -0.5696   -3.6746    4.3634 O   0  0  0  0  0  0  0  0  0  0  0  0
   -0.0431   -4.5084    5.3949 C   0  0  0  0  0  0  0  0  0  0  0  0
   -0.0276   -2.0938    2.7035 C   0  0  0  0  0  0  0  0  0  0  0  0
  1  2  1  0
  2  3  1  0
  3  4  2  0
  3 34  1  0
  4  5  1  0
  5  6  1  0
  5 30  2  0
  6  7  1  0
  7  8  1  0
  8  9  2  0
  8 29  1  0
  9 10  1  0
 10 11  1  0
 10 28  2  0
 11 12  1  0
 12 13  2  0
 12 14  1  0
 14 15  2  0
 14 19  1  0
 15 16  1  0
 16 17  2  0
 17 18  1  0
 17 20  1  0
 18 19  2  0
 20 21  1  0
 20 27  1  0
 22 21  1  0
 22 23  1  6
 22 24  1  0
 25 24  1  0
 25 26  1  1
 25 27  1  0
 28 29  1  0
 30 31  1  0
 31 32  1  0
 31 34  2  0
 32 33  1  0
M  END
>  <DRUGBANK_ID>  (1) 
DB12247

>  <COMMON_NAME>  (1) 
AZD-4547

>  <CAS_NUMBER>  (1) 
1035270-39-3

>  <UNII>  (1) 
2167OG1EKJ

$$$$
