
     RDKit          3D

 22 23  0  0  0  0  0  0  0  0999 V2000
    1.2539    0.1611    0.1218 C   0  0  0  0  0  0  0  0  0  0  0  0
    0.6525    1.3771   -0.5793 C   0  0  0  0  0  0  0  0  0  0  0  0
    1.5321    1.6268   -1.8234 C   0  0  0  0  0  0  0  0  0  0  0  0
   -0.8182    1.2413   -0.7245 N   0  0  0  0  0  0  0  0  0  0  0  0
   -1.4821    2.4854   -1.2372 C   0  0  0  0  0  0  0  0  0  0  0  0
   -1.3070    2.9411   -2.7162 C   0  0  0  0  0  0  0  0  0  0  0  0
   -1.9138    2.0535   -3.8464 C   0  0  0  0  0  0  0  0  0  0  0  0
   -3.4005    1.9155   -3.7742 C   0  0  0  0  0  0  0  0  0  0  0  0
   -3.9757    0.6253   -3.6416 C   0  0  0  0  0  0  0  0  0  0  0  0
   -5.3217    0.5012   -3.3406 C   0  0  0  0  0  0  0  0  0  0  0  0
   -6.0575    1.6581   -3.1744 C   0  0  0  0  0  0  0  0  0  0  0  0
   -5.4767    2.9274   -3.2622 C   0  0  0  0  0  0  0  0  0  0  0  0
   -4.1409    3.0553   -3.6070 C   0  0  0  0  0  0  0  0  0  0  0  0
   -1.1971    2.1178   -5.1622 C   0  0  0  0  0  0  0  0  0  0  0  0
   -0.9459    3.3686   -5.7197 C   0  0  0  0  0  0  0  0  0  0  0  0
   -0.2791    3.4531   -6.9149 C   0  0  0  0  0  0  0  0  0  0  0  0
    0.2003    2.3087   -7.5635 C   0  0  0  0  0  0  0  0  0  0  0  0
    0.0461    1.0517   -6.9708 C   0  0  0  0  0  0  0  0  0  0  0  0
   -0.6678    0.9602   -5.7969 C   0  0  0  0  0  0  0  0  0  0  0  0
   -1.3517   -0.0089   -1.3182 C   0  0  0  0  0  0  0  0  0  0  0  0
   -0.6864   -0.3068   -2.6453 C   0  0  0  0  0  0  0  0  0  0  0  0
   -1.2590   -1.3767   -0.6447 C   0  0  0  0  0  0  0  0  0  0  0  0
  1  2  1  0
  2  3  1  0
  2  4  1  0
  4  5  1  0
  4 20  1  0
  5  6  1  0
  6  7  1  0
  7  8  1  0
  7 14  1  0
  8  9  2  0
  8 13  1  0
  9 10  1  0
 10 11  2  0
 11 12  1  0
 12 13  2  0
 14 15  2  0
 14 19  1  0
 15 16  1  0
 16 17  2  0
 17 18  1  0
 18 19  2  0
 20 21  1  0
 20 22  1  0
M  END
>  <DRUGBANK_ID>  (1) 
DB13476

>  <COMMON_NAME>  (1) 
Diisopromine

>  <CAS_NUMBER>  (1) 
5966-41-6

>  <UNII>  (1) 
2825S6AW9U

>  <SYNONYMS>  (1) 
Diisopromine

$$$$
