ZAM
     RDKit          3D

 28 30  0  0  0  0  0  0  0  0999 V2000
    0.9482    0.0736   -0.0765 C   0  0  0  0  0  0  0  0  0  0  0  0
   -0.4051   -1.0296   -1.9090 C   0  0  0  0  0  0  0  0  0  0  0  0
    1.2120    5.0495    0.5183 C   0  0  0  0  0  0  0  0  0  0  0  0
    1.4936    7.4992    0.6156 C   0  0  0  0  0  0  0  0  0  0  0  0
    0.0321    6.4514    2.2750 C   0  0  0  0  0  0  0  0  0  0  0  0
   -0.4497    1.1842    1.7474 C   0  0  0  0  0  0  0  0  0  0  0  0
    0.4874    1.2822    0.7058 C   0  0  0  0  0  0  0  0  0  0  0  0
    1.0271    2.5550    0.3592 C   0  0  0  0  0  0  0  0  0  0  0  0
    0.6269    3.7367    0.9925 C   0  0  0  0  0  0  0  0  0  0  0  0
   -0.2913    3.5814    2.0244 C   0  0  0  0  0  0  0  0  0  0  0  0
   -0.7961    2.3475    2.4121 C   0  0  0  0  0  0  0  0  0  0  0  0
   -0.8627   -0.0129    2.3294 N   0  0  0  0  0  0  0  0  0  0  0  0
    0.3941    0.0022   -1.4388 N   0  0  0  0  0  0  0  0  0  0  0  0
    0.7547    1.0627   -2.3767 C   0  0  0  0  0  0  0  0  0  0  0  0
   -0.8298   -1.0707   -3.0665 O   0  0  0  0  0  0  0  0  0  0  0  0
   -0.7572   -2.1449   -0.9582 C   0  0  0  0  0  0  0  0  0  0  0  0
    0.9083    6.2697    1.1341 N   0  0  0  0  0  0  0  0  0  0  0  0
    1.9857    5.0004   -0.4490 O   0  0  0  0  0  0  0  0  0  0  0  0
    0.3994    8.4320    0.1865 C   0  0  0  0  0  0  0  0  0  0  0  0
   -0.8646    8.1316   -0.2936 C   0  0  0  0  0  0  0  0  0  0  0  0
   -1.5507    9.3391   -0.5492 C   0  0  0  0  0  0  0  0  0  0  0  0
   -0.6825   10.3806   -0.2205 C   0  0  0  0  0  0  0  0  0  0  0  0
    0.4997    9.8067    0.2179 N   0  0  0  0  0  0  0  0  0  0  0  0
    1.6647   10.5768    0.6021 C   0  0  0  0  0  0  0  0  0  0  0  0
   -2.8338    9.6349   -1.0452 C   0  0  0  0  0  0  0  0  0  0  0  0
   -3.2081   10.9693   -1.2173 C   0  0  0  0  0  0  0  0  0  0  0  0
   -1.0567   11.7247   -0.3732 C   0  0  0  0  0  0  0  0  0  0  0  0
   -2.3305   11.9973   -0.8841 C   0  0  0  0  0  0  0  0  0  0  0  0
  1  7  1  0
  1 13  1  0
  2 13  1  0
  2 15  2  0
  2 16  1  0
  3  9  1  0
  3 17  1  0
  3 18  2  0
  4 17  1  0
  4 19  1  0
  5 17  1  0
  6  7  2  0
  6 11  1  0
  6 12  1  0
  7  8  1  0
  8  9  2  0
  9 10  1  0
 10 11  2  0
 13 14  1  0
 19 20  2  0
 19 23  1  0
 20 21  1  0
 21 22  2  0
 21 25  1  0
 22 23  1  0
 22 27  1  0
 23 24  1  0
 25 26  2  0
 26 28  1  0
 27 28  2  0
M  END
>  <DRUGBANK_ID>  (1) 
DB03534

>  <SECONDARY_ACCESSION_NUMBERS>  (1) 
EXPT03283

>  <COMMON_NAME>  (1) 
3-[(Acetyl-Methyl-Amino)-Methyl]-4-Amino-N-Methyl-N-(1-Methyl-1h-Indol-2-Ylmethyl)-Benzamide

$$$$
