
     RDKit          3D

 20 16  0  0  0  0  0  0  0  0999 V2000
   -0.2560   -0.2428    0.5077 C   0  0  0  0  0  0  0  0  0  0  0  0
    0.3474    1.5206    0.7097 C   0  0  1  0  0  0  0  0  0  0  0  0
    1.4904    2.9840   -0.2891 C   0  0  0  0  0  0  0  0  0  0  0  0
   -1.1696    1.7374    1.0182 N   0  0  0  0  0  0  0  0  0  0  0  0
    0.8215    3.8441   -0.9404 O   0  0  0  0  0  0  0  0  0  0  0  0
    2.6570    2.6902   -0.4380 O   0  0  0  0  0  0  0  0  0  0  0  0
   -1.8179   -0.5310   -1.2039 S   0  0  0  0  0  0  0  0  0  0  0  0
    0.7705   -0.1005   -1.7073 C   0  0  0  0  0  0  0  0  0  0  0  0
   -0.0194    1.5318   -1.7694 C   0  0  1  0  0  0  0  0  0  0  0  0
    0.7802    1.8538   -2.9627 C   0  0  0  0  0  0  0  0  0  0  0  0
   -1.5092    1.9250   -1.5048 N   0  0  0  0  0  0  0  0  0  0  0  0
    0.2883    2.0249   -3.9472 O   0  0  0  0  0  0  0  0  0  0  0  0
    2.1134    1.4738   -2.7603 O   0  0  0  0  0  0  0  0  0  0  0  0
    0.1086   -2.2658   -1.5614 S   0  0  0  0  0  0  0  0  0  0  0  0
    2.4800   -0.2177    0.7058 C   0  0  0  0  0  0  0  0  0  0  0  0
    2.2743   -1.8873    0.0015 C   0  0  0  0  0  0  0  0  0  0  0  0
    1.6424    0.0931    2.2138 N   0  0  0  0  0  0  0  0  0  0  0  0
    1.6618   -2.7750    0.6187 O   0  0  0  0  0  0  0  0  0  0  0  0
    2.4735   -2.1120   -1.3965 O   0  0  0  0  0  0  0  0  0  0  0  0
   -2.4683   -0.6741    0.6440 Fe  0  0  0  0  0 15  0  0  0  0  0  0
  2  1  1  0
  2  3  1  0
  2  4  1  6
  5  3  2  0
  6  3  1  0
  7  1  1  0
  9  8  1  0
  9 10  1  0
  9 11  1  6
 12 10  2  0
 13 10  1  0
 14  8  1  0
 16 15  1  0
 17 15  1  0
 18 16  2  0
 19 16  1  0
M  CHG  3   6  -1   7  -1  20   2
M  END
>  <DRUGBANK_ID>  (1) 
DB11197

>  <COMMON_NAME>  (1) 
Ferrous cysteine glycinate

>  <UNII>  (1) 
8B4OP7RK5N

>  <SYNONYMS>  (1) 
Ferrous cysteine glycinate chelate (1:2:1)

$$$$
