
     RDKit          3D

 29 30  0  0  0  0  0  0  0  0999 V2000
    3.4636    7.9124    5.6849 P   0  0  0  0  0  0  0  0  0  0  0  0
    6.6190    4.1951   -0.2640 O   0  0  0  0  0  0  0  0  0  0  0  0
    7.3079    6.8845    0.4999 O   0  0  0  0  0  0  0  0  0  0  0  0
    3.6822    6.8918   -0.4110 O   0  0  0  0  0  0  0  0  0  0  0  0
    6.0695    4.1360    4.6966 O   0  0  0  0  0  0  0  0  0  0  0  0
    4.2642    8.8818    6.7674 O   0  0  0  0  0  0  0  0  0  0  0  0
    5.7281   10.0763    5.2442 O   0  0  0  0  0  0  0  0  0  0  0  0
    3.8012    9.6770    0.5015 O   0  0  0  0  0  0  0  0  0  0  0  0
    7.3545   10.3324    1.6322 O   0  0  0  0  0  0  0  0  0  0  0  0
    1.8957    8.3024    5.8276 O   0  0  0  0  0  0  0  0  0  0  0  0
    3.2478    6.9479    7.1048 O   0  0  0  0  0  0  0  0  0  0  0  0
    3.6568    8.7756    4.4141 O   0  0  0  0  0  0  0  0  0  0  0  0
    6.5517    5.7968    3.0788 N   0  0  0  0  0  0  0  0  0  0  0  0
    6.0026    6.4647    5.1296 N   0  0  0  0  0  0  0  0  0  0  0  0
    7.0917    8.1870    2.3397 N   0  0  0  0  0  0  0  0  0  0  0  0
    5.8200    9.8409    3.1931 N   0  0  0  0  0  0  0  0  0  0  0  0
    6.8105    4.7985    2.0453 C   0  0  0  0  0  0  0  0  0  0  0  0
    5.9573    4.9859    0.7388 C   0  0  1  0  0  0  0  0  0  0  0  0
    5.9949    6.4305    0.1686 C   0  0  1  0  0  0  0  0  0  0  0  0
    6.5802    7.2188    3.1711 C   0  0  0  0  0  0  0  0  0  0  0  0
    6.1176    7.6283    4.3363 C   0  0  0  0  0  0  0  0  0  0  0  0
    6.1949    5.3148    4.3362 C   0  0  0  0  0  0  0  0  0  0  0  0
    5.5663    6.1695    6.4333 C   0  0  0  0  0  0  0  0  0  0  0  0
    4.7200    7.3131    0.4762 C   0  0  1  0  0  0  0  0  0  0  0  0
    5.9856    7.1936    7.4739 C   0  0  0  0  0  0  0  0  0  0  0  0
    5.8970    9.2342    4.3757 C   0  0  0  0  0  0  0  0  0  0  0  0
    4.9010    8.8186    0.2515 C   0  0  0  0  0  0  0  0  0  0  0  0
    6.8400    9.5274    2.4276 C   0  0  0  0  0  0  0  0  0  0  0  0
    5.6454    8.6111    7.1210 C   0  0  0  0  0  0  0  0  0  0  0  0
  1  6  1  0
  1 10  1  0
  1 11  1  0
  1 12  2  0
  5 22  2  0
  6 29  1  0
  7 26  2  0
  8 27  1  0
  9 28  2  0
 13 17  1  0
 13 20  1  0
 13 22  1  0
 14 21  1  0
 14 22  1  0
 14 23  1  0
 15 20  1  0
 15 28  1  0
 16 26  1  0
 16 28  1  0
 18 17  1  0
 18  2  1  6
 19 18  1  0
 19  3  1  1
 20 21  2  0
 21 26  1  0
 23 25  1  0
 24 27  1  0
 24 19  1  0
 24  4  1  6
 25 29  1  0
M  END
>  <DRUGBANK_ID>  (1) 
DB02290

>  <SECONDARY_ACCESSION_NUMBERS>  (1) 
EXPT02997

>  <COMMON_NAME>  (1) 
3-{2,6,8-trioxo-9-[(2S,3S,4R)-2,3,4,5-tetrahydroxypentyl]-1,2,3,6,8,9-hexahydro-7H-purin-7-Yl}propyl dihydrogen phosphate

$$$$
