
     RDKit          3D

 27 30  0  0  0  0  0  0  0  0999 V2000
    0.3001   -4.8116   -2.9995 C   0  0  0  0  0  0  0  0  0  0  0  0
    3.9249   -3.9507   -2.5711 C   0  0  0  0  0  0  0  0  0  0  0  0
   -0.1447   -5.3896   -0.5833 C   0  0  2  0  0  0  0  0  0  0  0  0
    0.8462   -3.1755    0.3424 C   0  0  0  0  0  0  0  0  0  0  0  0
    0.2388   -5.8880   -1.9738 C   0  0  0  0  0  0  0  0  0  0  0  0
    4.1925   -4.8736    0.3042 C   0  0  1  0  0  0  0  0  0  0  0  0
    1.9237   -4.0991    0.7692 C   0  0  1  0  0  0  0  0  0  0  0  0
    5.2162   -4.9569   -1.9994 C   0  0  1  0  0  0  0  0  0  0  0  0
    5.5739   -5.0108   -0.2997 C   0  0  0  0  0  0  0  0  0  0  0  0
    4.5042   -4.0610    1.5419 C   0  0  0  0  0  0  0  0  0  0  0  0
    6.5472   -5.3640    0.7065 C   0  0  0  0  0  0  0  0  0  0  0  0
    4.8475   -4.7439    2.6274 C   0  0  0  0  0  0  0  0  0  0  0  0
    2.6657   -4.2802   -1.7142 C   0  0  1  0  0  0  0  0  0  0  0  0
    3.0855   -3.9530   -0.2458 C   0  0  2  0  0  0  0  0  0  0  0  0
    0.1845   -3.8125   -0.8721 C   0  0  2  0  0  0  0  0  0  0  0  0
   -1.0699   -2.8915   -1.1620 C   0  0  0  0  0  0  0  0  0  0  0  0
    1.1548   -3.8071   -2.1492 C   0  0  2  0  0  0  0  0  0  0  0  0
    7.1195   -4.1657    3.0107 O   0  0  0  0  0  0  0  0  0  0  0  0
    6.2651   -4.7119    2.2479 C   0  0  0  0  0  0  0  0  0  0  0  0
    3.7727   -6.4062    0.2085 C   0  0  0  0  0  0  0  0  0  0  0  0
   -1.3161   -4.8677    0.1044 O   0  0  0  0  0  0  0  0  0  0  0  0
   -0.8971   -6.7054   -0.0286 C   0  0  0  0  0  0  0  0  0  0  0  0
    2.0658   -3.8830    2.1666 O   0  0  0  0  0  0  0  0  0  0  0  0
   -1.5121   -6.8129    1.0492 O   0  0  0  0  0  0  0  0  0  0  0  0
   -0.7766   -8.0350   -0.8198 C   0  0  0  0  0  0  0  0  0  0  0  0
   -1.2264   -8.1226   -2.1615 O   0  0  0  0  0  0  0  0  0  0  0  0
    5.8380   -5.8579   -3.1282 C   0  0  0  0  0  0  0  0  0  0  0  0
  2  8  1  0
  3  5  1  0
  3 22  1  0
  3 21  1  6
  4  7  1  0
  5  1  1  0
  6  9  1  0
  6 10  1  0
  6 20  1  1
  7 23  1  1
  8  9  1  0
  8 27  1  1
  9 11  2  0
 10 12  2  0
 11 19  1  0
 12 19  1  0
 13 14  1  0
 13  2  1  6
 14  6  1  0
 14  7  1  1
 15  3  1  0
 15  4  1  0
 15 16  1  6
 17 13  1  0
 17 15  1  0
 17  1  1  6
 19 18  2  0
 24 22  2  0
 25 22  1  0
 26 25  1  0
M  END
>  <DRUGBANK_ID>  (1) 
DB00959

>  <SECONDARY_ACCESSION_NUMBERS>  (1) 
APRD00342

>  <COMMON_NAME>  (1) 
Methylprednisolone

>  <CAS_NUMBER>  (1) 
83-43-2

>  <UNII>  (1) 
X4W7ZR7023

>  <SYNONYMS>  (1) 
(6α,11β)-11,17,21-trihydroxy-6-methylpregna-1,4-diene-3,20-dione; 1-dehydro-6α-methylhydrocortisone; 6α-methyl-11β,17α,21-triol-1,4-pregnadiene-3,20-dione; delta(1)-6alpha-Methylhydrocortisone; Methylprednisolon; Methylprednisolone; Methylprednisolonum; Metilprednisolona

$$$$
