
     RDKit          3D

 32 34  0  0  0  0  0  0  0  0999 V2000
   -2.1928    0.1122    0.0035 Cl  0  0  0  0  0  0  0  0  0  0  0  0
    6.2901   -0.7954    4.7938 S   0  0  0  0  0  0  0  0  0  0  0  0
    4.2339    1.4609    6.3216 O   0  0  0  0  0  0  0  0  0  0  0  0
    3.3564   -0.0033    5.0120 O   0  0  0  0  0  0  0  0  0  0  0  0
    4.3904   -0.7271    1.2293 N   0  0  0  0  0  0  0  0  0  0  0  0
    4.7382   -2.2281    2.8434 C   0  0  0  0  0  0  0  0  0  0  0  0
    4.9898   -0.0813    2.2969 C   0  0  0  0  0  0  0  0  0  0  0  0
    5.3924   -1.0045    3.2441 C   0  0  0  0  0  0  0  0  0  0  0  0
    4.2929   -2.0718    1.5258 C   0  0  0  0  0  0  0  0  0  0  0  0
    5.0608    1.3714    2.3554 C   0  0  0  0  0  0  0  0  0  0  0  0
    4.4891   -3.4750    3.4502 C   0  0  0  0  0  0  0  0  0  0  0  0
    3.7978   -3.1496    0.7716 C   0  0  0  0  0  0  0  0  0  0  0  0
    3.8565   -0.0920    0.0079 C   0  0  0  0  0  0  0  0  0  0  0  0
    3.8327   -4.5114    2.7440 C   0  0  0  0  0  0  0  0  0  0  0  0
    4.2158    2.0271    3.5404 C   0  0  0  0  0  0  0  0  0  0  0  0
    3.4746   -4.3321    1.4156 C   0  0  0  0  0  0  0  0  0  0  0  0
    6.9775    0.9446    5.1274 C   0  0  0  0  0  0  0  0  0  0  0  0
    2.3433    0.0122   -0.0252 C   0  0  0  0  0  0  0  0  0  0  0  0
    3.9244    1.0717    5.0402 C   0  0  0  0  0  0  0  0  0  0  0  0
    3.6218   -5.8654    3.3752 C   0  0  0  0  0  0  0  0  0  0  0  0
    4.7046    3.5990    3.3353 C   0  0  0  0  0  0  0  0  0  0  0  0
    2.7543    2.0458    3.1483 C   0  0  0  0  0  0  0  0  0  0  0  0
    1.6687    1.2381   -0.0281 C   0  0  0  0  0  0  0  0  0  0  0  0
    1.5518   -1.1390   -0.0800 C   0  0  0  0  0  0  0  0  0  0  0  0
    8.0728    1.0829    4.0608 C   0  0  0  0  0  0  0  0  0  0  0  0
    6.3432    2.3185    5.0099 C   0  0  0  0  0  0  0  0  0  0  0  0
    7.4792    1.0051    6.5627 C   0  0  0  0  0  0  0  0  0  0  0  0
    0.2632    1.2739   -0.0213 C   0  0  0  0  0  0  0  0  0  0  0  0
    0.1687   -1.1227   -0.0464 C   0  0  0  0  0  0  0  0  0  0  0  0
    4.9876   -6.4643    3.7051 C   0  0  0  0  0  0  0  0  0  0  0  0
    2.7319   -5.7540    4.6063 C   0  0  0  0  0  0  0  0  0  0  0  0
   -0.4778    0.0916   -0.0154 C   0  0  0  0  0  0  0  0  0  0  0  0
  1 32  1  0
  2 17  1  0
  5  9  1  0
  6  8  1  0
  6  9  2  0
  7  5  1  0
  7 10  1  0
  8  2  1  0
  8  7  2  0
  9 12  1  0
 10 15  1  0
 11  6  1  0
 12 16  2  0
 13  5  1  0
 14 11  2  0
 14 20  1  0
 15 19  1  0
 15 21  1  0
 15 22  1  0
 16 14  1  0
 17 25  1  0
 17 26  1  0
 17 27  1  0
 18 13  1  0
 18 23  2  0
 19  3  1  0
 19  4  2  0
 20 30  1  0
 20 31  1  0
 23 28  1  0
 24 18  1  0
 28 32  2  0
 29 24  2  0
 32 29  1  0
M  END
>  <DRUGBANK_ID>  (1) 
DB16739

>  <COMMON_NAME>  (1) 
MK-886

>  <CAS_NUMBER>  (1) 
118414-82-7

>  <UNII>  (1) 
080626SQ8C

$$$$
