
     RDKit          3D

 11 11  0  0  0  0  0  0  0  0999 V2000
    1.0809   -0.0991    0.0498 C   0  0  0  0  0  0  0  0  0  0  0  0
    0.3037   -1.0520   -0.7905 C   0  0  0  0  0  0  0  0  0  0  0  0
    0.4683    0.7424    0.7070 O   0  0  0  0  0  0  0  0  0  0  0  0
   -2.2203   -3.5807   -2.9233 O   0  0  0  0  0  0  0  0  0  0  0  0
   -0.8371   -0.5602   -1.4400 C   0  0  0  0  0  0  0  0  0  0  0  0
    0.5809   -2.4246   -0.8596 C   0  0  0  0  0  0  0  0  0  0  0  0
   -1.3616   -2.7770   -2.2358 C   0  0  0  0  0  0  0  0  0  0  0  0
    2.4346   -0.1394    0.0768 O   0  0  0  0  0  0  0  0  0  0  0  0
   -0.2305   -3.2836   -1.6090 C   0  0  0  0  0  0  0  0  0  0  0  0
   -1.6698   -1.4242   -2.1559 C   0  0  0  0  0  0  0  0  0  0  0  0
    3.2357   -0.9567   -0.7849 C   0  0  0  0  0  0  0  0  0  0  0  0
  2  1  1  0
  3  1  2  0
  4  7  1  0
  5  2  2  0
  6  2  1  0
  7  9  1  0
  8  1  1  0
  9  6  2  0
 10  5  1  0
 10  7  2  0
 11  8  1  0
M  END
>  <DRUGBANK_ID>  (1) 
DB14212

>  <COMMON_NAME>  (1) 
Methylparaben

>  <CAS_NUMBER>  (1) 
99-76-3

>  <UNII>  (1) 
A2I8C7HI9T

>  <SYNONYMS>  (1) 
Methyl 4-hydroxybenzoate; methyl p-hydroxybenzoate; Methyl paraben; Methylparaben; p-Hydroxybenzoic acid methyl ester; p-Methoxycarbonylphenol; p-Oxybenzoesauremethylester

$$$$
