
     RDKit          3D

 10 11  0  0  0  0  0  0  0  0999 V2000
    0.9207    0.0153    0.0762 O   0  0  0  0  0  0  0  0  0  0  0  0
    2.5368   -2.4829    0.0744 N   0  0  0  0  0  0  0  0  0  0  0  0
    4.9746   -0.0682    0.0629 N   0  0  0  0  0  0  0  0  0  0  0  0
    4.7710   -2.4688    0.0658 N   0  0  0  0  0  0  0  0  0  0  0  0
    2.9117    1.1770    0.0701 N   0  0  0  0  0  0  0  0  0  0  0  0
    2.9199   -1.1744    0.0720 C   0  0  0  0  0  0  0  0  0  0  0  0
    4.2809   -1.2058    0.0668 C   0  0  0  0  0  0  0  0  0  0  0  0
    2.1450    0.0237    0.0733 C   0  0  0  0  0  0  0  0  0  0  0  0
    3.6903   -3.2292    0.0703 C   0  0  0  0  0  0  0  0  0  0  0  0
    4.2047    1.0675    0.0650 C   0  0  0  0  0  0  0  0  0  0  0  0
  1  8  2  0
  2  6  1  0
  2  9  1  0
  3  7  1  0
  3 10  1  0
  4  7  1  0
  4  9  2  0
  5  8  1  0
  5 10  2  0
  6  7  2  0
  6  8  1  0
M  END
>  <DRUGBANK_ID>  (1) 
DB04076

>  <SECONDARY_ACCESSION_NUMBERS>  (1) 
EXPT01767

>  <COMMON_NAME>  (1) 
Hypoxanthine

>  <CAS_NUMBER>  (1) 
68-94-0

>  <UNII>  (1) 
2TN51YD919

$$$$
