
     RDKit          3D

 31 36  0  0  0  0  0  0  0  0999 V2000
   -0.3379    0.5748   -0.0537 C   0  0  0  0  0  0  0  0  0  0  0  0
    0.8980    1.3517   -0.0389 C   0  0  0  0  0  0  0  0  0  0  0  0
   -0.2860   -0.7883   -0.0320 N   0  0  0  0  0  0  0  0  0  0  0  0
    2.0527    0.6982   -0.0490 N   0  0  0  0  0  0  0  0  0  0  0  0
    2.0532   -0.7046   -0.0799 C   0  0  0  0  0  0  0  0  0  0  0  0
    0.9267   -1.4403   -0.0453 C   0  0  0  0  0  0  0  0  0  0  0  0
   -1.5787    1.0123   -0.0963 N   0  0  0  0  0  0  0  0  0  0  0  0
   -2.3592   -0.1023   -0.0381 C   0  0  0  0  0  0  0  0  0  0  0  0
   -1.5798   -1.2362   -0.0050 C   0  0  0  0  0  0  0  0  0  0  0  0
    0.9176    2.7415   -0.0431 N   0  0  0  0  0  0  0  0  0  0  0  0
   -0.2055    3.5844    0.0601 C   0  0  0  0  0  0  0  0  0  0  0  0
   -1.0931    3.4870    1.1374 C   0  0  0  0  0  0  0  0  0  0  0  0
   -2.2687    4.2514    1.1895 C   0  0  0  0  0  0  0  0  0  0  0  0
   -2.5912    5.1650    0.1823 C   0  0  0  0  0  0  0  0  0  0  0  0
   -1.6786    5.2932   -0.8716 C   0  0  0  0  0  0  0  0  0  0  0  0
   -0.5075    4.5117   -0.9406 C   0  0  0  0  0  0  0  0  0  0  0  0
   -3.7394    5.9209    0.2329 N   0  0  0  0  0  0  0  0  0  0  0  0
   -4.0900    6.6978    1.4224 C   0  0  0  0  0  0  0  0  0  0  0  0
   -5.4689    6.2751    1.9445 C   0  0  0  0  0  0  0  0  0  0  0  0
   -6.4723    6.3690    0.9176 O   0  0  0  0  0  0  0  0  0  0  0  0
   -6.1315    5.5092   -0.1872 C   0  0  0  0  0  0  0  0  0  0  0  0
   -4.7703    5.8882   -0.8126 C   0  0  0  0  0  0  0  0  0  0  0  0
    5.4402   -4.2232   -1.4933 N   0  0  0  0  0  0  0  0  0  0  0  0
    6.6731   -4.5522   -1.0548 N   0  0  0  0  0  0  0  0  0  0  0  0
    6.8444   -3.7576    0.0024 C   0  0  0  0  0  0  0  0  0  0  0  0
    5.7443   -2.9032    0.2185 C   0  0  0  0  0  0  0  0  0  0  0  0
    5.4048   -1.9443    1.1809 C   0  0  0  0  0  0  0  0  0  0  0  0
    4.2108   -1.2260    1.0354 C   0  0  0  0  0  0  0  0  0  0  0  0
    3.3502   -1.4415   -0.0499 C   0  0  0  0  0  0  0  0  0  0  0  0
    3.6907   -2.4106   -1.0283 C   0  0  0  0  0  0  0  0  0  0  0  0
    4.8766   -3.1518   -0.8386 C   0  0  0  0  0  0  0  0  0  0  0  0
  1  2  1  0
  1  3  1  0
  2  4  2  0
  2 10  1  0
  3  6  1  0
  4  5  1  0
  5  6  2  0
  5 29  1  0
  7  8  1  0
  7  1  2  0
  8  9  2  0
  9  3  1  0
 10 11  1  0
 11 12  2  0
 11 16  1  0
 12 13  1  0
 13 14  2  0
 14 15  1  0
 14 17  1  0
 15 16  2  0
 17 18  1  0
 17 22  1  0
 18 19  1  0
 19 20  1  0
 20 21  1  0
 21 22  1  0
 23 24  1  0
 23 31  1  0
 24 25  2  0
 25 26  1  0
 26 27  1  0
 26 31  2  0
 27 28  2  0
 28 29  1  0
 29 30  2  0
 30 31  1  0
M  END
>  <DRUGBANK_ID>  (1) 
DB12121

>  <COMMON_NAME>  (1) 
Entospletinib

>  <CAS_NUMBER>  (1) 
1229208-44-9

>  <UNII>  (1) 
6I3O3W6O3B

>  <SYNONYMS>  (1) 
Entospletinib

$$$$
