
     RDKit          3D

 17 17  0  0  0  0  0  0  0  0999 V2000
   -2.0283   -0.7712    0.0112 C   0  0  0  0  0  0  0  0  0  0  0  0
   -1.1574   -1.8469   -0.0014 C   0  0  0  0  0  0  0  0  0  0  0  0
    0.1970   -1.6080   -0.0141 C   0  0  0  0  0  0  0  0  0  0  0  0
    0.7165   -0.3095   -0.0087 C   0  0  0  0  0  0  0  0  0  0  0  0
   -0.1439    0.8276    0.0178 C   0  0  0  0  0  0  0  0  0  0  0  0
   -1.5558    0.5645    0.0133 C   0  0  0  0  0  0  0  0  0  0  0  0
    0.2702    2.2066    0.0504 N   0  0  0  0  0  0  0  0  0  0  0  0
    1.5635    2.6972    0.0405 C   0  0  0  0  0  0  0  0  0  0  0  0
    1.7423    4.1946    0.1183 C   0  0  0  0  0  0  0  0  0  0  0  0
    2.6239    4.4699    1.2632 N   0  0  0  0  0  0  0  0  0  0  0  0
    3.0280    5.8579    1.3407 C   0  0  0  0  0  0  0  0  0  0  0  0
    1.8134    6.7736    1.4849 C   0  0  0  0  0  0  0  0  0  0  0  0
    0.9561    6.4210    2.7064 C   0  0  0  0  0  0  0  0  0  0  0  0
    1.7364    6.6200    3.9949 C   0  0  0  0  0  0  0  0  0  0  0  0
   -2.6334    1.6285   -0.0248 C   0  0  0  0  0  0  0  0  0  0  0  0
    2.4414   -0.4328   -0.0603 Cl  0  0  0  0  0  0  0  0  0  0  0  0
    2.6089    2.0574   -0.0070 O   0  0  0  0  0  0  0  0  0  0  0  0
  1  2  2  0
  1  6  1  0
  2  3  1  0
  3  4  2  0
  4  5  1  0
  4 16  1  0
  5  6  2  0
  5  7  1  0
  6 15  1  0
  7  8  1  0
  8  9  1  0
  8 17  2  0
  9 10  1  0
 10 11  1  0
 11 12  1  0
 12 13  1  0
 13 14  1  0
M  END
>  <DRUGBANK_ID>  (1) 
DB13328

>  <COMMON_NAME>  (1) 
Butanilicaine

>  <CAS_NUMBER>  (1) 
3785-21-5

>  <UNII>  (1) 
7X3WV51F4N

>  <SYNONYMS>  (1) 
2-(Butylamino)-6'-chloro-o-acetoluidide; 2-(Butylamino)-N-(2-chloro-6-methylphenyl)acetamide; 2-Butylamino-6'-chloro-o-acetotoluidide; Butacetoluide; Butanilicaina; Butanilicaine; Butanilicainum

$$$$
