
     RDKit          3D

 12 12  0  0  0  0  0  0  0  0999 V2000
   -1.8964    0.6711    0.0021 C   0  0  0  0  0  0  0  0  0  0  0  0
   -0.7064    1.4223    0.0124 C   0  0  0  0  0  0  0  0  0  0  0  0
    0.5147    0.7705    0.0033 C   0  0  0  0  0  0  0  0  0  0  0  0
    0.5561   -0.6107    0.0055 C   0  0  0  0  0  0  0  0  0  0  0  0
   -0.6196   -1.3563    0.0128 C   0  0  0  0  0  0  0  0  0  0  0  0
   -1.8797   -0.7440   -0.0054 C   0  0  0  0  0  0  0  0  0  0  0  0
   -3.2183   -1.4493   -0.0351 C   0  0  0  0  0  0  0  0  0  0  0  0
   -4.2371   -0.7589   -0.0511 O   0  0  0  0  0  0  0  0  0  0  0  0
   -3.4028   -2.8053   -0.0531 N   0  0  0  0  0  0  0  0  0  0  0  0
   -2.5145   -3.8702   -0.0165 O   0  0  0  0  0  0  0  0  0  0  0  0
    1.7763   -1.2322    0.0049 O   0  0  0  0  0  0  0  0  0  0  0  0
    1.6744    1.4856   -0.0049 O   0  0  0  0  0  0  0  0  0  0  0  0
  1  2  2  0
  1  6  1  0
  2  3  1  0
  3  4  2  0
  3 12  1  0
  4  5  1  0
  4 11  1  0
  5  6  2  0
  6  7  1  0
  7  8  2  0
  7  9  1  0
  9 10  1  0
M  END
>  <DRUGBANK_ID>  (1) 
DB12948

>  <COMMON_NAME>  (1) 
Didox

>  <CAS_NUMBER>  (1) 
69839-83-4

>  <UNII>  (1) 
L106XFV0RQ

$$$$
