TPX
     RDKit          3D

 21 21  0  0  0  0  0  0  0  0999 V2000
   -0.7267   -1.4228    1.0806 C   0  0  0  0  0  0  0  0  0  0  0  0
    0.1066   -1.1649   -0.1567 C   0  0  2  0  0  0  0  0  0  0  0  0
    1.0635    0.0665    0.0423 C   0  0  2  0  0  0  0  0  0  0  0  0
    0.3511    1.4029    0.1068 C   0  0  0  0  0  0  0  0  0  0  0  0
   -0.8021   -1.2003   -1.4244 C   0  0  0  0  0  0  0  0  0  0  0  0
   -0.1463   -1.1475   -2.8098 C   0  0  0  0  0  0  0  0  0  0  0  0
   -0.8666   -2.5440    1.5615 O   0  0  0  0  0  0  0  0  0  0  0  0
    0.0987    1.8490    1.3513 O   0  0  0  0  0  0  0  0  0  0  0  0
    0.0269    2.0562   -0.8728 O   0  0  0  0  0  0  0  0  0  0  0  0
    1.9326    0.1235   -1.1929 C   0  0  0  0  0  0  0  0  0  0  0  0
    3.3544    0.4224   -1.1198 N   0  0  0  0  0  0  0  0  0  0  0  0
    3.2700    0.6431   -3.6860 O   0  0  0  0  0  0  0  0  0  0  0  0
    5.4781    0.5781   -2.4804 O   0  0  0  0  0  0  0  0  0  0  0  0
    4.1338    0.0930   -2.6526 S   0  0  0  0  0  0  0  0  0  0  0  0
    4.2095   -1.6856   -2.9240 C   0  0  0  0  0  0  0  0  0  0  0  0
    5.3225   -2.1943   -3.5915 C   0  0  0  0  0  0  0  0  0  0  0  0
    3.2097   -2.5959   -2.5709 C   0  0  0  0  0  0  0  0  0  0  0  0
    5.4088   -3.5704   -3.8710 C   0  0  0  0  0  0  0  0  0  0  0  0
    3.2755   -3.9512   -2.8622 C   0  0  0  0  0  0  0  0  0  0  0  0
    4.3844   -4.4540   -3.5090 C   0  0  0  0  0  0  0  0  0  0  0  0
    4.4317   -5.9213   -3.7856 C   0  0  0  0  0  0  0  0  0  0  0  0
  1  7  2  0
  2  5  1  6
  2  3  1  0
  2  1  1  0
  3 10  1  6
  3  4  1  0
  4  8  1  0
  4  9  2  0
  5  6  1  0
 10 11  1  0
 11 14  1  0
 12 14  2  0
 13 14  2  0
 14 15  1  0
 15 16  2  0
 15 17  1  0
 16 18  1  0
 17 19  2  0
 18 20  2  0
 19 20  1  0
 20 21  1  0
M  END
>  <DRUGBANK_ID>  (1) 
DB08640

>  <COMMON_NAME>  (1) 
(2S,3S)-3-FORMYL-2-({[(4-METHYLPHENYL)SULFONYL]AMINO}METHYL)PENTANOIC ACID

$$$$
