
     RDKit          3D

 29 30  0  0  1  0  0  0  0  0999 V2000
    1.0392   -0.1086    0.0762 C   0  0  0  0  0  0  0  0  0  0  0  0
    0.4934    0.8395   -0.9822 C   0  0  1  0  0  0  0  0  0  0  0  0
    1.0460    0.5005   -2.3614 C   0  0  0  0  0  0  0  0  0  0  0  0
    0.6080   -0.8045   -2.8938 N   0  0  0  0  0  0  0  0  0  0  0  0
    1.1514   -1.2566   -4.4138 S   0  0  0  0  0  0  0  0  0  0  0  0
    2.5906   -1.1390   -4.3791 O   0  0  0  0  0  0  0  0  0  0  0  0
    0.5384   -2.5462   -4.6667 O   0  0  0  0  0  0  0  0  0  0  0  0
    0.4686   -0.0493   -5.5837 C   0  0  0  0  0  0  0  0  0  0  0  0
   -1.0529   -0.0603   -5.5774 C   0  0  0  0  0  0  0  0  0  0  0  0
    1.0065    1.3679   -5.4125 C   0  0  0  0  0  0  0  0  0  0  0  0
   -1.0210    0.8776   -0.9841 C   0  0  0  0  0  0  0  0  0  0  0  0
   -1.7394   -0.3255   -0.9643 C   0  0  0  0  0  0  0  0  0  0  0  0
   -3.1173   -0.3349   -0.8749 C   0  0  0  0  0  0  0  0  0  0  0  0
   -3.8118    0.8692   -0.8131 C   0  0  0  0  0  0  0  0  0  0  0  0
   -3.1027    2.0811   -0.8377 C   0  0  0  0  0  0  0  0  0  0  0  0
   -1.7187    2.0909   -0.9812 C   0  0  0  0  0  0  0  0  0  0  0  0
   -5.2627    0.8693   -0.7836 C   0  0  0  0  0  0  0  0  0  0  0  0
   -5.9717    0.2385    0.2451 C   0  0  0  0  0  0  0  0  0  0  0  0
   -7.3621    0.3115    0.2909 C   0  0  0  0  0  0  0  0  0  0  0  0
   -8.0610    0.9881   -0.7152 C   0  0  0  0  0  0  0  0  0  0  0  0
   -7.3438    1.5586   -1.7749 C   0  0  0  0  0  0  0  0  0  0  0  0
   -5.9627    1.5039   -1.8096 C   0  0  0  0  0  0  0  0  0  0  0  0
   -9.5677    1.0490   -0.7050 C   0  0  0  0  0  0  0  0  0  0  0  0
  -10.1500    2.4571   -0.5078 C   0  0  0  0  0  0  0  0  0  0  0  0
   -9.7733    3.3800   -1.6096 N   0  0  0  0  0  0  0  0  0  0  0  0
  -10.2755    4.9807   -1.4939 S   0  0  0  0  0  0  0  0  0  0  0  0
   -9.8558    5.4442   -0.1970 O   0  0  0  0  0  0  0  0  0  0  0  0
   -9.8139    5.6253   -2.7088 O   0  0  0  0  0  0  0  0  0  0  0  0
  -12.0477    4.8559   -1.5424 C   0  0  0  0  0  0  0  0  0  0  0  0
  2  1  1  1
  2  3  1  0
  2 11  1  0
  3  4  1  0
  4  5  1  0
  5  6  2  0
  5  7  2  0
  5  8  1  0
  8  9  1  0
  8 10  1  0
 11 12  2  0
 11 16  1  0
 12 13  1  0
 13 14  2  0
 14 15  1  0
 14 17  1  0
 15 16  2  0
 17 18  2  0
 17 22  1  0
 18 19  1  0
 19 20  2  0
 20 21  1  0
 20 23  1  0
 21 22  2  0
 23 24  1  0
 24 25  1  0
 25 26  1  0
 26 27  2  0
 26 28  2  0
 26 29  1  0
M  END
>  <DRUGBANK_ID>  (1) 
DB12717

>  <COMMON_NAME>  (1) 
Mibampator

>  <CAS_NUMBER>  (1) 
375345-95-2

>  <UNII>  (1) 
A9V5BW73UU

>  <SYNONYMS>  (1) 
Mibampator

$$$$
