78A
     RDKit          3D

 31 33  0  0  0  0  0  0  0  0999 V2000
   -7.4465   -4.9671   -7.1157 N   0  0  0  0  0  0  0  0  0  0  0  0
   -8.3231   -4.9633   -8.3376 C   0  0  0  0  0  0  0  0  0  0  0  0
   -7.7150   -4.9696   -9.7483 C   0  0  0  0  0  0  0  0  0  0  0  0
   -7.6169   -6.1944  -10.4126 C   0  0  0  0  0  0  0  0  0  0  0  0
   -7.0769   -6.2909  -11.7009 C   0  0  0  0  0  0  0  0  0  0  0  0
   -6.5615   -5.1691  -12.3428 C   0  0  0  0  0  0  0  0  0  0  0  0
   -6.6721   -3.9299  -11.7297 C   0  0  0  0  0  0  0  0  0  0  0  0
   -7.3017   -3.8281  -10.4749 C   0  0  0  0  0  0  0  0  0  0  0  0
   -5.3964   -5.3612   -5.7272 C   0  0  1  0  0  0  0  0  0  0  0  0
   -4.3586   -6.2220   -5.2470 O   0  0  0  0  0  0  0  0  0  0  0  0
   -3.8280   -5.0511   -5.8721 C   0  0  2  0  0  0  0  0  0  0  0  0
   -3.2795   -3.9077   -5.0264 C   0  0  0  0  0  0  0  0  0  0  0  0
   -3.9206   -3.4956   -4.0630 O   0  0  0  0  0  0  0  0  0  0  0  0
   -2.2158   -3.1219   -5.4627 N   0  0  0  0  0  0  0  0  0  0  0  0
   -1.2100   -3.3117   -6.5521 C   0  0  2  0  0  0  0  0  0  0  0  0
   -1.8269   -3.3709   -7.9753 C   0  0  0  0  0  0  0  0  0  0  0  0
   -1.2329   -3.7781   -8.9712 O   0  0  0  0  0  0  0  0  0  0  0  0
   -0.4059   -4.5449   -6.1530 C   0  0  2  0  0  0  0  0  0  0  0  0
    0.2613   -4.3200   -4.7754 C   0  0  0  0  0  0  0  0  0  0  0  0
    0.6261   -5.0053   -7.1722 C   0  0  0  0  0  0  0  0  0  0  0  0
    0.5025   -5.6596   -4.1107 C   0  0  0  0  0  0  0  0  0  0  0  0
   -3.1506   -3.0656   -8.0668 N   0  0  0  0  0  0  0  0  0  0  0  0
   -3.8991   -1.9172   -7.4998 C   0  0  2  0  0  0  0  0  0  0  0  0
   -3.2784   -0.9733   -6.4752 C   0  0  0  0  0  0  0  0  0  0  0  0
   -3.9639   -0.7517   -5.3330 O   0  0  0  0  0  0  0  0  0  0  0  0
   -5.2169   -2.5550   -7.1291 C   0  0  0  0  0  0  0  0  0  0  0  0
   -5.3287   -3.4762   -8.3183 C   0  0  0  0  0  0  0  0  0  0  0  0
   -4.0033   -3.9873   -8.7578 C   0  0  0  0  0  0  0  0  0  0  0  0
   -2.1754   -0.4678   -6.6472 O   0  0  0  0  0  0  0  0  0  0  0  0
   -6.3680   -5.8433   -6.8238 C   0  0  0  0  0  0  0  0  0  0  0  0
   -6.1337   -6.8532   -7.5035 O   0  0  0  0  0  0  0  0  0  0  0  0
  1  2  1  0
  1 30  1  0
  2  3  1  0
  3  4  2  0
  3  8  1  0
  4  5  1  0
  5  6  2  0
  6  7  1  0
  7  8  2  0
  9 10  1  0
  9 11  1  0
  9 30  1  6
 10 11  1  0
 11 12  1  1
 12 13  2  0
 12 14  1  0
 15 16  1  0
 15 14  1  1
 16 17  2  0
 16 22  1  0
 18 20  1  6
 18 19  1  0
 18 15  1  0
 19 21  1  0
 22 23  1  0
 22 28  1  0
 23 26  1  0
 23 24  1  1
 24 25  1  0
 24 29  2  0
 26 27  1  0
 27 28  1  0
 30 31  2  0
M  END
>  <DRUGBANK_ID>  (1) 
DB07231

>  <COMMON_NAME>  (1) 
N-({(2S,3S)-3-[(BENZYLAMINO)CARBONYL]OXIRAN-2-YL}CARBONYL)-L-ISOLEUCYL-L-PROLINE

$$$$
