
     RDKit          3D

 27 29  0  0  1  0  0  0  0  0999 V2000
    1.3178   -8.8695   -3.5830 N   0  0  0  0  0  0  0  0  0  0  0  0
    0.8323   -8.0651   -2.4317 C   0  0  1  0  0  0  0  0  0  0  0  0
    0.5804   -6.9050   -3.4146 C   0  0  2  0  0  0  0  0  0  0  0  0
   -0.7663   -6.2442   -3.3980 N   0  0  0  0  0  0  0  0  0  0  0  0
   -0.9146   -5.0964   -2.6376 C   0  0  0  0  0  0  0  0  0  0  0  0
   -2.2009   -4.2691   -2.5837 C   0  0  2  0  0  0  0  0  0  0  0  0
   -2.1304   -3.3391   -0.9615 S   0  0  0  0  0  0  0  0  0  0  0  0
   -3.6441   -3.4662   -0.4025 O   0  0  0  0  0  0  0  0  0  0  0  0
   -1.3241   -4.0039    0.0375 O   0  0  0  0  0  0  0  0  0  0  0  0
   -1.9712   -1.9252   -1.2476 O   0  0  0  0  0  0  0  0  0  0  0  0
   -3.5876   -4.8425   -2.8535 C   0  0  0  0  0  0  0  0  0  0  0  0
   -4.7253   -4.0044   -2.8270 C   0  0  0  0  0  0  0  0  0  0  0  0
   -6.0110   -4.5073   -3.0301 C   0  0  0  0  0  0  0  0  0  0  0  0
   -6.1723   -5.8078   -3.4813 C   0  0  0  0  0  0  0  0  0  0  0  0
   -5.0581   -6.6075   -3.6678 C   0  0  0  0  0  0  0  0  0  0  0  0
   -3.8073   -6.1630   -3.2495 C   0  0  0  0  0  0  0  0  0  0  0  0
    0.1163   -4.6735   -2.1010 O   0  0  0  0  0  0  0  0  0  0  0  0
    0.8934   -7.9462   -4.5059 C   0  0  0  0  0  0  0  0  0  0  0  0
    0.7941   -8.0432   -5.7003 O   0  0  0  0  0  0  0  0  0  0  0  0
   -0.5776   -9.0305   -1.7901 S   0  0  0  0  0  0  0  0  0  0  0  0
    0.2140  -10.6320   -2.3217 C   0  0  0  0  0  0  0  0  0  0  0  0
    0.8664  -10.2716   -3.6726 C   0  0  2  0  0  0  0  0  0  0  0  0
    2.0211  -11.2018   -4.0684 C   0  0  0  0  0  0  0  0  0  0  0  0
    3.0286  -10.5875   -4.7320 O   0  0  0  0  0  0  0  0  0  0  0  0
    2.0232  -12.4108   -3.8836 O   0  0  0  0  0  0  0  0  0  0  0  0
   -0.9034  -11.6700   -2.4455 C   0  0  0  0  0  0  0  0  0  0  0  0
    1.2363  -11.0648   -1.2592 C   0  0  0  0  0  0  0  0  0  0  0  0
  2  1  1  0
  3  2  1  0
  3  4  1  6
  5  4  1  0
  6  7  1  0
  6  5  1  1
  8  7  1  0
  9  7  2  0
 10  7  2  0
 11  6  1  0
 12 11  2  0
 13 12  1  0
 14 13  2  0
 14 15  1  0
 15 16  2  0
 16 11  1  0
 17  5  2  0
 18  3  1  0
 18  1  1  0
 19 18  2  0
  2 20  1  6
 20 21  1  0
 21 22  1  0
 22  1  1  0
 22 23  1  1
 24 23  1  0
 25 23  2  0
 26 21  1  0
 27 21  1  0
M  END
>  <DRUGBANK_ID>  (1) 
DB13693

>  <COMMON_NAME>  (1) 
Sulbenicillin

>  <CAS_NUMBER>  (1) 
41744-40-5

>  <UNII>  (1) 
Q2VYF0562D

>  <SYNONYMS>  (1) 
Sulbenicillin

$$$$
