
     RDKit          3D

 12 12  0  0  0  0  0  0  0  0999 V2000
    0.1579   -1.1664   -0.1544 C   0  0  0  0  0  0  0  0  0  0  0  0
   -1.2255   -0.9826   -0.3159 C   0  0  0  0  0  0  0  0  0  0  0  0
    0.8410   -2.5074   -0.0371 C   0  0  0  0  0  0  0  0  0  0  0  0
    0.9167    0.0068   -0.0344 C   0  0  0  0  0  0  0  0  0  0  0  0
   -1.8605    0.2430   -0.1539 C   0  0  0  0  0  0  0  0  0  0  0  0
    0.1835   -3.6869    0.1009 O   0  0  0  0  0  0  0  0  0  0  0  0
    2.0795   -2.5185   -0.0060 O   0  0  0  0  0  0  0  0  0  0  0  0
    0.2935    1.2624    0.0117 C   0  0  0  0  0  0  0  0  0  0  0  0
   -1.0960    1.3769   -0.0071 C   0  0  0  0  0  0  0  0  0  0  0  0
   -1.2396   -3.8743    0.1740 C   0  0  0  0  0  0  0  0  0  0  0  0
   -1.8091   -3.2621    1.4534 C   0  0  0  0  0  0  0  0  0  0  0  0
    2.2863    0.0305    0.0383 O   0  0  0  0  0  0  0  0  0  0  0  0
  1  2  2  0
  1  3  1  0
  1  4  1  0
  2  5  1  0
  3  6  1  0
  3  7  2  0
  4  8  2  0
  4 12  1  0
  5  9  2  0
  6 10  1  0
  8  9  1  0
 10 11  1  0
M  END
>  <DRUGBANK_ID>  (1) 
DB15576

>  <COMMON_NAME>  (1) 
Ethyl salicylate

>  <CAS_NUMBER>  (1) 
118-61-6

>  <UNII>  (1) 
555U6TZ2MV

>  <SYNONYMS>  (1) 
Ethyl 2-hydroxybenzoate; Ethyl o-hydroxybenzoate; Ethyl salicylate; Salicyclic acid, ethyl ester; Salicylic ether; Salicylic ethyl ester

$$$$
