
     RDKit          3D

 23 25  0  0  0  0  0  0  0  0999 V2000
   -0.0401   -0.7287   -0.0012 C   0  0  0  0  0  0  0  0  0  0  0  0
    0.0040    0.6743    0.0030 C   0  0  0  0  0  0  0  0  0  0  0  0
   -1.2174   -1.4143   -0.0152 N   0  0  0  0  0  0  0  0  0  0  0  0
    1.2048   -1.3390    0.0032 C   0  0  0  0  0  0  0  0  0  0  0  0
   -1.1460    1.3971    0.0024 N   0  0  0  0  0  0  0  0  0  0  0  0
    1.1898    1.2944    0.0044 N   0  0  0  0  0  0  0  0  0  0  0  0
   -2.3733   -0.6867   -0.0355 C   0  0  0  0  0  0  0  0  0  0  0  0
    2.3924   -0.7004    0.0032 N   0  0  0  0  0  0  0  0  0  0  0  0
    1.2950   -2.7064    0.0020 O   0  0  0  0  0  0  0  0  0  0  0  0
   -2.3169    0.7007   -0.0137 C   0  0  0  0  0  0  0  0  0  0  0  0
    2.3370    0.6338    0.0034 C   0  0  0  0  0  0  0  0  0  0  0  0
    3.5045    1.3417    0.0008 N   0  0  0  0  0  0  0  0  0  0  0  0
   -3.7164   -1.4076   -0.0420 C   0  0  0  0  0  0  0  0  0  0  0  0
   -3.8720   -2.2567   -1.2171 N   0  0  0  0  0  0  0  0  0  0  0  0
   -4.0318   -3.6258   -1.0827 C   0  0  0  0  0  0  0  0  0  0  0  0
   -4.9410   -4.1722   -0.1760 C   0  0  0  0  0  0  0  0  0  0  0  0
   -5.0833   -5.5584   -0.0468 C   0  0  0  0  0  0  0  0  0  0  0  0
   -4.1930   -6.4324   -0.6843 C   0  0  0  0  0  0  0  0  0  0  0  0
   -4.4119   -7.8981   -0.5054 C   0  0  0  0  0  0  0  0  0  0  0  0
   -5.3675   -8.3296    0.1346 O   0  0  0  0  0  0  0  0  0  0  0  0
   -3.2066   -4.5083   -1.7852 C   0  0  0  0  0  0  0  0  0  0  0  0
   -3.1933   -5.8808   -1.4885 C   0  0  0  0  0  0  0  0  0  0  0  0
   -3.5335   -8.7286   -1.0945 O   0  0  0  0  0  0  0  0  0  0  0  0
  1  2  1  0
  1  3  2  0
  1  4  1  0
  2  5  2  0
  2  6  1  0
  3  7  1  0
  4  8  2  0
  4  9  1  0
  5 10  1  0
  6 11  2  0
  7 13  1  0
  7 10  2  0
  8 11  1  0
 11 12  1  0
 13 14  1  0
 14 15  1  0
 15 16  2  0
 15 21  1  0
 16 17  1  0
 17 18  2  0
 18 19  1  0
 19 23  1  0
 19 20  2  0
 21 22  2  0
 22 18  1  0
M  CHG  1   6   1
M  END
>  <DRUGBANK_ID>  (1) 
DB04357

>  <SECONDARY_ACCESSION_NUMBERS>  (1) 
EXPT00546

>  <COMMON_NAME>  (1) 
Pteric acid

$$$$
