1086
     RDKit          3D

 12 12  0  0  0  0  0  0  0  0999 V2000
    0.9744    0.0666   -0.0141 O   0  0  0  0  0  0  0  0  0  0  0  0
    1.0164   -1.8510   -1.2871 O   0  0  0  0  0  0  0  0  0  0  0  0
   -5.2912   -0.9293   -0.6767 N   0  0  0  0  0  0  0  0  0  0  0  0
   -1.0781   -0.9121   -0.6626 C   0  0  0  0  0  0  0  0  0  0  0  0
   -1.7888    0.2774   -0.8433 C   0  0  0  0  0  0  0  0  0  0  0  0
   -1.7886   -2.1108   -0.5107 C   0  0  0  0  0  0  0  0  0  0  0  0
   -3.9085   -0.9300   -0.7016 C   0  0  0  0  0  0  0  0  0  0  0  0
   -3.1942    0.2623   -0.8564 C   0  0  0  0  0  0  0  0  0  0  0  0
   -3.1918   -2.1140   -0.5200 C   0  0  0  0  0  0  0  0  0  0  0  0
    0.4086   -0.9565   -0.7121 C   0  0  0  0  0  0  0  0  0  0  0  0
    2.4175    0.0380    0.0053 C   0  0  0  0  0  0  0  0  0  0  0  0
    2.9527    1.1828    0.8528 C   0  0  0  0  0  0  0  0  0  0  0  0
  1 10  1  0
  1 11  1  0
  2 10  2  0
  3  7  1  0
  4  5  2  0
  4  6  1  0
  4 10  1  0
  5  8  1  0
  6  9  2  0
  7  8  2  0
  7  9  1  0
 11 12  1  0
M  END
>  <DRUGBANK_ID>  (1) 
DB01086

>  <SECONDARY_ACCESSION_NUMBERS>  (1) 
APRD00539

>  <COMMON_NAME>  (1) 
Benzocaine

>  <CAS_NUMBER>  (1) 
94-09-7

>  <UNII>  (1) 
U3RSY48JW5

>  <SYNONYMS>  (1) 
4-aminobenzoic acid ethyl ester; Amben ethyl ester; Benzocaina; Benzocaine; Benzocainum; Ethyl aminobenzoate; Ethyl p-aminobenzoate; Ethyl p-aminophenylcarboxylate; p-(Ethoxycarbonyl)aniline; p-Carbethoxyaniline; p-Ethoxycarboxylic aniline

$$$$
