
     RDKit          3D

 19 20  0  0  0  0  0  0  0  0999 V2000
    1.0035   -0.0951   -0.0163 C   0  0  0  0  0  0  0  0  0  0  0  0
    1.4150    3.4453    8.7177 C   0  0  0  0  0  0  0  0  0  0  0  0
    2.5300    3.0539    7.9740 C   0  0  0  0  0  0  0  0  0  0  0  0
    0.1445    3.4623    8.1367 C   0  0  0  0  0  0  0  0  0  0  0  0
    1.7575   -1.3679    4.6400 C   0  0  0  0  0  0  0  0  0  0  0  0
    2.3814    2.7005    6.6380 C   0  0  0  0  0  0  0  0  0  0  0  0
   -0.0208    3.0475    6.8186 C   0  0  0  0  0  0  0  0  0  0  0  0
    1.3931   -1.6916    3.3355 C   0  0  0  0  0  0  0  0  0  0  0  0
    1.7127   -0.0439    5.0681 C   0  0  0  0  0  0  0  0  0  0  0  0
    0.9827    0.6442    2.8784 C   0  0  0  0  0  0  0  0  0  0  0  0
    0.4781   -1.0419    1.0624 C   0  0  1  0  0  0  0  0  0  0  0  0
    1.1056    2.6974    6.0715 C   0  0  0  0  0  0  0  0  0  0  0  0
    1.0026   -0.6869    2.4401 C   0  0  0  0  0  0  0  0  0  0  0  0
    1.2763    0.9610    4.2008 C   0  0  0  0  0  0  0  0  0  0  0  0
    0.9336    2.3310    4.6611 C   0  0  0  0  0  0  0  0  0  0  0  0
   -1.0419   -1.0817    1.0516 C   0  0  0  0  0  0  0  0  0  0  0  0
    0.4172    3.1493    3.9057 O   0  0  0  0  0  0  0  0  0  0  0  0
   -1.7291   -2.0748    0.8360 O   0  0  0  0  0  0  0  0  0  0  0  0
   -1.6255    0.1018    1.3276 O   0  0  0  0  0  0  0  0  0  0  0  0
  3  2  2  0
  4  2  1  0
  6  3  1  0
  7  4  2  0
  8  5  2  0
  9  5  1  0
 11  1  1  6
 12  6  2  0
 12  7  1  0
 13  8  1  0
 13 10  2  0
 13 11  1  0
 14  9  2  0
 14 10  1  0
 15 12  1  0
 15 14  1  0
 16 11  1  0
 17 15  2  0
 18 16  2  0
 19 16  1  0
M  END
>  <DRUGBANK_ID>  (1) 
DB09214

>  <COMMON_NAME>  (1) 
Dexketoprofen

>  <CAS_NUMBER>  (1) 
22161-81-5

>  <UNII>  (1) 
6KD9E78X68

>  <SYNONYMS>  (1) 
Dexketoprofen; Dexketoprofeno

$$$$
