GS5
     RDKit          3D

 30 33  0  0  0  0  0  0  0  0999 V2000
    1.0436   -0.0793    0.0297 Cl  0  0  0  0  0  0  0  0  0  0  0  0
    2.7647   -0.0794    0.0420 C   0  0  0  0  0  0  0  0  0  0  0  0
    3.4478    1.1297    0.0365 C   0  0  0  0  0  0  0  0  0  0  0  0
    4.8371    1.1483   -0.0766 C   0  0  0  0  0  0  0  0  0  0  0  0
    5.5037   -0.0765   -0.2583 C   0  0  0  0  0  0  0  0  0  0  0  0
    4.8589   -1.3060   -0.1044 C   0  0  0  0  0  0  0  0  0  0  0  0
    3.4518   -1.2981    0.0263 C   0  0  0  0  0  0  0  0  0  0  0  0
    5.8107   -2.3834   -0.0864 C   0  0  0  0  0  0  0  0  0  0  0  0
    7.1073   -1.9461   -0.2705 C   0  0  0  0  0  0  0  0  0  0  0  0
    8.6825   -2.7292   -0.0593 S   0  0  0  0  0  0  0  0  0  0  0  0
    8.6492   -3.4279    1.2113 O   0  0  0  0  0  0  0  0  0  0  0  0
    8.9103   -3.4458   -1.2893 O   0  0  0  0  0  0  0  0  0  0  0  0
    9.9344   -1.5868    0.0836 N   0  0  0  0  0  0  0  0  0  0  0  0
    9.9506   -0.8366    1.3555 C   0  0  2  0  0  0  0  0  0  0  0  0
    8.6440   -0.2253    1.8745 C   0  0  0  0  0  0  0  0  0  0  0  0
    7.5959   -0.8089    2.1474 O   0  0  0  0  0  0  0  0  0  0  0  0
   10.8569    0.3892    1.1958 C   0  0  0  0  0  0  0  0  0  0  0  0
   10.2320    1.3036    2.1998 C   0  0  0  0  0  0  0  0  0  0  0  0
    8.8501    1.1168    2.0333 N   0  0  0  0  0  0  0  0  0  0  0  0
    7.8621    2.1389    2.3540 C   0  0  1  0  0  0  0  0  0  0  0  0
    7.8866    2.4586    3.8446 C   0  0  0  0  0  0  0  0  0  0  0  0
    7.9002    3.4599    1.4833 C   0  0  0  0  0  0  0  0  0  0  0  0
    6.8274    3.8348    0.9816 O   0  0  0  0  0  0  0  0  0  0  0  0
    8.9713    4.3544    1.4918 N   0  0  0  0  0  0  0  0  0  0  0  0
   10.4362    4.2324    1.3094 C   0  0  0  0  0  0  0  0  0  0  0  0
   11.1086    4.6127    2.6364 C   0  0  0  0  0  0  0  0  0  0  0  0
   10.8733    6.0137    2.8427 O   0  0  0  0  0  0  0  0  0  0  0  0
    9.4561    6.2916    2.9069 C   0  0  0  0  0  0  0  0  0  0  0  0
    8.6647    5.7673    1.6846 C   0  0  0  0  0  0  0  0  0  0  0  0
    7.1117   -0.3239   -0.8258 S   0  0  0  0  0  0  0  0  0  0  0  0
  1  2  1  0
  2  3  2  0
  2  7  1  0
  3  4  1  0
  4  5  2  0
  5  6  1  0
  5 30  1  0
  6  7  2  0
  6  8  1  0
  8  9  2  0
  9 10  1  0
  9 30  1  0
 10 11  2  0
 10 12  2  0
 10 13  1  0
 14 13  1  6
 14 15  1  0
 14 17  1  0
 15 16  2  0
 15 19  1  0
 17 18  1  0
 18 19  1  0
 19 20  1  0
 20 21  1  1
 20 22  1  0
 22 23  2  0
 22 24  1  0
 24 25  1  0
 24 29  1  0
 25 26  1  0
 26 27  1  0
 27 28  1  0
 28 29  1  0
M  END
>  <DRUGBANK_ID>  (1) 
DB07843

>  <COMMON_NAME>  (1) 
5-CHLORO-N-{(3S)-1-[(1S)-1-METHYL-2-MORPHOLIN-4-YL-2-OXOETHYL]-2-OXOPYRROLIDIN-3-YL}-1-BENZOTHIOPHENE-2-SULFONAMIDE

$$$$
