1166
     RDKit          3D

 27 30  0  0  0  0  0  0  0  0999 V2000
    1.0364   -0.2108   -0.0519 O   0  0  0  0  0  0  0  0  0  0  0  0
    8.5984   -1.1619   -0.2040 O   0  0  0  0  0  0  0  0  0  0  0  0
    2.1932    6.0649   -0.3095 N   0  0  0  0  0  0  0  0  0  0  0  0
    1.1839    6.9362   -0.4909 N   0  0  0  0  0  0  0  0  0  0  0  0
    0.3767    4.8790   -0.5234 N   0  0  0  0  0  0  0  0  0  0  0  0
    0.0892    6.2018   -0.6275 N   0  0  0  0  0  0  0  0  0  0  0  0
    6.5968   -0.1430    0.0127 N   0  0  0  0  0  0  0  0  0  0  0  0
    3.5680    6.5351   -0.1609 C   0  0  0  0  0  0  0  0  0  0  0  0
    3.7043    7.3635    1.1247 C   0  0  0  0  0  0  0  0  0  0  0  0
    4.0448    7.3446   -1.3839 C   0  0  0  0  0  0  0  0  0  0  0  0
    5.0943    7.9704    1.2987 C   0  0  0  0  0  0  0  0  0  0  0  0
    5.4290    7.9710   -1.1852 C   0  0  0  0  0  0  0  0  0  0  0  0
    5.4977    8.8040    0.0892 C   0  0  0  0  0  0  0  0  0  0  0  0
    1.6630    4.8101   -0.2558 C   0  0  0  0  0  0  0  0  0  0  0  0
    2.3877    3.5547   -0.1177 C   0  0  0  0  0  0  0  0  0  0  0  0
    1.9710    2.7340    1.1363 C   0  0  0  0  0  0  0  0  0  0  0  0
    0.5818    2.0739    1.0460 C   0  0  0  0  0  0  0  0  0  0  0  0
    0.3599    1.0819   -0.1292 C   0  0  0  0  0  0  0  0  0  0  0  0
    4.5096   -1.4169    0.0304 C   0  0  0  0  0  0  0  0  0  0  0  0
    5.3296   -2.6571    0.1592 C   0  0  0  0  0  0  0  0  0  0  0  0
    5.2085   -0.2018   -0.0495 C   0  0  0  0  0  0  0  0  0  0  0  0
    6.6272   -2.4905   -0.6247 C   0  0  0  0  0  0  0  0  0  0  0  0
    2.3943   -0.2933   -0.1894 C   0  0  0  0  0  0  0  0  0  0  0  0
    3.0928   -1.4559    0.0401 C   0  0  0  0  0  0  0  0  0  0  0  0
    7.3851   -1.2417   -0.2116 C   0  0  0  0  0  0  0  0  0  0  0  0
    4.5212    0.9375   -0.3062 C   0  0  0  0  0  0  0  0  0  0  0  0
    3.1689    0.7776   -0.5626 C   0  0  0  0  0  0  0  0  0  0  0  0
  1 18  1  0
  1 23  1  0
  2 25  2  0
  3  4  1  0
  3  8  1  0
  3 14  1  0
  4  6  2  0
  5  6  1  0
  5 14  2  0
  7 21  1  0
  7 25  1  0
  8  9  1  0
  8 10  1  0
  9 11  1  0
 10 12  1  0
 11 13  1  0
 12 13  1  0
 14 15  1  0
 15 16  1  0
 16 17  1  0
 17 18  1  0
 19 20  1  0
 19 21  2  0
 19 24  1  0
 20 22  1  0
 21 26  1  0
 22 25  1  0
 23 24  2  0
 23 27  1  0
 26 27  2  0
M  END
>  <DRUGBANK_ID>  (1) 
DB01166

>  <SECONDARY_ACCESSION_NUMBERS>  (1) 
APRD00155

>  <COMMON_NAME>  (1) 
Cilostazol

>  <CAS_NUMBER>  (1) 
73963-72-1

>  <UNII>  (1) 
N7Z035406B

>  <SYNONYMS>  (1) 
3,4-dihydro-6-(4-(1-cyclohexyl-1H-tetrazol-5-yl)butoxy)-2(1H)-quinolinone; 6-(4-(1-cyclohexyl-1H-tetrazol-5-yl)butoxy)-3,4-dihydro-2(1H)-quinolinone; 6-(4-(1-cyclohexyl-1H-tetrazol-5-yl)butoxy)-3,4-dihydrocarbostyril; 6-[4-(1-Cyclohexyl-1H-tetrazol-5-yl)-butoxy]-3,4-dihydro-1H-quinolin-2-one; Cilostazol; Cilostazole; Cilostazolum

$$$$
