
     RDKit          3D

 16 17  0  0  1  0  0  0  0  0999 V2000
    1.1596   -0.9283   -0.3560 C   0  0  2  0  0  0  0  0  0  0  0  0
    2.3942   -1.5572    0.1191 N   0  0  0  0  0  0  0  0  0  0  0  0
    1.3169    0.5106   -0.3142 O   0  0  0  0  0  0  0  0  0  0  0  0
   -0.0908   -1.2803    0.4486 C   0  0  0  0  0  0  0  0  0  0  0  0
    2.7717   -1.2934    1.4404 C   0  0  0  0  0  0  0  0  0  0  0  0
    3.2923   -2.1573   -0.7522 C   0  0  0  0  0  0  0  0  0  0  0  0
    0.2008    1.1070    0.3940 C   0  0  1  0  0  0  0  0  0  0  0  0
   -0.8641    0.0169    0.4970 C   0  0  1  0  0  0  0  0  0  0  0  0
    3.9546   -1.7778    1.9087 N   0  0  0  0  0  0  0  0  0  0  0  0
    2.0569   -0.6447    2.2068 O   0  0  0  0  0  0  0  0  0  0  0  0
    4.5545   -2.3808   -0.3708 C   0  0  0  0  0  0  0  0  0  0  0  0
    0.6118    1.6632    1.7746 C   0  0  0  0  0  0  0  0  0  0  0  0
   -1.7468    0.0572   -0.6287 O   0  0  0  0  0  0  0  0  0  0  0  0
    4.8194   -2.2534    1.0746 C   0  0  0  0  0  0  0  0  0  0  0  0
   -0.0043    2.9361    2.0016 O   0  0  0  0  0  0  0  0  0  0  0  0
    5.9938   -2.6674    1.6169 N   0  0  0  0  0  0  0  0  0  0  0  0
  1  3  1  0
  1  4  1  0
  1  2  1  1
  2  5  1  0
  2  6  1  0
  3  7  1  0
  4  8  1  0
  5  9  1  0
  5 10  2  0
  6 11  2  0
  7  8  1  0
  7 12  1  1
  8 13  1  6
  9 14  2  0
 11 14  1  0
 12 15  1  0
 14 16  1  0
M  END
>  <DRUGBANK_ID>  (1) 
DB02594

>  <SECONDARY_ACCESSION_NUMBERS>  (1) 
EXPT01140

>  <COMMON_NAME>  (1) 
2'-Deoxycytidine

>  <CAS_NUMBER>  (1) 
951-77-9

>  <UNII>  (1) 
0W860991D6

>  <SYNONYMS>  (1) 
1-(2-deoxy-.beta.-d-ribofuranosyl)cytosine; 4-amino-1-(2-deoxy-.beta.-d-erythro-pentofuranosyl)-2(1h)-pyrimidinone; dC; dCYD; Deoxyribose cytidine

$$$$
