
     RDKit          3D

 22 24  0  0  0  0  0  0  0  0999 V2000
   -0.7903   -2.1368    0.0670 O   0  0  0  0  0  0  0  0  0  0  0  0
   -2.1502   -1.9019   -0.0313 C   0  0  0  0  0  0  0  0  0  0  0  0
   -2.7118   -0.6878   -0.0629 C   0  0  0  0  0  0  0  0  0  0  0  0
   -1.8620    0.5061   -0.0036 C   0  0  0  0  0  0  0  0  0  0  0  0
   -2.3977    1.6092    0.0060 O   0  0  0  0  0  0  0  0  0  0  0  0
    0.0961    2.6257    0.0005 O   0  0  0  0  0  0  0  0  0  0  0  0
    0.5230    1.3288    0.0058 C   0  0  0  0  0  0  0  0  0  0  0  0
    1.8933    1.0658   -0.0136 C   0  0  0  0  0  0  0  0  0  0  0  0
   -0.4026    0.2759    0.0233 C   0  0  0  0  0  0  0  0  0  0  0  0
    0.0549   -1.0477    0.0445 C   0  0  0  0  0  0  0  0  0  0  0  0
    1.4269   -1.3142    0.0367 C   0  0  0  0  0  0  0  0  0  0  0  0
    2.3316   -0.2557   -0.0019 C   0  0  0  0  0  0  0  0  0  0  0  0
    3.6626   -0.5531   -0.0324 O   0  0  0  0  0  0  0  0  0  0  0  0
   -3.8876   -5.9848    1.9852 O   0  0  0  0  0  0  0  0  0  0  0  0
   -3.8811   -5.1250    0.9202 C   0  0  0  0  0  0  0  0  0  0  0  0
   -3.0209   -4.0210    0.9604 C   0  0  0  0  0  0  0  0  0  0  0  0
   -3.0058   -3.0964   -0.0910 C   0  0  0  0  0  0  0  0  0  0  0  0
   -3.8575   -3.2992   -1.1853 C   0  0  0  0  0  0  0  0  0  0  0  0
   -4.7044   -4.4115   -1.2293 C   0  0  0  0  0  0  0  0  0  0  0  0
   -4.7243   -5.3391   -0.1795 C   0  0  0  0  0  0  0  0  0  0  0  0
   -5.6000   -6.3791   -0.3664 O   0  0  0  0  0  0  0  0  0  0  0  0
   -5.6548   -7.3669    0.6583 C   0  0  0  0  0  0  0  0  0  0  0  0
  1  2  1  0
  1 10  1  0
  2  3  2  0
  2 17  1  0
  3  4  1  0
  4  5  2  0
  4  9  1  0
  6  7  1  0
  7  8  2  0
  7  9  1  0
  8 12  1  0
  9 10  2  0
 10 11  1  0
 11 12  2  0
 12 13  1  0
 14 15  1  0
 15 16  2  0
 15 20  1  0
 16 17  1  0
 17 18  2  0
 18 19  1  0
 19 20  2  0
 20 21  1  0
 21 22  1  0
M  END
>  <DRUGBANK_ID>  (1) 
DB11259

>  <COMMON_NAME>  (1) 
Diosmetin

>  <CAS_NUMBER>  (1) 
520-34-3

>  <UNII>  (1) 
TWZ37241OT

>  <SYNONYMS>  (1) 
3',5,7-trihydroxy-4'-methoxyflavone; 5,7-Dihydroxy-2-(3-hydroxy-4-methoxyphenyl)-4-benzopyrone; Luteolin 4'-methyl ether; Salinigricoflavonol

$$$$
