
     RDKit          3D

 26 27  0  0  1  0  0  0  0  0999 V2000
   -8.7431   -2.9816    6.4249 C   0  0  0  0  0  0  0  0  0  0  0  0
   -8.9849   -1.6063    6.0228 N   0  0  0  0  0  0  0  0  0  0  0  0
   -8.8098   -0.6956    7.1652 C   0  0  0  0  0  0  0  0  0  0  0  0
   -9.2279    0.7082    6.7260 C   0  0  0  0  0  0  0  0  0  0  0  0
   -8.3997    1.1780    5.6170 N   0  0  0  0  0  0  0  0  0  0  0  0
   -8.3314    0.2638    4.4803 C   0  0  0  0  0  0  0  0  0  0  0  0
   -8.0693   -1.1923    4.9360 C   0  0  0  0  0  0  0  0  0  0  0  0
   -7.7454    2.3929    5.5754 C   0  0  0  0  0  0  0  0  0  0  0  0
   -7.1803    2.8284    4.5788 O   0  0  0  0  0  0  0  0  0  0  0  0
   -7.7127    3.1929    6.8801 C   0  0  1  0  0  0  0  0  0  0  0  0
   -9.0697    3.7480    7.1591 N   0  0  0  0  0  0  0  0  0  0  0  0
   -7.0480    2.4541    8.0885 C   0  0  0  0  0  0  0  0  0  0  0  0
   -5.4725    1.4126    8.0631 S   0  0  0  0  0  0  0  0  0  0  0  0
   -5.2873    0.5893    6.1952 S   0  0  0  0  0  0  0  0  0  0  0  0
   -3.5226    0.5123    5.7310 C   0  0  0  0  0  0  0  0  0  0  0  0
   -2.8620    1.8393    5.3523 C   0  0  2  0  0  0  0  0  0  0  0  0
   -1.5527    1.5538    4.6925 N   0  0  0  0  0  0  0  0  0  0  0  0
   -2.6021    2.6580    6.6342 C   0  0  0  0  0  0  0  0  0  0  0  0
   -1.8184    2.2287    7.4843 O   0  0  0  0  0  0  0  0  0  0  0  0
   -3.2179    3.9096    6.7693 N   0  0  0  0  0  0  0  0  0  0  0  0
   -4.5760    4.1196    6.2865 C   0  0  0  0  0  0  0  0  0  0  0  0
   -5.0980    5.5592    6.3642 C   0  0  0  0  0  0  0  0  0  0  0  0
   -4.9287    6.1674    7.7038 N   0  0  0  0  0  0  0  0  0  0  0  0
   -5.7915    5.5972    8.7416 C   0  0  0  0  0  0  0  0  0  0  0  0
   -3.5122    6.0113    8.1017 C   0  0  0  0  0  0  0  0  0  0  0  0
   -2.9630    4.5710    8.0477 C   0  0  0  0  0  0  0  0  0  0  0  0
  1  2  1  0
  2  3  1  0
  2  7  1  0
  3  4  1  0
  4  5  1  0
  5  6  1  0
  5  8  1  0
  6  7  1  0
  8  9  2  0
 10  8  1  0
 10 11  1  1
 10 12  1  0
 12 13  1  0
 13 14  1  0
 14 15  1  0
 16 18  1  0
 16 17  1  1
 16 15  1  0
 18 19  2  0
 18 20  1  0
 20 21  1  0
 20 26  1  0
 21 22  1  0
 22 23  1  0
 23 24  1  0
 23 25  1  0
 25 26  1  0
M  END
>  <DRUGBANK_ID>  (1) 
DB17636

>  <COMMON_NAME>  (1) 
LH-708

>  <CAS_NUMBER>  (1) 
1616758-14-5

>  <UNII>  (1) 
KS0Q58NC7L

>  <SYNONYMS>  (1) 
1-propanone, 3,3'-dithiobis(2-amino-1-(4-methyl-1-piperazinyl)-, (2r,2'r)-; L-cystine bis(n-methylpiperazide)

$$$$
