
     RDKit          3D

 26 25  0  0  1  0  0  0  0  0999 V2000
   -0.5417   -1.4607   17.0672 C   0  0  0  0  0  0  0  0  0  0  0  0
   -1.6588   -2.2634   16.4337 C   0  0  0  0  0  0  0  0  0  0  0  0
   -2.9845   -1.6240   16.7206 C   0  0  0  0  0  0  0  0  0  0  0  0
   -3.7953   -1.0873   15.7986 C   0  0  0  0  0  0  0  0  0  0  0  0
   -3.5277   -1.0673   14.3161 C   0  0  0  0  0  0  0  0  0  0  0  0
   -4.5779   -1.8201   13.4942 C   0  0  2  0  0  0  0  0  0  0  0  0
   -5.8679   -1.2317   13.5849 O   0  0  0  0  0  0  0  0  0  0  0  0
   -4.6793   -3.2826   13.8445 C   0  0  0  0  0  0  0  0  0  0  0  0
   -4.3958   -4.3090   13.0258 C   0  0  0  0  0  0  0  0  0  0  0  0
   -3.9629   -4.1406   11.6609 C   0  0  0  0  0  0  0  0  0  0  0  0
   -3.7052   -5.1387   10.8115 C   0  0  0  0  0  0  0  0  0  0  0  0
   -3.2924   -4.8563    9.4590 C   0  0  0  0  0  0  0  0  0  0  0  0
   -3.0133   -5.8200    8.5746 C   0  0  0  0  0  0  0  0  0  0  0  0
   -2.5720   -5.5489    7.1659 C   0  0  2  0  0  0  0  0  0  0  0  0
   -3.3541   -4.4893    6.6271 O   0  0  0  0  0  0  0  0  0  0  0  0
   -2.7369   -6.8058    6.3114 C   0  0  0  0  0  0  0  0  0  0  0  0
   -2.1833   -6.6213    4.9212 C   0  0  0  0  0  0  0  0  0  0  0  0
   -1.1264   -7.2851    4.4449 C   0  0  0  0  0  0  0  0  0  0  0  0
   -0.3734   -8.2963    5.2332 C   0  0  0  0  0  0  0  0  0  0  0  0
   -0.3834   -9.6055    4.5356 C   0  0  0  0  0  0  0  0  0  0  0  0
    0.7270  -10.2554    4.1790 C   0  0  0  0  0  0  0  0  0  0  0  0
    2.1285   -9.7824    4.4488 C   0  0  0  0  0  0  0  0  0  0  0  0
    2.8876  -10.7079    5.3865 C   0  0  0  0  0  0  0  0  0  0  0  0
    3.0843  -12.0654    4.7652 C   0  0  0  0  0  0  0  0  0  0  0  0
    4.3676  -12.3971    4.5324 O   0  0  0  0  0  0  0  0  0  0  0  0
    2.1662  -12.8279    4.4731 O   0  0  0  0  0  0  0  0  0  0  0  0
  1  2  1  0
  2  3  1  0
  3  4  2  0
  4  5  1  0
  6  8  1  0
  6  7  1  1
  6  5  1  0
  8  9  2  0
  9 10  1  0
 10 11  2  0
 11 12  1  0
 12 13  2  0
 14 16  1  0
 14 15  1  6
 14 13  1  0
 16 17  1  0
 17 18  2  0
 18 19  1  0
 19 20  1  0
 20 21  2  0
 21 22  1  0
 22 23  1  0
 23 24  1  0
 24 25  1  0
 24 26  2  0
M  END
>  <DRUGBANK_ID>  (1) 
DB18511

>  <COMMON_NAME>  (1) 
AP-001

>  <CAS_NUMBER>  (1) 
660430-03-5

>  <UNII>  (1) 
P3FX063KLI

>  <SYNONYMS>  (1) 
(4Z,7Z,10R,11E,13E,15Z,17S,19Z) 10,17-DIHYDROXY-DOCOSA-4,7,11,13,15,19-HEXAENOIC ACID; 4,7,11,13,15,19-DOCOSAHEXAENOIC ACID, 10,17-DIHYDROXY-, (4Z,7Z,10R,11E,13E,15Z,17S,19Z)-; NEUROPROTECTIN D1; NPD-1; PROTECTIN D1

$$$$
