
     RDKit          3D

 27 31  0  0  1  0  0  0  0  0999 V2000
   -1.1704   -3.8679    7.8859 C   0  0  0  0  0  0  0  0  0  0  0  0
   -0.0765   -5.3758    7.4647 C   0  0  2  0  0  0  0  0  0  0  0  0
    0.6749   -5.3480    6.1464 C   0  0  0  0  0  0  0  0  0  0  0  0
    0.0691   -4.3773    5.0721 C   0  0  0  0  0  0  0  0  0  0  0  0
   -1.3117   -4.9151    4.4322 C   0  0  2  0  0  0  0  0  0  0  0  0
   -2.1836   -4.1686    2.8486 C   0  0  1  0  0  0  0  0  0  0  0  0
   -3.2289   -3.8847    1.2105 C   0  0  0  0  0  0  0  0  0  0  0  0
   -4.3110   -2.3589    1.1709 C   0  0  0  0  0  0  0  0  0  0  0  0
   -5.1276   -3.1709    2.0544 C   0  0  0  0  0  0  0  0  0  0  0  0
   -4.3454   -3.1634    3.1598 C   0  0  0  0  0  0  0  0  0  0  0  0
   -3.5049   -4.2320    3.6167 C   0  0  0  0  0  0  0  0  0  0  0  0
   -3.9605   -5.3328    4.2416 C   0  0  0  0  0  0  0  0  0  0  0  0
   -3.2905   -6.1313    5.3973 C   0  0  0  0  0  0  0  0  0  0  0  0
   -2.1273   -5.3119    6.0449 C   0  0  1  0  0  0  0  0  0  0  0  0
   -1.3026   -5.7233    7.8217 C   0  0  2  0  0  0  0  0  0  0  0  0
    0.0320   -4.9977    9.1569 C   0  0  0  0  0  0  0  0  0  0  0  0
    1.4331   -5.7379    9.2684 C   0  0  0  0  0  0  0  0  0  0  0  0
    0.5222   -6.6343    8.6631 C   0  0  1  0  0  0  0  0  0  0  0  0
   -0.4014   -7.1757    9.7421 C   0  0  0  0  0  0  0  0  0  0  0  0
   -1.1936   -7.6401   10.6677 C   0  0  0  0  0  0  0  0  0  0  0  0
    1.1754   -7.7049    8.0025 O   0  0  0  0  0  0  0  0  0  0  0  0
   -5.7013   -4.0966    1.2732 O   0  0  0  0  0  0  0  0  0  0  0  0
   -6.8149   -3.7828    0.4224 C   0  0  0  0  0  0  0  0  0  0  0  0
   -7.8496   -2.6823    0.7370 C   0  0  0  0  0  0  0  0  0  0  0  0
   -9.1636   -3.4416    0.9282 C   0  0  0  0  0  0  0  0  0  0  0  0
   -8.8871   -4.9106    0.6217 C   0  0  0  0  0  0  0  0  0  0  0  0
   -7.4393   -5.0748    0.8504 C   0  0  0  0  0  0  0  0  0  0  0  0
  2  1  1  1
  2  3  1  0
  2 15  1  0
  2 18  1  0
  3  4  1  0
  5  4  1  1
  5  6  1  0
  5 14  1  0
  6  7  1  6
  6 11  1  0
  7  8  1  0
  8  9  1  0
  9 10  2  0
  9 22  1  0
 10 11  1  0
 11 12  2  0
 12 13  1  0
 14 13  1  6
 14 15  1  0
 15 16  1  1
 16 17  1  0
 17 18  1  0
 18 19  1  0
 18 21  1  6
 19 20  3  0
 22 23  1  0
 23 24  1  0
 23 27  1  0
 24 25  1  0
 25 26  1  0
 26 27  1  0
M  END
>  <DRUGBANK_ID>  (1) 
DB13685

>  <COMMON_NAME>  (1) 
Quingestanol

>  <CAS_NUMBER>  (1) 
10592-65-1

>  <UNII>  (1) 
1A635076CE

>  <SYNONYMS>  (1) 
Quingestanol

$$$$
