
     RDKit          3D

 34 36  0  0  0  0  0  0  0  0999 V2000
   -2.3304    2.3109    0.5971 C   0  0  0  0  0  0  0  0  0  0  0  0
   -1.0510    1.8197    0.4939 C   0  0  0  0  0  0  0  0  0  0  0  0
   -0.2229    0.7853    0.5035 C   0  0  0  0  0  0  0  0  0  0  0  0
    1.6561   -0.0040    0.4449 C   0  0  0  0  0  0  0  0  0  0  0  0
    1.9288   -1.2354    0.3282 O   0  0  0  0  0  0  0  0  0  0  0  0
    2.7604    0.6741    0.9007 O   0  0  0  0  0  0  0  0  0  0  0  0
   -3.2966    1.6166    0.8080 O   0  0  0  0  0  0  0  0  0  0  0  0
   -2.0981    3.6356    0.2353 O   0  0  0  0  0  0  0  0  0  0  0  0
   -0.7595    4.3967    0.1429 C   0  0  0  0  0  0  0  0  0  0  0  0
    0.6560    3.9617    0.0961 C   0  0  0  0  0  0  0  0  0  0  0  0
    1.5972    4.9636   -0.0172 C   0  0  0  0  0  0  0  0  0  0  0  0
    1.1861    6.2769   -0.0414 C   0  0  0  0  0  0  0  0  0  0  0  0
   -0.1580    6.6617    0.0411 C   0  0  0  0  0  0  0  0  0  0  0  0
   -1.1237    5.6923    0.1741 C   0  0  0  0  0  0  0  0  0  0  0  0
   -0.5698    8.1110   -0.0013 C   0  0  0  0  0  0  0  0  0  0  0  0
   -1.4679    8.3467   -1.2542 C   0  0  0  0  0  0  0  0  0  0  0  0
   -2.7888    7.5556   -1.2881 C   0  0  0  0  0  0  0  0  0  0  0  0
   -3.6823    7.8331   -0.0731 C   0  0  0  0  0  0  0  0  0  0  0  0
   -4.0015    9.3228    0.0102 C   0  0  0  0  0  0  0  0  0  0  0  0
   -4.8416    9.6664   -1.2026 C   0  0  0  0  0  0  0  0  0  0  0  0
   -6.0938    8.8091   -1.1868 C   0  0  0  0  0  0  0  0  0  0  0  0
   -1.1910    8.4863    1.3515 C   0  0  0  0  0  0  0  0  0  0  0  0
    0.6624    9.0096   -0.1106 C   0  0  0  0  0  0  0  0  0  0  0  0
    2.9419    4.7907   -0.0848 O   0  0  0  0  0  0  0  0  0  0  0  0
    1.2079    2.4529    0.1790 C   0  0  2  0  0  0  0  0  0  0  0  0
    0.4748    1.5614   -1.4032 C   0  0  1  0  0  0  0  0  0  0  0  0
    1.0567    0.0780   -1.7241 C   0  0  0  0  0  0  0  0  0  0  0  0
   -0.0713   -0.8847   -0.3772 C   0  0  1  0  0  0  0  0  0  0  0  0
    0.3563   -0.4344    1.7465 C   0  0  0  0  0  0  0  0  0  0  0  0
    0.8431    1.5546    1.9198 C   0  0  0  0  0  0  0  0  0  0  0  0
    0.6766   -1.0494    2.7906 O   0  0  0  0  0  0  0  0  0  0  0  0
   -1.0644    0.4372   -1.4748 C   0  0  0  0  0  0  0  0  0  0  0  0
    0.8617   -0.4805   -3.0988 C   0  0  0  0  0  0  0  0  0  0  0  0
    2.5794    0.2720   -1.7045 C   0  0  0  0  0  0  0  0  0  0  0  0
  1  2  1  0
  1  7  2  0
  1  8  1  0
  2  3  2  0
  3  4  1  0
  4  5  2  0
  4  6  1  0
  8  9  1  0
  9 10  2  0
  9 14  1  0
 10 11  1  0
 11 12  2  0
 11 24  1  0
 12 13  1  0
 13 14  2  0
 13 15  1  0
 15 16  1  0
 15 22  1  0
 15 23  1  0
 16 17  1  0
 17 18  1  0
 18 19  1  0
 19 20  1  0
 20 21  1  0
 25 30  1  0
 25 10  1  1
 26 25  1  0
 26 27  1  0
 26 32  1  1
 27 33  1  0
 27 34  1  0
 28 27  1  0
 28 32  1  6
 29 28  1  0
 29 31  2  0
 30 29  1  0
M  END
>  <DRUGBANK_ID>  (1) 
DB05048

>  <COMMON_NAME>  (1) 
Cannabinor

>  <CAS_NUMBER>  (1) 
573981-31-4

>  <UNII>  (1) 
O8E148Q90M

$$$$
