
     RDKit          3D

 17 18  0  0  1  0  0  0  0  0999 V2000
    5.2661    2.3513   -1.7975 N   0  0  0  0  0  0  0  0  0  0  0  0
    4.8142    3.8996   -1.4893 S   0  0  0  0  0  0  0  0  0  0  0  0
    5.9104    4.1933   -0.6306 O   0  0  0  0  0  0  0  0  0  0  0  0
    4.6961    4.6894   -2.7085 O   0  0  0  0  0  0  0  0  0  0  0  0
    3.2034    3.6459   -0.9010 N   0  0  0  0  0  0  0  0  0  0  0  0
    2.6293    2.6454    0.0935 C   0  0  0  0  0  0  0  0  0  0  0  0
    2.8707    2.9486    1.6125 C   0  0  1  0  0  0  0  0  0  0  0  0
    4.3559    3.0379    1.8398 C   0  0  0  0  0  0  0  0  0  0  0  0
    4.8616    4.2554    1.3118 O   0  0  0  0  0  0  0  0  0  0  0  0
    4.0324    5.3329    1.1855 C   0  0  0  0  0  0  0  0  0  0  0  0
    2.7764    5.3146    1.7425 C   0  0  0  0  0  0  0  0  0  0  0  0
    2.1916    4.1347    2.1321 O   0  0  0  0  0  0  0  0  0  0  0  0
    2.1096    6.5343    1.8292 C   0  0  0  0  0  0  0  0  0  0  0  0
    2.5988    7.6817    1.1586 C   0  0  0  0  0  0  0  0  0  0  0  0
    3.7366    7.6050    0.3737 C   0  0  0  0  0  0  0  0  0  0  0  0
    4.2842    8.9430   -0.5621 Cl  0  0  0  0  0  0  0  0  0  0  0  0
    4.4638    6.4337    0.4047 C   0  0  0  0  0  0  0  0  0  0  0  0
  1  2  1  0
  2  3  2  0
  2  4  2  0
  2  5  1  0
  5  6  1  0
  7  8  1  0
  7 12  1  0
  7  6  1  6
  8  9  1  0
  9 10  1  0
 10 11  2  0
 10 17  1  0
 11 12  1  0
 11 13  1  0
 13 14  2  0
 14 15  1  0
 15 16  1  0
 15 17  2  0
M  END
>  <DRUGBANK_ID>  (1) 
DB15203

>  <COMMON_NAME>  (1) 
JNJ-26489112

>  <CAS_NUMBER>  (1) 
871824-55-4

>  <UNII>  (1) 
G1TI012DLT

$$$$
