
     RDKit          3D

 17 16  0  0  0  0  0  0  0  0999 V2000
    1.0282   -0.0549    0.0757 C   0  0  2  0  0  0  0  0  0  0  0  0
    0.8285    1.4156   -0.2471 C   0  0  0  0  0  0  0  0  0  0  0  0
    0.3854   -0.9259   -0.8920 N   0  0  0  0  0  0  0  0  0  0  0  0
    0.5012   -0.4623    1.4746 C   0  0  0  0  0  0  0  0  0  0  0  0
    1.1691    1.7904   -1.7396 C   0  0  0  0  0  0  0  0  0  0  0  0
   -1.0490   -0.7044   -1.0697 C   0  0  0  0  0  0  0  0  0  0  0  0
    1.4617   -0.8900    2.3238 O   0  0  0  0  0  0  0  0  0  0  0  0
   -0.6793   -0.4606    1.8027 O   0  0  0  0  0  0  0  0  0  0  0  0
    0.6689    0.9901   -3.1714 C   0  0  0  0  0  0  0  0  0  0  0  0
   -1.8124    0.6847   -0.9660 C   0  0  0  0  0  0  0  0  0  0  0  0
   -0.7981    0.6814   -3.6357 N   0  0  0  0  0  0  0  0  0  0  0  0
   -1.8087    2.0554   -1.7212 C   0  0  0  0  0  0  0  0  0  0  0  0
   -1.5474    1.3319   -4.5860 C   0  0  0  0  0  0  0  0  0  0  0  0
   -3.0662    2.3151   -2.0880 O   0  0  0  0  0  0  0  0  0  0  0  0
   -0.9728    2.8308   -2.2069 O   0  0  0  0  0  0  0  0  0  0  0  0
   -2.9190    1.3484   -4.4440 N   0  0  0  0  0  0  0  0  0  0  0  0
   -1.0140    2.0659   -5.4921 N   0  0  0  0  0  0  0  0  0  0  0  0
  1  2  1  6
  1  3  1  0
  1  4  1  0
  2  5  1  0
  3  6  1  0
  4  7  1  0
  4  8  2  0
  5  9  1  0
  6 10  1  0
  9 11  1  0
 10 12  1  0
 11 13  1  0
 12 14  1  0
 12 15  2  0
 13 16  1  0
 13 17  2  0
M  END
>  <DRUGBANK_ID>  (1) 
DB04189

>  <SECONDARY_ACCESSION_NUMBERS>  (1) 
EXPT00953

>  <COMMON_NAME>  (1) 
N(2)-(2-carboxyethyl)-L-arginine

>  <SYNONYMS>  (1) 
L-N2-(2-Carboxyethyl)arginine; N2-(2-Carboxyethyl)-L-arginine; N2-(2-carboxyethyl)arginine; N2-(carboxyethyl)-L-arginine

$$$$
