
     RDKit          3D

 15 16  0  0  0  0  0  0  0  0999 V2000
    1.0148   -0.0081   -0.0517 C   0  0  0  0  0  0  0  0  0  0  0  0
    0.4090   -1.4357   -0.0369 C   0  0  0  0  0  0  0  0  0  0  0  0
    0.7555   -2.1623    1.2714 C   0  0  0  0  0  0  0  0  0  0  0  0
    0.5153   -3.4364    1.7663 C   0  0  0  0  0  0  0  0  0  0  0  0
    1.1094   -3.6603    2.9749 N   0  0  0  0  0  0  0  0  0  0  0  0
    1.7074   -2.5407    3.2545 C   0  0  0  0  0  0  0  0  0  0  0  0
    1.5136   -1.6012    2.2825 N   0  0  0  0  0  0  0  0  0  0  0  0
   -1.0952   -1.4331   -0.3830 C   0  0  0  0  0  0  0  0  0  0  0  0
   -1.8064   -0.2134   -0.4783 C   0  0  0  0  0  0  0  0  0  0  0  0
   -3.1658   -0.1673   -0.7815 C   0  0  0  0  0  0  0  0  0  0  0  0
   -3.8706   -1.3454   -0.9635 C   0  0  0  0  0  0  0  0  0  0  0  0
   -3.2120   -2.5748   -0.8893 C   0  0  0  0  0  0  0  0  0  0  0  0
   -4.0054   -3.8481   -1.0152 C   0  0  0  0  0  0  0  0  0  0  0  0
   -1.8138   -2.6248   -0.6627 C   0  0  0  0  0  0  0  0  0  0  0  0
   -1.1774   -3.9897   -0.7059 C   0  0  0  0  0  0  0  0  0  0  0  0
  1  2  1  0
  2  3  1  0
  2  8  1  0
  3  4  2  0
  3  7  1  0
  4  5  1  0
  5  6  2  0
  6  7  1  0
  8  9  2  0
  8 14  1  0
  9 10  1  0
 10 11  2  0
 11 12  1  0
 12 13  1  0
 12 14  2  0
 14 15  1  0
M  END
>  <DRUGBANK_ID>  (1) 
DB11428

>  <COMMON_NAME>  (1) 
Medetomidine

>  <CAS_NUMBER>  (1) 
86347-14-0

>  <UNII>  (1) 
MR15E85MQM

>  <SYNONYMS>  (1) 
(Â±)-4-(Î±,2,3-trimethylbenzyl)imidazole; Medetomidina; Medetomidine; Medetomidinum

$$$$
