
     RDKit          3D

 39 41  0  0  0  0  0  0  0  0999 V2000
    0.8691   -5.7867    0.1751 C   0  0  1  0  0  0  0  0  0  0  0  0
    1.3583   -5.4626   -1.2660 C   0  0  1  0  0  0  0  0  0  0  0  0
    0.3360   -4.6994   -2.2507 C   0  0  2  0  0  0  0  0  0  0  0  0
   -1.2130   -4.7560   -2.0177 C   0  0  1  0  0  0  0  0  0  0  0  0
   -1.5991   -5.1783   -0.5154 C   0  0  2  0  0  0  0  0  0  0  0  0
   -0.6478   -6.1077    0.2939 C   0  0  0  0  0  0  0  0  0  0  0  0
    1.8035   -6.3977    1.2527 N   0  0  0  0  0  0  0  0  0  0  0  0
    2.5636   -4.6336   -1.0614 O   0  0  0  0  0  0  0  0  0  0  0  0
    0.6729   -4.5161   -3.6353 O   0  0  0  0  0  0  0  0  0  0  0  0
   -1.8921   -3.5010   -2.6088 O   0  0  0  0  0  0  0  0  0  0  0  0
   -3.0339   -5.3370   -0.1828 N   0  0  0  0  0  0  0  0  0  0  0  0
    2.4052   -5.8652    2.4452 C   0  0  0  0  0  0  0  0  0  0  0  0
    3.3614   -6.7583    3.2143 C   0  0  1  0  0  0  0  0  0  0  0  0
    2.3330   -4.7800    2.9192 O   0  0  0  0  0  0  0  0  0  0  0  0
    4.7062   -6.2699    3.1210 O   0  0  0  0  0  0  0  0  0  0  0  0
    2.8850   -6.6587    4.6950 C   0  0  0  0  0  0  0  0  0  0  0  0
    1.5354   -7.2173    4.9281 N   0  0  0  0  0  0  0  0  0  0  0  0
   -1.4447   -2.1266   -2.2722 C   0  0  2  0  0  0  0  0  0  0  0  0
   -2.2932   -0.8812   -2.5953 C   0  0  1  0  0  0  0  0  0  0  0  0
   -1.6047    0.3903   -1.9967 C   0  0  2  0  0  0  0  0  0  0  0  0
   -0.1389    0.6041   -2.5308 C   0  0  1  0  0  0  0  0  0  0  0  0
    0.7314   -0.5388   -2.1091 C   0  0  2  0  0  0  0  0  0  0  0  0
   -0.0482   -1.7997   -2.6115 O   0  0  0  0  0  0  0  0  0  0  0  0
    1.1486    0.0563   -0.5509 C   0  0  0  0  0  0  0  0  0  0  0  0
    2.0114   -0.4885    0.4907 N   0  0  0  0  0  0  0  0  0  0  0  0
   -0.0212    0.6667   -3.9463 O   0  0  0  0  0  0  0  0  0  0  0  0
   -1.8062    0.5045   -0.5783 O   0  0  0  0  0  0  0  0  0  0  0  0
   -2.3383   -0.7303   -4.0073 O   0  0  0  0  0  0  0  0  0  0  0  0
    2.4803   -3.3350   -0.3642 C   0  0  2  0  0  0  0  0  0  0  0  0
    2.4108   -3.2460    1.2075 C   0  0  1  0  0  0  0  0  0  0  0  0
    0.6302   -3.2510    1.8983 C   0  0  2  0  0  0  0  0  0  0  0  0
   -0.3508   -2.3176    1.1545 C   0  0  1  0  0  0  0  0  0  0  0  0
    0.2258   -2.5144   -0.1921 C   0  0  0  0  0  0  0  0  0  0  0  0
    1.4979   -2.4811   -0.7795 O   0  0  0  0  0  0  0  0  0  0  0  0
    3.6130   -4.0727    1.3709 O   0  0  0  0  0  0  0  0  0  0  0  0
    0.0183   -3.2650    3.2610 N   0  0  0  0  0  0  0  0  0  0  0  0
   -1.9878   -2.4937    1.0502 C   0  0  0  0  0  0  0  0  0  0  0  0
   -0.3231   -1.0112    1.6907 O   0  0  0  0  0  0  0  0  0  0  0  0
   -0.0978   -4.6313    3.7529 C   0  0  0  0  0  0  0  0  0  0  0  0
  1  7  1  6
  1  2  1  0
  1  6  1  0
  2  8  1  1
  2  3  1  0
  3  4  1  0
  3  9  1  6
  4  5  1  0
  4 10  1  1
  5  6  1  0
  5 11  1  6
  7 12  1  0
 29  8  1  1
 12 13  1  0
 12 14  2  0
 13 15  1  1
 13 16  1  0
 16 17  1  0
 18 23  1  0
 18 19  1  0
 18 10  1  6
 19 20  1  0
 19 28  1  6
 20 21  1  0
 20 27  1  1
 21 22  1  0
 21 26  1  6
 22 23  1  0
 22 24  1  1
 24 25  1  0
 29 30  1  0
 29 34  1  0
 30 31  1  0
 30 35  1  1
 31 32  1  0
 31 36  1  1
 32 33  1  0
 32 37  1  6
 32 38  1  0
 33 34  1  0
 36 39  1  0
M  END
>  <DRUGBANK_ID>  (1) 
DB13540

>  <COMMON_NAME>  (1) 
Isepamicin

>  <CAS_NUMBER>  (1) 
58152-03-7

>  <UNII>  (1) 
G7K224460P

>  <SYNONYMS>  (1) 
HAPA-B; HAPA-gentamycin B; Isepamicin; Isepamicina; Isepamicinum

$$$$
