
     RDKit          3D

 25 25  0  0  0  0  0  0  0  0999 V2000
    1.0964    0.0346   -0.0941 C   0  0  0  0  0  0  0  0  0  0  0  0
    0.6409   -1.2126   -0.8330 C   0  0  0  0  0  0  0  0  0  0  0  0
    1.1427   -2.4751   -0.1272 C   0  0  0  0  0  0  0  0  0  0  0  0
   -3.9170  -11.7028    0.5591 C   0  0  0  0  0  0  0  0  0  0  0  0
   -4.1285  -12.8742   -0.3549 C   0  0  0  0  0  0  0  0  0  0  0  0
    0.5740   -2.6265    1.2913 C   0  0  0  0  0  0  0  0  0  0  0  0
   -4.5936  -10.5599    0.4220 C   0  0  0  0  0  0  0  0  0  0  0  0
   -2.8195  -13.2952   -1.0287 C   0  0  0  0  0  0  0  0  0  0  0  0
   -0.9504   -2.6469    1.3184 C   0  0  0  0  0  0  0  0  0  0  0  0
   -4.3431   -9.3326    1.2437 C   0  0  0  0  0  0  0  0  0  0  0  0
   -1.7062  -13.6582   -0.0422 C   0  0  0  0  0  0  0  0  0  0  0  0
   -2.1422   -4.9039    1.2719 C   0  0  0  0  0  0  0  0  0  0  0  0
   -2.6111   -5.9636    0.5930 C   0  0  0  0  0  0  0  0  0  0  0  0
   -5.4680   -6.3283   -0.3304 C   0  0  0  0  0  0  0  0  0  0  0  0
   -1.4589   -3.8283    0.5231 C   0  0  0  0  0  0  0  0  0  0  0  0
   -3.8863   -8.1592    0.3701 C   0  0  2  0  0  0  0  0  0  0  0  0
   -3.6648   -6.8661    1.1929 C   0  0  2  0  0  0  0  0  0  0  0  0
   -4.9874   -7.7226   -0.5930 C   0  0  0  0  0  0  0  0  0  0  0  0
   -5.0388   -6.1531    1.1170 C   0  0  1  0  0  0  0  0  0  0  0  0
   -2.0483  -14.8421    0.8245 C   0  0  0  0  0  0  0  0  0  0  0  0
   -1.3651   -3.8953   -0.7009 O   0  0  0  0  0  0  0  0  0  0  0  0
   -5.4302   -8.4072   -1.5074 O   0  0  0  0  0  0  0  0  0  0  0  0
   -5.0056   -4.7797    1.4883 O   0  0  0  0  0  0  0  0  0  0  0  0
   -1.4661  -15.9201    0.8239 O   0  0  0  0  0  0  0  0  0  0  0  0
   -3.0838  -14.6290    1.6551 O   0  0  0  0  0  0  0  0  0  0  0  0
  2  1  1  0
  3  2  1  0
  5  4  1  0
  6  3  1  0
  7  4  2  3
  8  5  1  0
  9  6  1  0
 10  7  1  0
 11  8  1  0
 13 12  2  0
 15  9  1  0
 15 12  1  0
 16 10  1  1
 17 13  1  6
 17 16  1  0
 18 14  1  0
 18 16  1  0
 19 14  1  0
 19 17  1  0
 20 11  1  0
 21 15  2  0
 22 18  2  0
 19 23  1  6
 24 20  2  0
 25 20  1  0
M  END
>  <DRUGBANK_ID>  (1) 
DB07177

>  <COMMON_NAME>  (1) 
(5E,13E)-11-HYDROXY-9,15-DIOXOPROSTA-5,13-DIEN-1-OIC ACID

$$$$
