DZG
     RDKit          3D

 30 33  0  0  0  0  0  0  0  0999 V2000
    1.0307    0.0685    0.0051 C   0  0  0  0  0  0  0  0  0  0  0  0
    0.5468   -0.1949   -1.3133 O   0  0  0  0  0  0  0  0  0  0  0  0
    0.9682    0.7616   -2.1961 C   0  0  0  0  0  0  0  0  0  0  0  0
    0.0025    1.3875   -2.9697 C   0  0  0  0  0  0  0  0  0  0  0  0
    0.3795    2.4539   -3.7964 C   0  0  0  0  0  0  0  0  0  0  0  0
    2.3141    1.1075   -2.3465 C   0  0  0  0  0  0  0  0  0  0  0  0
    2.7095    2.0645   -3.2873 C   0  0  0  0  0  0  0  0  0  0  0  0
    1.7432    2.7199   -4.0537 C   0  0  0  0  0  0  0  0  0  0  0  0
    2.2949    3.8614   -5.3625 S   0  0  0  0  0  0  0  0  0  0  0  0
    3.7182    4.0029   -5.2058 O   0  0  0  0  0  0  0  0  0  0  0  0
    1.4090    5.0155   -5.2673 O   0  0  0  0  0  0  0  0  0  0  0  0
    2.0582    3.1620   -6.9263 N   0  0  0  0  0  0  0  0  0  0  0  0
    0.6481    2.9405   -7.3868 C   0  0  0  0  0  0  0  0  0  0  0  0
    0.1506    1.6555   -6.7338 C   0  0  0  0  0  0  0  0  0  0  0  0
    2.9311    1.9994   -7.3057 C   0  0  0  0  0  0  0  0  0  0  0  0
    2.4322    0.7244   -6.6210 C   0  0  0  0  0  0  0  0  0  0  0  0
    0.9917    0.4510   -6.9624 N   0  0  0  0  0  0  0  0  0  0  0  0
    0.6296   -0.2117   -8.4576 S   0  0  0  0  0  0  0  0  0  0  0  0
    1.0855    0.7366   -9.4482 O   0  0  0  0  0  0  0  0  0  0  0  0
   -0.7595   -0.6186   -8.4219 O   0  0  0  0  0  0  0  0  0  0  0  0
    1.6559   -1.6396   -8.5499 C   0  0  0  0  0  0  0  0  0  0  0  0
    1.5877   -2.6905   -7.6246 C   0  0  0  0  0  0  0  0  0  0  0  0
    2.4403   -3.7873   -7.8099 C   0  0  0  0  0  0  0  0  0  0  0  0
    2.6313   -4.6804   -6.7779 O   0  0  0  0  0  0  0  0  0  0  0  0
    3.6807   -5.6379   -7.0677 C   0  0  0  0  0  0  0  0  0  0  0  0
    3.5121   -6.1458   -8.4868 C   0  0  0  0  0  0  0  0  0  0  0  0
    3.7694   -5.0748   -9.4011 O   0  0  0  0  0  0  0  0  0  0  0  0
    3.1195   -3.9284   -9.0254 C   0  0  0  0  0  0  0  0  0  0  0  0
    3.2067   -2.8586   -9.9059 C   0  0  0  0  0  0  0  0  0  0  0  0
    2.5664   -1.6703   -9.6049 C   0  0  0  0  0  0  0  0  0  0  0  0
  2  1  1  0
  2  3  1  0
  3  6  2  0
  4  3  1  0
  4  5  2  0
  5  8  1  0
  6  7  1  0
  8  7  2  0
  8  9  1  0
  9 12  1  0
  9 11  2  0
 10  9  2  0
 12 13  1  0
 13 14  1  0
 15 12  1  0
 15 16  1  0
 16 17  1  0
 17 14  1  0
 17 18  1  0
 18 19  2  0
 18 21  1  0
 20 18  2  0
 21 22  2  0
 22 23  1  0
 23 24  1  0
 24 25  1  0
 26 25  1  0
 27 26  1  0
 28 23  2  0
 28 27  1  0
 29 28  1  0
 30 21  1  0
 30 29  2  0
M  END
>  <DRUGBANK_ID>  (1) 
DB07697

>  <COMMON_NAME>  (1) 
1-(2,3-dihydro-1,4-benzodioxin-6-ylsulfonyl)-4-[(4-methoxyphenyl)sulfonyl]piperazine

$$$$
